
     RDKit          3D

 61 64  0  0  0  0  0  0  0  0999 V2000
  139.1700   78.6520  220.8320 C   0  0  0  0  0  0  0  0  0  0  0  0
  140.1620   77.9940  221.7040 C   0  0  2  0  0  0  0  0  0  0  0  0
  141.0250   79.0050  222.3890 C   0  0  0  0  0  0  0  0  0  0  0  0
  141.2170   80.2470  221.7670 C   0  0  0  0  0  0  0  0  0  0  0  0
  141.9640   81.2440  222.3280 C   0  0  0  0  0  0  0  0  0  0  0  0
  142.5700   81.0580  223.5540 C   0  0  0  0  0  0  0  0  0  0  0  0
  142.3930   79.8570  224.1730 C   0  0  0  0  0  0  0  0  0  0  0  0
  141.6280   78.8390  223.5980 C   0  0  0  0  0  0  0  0  0  0  0  0
  140.8110   76.8240  221.2430 N   0  0  0  0  0  0  0  0  0  0  0  0
  141.8520   77.0270  220.1860 C   0  0  0  0  0  0  0  0  0  0  0  0
  140.6280   75.4900  221.6280 C   0  0  0  0  0  0  0  0  0  0  0  0
  139.9290   75.2490  222.6980 O   0  0  0  0  0  0  0  0  0  0  0  0
  141.1240   74.2540  220.9780 C   0  0  2  0  0  0  0  0  0  0  0  0
  142.5710   74.2920  220.6460 C   0  0  0  0  0  0  0  0  0  0  0  0
  142.6690   73.6090  219.2940 C   0  0  0  0  0  0  0  0  0  0  0  0
  141.4160   74.2080  218.5930 C   0  0  0  0  0  0  0  0  0  0  0  0
  140.4400   74.1960  219.6620 N   0  0  0  0  0  0  0  0  0  0  0  0
  139.0200   74.1410  219.6070 C   0  0  0  0  0  0  0  0  0  0  0  0
  138.4590   74.2670  218.4350 O   0  0  0  0  0  0  0  0  0  0  0  0
  138.0700   73.9640  220.6940 C   0  0  0  0  0  0  0  0  0  0  0  0
  138.4080   73.1370  221.7870 N   0  0  0  0  0  0  0  0  0  0  0  0
  138.5280   71.7030  221.6910 C   0  0  0  0  0  0  0  0  0  0  0  0
  138.3180   71.1090  220.5800 O   0  0  0  0  0  0  0  0  0  0  0  0
  138.8930   70.9260  222.8790 C   0  0  0  0  0  0  0  0  0  0  0  0
  138.5370   69.5980  222.9460 C   0  0  0  0  0  0  0  0  0  0  0  0
  138.8650   68.8260  224.0570 C   0  0  0  0  0  0  0  0  0  0  0  0
  139.5540   69.4340  225.0850 C   0  0  0  0  0  0  0  0  0  0  0  0
  139.9290   68.7730  226.2260 C   0  0  0  0  0  0  0  0  0  0  0  0
  140.6230   69.3850  227.2590 C   0  0  0  0  0  0  0  0  0  0  0  0
  141.0880   68.5080  228.7070 Cl  0  0  0  0  0  0  0  0  0  0  0  0
  140.9430   70.7290  227.1120 C   0  0  0  0  0  0  0  0  0  0  0  0
  140.5760   71.4100  225.9760 C   0  0  0  0  0  0  0  0  0  0  0  0
  139.8880   70.7760  224.9660 C   0  0  0  0  0  0  0  0  0  0  0  0
  139.5640   71.5010  223.8900 N   0  0  0  0  0  0  0  0  0  0  0  0
  138.4128   79.1543  221.4520 H   0  0  0  0  0  0  0  0  0  0  0  0
  139.6753   79.3946  220.1970 H   0  0  0  0  0  0  0  0  0  0  0  0
  138.6824   77.8977  220.1970 H   0  0  0  0  0  0  0  0  0  0  0  0
  139.5520   77.4985  222.4737 H   0  0  0  0  0  0  0  0  0  0  0  0
  140.7475   80.4257  220.7884 H   0  0  0  0  0  0  0  0  0  0  0  0
  142.0832   82.2011  221.7991 H   0  0  0  0  0  0  0  0  0  0  0  0
  143.1752   81.8521  224.0157 H   0  0  0  0  0  0  0  0  0  0  0  0
  142.8650   79.6844  225.1515 H   0  0  0  0  0  0  0  0  0  0  0  0
  141.5108   77.8849  224.1327 H   0  0  0  0  0  0  0  0  0  0  0  0
  142.8255   77.2168  220.6618 H   0  0  0  0  0  0  0  0  0  0  0  0
  141.9196   76.1251  219.5599 H   0  0  0  0  0  0  0  0  0  0  0  0
  141.5757   77.8882  219.5599 H   0  0  0  0  0  0  0  0  0  0  0  0
  140.9410   73.4146  221.6650 H   0  0  0  0  0  0  0  0  0  0  0  0
  142.9285   75.3304  220.5838 H   0  0  0  0  0  0  0  0  0  0  0  0
  143.1885   73.7973  221.4102 H   0  0  0  0  0  0  0  0  0  0  0  0
  143.5973   73.8770  218.7683 H   0  0  0  0  0  0  0  0  0  0  0  0
  142.6956   72.5100  219.3325 H   0  0  0  0  0  0  0  0  0  0  0  0
  141.6074   75.2313  218.2378 H   0  0  0  0  0  0  0  0  0  0  0  0
  141.1004   73.6528  217.6974 H   0  0  0  0  0  0  0  0  0  0  0  0
  137.8616   74.9639  221.1023 H   0  0  0  0  0  0  0  0  0  0  0  0
  137.2315   73.4334  220.2193 H   0  0  0  0  0  0  0  0  0  0  0  0
  138.5950   73.5340  222.7550 H   0  0  0  0  0  0  0  0  0  0  0  0
  137.9862   69.1408  222.1108 H   0  0  0  0  0  0  0  0  0  0  0  0
  138.5833   67.7641  224.1130 H   0  0  0  0  0  0  0  0  0  0  0  0
  139.6676   67.7093  226.3267 H   0  0  0  0  0  0  0  0  0  0  0  0
  141.4930   71.2508  227.9090 H   0  0  0  0  0  0  0  0  0  0  0  0
  140.8350   72.4741  225.8726 H   0  0  0  0  0  0  0  0  0  0  0  0
  1  2  1  0
  2  3  1  0
  3  4  2  0
  4  5  1  0
  5  6  2  0
  6  7  1  0
  7  8  2  0
  2  9  1  0
  9 10  1  0
  9 11  1  0
 11 12  2  0
 11 13  1  0
 13 14  1  0
 14 15  1  0
 15 16  1  0
 16 17  1  0
 17 18  1  0
 18 19  2  0
 18 20  1  0
 20 21  1  0
 21 22  1  0
 22 23  2  0
 22 24  1  0
 24 25  2  0
 25 26  1  0
 26 27  2  0
 27 28  1  0
 28 29  2  0
 29 30  1  0
 29 31  1  0
 31 32  2  0
 32 33  1  0
 33 34  2  0
  8  3  1  0
 17 13  1  0
 34 24  1  0
 33 27  1  0
  1 35  1  0
  1 36  1  0
  1 37  1  0
  2 38  1  1
  4 39  1  0
  5 40  1  0
  6 41  1  0
  7 42  1  0
  8 43  1  0
 10 44  1  0
 10 45  1  0
 10 46  1  0
 13 47  1  1
 14 48  1  0
 14 49  1  0
 15 50  1  0
 15 51  1  0
 16 52  1  0
 16 53  1  0
 20 54  1  0
 20 55  1  0
 21 56  1  0
 25 57  1  0
 26 58  1  0
 28 59  1  0
 31 60  1  0
 32 61  1  0
M  END
>  <smiles>  (1) 
C[C@H](c1ccccc1)N(C)C(=O)[C@@H]1CCCN1C(=O)CNC(=O)c1ccc2cc(Cl)ccc2n1

>  <score_type>  (1) 
oracle

>  <origin>  (1) 
autodockgpu

>  <m_score__min__energy>  (1) 
-9.0800000000000001

>  <m_primary>  (1) 
energy

>  <rmsd>  (1) 
2.9971233206624426

>  <m_score__min__rmsd>  (1) 
2.9971233206624426

>  <meeko>  (1) 
{"free_energy": -8.43, "intermolecular_energy": -10.81, "internal_energy": -2.8, "cluster_size": 24, "cluster_id": 1, "rank_in_cluster": 15}

>  <energy>  (1) 
-9.08

>  <cluster_rmsd>  (1) 
0.0

>  <cluster>  (1) 
1

$$$$

     RDKit          3D

 61 64  0  0  0  0  0  0  0  0999 V2000
  142.2140   77.7490  219.5450 C   0  0  0  0  0  0  0  0  0  0  0  0
  141.2470   77.7340  220.6600 C   0  0  2  0  0  0  0  0  0  0  0  0
  141.6310   78.7230  221.7130 C   0  0  0  0  0  0  0  0  0  0  0  0
  141.5070   78.3450  223.0590 C   0  0  0  0  0  0  0  0  0  0  0  0
  141.8590   79.1700  224.0900 C   0  0  0  0  0  0  0  0  0  0  0  0
  142.3600   80.4310  223.8370 C   0  0  0  0  0  0  0  0  0  0  0  0
  142.4880   80.8140  222.5350 C   0  0  0  0  0  0  0  0  0  0  0  0
  142.1280   79.9690  221.4820 C   0  0  0  0  0  0  0  0  0  0  0  0
  140.7470   76.4910  221.1180 N   0  0  0  0  0  0  0  0  0  0  0  0
  141.6060   75.2970  220.8350 C   0  0  0  0  0  0  0  0  0  0  0  0
  139.5600   76.2030  221.8020 C   0  0  0  0  0  0  0  0  0  0  0  0
  139.5750   75.2460  222.6830 O   0  0  0  0  0  0  0  0  0  0  0  0
  138.2310   76.8470  221.6790 C   0  0  2  0  0  0  0  0  0  0  0  0
  137.8940   77.7450  222.8130 C   0  0  0  0  0  0  0  0  0  0  0  0
  136.4180   77.4980  223.0670 C   0  0  0  0  0  0  0  0  0  0  0  0
  136.3670   75.9520  222.9040 C   0  0  0  0  0  0  0  0  0  0  0  0
  137.2450   75.7420  221.7720 N   0  0  0  0  0  0  0  0  0  0  0  0
  137.2750   74.6870  220.8170 C   0  0  0  0  0  0  0  0  0  0  0  0
  136.3060   74.6410  219.9440 O   0  0  0  0  0  0  0  0  0  0  0  0
  138.2500   73.6190  220.6680 C   0  0  0  0  0  0  0  0  0  0  0  0
  138.5720   72.8080  221.7780 N   0  0  0  0  0  0  0  0  0  0  0  0
  138.5720   71.3670  221.7350 C   0  0  0  0  0  0  0  0  0  0  0  0
  138.2630   70.7510  220.6600 O   0  0  0  0  0  0  0  0  0  0  0  0
  138.9310   70.6070  222.9360 C   0  0  0  0  0  0  0  0  0  0  0  0
  138.5650   69.2830  223.0250 C   0  0  0  0  0  0  0  0  0  0  0  0
  138.8870   68.5270  224.1500 C   0  0  0  0  0  0  0  0  0  0  0  0
  139.5800   69.1480  225.1670 C   0  0  0  0  0  0  0  0  0  0  0  0
  139.9500   68.5040  226.3190 C   0  0  0  0  0  0  0  0  0  0  0  0
  140.6470   69.1280  227.3430 C   0  0  0  0  0  0  0  0  0  0  0  0
  141.1050   68.2720  228.8060 Cl  0  0  0  0  0  0  0  0  0  0  0  0
  140.9770   70.4660  227.1730 C   0  0  0  0  0  0  0  0  0  0  0  0
  140.6160   71.1310  226.0260 C   0  0  0  0  0  0  0  0  0  0  0  0
  139.9240   70.4860  225.0260 C   0  0  0  0  0  0  0  0  0  0  0  0
  139.6060   71.1940  223.9370 N   0  0  0  0  0  0  0  0  0  0  0  0
  143.2376   77.7649  219.9476 H   0  0  0  0  0  0  0  0  0  0  0  0
  142.0765   76.8486  218.9282 H   0  0  0  0  0  0  0  0  0  0  0  0
  142.0486   78.6447  218.9282 H   0  0  0  0  0  0  0  0  0  0  0  0
  140.3084   78.0801  220.2024 H   0  0  0  0  0  0  0  0  0  0  0  0
  141.1111   77.3458  223.2931 H   0  0  0  0  0  0  0  0  0  0  0  0
  141.7423   78.8268  225.1285 H   0  0  0  0  0  0  0  0  0  0  0  0
  142.6464   81.1043  224.6584 H   0  0  0  0  0  0  0  0  0  0  0  0
  142.8850   81.8143  222.3074 H   0  0  0  0  0  0  0  0  0  0  0  0
  142.2486   80.3176  220.4457 H   0  0  0  0  0  0  0  0  0  0  0  0
  141.9307   74.8457  221.7841 H   0  0  0  0  0  0  0  0  0  0  0  0
  141.0300   74.5597  220.2565 H   0  0  0  0  0  0  0  0  0  0  0  0
  142.4881   75.6088  220.2565 H   0  0  0  0  0  0  0  0  0  0  0  0
  138.2255   77.4347  220.7492 H   0  0  0  0  0  0  0  0  0  0  0  0
  138.4897   77.4895  223.7018 H   0  0  0  0  0  0  0  0  0  0  0  0
  138.1093   78.8003  222.5894 H   0  0  0  0  0  0  0  0  0  0  0  0
  136.1205   77.8113  224.0786 H   0  0  0  0  0  0  0  0  0  0  0  0
  135.7363   78.0548  222.4073 H   0  0  0  0  0  0  0  0  0  0  0  0
  136.7442   75.4423  223.8028 H   0  0  0  0  0  0  0  0  0  0  0  0
  135.3520   75.5535  222.7592 H   0  0  0  0  0  0  0  0  0  0  0  0
  137.8720   72.9489  219.8819 H   0  0  0  0  0  0  0  0  0  0  0  0
  139.1881   74.1546  220.4604 H   0  0  0  0  0  0  0  0  0  0  0  0
  138.8370   73.2240  222.7190 H   0  0  0  0  0  0  0  0  0  0  0  0
  138.0112   68.8159  222.1972 H   0  0  0  0  0  0  0  0  0  0  0  0
  138.5975   67.4684  224.2243 H   0  0  0  0  0  0  0  0  0  0  0  0
  139.6819   67.4437  226.4368 H   0  0  0  0  0  0  0  0  0  0  0  0
  141.5308   70.9969  227.9613 H   0  0  0  0  0  0  0  0  0  0  0  0
  140.8831   72.1912  225.9055 H   0  0  0  0  0  0  0  0  0  0  0  0
  1  2  1  0
  2  3  1  0
  3  4  2  0
  4  5  1  0
  5  6  2  0
  6  7  1  0
  7  8  2  0
  2  9  1  0
  9 10  1  0
  9 11  1  0
 11 12  2  0
 11 13  1  0
 13 14  1  0
 14 15  1  0
 15 16  1  0
 16 17  1  0
 17 18  1  0
 18 19  2  0
 18 20  1  0
 20 21  1  0
 21 22  1  0
 22 23  2  0
 22 24  1  0
 24 25  2  0
 25 26  1  0
 26 27  2  0
 27 28  1  0
 28 29  2  0
 29 30  1  0
 29 31  1  0
 31 32  2  0
 32 33  1  0
 33 34  2  0
  8  3  1  0
 17 13  1  0
 34 24  1  0
 33 27  1  0
  1 35  1  0
  1 36  1  0
  1 37  1  0
  2 38  1  6
  4 39  1  0
  5 40  1  0
  6 41  1  0
  7 42  1  0
  8 43  1  0
 10 44  1  0
 10 45  1  0
 10 46  1  0
 13 47  1  6
 14 48  1  0
 14 49  1  0
 15 50  1  0
 15 51  1  0
 16 52  1  0
 16 53  1  0
 20 54  1  0
 20 55  1  0
 21 56  1  0
 25 57  1  0
 26 58  1  0
 28 59  1  0
 31 60  1  0
 32 61  1  0
M  END
>  <smiles>  (2) 
C[C@H](c1ccccc1)N(C)C(=O)[C@@H]1CCCN1C(=O)CNC(=O)c1ccc2cc(Cl)ccc2n1

>  <score_type>  (2) 
oracle

>  <origin>  (2) 
autodockgpu

>  <m_score__min__energy>  (2) 
-9.0800000000000001

>  <m_primary>  (2) 
energy

>  <rmsd>  (2) 
3.468262982845951

>  <m_score__min__rmsd>  (2) 
3.468262982845951

>  <meeko>  (2) 
{"free_energy": -8.76, "intermolecular_energy": -11.15, "internal_energy": -2.9, "cluster_size": 24, "cluster_id": 1, "rank_in_cluster": 7}

>  <energy>  (2) 
-8.95

>  <cluster_rmsd>  (2) 
1.2

>  <cluster>  (2) 
1

$$$$

     RDKit          3D

 61 64  0  0  0  0  0  0  0  0999 V2000
  139.2760   68.1230  224.9030 C   0  0  0  0  0  0  0  0  0  0  0  0
  139.1470   69.5770  224.6800 C   0  0  2  0  0  0  0  0  0  0  0  0
  139.8180   70.3450  225.7740 C   0  0  0  0  0  0  0  0  0  0  0  0
  139.6460   69.9090  227.0960 C   0  0  0  0  0  0  0  0  0  0  0  0
  140.2400   70.5290  228.1590 C   0  0  0  0  0  0  0  0  0  0  0  0
  141.0490   71.6310  227.9630 C   0  0  0  0  0  0  0  0  0  0  0  0
  141.2270   72.0680  226.6840 C   0  0  0  0  0  0  0  0  0  0  0  0
  140.6180   71.4320  225.5990 C   0  0  0  0  0  0  0  0  0  0  0  0
  137.9150   70.0930  224.2150 N   0  0  0  0  0  0  0  0  0  0  0  0
  136.6990   69.6720  224.9810 C   0  0  0  0  0  0  0  0  0  0  0  0
  137.6540   70.9460  223.1360 C   0  0  0  0  0  0  0  0  0  0  0  0
  137.0030   72.0480  223.3670 O   0  0  0  0  0  0  0  0  0  0  0  0
  138.0210   70.7870  221.7090 C   0  0  2  0  0  0  0  0  0  0  0  0
  138.1750   69.3720  221.2850 C   0  0  0  0  0  0  0  0  0  0  0  0
  139.3710   69.3830  220.3510 C   0  0  0  0  0  0  0  0  0  0  0  0
  140.3110   70.3550  221.1200 C   0  0  0  0  0  0  0  0  0  0  0  0
  139.3830   71.3640  221.5840 N   0  0  0  0  0  0  0  0  0  0  0  0
  139.6020   72.7320  221.9080 C   0  0  0  0  0  0  0  0  0  0  0  0
  140.6190   73.0110  222.6780 O   0  0  0  0  0  0  0  0  0  0  0  0
  138.8360   73.9000  221.5030 C   0  0  0  0  0  0  0  0  0  0  0  0
  137.8240   74.3990  222.3500 N   0  0  0  0  0  0  0  0  0  0  0  0
  137.3290   75.7520  222.2840 C   0  0  0  0  0  0  0  0  0  0  0  0
  137.8100   76.5770  221.4370 O   0  0  0  0  0  0  0  0  0  0  0  0
  136.2670   76.1790  223.2000 C   0  0  0  0  0  0  0  0  0  0  0  0
  135.7470   77.4480  223.0760 C   0  0  0  0  0  0  0  0  0  0  0  0
  134.7360   77.8910  223.9260 C   0  0  0  0  0  0  0  0  0  0  0  0
  134.2780   77.0210  224.8920 C   0  0  0  0  0  0  0  0  0  0  0  0
  133.2880   77.3490  225.7820 C   0  0  0  0  0  0  0  0  0  0  0  0
  132.8260   76.4730  226.7530 C   0  0  0  0  0  0  0  0  0  0  0  0
  131.5560   76.9260  227.8780 Cl  0  0  0  0  0  0  0  0  0  0  0  0
  133.4050   75.2120  226.8100 C   0  0  0  0  0  0  0  0  0  0  0  0
  134.3980   74.8630  225.9270 C   0  0  0  0  0  0  0  0  0  0  0  0
  134.8370   75.7530  224.9720 C   0  0  0  0  0  0  0  0  0  0  0  0
  135.8060   75.3460  224.1460 N   0  0  0  0  0  0  0  0  0  0  0  0
  139.2942   67.9180  225.9836 H   0  0  0  0  0  0  0  0  0  0  0  0
  138.4203   67.6046  224.4458 H   0  0  0  0  0  0  0  0  0  0  0  0
  140.2096   67.7633  224.4458 H   0  0  0  0  0  0  0  0  0  0  0  0
  139.7090   69.7553  223.7514 H   0  0  0  0  0  0  0  0  0  0  0  0
  139.0076   69.0332  227.2845 H   0  0  0  0  0  0  0  0  0  0  0  0
  140.0728   70.1480  229.1772 H   0  0  0  0  0  0  0  0  0  0  0  0
  141.5333   72.1389  228.8101 H   0  0  0  0  0  0  0  0  0  0  0  0
  141.8667   72.9440  226.5014 H   0  0  0  0  0  0  0  0  0  0  0  0
  140.7886   71.8177  224.5830 H   0  0  0  0  0  0  0  0  0  0  0  0
  136.9026   69.7425  226.0597 H   0  0  0  0  0  0  0  0  0  0  0  0
  135.8568   70.3309  224.7230 H   0  0  0  0  0  0  0  0  0  0  0  0
  136.4445   68.6334  224.7230 H   0  0  0  0  0  0  0  0  0  0  0  0
  137.2306   71.2537  221.1029 H   0  0  0  0  0  0  0  0  0  0  0  0
  138.3659   68.7245  222.1535 H   0  0  0  0  0  0  0  0  0  0  0  0
  137.2690   68.9799  220.7998 H   0  0  0  0  0  0  0  0  0  0  0  0
  139.8162   68.3825  220.2471 H   0  0  0  0  0  0  0  0  0  0  0  0
  139.1459   69.6805  219.3162 H   0  0  0  0  0  0  0  0  0  0  0  0
  140.8065   69.8497  221.9621 H   0  0  0  0  0  0  0  0  0  0  0  0
  141.1329   70.7551  220.5082 H   0  0  0  0  0  0  0  0  0  0  0  0
  139.5565   74.7171  221.3506 H   0  0  0  0  0  0  0  0  0  0  0  0
  138.2819   73.5499  220.6196 H   0  0  0  0  0  0  0  0  0  0  0  0
  137.3640   73.7940  223.0930 H   0  0  0  0  0  0  0  0  0  0  0  0
  136.1346   78.1202  222.2963 H   0  0  0  0  0  0  0  0  0  0  0  0
  134.3164   78.9032  223.8292 H   0  0  0  0  0  0  0  0  0  0  0  0
  132.8400   78.3519  225.7233 H   0  0  0  0  0  0  0  0  0  0  0  0
  133.0667   74.4885  227.5664 H   0  0  0  0  0  0  0  0  0  0  0  0
  134.8478   73.8608  225.9834 H   0  0  0  0  0  0  0  0  0  0  0  0
  1  2  1  0
  2  3  1  0
  3  4  2  0
  4  5  1  0
  5  6  2  0
  6  7  1  0
  7  8  2  0
  2  9  1  0
  9 10  1  0
  9 11  1  0
 11 12  2  0
 11 13  1  0
 13 14  1  0
 14 15  1  0
 15 16  1  0
 16 17  1  0
 17 18  1  0
 18 19  2  0
 18 20  1  0
 20 21  1  0
 21 22  1  0
 22 23  2  0
 22 24  1  0
 24 25  2  0
 25 26  1  0
 26 27  2  0
 27 28  1  0
 28 29  2  0
 29 30  1  0
 29 31  1  0
 31 32  2  0
 32 33  1  0
 33 34  2  0
  8  3  1  0
 17 13  1  0
 34 24  1  0
 33 27  1  0
  1 35  1  0
  1 36  1  0
  1 37  1  0
  2 38  1  6
  4 39  1  0
  5 40  1  0
  6 41  1  0
  7 42  1  0
  8 43  1  0
 10 44  1  0
 10 45  1  0
 10 46  1  0
 13 47  1  6
 14 48  1  0
 14 49  1  0
 15 50  1  0
 15 51  1  0
 16 52  1  0
 16 53  1  0
 20 54  1  0
 20 55  1  0
 21 56  1  0
 25 57  1  0
 26 58  1  0
 28 59  1  0
 31 60  1  0
 32 61  1  0
M  END
>  <smiles>  (3) 
C[C@H](c1ccccc1)N(C)C(=O)[C@@H]1CCCN1C(=O)CNC(=O)c1ccc2cc(Cl)ccc2n1

>  <score_type>  (3) 
oracle

>  <origin>  (3) 
autodockgpu

>  <m_score__min__energy>  (3) 
-9.0800000000000001

>  <m_primary>  (3) 
energy

>  <rmsd>  (3) 
9.10741956584935

>  <m_score__min__rmsd>  (3) 
9.10741956584935

>  <meeko>  (3) 
{"free_energy": -7.58, "intermolecular_energy": -9.96, "internal_energy": -3.4, "cluster_size": 1, "cluster_id": 6, "rank_in_cluster": 1}

>  <energy>  (3) 
-8.93

>  <cluster_rmsd>  (3) 
0.37

>  <cluster>  (3) 
1

$$$$

     RDKit          3D

 61 64  0  0  0  0  0  0  0  0999 V2000
  139.9450   79.2140  219.5870 C   0  0  0  0  0  0  0  0  0  0  0  0
  141.0410   78.3700  220.1010 C   0  0  2  0  0  0  0  0  0  0  0  0
  141.5090   78.8580  221.4350 C   0  0  0  0  0  0  0  0  0  0  0  0
  142.1330   80.1120  221.5040 C   0  0  0  0  0  0  0  0  0  0  0  0
  142.5680   80.6540  222.6810 C   0  0  0  0  0  0  0  0  0  0  0  0
  142.4040   79.9700  223.8690 C   0  0  0  0  0  0  0  0  0  0  0  0
  141.7990   78.7500  223.8200 C   0  0  0  0  0  0  0  0  0  0  0  0
  141.3540   78.1980  222.6150 C   0  0  0  0  0  0  0  0  0  0  0  0
  142.0450   77.9300  219.2070 N   0  0  0  0  0  0  0  0  0  0  0  0
  142.5240   78.9400  218.2110 C   0  0  0  0  0  0  0  0  0  0  0  0
  142.6680   76.6790  219.1090 C   0  0  0  0  0  0  0  0  0  0  0  0
  143.1770   76.3340  217.9620 O   0  0  0  0  0  0  0  0  0  0  0  0
  142.8500   75.6410  220.1510 C   0  0  2  0  0  0  0  0  0  0  0  0
  144.1350   74.9050  220.0440 C   0  0  0  0  0  0  0  0  0  0  0  0
  143.7790   73.4670  220.3740 C   0  0  0  0  0  0  0  0  0  0  0  0
  142.4300   73.3370  219.6100 C   0  0  0  0  0  0  0  0  0  0  0  0
  141.8100   74.6180  219.8780 N   0  0  0  0  0  0  0  0  0  0  0  0
  140.4350   74.9840  219.9060 C   0  0  0  0  0  0  0  0  0  0  0  0
  139.8670   75.2720  218.7670 O   0  0  0  0  0  0  0  0  0  0  0  0
  139.5430   75.0920  221.0500 C   0  0  0  0  0  0  0  0  0  0  0  0
  139.5980   74.1200  222.0720 N   0  0  0  0  0  0  0  0  0  0  0  0
  139.7390   72.7070  221.8170 C   0  0  0  0  0  0  0  0  0  0  0  0
  139.8130   72.2700  220.6200 O   0  0  0  0  0  0  0  0  0  0  0  0
  139.7970   71.7710  222.9430 C   0  0  0  0  0  0  0  0  0  0  0  0
  139.2850   70.5030  222.7870 C   0  0  0  0  0  0  0  0  0  0  0  0
  139.3210   69.5840  223.8330 C   0  0  0  0  0  0  0  0  0  0  0  0
  139.8830   69.9870  225.0260 C   0  0  0  0  0  0  0  0  0  0  0  0
  139.9720   69.1680  226.1220 C   0  0  0  0  0  0  0  0  0  0  0  0
  140.5380   69.5730  227.3220 C   0  0  0  0  0  0  0  0  0  0  0  0
  140.6370   68.4980  228.7070 Cl  0  0  0  0  0  0  0  0  0  0  0  0
  141.0310   70.8690  227.3950 C   0  0  0  0  0  0  0  0  0  0  0  0
  140.9510   71.7060  226.3080 C   0  0  0  0  0  0  0  0  0  0  0  0
  140.3840   71.2770  225.1290 C   0  0  0  0  0  0  0  0  0  0  0  0
  140.3410   72.1440  224.1130 N   0  0  0  0  0  0  0  0  0  0  0  0
  139.3865   79.6441  220.4314 H   0  0  0  0  0  0  0  0  0  0  0  0
  140.3638   80.0251  218.9732 H   0  0  0  0  0  0  0  0  0  0  0  0
  139.2678   78.6019  218.9732 H   0  0  0  0  0  0  0  0  0  0  0  0
  140.5718   77.3862  220.2490 H   0  0  0  0  0  0  0  0  0  0  0  0
  142.2781   80.6818  220.5744 H   0  0  0  0  0  0  0  0  0  0  0  0
  143.0520   81.6418  222.6817 H   0  0  0  0  0  0  0  0  0  0  0  0
  142.7500   80.3954  224.8226 H   0  0  0  0  0  0  0  0  0  0  0  0
  141.6570   78.1847  224.7529 H   0  0  0  0  0  0  0  0  0  0  0  0
  140.8690   77.2107  222.6209 H   0  0  0  0  0  0  0  0  0  0  0  0
  142.9370   79.8107  218.7414 H   0  0  0  0  0  0  0  0  0  0  0  0
  143.3050   78.4908  217.5799 H   0  0  0  0  0  0  0  0  0  0  0  0
  141.6820   79.2605  217.5799 H   0  0  0  0  0  0  0  0  0  0  0  0
  142.8071   76.1367  221.1320 H   0  0  0  0  0  0  0  0  0  0  0  0
  144.5424   74.9805  219.0250 H   0  0  0  0  0  0  0  0  0  0  0  0
  144.9056   75.3096  220.7166 H   0  0  0  0  0  0  0  0  0  0  0  0
  144.5330   72.7626  219.9928 H   0  0  0  0  0  0  0  0  0  0  0  0
  143.7251   73.2393  221.4488 H   0  0  0  0  0  0  0  0  0  0  0  0
  142.5932   73.1892  218.5323 H   0  0  0  0  0  0  0  0  0  0  0  0
  141.8228   72.4751  219.9239 H   0  0  0  0  0  0  0  0  0  0  0  0
  139.7462   76.0642  221.5227 H   0  0  0  0  0  0  0  0  0  0  0  0
  138.5445   74.9477  220.6117 H   0  0  0  0  0  0  0  0  0  0  0  0
  139.5390   74.3810  223.1000 H   0  0  0  0  0  0  0  0  0  0  0  0
  138.8415   70.2115  221.8235 H   0  0  0  0  0  0  0  0  0  0  0  0
  138.9142   68.5693  223.7113 H   0  0  0  0  0  0  0  0  0  0  0  0
  139.5770   68.1442  226.0464 H   0  0  0  0  0  0  0  0  0  0  0  0
  141.4885   71.2280  228.3287 H   0  0  0  0  0  0  0  0  0  0  0  0
  141.3445   72.7306  226.3807 H   0  0  0  0  0  0  0  0  0  0  0  0
  1  2  1  0
  2  3  1  0
  3  4  2  0
  4  5  1  0
  5  6  2  0
  6  7  1  0
  7  8  2  0
  2  9  1  0
  9 10  1  0
  9 11  1  0
 11 12  2  0
 11 13  1  0
 13 14  1  0
 14 15  1  0
 15 16  1  0
 16 17  1  0
 17 18  1  0
 18 19  2  0
 18 20  1  0
 20 21  1  0
 21 22  1  0
 22 23  2  0
 22 24  1  0
 24 25  2  0
 25 26  1  0
 26 27  2  0
 27 28  1  0
 28 29  2  0
 29 30  1  0
 29 31  1  0
 31 32  2  0
 32 33  1  0
 33 34  2  0
  8  3  1  0
 17 13  1  0
 34 24  1  0
 33 27  1  0
  1 35  1  0
  1 36  1  0
  1 37  1  0
  2 38  1  1
  4 39  1  0
  5 40  1  0
  6 41  1  0
  7 42  1  0
  8 43  1  0
 10 44  1  0
 10 45  1  0
 10 46  1  0
 13 47  1  1
 14 48  1  0
 14 49  1  0
 15 50  1  0
 15 51  1  0
 16 52  1  0
 16 53  1  0
 20 54  1  0
 20 55  1  0
 21 56  1  0
 25 57  1  0
 26 58  1  0
 28 59  1  0
 31 60  1  0
 32 61  1  0
M  END
>  <smiles>  (4) 
C[C@H](c1ccccc1)N(C)C(=O)[C@@H]1CCCN1C(=O)CNC(=O)c1ccc2cc(Cl)ccc2n1

>  <score_type>  (4) 
oracle

>  <origin>  (4) 
autodockgpu

>  <m_score__min__energy>  (4) 
-9.0800000000000001

>  <m_primary>  (4) 
energy

>  <rmsd>  (4) 
3.4191211514897915

>  <m_score__min__rmsd>  (4) 
3.4191211514897915

>  <meeko>  (4) 
{"free_energy": -9.08, "intermolecular_energy": -11.46, "internal_energy": -2.64, "cluster_size": 24, "cluster_id": 1, "rank_in_cluster": 1}

>  <energy>  (4) 
-8.84

>  <cluster_rmsd>  (4) 
1.1

>  <cluster>  (4) 
1

$$$$

     RDKit          3D

 61 64  0  0  0  0  0  0  0  0999 V2000
  142.9920   76.7740  219.1930 C   0  0  0  0  0  0  0  0  0  0  0  0
  142.7870   75.5930  220.0540 C   0  0  2  0  0  0  0  0  0  0  0  0
  143.8000   74.5340  219.7560 C   0  0  0  0  0  0  0  0  0  0  0  0
  144.4870   73.9490  220.8290 C   0  0  0  0  0  0  0  0  0  0  0  0
  145.4100   72.9550  220.6590 C   0  0  0  0  0  0  0  0  0  0  0  0
  145.7030   72.4830  219.3960 C   0  0  0  0  0  0  0  0  0  0  0  0
  145.0440   73.0400  218.3410 C   0  0  0  0  0  0  0  0  0  0  0  0
  144.1010   74.0560  218.5180 C   0  0  0  0  0  0  0  0  0  0  0  0
  141.4680   75.1470  220.3050 N   0  0  0  0  0  0  0  0  0  0  0  0
  140.3720   76.0600  219.8500 C   0  0  0  0  0  0  0  0  0  0  0  0
  141.0250   73.9710  220.9210 C   0  0  0  0  0  0  0  0  0  0  0  0
  140.8520   73.9790  222.2100 O   0  0  0  0  0  0  0  0  0  0  0  0
  140.7030   72.6600  220.3090 C   0  0  2  0  0  0  0  0  0  0  0  0
  141.8040   72.0970  219.4850 C   0  0  0  0  0  0  0  0  0  0  0  0
  141.1050   71.4760  218.2900 C   0  0  0  0  0  0  0  0  0  0  0  0
  140.0310   72.5650  218.0030 C   0  0  0  0  0  0  0  0  0  0  0  0
  139.6130   72.9310  219.3400 N   0  0  0  0  0  0  0  0  0  0  0  0
  138.3820   73.4770  219.7980 C   0  0  0  0  0  0  0  0  0  0  0  0
  137.4950   73.7990  218.8950 O   0  0  0  0  0  0  0  0  0  0  0  0
  137.9520   73.7430  221.1620 C   0  0  0  0  0  0  0  0  0  0  0  0
  138.3850   72.8980  222.2060 N   0  0  0  0  0  0  0  0  0  0  0  0
  138.1120   71.4820  222.2470 C   0  0  0  0  0  0  0  0  0  0  0  0
  137.4410   70.9260  221.3140 O   0  0  0  0  0  0  0  0  0  0  0  0
  138.6110   70.6820  223.3690 C   0  0  0  0  0  0  0  0  0  0  0  0
  138.2980   69.3420  223.4260 C   0  0  0  0  0  0  0  0  0  0  0  0
  138.7520   68.5470  224.4750 C   0  0  0  0  0  0  0  0  0  0  0  0
  139.5210   69.1450  225.4510 C   0  0  0  0  0  0  0  0  0  0  0  0
  140.0220   68.4610  226.5290 C   0  0  0  0  0  0  0  0  0  0  0  0
  140.7960   69.0620  227.5100 C   0  0  0  0  0  0  0  0  0  0  0  0
  141.4220   68.1560  228.8780 Cl  0  0  0  0  0  0  0  0  0  0  0  0
  141.0650   70.4180  227.3760 C   0  0  0  0  0  0  0  0  0  0  0  0
  140.5730   71.1220  226.3040 C   0  0  0  0  0  0  0  0  0  0  0  0
  139.8070   70.4990  225.3440 C   0  0  0  0  0  0  0  0  0  0  0  0
  139.3610   71.2450  224.3280 N   0  0  0  0  0  0  0  0  0  0  0  0
  143.1464   77.6635  219.8214 H   0  0  0  0  0  0  0  0  0  0  0  0
  143.8761   76.6157  218.5579 H   0  0  0  0  0  0  0  0  0  0  0  0
  142.1063   76.9230  218.5579 H   0  0  0  0  0  0  0  0  0  0  0  0
  142.9817   75.9675  221.0698 H   0  0  0  0  0  0  0  0  0  0  0  0
  144.2749   74.3040  221.8483 H   0  0  0  0  0  0  0  0  0  0  0  0
  145.9222   72.5289  221.5343 H   0  0  0  0  0  0  0  0  0  0  0  0
  146.4437   71.6838  219.2456 H   0  0  0  0  0  0  0  0  0  0  0  0
  145.2600   72.6806  217.3241 H   0  0  0  0  0  0  0  0  0  0  0  0
  143.5918   74.4778  217.6389 H   0  0  0  0  0  0  0  0  0  0  0  0
  139.8615   76.4853  220.7266 H   0  0  0  0  0  0  0  0  0  0  0  0
  140.7995   76.8728  219.2446 H   0  0  0  0  0  0  0  0  0  0  0  0
  139.6498   75.4926  219.2446 H   0  0  0  0  0  0  0  0  0  0  0  0
  140.4744   71.9556  221.1224 H   0  0  0  0  0  0  0  0  0  0  0  0
  142.4936   72.8911  219.1626 H   0  0  0  0  0  0  0  0  0  0  0  0
  142.4109   71.3668  220.0405 H   0  0  0  0  0  0  0  0  0  0  0  0
  141.7904   71.3455  217.4395 H   0  0  0  0  0  0  0  0  0  0  0  0
  140.7038   70.4665  218.4632 H   0  0  0  0  0  0  0  0  0  0  0  0
  140.4646   73.4240  217.4700 H   0  0  0  0  0  0  0  0  0  0  0  0
  139.2088   72.2199  217.3588 H   0  0  0  0  0  0  0  0  0  0  0  0
  138.2913   74.7591  221.4117 H   0  0  0  0  0  0  0  0  0  0  0  0
  136.8657   73.5735  221.1273 H   0  0  0  0  0  0  0  0  0  0  0  0
  138.9440   73.2660  223.0310 H   0  0  0  0  0  0  0  0  0  0  0  0
  137.6815   68.8942  222.6327 H   0  0  0  0  0  0  0  0  0  0  0  0
  138.5051   67.4762  224.5237 H   0  0  0  0  0  0  0  0  0  0  0  0
  139.7998   67.3875  226.6194 H   0  0  0  0  0  0  0  0  0  0  0  0
  141.6759   70.9314  228.1331 H   0  0  0  0  0  0  0  0  0  0  0  0
  140.7934   72.1957  226.2113 H   0  0  0  0  0  0  0  0  0  0  0  0
  1  2  1  0
  2  3  1  0
  3  4  2  0
  4  5  1  0
  5  6  2  0
  6  7  1  0
  7  8  2  0
  2  9  1  0
  9 10  1  0
  9 11  1  0
 11 12  2  0
 11 13  1  0
 13 14  1  0
 14 15  1  0
 15 16  1  0
 16 17  1  0
 17 18  1  0
 18 19  2  0
 18 20  1  0
 20 21  1  0
 21 22  1  0
 22 23  2  0
 22 24  1  0
 24 25  2  0
 25 26  1  0
 26 27  2  0
 27 28  1  0
 28 29  2  0
 29 30  1  0
 29 31  1  0
 31 32  2  0
 32 33  1  0
 33 34  2  0
  8  3  1  0
 17 13  1  0
 34 24  1  0
 33 27  1  0
  1 35  1  0
  1 36  1  0
  1 37  1  0
  2 38  1  1
  4 39  1  0
  5 40  1  0
  6 41  1  0
  7 42  1  0
  8 43  1  0
 10 44  1  0
 10 45  1  0
 10 46  1  0
 13 47  1  1
 14 48  1  0
 14 49  1  0
 15 50  1  0
 15 51  1  0
 16 52  1  0
 16 53  1  0
 20 54  1  0
 20 55  1  0
 21 56  1  0
 25 57  1  0
 26 58  1  0
 28 59  1  0
 31 60  1  0
 32 61  1  0
M  END
>  <smiles>  (5) 
C[C@H](c1ccccc1)N(C)C(=O)[C@@H]1CCCN1C(=O)CNC(=O)c1ccc2cc(Cl)ccc2n1

>  <score_type>  (5) 
oracle

>  <origin>  (5) 
autodockgpu

>  <m_score__min__energy>  (5) 
-9.0800000000000001

>  <m_primary>  (5) 
energy

>  <rmsd>  (5) 
5.108294379858372

>  <m_score__min__rmsd>  (5) 
5.108294379858372

>  <meeko>  (5) 
{"free_energy": -7.43, "intermolecular_energy": -9.82, "internal_energy": -3.53, "cluster_size": 13, "cluster_id": 2, "rank_in_cluster": 10}

>  <energy>  (5) 
-8.82

>  <cluster_rmsd>  (5) 
1.74

>  <cluster>  (5) 
1

$$$$

     RDKit          3D

 61 64  0  0  0  0  0  0  0  0999 V2000
  142.5060   77.3400  219.7340 C   0  0  0  0  0  0  0  0  0  0  0  0
  141.3860   77.2820  220.6940 C   0  0  2  0  0  0  0  0  0  0  0  0
  141.5570   78.3020  221.7740 C   0  0  0  0  0  0  0  0  0  0  0  0
  141.8330   79.6260  221.4020 C   0  0  0  0  0  0  0  0  0  0  0  0
  141.9770   80.6320  222.3160 C   0  0  0  0  0  0  0  0  0  0  0  0
  141.8530   80.3740  223.6660 C   0  0  0  0  0  0  0  0  0  0  0  0
  141.5850   79.0920  224.0450 C   0  0  0  0  0  0  0  0  0  0  0  0
  141.4370   78.0650  223.1090 C   0  0  0  0  0  0  0  0  0  0  0  0
  140.8920   76.0190  221.0950 N   0  0  0  0  0  0  0  0  0  0  0  0
  141.7960   74.8530  220.8450 C   0  0  0  0  0  0  0  0  0  0  0  0
  139.6720   75.6880  221.6980 C   0  0  0  0  0  0  0  0  0  0  0  0
  139.6230   74.6220  222.4430 O   0  0  0  0  0  0  0  0  0  0  0  0
  138.3710   76.3930  221.6220 C   0  0  2  0  0  0  0  0  0  0  0  0
  137.9790   77.0660  222.8870 C   0  0  0  0  0  0  0  0  0  0  0  0
  136.4840   76.8290  222.9970 C   0  0  0  0  0  0  0  0  0  0  0  0
  136.4060   75.3470  222.5300 C   0  0  0  0  0  0  0  0  0  0  0  0
  137.3540   75.3280  221.4360 N   0  0  0  0  0  0  0  0  0  0  0  0
  137.4210   74.4790  220.2960 C   0  0  0  0  0  0  0  0  0  0  0  0
  136.9190   74.9310  219.1800 O   0  0  0  0  0  0  0  0  0  0  0  0
  137.9790   73.1400  220.1880 C   0  0  0  0  0  0  0  0  0  0  0  0
  138.3330   72.4350  221.3580 N   0  0  0  0  0  0  0  0  0  0  0  0
  138.4130   70.9960  221.4250 C   0  0  0  0  0  0  0  0  0  0  0  0
  138.1500   70.2860  220.3980 O   0  0  0  0  0  0  0  0  0  0  0  0
  138.8000   70.3510  222.6830 C   0  0  0  0  0  0  0  0  0  0  0  0
  138.4980   69.0220  222.8730 C   0  0  0  0  0  0  0  0  0  0  0  0
  138.8480   68.3720  224.0540 C   0  0  0  0  0  0  0  0  0  0  0  0
  139.5030   69.1030  225.0230 C   0  0  0  0  0  0  0  0  0  0  0  0
  139.8950   68.5680  226.2230 C   0  0  0  0  0  0  0  0  0  0  0  0
  140.5550   69.3030  227.1970 C   0  0  0  0  0  0  0  0  0  0  0  0
  141.0430   68.5870  228.7240 Cl  0  0  0  0  0  0  0  0  0  0  0  0
  140.8200   70.6390  226.9240 C   0  0  0  0  0  0  0  0  0  0  0  0
  140.4360   71.1940  225.7280 C   0  0  0  0  0  0  0  0  0  0  0  0
  139.7830   70.4400  224.7790 C   0  0  0  0  0  0  0  0  0  0  0  0
  139.4390   71.0460  223.6380 N   0  0  0  0  0  0  0  0  0  0  0  0
  143.4577   77.3893  220.2834 H   0  0  0  0  0  0  0  0  0  0  0  0
  142.4939   76.4400  219.1016 H   0  0  0  0  0  0  0  0  0  0  0  0
  142.4010   78.2339  219.1016 H   0  0  0  0  0  0  0  0  0  0  0  0
  140.5076   77.5699  220.0977 H   0  0  0  0  0  0  0  0  0  0  0  0
  141.9376   79.8639  220.3331 H   0  0  0  0  0  0  0  0  0  0  0  0
  142.1933   81.6546  221.9731 H   0  0  0  0  0  0  0  0  0  0  0  0
  141.9665   81.1754  224.4109 H   0  0  0  0  0  0  0  0  0  0  0  0
  141.4826   78.8601  225.1154 H   0  0  0  0  0  0  0  0  0  0  0  0
  141.2192   77.0448  223.4580 H   0  0  0  0  0  0  0  0  0  0  0  0
  142.1237   74.4304  221.8063 H   0  0  0  0  0  0  0  0  0  0  0  0
  141.2546   74.0854  220.2725 H   0  0  0  0  0  0  0  0  0  0  0  0
  142.6742   75.1861  220.2725 H   0  0  0  0  0  0  0  0  0  0  0  0
  138.4436   77.1498  220.8271 H   0  0  0  0  0  0  0  0  0  0  0  0
  138.5070   76.6215  223.7435 H   0  0  0  0  0  0  0  0  0  0  0  0
  138.2337   78.1361  222.8874 H   0  0  0  0  0  0  0  0  0  0  0  0
  136.1271   76.9500  224.0304 H   0  0  0  0  0  0  0  0  0  0  0  0
  135.8619   77.5285  222.4194 H   0  0  0  0  0  0  0  0  0  0  0  0
  136.7078   74.6582  223.3328 H   0  0  0  0  0  0  0  0  0  0  0  0
  135.3937   75.0232  222.2464 H   0  0  0  0  0  0  0  0  0  0  0  0
  137.2358   72.5262  219.6579 H   0  0  0  0  0  0  0  0  0  0  0  0
  138.9435   73.3036  219.6851 H   0  0  0  0  0  0  0  0  0  0  0  0
  138.5640   72.9350  222.2670 H   0  0  0  0  0  0  0  0  0  0  0  0
  137.9735   68.4659  222.0820 H   0  0  0  0  0  0  0  0  0  0  0  0
  138.6096   67.3094  224.2090 H   0  0  0  0  0  0  0  0  0  0  0  0
  139.6764   67.5085  226.4224 H   0  0  0  0  0  0  0  0  0  0  0  0
  141.3408   71.2564  227.6707 H   0  0  0  0  0  0  0  0  0  0  0  0
  140.6527   72.2533  225.5259 H   0  0  0  0  0  0  0  0  0  0  0  0
  1  2  1  0
  2  3  1  0
  3  4  2  0
  4  5  1  0
  5  6  2  0
  6  7  1  0
  7  8  2  0
  2  9  1  0
  9 10  1  0
  9 11  1  0
 11 12  2  0
 11 13  1  0
 13 14  1  0
 14 15  1  0
 15 16  1  0
 16 17  1  0
 17 18  1  0
 18 19  2  0
 18 20  1  0
 20 21  1  0
 21 22  1  0
 22 23  2  0
 22 24  1  0
 24 25  2  0
 25 26  1  0
 26 27  2  0
 27 28  1  0
 28 29  2  0
 29 30  1  0
 29 31  1  0
 31 32  2  0
 32 33  1  0
 33 34  2  0
  8  3  1  0
 17 13  1  0
 34 24  1  0
 33 27  1  0
  1 35  1  0
  1 36  1  0
  1 37  1  0
  2 38  1  6
  4 39  1  0
  5 40  1  0
  6 41  1  0
  7 42  1  0
  8 43  1  0
 10 44  1  0
 10 45  1  0
 10 46  1  0
 13 47  1  6
 14 48  1  0
 14 49  1  0
 15 50  1  0
 15 51  1  0
 16 52  1  0
 16 53  1  0
 20 54  1  0
 20 55  1  0
 21 56  1  0
 25 57  1  0
 26 58  1  0
 28 59  1  0
 31 60  1  0
 32 61  1  0
M  END
>  <smiles>  (6) 
C[C@H](c1ccccc1)N(C)C(=O)[C@@H]1CCCN1C(=O)CNC(=O)c1ccc2cc(Cl)ccc2n1

>  <score_type>  (6) 
oracle

>  <origin>  (6) 
autodockgpu

>  <m_score__min__energy>  (6) 
-9.0800000000000001

>  <m_primary>  (6) 
energy

>  <rmsd>  (6) 
3.6009713436123905

>  <m_score__min__rmsd>  (6) 
3.6009713436123905

>  <meeko>  (6) 
{"free_energy": -8.19, "intermolecular_energy": -10.58, "internal_energy": -3.15, "cluster_size": 24, "cluster_id": 1, "rank_in_cluster": 18}

>  <energy>  (6) 
-8.8

>  <cluster_rmsd>  (6) 
1.29

>  <cluster>  (6) 
1

$$$$

     RDKit          3D

 61 64  0  0  0  0  0  0  0  0999 V2000
  141.8340   78.6910  223.8660 C   0  0  0  0  0  0  0  0  0  0  0  0
  141.7130   78.6530  222.3950 C   0  0  2  0  0  0  0  0  0  0  0  0
  141.5370   80.0300  221.8390 C   0  0  0  0  0  0  0  0  0  0  0  0
  141.6260   80.2040  220.4500 C   0  0  0  0  0  0  0  0  0  0  0  0
  141.4520   81.4180  219.8480 C   0  0  0  0  0  0  0  0  0  0  0  0
  141.1760   82.5400  220.6030 C   0  0  0  0  0  0  0  0  0  0  0  0
  141.0860   82.3890  221.9550 C   0  0  0  0  0  0  0  0  0  0  0  0
  141.2640   81.1460  222.5680 C   0  0  0  0  0  0  0  0  0  0  0  0
  140.9400   77.6310  221.7960 N   0  0  0  0  0  0  0  0  0  0  0  0
  141.5600   76.9480  220.6160 C   0  0  0  0  0  0  0  0  0  0  0  0
  139.6700   77.1540  222.1410 C   0  0  0  0  0  0  0  0  0  0  0  0
  139.5930   76.1000  222.9000 O   0  0  0  0  0  0  0  0  0  0  0  0
  138.3390   77.6850  221.7640 C   0  0  2  0  0  0  0  0  0  0  0  0
  137.7460   78.5900  222.7820 C   0  0  0  0  0  0  0  0  0  0  0  0
  136.2700   78.2340  222.7930 C   0  0  0  0  0  0  0  0  0  0  0  0
  136.3610   76.6840  222.6940 C   0  0  0  0  0  0  0  0  0  0  0  0
  137.4350   76.5080  221.7390 N   0  0  0  0  0  0  0  0  0  0  0  0
  137.7050   75.4290  220.8530 C   0  0  0  0  0  0  0  0  0  0  0  0
  136.8140   75.1670  219.9350 O   0  0  0  0  0  0  0  0  0  0  0  0
  138.8590   74.5440  220.8180 C   0  0  0  0  0  0  0  0  0  0  0  0
  139.0800   73.6440  221.8820 N   0  0  0  0  0  0  0  0  0  0  0  0
  139.1140   72.2110  221.7150 C   0  0  0  0  0  0  0  0  0  0  0  0
  138.9330   71.6890  220.5640 O   0  0  0  0  0  0  0  0  0  0  0  0
  139.3600   71.3530  222.8780 C   0  0  0  0  0  0  0  0  0  0  0  0
  138.9620   70.0360  222.8340 C   0  0  0  0  0  0  0  0  0  0  0  0
  139.1770   69.1890  223.9180 C   0  0  0  0  0  0  0  0  0  0  0  0
  139.7980   69.7120  225.0320 C   0  0  0  0  0  0  0  0  0  0  0  0
  140.0610   68.9720  226.1570 C   0  0  0  0  0  0  0  0  0  0  0  0
  140.6860   69.4980  227.2770 C   0  0  0  0  0  0  0  0  0  0  0  0
  141.0080   68.5210  228.7010 Cl  0  0  0  0  0  0  0  0  0  0  0  0
  141.0540   70.8370  227.2390 C   0  0  0  0  0  0  0  0  0  0  0  0
  140.8010   71.5960  226.1220 C   0  0  0  0  0  0  0  0  0  0  0  0
  140.1790   71.0470  225.0240 C   0  0  0  0  0  0  0  0  0  0  0  0
  139.9630   71.8440  223.9720 N   0  0  0  0  0  0  0  0  0  0  0  0
  140.8783   78.3908  224.3204 H   0  0  0  0  0  0  0  0  0  0  0  0
  142.6261   77.9984  224.1868 H   0  0  0  0  0  0  0  0  0  0  0  0
  142.0878   79.7121  224.1868 H   0  0  0  0  0  0  0  0  0  0  0  0
  142.6901   78.2770  222.0576 H   0  0  0  0  0  0  0  0  0  0  0  0
  141.8445   79.3286  219.8207 H   0  0  0  0  0  0  0  0  0  0  0  0
  141.5324   81.5018  218.7542 H   0  0  0  0  0  0  0  0  0  0  0  0
  141.0335   83.5228  220.1299 H   0  0  0  0  0  0  0  0  0  0  0  0
  140.8677   83.2681  222.5792 H   0  0  0  0  0  0  0  0  0  0  0  0
  141.1818   81.0681  223.6621 H   0  0  0  0  0  0  0  0  0  0  0  0
  142.2610   76.1758  220.9658 H   0  0  0  0  0  0  0  0  0  0  0  0
  140.7722   76.4796  220.0078 H   0  0  0  0  0  0  0  0  0  0  0  0
  142.1022   77.6870  220.0078 H   0  0  0  0  0  0  0  0  0  0  0  0
  138.4514   78.2393  220.8205 H   0  0  0  0  0  0  0  0  0  0  0  0
  138.1963   78.4123  223.7698 H   0  0  0  0  0  0  0  0  0  0  0  0
  137.9187   79.6512  222.5498 H   0  0  0  0  0  0  0  0  0  0  0  0
  135.7803   78.5549  223.7242 H   0  0  0  0  0  0  0  0  0  0  0  0
  135.6735   78.7130  222.0026 H   0  0  0  0  0  0  0  0  0  0  0  0
  136.6126   76.2351  223.6662 H   0  0  0  0  0  0  0  0  0  0  0  0
  135.4183   76.2016  222.3964 H   0  0  0  0  0  0  0  0  0  0  0  0
  138.7712   73.9407  219.9024 H   0  0  0  0  0  0  0  0  0  0  0  0
  139.7137   75.2334  220.8827 H   0  0  0  0  0  0  0  0  0  0  0  0
  139.2350   73.9780  222.8780 H   0  0  0  0  0  0  0  0  0  0  0  0
  138.4679   69.6478  221.9311 H   0  0  0  0  0  0  0  0  0  0  0  0
  138.8613   68.1358  223.8864 H   0  0  0  0  0  0  0  0  0  0  0  0
  139.7624   67.9134  226.1709 H   0  0  0  0  0  0  0  0  0  0  0  0
  141.5509   71.2923  228.1083 H   0  0  0  0  0  0  0  0  0  0  0  0
  141.0991   72.6547  226.1052 H   0  0  0  0  0  0  0  0  0  0  0  0
  1  2  1  0
  2  3  1  0
  3  4  2  0
  4  5  1  0
  5  6  2  0
  6  7  1  0
  7  8  2  0
  2  9  1  0
  9 10  1  0
  9 11  1  0
 11 12  2  0
 11 13  1  0
 13 14  1  0
 14 15  1  0
 15 16  1  0
 16 17  1  0
 17 18  1  0
 18 19  2  0
 18 20  1  0
 20 21  1  0
 21 22  1  0
 22 23  2  0
 22 24  1  0
 24 25  2  0
 25 26  1  0
 26 27  2  0
 27 28  1  0
 28 29  2  0
 29 30  1  0
 29 31  1  0
 31 32  2  0
 32 33  1  0
 33 34  2  0
  8  3  1  0
 17 13  1  0
 34 24  1  0
 33 27  1  0
  1 35  1  0
  1 36  1  0
  1 37  1  0
  2 38  1  6
  4 39  1  0
  5 40  1  0
  6 41  1  0
  7 42  1  0
  8 43  1  0
 10 44  1  0
 10 45  1  0
 10 46  1  0
 13 47  1  6
 14 48  1  0
 14 49  1  0
 15 50  1  0
 15 51  1  0
 16 52  1  0
 16 53  1  0
 20 54  1  0
 20 55  1  0
 21 56  1  0
 25 57  1  0
 26 58  1  0
 28 59  1  0
 31 60  1  0
 32 61  1  0
M  END
>  <smiles>  (7) 
C[C@H](c1ccccc1)N(C)C(=O)[C@@H]1CCCN1C(=O)CNC(=O)c1ccc2cc(Cl)ccc2n1

>  <score_type>  (7) 
oracle

>  <origin>  (7) 
autodockgpu

>  <m_score__min__energy>  (7) 
-9.0800000000000001

>  <m_primary>  (7) 
energy

>  <rmsd>  (7) 
3.1496079210083137

>  <m_score__min__rmsd>  (7) 
3.1496079210083137

>  <meeko>  (7) 
{"free_energy": -8.26, "intermolecular_energy": -10.65, "internal_energy": -2.66, "cluster_size": 4, "cluster_id": 3, "rank_in_cluster": 4}

>  <energy>  (7) 
-8.76

>  <cluster_rmsd>  (7) 
1.93

>  <cluster>  (7) 
1

$$$$

     RDKit          3D

 61 64  0  0  0  0  0  0  0  0999 V2000
  139.4540   77.4830  222.3940 C   0  0  0  0  0  0  0  0  0  0  0  0
  140.8880   77.7210  222.1390 C   0  0  2  0  0  0  0  0  0  0  0  0
  141.3340   79.0050  222.7610 C   0  0  0  0  0  0  0  0  0  0  0  0
  142.7060   79.2970  222.7760 C   0  0  0  0  0  0  0  0  0  0  0  0
  143.2070   80.4570  223.2970 C   0  0  0  0  0  0  0  0  0  0  0  0
  142.3600   81.4030  223.8370 C   0  0  0  0  0  0  0  0  0  0  0  0
  141.0230   81.1360  223.8300 C   0  0  0  0  0  0  0  0  0  0  0  0
  140.5140   79.9490  223.2970 C   0  0  0  0  0  0  0  0  0  0  0  0
  141.4150   77.4270  220.8590 N   0  0  0  0  0  0  0  0  0  0  0  0
  141.0910   78.4090  219.7760 C   0  0  0  0  0  0  0  0  0  0  0  0
  142.2030   76.3460  220.4440 C   0  0  0  0  0  0  0  0  0  0  0  0
  143.1930   76.5810  219.6340 O   0  0  0  0  0  0  0  0  0  0  0  0
  142.0850   74.9130  220.8010 C   0  0  2  0  0  0  0  0  0  0  0  0
  143.2730   74.1030  220.4290 C   0  0  0  0  0  0  0  0  0  0  0  0
  142.6980   72.7910  219.9290 C   0  0  0  0  0  0  0  0  0  0  0  0
  141.4880   73.3180  219.1050 C   0  0  0  0  0  0  0  0  0  0  0  0
  140.9900   74.3810  219.9520 N   0  0  0  0  0  0  0  0  0  0  0  0
  139.6830   74.9330  220.0580 C   0  0  0  0  0  0  0  0  0  0  0  0
  139.3690   75.8940  219.2320 O   0  0  0  0  0  0  0  0  0  0  0  0
  138.6150   74.5790  220.9790 C   0  0  0  0  0  0  0  0  0  0  0  0
  138.8680   73.6640  222.0230 N   0  0  0  0  0  0  0  0  0  0  0  0
  139.1050   72.2580  221.8050 C   0  0  0  0  0  0  0  0  0  0  0  0
  139.0850   71.7730  220.6240 O   0  0  0  0  0  0  0  0  0  0  0  0
  139.3700   71.3830  222.9510 C   0  0  0  0  0  0  0  0  0  0  0  0
  139.0070   70.0570  222.8790 C   0  0  0  0  0  0  0  0  0  0  0  0
  139.2420   69.1940  223.9460 C   0  0  0  0  0  0  0  0  0  0  0  0
  139.8450   69.7100  225.0730 C   0  0  0  0  0  0  0  0  0  0  0  0
  140.1240   68.9550  226.1830 C   0  0  0  0  0  0  0  0  0  0  0  0
  140.7310   69.4740  227.3170 C   0  0  0  0  0  0  0  0  0  0  0  0
  141.0740   68.4770  228.7210 Cl  0  0  0  0  0  0  0  0  0  0  0  0
  141.0640   70.8220  227.3070 C   0  0  0  0  0  0  0  0  0  0  0  0
  140.7940   71.5970  226.2050 C   0  0  0  0  0  0  0  0  0  0  0  0
  140.1900   71.0550  225.0930 C   0  0  0  0  0  0  0  0  0  0  0  0
  139.9570   71.8670  224.0570 N   0  0  0  0  0  0  0  0  0  0  0  0
  139.2745   77.4532  223.4788 H   0  0  0  0  0  0  0  0  0  0  0  0
  138.8623   78.2952  221.9466 H   0  0  0  0  0  0  0  0  0  0  0  0
  139.1564   76.5232  221.9466 H   0  0  0  0  0  0  0  0  0  0  0  0
  141.3926   76.8993  222.6683 H   0  0  0  0  0  0  0  0  0  0  0  0
  143.4067   78.5630  222.3514 H   0  0  0  0  0  0  0  0  0  0  0  0
  144.2920   80.6375  223.2857 H   0  0  0  0  0  0  0  0  0  0  0  0
  142.7503   82.3409  224.2589 H   0  0  0  0  0  0  0  0  0  0  0  0
  140.3270   81.8742  224.2550 H   0  0  0  0  0  0  0  0  0  0  0  0
  139.4281   79.7742  223.3110 H   0  0  0  0  0  0  0  0  0  0  0  0
  140.7767   79.3618  220.2270 H   0  0  0  0  0  0  0  0  0  0  0  0
  141.9821   78.5747  219.1527 H   0  0  0  0  0  0  0  0  0  0  0  0
  140.2763   78.0119  219.1527 H   0  0  0  0  0  0  0  0  0  0  0  0
  141.9399   74.8481  221.8894 H   0  0  0  0  0  0  0  0  0  0  0  0
  143.8505   74.6014  219.6365 H   0  0  0  0  0  0  0  0  0  0  0  0
  143.9636   73.9618  221.2735 H   0  0  0  0  0  0  0  0  0  0  0  0
  143.4150   72.2462  219.2973 H   0  0  0  0  0  0  0  0  0  0  0  0
  142.4401   72.0693  220.7181 H   0  0  0  0  0  0  0  0  0  0  0  0
  141.8083   73.7035  218.1258 H   0  0  0  0  0  0  0  0  0  0  0  0
  140.7388   72.5468  218.8729 H   0  0  0  0  0  0  0  0  0  0  0  0
  138.2760   75.5139  221.4491 H   0  0  0  0  0  0  0  0  0  0  0  0
  137.8923   74.0480  220.3420 H   0  0  0  0  0  0  0  0  0  0  0  0
  138.8990   73.9670  223.0400 H   0  0  0  0  0  0  0  0  0  0  0  0
  138.5253   69.6745  221.9671 H   0  0  0  0  0  0  0  0  0  0  0  0
  138.9554   68.1334  223.8913 H   0  0  0  0  0  0  0  0  0  0  0  0
  139.8540   67.8887  226.1737 H   0  0  0  0  0  0  0  0  0  0  0  0
  141.5469   71.2722  228.1868 H   0  0  0  0  0  0  0  0  0  0  0  0
  141.0637   72.6634  226.2114 H   0  0  0  0  0  0  0  0  0  0  0  0
  1  2  1  0
  2  3  1  0
  3  4  2  0
  4  5  1  0
  5  6  2  0
  6  7  1  0
  7  8  2  0
  2  9  1  0
  9 10  1  0
  9 11  1  0
 11 12  2  0
 11 13  1  0
 13 14  1  0
 14 15  1  0
 15 16  1  0
 16 17  1  0
 17 18  1  0
 18 19  2  0
 18 20  1  0
 20 21  1  0
 21 22  1  0
 22 23  2  0
 22 24  1  0
 24 25  2  0
 25 26  1  0
 26 27  2  0
 27 28  1  0
 28 29  2  0
 29 30  1  0
 29 31  1  0
 31 32  2  0
 32 33  1  0
 33 34  2  0
  8  3  1  0
 17 13  1  0
 34 24  1  0
 33 27  1  0
  1 35  1  0
  1 36  1  0
  1 37  1  0
  2 38  1  1
  4 39  1  0
  5 40  1  0
  6 41  1  0
  7 42  1  0
  8 43  1  0
 10 44  1  0
 10 45  1  0
 10 46  1  0
 13 47  1  1
 14 48  1  0
 14 49  1  0
 15 50  1  0
 15 51  1  0
 16 52  1  0
 16 53  1  0
 20 54  1  0
 20 55  1  0
 21 56  1  0
 25 57  1  0
 26 58  1  0
 28 59  1  0
 31 60  1  0
 32 61  1  0
M  END
>  <smiles>  (8) 
C[C@H](c1ccccc1)N(C)C(=O)[C@@H]1CCCN1C(=O)CNC(=O)c1ccc2cc(Cl)ccc2n1

>  <score_type>  (8) 
oracle

>  <origin>  (8) 
autodockgpu

>  <m_score__min__energy>  (8) 
-9.0800000000000001

>  <m_primary>  (8) 
energy

>  <rmsd>  (8) 
3.1040172256424077

>  <m_score__min__rmsd>  (8) 
3.1040172256424077

>  <meeko>  (8) 
{"free_energy": -8.84, "intermolecular_energy": -11.22, "internal_energy": -2.62, "cluster_size": 24, "cluster_id": 1, "rank_in_cluster": 4}

>  <energy>  (8) 
-8.73

>  <cluster_rmsd>  (8) 
1.7

>  <cluster>  (8) 
1

$$$$

     RDKit          3D

 61 64  0  0  0  0  0  0  0  0999 V2000
  141.4430   81.5090  219.3980 C   0  0  0  0  0  0  0  0  0  0  0  0
  140.6420   80.5550  220.1900 C   0  0  2  0  0  0  0  0  0  0  0  0
  141.2480   80.3410  221.5400 C   0  0  0  0  0  0  0  0  0  0  0  0
  140.4080   79.9520  222.5930 C   0  0  0  0  0  0  0  0  0  0  0  0
  140.8740   79.7060  223.8540 C   0  0  0  0  0  0  0  0  0  0  0  0
  142.2180   79.8350  224.1400 C   0  0  0  0  0  0  0  0  0  0  0  0
  143.0490   80.2120  223.1270 C   0  0  0  0  0  0  0  0  0  0  0  0
  142.5700   80.4620  221.8390 C   0  0  0  0  0  0  0  0  0  0  0  0
  140.1110   79.4090  219.5510 N   0  0  0  0  0  0  0  0  0  0  0  0
  138.6450   79.4470  219.2510 C   0  0  0  0  0  0  0  0  0  0  0  0
  140.7540   78.2310  219.1530 C   0  0  0  0  0  0  0  0  0  0  0  0
  140.2420   77.5540  218.1670 O   0  0  0  0  0  0  0  0  0  0  0  0
  141.9820   77.6060  219.6980 C   0  0  2  0  0  0  0  0  0  0  0  0
  143.0040   77.2960  218.6650 C   0  0  0  0  0  0  0  0  0  0  0  0
  143.5770   75.9550  219.0880 C   0  0  0  0  0  0  0  0  0  0  0  0
  142.2740   75.2270  219.5270 C   0  0  0  0  0  0  0  0  0  0  0  0
  141.5590   76.2810  220.2140 N   0  0  0  0  0  0  0  0  0  0  0  0
  140.5760   76.2050  221.2400 C   0  0  0  0  0  0  0  0  0  0  0  0
  140.6530   77.0740  222.2110 O   0  0  0  0  0  0  0  0  0  0  0  0
  139.4690   75.2720  221.3760 C   0  0  0  0  0  0  0  0  0  0  0  0
  139.5370   74.2450  222.3420 N   0  0  0  0  0  0  0  0  0  0  0  0
  139.9240   72.8900  222.0340 C   0  0  0  0  0  0  0  0  0  0  0  0
  140.2220   72.5580  220.8380 O   0  0  0  0  0  0  0  0  0  0  0  0
  139.9750   71.8910  223.1060 C   0  0  0  0  0  0  0  0  0  0  0  0
  139.5230   70.6160  222.8540 C   0  0  0  0  0  0  0  0  0  0  0  0
  139.5550   69.6380  223.8450 C   0  0  0  0  0  0  0  0  0  0  0  0
  140.0510   69.9900  225.0830 C   0  0  0  0  0  0  0  0  0  0  0  0
  140.1300   69.1120  226.1320 C   0  0  0  0  0  0  0  0  0  0  0  0
  140.6290   69.4660  227.3770 C   0  0  0  0  0  0  0  0  0  0  0  0
  140.7160   68.3150  228.7000 Cl  0  0  0  0  0  0  0  0  0  0  0  0
  141.0640   70.7740  227.5460 C   0  0  0  0  0  0  0  0  0  0  0  0
  140.9940   71.6700  226.5080 C   0  0  0  0  0  0  0  0  0  0  0  0
  140.4940   71.2910  225.2830 C   0  0  0  0  0  0  0  0  0  0  0  0
  140.4560   72.2150  224.3170 N   0  0  0  0  0  0  0  0  0  0  0  0
  141.9998   82.1721  220.0764 H   0  0  0  0  0  0  0  0  0  0  0  0
  142.1509   80.9554  218.7637 H   0  0  0  0  0  0  0  0  0  0  0  0
  140.7752   82.1104  218.7637 H   0  0  0  0  0  0  0  0  0  0  0  0
  139.6803   81.0695  220.3328 H   0  0  0  0  0  0  0  0  0  0  0  0
  139.3315   79.8404  222.3965 H   0  0  0  0  0  0  0  0  0  0  0  0
  140.1733   79.4032  224.6461 H   0  0  0  0  0  0  0  0  0  0  0  0
  142.6056   79.6403  225.1509 H   0  0  0  0  0  0  0  0  0  0  0  0
  144.1246   80.3221  223.3293 H   0  0  0  0  0  0  0  0  0  0  0  0
  143.2756   80.7627  221.0505 H   0  0  0  0  0  0  0  0  0  0  0  0
  138.0781   79.4617  220.1936 H   0  0  0  0  0  0  0  0  0  0  0  0
  138.4131   80.3515  218.6695 H   0  0  0  0  0  0  0  0  0  0  0  0
  138.3665   78.5558  218.6695 H   0  0  0  0  0  0  0  0  0  0  0  0
  142.4180   78.3019  220.4299 H   0  0  0  0  0  0  0  0  0  0  0  0
  142.5415   77.2247  217.6695 H   0  0  0  0  0  0  0  0  0  0  0  0
  143.7756   78.0766  218.5923 H   0  0  0  0  0  0  0  0  0  0  0  0
  144.0695   75.4396  218.2503 H   0  0  0  0  0  0  0  0  0  0  0  0
  144.3585   76.0093  219.8602 H   0  0  0  0  0  0  0  0  0  0  0  0
  141.7082   74.8608  218.6576 H   0  0  0  0  0  0  0  0  0  0  0  0
  142.4507   74.3344  220.1450 H   0  0  0  0  0  0  0  0  0  0  0  0
  138.5746   75.8691  221.6071 H   0  0  0  0  0  0  0  0  0  0  0  0
  139.4733   74.7269  220.4206 H   0  0  0  0  0  0  0  0  0  0  0  0
  139.3020   74.4180  223.3630 H   0  0  0  0  0  0  0  0  0  0  0  0
  139.1313   70.3660  221.8570 H   0  0  0  0  0  0  0  0  0  0  0  0
  139.1961   68.6173  223.6467 H   0  0  0  0  0  0  0  0  0  0  0  0
  139.7820   68.0796  225.9800 H   0  0  0  0  0  0  0  0  0  0  0  0
  141.4673   71.0943  228.5180 H   0  0  0  0  0  0  0  0  0  0  0  0
  141.3416   72.7029  226.6572 H   0  0  0  0  0  0  0  0  0  0  0  0
  1  2  1  0
  2  3  1  0
  3  4  2  0
  4  5  1  0
  5  6  2  0
  6  7  1  0
  7  8  2  0
  2  9  1  0
  9 10  1  0
  9 11  1  0
 11 12  2  0
 11 13  1  0
 13 14  1  0
 14 15  1  0
 15 16  1  0
 16 17  1  0
 17 18  1  0
 18 19  2  0
 18 20  1  0
 20 21  1  0
 21 22  1  0
 22 23  2  0
 22 24  1  0
 24 25  2  0
 25 26  1  0
 26 27  2  0
 27 28  1  0
 28 29  2  0
 29 30  1  0
 29 31  1  0
 31 32  2  0
 32 33  1  0
 33 34  2  0
  8  3  1  0
 17 13  1  0
 34 24  1  0
 33 27  1  0
  1 35  1  0
  1 36  1  0
  1 37  1  0
  2 38  1  1
  4 39  1  0
  5 40  1  0
  6 41  1  0
  7 42  1  0
  8 43  1  0
 10 44  1  0
 10 45  1  0
 10 46  1  0
 13 47  1  1
 14 48  1  0
 14 49  1  0
 15 50  1  0
 15 51  1  0
 16 52  1  0
 16 53  1  0
 20 54  1  0
 20 55  1  0
 21 56  1  0
 25 57  1  0
 26 58  1  0
 28 59  1  0
 31 60  1  0
 32 61  1  0
M  END
>  <smiles>  (9) 
C[C@H](c1ccccc1)N(C)C(=O)[C@@H]1CCCN1C(=O)CNC(=O)c1ccc2cc(Cl)ccc2n1

>  <score_type>  (9) 
oracle

>  <origin>  (9) 
autodockgpu

>  <m_score__min__energy>  (9) 
-9.0800000000000001

>  <m_primary>  (9) 
energy

>  <rmsd>  (9) 
2.7893755918084584

>  <m_score__min__rmsd>  (9) 
2.7893755918084584

>  <meeko>  (9) 
{"free_energy": -8.67, "intermolecular_energy": -11.06, "internal_energy": -2.61, "cluster_size": 24, "cluster_id": 1, "rank_in_cluster": 10}

>  <energy>  (9) 
-8.71

>  <cluster_rmsd>  (9) 
1.51

>  <cluster>  (9) 
1

$$$$

     RDKit          3D

 61 64  0  0  0  0  0  0  0  0999 V2000
  139.2080   68.8430  224.3040 C   0  0  0  0  0  0  0  0  0  0  0  0
  139.6720   70.2440  224.3200 C   0  0  2  0  0  0  0  0  0  0  0  0
  140.1470   70.6330  225.6840 C   0  0  0  0  0  0  0  0  0  0  0  0
  140.9710   71.7620  225.8050 C   0  0  0  0  0  0  0  0  0  0  0  0
  141.4320   72.2110  227.0110 C   0  0  0  0  0  0  0  0  0  0  0  0
  141.0940   71.5540  228.1770 C   0  0  0  0  0  0  0  0  0  0  0  0
  140.2930   70.4550  228.0770 C   0  0  0  0  0  0  0  0  0  0  0  0
  139.8230   69.9990  226.8430 C   0  0  0  0  0  0  0  0  0  0  0  0
  138.9320   71.2200  223.6110 N   0  0  0  0  0  0  0  0  0  0  0  0
  137.4580   71.2410  223.8720 C   0  0  0  0  0  0  0  0  0  0  0  0
  139.3720   72.1810  222.6920 C   0  0  0  0  0  0  0  0  0  0  0  0
  140.2950   73.0160  223.0700 O   0  0  0  0  0  0  0  0  0  0  0  0
  138.9360   72.4040  221.2940 C   0  0  2  0  0  0  0  0  0  0  0  0
  137.4690   72.5900  221.1460 C   0  0  0  0  0  0  0  0  0  0  0  0
  137.1180   71.8460  219.8710 C   0  0  0  0  0  0  0  0  0  0  0  0
  138.0020   70.5770  220.0410 C   0  0  0  0  0  0  0  0  0  0  0  0
  139.2250   71.1350  220.5800 N   0  0  0  0  0  0  0  0  0  0  0  0
  140.5600   70.6500  220.5150 C   0  0  0  0  0  0  0  0  0  0  0  0
  140.7260   69.3690  220.3310 O   0  0  0  0  0  0  0  0  0  0  0  0
  141.8070   71.3910  220.6320 C   0  0  0  0  0  0  0  0  0  0  0  0
  141.7720   72.7850  220.8500 N   0  0  0  0  0  0  0  0  0  0  0  0
  142.1290   73.7550  219.8440 C   0  0  0  0  0  0  0  0  0  0  0  0
  142.5090   73.3760  218.6860 O   0  0  0  0  0  0  0  0  0  0  0  0
  142.0530   75.1850  220.1580 C   0  0  0  0  0  0  0  0  0  0  0  0
  142.6050   76.0930  219.2830 C   0  0  0  0  0  0  0  0  0  0  0  0
  142.5530   77.4600  219.5450 C   0  0  0  0  0  0  0  0  0  0  0  0
  141.9350   77.8700  220.7070 C   0  0  0  0  0  0  0  0  0  0  0  0
  141.8250   79.1880  221.0680 C   0  0  0  0  0  0  0  0  0  0  0  0
  141.2030   79.6020  222.2370 C   0  0  0  0  0  0  0  0  0  0  0  0
  141.0800   81.2990  222.6680 Cl  0  0  0  0  0  0  0  0  0  0  0  0
  140.6730   78.6200  223.0650 C   0  0  0  0  0  0  0  0  0  0  0  0
  140.7720   77.2940  222.7220 C   0  0  0  0  0  0  0  0  0  0  0  0
  141.3950   76.9120  221.5550 C   0  0  0  0  0  0  0  0  0  0  0  0
  141.4540   75.6040  221.2840 N   0  0  0  0  0  0  0  0  0  0  0  0
  139.0892   68.4843  225.3371 H   0  0  0  0  0  0  0  0  0  0  0  0
  138.2419   68.7827  223.7815 H   0  0  0  0  0  0  0  0  0  0  0  0
  139.9471   68.2179  223.7815 H   0  0  0  0  0  0  0  0  0  0  0  0
  140.5437   70.2432  223.6490 H   0  0  0  0  0  0  0  0  0  0  0  0
  141.2573   72.3073  224.8936 H   0  0  0  0  0  0  0  0  0  0  0  0
  142.0764   73.1015  227.0526 H   0  0  0  0  0  0  0  0  0  0  0  0
  141.4584   71.9051  229.1537 H   0  0  0  0  0  0  0  0  0  0  0  0
  140.0096   69.9135  228.9916 H   0  0  0  0  0  0  0  0  0  0  0  0
  139.1776   69.1089  226.8079 H   0  0  0  0  0  0  0  0  0  0  0  0
  137.2778   71.2436  224.9571 H   0  0  0  0  0  0  0  0  0  0  0  0
  137.0194   72.1455  223.4253 H   0  0  0  0  0  0  0  0  0  0  0  0
  136.9938   70.3494  223.4253 H   0  0  0  0  0  0  0  0  0  0  0  0
  139.4459   73.3050  220.9222 H   0  0  0  0  0  0  0  0  0  0  0  0
  136.9340   72.1611  222.0062 H   0  0  0  0  0  0  0  0  0  0  0  0
  137.1844   73.6517  221.1024 H   0  0  0  0  0  0  0  0  0  0  0  0
  136.0480   71.5944  219.8274 H   0  0  0  0  0  0  0  0  0  0  0  0
  137.2945   72.4106  218.9436 H   0  0  0  0  0  0  0  0  0  0  0  0
  137.5455   69.8623  220.7416 H   0  0  0  0  0  0  0  0  0  0  0  0
  138.1454   70.0073  219.1110 H   0  0  0  0  0  0  0  0  0  0  0  0
  142.3629   70.9501  221.4726 H   0  0  0  0  0  0  0  0  0  0  0  0
  142.2560   71.2983  219.6321 H   0  0  0  0  0  0  0  0  0  0  0  0
  141.4760   73.2010  221.7810 H   0  0  0  0  0  0  0  0  0  0  0  0
  143.0935   75.7344  218.3650 H   0  0  0  0  0  0  0  0  0  0  0  0
  142.9909   78.1889  218.8472 H   0  0  0  0  0  0  0  0  0  0  0  0
  142.2493   79.9522  220.4002 H   0  0  0  0  0  0  0  0  0  0  0  0
  140.1711   78.9065  224.0009 H   0  0  0  0  0  0  0  0  0  0  0  0
  140.3484   76.5276  223.3877 H   0  0  0  0  0  0  0  0  0  0  0  0
  1  2  1  0
  2  3  1  0
  3  4  2  0
  4  5  1  0
  5  6  2  0
  6  7  1  0
  7  8  2  0
  2  9  1  0
  9 10  1  0
  9 11  1  0
 11 12  2  0
 11 13  1  0
 13 14  1  0
 14 15  1  0
 15 16  1  0
 16 17  1  0
 17 18  1  0
 18 19  2  0
 18 20  1  0
 20 21  1  0
 21 22  1  0
 22 23  2  0
 22 24  1  0
 24 25  2  0
 25 26  1  0
 26 27  2  0
 27 28  1  0
 28 29  2  0
 29 30  1  0
 29 31  1  0
 31 32  2  0
 32 33  1  0
 33 34  2  0
  8  3  1  0
 17 13  1  0
 34 24  1  0
 33 27  1  0
  1 35  1  0
  1 36  1  0
  1 37  1  0
  2 38  1  6
  4 39  1  0
  5 40  1  0
  6 41  1  0
  7 42  1  0
  8 43  1  0
 10 44  1  0
 10 45  1  0
 10 46  1  0
 13 47  1  6
 14 48  1  0
 14 49  1  0
 15 50  1  0
 15 51  1  0
 16 52  1  0
 16 53  1  0
 20 54  1  0
 20 55  1  0
 21 56  1  0
 25 57  1  0
 26 58  1  0
 28 59  1  0
 31 60  1  0
 32 61  1  0
M  END
>  <smiles>  (10) 
C[C@H](c1ccccc1)N(C)C(=O)[C@@H]1CCCN1C(=O)CNC(=O)c1ccc2cc(Cl)ccc2n1

>  <score_type>  (10) 
oracle

>  <origin>  (10) 
autodockgpu

>  <m_score__min__energy>  (10) 
-9.0800000000000001

>  <m_primary>  (10) 
energy

>  <rmsd>  (10) 
9.04309948875868

>  <m_score__min__rmsd>  (10) 
9.04309948875868

>  <meeko>  (10) 
{"free_energy": -7.51, "intermolecular_energy": -9.9, "internal_energy": -3.29, "cluster_size": 1, "cluster_id": 7, "rank_in_cluster": 1}

>  <energy>  (10) 
-8.67

>  <cluster_rmsd>  (10) 
1.3

>  <cluster>  (10) 
1

$$$$

     RDKit          3D

 61 64  0  0  0  0  0  0  0  0999 V2000
  141.7540   71.5650  221.2870 C   0  0  0  0  0  0  0  0  0  0  0  0
  142.1250   72.6220  220.3250 C   0  0  2  0  0  0  0  0  0  0  0  0
  143.5970   72.8840  220.3630 C   0  0  0  0  0  0  0  0  0  0  0  0
  144.0370   74.1610  220.7400 C   0  0  0  0  0  0  0  0  0  0  0  0
  145.3610   74.4870  220.8310 C   0  0  0  0  0  0  0  0  0  0  0  0
  146.3330   73.5490  220.5480 C   0  0  0  0  0  0  0  0  0  0  0  0
  145.9230   72.3020  220.1800 C   0  0  0  0  0  0  0  0  0  0  0  0
  144.5690   71.9710  220.0890 C   0  0  0  0  0  0  0  0  0  0  0  0
  141.2890   73.7560  220.1960 N   0  0  0  0  0  0  0  0  0  0  0  0
  140.9630   74.1720  218.7950 C   0  0  0  0  0  0  0  0  0  0  0  0
  140.7130   74.5590  221.1880 C   0  0  0  0  0  0  0  0  0  0  0  0
  140.4550   74.0180  222.3440 O   0  0  0  0  0  0  0  0  0  0  0  0
  140.3380   75.9910  221.1310 C   0  0  2  0  0  0  0  0  0  0  0  0
  140.9930   76.8240  222.1720 C   0  0  0  0  0  0  0  0  0  0  0  0
  139.9140   77.7950  222.6150 C   0  0  0  0  0  0  0  0  0  0  0  0
  138.6850   76.8420  222.6540 C   0  0  0  0  0  0  0  0  0  0  0  0
  138.8940   76.0370  221.4690 N   0  0  0  0  0  0  0  0  0  0  0  0
  137.9570   75.3400  220.6570 C   0  0  0  0  0  0  0  0  0  0  0  0
  137.6530   75.8680  219.5020 O   0  0  0  0  0  0  0  0  0  0  0  0
  137.2620   74.0920  220.9320 C   0  0  0  0  0  0  0  0  0  0  0  0
  137.7230   73.2500  221.9660 N   0  0  0  0  0  0  0  0  0  0  0  0
  137.4110   71.8440  222.0430 C   0  0  0  0  0  0  0  0  0  0  0  0
  136.6750   71.2950  221.1560 O   0  0  0  0  0  0  0  0  0  0  0  0
  137.9440   71.0450  223.1510 C   0  0  0  0  0  0  0  0  0  0  0  0
  137.4380   69.7830  223.3680 C   0  0  0  0  0  0  0  0  0  0  0  0
  137.9180   68.9920  224.4100 C   0  0  0  0  0  0  0  0  0  0  0  0
  138.9100   69.5140  225.2120 C   0  0  0  0  0  0  0  0  0  0  0  0
  139.4570   68.8270  226.2650 C   0  0  0  0  0  0  0  0  0  0  0  0
  140.4550   69.3510  227.0720 C   0  0  0  0  0  0  0  0  0  0  0  0
  141.1340   68.4430  228.4130 Cl  0  0  0  0  0  0  0  0  0  0  0  0
  140.9080   70.6320  226.7830 C   0  0  0  0  0  0  0  0  0  0  0  0
  140.3740   71.3380  225.7320 C   0  0  0  0  0  0  0  0  0  0  0  0
  139.3840   70.7920  224.9480 C   0  0  0  0  0  0  0  0  0  0  0  0
  138.9100   71.5350  223.9420 N   0  0  0  0  0  0  0  0  0  0  0  0
  141.8856   71.9401  222.3127 H   0  0  0  0  0  0  0  0  0  0  0  0
  140.7025   71.2812  221.1325 H   0  0  0  0  0  0  0  0  0  0  0  0
  142.3974   70.6863  221.1325 H   0  0  0  0  0  0  0  0  0  0  0  0
  141.8871   72.1850  219.3440 H   0  0  0  0  0  0  0  0  0  0  0  0
  143.2865   74.9311  220.9717 H   0  0  0  0  0  0  0  0  0  0  0  0
  145.6539   75.5037  221.1318 H   0  0  0  0  0  0  0  0  0  0  0  0
  147.4020   73.7990  220.6170 H   0  0  0  0  0  0  0  0  0  0  0  0
  146.6782   71.5364  219.9486 H   0  0  0  0  0  0  0  0  0  0  0  0
  144.2823   70.9520  219.7899 H   0  0  0  0  0  0  0  0  0  0  0  0
  140.2846   75.0376  218.8180 H   0  0  0  0  0  0  0  0  0  0  0  0
  141.8894   74.4460  218.2689 H   0  0  0  0  0  0  0  0  0  0  0  0
  140.4755   73.3380  218.2689 H   0  0  0  0  0  0  0  0  0  0  0  0
  140.6239   76.3749  220.1406 H   0  0  0  0  0  0  0  0  0  0  0  0
  141.3262   76.2015  223.0155 H   0  0  0  0  0  0  0  0  0  0  0  0
  141.8892   77.3379  221.7942 H   0  0  0  0  0  0  0  0  0  0  0  0
  140.1310   78.2208  223.6058 H   0  0  0  0  0  0  0  0  0  0  0  0
  139.7935   78.6770  221.9689 H   0  0  0  0  0  0  0  0  0  0  0  0
  138.6871   76.2233  223.5635 H   0  0  0  0  0  0  0  0  0  0  0  0
  137.7174   77.3648  222.6713 H   0  0  0  0  0  0  0  0  0  0  0  0
  136.2208   74.3527  221.1728 H   0  0  0  0  0  0  0  0  0  0  0  0
  137.4314   73.4977  220.0220 H   0  0  0  0  0  0  0  0  0  0  0  0
  138.3360   73.6120  222.7550 H   0  0  0  0  0  0  0  0  0  0  0  0
  136.6457   69.3947  222.7112 H   0  0  0  0  0  0  0  0  0  0  0  0
  137.5178   67.9828  224.5869 H   0  0  0  0  0  0  0  0  0  0  0  0
  139.0869   67.8135  226.4793 H   0  0  0  0  0  0  0  0  0  0  0  0
  141.6991   71.0840  227.3993 H   0  0  0  0  0  0  0  0  0  0  0  0
  140.7423   72.3515  225.5149 H   0  0  0  0  0  0  0  0  0  0  0  0
  1  2  1  0
  2  3  1  0
  3  4  2  0
  4  5  1  0
  5  6  2  0
  6  7  1  0
  7  8  2  0
  2  9  1  0
  9 10  1  0
  9 11  1  0
 11 12  2  0
 11 13  1  0
 13 14  1  0
 14 15  1  0
 15 16  1  0
 16 17  1  0
 17 18  1  0
 18 19  2  0
 18 20  1  0
 20 21  1  0
 21 22  1  0
 22 23  2  0
 22 24  1  0
 24 25  2  0
 25 26  1  0
 26 27  2  0
 27 28  1  0
 28 29  2  0
 29 30  1  0
 29 31  1  0
 31 32  2  0
 32 33  1  0
 33 34  2  0
  8  3  1  0
 17 13  1  0
 34 24  1  0
 33 27  1  0
  1 35  1  0
  1 36  1  0
  1 37  1  0
  2 38  1  6
  4 39  1  0
  5 40  1  0
  6 41  1  0
  7 42  1  0
  8 43  1  0
 10 44  1  0
 10 45  1  0
 10 46  1  0
 13 47  1  6
 14 48  1  0
 14 49  1  0
 15 50  1  0
 15 51  1  0
 16 52  1  0
 16 53  1  0
 20 54  1  0
 20 55  1  0
 21 56  1  0
 25 57  1  0
 26 58  1  0
 28 59  1  0
 31 60  1  0
 32 61  1  0
M  END
>  <smiles>  (11) 
C[C@H](c1ccccc1)N(C)C(=O)[C@@H]1CCCN1C(=O)CNC(=O)c1ccc2cc(Cl)ccc2n1

>  <score_type>  (11) 
oracle

>  <origin>  (11) 
autodockgpu

>  <m_score__min__energy>  (11) 
-9.0800000000000001

>  <m_primary>  (11) 
energy

>  <rmsd>  (11) 
5.782600072052311

>  <m_score__min__rmsd>  (11) 
5.782600072052311

>  <meeko>  (11) 
{"free_energy": -8.24, "intermolecular_energy": -10.62, "internal_energy": -3.52, "cluster_size": 13, "cluster_id": 2, "rank_in_cluster": 4}

>  <energy>  (11) 
-8.66

>  <cluster_rmsd>  (11) 
0.63

>  <cluster>  (11) 
1

$$$$

     RDKit          3D

 61 64  0  0  0  0  0  0  0  0999 V2000
  142.2400   80.4060  219.0130 C   0  0  0  0  0  0  0  0  0  0  0  0
  141.4400   79.2940  219.5630 C   0  0  2  0  0  0  0  0  0  0  0  0
  141.5920   79.2120  221.0490 C   0  0  0  0  0  0  0  0  0  0  0  0
  140.9710   78.1510  221.7240 C   0  0  0  0  0  0  0  0  0  0  0  0
  141.0760   77.9760  223.0750 C   0  0  0  0  0  0  0  0  0  0  0  0
  141.8140   78.8580  223.8390 C   0  0  0  0  0  0  0  0  0  0  0  0
  142.4250   79.8950  223.1990 C   0  0  0  0  0  0  0  0  0  0  0  0
  142.3160   80.0710  221.8170 C   0  0  0  0  0  0  0  0  0  0  0  0
  141.4050   78.0640  218.8670 N   0  0  0  0  0  0  0  0  0  0  0  0
  140.2480   77.8700  217.9370 C   0  0  0  0  0  0  0  0  0  0  0  0
  142.2980   76.9860  218.9140 C   0  0  0  0  0  0  0  0  0  0  0  0
  142.9580   76.6860  217.8330 O   0  0  0  0  0  0  0  0  0  0  0  0
  142.6270   76.0940  220.0510 C   0  0  2  0  0  0  0  0  0  0  0  0
  144.0010   75.5320  219.9920 C   0  0  0  0  0  0  0  0  0  0  0  0
  143.8460   74.1000  220.4710 C   0  0  0  0  0  0  0  0  0  0  0  0
  142.5220   73.7110  219.7530 C   0  0  0  0  0  0  0  0  0  0  0  0
  141.7350   74.9170  219.9030 N   0  0  0  0  0  0  0  0  0  0  0  0
  140.3240   75.0950  219.9240 C   0  0  0  0  0  0  0  0  0  0  0  0
  139.7240   75.2740  218.7780 O   0  0  0  0  0  0  0  0  0  0  0  0
  139.4230   75.1110  221.0650 C   0  0  0  0  0  0  0  0  0  0  0  0
  139.5530   74.1290  222.0710 N   0  0  0  0  0  0  0  0  0  0  0  0
  139.6850   72.7200  221.7920 C   0  0  0  0  0  0  0  0  0  0  0  0
  139.6810   72.2950  220.5880 O   0  0  0  0  0  0  0  0  0  0  0  0
  139.8250   71.7730  222.9030 C   0  0  0  0  0  0  0  0  0  0  0  0
  139.4490   70.4630  222.7150 C   0  0  0  0  0  0  0  0  0  0  0  0
  139.5660   69.5320  223.7450 C   0  0  0  0  0  0  0  0  0  0  0  0
  140.0680   69.9670  224.9530 C   0  0  0  0  0  0  0  0  0  0  0  0
  140.2270   69.1410  226.0360 C   0  0  0  0  0  0  0  0  0  0  0  0
  140.7320   69.5790  227.2520 C   0  0  0  0  0  0  0  0  0  0  0  0
  140.9230   68.4930  228.6180 Cl  0  0  0  0  0  0  0  0  0  0  0  0
  141.0860   70.9180  227.3560 C   0  0  0  0  0  0  0  0  0  0  0  0
  140.9350   71.7620  226.2830 C   0  0  0  0  0  0  0  0  0  0  0  0
  140.4310   71.3000  225.0880 C   0  0  0  0  0  0  0  0  0  0  0  0
  140.3120   72.1780  224.0860 N   0  0  0  0  0  0  0  0  0  0  0  0
  142.6644   80.9959  219.8388 H   0  0  0  0  0  0  0  0  0  0  0  0
  143.0550   80.0009  218.3952 H   0  0  0  0  0  0  0  0  0  0  0  0
  141.5968   81.0499  218.3952 H   0  0  0  0  0  0  0  0  0  0  0  0
  140.4006   79.5822  219.3473 H   0  0  0  0  0  0  0  0  0  0  0  0
  140.3759   77.4313  221.1428 H   0  0  0  0  0  0  0  0  0  0  0  0
  140.5693   77.1269  223.5571 H   0  0  0  0  0  0  0  0  0  0  0  0
  141.9058   78.7283  224.9275 H   0  0  0  0  0  0  0  0  0  0  0  0
  143.0190   80.6115  223.7854 H   0  0  0  0  0  0  0  0  0  0  0  0
  142.8258   80.9212  221.3402 H   0  0  0  0  0  0  0  0  0  0  0  0
  139.3292   77.7159  218.5219 H   0  0  0  0  0  0  0  0  0  0  0  0
  140.1338   78.7615  217.3029 H   0  0  0  0  0  0  0  0  0  0  0  0
  140.4308   76.9900  217.3029 H   0  0  0  0  0  0  0  0  0  0  0  0
  142.5228   76.6765  220.9783 H   0  0  0  0  0  0  0  0  0  0  0  0
  144.3880   75.5581  218.9627 H   0  0  0  0  0  0  0  0  0  0  0  0
  144.7137   76.1035  220.6048 H   0  0  0  0  0  0  0  0  0  0  0  0
  144.6862   73.4686  220.1463 H   0  0  0  0  0  0  0  0  0  0  0  0
  143.8309   73.9783  221.5641 H   0  0  0  0  0  0  0  0  0  0  0  0
  142.6961   73.4762  218.6925 H   0  0  0  0  0  0  0  0  0  0  0  0
  142.0405   72.8121  220.1654 H   0  0  0  0  0  0  0  0  0  0  0  0
  139.5456   76.0882  221.5550 H   0  0  0  0  0  0  0  0  0  0  0  0
  138.4408   74.8941  220.6197 H   0  0  0  0  0  0  0  0  0  0  0  0
  139.5600   74.3800  223.1030 H   0  0  0  0  0  0  0  0  0  0  0  0
  139.0511   70.1467  221.7395 H   0  0  0  0  0  0  0  0  0  0  0  0
  139.2674   68.4834  223.5989 H   0  0  0  0  0  0  0  0  0  0  0  0
  139.9413   68.0834  225.9363 H   0  0  0  0  0  0  0  0  0  0  0  0
  141.4897   71.3048  228.3033 H   0  0  0  0  0  0  0  0  0  0  0  0
  141.2202   72.8200  226.3796 H   0  0  0  0  0  0  0  0  0  0  0  0
  1  2  1  0
  2  3  1  0
  3  4  2  0
  4  5  1  0
  5  6  2  0
  6  7  1  0
  7  8  2  0
  2  9  1  0
  9 10  1  0
  9 11  1  0
 11 12  2  0
 11 13  1  0
 13 14  1  0
 14 15  1  0
 15 16  1  0
 16 17  1  0
 17 18  1  0
 18 19  2  0
 18 20  1  0
 20 21  1  0
 21 22  1  0
 22 23  2  0
 22 24  1  0
 24 25  2  0
 25 26  1  0
 26 27  2  0
 27 28  1  0
 28 29  2  0
 29 30  1  0
 29 31  1  0
 31 32  2  0
 32 33  1  0
 33 34  2  0
  8  3  1  0
 17 13  1  0
 34 24  1  0
 33 27  1  0
  1 35  1  0
  1 36  1  0
  1 37  1  0
  2 38  1  1
  4 39  1  0
  5 40  1  0
  6 41  1  0
  7 42  1  0
  8 43  1  0
 10 44  1  0
 10 45  1  0
 10 46  1  0
 13 47  1  1
 14 48  1  0
 14 49  1  0
 15 50  1  0
 15 51  1  0
 16 52  1  0
 16 53  1  0
 20 54  1  0
 20 55  1  0
 21 56  1  0
 25 57  1  0
 26 58  1  0
 28 59  1  0
 31 60  1  0
 32 61  1  0
M  END
>  <smiles>  (12) 
C[C@H](c1ccccc1)N(C)C(=O)[C@@H]1CCCN1C(=O)CNC(=O)c1ccc2cc(Cl)ccc2n1

>  <score_type>  (12) 
oracle

>  <origin>  (12) 
autodockgpu

>  <m_score__min__energy>  (12) 
-9.0800000000000001

>  <m_primary>  (12) 
energy

>  <rmsd>  (12) 
3.22122895553867

>  <m_score__min__rmsd>  (12) 
3.22122895553867

>  <meeko>  (12) 
{"free_energy": -8.66, "intermolecular_energy": -11.04, "internal_energy": -2.7, "cluster_size": 24, "cluster_id": 1, "rank_in_cluster": 11}

>  <energy>  (12) 
-8.57

>  <cluster_rmsd>  (12) 
1.8

>  <cluster>  (12) 
1

$$$$

     RDKit          3D

 61 64  0  0  0  0  0  0  0  0999 V2000
  144.6030   74.0440  220.4300 C   0  0  0  0  0  0  0  0  0  0  0  0
  143.1500   74.0530  220.6910 C   0  0  2  0  0  0  0  0  0  0  0  0
  142.5080   72.8050  220.1730 C   0  0  0  0  0  0  0  0  0  0  0  0
  141.6520   72.9070  219.0660 C   0  0  0  0  0  0  0  0  0  0  0  0
  141.0420   71.8200  218.5060 C   0  0  0  0  0  0  0  0  0  0  0  0
  141.2520   70.5570  219.0220 C   0  0  0  0  0  0  0  0  0  0  0  0
  142.0810   70.4400  220.0970 C   0  0  0  0  0  0  0  0  0  0  0  0
  142.7040   71.5530  220.6680 C   0  0  0  0  0  0  0  0  0  0  0  0
  142.4270   75.2550  220.5050 N   0  0  0  0  0  0  0  0  0  0  0  0
  142.7760   76.0450  219.2820 C   0  0  0  0  0  0  0  0  0  0  0  0
  141.4250   75.8260  221.2970 C   0  0  0  0  0  0  0  0  0  0  0  0
  141.0150   75.1660  222.3410 O   0  0  0  0  0  0  0  0  0  0  0  0
  140.7270   77.1220  221.1310 C   0  0  2  0  0  0  0  0  0  0  0  0
  141.2800   78.2130  221.9740 C   0  0  0  0  0  0  0  0  0  0  0  0
  140.0610   78.9830  222.4480 C   0  0  0  0  0  0  0  0  0  0  0  0
  139.0950   77.8040  222.7590 C   0  0  0  0  0  0  0  0  0  0  0  0
  139.3550   76.9050  221.6540 N   0  0  0  0  0  0  0  0  0  0  0  0
  138.5210   75.9170  221.0600 C   0  0  0  0  0  0  0  0  0  0  0  0
  137.3130   76.2770  220.7210 O   0  0  0  0  0  0  0  0  0  0  0  0
  138.8210   74.5240  220.7710 C   0  0  0  0  0  0  0  0  0  0  0  0
  139.0560   73.6260  221.8330 N   0  0  0  0  0  0  0  0  0  0  0  0
  139.0320   72.1910  221.6800 C   0  0  0  0  0  0  0  0  0  0  0  0
  138.7800   71.6660  220.5450 O   0  0  0  0  0  0  0  0  0  0  0  0
  139.2980   71.3360  222.8400 C   0  0  0  0  0  0  0  0  0  0  0  0
  138.9010   70.0180  222.8050 C   0  0  0  0  0  0  0  0  0  0  0  0
  139.1350   69.1730  223.8870 C   0  0  0  0  0  0  0  0  0  0  0  0
  139.7740   69.6980  224.9900 C   0  0  0  0  0  0  0  0  0  0  0  0
  140.0570   68.9610  226.1100 C   0  0  0  0  0  0  0  0  0  0  0  0
  140.7000   69.4890  227.2200 C   0  0  0  0  0  0  0  0  0  0  0  0
  141.0470   68.5150  228.6390 Cl  0  0  0  0  0  0  0  0  0  0  0  0
  141.0670   70.8280  227.1730 C   0  0  0  0  0  0  0  0  0  0  0  0
  140.7930   71.5850  226.0590 C   0  0  0  0  0  0  0  0  0  0  0  0
  140.1530   71.0340  224.9720 C   0  0  0  0  0  0  0  0  0  0  0  0
  139.9190   71.8290  223.9230 N   0  0  0  0  0  0  0  0  0  0  0  0
  145.1472   74.0406  221.3859 H   0  0  0  0  0  0  0  0  0  0  0  0
  144.8666   73.1442  219.8548 H   0  0  0  0  0  0  0  0  0  0  0  0
  144.8778   74.9405  219.8548 H   0  0  0  0  0  0  0  0  0  0  0  0
  143.0760   74.0376  221.7884 H   0  0  0  0  0  0  0  0  0  0  0  0
  141.4647   73.9003  218.6322 H   0  0  0  0  0  0  0  0  0  0  0  0
  140.3792   71.9523  217.6382 H   0  0  0  0  0  0  0  0  0  0  0  0
  140.7663   69.6745  218.5801 H   0  0  0  0  0  0  0  0  0  0  0  0
  142.2646   69.4440  220.5264 H   0  0  0  0  0  0  0  0  0  0  0  0
  143.3663   71.4140  221.5352 H   0  0  0  0  0  0  0  0  0  0  0  0
  143.2038   77.0134  219.5807 H   0  0  0  0  0  0  0  0  0  0  0  0
  143.5119   75.4881  218.6834 H   0  0  0  0  0  0  0  0  0  0  0  0
  141.8688   76.2140  218.6834 H   0  0  0  0  0  0  0  0  0  0  0  0
  140.8099   77.4156  220.0741 H   0  0  0  0  0  0  0  0  0  0  0  0
  141.8355   77.8001  222.8289 H   0  0  0  0  0  0  0  0  0  0  0  0
  141.9880   78.8493  221.4227 H   0  0  0  0  0  0  0  0  0  0  0  0
  140.2794   79.5787  223.3466 H   0  0  0  0  0  0  0  0  0  0  0  0
  139.6730   79.7205  221.7300 H   0  0  0  0  0  0  0  0  0  0  0  0
  139.3363   77.3329  223.7233 H   0  0  0  0  0  0  0  0  0  0  0  0
  138.0408   78.1050  222.8483 H   0  0  0  0  0  0  0  0  0  0  0  0
  137.9698   74.1262  220.1990 H   0  0  0  0  0  0  0  0  0  0  0  0
  139.7918   74.5720  220.2559 H   0  0  0  0  0  0  0  0  0  0  0  0
  139.2680   73.9630  222.8180 H   0  0  0  0  0  0  0  0  0  0  0  0
  138.3926   69.6276  221.9111 H   0  0  0  0  0  0  0  0  0  0  0  0
  138.8198   68.1194  223.8623 H   0  0  0  0  0  0  0  0  0  0  0  0
  139.7607   67.9019  226.1298 H   0  0  0  0  0  0  0  0  0  0  0  0
  141.5798   71.2850  228.0322 H   0  0  0  0  0  0  0  0  0  0  0  0
  141.0888   72.6442  226.0358 H   0  0  0  0  0  0  0  0  0  0  0  0
  1  2  1  0
  2  3  1  0
  3  4  2  0
  4  5  1  0
  5  6  2  0
  6  7  1  0
  7  8  2  0
  2  9  1  0
  9 10  1  0
  9 11  1  0
 11 12  2  0
 11 13  1  0
 13 14  1  0
 14 15  1  0
 15 16  1  0
 16 17  1  0
 17 18  1  0
 18 19  2  0
 18 20  1  0
 20 21  1  0
 21 22  1  0
 22 23  2  0
 22 24  1  0
 24 25  2  0
 25 26  1  0
 26 27  2  0
 27 28  1  0
 28 29  2  0
 29 30  1  0
 29 31  1  0
 31 32  2  0
 32 33  1  0
 33 34  2  0
  8  3  1  0
 17 13  1  0
 34 24  1  0
 33 27  1  0
  1 35  1  0
  1 36  1  0
  1 37  1  0
  2 38  1  1
  4 39  1  0
  5 40  1  0
  6 41  1  0
  7 42  1  0
  8 43  1  0
 10 44  1  0
 10 45  1  0
 10 46  1  0
 13 47  1  6
 14 48  1  0
 14 49  1  0
 15 50  1  0
 15 51  1  0
 16 52  1  0
 16 53  1  0
 20 54  1  0
 20 55  1  0
 21 56  1  0
 25 57  1  0
 26 58  1  0
 28 59  1  0
 31 60  1  0
 32 61  1  0
M  END
>  <smiles>  (13) 
C[C@H](c1ccccc1)N(C)C(=O)[C@@H]1CCCN1C(=O)CNC(=O)c1ccc2cc(Cl)ccc2n1

>  <score_type>  (13) 
oracle

>  <origin>  (13) 
autodockgpu

>  <m_score__min__energy>  (13) 
-9.0800000000000001

>  <m_primary>  (13) 
energy

>  <rmsd>  (13) 
5.602413751517385

>  <m_score__min__rmsd>  (13) 
5.602413751517385

>  <meeko>  (13) 
{"free_energy": -7.31, "intermolecular_energy": -9.7, "internal_energy": -3.6, "cluster_size": 13, "cluster_id": 2, "rank_in_cluster": 13}

>  <energy>  (13) 
-8.48

>  <cluster_rmsd>  (13) 
1.74

>  <cluster>  (13) 
1

$$$$

     RDKit          3D

 61 64  0  0  0  0  0  0  0  0999 V2000
  137.9240   80.6440  223.4520 C   0  0  0  0  0  0  0  0  0  0  0  0
  138.7240   79.4110  223.3140 C   0  0  2  0  0  0  0  0  0  0  0  0
  140.1770   79.7330  223.1620 C   0  0  0  0  0  0  0  0  0  0  0  0
  140.5790   80.4830  222.0480 C   0  0  0  0  0  0  0  0  0  0  0  0
  141.8790   80.8500  221.8380 C   0  0  0  0  0  0  0  0  0  0  0  0
  142.8620   80.4850  222.7350 C   0  0  0  0  0  0  0  0  0  0  0  0
  142.4880   79.7560  223.8240 C   0  0  0  0  0  0  0  0  0  0  0  0
  141.1580   79.3830  224.0370 C   0  0  0  0  0  0  0  0  0  0  0  0
  138.2270   78.3570  222.5120 N   0  0  0  0  0  0  0  0  0  0  0  0
  137.5040   78.7680  221.2670 C   0  0  0  0  0  0  0  0  0  0  0  0
  138.3080   76.9730  222.7060 C   0  0  0  0  0  0  0  0  0  0  0  0
  137.2920   76.3680  223.2500 O   0  0  0  0  0  0  0  0  0  0  0  0
  139.4140   76.0450  222.3710 C   0  0  2  0  0  0  0  0  0  0  0  0
  140.7430   76.7030  222.2920 C   0  0  0  0  0  0  0  0  0  0  0  0
  141.4280   76.0360  221.1130 C   0  0  0  0  0  0  0  0  0  0  0  0
  140.2370   75.9530  220.1150 C   0  0  0  0  0  0  0  0  0  0  0  0
  139.1410   75.5860  220.9870 N   0  0  0  0  0  0  0  0  0  0  0  0
  137.9320   74.8950  220.6980 C   0  0  0  0  0  0  0  0  0  0  0  0
  136.8430   75.6070  220.5970 O   0  0  0  0  0  0  0  0  0  0  0  0
  137.7210   73.4700  220.4980 C   0  0  0  0  0  0  0  0  0  0  0  0
  138.0140   72.5670  221.5430 N   0  0  0  0  0  0  0  0  0  0  0  0
  139.3130   72.4650  222.1620 C   0  0  0  0  0  0  0  0  0  0  0  0
  140.2770   73.2040  221.7690 O   0  0  0  0  0  0  0  0  0  0  0  0
  139.5220   71.5040  223.2490 C   0  0  0  0  0  0  0  0  0  0  0  0
  139.1250   70.1970  223.0720 C   0  0  0  0  0  0  0  0  0  0  0  0
  139.3060   69.2540  224.0810 C   0  0  0  0  0  0  0  0  0  0  0  0
  139.8930   69.6710  225.2570 C   0  0  0  0  0  0  0  0  0  0  0  0
  140.1200   68.8310  226.3160 C   0  0  0  0  0  0  0  0  0  0  0  0
  140.7100   69.2510  227.4990 C   0  0  0  0  0  0  0  0  0  0  0  0
  140.9870   68.1470  228.8370 Cl  0  0  0  0  0  0  0  0  0  0  0  0
  141.0800   70.5860  227.5940 C   0  0  0  0  0  0  0  0  0  0  0  0
  140.8610   71.4450  226.5450 C   0  0  0  0  0  0  0  0  0  0  0  0
  140.2740   71.0000  225.3820 C   0  0  0  0  0  0  0  0  0  0  0  0
  140.0910   71.8910  224.4010 N   0  0  0  0  0  0  0  0  0  0  0  0
  137.7781   80.8689  224.5188 H   0  0  0  0  0  0  0  0  0  0  0  0
  138.4524   81.4798  222.9700 H   0  0  0  0  0  0  0  0  0  0  0  0
  136.9455   80.5021  222.9700 H   0  0  0  0  0  0  0  0  0  0  0  0
  138.5931   78.8988  224.2786 H   0  0  0  0  0  0  0  0  0  0  0  0
  139.8186   80.7882  221.3141 H   0  0  0  0  0  0  0  0  0  0  0  0
  142.1432   81.4402  220.9481 H   0  0  0  0  0  0  0  0  0  0  0  0
  143.9118   80.7727  222.5764 H   0  0  0  0  0  0  0  0  0  0  0  0
  143.2528   79.4533  224.5544 H   0  0  0  0  0  0  0  0  0  0  0  0
  140.8994   78.7948  224.9298 H   0  0  0  0  0  0  0  0  0  0  0  0
  136.5772   79.2948  221.5382 H   0  0  0  0  0  0  0  0  0  0  0  0
  138.1456   79.4364  220.6741 H   0  0  0  0  0  0  0  0  0  0  0  0
  137.2579   77.8748  220.6741 H   0  0  0  0  0  0  0  0  0  0  0  0
  139.4502   75.2678  223.1486 H   0  0  0  0  0  0  0  0  0  0  0  0
  140.6322   77.7833  222.1170 H   0  0  0  0  0  0  0  0  0  0  0  0
  141.3178   76.5978  223.2239 H   0  0  0  0  0  0  0  0  0  0  0  0
  142.2493   76.6515  220.7172 H   0  0  0  0  0  0  0  0  0  0  0  0
  141.9069   75.0725  221.3417 H   0  0  0  0  0  0  0  0  0  0  0  0
  140.0540   76.9227  219.6290 H   0  0  0  0  0  0  0  0  0  0  0  0
  140.4003   75.2486  219.2861 H   0  0  0  0  0  0  0  0  0  0  0  0
  136.6578   73.3365  220.2496 H   0  0  0  0  0  0  0  0  0  0  0  0
  138.4536   73.2088  219.7202 H   0  0  0  0  0  0  0  0  0  0  0  0
  137.2820   71.9050  221.9360 H   0  0  0  0  0  0  0  0  0  0  0  0
  138.6594   69.8943  222.1225 H   0  0  0  0  0  0  0  0  0  0  0  0
  138.9905   68.2092  223.9440 H   0  0  0  0  0  0  0  0  0  0  0  0
  139.8209   67.7765  226.2236 H   0  0  0  0  0  0  0  0  0  0  0  0
  141.5516   70.9580  228.5155 H   0  0  0  0  0  0  0  0  0  0  0  0
  141.1579   72.5003  226.6351 H   0  0  0  0  0  0  0  0  0  0  0  0
  1  2  1  0
  2  3  1  0
  3  4  2  0
  4  5  1  0
  5  6  2  0
  6  7  1  0
  7  8  2  0
  2  9  1  0
  9 10  1  0
  9 11  1  0
 11 12  2  0
 11 13  1  0
 13 14  1  0
 14 15  1  0
 15 16  1  0
 16 17  1  0
 17 18  1  0
 18 19  2  0
 18 20  1  0
 20 21  1  0
 21 22  1  0
 22 23  2  0
 22 24  1  0
 24 25  2  0
 25 26  1  0
 26 27  2  0
 27 28  1  0
 28 29  2  0
 29 30  1  0
 29 31  1  0
 31 32  2  0
 32 33  1  0
 33 34  2  0
  8  3  1  0
 17 13  1  0
 34 24  1  0
 33 27  1  0
  1 35  1  0
  1 36  1  0
  1 37  1  0
  2 38  1  1
  4 39  1  0
  5 40  1  0
  6 41  1  0
  7 42  1  0
  8 43  1  0
 10 44  1  0
 10 45  1  0
 10 46  1  0
 13 47  1  1
 14 48  1  0
 14 49  1  0
 15 50  1  0
 15 51  1  0
 16 52  1  0
 16 53  1  0
 20 54  1  0
 20 55  1  0
 21 56  1  0
 25 57  1  0
 26 58  1  0
 28 59  1  0
 31 60  1  0
 32 61  1  0
M  END
>  <smiles>  (14) 
C[C@H](c1ccccc1)N(C)C(=O)[C@@H]1CCCN1C(=O)CNC(=O)c1ccc2cc(Cl)ccc2n1

>  <score_type>  (14) 
oracle

>  <origin>  (14) 
autodockgpu

>  <m_score__min__energy>  (14) 
-9.0800000000000001

>  <m_primary>  (14) 
energy

>  <rmsd>  (14) 
3.1384563452003778

>  <m_score__min__rmsd>  (14) 
3.1384563452003778

>  <meeko>  (14) 
{"free_energy": -8.52, "intermolecular_energy": -10.91, "internal_energy": -2.43, "cluster_size": 4, "cluster_id": 3, "rank_in_cluster": 2}

>  <energy>  (14) 
-8.44

>  <cluster_rmsd>  (14) 
1.26

>  <cluster>  (14) 
1

$$$$

     RDKit          3D

 61 64  0  0  0  0  0  0  0  0999 V2000
  141.8610   77.6370  219.6210 C   0  0  0  0  0  0  0  0  0  0  0  0
  140.8330   77.8610  220.6560 C   0  0  2  0  0  0  0  0  0  0  0  0
  141.4050   78.5990  221.8240 C   0  0  0  0  0  0  0  0  0  0  0  0
  142.1000   79.7930  221.5820 C   0  0  0  0  0  0  0  0  0  0  0  0
  142.6340   80.5510  222.5860 C   0  0  0  0  0  0  0  0  0  0  0  0
  142.5040   80.1580  223.9020 C   0  0  0  0  0  0  0  0  0  0  0  0
  141.8320   79.0000  224.1560 C   0  0  0  0  0  0  0  0  0  0  0  0
  141.2860   78.2270  223.1280 C   0  0  0  0  0  0  0  0  0  0  0  0
  139.9240   76.8190  220.9560 N   0  0  0  0  0  0  0  0  0  0  0  0
  138.4940   77.0740  220.5900 C   0  0  0  0  0  0  0  0  0  0  0  0
  140.1570   75.5740  221.5510 C   0  0  0  0  0  0  0  0  0  0  0  0
  139.6190   75.3350  222.7120 O   0  0  0  0  0  0  0  0  0  0  0  0
  140.9520   74.4300  221.0430 C   0  0  2  0  0  0  0  0  0  0  0  0
  142.3710   74.7660  220.7610 C   0  0  0  0  0  0  0  0  0  0  0  0
  142.6940   74.0080  219.4860 C   0  0  0  0  0  0  0  0  0  0  0  0
  141.3810   74.2440  218.6860 C   0  0  0  0  0  0  0  0  0  0  0  0
  140.3740   74.1030  219.7160 N   0  0  0  0  0  0  0  0  0  0  0  0
  139.0070   73.7230  219.6160 C   0  0  0  0  0  0  0  0  0  0  0  0
  138.4690   73.7240  218.4270 O   0  0  0  0  0  0  0  0  0  0  0  0
  138.0910   73.3250  220.6730 C   0  0  0  0  0  0  0  0  0  0  0  0
  138.6030   72.8290  221.8910 N   0  0  0  0  0  0  0  0  0  0  0  0
  139.0920   71.4820  222.0570 C   0  0  0  0  0  0  0  0  0  0  0  0
  139.0690   70.6600  221.0800 O   0  0  0  0  0  0  0  0  0  0  0  0
  139.6160   71.0580  223.3580 C   0  0  0  0  0  0  0  0  0  0  0  0
  140.4390   71.9110  224.0580 C   0  0  0  0  0  0  0  0  0  0  0  0
  140.9580   71.5460  225.2980 C   0  0  0  0  0  0  0  0  0  0  0  0
  140.6220   70.3060  225.7980 C   0  0  0  0  0  0  0  0  0  0  0  0
  141.0740   69.8410  227.0060 C   0  0  0  0  0  0  0  0  0  0  0  0
  140.7350   68.5930  227.5090 C   0  0  0  0  0  0  0  0  0  0  0  0
  141.3320   68.0290  229.0610 Cl  0  0  0  0  0  0  0  0  0  0  0  0
  139.9000   67.7950  226.7380 C   0  0  0  0  0  0  0  0  0  0  0  0
  139.4360   68.2410  225.5250 C   0  0  0  0  0  0  0  0  0  0  0  0
  139.7880   69.4850  225.0500 C   0  0  0  0  0  0  0  0  0  0  0  0
  139.3000   69.8540  223.8620 N   0  0  0  0  0  0  0  0  0  0  0  0
  142.8270   77.4265  220.1032 H   0  0  0  0  0  0  0  0  0  0  0  0
  141.5699   76.7812  218.9942 H   0  0  0  0  0  0  0  0  0  0  0  0
  141.9523   78.5363  218.9942 H   0  0  0  0  0  0  0  0  0  0  0  0
  140.1019   78.5219  220.1674 H   0  0  0  0  0  0  0  0  0  0  0  0
  142.2200   80.1328  220.5427 H   0  0  0  0  0  0  0  0  0  0  0  0
  143.1707   81.4800  222.3433 H   0  0  0  0  0  0  0  0  0  0  0  0
  142.9287   80.7595  224.7192 H   0  0  0  0  0  0  0  0  0  0  0  0
  141.7164   78.6651  225.1974 H   0  0  0  0  0  0  0  0  0  0  0  0
  140.7495   77.2997  223.3774 H   0  0  0  0  0  0  0  0  0  0  0  0
  137.8945   77.1809  221.5061 H   0  0  0  0  0  0  0  0  0  0  0  0
  138.4264   77.9984  219.9976 H   0  0  0  0  0  0  0  0  0  0  0  0
  138.1110   76.2300  219.9976 H   0  0  0  0  0  0  0  0  0  0  0  0
  140.9216   73.6344  221.8020 H   0  0  0  0  0  0  0  0  0  0  0  0
  142.4919   75.8490  220.6109 H   0  0  0  0  0  0  0  0  0  0  0  0
  143.0389   74.4926  221.5912 H   0  0  0  0  0  0  0  0  0  0  0  0
  143.5676   74.4326  218.9697 H   0  0  0  0  0  0  0  0  0  0  0  0
  142.9617   72.9512  219.6325 H   0  0  0  0  0  0  0  0  0  0  0  0
  141.3593   75.2494  218.2403 H   0  0  0  0  0  0  0  0  0  0  0  0
  141.2480   73.5567  217.8375 H   0  0  0  0  0  0  0  0  0  0  0  0
  137.4836   74.2086  220.9184 H   0  0  0  0  0  0  0  0  0  0  0  0
  137.5653   72.4591  220.2442 H   0  0  0  0  0  0  0  0  0  0  0  0
  138.6590   73.4310  222.7640 H   0  0  0  0  0  0  0  0  0  0  0  0
  140.6901   72.8938  223.6325 H   0  0  0  0  0  0  0  0  0  0  0  0
  141.6151   72.2256  225.8604 H   0  0  0  0  0  0  0  0  0  0  0  0
  141.7351   70.4862  227.6032 H   0  0  0  0  0  0  0  0  0  0  0  0
  139.6082   66.7986  227.1015 H   0  0  0  0  0  0  0  0  0  0  0  0
  138.7755   67.5972  224.9256 H   0  0  0  0  0  0  0  0  0  0  0  0
  1  2  1  0
  2  3  1  0
  3  4  2  0
  4  5  1  0
  5  6  2  0
  6  7  1  0
  7  8  2  0
  2  9  1  0
  9 10  1  0
  9 11  1  0
 11 12  2  0
 11 13  1  0
 13 14  1  0
 14 15  1  0
 15 16  1  0
 16 17  1  0
 17 18  1  0
 18 19  2  0
 18 20  1  0
 20 21  1  0
 21 22  1  0
 22 23  2  0
 22 24  1  0
 24 25  2  0
 25 26  1  0
 26 27  2  0
 27 28  1  0
 28 29  2  0
 29 30  1  0
 29 31  1  0
 31 32  2  0
 32 33  1  0
 33 34  2  0
  8  3  1  0
 17 13  1  0
 34 24  1  0
 33 27  1  0
  1 35  1  0
  1 36  1  0
  1 37  1  0
  2 38  1  6
  4 39  1  0
  5 40  1  0
  6 41  1  0
  7 42  1  0
  8 43  1  0
 10 44  1  0
 10 45  1  0
 10 46  1  0
 13 47  1  1
 14 48  1  0
 14 49  1  0
 15 50  1  0
 15 51  1  0
 16 52  1  0
 16 53  1  0
 20 54  1  0
 20 55  1  0
 21 56  1  0
 25 57  1  0
 26 58  1  0
 28 59  1  0
 31 60  1  0
 32 61  1  0
M  END
>  <smiles>  (15) 
C[C@H](c1ccccc1)N(C)C(=O)[C@@H]1CCCN1C(=O)CNC(=O)c1ccc2cc(Cl)ccc2n1

>  <score_type>  (15) 
oracle

>  <origin>  (15) 
autodockgpu

>  <m_score__min__energy>  (15) 
-9.0800000000000001

>  <m_primary>  (15) 
energy

>  <rmsd>  (15) 
3.5505463073425125

>  <m_score__min__rmsd>  (15) 
3.5505463073425125

>  <meeko>  (15) 
{"free_energy": -8.71, "intermolecular_energy": -11.09, "internal_energy": -3.04, "cluster_size": 24, "cluster_id": 1, "rank_in_cluster": 9}

>  <energy>  (15) 
-8.43

>  <cluster_rmsd>  (15) 
1.39

>  <cluster>  (15) 
1

$$$$

     RDKit          3D

 61 64  0  0  0  0  0  0  0  0999 V2000
  142.9250   75.9690  219.2320 C   0  0  0  0  0  0  0  0  0  0  0  0
  142.9450   74.9420  220.2920 C   0  0  2  0  0  0  0  0  0  0  0  0
  144.1060   74.0170  220.1160 C   0  0  0  0  0  0  0  0  0  0  0  0
  145.0020   73.8630  221.1840 C   0  0  0  0  0  0  0  0  0  0  0  0
  146.0770   73.0200  221.1280 C   0  0  0  0  0  0  0  0  0  0  0  0
  146.3220   72.2740  219.9930 C   0  0  0  0  0  0  0  0  0  0  0  0
  145.4610   72.4120  218.9450 C   0  0  0  0  0  0  0  0  0  0  0  0
  144.3620   73.2730  219.0050 C   0  0  0  0  0  0  0  0  0  0  0  0
  141.7250   74.3480  220.6940 N   0  0  0  0  0  0  0  0  0  0  0  0
  141.5260   72.9210  220.2880 C   0  0  0  0  0  0  0  0  0  0  0  0
  140.6620   74.8970  221.4220 C   0  0  0  0  0  0  0  0  0  0  0  0
  140.1080   74.1680  222.3460 O   0  0  0  0  0  0  0  0  0  0  0  0
  140.0430   76.2380  221.3040 C   0  0  2  0  0  0  0  0  0  0  0  0
  140.4210   77.1690  222.3990 C   0  0  0  0  0  0  0  0  0  0  0  0
  139.1430   77.9270  222.7100 C   0  0  0  0  0  0  0  0  0  0  0  0
  138.1090   76.7680  222.6300 C   0  0  0  0  0  0  0  0  0  0  0  0
  138.5870   76.0200  221.4850 N   0  0  0  0  0  0  0  0  0  0  0  0
  137.8830   75.1700  220.5870 C   0  0  0  0  0  0  0  0  0  0  0  0
  137.7520   75.5770  219.3540 O   0  0  0  0  0  0  0  0  0  0  0  0
  137.2660   73.8790  220.8480 C   0  0  0  0  0  0  0  0  0  0  0  0
  137.7220   73.0930  221.9270 N   0  0  0  0  0  0  0  0  0  0  0  0
  137.6790   71.6510  221.9330 C   0  0  0  0  0  0  0  0  0  0  0  0
  137.2040   71.0140  220.9340 O   0  0  0  0  0  0  0  0  0  0  0  0
  138.1850   70.9170  223.0960 C   0  0  0  0  0  0  0  0  0  0  0  0
  137.7550   69.6280  223.3120 C   0  0  0  0  0  0  0  0  0  0  0  0
  138.2120   68.8960  224.4060 C   0  0  0  0  0  0  0  0  0  0  0  0
  139.1050   69.5060  225.2620 C   0  0  0  0  0  0  0  0  0  0  0  0
  139.6210   68.8840  226.3690 C   0  0  0  0  0  0  0  0  0  0  0  0
  140.5200   69.4970  227.2300 C   0  0  0  0  0  0  0  0  0  0  0  0
  141.1610   68.6700  228.6400 Cl  0  0  0  0  0  0  0  0  0  0  0  0
  140.9010   70.8000  226.9390 C   0  0  0  0  0  0  0  0  0  0  0  0
  140.3960   71.4420  225.8340 C   0  0  0  0  0  0  0  0  0  0  0  0
  139.5060   70.8090  224.9970 C   0  0  0  0  0  0  0  0  0  0  0  0
  139.0550   71.4930  223.9410 N   0  0  0  0  0  0  0  0  0  0  0  0
  142.9055   76.9687  219.6904 H   0  0  0  0  0  0  0  0  0  0  0  0
  143.8253   75.8693  218.6078 H   0  0  0  0  0  0  0  0  0  0  0  0
  142.0293   75.8343  218.6078 H   0  0  0  0  0  0  0  0  0  0  0  0
  143.1106   75.5158  221.2158 H   0  0  0  0  0  0  0  0  0  0  0  0
  144.8332   74.4434  222.1030 H   0  0  0  0  0  0  0  0  0  0  0  0
  146.7510   72.9358  221.9932 H   0  0  0  0  0  0  0  0  0  0  0  0
  147.1827   71.5913  219.9359 H   0  0  0  0  0  0  0  0  0  0  0  0
  145.6360   71.8302  218.0280 H   0  0  0  0  0  0  0  0  0  0  0  0
  143.6904   73.3512  218.1373 H   0  0  0  0  0  0  0  0  0  0  0  0
  141.4384   72.2929  221.1868 H   0  0  0  0  0  0  0  0  0  0  0  0
  140.6071   72.8348  219.6894 H   0  0  0  0  0  0  0  0  0  0  0  0
  142.3862   72.5867  219.6894 H   0  0  0  0  0  0  0  0  0  0  0  0
  140.3594   76.6731  220.3445 H   0  0  0  0  0  0  0  0  0  0  0  0
  140.7671   76.6113  223.2817 H   0  0  0  0  0  0  0  0  0  0  0  0
  141.2459   77.8383  222.1135 H   0  0  0  0  0  0  0  0  0  0  0  0
  139.1713   78.3793  223.7123 H   0  0  0  0  0  0  0  0  0  0  0  0
  138.9364   78.7765  222.0424 H   0  0  0  0  0  0  0  0  0  0  0  0
  138.1238   76.1548  223.5431 H   0  0  0  0  0  0  0  0  0  0  0  0
  137.0670   77.1075  222.5357 H   0  0  0  0  0  0  0  0  0  0  0  0
  136.1955   74.0655  221.0189 H   0  0  0  0  0  0  0  0  0  0  0  0
  137.5354   73.2824  219.9640 H   0  0  0  0  0  0  0  0  0  0  0  0
  138.1280   73.5280  222.8070 H   0  0  0  0  0  0  0  0  0  0  0  0
  137.0412   69.1694  222.6119 H   0  0  0  0  0  0  0  0  0  0  0  0
  137.8715   67.8648  224.5813 H   0  0  0  0  0  0  0  0  0  0  0  0
  139.3081   67.8517  226.5847 H   0  0  0  0  0  0  0  0  0  0  0  0
  141.6115   71.3216  227.5971 H   0  0  0  0  0  0  0  0  0  0  0  0
  140.7069   72.4744  225.6159 H   0  0  0  0  0  0  0  0  0  0  0  0
  1  2  1  0
  2  3  1  0
  3  4  2  0
  4  5  1  0
  5  6  2  0
  6  7  1  0
  7  8  2  0
  2  9  1  0
  9 10  1  0
  9 11  1  0
 11 12  2  0
 11 13  1  0
 13 14  1  0
 14 15  1  0
 15 16  1  0
 16 17  1  0
 17 18  1  0
 18 19  2  0
 18 20  1  0
 20 21  1  0
 21 22  1  0
 22 23  2  0
 22 24  1  0
 24 25  2  0
 25 26  1  0
 26 27  2  0
 27 28  1  0
 28 29  2  0
 29 30  1  0
 29 31  1  0
 31 32  2  0
 32 33  1  0
 33 34  2  0
  8  3  1  0
 17 13  1  0
 34 24  1  0
 33 27  1  0
  1 35  1  0
  1 36  1  0
  1 37  1  0
  2 38  1  1
  4 39  1  0
  5 40  1  0
  6 41  1  0
  7 42  1  0
  8 43  1  0
 10 44  1  0
 10 45  1  0
 10 46  1  0
 13 47  1  6
 14 48  1  0
 14 49  1  0
 15 50  1  0
 15 51  1  0
 16 52  1  0
 16 53  1  0
 20 54  1  0
 20 55  1  0
 21 56  1  0
 25 57  1  0
 26 58  1  0
 28 59  1  0
 31 60  1  0
 32 61  1  0
M  END
>  <smiles>  (16) 
C[C@H](c1ccccc1)N(C)C(=O)[C@@H]1CCCN1C(=O)CNC(=O)c1ccc2cc(Cl)ccc2n1

>  <score_type>  (16) 
oracle

>  <origin>  (16) 
autodockgpu

>  <m_score__min__energy>  (16) 
-9.0800000000000001

>  <m_primary>  (16) 
energy

>  <rmsd>  (16) 
5.399907085794599

>  <m_score__min__rmsd>  (16) 
5.399907085794599

>  <meeko>  (16) 
{"free_energy": -8.54, "intermolecular_energy": -10.93, "internal_energy": -3.01, "cluster_size": 13, "cluster_id": 2, "rank_in_cluster": 2}

>  <energy>  (16) 
-8.38

>  <cluster_rmsd>  (16) 
1.85

>  <cluster>  (16) 
1

$$$$

     RDKit          3D

 61 64  0  0  0  0  0  0  0  0999 V2000
  142.4830   77.5070  219.5600 C   0  0  0  0  0  0  0  0  0  0  0  0
  141.3650   77.4520  220.5230 C   0  0  2  0  0  0  0  0  0  0  0  0
  141.5700   78.4310  221.6350 C   0  0  0  0  0  0  0  0  0  0  0  0
  141.8810   79.7590  221.3040 C   0  0  0  0  0  0  0  0  0  0  0  0
  142.0580   80.7300  222.2490 C   0  0  0  0  0  0  0  0  0  0  0  0
  141.9350   80.4310  223.5900 C   0  0  0  0  0  0  0  0  0  0  0  0
  141.6330   79.1460  223.9290 C   0  0  0  0  0  0  0  0  0  0  0  0
  141.4510   78.1550  222.9620 C   0  0  0  0  0  0  0  0  0  0  0  0
  140.8340   76.1920  220.8860 N   0  0  0  0  0  0  0  0  0  0  0  0
  141.6500   75.0000  220.4930 C   0  0  0  0  0  0  0  0  0  0  0  0
  139.6490   75.8850  221.5650 C   0  0  0  0  0  0  0  0  0  0  0  0
  139.6410   74.8460  222.3490 O   0  0  0  0  0  0  0  0  0  0  0  0
  138.3450   76.5880  221.5330 C   0  0  2  0  0  0  0  0  0  0  0  0
  138.0640   77.3830  222.7560 C   0  0  0  0  0  0  0  0  0  0  0  0
  136.5840   77.1690  223.0170 C   0  0  0  0  0  0  0  0  0  0  0  0
  136.4680   75.6490  222.7050 C   0  0  0  0  0  0  0  0  0  0  0  0
  137.3170   75.5170  221.5400 N   0  0  0  0  0  0  0  0  0  0  0  0
  137.2870   74.5610  220.4870 C   0  0  0  0  0  0  0  0  0  0  0  0
  136.4600   74.7800  219.5010 O   0  0  0  0  0  0  0  0  0  0  0  0
  138.0590   73.3370  220.3440 C   0  0  0  0  0  0  0  0  0  0  0  0
  138.4070   72.5940  221.4920 N   0  0  0  0  0  0  0  0  0  0  0  0
  138.4840   71.1530  221.5120 C   0  0  0  0  0  0  0  0  0  0  0  0
  138.2240   70.4770  220.4610 O   0  0  0  0  0  0  0  0  0  0  0  0
  138.8640   70.4660  222.7500 C   0  0  0  0  0  0  0  0  0  0  0  0
  138.5240   69.1430  222.9120 C   0  0  0  0  0  0  0  0  0  0  0  0
  138.8660   68.4540  224.0730 C   0  0  0  0  0  0  0  0  0  0  0  0
  139.5540   69.1410  225.0510 C   0  0  0  0  0  0  0  0  0  0  0  0
  139.9430   68.5670  226.2340 C   0  0  0  0  0  0  0  0  0  0  0  0
  140.6350   69.2580  227.2170 C   0  0  0  0  0  0  0  0  0  0  0  0
  141.1180   68.4900  228.7210 Cl  0  0  0  0  0  0  0  0  0  0  0  0
  140.9390   70.5910  226.9730 C   0  0  0  0  0  0  0  0  0  0  0  0
  140.5590   71.1860  225.7950 C   0  0  0  0  0  0  0  0  0  0  0  0
  139.8720   70.4750  224.8360 C   0  0  0  0  0  0  0  0  0  0  0  0
  139.5350   71.1180  223.7130 N   0  0  0  0  0  0  0  0  0  0  0  0
  143.4362   77.5539  220.1071 H   0  0  0  0  0  0  0  0  0  0  0  0
  142.4670   76.6070  218.9278 H   0  0  0  0  0  0  0  0  0  0  0  0
  142.3787   78.4011  218.9278 H   0  0  0  0  0  0  0  0  0  0  0  0
  140.4944   77.7857  219.9393 H   0  0  0  0  0  0  0  0  0  0  0  0
  141.9863   80.0286  220.2428 H   0  0  0  0  0  0  0  0  0  0  0  0
  142.3002   81.7570  221.9383 H   0  0  0  0  0  0  0  0  0  0  0  0
  142.0759   81.2039  224.3600 H   0  0  0  0  0  0  0  0  0  0  0  0
  141.5299   78.8826  224.9920 H   0  0  0  0  0  0  0  0  0  0  0  0
  141.2065   77.1306  223.2796 H   0  0  0  0  0  0  0  0  0  0  0  0
  142.0036   74.4834  221.3975 H   0  0  0  0  0  0  0  0  0  0  0  0
  141.0318   74.3130  219.8964 H   0  0  0  0  0  0  0  0  0  0  0  0
  142.5141   75.3277  219.8964 H   0  0  0  0  0  0  0  0  0  0  0  0
  138.3466   77.2633  220.6647 H   0  0  0  0  0  0  0  0  0  0  0  0
  138.6647   77.0193  223.6027 H   0  0  0  0  0  0  0  0  0  0  0  0
  138.3171   78.4462  222.6310 H   0  0  0  0  0  0  0  0  0  0  0  0
  136.3176   77.3924  224.0606 H   0  0  0  0  0  0  0  0  0  0  0  0
  135.9134   77.8136  222.4299 H   0  0  0  0  0  0  0  0  0  0  0  0
  136.8396   75.0394  223.5419 H   0  0  0  0  0  0  0  0  0  0  0  0
  135.4353   75.3063  222.5432 H   0  0  0  0  0  0  0  0  0  0  0  0
  137.4775   72.6667  219.6939 H   0  0  0  0  0  0  0  0  0  0  0  0
  139.0287   73.6879  219.9612 H   0  0  0  0  0  0  0  0  0  0  0  0
  138.6350   73.0630  222.4170 H   0  0  0  0  0  0  0  0  0  0  0  0
  137.9746   68.6223  222.1139 H   0  0  0  0  0  0  0  0  0  0  0  0
  138.5960   67.3959  224.2056 H   0  0  0  0  0  0  0  0  0  0  0  0
  139.6947   67.5101  226.4113 H   0  0  0  0  0  0  0  0  0  0  0  0
  141.4874   71.1737  227.7278 H   0  0  0  0  0  0  0  0  0  0  0  0
  140.8062   72.2427  225.6152 H   0  0  0  0  0  0  0  0  0  0  0  0
  1  2  1  0
  2  3  1  0
  3  4  2  0
  4  5  1  0
  5  6  2  0
  6  7  1  0
  7  8  2  0
  2  9  1  0
  9 10  1  0
  9 11  1  0
 11 12  2  0
 11 13  1  0
 13 14  1  0
 14 15  1  0
 15 16  1  0
 16 17  1  0
 17 18  1  0
 18 19  2  0
 18 20  1  0
 20 21  1  0
 21 22  1  0
 22 23  2  0
 22 24  1  0
 24 25  2  0
 25 26  1  0
 26 27  2  0
 27 28  1  0
 28 29  2  0
 29 30  1  0
 29 31  1  0
 31 32  2  0
 32 33  1  0
 33 34  2  0
  8  3  1  0
 17 13  1  0
 34 24  1  0
 33 27  1  0
  1 35  1  0
  1 36  1  0
  1 37  1  0
  2 38  1  6
  4 39  1  0
  5 40  1  0
  6 41  1  0
  7 42  1  0
  8 43  1  0
 10 44  1  0
 10 45  1  0
 10 46  1  0
 13 47  1  6
 14 48  1  0
 14 49  1  0
 15 50  1  0
 15 51  1  0
 16 52  1  0
 16 53  1  0
 20 54  1  0
 20 55  1  0
 21 56  1  0
 25 57  1  0
 26 58  1  0
 28 59  1  0
 31 60  1  0
 32 61  1  0
M  END
>  <smiles>  (17) 
C[C@H](c1ccccc1)N(C)C(=O)[C@@H]1CCCN1C(=O)CNC(=O)c1ccc2cc(Cl)ccc2n1

>  <score_type>  (17) 
oracle

>  <origin>  (17) 
autodockgpu

>  <m_score__min__energy>  (17) 
-9.0800000000000001

>  <m_primary>  (17) 
energy

>  <rmsd>  (17) 
3.576048605974391

>  <m_score__min__rmsd>  (17) 
3.576048605974391

>  <meeko>  (17) 
{"free_energy": -8.38, "intermolecular_energy": -10.77, "internal_energy": -3.02, "cluster_size": 24, "cluster_id": 1, "rank_in_cluster": 16}

>  <energy>  (17) 
-8.22

>  <cluster_rmsd>  (17) 
1.91

>  <cluster>  (17) 
1

$$$$

     RDKit          3D

 61 64  0  0  0  0  0  0  0  0999 V2000
  139.5300   70.5280  222.7030 C   0  0  0  0  0  0  0  0  0  0  0  0
  138.7910   71.1200  223.8350 C   0  0  2  0  0  0  0  0  0  0  0  0
  139.5540   70.9590  225.1120 C   0  0  0  0  0  0  0  0  0  0  0  0
  140.5800   71.8720  225.3950 C   0  0  0  0  0  0  0  0  0  0  0  0
  141.3130   71.8220  226.5470 C   0  0  0  0  0  0  0  0  0  0  0  0
  141.0630   70.8490  227.4930 C   0  0  0  0  0  0  0  0  0  0  0  0
  140.0680   69.9530  227.2340 C   0  0  0  0  0  0  0  0  0  0  0  0
  139.3200   70.0070  226.0550 C   0  0  0  0  0  0  0  0  0  0  0  0
  137.3910   70.9350  223.9130 N   0  0  0  0  0  0  0  0  0  0  0  0
  136.9320   69.5460  224.2320 C   0  0  0  0  0  0  0  0  0  0  0  0
  136.3560   71.8610  223.7360 C   0  0  0  0  0  0  0  0  0  0  0  0
  136.3820   72.6170  222.6770 O   0  0  0  0  0  0  0  0  0  0  0  0
  135.1810   72.1250  224.5980 C   0  0  2  0  0  0  0  0  0  0  0  0
  134.0530   71.1840  224.3790 C   0  0  0  0  0  0  0  0  0  0  0  0
  132.8100   72.0510  224.4730 C   0  0  0  0  0  0  0  0  0  0  0  0
  133.2940   73.3090  223.6950 C   0  0  0  0  0  0  0  0  0  0  0  0
  134.6570   73.4440  224.1630 N   0  0  0  0  0  0  0  0  0  0  0  0
  135.4880   74.5960  224.2460 C   0  0  0  0  0  0  0  0  0  0  0  0
  135.7940   75.0310  225.4380 O   0  0  0  0  0  0  0  0  0  0  0  0
  136.0610   75.3870  223.1690 C   0  0  0  0  0  0  0  0  0  0  0  0
  137.3610   75.0960  222.7040 N   0  0  0  0  0  0  0  0  0  0  0  0
  138.2530   76.0930  222.1630 C   0  0  0  0  0  0  0  0  0  0  0  0
  137.8830   77.3120  222.0740 O   0  0  0  0  0  0  0  0  0  0  0  0
  139.5910   75.6990  221.7140 C   0  0  0  0  0  0  0  0  0  0  0  0
  140.4390   76.6610  221.2140 C   0  0  0  0  0  0  0  0  0  0  0  0
  141.7190   76.3270  220.7770 C   0  0  0  0  0  0  0  0  0  0  0  0
  142.1050   75.0060  220.8610 C   0  0  0  0  0  0  0  0  0  0  0  0
  143.3390   74.5630  220.4600 C   0  0  0  0  0  0  0  0  0  0  0  0
  143.7280   73.2340  220.5440 C   0  0  0  0  0  0  0  0  0  0  0  0
  145.3170   72.7000  220.0230 Cl  0  0  0  0  0  0  0  0  0  0  0  0
  142.8100   72.3280  221.0610 C   0  0  0  0  0  0  0  0  0  0  0  0
  141.5680   72.7510  221.4680 C   0  0  0  0  0  0  0  0  0  0  0  0
  141.2100   74.0770  221.3730 C   0  0  0  0  0  0  0  0  0  0  0  0
  139.9850   74.4180  221.7880 N   0  0  0  0  0  0  0  0  0  0  0  0
  140.3344   69.8836  223.0872 H   0  0  0  0  0  0  0  0  0  0  0  0
  138.8417   69.9286  222.0891 H   0  0  0  0  0  0  0  0  0  0  0  0
  139.9647   71.3306  222.0891 H   0  0  0  0  0  0  0  0  0  0  0  0
  138.7561   72.1935  223.5974 H   0  0  0  0  0  0  0  0  0  0  0  0
  140.8036   72.6597  224.6605 H   0  0  0  0  0  0  0  0  0  0  0  0
  142.1077   72.5623  226.7215 H   0  0  0  0  0  0  0  0  0  0  0  0
  141.6463   70.7978  228.4242 H   0  0  0  0  0  0  0  0  0  0  0  0
  139.8486   69.1676  227.9722 H   0  0  0  0  0  0  0  0  0  0  0  0
  138.5260   69.2647  225.8860 H   0  0  0  0  0  0  0  0  0  0  0  0
  136.8889   69.4156  225.3234 H   0  0  0  0  0  0  0  0  0  0  0  0
  135.9321   69.3827  223.8035 H   0  0  0  0  0  0  0  0  0  0  0  0
  137.6377   68.8191  223.8035 H   0  0  0  0  0  0  0  0  0  0  0  0
  135.5079   72.0464  225.6454 H   0  0  0  0  0  0  0  0  0  0  0  0
  134.1254   70.7146  223.3868 H   0  0  0  0  0  0  0  0  0  0  0  0
  134.0459   70.3625  225.1105 H   0  0  0  0  0  0  0  0  0  0  0  0
  131.9451   71.5778  223.9852 H   0  0  0  0  0  0  0  0  0  0  0  0
  132.4602   72.2475  225.4972 H   0  0  0  0  0  0  0  0  0  0  0  0
  133.2587   73.1451  222.6079 H   0  0  0  0  0  0  0  0  0  0  0  0
  132.6752   74.2023  223.8657 H   0  0  0  0  0  0  0  0  0  0  0  0
  135.3846   75.2899  222.3070 H   0  0  0  0  0  0  0  0  0  0  0  0
  136.1657   76.3877  223.6135 H   0  0  0  0  0  0  0  0  0  0  0  0
  137.7600   74.1120  222.7290 H   0  0  0  0  0  0  0  0  0  0  0  0
  140.1018   77.7066  221.1588 H   0  0  0  0  0  0  0  0  0  0  0  0
  142.4001   77.0929  220.3776 H   0  0  0  0  0  0  0  0  0  0  0  0
  144.0529   75.2944  220.0533 H   0  0  0  0  0  0  0  0  0  0  0  0
  143.0796   71.2649  221.1449 H   0  0  0  0  0  0  0  0  0  0  0  0
  140.8514   72.0220  221.8744 H   0  0  0  0  0  0  0  0  0  0  0  0
  1  2  1  0
  2  3  1  0
  3  4  2  0
  4  5  1  0
  5  6  2  0
  6  7  1  0
  7  8  2  0
  2  9  1  0
  9 10  1  0
  9 11  1  0
 11 12  2  0
 11 13  1  0
 13 14  1  0
 14 15  1  0
 15 16  1  0
 16 17  1  0
 17 18  1  0
 18 19  2  0
 18 20  1  0
 20 21  1  0
 21 22  1  0
 22 23  2  0
 22 24  1  0
 24 25  2  0
 25 26  1  0
 26 27  2  0
 27 28  1  0
 28 29  2  0
 29 30  1  0
 29 31  1  0
 31 32  2  0
 32 33  1  0
 33 34  2  0
  8  3  1  0
 17 13  1  0
 34 24  1  0
 33 27  1  0
  1 35  1  0
  1 36  1  0
  1 37  1  0
  2 38  1  6
  4 39  1  0
  5 40  1  0
  6 41  1  0
  7 42  1  0
  8 43  1  0
 10 44  1  0
 10 45  1  0
 10 46  1  0
 13 47  1  1
 14 48  1  0
 14 49  1  0
 15 50  1  0
 15 51  1  0
 16 52  1  0
 16 53  1  0
 20 54  1  0
 20 55  1  0
 21 56  1  0
 25 57  1  0
 26 58  1  0
 28 59  1  0
 31 60  1  0
 32 61  1  0
M  END
>  <smiles>  (18) 
C[C@H](c1ccccc1)N(C)C(=O)[C@@H]1CCCN1C(=O)CNC(=O)c1ccc2cc(Cl)ccc2n1

>  <score_type>  (18) 
oracle

>  <origin>  (18) 
autodockgpu

>  <m_score__min__energy>  (18) 
-9.0800000000000001

>  <m_primary>  (18) 
energy

>  <rmsd>  (18) 
9.054832291234407

>  <m_score__min__rmsd>  (18) 
9.054832291234407

>  <meeko>  (18) 
{"free_energy": -7.5, "intermolecular_energy": -9.88, "internal_energy": -3.14, "cluster_size": 2, "cluster_id": 8, "rank_in_cluster": 1}

>  <energy>  (18) 
-8.19

>  <cluster_rmsd>  (18) 
1.84

>  <cluster>  (18) 
1

$$$$

     RDKit          3D

 61 64  0  0  0  0  0  0  0  0999 V2000
  137.8040   79.0730  222.6280 C   0  0  0  0  0  0  0  0  0  0  0  0
  139.0300   78.3330  222.9860 C   0  0  2  0  0  0  0  0  0  0  0  0
  140.2200   79.2390  222.9810 C   0  0  0  0  0  0  0  0  0  0  0  0
  141.3860   78.8110  223.6330 C   0  0  0  0  0  0  0  0  0  0  0  0
  142.5310   79.5570  223.6580 C   0  0  0  0  0  0  0  0  0  0  0  0
  142.5800   80.7840  223.0280 C   0  0  0  0  0  0  0  0  0  0  0  0
  141.4550   81.2150  222.3900 C   0  0  0  0  0  0  0  0  0  0  0  0
  140.2860   80.4510  222.3650 C   0  0  0  0  0  0  0  0  0  0  0  0
  139.2270   77.0350  222.4590 N   0  0  0  0  0  0  0  0  0  0  0  0
  138.1160   76.0590  222.6910 C   0  0  0  0  0  0  0  0  0  0  0  0
  140.3140   76.5170  221.7460 C   0  0  0  0  0  0  0  0  0  0  0  0
  141.1060   75.6810  222.3520 O   0  0  0  0  0  0  0  0  0  0  0  0
  140.7230   76.7780  220.3450 C   0  0  2  0  0  0  0  0  0  0  0  0
  141.2740   78.1400  220.1270 C   0  0  0  0  0  0  0  0  0  0  0  0
  140.7190   78.5630  218.7790 C   0  0  0  0  0  0  0  0  0  0  0  0
  139.2630   78.0280  218.9020 C   0  0  0  0  0  0  0  0  0  0  0  0
  139.4680   76.7520  219.5540 N   0  0  0  0  0  0  0  0  0  0  0  0
  138.6730   75.5730  219.5310 C   0  0  0  0  0  0  0  0  0  0  0  0
  137.3780   75.7200  219.6060 O   0  0  0  0  0  0  0  0  0  0  0  0
  139.1000   74.1860  219.4380 C   0  0  0  0  0  0  0  0  0  0  0  0
  138.9930   73.3450  220.5660 N   0  0  0  0  0  0  0  0  0  0  0  0
  140.1240   72.9440  221.3680 C   0  0  0  0  0  0  0  0  0  0  0  0
  141.3010   73.3410  221.0700 O   0  0  0  0  0  0  0  0  0  0  0  0
  139.9150   72.0760  222.5300 C   0  0  0  0  0  0  0  0  0  0  0  0
  138.9710   71.0770  222.4570 C   0  0  0  0  0  0  0  0  0  0  0  0
  138.7420   70.2300  223.5400 C   0  0  0  0  0  0  0  0  0  0  0  0
  139.4900   70.4270  224.6810 C   0  0  0  0  0  0  0  0  0  0  0  0
  139.3510   69.6560  225.8060 C   0  0  0  0  0  0  0  0  0  0  0  0
  140.1040   69.8530  226.9550 C   0  0  0  0  0  0  0  0  0  0  0  0
  139.9000   68.8460  228.3780 Cl  0  0  0  0  0  0  0  0  0  0  0  0
  141.0350   70.8840  226.9430 C   0  0  0  0  0  0  0  0  0  0  0  0
  141.1900   71.6690  225.8260 C   0  0  0  0  0  0  0  0  0  0  0  0
  140.4290   71.4490  224.7000 C   0  0  0  0  0  0  0  0  0  0  0  0
  140.6340   72.2510  223.6500 N   0  0  0  0  0  0  0  0  0  0  0  0
  137.2841   79.3868  223.5452 H   0  0  0  0  0  0  0  0  0  0  0  0
  138.0712   79.9608  222.0360 H   0  0  0  0  0  0  0  0  0  0  0  0
  137.1430   78.4229  222.0360 H   0  0  0  0  0  0  0  0  0  0  0  0
  138.8548   78.0147  224.0243 H   0  0  0  0  0  0  0  0  0  0  0  0
  141.3785   77.8370  224.1441 H   0  0  0  0  0  0  0  0  0  0  0  0
  143.4193   79.1769  224.1837 H   0  0  0  0  0  0  0  0  0  0  0  0
  143.4957   81.3934  223.0403 H   0  0  0  0  0  0  0  0  0  0  0  0
  141.4682   82.1903  221.8814 H   0  0  0  0  0  0  0  0  0  0  0  0
  139.4012   80.8364  221.8371 H   0  0  0  0  0  0  0  0  0  0  0  0
  137.9646   75.9260  223.7724 H   0  0  0  0  0  0  0  0  0  0  0  0
  137.1907   76.4416  222.2355 H   0  0  0  0  0  0  0  0  0  0  0  0
  138.3762   75.0921  222.2355 H   0  0  0  0  0  0  0  0  0  0  0  0
  141.4907   76.0383  220.0740 H   0  0  0  0  0  0  0  0  0  0  0  0
  140.9385   78.8264  220.9184 H   0  0  0  0  0  0  0  0  0  0  0  0
  142.3737   78.1551  220.1501 H   0  0  0  0  0  0  0  0  0  0  0  0
  140.7425   79.6555  218.6532 H   0  0  0  0  0  0  0  0  0  0  0  0
  141.2780   78.1853  217.9102 H   0  0  0  0  0  0  0  0  0  0  0  0
  138.6418   78.6961  219.5166 H   0  0  0  0  0  0  0  0  0  0  0  0
  138.7332   77.9560  217.9407 H   0  0  0  0  0  0  0  0  0  0  0  0
  138.5060   73.7223  218.6367 H   0  0  0  0  0  0  0  0  0  0  0  0
  140.1855   74.2621  219.2770 H   0  0  0  0  0  0  0  0  0  0  0  0
  138.0600   72.9570  220.8920 H   0  0  0  0  0  0  0  0  0  0  0  0
  138.3899   70.9454  221.5323 H   0  0  0  0  0  0  0  0  0  0  0  0
  137.9887   69.4302  223.4859 H   0  0  0  0  0  0  0  0  0  0  0  0
  138.6088   68.8442  225.7976 H   0  0  0  0  0  0  0  0  0  0  0  0
  141.6522   71.0732  227.8336 H   0  0  0  0  0  0  0  0  0  0  0  0
  141.9305   72.4824  225.8315 H   0  0  0  0  0  0  0  0  0  0  0  0
  1  2  1  0
  2  3  1  0
  3  4  2  0
  4  5  1  0
  5  6  2  0
  6  7  1  0
  7  8  2  0
  2  9  1  0
  9 10  1  0
  9 11  1  0
 11 12  2  0
 11 13  1  0
 13 14  1  0
 14 15  1  0
 15 16  1  0
 16 17  1  0
 17 18  1  0
 18 19  2  0
 18 20  1  0
 20 21  1  0
 21 22  1  0
 22 23  2  0
 22 24  1  0
 24 25  2  0
 25 26  1  0
 26 27  2  0
 27 28  1  0
 28 29  2  0
 29 30  1  0
 29 31  1  0
 31 32  2  0
 32 33  1  0
 33 34  2  0
  8  3  1  0
 17 13  1  0
 34 24  1  0
 33 27  1  0
  1 35  1  0
  1 36  1  0
  1 37  1  0
  2 38  1  1
  4 39  1  0
  5 40  1  0
  6 41  1  0
  7 42  1  0
  8 43  1  0
 10 44  1  0
 10 45  1  0
 10 46  1  0
 13 47  1  6
 14 48  1  0
 14 49  1  0
 15 50  1  0
 15 51  1  0
 16 52  1  0
 16 53  1  0
 20 54  1  0
 20 55  1  0
 21 56  1  0
 25 57  1  0
 26 58  1  0
 28 59  1  0
 31 60  1  0
 32 61  1  0
M  END
>  <smiles>  (19) 
C[C@H](c1ccccc1)N(C)C(=O)[C@@H]1CCCN1C(=O)CNC(=O)c1ccc2cc(Cl)ccc2n1

>  <score_type>  (19) 
oracle

>  <origin>  (19) 
autodockgpu

>  <m_score__min__energy>  (19) 
-9.0800000000000001

>  <m_primary>  (19) 
energy

>  <rmsd>  (19) 
3.012137061950451

>  <m_score__min__rmsd>  (19) 
3.012137061950451

>  <meeko>  (19) 
{"free_energy": -7.73, "intermolecular_energy": -10.12, "internal_energy": -2.86, "cluster_size": 24, "cluster_id": 1, "rank_in_cluster": 22}

>  <energy>  (19) 
-8.17

>  <cluster_rmsd>  (19) 
1.4

>  <cluster>  (19) 
1

$$$$

     RDKit          3D

 61 64  0  0  0  0  0  0  0  0999 V2000
  137.9110   79.5910  223.4380 C   0  0  0  0  0  0  0  0  0  0  0  0
  138.9980   79.1780  222.5280 C   0  0  2  0  0  0  0  0  0  0  0  0
  140.3080   79.7440  222.9720 C   0  0  0  0  0  0  0  0  0  0  0  0
  140.6730   81.0180  222.5130 C   0  0  0  0  0  0  0  0  0  0  0  0
  141.8370   81.6300  222.8850 C   0  0  0  0  0  0  0  0  0  0  0  0
  142.7130   81.0000  223.7470 C   0  0  0  0  0  0  0  0  0  0  0  0
  142.3740   79.7610  224.2040 C   0  0  0  0  0  0  0  0  0  0  0  0
  141.1830   79.1390  223.8220 C   0  0  0  0  0  0  0  0  0  0  0  0
  138.7590   79.1670  221.1340 N   0  0  0  0  0  0  0  0  0  0  0  0
  137.4310   79.7020  220.6940 C   0  0  0  0  0  0  0  0  0  0  0  0
  139.5820   78.7280  220.0900 C   0  0  0  0  0  0  0  0  0  0  0  0
  139.0380   78.5100  218.9280 O   0  0  0  0  0  0  0  0  0  0  0  0
  141.0400   78.4640  220.0970 C   0  0  2  0  0  0  0  0  0  0  0  0
  141.7320   78.8910  218.8540 C   0  0  0  0  0  0  0  0  0  0  0  0
  142.7490   77.7960  218.5910 C   0  0  0  0  0  0  0  0  0  0  0  0
  141.8990   76.5410  218.9400 C   0  0  0  0  0  0  0  0  0  0  0  0
  141.1760   76.9870  220.1120 N   0  0  0  0  0  0  0  0  0  0  0  0
  140.6230   76.2380  221.1880 C   0  0  0  0  0  0  0  0  0  0  0  0
  141.0560   76.5050  222.3910 O   0  0  0  0  0  0  0  0  0  0  0  0
  139.6210   75.1850  221.1470 C   0  0  0  0  0  0  0  0  0  0  0  0
  139.6210   74.1830  222.1410 N   0  0  0  0  0  0  0  0  0  0  0  0
  140.1720   72.8650  221.9400 C   0  0  0  0  0  0  0  0  0  0  0  0
  140.6880   72.5430  220.8180 O   0  0  0  0  0  0  0  0  0  0  0  0
  140.1360   71.8910  223.0350 C   0  0  0  0  0  0  0  0  0  0  0  0
  139.6020   70.6430  222.8040 C   0  0  0  0  0  0  0  0  0  0  0  0
  139.5500   69.6900  223.8180 C   0  0  0  0  0  0  0  0  0  0  0  0
  140.0470   70.0380  225.0560 C   0  0  0  0  0  0  0  0  0  0  0  0
  140.0470   69.1810  226.1270 C   0  0  0  0  0  0  0  0  0  0  0  0
  140.5480   69.5310  227.3730 C   0  0  0  0  0  0  0  0  0  0  0  0
  140.5330   68.4090  228.7230 Cl  0  0  0  0  0  0  0  0  0  0  0  0
  141.0680   70.8100  227.5200 C   0  0  0  0  0  0  0  0  0  0  0  0
  141.0770   71.6840  226.4600 C   0  0  0  0  0  0  0  0  0  0  0  0
  140.5740   71.3090  225.2350 C   0  0  0  0  0  0  0  0  0  0  0  0
  140.6150   72.2100  224.2480 N   0  0  0  0  0  0  0  0  0  0  0  0
  138.2386   79.4666  224.4807 H   0  0  0  0  0  0  0  0  0  0  0  0
  137.6613   80.6467  223.2556 H   0  0  0  0  0  0  0  0  0  0  0  0
  137.0233   78.9675  223.2556 H   0  0  0  0  0  0  0  0  0  0  0  0
  139.0460   78.0858  222.6492 H   0  0  0  0  0  0  0  0  0  0  0  0
  139.9952   81.5458  221.8260 H   0  0  0  0  0  0  0  0  0  0  0  0
  142.0776   82.6302  222.4955 H   0  0  0  0  0  0  0  0  0  0  0  0
  143.6528   81.4817  224.0546 H   0  0  0  0  0  0  0  0  0  0  0  0
  143.0556   79.2380  224.8909 H   0  0  0  0  0  0  0  0  0  0  0  0
  140.9470   78.1395  224.2161 H   0  0  0  0  0  0  0  0  0  0  0  0
  136.8233   79.9468  221.5776 H   0  0  0  0  0  0  0  0  0  0  0  0
  137.5828   80.6091  220.0906 H   0  0  0  0  0  0  0  0  0  0  0  0
  136.9116   78.9430  220.0906 H   0  0  0  0  0  0  0  0  0  0  0  0
  141.4766   79.0068  220.9483 H   0  0  0  0  0  0  0  0  0  0  0  0
  141.0197   78.9689  218.0194 H   0  0  0  0  0  0  0  0  0  0  0  0
  142.1998   79.8815  218.9545 H   0  0  0  0  0  0  0  0  0  0  0  0
  143.0759   77.7874  217.5407 H   0  0  0  0  0  0  0  0  0  0  0  0
  143.6863   77.8909  219.1589 H   0  0  0  0  0  0  0  0  0  0  0  0
  141.2123   76.2823  218.1206 H   0  0  0  0  0  0  0  0  0  0  0  0
  142.4957   75.6317  219.1050 H   0  0  0  0  0  0  0  0  0  0  0  0
  138.6383   75.6774  221.1899 H   0  0  0  0  0  0  0  0  0  0  0  0
  139.8647   74.6340  220.2267 H   0  0  0  0  0  0  0  0  0  0  0  0
  139.2090   74.3490  223.1060 H   0  0  0  0  0  0  0  0  0  0  0  0
  139.2115   70.3957  221.8058 H   0  0  0  0  0  0  0  0  0  0  0  0
  139.1259   68.6913  223.6370 H   0  0  0  0  0  0  0  0  0  0  0  0
  139.6314   68.1715  225.9923 H   0  0  0  0  0  0  0  0  0  0  0  0
  141.4755   71.1256  228.4918 H   0  0  0  0  0  0  0  0  0  0  0  0
  141.4908   72.6946  226.5918 H   0  0  0  0  0  0  0  0  0  0  0  0
  1  2  1  0
  2  3  1  0
  3  4  2  0
  4  5  1  0
  5  6  2  0
  6  7  1  0
  7  8  2  0
  2  9  1  0
  9 10  1  0
  9 11  1  0
 11 12  2  0
 11 13  1  0
 13 14  1  0
 14 15  1  0
 15 16  1  0
 16 17  1  0
 17 18  1  0
 18 19  2  0
 18 20  1  0
 20 21  1  0
 21 22  1  0
 22 23  2  0
 22 24  1  0
 24 25  2  0
 25 26  1  0
 26 27  2  0
 27 28  1  0
 28 29  2  0
 29 30  1  0
 29 31  1  0
 31 32  2  0
 32 33  1  0
 33 34  2  0
  8  3  1  0
 17 13  1  0
 34 24  1  0
 33 27  1  0
  1 35  1  0
  1 36  1  0
  1 37  1  0
  2 38  1  1
  4 39  1  0
  5 40  1  0
  6 41  1  0
  7 42  1  0
  8 43  1  0
 10 44  1  0
 10 45  1  0
 10 46  1  0
 13 47  1  1
 14 48  1  0
 14 49  1  0
 15 50  1  0
 15 51  1  0
 16 52  1  0
 16 53  1  0
 20 54  1  0
 20 55  1  0
 21 56  1  0
 25 57  1  0
 26 58  1  0
 28 59  1  0
 31 60  1  0
 32 61  1  0
M  END
>  <smiles>  (20) 
C[C@H](c1ccccc1)N(C)C(=O)[C@@H]1CCCN1C(=O)CNC(=O)c1ccc2cc(Cl)ccc2n1

>  <score_type>  (20) 
oracle

>  <origin>  (20) 
autodockgpu

>  <m_score__min__energy>  (20) 
-9.0800000000000001

>  <m_primary>  (20) 
energy

>  <rmsd>  (20) 
2.984098594175006

>  <m_score__min__rmsd>  (20) 
2.984098594175006

>  <meeko>  (20) 
{"free_energy": -8.73, "intermolecular_energy": -11.12, "internal_energy": -2.49, "cluster_size": 24, "cluster_id": 1, "rank_in_cluster": 8}

>  <energy>  (20) 
-8.11

>  <cluster_rmsd>  (20) 
1.97

>  <cluster>  (20) 
1

$$$$

     RDKit          3D

 61 64  0  0  0  0  0  0  0  0999 V2000
  142.1660   79.7310  218.8590 C   0  0  0  0  0  0  0  0  0  0  0  0
  141.5400   78.7920  219.8110 C   0  0  2  0  0  0  0  0  0  0  0  0
  141.7640   79.2340  221.2220 C   0  0  0  0  0  0  0  0  0  0  0  0
  141.4450   78.3440  222.2570 C   0  0  0  0  0  0  0  0  0  0  0  0
  141.6400   78.6480  223.5760 C   0  0  0  0  0  0  0  0  0  0  0  0
  142.1700   79.8690  223.9400 C   0  0  0  0  0  0  0  0  0  0  0  0
  142.4860   80.7460  222.9460 C   0  0  0  0  0  0  0  0  0  0  0  0
  142.2870   80.4330  221.5990 C   0  0  0  0  0  0  0  0  0  0  0  0
  141.6380   77.4010  219.5660 N   0  0  0  0  0  0  0  0  0  0  0  0
  143.0040   76.8060  219.7090 C   0  0  0  0  0  0  0  0  0  0  0  0
  140.6410   76.4860  219.2070 C   0  0  0  0  0  0  0  0  0  0  0  0
  141.0080   75.3030  218.8080 O   0  0  0  0  0  0  0  0  0  0  0  0
  139.1690   76.6570  219.2120 C   0  0  2  0  0  0  0  0  0  0  0  0
  138.7140   77.9430  218.6230 C   0  0  0  0  0  0  0  0  0  0  0  0
  137.5650   78.3830  219.5120 C   0  0  0  0  0  0  0  0  0  0  0  0
  138.1430   78.0150  220.9090 C   0  0  0  0  0  0  0  0  0  0  0  0
  138.7850   76.7440  220.6420 N   0  0  0  0  0  0  0  0  0  0  0  0
  139.0690   75.6590  221.5170 C   0  0  0  0  0  0  0  0  0  0  0  0
  139.5430   75.9480  222.6980 O   0  0  0  0  0  0  0  0  0  0  0  0
  138.9100   74.2330  221.2820 C   0  0  0  0  0  0  0  0  0  0  0  0
  139.1920   73.3190  222.3210 N   0  0  0  0  0  0  0  0  0  0  0  0
  138.8920   71.9110  222.2420 C   0  0  0  0  0  0  0  0  0  0  0  0
  138.3360   71.4250  221.2010 O   0  0  0  0  0  0  0  0  0  0  0  0
  139.2300   71.0350  223.3680 C   0  0  0  0  0  0  0  0  0  0  0  0
  138.9160   69.6970  223.2930 C   0  0  0  0  0  0  0  0  0  0  0  0
  139.2210   68.8320  224.3410 C   0  0  0  0  0  0  0  0  0  0  0  0
  139.8420   69.3600  225.4530 C   0  0  0  0  0  0  0  0  0  0  0  0
  140.1880   68.6050  226.5440 C   0  0  0  0  0  0  0  0  0  0  0  0
  140.8140   69.1350  227.6620 C   0  0  0  0  0  0  0  0  0  0  0  0
  141.2440   68.1380  229.0420 Cl  0  0  0  0  0  0  0  0  0  0  0  0
  141.0940   70.4960  227.6560 C   0  0  0  0  0  0  0  0  0  0  0  0
  140.7560   71.2710  226.5740 C   0  0  0  0  0  0  0  0  0  0  0  0
  140.1360   70.7170  225.4770 C   0  0  0  0  0  0  0  0  0  0  0  0
  139.8350   71.5300  224.4590 N   0  0  0  0  0  0  0  0  0  0  0  0
  142.6924   80.5206  219.4153 H   0  0  0  0  0  0  0  0  0  0  0  0
  142.8833   79.1878  218.2262 H   0  0  0  0  0  0  0  0  0  0  0  0
  141.3887   80.1842  218.2262 H   0  0  0  0  0  0  0  0  0  0  0  0
  140.4637   78.8773  219.6007 H   0  0  0  0  0  0  0  0  0  0  0  0
  141.0212   77.3625  221.9980 H   0  0  0  0  0  0  0  0  0  0  0  0
  141.3728   77.9149  224.3514 H   0  0  0  0  0  0  0  0  0  0  0  0
  142.3320   80.1258  224.9973 H   0  0  0  0  0  0  0  0  0  0  0  0
  142.9089   81.7262  223.2112 H   0  0  0  0  0  0  0  0  0  0  0  0
  142.5581   81.1695  220.8283 H   0  0  0  0  0  0  0  0  0  0  0  0
  143.2478   76.6998  220.7764 H   0  0  0  0  0  0  0  0  0  0  0  0
  143.0254   75.8170  219.2279 H   0  0  0  0  0  0  0  0  0  0  0  0
  143.7427   77.4639  219.2279 H   0  0  0  0  0  0  0  0  0  0  0  0
  138.7309   75.8295  218.6346 H   0  0  0  0  0  0  0  0  0  0  0  0
  139.5247   78.6864  218.6390 H   0  0  0  0  0  0  0  0  0  0  0  0
  138.4118   77.8373  217.5706 H   0  0  0  0  0  0  0  0  0  0  0  0
  137.3706   79.4620  219.4227 H   0  0  0  0  0  0  0  0  0  0  0  0
  136.5954   77.9199  219.2767 H   0  0  0  0  0  0  0  0  0  0  0  0
  138.8699   78.7661  221.2516 H   0  0  0  0  0  0  0  0  0  0  0  0
  137.3858   77.9715  221.7057 H   0  0  0  0  0  0  0  0  0  0  0  0
  137.8615   74.0722  220.9909 H   0  0  0  0  0  0  0  0  0  0  0  0
  139.6784   74.0095  220.5273 H   0  0  0  0  0  0  0  0  0  0  0  0
  139.6470   73.6260  223.2300 H   0  0  0  0  0  0  0  0  0  0  0  0
  138.4177   69.3059  222.3937 H   0  0  0  0  0  0  0  0  0  0  0  0
  138.9743   67.7616  224.2834 H   0  0  0  0  0  0  0  0  0  0  0  0
  139.9584   67.5293  226.5318 H   0  0  0  0  0  0  0  0  0  0  0  0
  141.5897   70.9556  228.5238 H   0  0  0  0  0  0  0  0  0  0  0  0
  140.9834   72.3472  226.5840 H   0  0  0  0  0  0  0  0  0  0  0  0
  1  2  1  0
  2  3  1  0
  3  4  2  0
  4  5  1  0
  5  6  2  0
  6  7  1  0
  7  8  2  0
  2  9  1  0
  9 10  1  0
  9 11  1  0
 11 12  2  0
 11 13  1  0
 13 14  1  0
 14 15  1  0
 15 16  1  0
 16 17  1  0
 17 18  1  0
 18 19  2  0
 18 20  1  0
 20 21  1  0
 21 22  1  0
 22 23  2  0
 22 24  1  0
 24 25  2  0
 25 26  1  0
 26 27  2  0
 27 28  1  0
 28 29  2  0
 29 30  1  0
 29 31  1  0
 31 32  2  0
 32 33  1  0
 33 34  2  0
  8  3  1  0
 17 13  1  0
 34 24  1  0
 33 27  1  0
  1 35  1  0
  1 36  1  0
  1 37  1  0
  2 38  1  6
  4 39  1  0
  5 40  1  0
  6 41  1  0
  7 42  1  0
  8 43  1  0
 10 44  1  0
 10 45  1  0
 10 46  1  0
 13 47  1  6
 14 48  1  0
 14 49  1  0
 15 50  1  0
 15 51  1  0
 16 52  1  0
 16 53  1  0
 20 54  1  0
 20 55  1  0
 21 56  1  0
 25 57  1  0
 26 58  1  0
 28 59  1  0
 31 60  1  0
 32 61  1  0
M  END
>  <smiles>  (21) 
C[C@H](c1ccccc1)N(C)C(=O)[C@@H]1CCCN1C(=O)CNC(=O)c1ccc2cc(Cl)ccc2n1

>  <score_type>  (21) 
oracle

>  <origin>  (21) 
autodockgpu

>  <m_score__min__energy>  (21) 
-9.0800000000000001

>  <m_primary>  (21) 
energy

>  <rmsd>  (21) 
2.890242408951349

>  <m_score__min__rmsd>  (21) 
2.890242408951349

>  <meeko>  (21) 
{"free_energy": -8.17, "intermolecular_energy": -10.55, "internal_energy": -3.01, "cluster_size": 24, "cluster_id": 1, "rank_in_cluster": 19}

>  <energy>  (21) 
-7.75

>  <cluster_rmsd>  (21) 
1.54

>  <cluster>  (21) 
1

$$$$

     RDKit          3D

 61 64  0  0  0  0  0  0  0  0999 V2000
  141.4460   81.6470  219.6370 C   0  0  0  0  0  0  0  0  0  0  0  0
  141.2270   80.2250  219.9690 C   0  0  2  0  0  0  0  0  0  0  0  0
  141.3630   79.9930  221.4400 C   0  0  0  0  0  0  0  0  0  0  0  0
  140.1990   79.9890  222.2230 C   0  0  0  0  0  0  0  0  0  0  0  0
  140.2200   79.7580  223.5700 C   0  0  0  0  0  0  0  0  0  0  0  0
  141.4130   79.5170  224.2200 C   0  0  0  0  0  0  0  0  0  0  0  0
  142.5540   79.5180  223.4730 C   0  0  0  0  0  0  0  0  0  0  0  0
  142.5300   79.7530  222.0960 C   0  0  0  0  0  0  0  0  0  0  0  0
  141.7750   79.2310  219.1240 N   0  0  0  0  0  0  0  0  0  0  0  0
  142.5230   79.7310  217.9260 C   0  0  0  0  0  0  0  0  0  0  0  0
  141.7250   77.8370  219.2360 C   0  0  0  0  0  0  0  0  0  0  0  0
  140.8270   77.1960  218.5460 O   0  0  0  0  0  0  0  0  0  0  0  0
  142.5730   76.9340  220.0490 C   0  0  2  0  0  0  0  0  0  0  0  0
  143.7000   76.3290  219.2930 C   0  0  0  0  0  0  0  0  0  0  0  0
  143.7780   74.9020  219.8050 C   0  0  0  0  0  0  0  0  0  0  0  0
  142.2640   74.5560  219.8850 C   0  0  0  0  0  0  0  0  0  0  0  0
  141.7030   75.7850  220.4040 N   0  0  0  0  0  0  0  0  0  0  0  0
  140.5130   76.0060  221.1520 C   0  0  0  0  0  0  0  0  0  0  0  0
  140.3820   77.1620  221.7440 O   0  0  0  0  0  0  0  0  0  0  0  0
  139.3900   75.1070  221.3660 C   0  0  0  0  0  0  0  0  0  0  0  0
  139.4880   74.0870  222.3360 N   0  0  0  0  0  0  0  0  0  0  0  0
  139.7720   72.7100  222.0130 C   0  0  0  0  0  0  0  0  0  0  0  0
  139.9420   72.3510  220.8000 O   0  0  0  0  0  0  0  0  0  0  0  0
  139.8650   71.7190  223.0900 C   0  0  0  0  0  0  0  0  0  0  0  0
  139.4600   70.4260  222.8460 C   0  0  0  0  0  0  0  0  0  0  0  0
  139.5320   69.4550  223.8420 C   0  0  0  0  0  0  0  0  0  0  0  0
  140.0190   69.8320  225.0760 C   0  0  0  0  0  0  0  0  0  0  0  0
  140.1350   68.9630  226.1300 C   0  0  0  0  0  0  0  0  0  0  0  0
  140.6260   69.3410  227.3700 C   0  0  0  0  0  0  0  0  0  0  0  0
  140.7610   68.2010  228.6990 Cl  0  0  0  0  0  0  0  0  0  0  0  0
  141.0120   70.6660  227.5320 C   0  0  0  0  0  0  0  0  0  0  0  0
  140.9040   71.5540  226.4890 C   0  0  0  0  0  0  0  0  0  0  0  0
  140.4140   71.1490  225.2680 C   0  0  0  0  0  0  0  0  0  0  0  0
  140.3370   72.0660  224.2980 N   0  0  0  0  0  0  0  0  0  0  0  0
  141.5359   82.2306  220.5651 H   0  0  0  0  0  0  0  0  0  0  0  0
  142.3703   81.7482  219.0493 H   0  0  0  0  0  0  0  0  0  0  0  0
  140.5950   82.0216  219.0493 H   0  0  0  0  0  0  0  0  0  0  0  0
  140.1758   80.0481  219.6977 H   0  0  0  0  0  0  0  0  0  0  0  0
  139.2321   80.1791  221.7341 H   0  0  0  0  0  0  0  0  0  0  0  0
  139.2792   79.7643  224.1399 H   0  0  0  0  0  0  0  0  0  0  0  0
  141.4427   79.3304  225.3037 H   0  0  0  0  0  0  0  0  0  0  0  0
  143.5182   79.3289  223.9675 H   0  0  0  0  0  0  0  0  0  0  0  0
  143.4738   79.7437  221.5311 H   0  0  0  0  0  0  0  0  0  0  0  0
  143.3955   80.3142  218.2556 H   0  0  0  0  0  0  0  0  0  0  0  0
  142.8605   78.8763  217.3214 H   0  0  0  0  0  0  0  0  0  0  0  0
  141.8622   80.3696  217.3214 H   0  0  0  0  0  0  0  0  0  0  0  0
  142.9821   77.5189  220.8860 H   0  0  0  0  0  0  0  0  0  0  0  0
  143.4956   76.3438  218.2122 H   0  0  0  0  0  0  0  0  0  0  0  0
  144.6426   76.8773  219.4370 H   0  0  0  0  0  0  0  0  0  0  0  0
  144.3096   74.2449  219.1009 H   0  0  0  0  0  0  0  0  0  0  0  0
  144.3301   74.7796  220.7485 H   0  0  0  0  0  0  0  0  0  0  0  0
  141.8552   74.3178  218.8920 H   0  0  0  0  0  0  0  0  0  0  0  0
  142.0425   73.6719  220.5008 H   0  0  0  0  0  0  0  0  0  0  0  0
  138.5293   75.7322  221.6459 H   0  0  0  0  0  0  0  0  0  0  0  0
  139.3194   74.5539  220.4178 H   0  0  0  0  0  0  0  0  0  0  0  0
  139.3560   74.2810  223.3720 H   0  0  0  0  0  0  0  0  0  0  0  0
  139.0746   70.1563  221.8517 H   0  0  0  0  0  0  0  0  0  0  0  0
  139.2107   68.4206  223.6505 H   0  0  0  0  0  0  0  0  0  0  0  0
  139.8242   67.9178  225.9851 H   0  0  0  0  0  0  0  0  0  0  0  0
  141.4063   71.0060  228.5010 H   0  0  0  0  0  0  0  0  0  0  0  0
  141.2126   72.6002  226.6313 H   0  0  0  0  0  0  0  0  0  0  0  0
  1  2  1  0
  2  3  1  0
  3  4  2  0
  4  5  1  0
  5  6  2  0
  6  7  1  0
  7  8  2  0
  2  9  1  0
  9 10  1  0
  9 11  1  0
 11 12  2  0
 11 13  1  0
 13 14  1  0
 14 15  1  0
 15 16  1  0
 16 17  1  0
 17 18  1  0
 18 19  2  0
 18 20  1  0
 20 21  1  0
 21 22  1  0
 22 23  2  0
 22 24  1  0
 24 25  2  0
 25 26  1  0
 26 27  2  0
 27 28  1  0
 28 29  2  0
 29 30  1  0
 29 31  1  0
 31 32  2  0
 32 33  1  0
 33 34  2  0
  8  3  1  0
 17 13  1  0
 34 24  1  0
 33 27  1  0
  1 35  1  0
  1 36  1  0
  1 37  1  0
  2 38  1  1
  4 39  1  0
  5 40  1  0
  6 41  1  0
  7 42  1  0
  8 43  1  0
 10 44  1  0
 10 45  1  0
 10 46  1  0
 13 47  1  1
 14 48  1  0
 14 49  1  0
 15 50  1  0
 15 51  1  0
 16 52  1  0
 16 53  1  0
 20 54  1  0
 20 55  1  0
 21 56  1  0
 25 57  1  0
 26 58  1  0
 28 59  1  0
 31 60  1  0
 32 61  1  0
M  END
>  <smiles>  (22) 
C[C@H](c1ccccc1)N(C)C(=O)[C@@H]1CCCN1C(=O)CNC(=O)c1ccc2cc(Cl)ccc2n1

>  <score_type>  (22) 
oracle

>  <origin>  (22) 
autodockgpu

>  <m_score__min__energy>  (22) 
-9.0800000000000001

>  <m_primary>  (22) 
energy

>  <rmsd>  (22) 
2.857761092625773

>  <m_score__min__rmsd>  (22) 
2.857761092625773

>  <meeko>  (22) 
{"free_energy": -8.95, "intermolecular_energy": -11.34, "internal_energy": -2.52, "cluster_size": 24, "cluster_id": 1, "rank_in_cluster": 2}

>  <energy>  (22) 
-7.73

>  <cluster_rmsd>  (22) 
1.83

>  <cluster>  (22) 
1

$$$$

     RDKit          3D

 61 64  0  0  0  0  0  0  0  0999 V2000
  142.1070   78.6230  219.3030 C   0  0  0  0  0  0  0  0  0  0  0  0
  141.2900   78.2040  220.4590 C   0  0  2  0  0  0  0  0  0  0  0  0
  141.6050   79.0330  221.6630 C   0  0  0  0  0  0  0  0  0  0  0  0
  141.8080   80.4100  221.4880 C   0  0  0  0  0  0  0  0  0  0  0  0
  142.0720   81.2530  222.5310 C   0  0  0  0  0  0  0  0  0  0  0  0
  142.1510   80.7660  223.8200 C   0  0  0  0  0  0  0  0  0  0  0  0
  141.9570   79.4300  224.0080 C   0  0  0  0  0  0  0  0  0  0  0  0
  141.6850   78.5700  222.9400 C   0  0  0  0  0  0  0  0  0  0  0  0
  141.0800   76.8230  220.6850 N   0  0  0  0  0  0  0  0  0  0  0  0
  142.1590   75.9080  220.1940 C   0  0  0  0  0  0  0  0  0  0  0  0
  140.0060   76.1730  221.3030 C   0  0  0  0  0  0  0  0  0  0  0  0
  140.2580   75.1280  222.0370 O   0  0  0  0  0  0  0  0  0  0  0  0
  138.5620   76.5030  221.2570 C   0  0  2  0  0  0  0  0  0  0  0  0
  138.0650   77.1900  222.4760 C   0  0  0  0  0  0  0  0  0  0  0  0
  136.6930   76.5890  222.7200 C   0  0  0  0  0  0  0  0  0  0  0  0
  136.9900   75.0940  222.4070 C   0  0  0  0  0  0  0  0  0  0  0  0
  137.8560   75.1970  221.2510 N   0  0  0  0  0  0  0  0  0  0  0  0
  138.0940   74.2710  220.1980 C   0  0  0  0  0  0  0  0  0  0  0  0
  137.6200   74.5680  219.0190 O   0  0  0  0  0  0  0  0  0  0  0  0
  138.8040   73.0020  220.2410 C   0  0  0  0  0  0  0  0  0  0  0  0
  139.3290   72.5380  221.4660 N   0  0  0  0  0  0  0  0  0  0  0  0
  138.7340   71.4690  222.2300 C   0  0  0  0  0  0  0  0  0  0  0  0
  137.6740   70.8900  221.8170 O   0  0  0  0  0  0  0  0  0  0  0  0
  139.3560   71.0470  223.4890 C   0  0  0  0  0  0  0  0  0  0  0  0
  140.2700   71.8790  224.0960 C   0  0  0  0  0  0  0  0  0  0  0  0
  140.8830   71.5150  225.2920 C   0  0  0  0  0  0  0  0  0  0  0  0
  140.5460   70.2970  225.8450 C   0  0  0  0  0  0  0  0  0  0  0  0
  141.0860   69.8350  227.0170 C   0  0  0  0  0  0  0  0  0  0  0  0
  140.7470   68.6110  227.5740 C   0  0  0  0  0  0  0  0  0  0  0  0
  141.4570   68.0500  229.0780 Cl  0  0  0  0  0  0  0  0  0  0  0  0
  139.8170   67.8320  226.8960 C   0  0  0  0  0  0  0  0  0  0  0  0
  139.2640   68.2760  225.7190 C   0  0  0  0  0  0  0  0  0  0  0  0
  139.6190   69.4970  225.1910 C   0  0  0  0  0  0  0  0  0  0  0  0
  139.0410   69.8650  224.0430 N   0  0  0  0  0  0  0  0  0  0  0  0
  143.0325   79.0977  219.6609 H   0  0  0  0  0  0  0  0  0  0  0  0
  142.3585   77.7426  218.6934 H   0  0  0  0  0  0  0  0  0  0  0  0
  141.5388   79.3409  218.6934 H   0  0  0  0  0  0  0  0  0  0  0  0
  140.2585   78.4348  220.1544 H   0  0  0  0  0  0  0  0  0  0  0  0
  141.7525   80.8276  220.4719 H   0  0  0  0  0  0  0  0  0  0  0  0
  142.2224   82.3261  222.3419 H   0  0  0  0  0  0  0  0  0  0  0  0
  142.3635   81.4340  224.6677 H   0  0  0  0  0  0  0  0  0  0  0  0
  142.0160   79.0180  225.0262 H   0  0  0  0  0  0  0  0  0  0  0  0
  141.5327   77.4983  223.1357 H   0  0  0  0  0  0  0  0  0  0  0  0
  142.6825   75.4640  221.0535 H   0  0  0  0  0  0  0  0  0  0  0  0
  141.7126   75.1089  219.5839 H   0  0  0  0  0  0  0  0  0  0  0  0
  142.8744   76.4789  219.5839 H   0  0  0  0  0  0  0  0  0  0  0  0
  138.3940   77.1577  220.3892 H   0  0  0  0  0  0  0  0  0  0  0  0
  138.7312   76.9969  223.3297 H   0  0  0  0  0  0  0  0  0  0  0  0
  138.0267   78.2825  222.3535 H   0  0  0  0  0  0  0  0  0  0  0  0
  136.3651   76.7304  223.7604 H   0  0  0  0  0  0  0  0  0  0  0  0
  135.8813   77.0333  222.1252 H   0  0  0  0  0  0  0  0  0  0  0  0
  137.5019   74.6033  223.2479 H   0  0  0  0  0  0  0  0  0  0  0  0
  136.0881   74.4885  222.2341 H   0  0  0  0  0  0  0  0  0  0  0  0
  138.1051   72.2326  219.8811 H   0  0  0  0  0  0  0  0  0  0  0  0
  139.7003   73.1880  219.6311 H   0  0  0  0  0  0  0  0  0  0  0  0
  140.2040   72.9580  221.8980 H   0  0  0  0  0  0  0  0  0  0  0  0
  140.5191   72.8438  223.6300 H   0  0  0  0  0  0  0  0  0  0  0  0
  141.6127   72.1776  225.7803 H   0  0  0  0  0  0  0  0  0  0  0  0
  141.8219   70.4638  227.5397 H   0  0  0  0  0  0  0  0  0  0  0  0
  139.5218   66.8541  227.3040 H   0  0  0  0  0  0  0  0  0  0  0  0
  138.5294   67.6488  225.1927 H   0  0  0  0  0  0  0  0  0  0  0  0
  1  2  1  0
  2  3  1  0
  3  4  2  0
  4  5  1  0
  5  6  2  0
  6  7  1  0
  7  8  2  0
  2  9  1  0
  9 10  1  0
  9 11  1  0
 11 12  2  0
 11 13  1  0
 13 14  1  0
 14 15  1  0
 15 16  1  0
 16 17  1  0
 17 18  1  0
 18 19  2  0
 18 20  1  0
 20 21  1  0
 21 22  1  0
 22 23  2  0
 22 24  1  0
 24 25  2  0
 25 26  1  0
 26 27  2  0
 27 28  1  0
 28 29  2  0
 29 30  1  0
 29 31  1  0
 31 32  2  0
 32 33  1  0
 33 34  2  0
  8  3  1  0
 17 13  1  0
 34 24  1  0
 33 27  1  0
  1 35  1  0
  1 36  1  0
  1 37  1  0
  2 38  1  6
  4 39  1  0
  5 40  1  0
  6 41  1  0
  7 42  1  0
  8 43  1  0
 10 44  1  0
 10 45  1  0
 10 46  1  0
 13 47  1  6
 14 48  1  0
 14 49  1  0
 15 50  1  0
 15 51  1  0
 16 52  1  0
 16 53  1  0
 20 54  1  0
 20 55  1  0
 21 56  1  0
 25 57  1  0
 26 58  1  0
 28 59  1  0
 31 60  1  0
 32 61  1  0
M  END
>  <smiles>  (23) 
C[C@H](c1ccccc1)N(C)C(=O)[C@@H]1CCCN1C(=O)CNC(=O)c1ccc2cc(Cl)ccc2n1

>  <score_type>  (23) 
oracle

>  <origin>  (23) 
autodockgpu

>  <m_score__min__energy>  (23) 
-9.0800000000000001

>  <m_primary>  (23) 
energy

>  <rmsd>  (23) 
3.8248394375993495

>  <m_score__min__rmsd>  (23) 
3.8248394375993495

>  <meeko>  (23) 
{"free_energy": -8.48, "intermolecular_energy": -10.86, "internal_energy": -2.82, "cluster_size": 24, "cluster_id": 1, "rank_in_cluster": 13}

>  <energy>  (23) 
-7.52

>  <cluster_rmsd>  (23) 
1.63

>  <cluster>  (23) 
1

$$$$

     RDKit          3D

 61 64  0  0  0  0  0  0  0  0999 V2000
  141.9020   79.0820  219.2950 C   0  0  0  0  0  0  0  0  0  0  0  0
  141.1320   78.7310  220.5040 C   0  0  2  0  0  0  0  0  0  0  0  0
  141.5690   79.5550  221.6720 C   0  0  0  0  0  0  0  0  0  0  0  0
  141.2800   80.9280  221.6650 C   0  0  0  0  0  0  0  0  0  0  0  0
  141.6140   81.7560  222.6990 C   0  0  0  0  0  0  0  0  0  0  0  0
  142.2620   81.2590  223.8110 C   0  0  0  0  0  0  0  0  0  0  0  0
  142.5500   79.9270  223.8360 C   0  0  0  0  0  0  0  0  0  0  0  0
  142.2070   79.0820  222.7770 C   0  0  0  0  0  0  0  0  0  0  0  0
  140.8500   77.3700  220.7660 N   0  0  0  0  0  0  0  0  0  0  0  0
  141.6810   76.3730  220.0190 C   0  0  0  0  0  0  0  0  0  0  0  0
  139.9010   76.8040  221.6270 C   0  0  0  0  0  0  0  0  0  0  0  0
  140.3280   76.1510  222.6680 O   0  0  0  0  0  0  0  0  0  0  0  0
  138.4220   76.8350  221.5380 C   0  0  2  0  0  0  0  0  0  0  0  0
  137.7510   77.1130  222.8330 C   0  0  0  0  0  0  0  0  0  0  0  0
  136.5340   76.2050  222.8320 C   0  0  0  0  0  0  0  0  0  0  0  0
  137.1560   74.9130  222.2290 C   0  0  0  0  0  0  0  0  0  0  0  0
  138.0160   75.4490  221.1960 N   0  0  0  0  0  0  0  0  0  0  0  0
  138.4820   74.8540  219.9900 C   0  0  0  0  0  0  0  0  0  0  0  0
  138.4690   75.5910  218.9130 O   0  0  0  0  0  0  0  0  0  0  0  0
  138.9800   73.5060  219.7720 C   0  0  0  0  0  0  0  0  0  0  0  0
  139.0760   72.6120  220.8600 N   0  0  0  0  0  0  0  0  0  0  0  0
  139.9990   72.7900  221.9540 C   0  0  0  0  0  0  0  0  0  0  0  0
  140.7930   73.7890  221.9750 O   0  0  0  0  0  0  0  0  0  0  0  0
  140.0210   71.8150  223.0480 C   0  0  0  0  0  0  0  0  0  0  0  0
  139.5300   70.5480  222.8240 C   0  0  0  0  0  0  0  0  0  0  0  0
  139.5330   69.5920  223.8370 C   0  0  0  0  0  0  0  0  0  0  0  0
  140.0400   69.9560  225.0670 C   0  0  0  0  0  0  0  0  0  0  0  0
  140.0930   69.1000  226.1360 C   0  0  0  0  0  0  0  0  0  0  0  0
  140.6040   69.4660  227.3720 C   0  0  0  0  0  0  0  0  0  0  0  0
  140.6570   68.3420  228.7200 Cl  0  0  0  0  0  0  0  0  0  0  0  0
  141.0780   70.7640  227.5120 C   0  0  0  0  0  0  0  0  0  0  0  0
  141.0350   71.6380  226.4540 C   0  0  0  0  0  0  0  0  0  0  0  0
  140.5220   71.2470  225.2380 C   0  0  0  0  0  0  0  0  0  0  0  0
  140.5110   72.1500  224.2520 N   0  0  0  0  0  0  0  0  0  0  0  0
  142.8664   79.5216  219.5893 H   0  0  0  0  0  0  0  0  0  0  0  0
  142.0793   78.1758  218.6973 H   0  0  0  0  0  0  0  0  0  0  0  0
  141.3342   79.8102  218.6973 H   0  0  0  0  0  0  0  0  0  0  0  0
  140.1003   79.0216  220.2566 H   0  0  0  0  0  0  0  0  0  0  0  0
  140.7640   81.3547  220.7922 H   0  0  0  0  0  0  0  0  0  0  0  0
  141.3646   82.8260  222.6446 H   0  0  0  0  0  0  0  0  0  0  0  0
  142.5370   81.9158  224.6494 H   0  0  0  0  0  0  0  0  0  0  0  0
  143.0655   79.5064  224.7120 H   0  0  0  0  0  0  0  0  0  0  0  0
  142.4579   78.0127  222.8379 H   0  0  0  0  0  0  0  0  0  0  0  0
  142.2157   75.7315  220.7349 H   0  0  0  0  0  0  0  0  0  0  0  0
  141.0289   75.7525  219.3867 H   0  0  0  0  0  0  0  0  0  0  0  0
  142.4088   76.9026  219.3867 H   0  0  0  0  0  0  0  0  0  0  0  0
  138.1432   77.6203  220.8199 H   0  0  0  0  0  0  0  0  0  0  0  0
  138.4159   76.8714  223.6754 H   0  0  0  0  0  0  0  0  0  0  0  0
  137.4820   78.1736  222.9460 H   0  0  0  0  0  0  0  0  0  0  0  0
  136.1505   76.0364  223.8491 H   0  0  0  0  0  0  0  0  0  0  0  0
  135.6650   76.5982  222.2841 H   0  0  0  0  0  0  0  0  0  0  0  0
  137.7340   74.3580  222.9826 H   0  0  0  0  0  0  0  0  0  0  0  0
  136.4117   74.1930  221.8580 H   0  0  0  0  0  0  0  0  0  0  0  0
  138.3163   73.0366  219.0309 H   0  0  0  0  0  0  0  0  0  0  0  0
  140.0278   73.6644  219.4771 H   0  0  0  0  0  0  0  0  0  0  0  0
  138.4640   71.7480  220.9330 H   0  0  0  0  0  0  0  0  0  0  0  0
  139.1305   70.2877  221.8327 H   0  0  0  0  0  0  0  0  0  0  0  0
  139.1432   68.5784  223.6616 H   0  0  0  0  0  0  0  0  0  0  0  0
  139.7128   68.0758  226.0076 H   0  0  0  0  0  0  0  0  0  0  0  0
  141.4906   71.0939  228.4768 H   0  0  0  0  0  0  0  0  0  0  0  0
  141.4149   72.6626  226.5796 H   0  0  0  0  0  0  0  0  0  0  0  0
  1  2  1  0
  2  3  1  0
  3  4  2  0
  4  5  1  0
  5  6  2  0
  6  7  1  0
  7  8  2  0
  2  9  1  0
  9 10  1  0
  9 11  1  0
 11 12  2  0
 11 13  1  0
 13 14  1  0
 14 15  1  0
 15 16  1  0
 16 17  1  0
 17 18  1  0
 18 19  2  0
 18 20  1  0
 20 21  1  0
 21 22  1  0
 22 23  2  0
 22 24  1  0
 24 25  2  0
 25 26  1  0
 26 27  2  0
 27 28  1  0
 28 29  2  0
 29 30  1  0
 29 31  1  0
 31 32  2  0
 32 33  1  0
 33 34  2  0
  8  3  1  0
 17 13  1  0
 34 24  1  0
 33 27  1  0
  1 35  1  0
  1 36  1  0
  1 37  1  0
  2 38  1  6
  4 39  1  0
  5 40  1  0
  6 41  1  0
  7 42  1  0
  8 43  1  0
 10 44  1  0
 10 45  1  0
 10 46  1  0
 13 47  1  6
 14 48  1  0
 14 49  1  0
 15 50  1  0
 15 51  1  0
 16 52  1  0
 16 53  1  0
 20 54  1  0
 20 55  1  0
 21 56  1  0
 25 57  1  0
 26 58  1  0
 28 59  1  0
 31 60  1  0
 32 61  1  0
M  END
>  <smiles>  (24) 
C[C@H](c1ccccc1)N(C)C(=O)[C@@H]1CCCN1C(=O)CNC(=O)c1ccc2cc(Cl)ccc2n1

>  <score_type>  (24) 
oracle

>  <origin>  (24) 
autodockgpu

>  <m_score__min__energy>  (24) 
-9.0800000000000001

>  <m_primary>  (24) 
energy

>  <rmsd>  (24) 
3.414586244284484

>  <m_score__min__rmsd>  (24) 
3.414586244284484

>  <meeko>  (24) 
{"free_energy": -8.82, "intermolecular_energy": -11.21, "internal_energy": -2.39, "cluster_size": 24, "cluster_id": 1, "rank_in_cluster": 5}

>  <energy>  (24) 
-7.22

>  <cluster_rmsd>  (24) 
1.7

>  <cluster>  (24) 
1

$$$$

     RDKit          3D

 61 64  0  0  0  0  0  0  0  0999 V2000
  141.2820   76.6370  219.0910 C   0  0  0  0  0  0  0  0  0  0  0  0
  141.7090   76.3830  220.4810 C   0  0  2  0  0  0  0  0  0  0  0  0
  142.3070   75.0190  220.6140 C   0  0  0  0  0  0  0  0  0  0  0  0
  141.4520   73.9390  220.8800 C   0  0  0  0  0  0  0  0  0  0  0  0
  141.9020   72.6540  220.9910 C   0  0  0  0  0  0  0  0  0  0  0  0
  143.2440   72.3670  220.8420 C   0  0  0  0  0  0  0  0  0  0  0  0
  144.0890   73.4050  220.5820 C   0  0  0  0  0  0  0  0  0  0  0  0
  143.6260   74.7180  220.4690 C   0  0  0  0  0  0  0  0  0  0  0  0
  140.8760   76.8090  221.5420 N   0  0  0  0  0  0  0  0  0  0  0  0
  141.4060   77.9340  222.3770 C   0  0  0  0  0  0  0  0  0  0  0  0
  139.6190   76.3360  221.9380 C   0  0  0  0  0  0  0  0  0  0  0  0
  139.5690   75.2650  222.6740 O   0  0  0  0  0  0  0  0  0  0  0  0
  138.2770   76.8880  221.6400 C   0  0  2  0  0  0  0  0  0  0  0  0
  137.7090   77.7070  222.7410 C   0  0  0  0  0  0  0  0  0  0  0  0
  136.2350   77.3440  222.7630 C   0  0  0  0  0  0  0  0  0  0  0  0
  136.3280   75.8070  222.5390 C   0  0  0  0  0  0  0  0  0  0  0  0
  137.3760   75.7130  221.5450 N   0  0  0  0  0  0  0  0  0  0  0  0
  137.6270   74.7090  220.5690 C   0  0  0  0  0  0  0  0  0  0  0  0
  137.7010   75.0890  219.3220 O   0  0  0  0  0  0  0  0  0  0  0  0
  137.8120   73.2790  220.7580 C   0  0  0  0  0  0  0  0  0  0  0  0
  138.3770   72.8020  221.9600 N   0  0  0  0  0  0  0  0  0  0  0  0
  138.8750   71.4580  222.1240 C   0  0  0  0  0  0  0  0  0  0  0  0
  138.8130   70.6220  221.1610 O   0  0  0  0  0  0  0  0  0  0  0  0
  139.4540   71.0530  223.4090 C   0  0  0  0  0  0  0  0  0  0  0  0
  140.3310   71.9030  224.0440 C   0  0  0  0  0  0  0  0  0  0  0  0
  140.9030   71.5560  225.2660 C   0  0  0  0  0  0  0  0  0  0  0  0
  140.5640   70.3370  225.8140 C   0  0  0  0  0  0  0  0  0  0  0  0
  141.0650   69.8910  227.0090 C   0  0  0  0  0  0  0  0  0  0  0  0
  140.7240   68.6650  227.5610 C   0  0  0  0  0  0  0  0  0  0  0  0
  141.3840   68.1250  229.0950 Cl  0  0  0  0  0  0  0  0  0  0  0  0
  139.8320   67.8680  226.8540 C   0  0  0  0  0  0  0  0  0  0  0  0
  139.3180   68.2960  225.6530 C   0  0  0  0  0  0  0  0  0  0  0  0
  139.6750   69.5190  225.1300 C   0  0  0  0  0  0  0  0  0  0  0  0
  139.1360   69.8710  223.9580 N   0  0  0  0  0  0  0  0  0  0  0  0
  140.3366   77.1994  219.0948 H   0  0  0  0  0  0  0  0  0  0  0  0
  142.0547   77.2224  218.5712 H   0  0  0  0  0  0  0  0  0  0  0  0
  141.1364   75.6786  218.5712 H   0  0  0  0  0  0  0  0  0  0  0  0
  142.5094   77.1178  220.6528 H   0  0  0  0  0  0  0  0  0  0  0  0
  140.3767   74.1347  221.0041 H   0  0  0  0  0  0  0  0  0  0  0  0
  141.1899   71.8422  221.2006 H   0  0  0  0  0  0  0  0  0  0  0  0
  143.6187   71.3365  220.9300 H   0  0  0  0  0  0  0  0  0  0  0  0
  145.1632   73.2032  220.4580 H   0  0  0  0  0  0  0  0  0  0  0  0
  144.3427   75.5255  220.2584 H   0  0  0  0  0  0  0  0  0  0  0  0
  141.2894   77.6864  223.4424 H   0  0  0  0  0  0  0  0  0  0  0  0
  142.4714   78.0881  222.1509 H   0  0  0  0  0  0  0  0  0  0  0  0
  140.8464   78.8536  222.1509 H   0  0  0  0  0  0  0  0  0  0  0  0
  138.3628   77.5156  220.7407 H   0  0  0  0  0  0  0  0  0  0  0  0
  138.1860   77.4545  223.6995 H   0  0  0  0  0  0  0  0  0  0  0  0
  137.8724   78.7840  222.5885 H   0  0  0  0  0  0  0  0  0  0  0  0
  135.7696   77.5877  223.7294 H   0  0  0  0  0  0  0  0  0  0  0  0
  135.6160   77.8811  222.0293 H   0  0  0  0  0  0  0  0  0  0  0  0
  136.6072   75.2838  223.4655 H   0  0  0  0  0  0  0  0  0  0  0  0
  135.3791   75.3447  222.2295 H   0  0  0  0  0  0  0  0  0  0  0  0
  136.8198   72.8134  220.6646 H   0  0  0  0  0  0  0  0  0  0  0  0
  138.5621   73.0141  219.9983 H   0  0  0  0  0  0  0  0  0  0  0  0
  138.4670   73.4160  222.8210 H   0  0  0  0  0  0  0  0  0  0  0  0
  140.5833   72.8683  223.5808 H   0  0  0  0  0  0  0  0  0  0  0  0
  141.6029   72.2331  225.7775 H   0  0  0  0  0  0  0  0  0  0  0  0
  141.7699   70.5348  227.5555 H   0  0  0  0  0  0  0  0  0  0  0  0
  139.5354   66.8887  227.2577 H   0  0  0  0  0  0  0  0  0  0  0  0
  138.6135   67.6543  225.1035 H   0  0  0  0  0  0  0  0  0  0  0  0
  1  2  1  0
  2  3  1  0
  3  4  2  0
  4  5  1  0
  5  6  2  0
  6  7  1  0
  7  8  2  0
  2  9  1  0
  9 10  1  0
  9 11  1  0
 11 12  2  0
 11 13  1  0
 13 14  1  0
 14 15  1  0
 15 16  1  0
 16 17  1  0
 17 18  1  0
 18 19  2  0
 18 20  1  0
 20 21  1  0
 21 22  1  0
 22 23  2  0
 22 24  1  0
 24 25  2  0
 25 26  1  0
 26 27  2  0
 27 28  1  0
 28 29  2  0
 29 30  1  0
 29 31  1  0
 31 32  2  0
 32 33  1  0
 33 34  2  0
  8  3  1  0
 17 13  1  0
 34 24  1  0
 33 27  1  0
  1 35  1  0
  1 36  1  0
  1 37  1  0
  2 38  1  1
  4 39  1  0
  5 40  1  0
  6 41  1  0
  7 42  1  0
  8 43  1  0
 10 44  1  0
 10 45  1  0
 10 46  1  0
 13 47  1  6
 14 48  1  0
 14 49  1  0
 15 50  1  0
 15 51  1  0
 16 52  1  0
 16 53  1  0
 20 54  1  0
 20 55  1  0
 21 56  1  0
 25 57  1  0
 26 58  1  0
 28 59  1  0
 31 60  1  0
 32 61  1  0
M  END
>  <smiles>  (25) 
C[C@H](c1ccccc1)N(C)C(=O)[C@@H]1CCCN1C(=O)CNC(=O)c1ccc2cc(Cl)ccc2n1

>  <score_type>  (25) 
oracle

>  <origin>  (25) 
autodockgpu

>  <m_score__min__energy>  (25) 
-9.0800000000000001

>  <m_primary>  (25) 
energy

>  <rmsd>  (25) 
5.227811967692746

>  <m_score__min__rmsd>  (25) 
5.227811967692746

>  <meeko>  (25) 
{"free_energy": -7.86, "intermolecular_energy": -10.25, "internal_energy": -3.43, "cluster_size": 13, "cluster_id": 2, "rank_in_cluster": 6}

>  <energy>  (25) 
-8.71

>  <cluster_rmsd>  (25) 
0.0

>  <cluster>  (25) 
2

$$$$

     RDKit          3D

 61 64  0  0  0  0  0  0  0  0999 V2000
  142.5480   77.3320  219.8390 C   0  0  0  0  0  0  0  0  0  0  0  0
  141.4050   77.4770  220.7610 C   0  0  2  0  0  0  0  0  0  0  0  0
  141.6670   78.5480  221.7710 C   0  0  0  0  0  0  0  0  0  0  0  0
  141.5260   78.2310  223.1300 C   0  0  0  0  0  0  0  0  0  0  0  0
  141.7710   79.1340  224.1260 C   0  0  0  0  0  0  0  0  0  0  0  0
  142.1730   80.4180  223.8210 C   0  0  0  0  0  0  0  0  0  0  0  0
  142.3160   80.7440  222.5050 C   0  0  0  0  0  0  0  0  0  0  0  0
  142.0660   79.8180  221.4890 C   0  0  0  0  0  0  0  0  0  0  0  0
  140.7540   76.3130  221.2340 N   0  0  0  0  0  0  0  0  0  0  0  0
  141.5180   75.0330  221.0930 C   0  0  0  0  0  0  0  0  0  0  0  0
  139.4910   76.1730  221.8210 C   0  0  0  0  0  0  0  0  0  0  0  0
  139.3510   75.3060  222.7810 O   0  0  0  0  0  0  0  0  0  0  0  0
  138.2310   76.8900  221.5110 C   0  0  2  0  0  0  0  0  0  0  0  0
  137.9110   77.9790  222.4700 C   0  0  0  0  0  0  0  0  0  0  0  0
  136.4080   77.8900  222.6580 C   0  0  0  0  0  0  0  0  0  0  0  0
  136.2310   76.3460  222.7280 C   0  0  0  0  0  0  0  0  0  0  0  0
  137.1490   75.8930  221.7040 N   0  0  0  0  0  0  0  0  0  0  0  0
  137.1390   74.7030  220.9250 C   0  0  0  0  0  0  0  0  0  0  0  0
  137.6820   74.7570  219.7390 O   0  0  0  0  0  0  0  0  0  0  0  0
  136.5940   73.3970  221.2610 C   0  0  0  0  0  0  0  0  0  0  0  0
  137.1870   72.6380  222.2920 N   0  0  0  0  0  0  0  0  0  0  0  0
  137.4980   71.2350  222.1670 C   0  0  0  0  0  0  0  0  0  0  0  0
  137.2320   70.6070  221.0870 O   0  0  0  0  0  0  0  0  0  0  0  0
  138.1230   70.5300  223.2890 C   0  0  0  0  0  0  0  0  0  0  0  0
  137.9440   69.1700  223.4090 C   0  0  0  0  0  0  0  0  0  0  0  0
  138.5210   68.4630  224.4610 C   0  0  0  0  0  0  0  0  0  0  0  0
  139.2740   69.1690  225.3750 C   0  0  0  0  0  0  0  0  0  0  0  0
  139.8880   68.5790  226.4500 C   0  0  0  0  0  0  0  0  0  0  0  0
  140.6470   69.2880  227.3690 C   0  0  0  0  0  0  0  0  0  0  0  0
  141.4210   68.5000  228.7340 Cl  0  0  0  0  0  0  0  0  0  0  0  0
  140.7770   70.6580  227.1750 C   0  0  0  0  0  0  0  0  0  0  0  0
  140.1700   71.2690  226.1050 C   0  0  0  0  0  0  0  0  0  0  0  0
  139.4230   70.5390  225.2070 C   0  0  0  0  0  0  0  0  0  0  0  0
  138.8610   71.1990  224.1900 N   0  0  0  0  0  0  0  0  0  0  0  0
  143.4748   77.2144  220.4197 H   0  0  0  0  0  0  0  0  0  0  0  0
  142.3976   76.4457  219.2050 H   0  0  0  0  0  0  0  0  0  0  0  0
  142.6236   78.2277  219.2050 H   0  0  0  0  0  0  0  0  0  0  0  0
  140.5833   77.8202  220.1152 H   0  0  0  0  0  0  0  0  0  0  0  0
  141.2055   77.2153  223.4050 H   0  0  0  0  0  0  0  0  0  0  0  0
  141.6469   78.8353  225.1774 H   0  0  0  0  0  0  0  0  0  0  0  0
  142.3716   81.1545  224.6136 H   0  0  0  0  0  0  0  0  0  0  0  0
  142.6362   81.7615  222.2363 H   0  0  0  0  0  0  0  0  0  0  0  0
  142.1943   80.1219  220.4396 H   0  0  0  0  0  0  0  0  0  0  0  0
  141.7551   74.6357  222.0910 H   0  0  0  0  0  0  0  0  0  0  0  0
  140.9089   74.3012  220.5422 H   0  0  0  0  0  0  0  0  0  0  0  0
  142.4513   75.2218  220.5422 H   0  0  0  0  0  0  0  0  0  0  0  0
  138.3277   77.3222  220.5041 H   0  0  0  0  0  0  0  0  0  0  0  0
  138.4324   77.8212  223.4256 H   0  0  0  0  0  0  0  0  0  0  0  0
  138.2290   78.9661  222.1033 H   0  0  0  0  0  0  0  0  0  0  0  0
  136.0839   78.3799  223.5880 H   0  0  0  0  0  0  0  0  0  0  0  0
  135.8147   78.3878  221.8768 H   0  0  0  0  0  0  0  0  0  0  0  0
  136.5112   75.9557  223.7175 H   0  0  0  0  0  0  0  0  0  0  0  0
  135.1946   76.0102  222.5757 H   0  0  0  0  0  0  0  0  0  0  0  0
  135.5424   73.5529  221.5436 H   0  0  0  0  0  0  0  0  0  0  0  0
  136.7861   72.7985  220.3583 H   0  0  0  0  0  0  0  0  0  0  0  0
  137.4400   73.0660  223.2310 H   0  0  0  0  0  0  0  0  0  0  0  0
  137.3371   68.6348  222.6639 H   0  0  0  0  0  0  0  0  0  0  0  0
  138.3805   67.3765  224.5595 H   0  0  0  0  0  0  0  0  0  0  0  0
  139.7732   67.4940  226.5897 H   0  0  0  0  0  0  0  0  0  0  0  0
  141.3695   71.2566  227.8825 H   0  0  0  0  0  0  0  0  0  0  0  0
  140.2818   72.3541  225.9636 H   0  0  0  0  0  0  0  0  0  0  0  0
  1  2  1  0
  2  3  1  0
  3  4  2  0
  4  5  1  0
  5  6  2  0
  6  7  1  0
  7  8  2  0
  2  9  1  0
  9 10  1  0
  9 11  1  0
 11 12  2  0
 11 13  1  0
 13 14  1  0
 14 15  1  0
 15 16  1  0
 16 17  1  0
 17 18  1  0
 18 19  2  0
 18 20  1  0
 20 21  1  0
 21 22  1  0
 22 23  2  0
 22 24  1  0
 24 25  2  0
 25 26  1  0
 26 27  2  0
 27 28  1  0
 28 29  2  0
 29 30  1  0
 29 31  1  0
 31 32  2  0
 32 33  1  0
 33 34  2  0
  8  3  1  0
 17 13  1  0
 34 24  1  0
 33 27  1  0
  1 35  1  0
  1 36  1  0
  1 37  1  0
  2 38  1  6
  4 39  1  0
  5 40  1  0
  6 41  1  0
  7 42  1  0
  8 43  1  0
 10 44  1  0
 10 45  1  0
 10 46  1  0
 13 47  1  6
 14 48  1  0
 14 49  1  0
 15 50  1  0
 15 51  1  0
 16 52  1  0
 16 53  1  0
 20 54  1  0
 20 55  1  0
 21 56  1  0
 25 57  1  0
 26 58  1  0
 28 59  1  0
 31 60  1  0
 32 61  1  0
M  END
>  <smiles>  (26) 
C[C@H](c1ccccc1)N(C)C(=O)[C@@H]1CCCN1C(=O)CNC(=O)c1ccc2cc(Cl)ccc2n1

>  <score_type>  (26) 
oracle

>  <origin>  (26) 
autodockgpu

>  <m_score__min__energy>  (26) 
-9.0800000000000001

>  <m_primary>  (26) 
energy

>  <rmsd>  (26) 
3.473398702231742

>  <m_score__min__rmsd>  (26) 
3.473398702231742

>  <meeko>  (26) 
{"free_energy": -8.37, "intermolecular_energy": -10.76, "internal_energy": -2.4, "cluster_size": 4, "cluster_id": 3, "rank_in_cluster": 3}

>  <energy>  (26) 
-8.54

>  <cluster_rmsd>  (26) 
0.59

>  <cluster>  (26) 
2

$$$$

     RDKit          3D

 61 64  0  0  0  0  0  0  0  0999 V2000
  144.3120   74.8750  220.1080 C   0  0  0  0  0  0  0  0  0  0  0  0
  142.9870   74.5090  220.6450 C   0  0  2  0  0  0  0  0  0  0  0  0
  142.6820   73.0700  220.3760 C   0  0  0  0  0  0  0  0  0  0  0  0
  141.3620   72.7180  220.0570 C   0  0  0  0  0  0  0  0  0  0  0  0
  140.9910   71.4350  219.7680 C   0  0  0  0  0  0  0  0  0  0  0  0
  141.9250   70.4180  219.7810 C   0  0  0  0  0  0  0  0  0  0  0  0
  143.2130   70.7430  220.0880 C   0  0  0  0  0  0  0  0  0  0  0  0
  143.5890   72.0560  220.3830 C   0  0  0  0  0  0  0  0  0  0  0  0
  141.9130   75.4170  220.4980 N   0  0  0  0  0  0  0  0  0  0  0  0
  141.9650   76.3020  219.2910 C   0  0  0  0  0  0  0  0  0  0  0  0
  140.7950   75.6190  221.3160 C   0  0  0  0  0  0  0  0  0  0  0  0
  140.5800   74.7750  222.2830 O   0  0  0  0  0  0  0  0  0  0  0  0
  139.7730   76.6910  221.2560 C   0  0  2  0  0  0  0  0  0  0  0  0
  139.9010   77.7010  222.3370 C   0  0  0  0  0  0  0  0  0  0  0  0
  138.4710   78.0120  222.7380 C   0  0  0  0  0  0  0  0  0  0  0  0
  137.8590   76.5820  222.7060 C   0  0  0  0  0  0  0  0  0  0  0  0
  138.4770   76.0190  221.5230 N   0  0  0  0  0  0  0  0  0  0  0  0
  138.0280   74.9830  220.6590 C   0  0  0  0  0  0  0  0  0  0  0  0
  137.5970   75.3310  219.4770 O   0  0  0  0  0  0  0  0  0  0  0  0
  137.9690   73.5510  220.9050 C   0  0  0  0  0  0  0  0  0  0  0  0
  138.5680   73.0180  222.0670 N   0  0  0  0  0  0  0  0  0  0  0  0
  138.7150   71.6030  222.3070 C   0  0  0  0  0  0  0  0  0  0  0  0
  138.2890   70.7540  221.4530 O   0  0  0  0  0  0  0  0  0  0  0  0
  139.3590   71.1410  223.5400 C   0  0  0  0  0  0  0  0  0  0  0  0
  140.3770   71.8920  224.0840 C   0  0  0  0  0  0  0  0  0  0  0  0
  141.0150   71.4880  225.2550 C   0  0  0  0  0  0  0  0  0  0  0  0
  140.5940   70.3150  225.8460 C   0  0  0  0  0  0  0  0  0  0  0  0
  141.1490   69.8200  226.9980 C   0  0  0  0  0  0  0  0  0  0  0  0
  140.7260   68.6410  227.5940 C   0  0  0  0  0  0  0  0  0  0  0  0
  141.4580   68.0360  229.0710 Cl  0  0  0  0  0  0  0  0  0  0  0  0
  139.6930   67.9450  226.9780 C   0  0  0  0  0  0  0  0  0  0  0  0
  139.1240   68.4230  225.8230 C   0  0  0  0  0  0  0  0  0  0  0  0
  139.5640   69.5970  225.2550 C   0  0  0  0  0  0  0  0  0  0  0  0
  138.9640   70.0020  224.1300 N   0  0  0  0  0  0  0  0  0  0  0  0
  145.0049   75.0664  220.9406 H   0  0  0  0  0  0  0  0  0  0  0  0
  144.6985   74.0500  219.4916 H   0  0  0  0  0  0  0  0  0  0  0  0
  144.2202   75.7814  219.4916 H   0  0  0  0  0  0  0  0  0  0  0  0
  143.0973   74.6302  221.7327 H   0  0  0  0  0  0  0  0  0  0  0  0
  140.5950   73.5063  220.0388 H   0  0  0  0  0  0  0  0  0  0  0  0
  139.9421   71.2110  219.5236 H   0  0  0  0  0  0  0  0  0  0  0  0
  141.6395   69.3808  219.5515 H   0  0  0  0  0  0  0  0  0  0  0  0
  143.9761   69.9509  220.1039 H   0  0  0  0  0  0  0  0  0  0  0  0
  144.6395   72.2742  220.6258 H   0  0  0  0  0  0  0  0  0  0  0  0
  142.0268   77.3531  219.6094 H   0  0  0  0  0  0  0  0  0  0  0  0
  142.8498   76.0488  218.6885 H   0  0  0  0  0  0  0  0  0  0  0  0
  141.0566   76.1542  218.6885 H   0  0  0  0  0  0  0  0  0  0  0  0
  139.8729   77.1986  220.2852 H   0  0  0  0  0  0  0  0  0  0  0  0
  140.4629   77.2899  223.1886 H   0  0  0  0  0  0  0  0  0  0  0  0
  140.4478   78.5974  222.0092 H   0  0  0  0  0  0  0  0  0  0  0  0
  138.4170   78.4559  223.7430 H   0  0  0  0  0  0  0  0  0  0  0  0
  137.9614   78.7465  222.0971 H   0  0  0  0  0  0  0  0  0  0  0  0
  138.1273   76.0117  223.6075 H   0  0  0  0  0  0  0  0  0  0  0  0
  136.7593   76.5696  222.6817 H   0  0  0  0  0  0  0  0  0  0  0  0
  136.9044   73.2764  220.9396 H   0  0  0  0  0  0  0  0  0  0  0  0
  138.5689   73.1246  220.0875 H   0  0  0  0  0  0  0  0  0  0  0  0
  138.9470   73.6400  222.8400 H   0  0  0  0  0  0  0  0  0  0  0  0
  140.6904   72.8224  223.5879 H   0  0  0  0  0  0  0  0  0  0  0  0
  141.8280   72.0851  225.6938 H   0  0  0  0  0  0  0  0  0  0  0  0
  141.9668   70.3834  227.4710 H   0  0  0  0  0  0  0  0  0  0  0  0
  139.3286   67.0051  227.4183 H   0  0  0  0  0  0  0  0  0  0  0  0
  138.3072   67.8611  225.3464 H   0  0  0  0  0  0  0  0  0  0  0  0
  1  2  1  0
  2  3  1  0
  3  4  2  0
  4  5  1  0
  5  6  2  0
  6  7  1  0
  7  8  2  0
  2  9  1  0
  9 10  1  0
  9 11  1  0
 11 12  2  0
 11 13  1  0
 13 14  1  0
 14 15  1  0
 15 16  1  0
 16 17  1  0
 17 18  1  0
 18 19  2  0
 18 20  1  0
 20 21  1  0
 21 22  1  0
 22 23  2  0
 22 24  1  0
 24 25  2  0
 25 26  1  0
 26 27  2  0
 27 28  1  0
 28 29  2  0
 29 30  1  0
 29 31  1  0
 31 32  2  0
 32 33  1  0
 33 34  2  0
  8  3  1  0
 17 13  1  0
 34 24  1  0
 33 27  1  0
  1 35  1  0
  1 36  1  0
  1 37  1  0
  2 38  1  1
  4 39  1  0
  5 40  1  0
  6 41  1  0
  7 42  1  0
  8 43  1  0
 10 44  1  0
 10 45  1  0
 10 46  1  0
 13 47  1  6
 14 48  1  0
 14 49  1  0
 15 50  1  0
 15 51  1  0
 16 52  1  0
 16 53  1  0
 20 54  1  0
 20 55  1  0
 21 56  1  0
 25 57  1  0
 26 58  1  0
 28 59  1  0
 31 60  1  0
 32 61  1  0
M  END
>  <smiles>  (27) 
C[C@H](c1ccccc1)N(C)C(=O)[C@@H]1CCCN1C(=O)CNC(=O)c1ccc2cc(Cl)ccc2n1

>  <score_type>  (27) 
oracle

>  <origin>  (27) 
autodockgpu

>  <m_score__min__energy>  (27) 
-9.0800000000000001

>  <m_primary>  (27) 
energy

>  <rmsd>  (27) 
5.738210955342602

>  <m_score__min__rmsd>  (27) 
5.738210955342602

>  <meeko>  (27) 
{"free_energy": -7.62, "intermolecular_energy": -10.01, "internal_energy": -3.52, "cluster_size": 13, "cluster_id": 2, "rank_in_cluster": 9}

>  <energy>  (27) 
-8.43

>  <cluster_rmsd>  (27) 
0.66

>  <cluster>  (27) 
2

$$$$

     RDKit          3D

 61 64  0  0  0  0  0  0  0  0999 V2000
  141.4620   71.5080  221.4520 C   0  0  0  0  0  0  0  0  0  0  0  0
  141.6780   72.5670  220.4460 C   0  0  2  0  0  0  0  0  0  0  0  0
  143.0950   73.0450  220.4710 C   0  0  0  0  0  0  0  0  0  0  0  0
  144.1200   72.0880  220.4510 C   0  0  0  0  0  0  0  0  0  0  0  0
  145.4440   72.4280  220.4420 C   0  0  0  0  0  0  0  0  0  0  0  0
  145.8250   73.7550  220.4540 C   0  0  0  0  0  0  0  0  0  0  0  0
  144.8400   74.6980  220.4730 C   0  0  0  0  0  0  0  0  0  0  0  0
  143.4880   74.3470  220.4800 C   0  0  0  0  0  0  0  0  0  0  0  0
  140.6840   73.5580  220.2700 N   0  0  0  0  0  0  0  0  0  0  0  0
  139.9330   73.5100  218.9760 C   0  0  0  0  0  0  0  0  0  0  0  0
  140.2900   74.5900  221.1310 C   0  0  0  0  0  0  0  0  0  0  0  0
  139.9300   74.2780  222.3420 O   0  0  0  0  0  0  0  0  0  0  0  0
  140.2170   76.0470  220.8700 C   0  0  2  0  0  0  0  0  0  0  0  0
  141.0510   76.8620  221.7920 C   0  0  0  0  0  0  0  0  0  0  0  0
  140.2060   78.0880  222.0850 C   0  0  0  0  0  0  0  0  0  0  0  0
  138.8070   77.4250  222.2460 C   0  0  0  0  0  0  0  0  0  0  0  0
  138.8210   76.4380  221.1860 N   0  0  0  0  0  0  0  0  0  0  0  0
  137.7430   75.8450  220.4720 C   0  0  0  0  0  0  0  0  0  0  0  0
  137.4400   76.3570  219.3090 O   0  0  0  0  0  0  0  0  0  0  0  0
  136.9010   74.7240  220.8560 C   0  0  0  0  0  0  0  0  0  0  0  0
  137.3680   73.7960  221.8110 N   0  0  0  0  0  0  0  0  0  0  0  0
  137.2910   72.3660  221.6310 C   0  0  0  0  0  0  0  0  0  0  0  0
  136.7750   71.8740  220.5730 O   0  0  0  0  0  0  0  0  0  0  0  0
  137.8120   71.4780  222.6740 C   0  0  0  0  0  0  0  0  0  0  0  0
  137.2040   70.2600  222.8810 C   0  0  0  0  0  0  0  0  0  0  0  0
  137.6680   69.3870  223.8620 C   0  0  0  0  0  0  0  0  0  0  0  0
  138.7520   69.7830  224.6170 C   0  0  0  0  0  0  0  0  0  0  0  0
  139.2930   69.0070  225.6090 C   0  0  0  0  0  0  0  0  0  0  0  0
  140.3840   69.4050  226.3680 C   0  0  0  0  0  0  0  0  0  0  0  0
  141.0530   68.3850  227.6310 Cl  0  0  0  0  0  0  0  0  0  0  0  0
  140.9370   70.6490  226.0950 C   0  0  0  0  0  0  0  0  0  0  0  0
  140.4100   71.4420  225.1050 C   0  0  0  0  0  0  0  0  0  0  0  0
  139.3270   71.0210  224.3670 C   0  0  0  0  0  0  0  0  0  0  0  0
  138.8660   71.8450  223.4190 N   0  0  0  0  0  0  0  0  0  0  0  0
  141.5496   71.9374  222.4609 H   0  0  0  0  0  0  0  0  0  0  0  0
  140.4577   71.0783  221.3222 H   0  0  0  0  0  0  0  0  0  0  0  0
  142.2178   70.7194  221.3222 H   0  0  0  0  0  0  0  0  0  0  0  0
  141.5129   72.0591  219.4843 H   0  0  0  0  0  0  0  0  0  0  0  0
  143.8479   71.0222  220.4422 H   0  0  0  0  0  0  0  0  0  0  0  0
  146.2107   71.6394  220.4251 H   0  0  0  0  0  0  0  0  0  0  0  0
  146.8869   74.0419  220.4484 H   0  0  0  0  0  0  0  0  0  0  0  0
  145.1173   75.7624  220.4831 H   0  0  0  0  0  0  0  0  0  0  0  0
  142.7256   75.1398  220.4930 H   0  0  0  0  0  0  0  0  0  0  0  0
  138.8544   73.4411  219.1804 H   0  0  0  0  0  0  0  0  0  0  0  0
  140.1391   74.4232  218.3983 H   0  0  0  0  0  0  0  0  0  0  0  0
  140.2537   72.6305  218.3983 H   0  0  0  0  0  0  0  0  0  0  0  0
  140.5550   76.2222  219.8380 H   0  0  0  0  0  0  0  0  0  0  0  0
  141.2641   76.3065  222.7172 H   0  0  0  0  0  0  0  0  0  0  0  0
  142.0266   77.1211  221.3550 H   0  0  0  0  0  0  0  0  0  0  0  0
  140.5265   78.5927  223.0083 H   0  0  0  0  0  0  0  0  0  0  0  0
  140.2576   78.8777  221.3210 H   0  0  0  0  0  0  0  0  0  0  0  0
  138.7000   76.9510  223.2328 H   0  0  0  0  0  0  0  0  0  0  0  0
  137.9687   78.1344  222.1821 H   0  0  0  0  0  0  0  0  0  0  0  0
  135.9666   75.1476  221.2527 H   0  0  0  0  0  0  0  0  0  0  0  0
  136.8286   74.1291  219.9336 H   0  0  0  0  0  0  0  0  0  0  0  0
  137.8080   74.1050  222.7270 H   0  0  0  0  0  0  0  0  0  0  0  0
  136.3403   69.9727  222.2633 H   0  0  0  0  0  0  0  0  0  0  0  0
  137.1853   68.4128  224.0292 H   0  0  0  0  0  0  0  0  0  0  0  0
  138.8419   68.0246  225.8124 H   0  0  0  0  0  0  0  0  0  0  0  0
  141.8025   71.0017  226.6751 H   0  0  0  0  0  0  0  0  0  0  0  0
  140.8587   72.4251  224.8995 H   0  0  0  0  0  0  0  0  0  0  0  0
  1  2  1  0
  2  3  1  0
  3  4  2  0
  4  5  1  0
  5  6  2  0
  6  7  1  0
  7  8  2  0
  2  9  1  0
  9 10  1  0
  9 11  1  0
 11 12  2  0
 11 13  1  0
 13 14  1  0
 14 15  1  0
 15 16  1  0
 16 17  1  0
 17 18  1  0
 18 19  2  0
 18 20  1  0
 20 21  1  0
 21 22  1  0
 22 23  2  0
 22 24  1  0
 24 25  2  0
 25 26  1  0
 26 27  2  0
 27 28  1  0
 28 29  2  0
 29 30  1  0
 29 31  1  0
 31 32  2  0
 32 33  1  0
 33 34  2  0
  8  3  1  0
 17 13  1  0
 34 24  1  0
 33 27  1  0
  1 35  1  0
  1 36  1  0
  1 37  1  0
  2 38  1  6
  4 39  1  0
  5 40  1  0
  6 41  1  0
  7 42  1  0
  8 43  1  0
 10 44  1  0
 10 45  1  0
 10 46  1  0
 13 47  1  6
 14 48  1  0
 14 49  1  0
 15 50  1  0
 15 51  1  0
 16 52  1  0
 16 53  1  0
 20 54  1  0
 20 55  1  0
 21 56  1  0
 25 57  1  0
 26 58  1  0
 28 59  1  0
 31 60  1  0
 32 61  1  0
M  END
>  <smiles>  (28) 
C[C@H](c1ccccc1)N(C)C(=O)[C@@H]1CCCN1C(=O)CNC(=O)c1ccc2cc(Cl)ccc2n1

>  <score_type>  (28) 
oracle

>  <origin>  (28) 
autodockgpu

>  <m_score__min__energy>  (28) 
-9.0800000000000001

>  <m_primary>  (28) 
energy

>  <rmsd>  (28) 
5.613159242067182

>  <m_score__min__rmsd>  (28) 
5.613159242067182

>  <meeko>  (28) 
{"free_energy": -7.64, "intermolecular_energy": -10.03, "internal_energy": -3.81, "cluster_size": 13, "cluster_id": 2, "rank_in_cluster": 8}

>  <energy>  (28) 
-8.24

>  <cluster_rmsd>  (28) 
0.87

>  <cluster>  (28) 
2

$$$$

     RDKit          3D

 61 64  0  0  0  0  0  0  0  0999 V2000
  141.4930   72.4680  220.7070 C   0  0  0  0  0  0  0  0  0  0  0  0
  142.0570   73.6790  220.0790 C   0  0  2  0  0  0  0  0  0  0  0  0
  143.5370   73.5500  219.9040 C   0  0  0  0  0  0  0  0  0  0  0  0
  144.3640   73.8340  221.0000 C   0  0  0  0  0  0  0  0  0  0  0  0
  145.7250   73.7170  220.9450 C   0  0  0  0  0  0  0  0  0  0  0  0
  146.3450   73.3070  219.7820 C   0  0  0  0  0  0  0  0  0  0  0  0
  145.5550   73.0260  218.7070 C   0  0  0  0  0  0  0  0  0  0  0  0
  144.1640   73.1450  218.7660 C   0  0  0  0  0  0  0  0  0  0  0  0
  141.5820   74.9480  220.4880 N   0  0  0  0  0  0  0  0  0  0  0  0
  142.2650   76.1310  219.8740 C   0  0  0  0  0  0  0  0  0  0  0  0
  140.5610   75.2710  221.3900 C   0  0  0  0  0  0  0  0  0  0  0  0
  140.2940   74.4290  222.3450 O   0  0  0  0  0  0  0  0  0  0  0  0
  139.6990   76.4760  221.4320 C   0  0  2  0  0  0  0  0  0  0  0  0
  139.9120   77.3210  222.6350 C   0  0  0  0  0  0  0  0  0  0  0  0
  138.5190   77.7810  223.0270 C   0  0  0  0  0  0  0  0  0  0  0  0
  137.7210   76.4660  222.7980 C   0  0  0  0  0  0  0  0  0  0  0  0
  138.3120   75.9670  221.5740 N   0  0  0  0  0  0  0  0  0  0  0  0
  137.7670   75.1150  220.5740 C   0  0  0  0  0  0  0  0  0  0  0  0
  137.4270   75.6630  219.4390 O   0  0  0  0  0  0  0  0  0  0  0  0
  137.5210   73.6830  220.6300 C   0  0  0  0  0  0  0  0  0  0  0  0
  137.9770   72.9400  221.7400 N   0  0  0  0  0  0  0  0  0  0  0  0
  137.8840   71.5030  221.8250 C   0  0  0  0  0  0  0  0  0  0  0  0
  137.3620   70.8310  220.8740 O   0  0  0  0  0  0  0  0  0  0  0  0
  138.3930   70.8150  223.0150 C   0  0  0  0  0  0  0  0  0  0  0  0
  138.0840   69.4870  223.2030 C   0  0  0  0  0  0  0  0  0  0  0  0
  138.5490   68.7970  224.3210 C   0  0  0  0  0  0  0  0  0  0  0  0
  139.3230   69.4870  225.2290 C   0  0  0  0  0  0  0  0  0  0  0  0
  139.8340   68.9120  226.3640 C   0  0  0  0  0  0  0  0  0  0  0  0
  140.6130   69.6060  227.2770 C   0  0  0  0  0  0  0  0  0  0  0  0
  141.2520   68.8370  228.7210 Cl  0  0  0  0  0  0  0  0  0  0  0  0
  140.8770   70.9440  227.0110 C   0  0  0  0  0  0  0  0  0  0  0  0
  140.3750   71.5400  225.8800 C   0  0  0  0  0  0  0  0  0  0  0  0
  139.6040   70.8260  224.9900 C   0  0  0  0  0  0  0  0  0  0  0  0
  139.1490   71.4700  223.9110 N   0  0  0  0  0  0  0  0  0  0  0  0
  141.5392   72.5672  221.8015 H   0  0  0  0  0  0  0  0  0  0  0  0
  140.4456   72.3464  220.3937 H   0  0  0  0  0  0  0  0  0  0  0  0
  142.0739   71.5880  220.3937 H   0  0  0  0  0  0  0  0  0  0  0  0
  141.6017   73.6958  219.0778 H   0  0  0  0  0  0  0  0  0  0  0  0
  143.8996   74.1639  221.9410 H   0  0  0  0  0  0  0  0  0  0  0  0
  146.3299   73.9511  221.8334 H   0  0  0  0  0  0  0  0  0  0  0  0
  147.4392   73.2103  219.7244 H   0  0  0  0  0  0  0  0  0  0  0  0
  146.0250   72.6969  217.7685 H   0  0  0  0  0  0  0  0  0  0  0  0
  143.5641   72.9067  217.8753 H   0  0  0  0  0  0  0  0  0  0  0  0
  142.6448   76.7888  220.6696 H   0  0  0  0  0  0  0  0  0  0  0  0
  143.1037   75.7874  219.2507 H   0  0  0  0  0  0  0  0  0  0  0  0
  141.5481   76.6856  219.2507 H   0  0  0  0  0  0  0  0  0  0  0  0
  139.9132   77.0761  220.5353 H   0  0  0  0  0  0  0  0  0  0  0  0
  140.3707   76.7354  223.4454 H   0  0  0  0  0  0  0  0  0  0  0  0
  140.5916   78.1636  222.4397 H   0  0  0  0  0  0  0  0  0  0  0  0
  138.4774   78.1052  224.0773 H   0  0  0  0  0  0  0  0  0  0  0  0
  138.1455   78.6511  222.4671 H   0  0  0  0  0  0  0  0  0  0  0  0
  137.8661   75.7601  223.6291 H   0  0  0  0  0  0  0  0  0  0  0  0
  136.6323   76.6115  222.7387 H   0  0  0  0  0  0  0  0  0  0  0  0
  136.4310   73.5439  220.5785 H   0  0  0  0  0  0  0  0  0  0  0  0
  138.1158   73.2870  219.7937 H   0  0  0  0  0  0  0  0  0  0  0  0
  138.4200   73.4070  222.5850 H   0  0  0  0  0  0  0  0  0  0  0  0
  137.4623   68.9638  222.4616 H   0  0  0  0  0  0  0  0  0  0  0  0
  138.3059   67.7351  224.4739 H   0  0  0  0  0  0  0  0  0  0  0  0
  139.6159   67.8516  226.5591 H   0  0  0  0  0  0  0  0  0  0  0  0
  141.4918   71.5295  227.7105 H   0  0  0  0  0  0  0  0  0  0  0  0
  140.5914   72.6003  225.6828 H   0  0  0  0  0  0  0  0  0  0  0  0
  1  2  1  0
  2  3  1  0
  3  4  2  0
  4  5  1  0
  5  6  2  0
  6  7  1  0
  7  8  2  0
  2  9  1  0
  9 10  1  0
  9 11  1  0
 11 12  2  0
 11 13  1  0
 13 14  1  0
 14 15  1  0
 15 16  1  0
 16 17  1  0
 17 18  1  0
 18 19  2  0
 18 20  1  0
 20 21  1  0
 21 22  1  0
 22 23  2  0
 22 24  1  0
 24 25  2  0
 25 26  1  0
 26 27  2  0
 27 28  1  0
 28 29  2  0
 29 30  1  0
 29 31  1  0
 31 32  2  0
 32 33  1  0
 33 34  2  0
  8  3  1  0
 17 13  1  0
 34 24  1  0
 33 27  1  0
  1 35  1  0
  1 36  1  0
  1 37  1  0
  2 38  1  6
  4 39  1  0
  5 40  1  0
  6 41  1  0
  7 42  1  0
  8 43  1  0
 10 44  1  0
 10 45  1  0
 10 46  1  0
 13 47  1  6
 14 48  1  0
 14 49  1  0
 15 50  1  0
 15 51  1  0
 16 52  1  0
 16 53  1  0
 20 54  1  0
 20 55  1  0
 21 56  1  0
 25 57  1  0
 26 58  1  0
 28 59  1  0
 31 60  1  0
 32 61  1  0
M  END
>  <smiles>  (29) 
C[C@H](c1ccccc1)N(C)C(=O)[C@@H]1CCCN1C(=O)CNC(=O)c1ccc2cc(Cl)ccc2n1

>  <score_type>  (29) 
oracle

>  <origin>  (29) 
autodockgpu

>  <m_score__min__energy>  (29) 
-9.0800000000000001

>  <m_primary>  (29) 
energy

>  <rmsd>  (29) 
5.590496040902417

>  <m_score__min__rmsd>  (29) 
5.590496040902417

>  <meeko>  (29) 
{"free_energy": -7.85, "intermolecular_energy": -10.24, "internal_energy": -3.25, "cluster_size": 13, "cluster_id": 2, "rank_in_cluster": 7}

>  <energy>  (29) 
-8.0

>  <cluster_rmsd>  (29) 
1.19

>  <cluster>  (29) 
2

$$$$

     RDKit          3D

 61 64  0  0  0  0  0  0  0  0999 V2000
  142.1280   80.9370  219.0080 C   0  0  0  0  0  0  0  0  0  0  0  0
  140.9550   80.2050  219.5230 C   0  0  2  0  0  0  0  0  0  0  0  0
  140.9790   80.1430  221.0170 C   0  0  0  0  0  0  0  0  0  0  0  0
  142.2110   79.9420  221.6560 C   0  0  0  0  0  0  0  0  0  0  0  0
  142.3370   79.8990  223.0160 C   0  0  0  0  0  0  0  0  0  0  0  0
  141.2300   80.0550  223.8260 C   0  0  0  0  0  0  0  0  0  0  0  0
  140.0240   80.2520  223.2210 C   0  0  0  0  0  0  0  0  0  0  0  0
  139.8980   80.2960  221.8300 C   0  0  0  0  0  0  0  0  0  0  0  0
  140.5300   79.0330  218.8530 N   0  0  0  0  0  0  0  0  0  0  0  0
  139.2810   79.1630  218.0370 C   0  0  0  0  0  0  0  0  0  0  0  0
  141.1030   77.7560  218.8360 C   0  0  0  0  0  0  0  0  0  0  0  0
  140.6750   76.9010  217.9530 O   0  0  0  0  0  0  0  0  0  0  0  0
  142.1710   77.2000  219.7000 C   0  0  2  0  0  0  0  0  0  0  0  0
  143.3250   76.6460  218.9440 C   0  0  0  0  0  0  0  0  0  0  0  0
  143.7130   75.3930  219.7070 C   0  0  0  0  0  0  0  0  0  0  0  0
  142.3020   74.8230  220.0340 C   0  0  0  0  0  0  0  0  0  0  0  0
  141.5660   76.0230  220.3710 N   0  0  0  0  0  0  0  0  0  0  0  0
  140.4230   76.1950  221.2010 C   0  0  0  0  0  0  0  0  0  0  0  0
  140.3420   77.3000  221.8910 O   0  0  0  0  0  0  0  0  0  0  0  0
  139.3000   75.2940  221.4040 C   0  0  0  0  0  0  0  0  0  0  0  0
  139.4060   74.2480  222.3450 N   0  0  0  0  0  0  0  0  0  0  0  0
  139.7510   72.8930  221.9910 C   0  0  0  0  0  0  0  0  0  0  0  0
  139.9720   72.5790  220.7730 O   0  0  0  0  0  0  0  0  0  0  0  0
  139.8480   71.8730  223.0390 C   0  0  0  0  0  0  0  0  0  0  0  0
  139.4140   70.5940  222.7710 C   0  0  0  0  0  0  0  0  0  0  0  0
  139.4890   69.5970  223.7400 C   0  0  0  0  0  0  0  0  0  0  0  0
  140.0080   69.9330  224.9730 C   0  0  0  0  0  0  0  0  0  0  0  0
  140.1290   69.0340  226.0010 C   0  0  0  0  0  0  0  0  0  0  0  0
  140.6520   69.3720  227.2410 C   0  0  0  0  0  0  0  0  0  0  0  0
  140.7940   68.1950  228.5360 Cl  0  0  0  0  0  0  0  0  0  0  0  0
  141.0650   70.6850  227.4280 C   0  0  0  0  0  0  0  0  0  0  0  0
  140.9530   71.6010  226.4100 C   0  0  0  0  0  0  0  0  0  0  0  0
  140.4300   71.2370  225.1900 C   0  0  0  0  0  0  0  0  0  0  0  0
  140.3510   72.1810  224.2450 N   0  0  0  0  0  0  0  0  0  0  0  0
  142.7266   81.3105  219.8519 H   0  0  0  0  0  0  0  0  0  0  0  0
  142.7414   80.2611  218.3941 H   0  0  0  0  0  0  0  0  0  0  0  0
  141.7905   81.7850  218.3941 H   0  0  0  0  0  0  0  0  0  0  0  0
  140.0997   80.8303  219.2273 H   0  0  0  0  0  0  0  0  0  0  0  0
  143.1118   79.8138  221.0379 H   0  0  0  0  0  0  0  0  0  0  0  0
  143.3269   79.7391  223.4683 H   0  0  0  0  0  0  0  0  0  0  0  0
  141.3178   80.0215  224.9220 H   0  0  0  0  0  0  0  0  0  0  0  0
  139.1267   80.3796  223.8443 H   0  0  0  0  0  0  0  0  0  0  0  0
  138.9058   80.4574  221.3833 H   0  0  0  0  0  0  0  0  0  0  0  0
  138.4132   79.2533  218.7068 H   0  0  0  0  0  0  0  0  0  0  0  0
  139.3492   80.0589  217.4024 H   0  0  0  0  0  0  0  0  0  0  0  0
  139.1632   78.2723  217.4024 H   0  0  0  0  0  0  0  0  0  0  0  0
  142.5310   78.0083  220.3535 H   0  0  0  0  0  0  0  0  0  0  0  0
  143.0316   76.3983  217.9132 H   0  0  0  0  0  0  0  0  0  0  0  0
  144.1562   77.3622  218.8656 H   0  0  0  0  0  0  0  0  0  0  0  0
  144.2978   74.7007  219.0834 H   0  0  0  0  0  0  0  0  0  0  0  0
  144.3555   75.5660  220.5829 H   0  0  0  0  0  0  0  0  0  0  0  0
  141.8632   74.3162  219.1618 H   0  0  0  0  0  0  0  0  0  0  0  0
  142.3028   74.0638  220.8300 H   0  0  0  0  0  0  0  0  0  0  0  0
  138.4447   75.9139  221.7107 H   0  0  0  0  0  0  0  0  0  0  0  0
  139.2166   74.7668  220.4422 H   0  0  0  0  0  0  0  0  0  0  0  0
  139.2350   74.4050  223.3820 H   0  0  0  0  0  0  0  0  0  0  0  0
  139.0028   70.3569  221.7787 H   0  0  0  0  0  0  0  0  0  0  0  0
  139.1452   68.5737  223.5289 H   0  0  0  0  0  0  0  0  0  0  0  0
  139.7967   67.9986  225.8354 H   0  0  0  0  0  0  0  0  0  0  0  0
  141.4843   70.9933  228.3971 H   0  0  0  0  0  0  0  0  0  0  0  0
  141.2851   72.6371  226.5719 H   0  0  0  0  0  0  0  0  0  0  0  0
  1  2  1  0
  2  3  1  0
  3  4  2  0
  4  5  1  0
  5  6  2  0
  6  7  1  0
  7  8  2  0
  2  9  1  0
  9 10  1  0
  9 11  1  0
 11 12  2  0
 11 13  1  0
 13 14  1  0
 14 15  1  0
 15 16  1  0
 16 17  1  0
 17 18  1  0
 18 19  2  0
 18 20  1  0
 20 21  1  0
 21 22  1  0
 22 23  2  0
 22 24  1  0
 24 25  2  0
 25 26  1  0
 26 27  2  0
 27 28  1  0
 28 29  2  0
 29 30  1  0
 29 31  1  0
 31 32  2  0
 32 33  1  0
 33 34  2  0
  8  3  1  0
 17 13  1  0
 34 24  1  0
 33 27  1  0
  1 35  1  0
  1 36  1  0
  1 37  1  0
  2 38  1  1
  4 39  1  0
  5 40  1  0
  6 41  1  0
  7 42  1  0
  8 43  1  0
 10 44  1  0
 10 45  1  0
 10 46  1  0
 13 47  1  1
 14 48  1  0
 14 49  1  0
 15 50  1  0
 15 51  1  0
 16 52  1  0
 16 53  1  0
 20 54  1  0
 20 55  1  0
 21 56  1  0
 25 57  1  0
 26 58  1  0
 28 59  1  0
 31 60  1  0
 32 61  1  0
M  END
>  <smiles>  (30) 
C[C@H](c1ccccc1)N(C)C(=O)[C@@H]1CCCN1C(=O)CNC(=O)c1ccc2cc(Cl)ccc2n1

>  <score_type>  (30) 
oracle

>  <origin>  (30) 
autodockgpu

>  <m_score__min__energy>  (30) 
-9.0800000000000001

>  <m_primary>  (30) 
energy

>  <rmsd>  (30) 
2.9455230730459476

>  <m_score__min__rmsd>  (30) 
2.9455230730459476

>  <meeko>  (30) 
{"free_energy": -8.44, "intermolecular_energy": -10.83, "internal_energy": -2.68, "cluster_size": 24, "cluster_id": 1, "rank_in_cluster": 14}

>  <energy>  (30) 
-7.86

>  <cluster_rmsd>  (30) 
1.44

>  <cluster>  (30) 
2

$$$$

     RDKit          3D

 61 64  0  0  0  0  0  0  0  0999 V2000
  142.1370   70.7520  220.2740 C   0  0  0  0  0  0  0  0  0  0  0  0
  141.9350   72.1820  219.9680 C   0  0  2  0  0  0  0  0  0  0  0  0
  143.1700   72.9700  220.2660 C   0  0  0  0  0  0  0  0  0  0  0  0
  144.2600   72.3060  220.8460 C   0  0  0  0  0  0  0  0  0  0  0  0
  145.4400   72.9350  221.1290 C   0  0  0  0  0  0  0  0  0  0  0  0
  145.6020   74.2760  220.8480 C   0  0  0  0  0  0  0  0  0  0  0  0
  144.5520   74.9380  220.2840 C   0  0  0  0  0  0  0  0  0  0  0  0
  143.3470   74.2920  219.9940 C   0  0  0  0  0  0  0  0  0  0  0  0
  140.7040   72.7890  220.3120 N   0  0  0  0  0  0  0  0  0  0  0  0
  139.5040   72.3120  219.5530 C   0  0  0  0  0  0  0  0  0  0  0  0
  140.4320   73.7800  221.2630 C   0  0  0  0  0  0  0  0  0  0  0  0
  140.3360   73.4240  222.5110 O   0  0  0  0  0  0  0  0  0  0  0  0
  140.2310   75.2350  221.0660 C   0  0  2  0  0  0  0  0  0  0  0  0
  141.0970   76.0810  221.9280 C   0  0  0  0  0  0  0  0  0  0  0  0
  140.2020   77.2320  222.3510 C   0  0  0  0  0  0  0  0  0  0  0  0
  138.8780   76.4630  222.6270 C   0  0  0  0  0  0  0  0  0  0  0  0
  138.8510   75.5120  221.5360 N   0  0  0  0  0  0  0  0  0  0  0  0
  137.7500   74.8640  220.9120 C   0  0  0  0  0  0  0  0  0  0  0  0
  137.2470   75.4250  219.8460 O   0  0  0  0  0  0  0  0  0  0  0  0
  137.0760   73.6340  221.2990 C   0  0  0  0  0  0  0  0  0  0  0  0
  137.6350   72.8200  222.3080 N   0  0  0  0  0  0  0  0  0  0  0  0
  137.4590   71.3890  222.3620 C   0  0  0  0  0  0  0  0  0  0  0  0
  136.7630   70.7890  221.4760 O   0  0  0  0  0  0  0  0  0  0  0  0
  138.0870   70.6240  223.4430 C   0  0  0  0  0  0  0  0  0  0  0  0
  137.8570   69.2690  223.5240 C   0  0  0  0  0  0  0  0  0  0  0  0
  138.4350   68.5060  224.5360 C   0  0  0  0  0  0  0  0  0  0  0  0
  139.2390   69.1520  225.4510 C   0  0  0  0  0  0  0  0  0  0  0  0
  139.8590   68.5040  226.4880 C   0  0  0  0  0  0  0  0  0  0  0  0
  140.6690   69.1530  227.4080 C   0  0  0  0  0  0  0  0  0  0  0  0
  141.4470   68.2910  228.7250 Cl  0  0  0  0  0  0  0  0  0  0  0  0
  140.8470   70.5220  227.2540 C   0  0  0  0  0  0  0  0  0  0  0  0
  140.2350   71.1910  226.2220 C   0  0  0  0  0  0  0  0  0  0  0  0
  139.4370   70.5200  225.3230 C   0  0  0  0  0  0  0  0  0  0  0  0
  138.8740   71.2350  224.3430 N   0  0  0  0  0  0  0  0  0  0  0  0
  142.1571   70.6097  221.3646 H   0  0  0  0  0  0  0  0  0  0  0  0
  141.3129   70.1648  219.8427 H   0  0  0  0  0  0  0  0  0  0  0  0
  143.0915   70.4160  219.8427 H   0  0  0  0  0  0  0  0  0  0  0  0
  141.7793   72.2031  218.8793 H   0  0  0  0  0  0  0  0  0  0  0  0
  144.1617   71.2363  221.0827 H   0  0  0  0  0  0  0  0  0  0  0  0
  146.2659   72.3683  221.5838 H   0  0  0  0  0  0  0  0  0  0  0  0
  146.5465   74.7936  221.0715 H   0  0  0  0  0  0  0  0  0  0  0  0
  144.6559   76.0081  220.0512 H   0  0  0  0  0  0  0  0  0  0  0  0
  142.5255   74.8631  219.5370 H   0  0  0  0  0  0  0  0  0  0  0  0
  138.7219   72.0011  220.2613 H   0  0  0  0  0  0  0  0  0  0  0  0
  139.1227   73.1269  218.9202 H   0  0  0  0  0  0  0  0  0  0  0  0
  139.7862   71.4577  218.9202 H   0  0  0  0  0  0  0  0  0  0  0  0
  140.4475   75.4661  220.0126 H   0  0  0  0  0  0  0  0  0  0  0  0
  141.4440   75.5153  222.8053 H   0  0  0  0  0  0  0  0  0  0  0  0
  142.0014   76.4244  221.4043 H   0  0  0  0  0  0  0  0  0  0  0  0
  140.5798   77.7308  223.2557 H   0  0  0  0  0  0  0  0  0  0  0  0
  140.1185   78.0462  221.6161 H   0  0  0  0  0  0  0  0  0  0  0  0
  138.9073   75.9532  223.6013 H   0  0  0  0  0  0  0  0  0  0  0  0
  137.9899   77.1104  222.6739 H   0  0  0  0  0  0  0  0  0  0  0  0
  136.0678   73.9151  221.6374 H   0  0  0  0  0  0  0  0  0  0  0  0
  137.1444   73.0085  220.3967 H   0  0  0  0  0  0  0  0  0  0  0  0
  138.2250   73.2240  223.0930 H   0  0  0  0  0  0  0  0  0  0  0  0
  137.2086   68.7828  222.7802 H   0  0  0  0  0  0  0  0  0  0  0  0
  138.2557   67.4228  224.6030 H   0  0  0  0  0  0  0  0  0  0  0  0
  139.7071   67.4198  226.5953 H   0  0  0  0  0  0  0  0  0  0  0  0
  141.4819   71.0738  227.9628 H   0  0  0  0  0  0  0  0  0  0  0  0
  140.3843   72.2753  226.1127 H   0  0  0  0  0  0  0  0  0  0  0  0
  1  2  1  0
  2  3  1  0
  3  4  2  0
  4  5  1  0
  5  6  2  0
  6  7  1  0
  7  8  2  0
  2  9  1  0
  9 10  1  0
  9 11  1  0
 11 12  2  0
 11 13  1  0
 13 14  1  0
 14 15  1  0
 15 16  1  0
 16 17  1  0
 17 18  1  0
 18 19  2  0
 18 20  1  0
 20 21  1  0
 21 22  1  0
 22 23  2  0
 22 24  1  0
 24 25  2  0
 25 26  1  0
 26 27  2  0
 27 28  1  0
 28 29  2  0
 29 30  1  0
 29 31  1  0
 31 32  2  0
 32 33  1  0
 33 34  2  0
  8  3  1  0
 17 13  1  0
 34 24  1  0
 33 27  1  0
  1 35  1  0
  1 36  1  0
  1 37  1  0
  2 38  1  6
  4 39  1  0
  5 40  1  0
  6 41  1  0
  7 42  1  0
  8 43  1  0
 10 44  1  0
 10 45  1  0
 10 46  1  0
 13 47  1  6
 14 48  1  0
 14 49  1  0
 15 50  1  0
 15 51  1  0
 16 52  1  0
 16 53  1  0
 20 54  1  0
 20 55  1  0
 21 56  1  0
 25 57  1  0
 26 58  1  0
 28 59  1  0
 31 60  1  0
 32 61  1  0
M  END
>  <smiles>  (31) 
C[C@H](c1ccccc1)N(C)C(=O)[C@@H]1CCCN1C(=O)CNC(=O)c1ccc2cc(Cl)ccc2n1

>  <score_type>  (31) 
oracle

>  <origin>  (31) 
autodockgpu

>  <m_score__min__energy>  (31) 
-9.0800000000000001

>  <m_primary>  (31) 
energy

>  <rmsd>  (31) 
5.62898965599474

>  <m_score__min__rmsd>  (31) 
5.62898965599474

>  <meeko>  (31) 
{"free_energy": -8.0, "intermolecular_energy": -10.39, "internal_energy": -3.59, "cluster_size": 13, "cluster_id": 2, "rank_in_cluster": 5}

>  <energy>  (31) 
-7.85

>  <cluster_rmsd>  (31) 
0.74

>  <cluster>  (31) 
2

$$$$

     RDKit          3D

 61 64  0  0  0  0  0  0  0  0999 V2000
  139.6210   78.6190  220.0210 C   0  0  0  0  0  0  0  0  0  0  0  0
  140.8760   77.9780  220.4620 C   0  0  2  0  0  0  0  0  0  0  0  0
  141.4280   78.6620  221.6710 C   0  0  0  0  0  0  0  0  0  0  0  0
  142.1130   79.8730  221.4970 C   0  0  0  0  0  0  0  0  0  0  0  0
  142.6290   80.5850  222.5440 C   0  0  0  0  0  0  0  0  0  0  0  0
  142.4890   80.1250  223.8380 C   0  0  0  0  0  0  0  0  0  0  0  0
  141.8260   78.9490  224.0250 C   0  0  0  0  0  0  0  0  0  0  0  0
  141.2990   78.2240  222.9530 C   0  0  0  0  0  0  0  0  0  0  0  0
  141.8170   77.5710  219.4870 N   0  0  0  0  0  0  0  0  0  0  0  0
  141.8760   78.4060  218.2460 C   0  0  0  0  0  0  0  0  0  0  0  0
  142.7110   76.4930  219.5040 C   0  0  0  0  0  0  0  0  0  0  0  0
  143.6490   76.4580  218.6030 O   0  0  0  0  0  0  0  0  0  0  0  0
  142.7630   75.3370  220.4290 C   0  0  2  0  0  0  0  0  0  0  0  0
  144.0040   74.5290  220.3070 C   0  0  0  0  0  0  0  0  0  0  0  0
  143.5370   73.0920  220.4510 C   0  0  0  0  0  0  0  0  0  0  0  0
  142.2310   73.1420  219.6070 C   0  0  0  0  0  0  0  0  0  0  0  0
  141.6790   74.4250  219.9860 N   0  0  0  0  0  0  0  0  0  0  0  0
  140.3310   74.8810  219.9830 C   0  0  0  0  0  0  0  0  0  0  0  0
  139.8730   75.3940  218.8740 O   0  0  0  0  0  0  0  0  0  0  0  0
  139.3600   74.8630  221.0650 C   0  0  0  0  0  0  0  0  0  0  0  0
  139.4750   73.9000  222.0900 N   0  0  0  0  0  0  0  0  0  0  0  0
  139.5730   72.4830  221.8400 C   0  0  0  0  0  0  0  0  0  0  0  0
  139.5510   72.0330  220.6460 O   0  0  0  0  0  0  0  0  0  0  0  0
  139.6990   71.5560  222.9690 C   0  0  0  0  0  0  0  0  0  0  0  0
  139.2570   70.2610  222.8240 C   0  0  0  0  0  0  0  0  0  0  0  0
  139.3590   69.3500  223.8730 C   0  0  0  0  0  0  0  0  0  0  0  0
  139.9140   69.7890  225.0570 C   0  0  0  0  0  0  0  0  0  0  0  0
  140.0640   68.9810  226.1540 C   0  0  0  0  0  0  0  0  0  0  0  0
  140.6220   69.4220  227.3450 C   0  0  0  0  0  0  0  0  0  0  0  0
  140.8000   68.3610  228.7320 Cl  0  0  0  0  0  0  0  0  0  0  0  0
  141.0410   70.7450  227.4070 C   0  0  0  0  0  0  0  0  0  0  0  0
  140.9000   71.5710  226.3180 C   0  0  0  0  0  0  0  0  0  0  0  0
  140.3430   71.1060  225.1490 C   0  0  0  0  0  0  0  0  0  0  0  0
  140.2360   71.9650  224.1300 N   0  0  0  0  0  0  0  0  0  0  0  0
  139.0335   78.9191  220.9012 H   0  0  0  0  0  0  0  0  0  0  0  0
  139.8558   79.5076  219.4166 H   0  0  0  0  0  0  0  0  0  0  0  0
  139.0388   77.9079  219.4166 H   0  0  0  0  0  0  0  0  0  0  0  0
  140.5669   76.9658  220.7619 H   0  0  0  0  0  0  0  0  0  0  0  0
  142.2404   80.2659  220.4775 H   0  0  0  0  0  0  0  0  0  0  0  0
  143.1589   81.5301  222.3541 H   0  0  0  0  0  0  0  0  0  0  0  0
  142.8986   80.6885  224.6893 H   0  0  0  0  0  0  0  0  0  0  0  0
  141.7025   78.5604  225.0466 H   0  0  0  0  0  0  0  0  0  0  0  0
  140.7692   77.2802  223.1493 H   0  0  0  0  0  0  0  0  0  0  0  0
  141.9511   79.4682  218.5220 H   0  0  0  0  0  0  0  0  0  0  0  0
  142.7561   78.1184  217.6521 H   0  0  0  0  0  0  0  0  0  0  0  0
  140.9642   78.2450  217.6521 H   0  0  0  0  0  0  0  0  0  0  0  0
  142.6917   75.7234  221.4564 H   0  0  0  0  0  0  0  0  0  0  0  0
  144.4767   74.6879  219.3265 H   0  0  0  0  0  0  0  0  0  0  0  0
  144.7569   74.8019  221.0611 H   0  0  0  0  0  0  0  0  0  0  0  0
  144.2660   72.3827  220.0322 H   0  0  0  0  0  0  0  0  0  0  0  0
  143.4036   72.7516  221.4885 H   0  0  0  0  0  0  0  0  0  0  0  0
  142.4493   73.1030  218.5296 H   0  0  0  0  0  0  0  0  0  0  0  0
  141.5524   72.2954  219.7880 H   0  0  0  0  0  0  0  0  0  0  0  0
  139.4022   75.8502  221.5483 H   0  0  0  0  0  0  0  0  0  0  0  0
  138.4201   74.5916  220.5620 H   0  0  0  0  0  0  0  0  0  0  0  0
  139.4950   74.1720  223.1170 H   0  0  0  0  0  0  0  0  0  0  0  0
  138.8176   69.9410  221.8677 H   0  0  0  0  0  0  0  0  0  0  0  0
  139.0081   68.3135  223.7607 H   0  0  0  0  0  0  0  0  0  0  0  0
  139.7268   67.9361  226.0870 H   0  0  0  0  0  0  0  0  0  0  0  0
  141.4884   71.1338  228.3336 H   0  0  0  0  0  0  0  0  0  0  0  0
  141.2364   72.6164  226.3816 H   0  0  0  0  0  0  0  0  0  0  0  0
  1  2  1  0
  2  3  1  0
  3  4  2  0
  4  5  1  0
  5  6  2  0
  6  7  1  0
  7  8  2  0
  2  9  1  0
  9 10  1  0
  9 11  1  0
 11 12  2  0
 11 13  1  0
 13 14  1  0
 14 15  1  0
 15 16  1  0
 16 17  1  0
 17 18  1  0
 18 19  2  0
 18 20  1  0
 20 21  1  0
 21 22  1  0
 22 23  2  0
 22 24  1  0
 24 25  2  0
 25 26  1  0
 26 27  2  0
 27 28  1  0
 28 29  2  0
 29 30  1  0
 29 31  1  0
 31 32  2  0
 32 33  1  0
 33 34  2  0
  8  3  1  0
 17 13  1  0
 34 24  1  0
 33 27  1  0
  1 35  1  0
  1 36  1  0
  1 37  1  0
  2 38  1  1
  4 39  1  0
  5 40  1  0
  6 41  1  0
  7 42  1  0
  8 43  1  0
 10 44  1  0
 10 45  1  0
 10 46  1  0
 13 47  1  1
 14 48  1  0
 14 49  1  0
 15 50  1  0
 15 51  1  0
 16 52  1  0
 16 53  1  0
 20 54  1  0
 20 55  1  0
 21 56  1  0
 25 57  1  0
 26 58  1  0
 28 59  1  0
 31 60  1  0
 32 61  1  0
M  END
>  <smiles>  (32) 
C[C@H](c1ccccc1)N(C)C(=O)[C@@H]1CCCN1C(=O)CNC(=O)c1ccc2cc(Cl)ccc2n1

>  <score_type>  (32) 
oracle

>  <origin>  (32) 
autodockgpu

>  <m_score__min__energy>  (32) 
-9.0800000000000001

>  <m_primary>  (32) 
energy

>  <rmsd>  (32) 
3.4190515402342503

>  <m_score__min__rmsd>  (32) 
3.4190515402342503

>  <meeko>  (32) 
{"free_energy": -8.93, "intermolecular_energy": -11.32, "internal_energy": -2.67, "cluster_size": 24, "cluster_id": 1, "rank_in_cluster": 3}

>  <energy>  (32) 
-7.64

>  <cluster_rmsd>  (32) 
1.13

>  <cluster>  (32) 
2

$$$$

     RDKit          3D

 61 64  0  0  0  0  0  0  0  0999 V2000
  138.1780   79.0330  221.7750 C   0  0  0  0  0  0  0  0  0  0  0  0
  139.1620   78.2600  222.5580 C   0  0  2  0  0  0  0  0  0  0  0  0
  140.3760   79.0830  222.8500 C   0  0  0  0  0  0  0  0  0  0  0  0
  140.4270   80.3940  222.3570 C   0  0  0  0  0  0  0  0  0  0  0  0
  141.4810   81.2310  222.5950 C   0  0  0  0  0  0  0  0  0  0  0  0
  142.5560   80.8030  223.3470 C   0  0  0  0  0  0  0  0  0  0  0  0
  142.5230   79.5310  223.8350 C   0  0  0  0  0  0  0  0  0  0  0  0
  141.4440   78.6780  223.5910 C   0  0  0  0  0  0  0  0  0  0  0  0
  139.3880   76.9030  222.2270 N   0  0  0  0  0  0  0  0  0  0  0  0
  138.2500   75.9670  222.4920 C   0  0  0  0  0  0  0  0  0  0  0  0
  140.5260   76.2940  221.6830 C   0  0  0  0  0  0  0  0  0  0  0  0
  141.0730   75.3150  222.3420 O   0  0  0  0  0  0  0  0  0  0  0  0
  141.2340   76.5990  220.4180 C   0  0  2  0  0  0  0  0  0  0  0  0
  141.7900   77.9760  220.3600 C   0  0  0  0  0  0  0  0  0  0  0  0
  141.5440   78.4250  218.9310 C   0  0  0  0  0  0  0  0  0  0  0  0
  140.1110   77.8620  218.7090 C   0  0  0  0  0  0  0  0  0  0  0  0
  140.1910   76.5730  219.3630 N   0  0  0  0  0  0  0  0  0  0  0  0
  139.4490   75.3810  219.1330 C   0  0  0  0  0  0  0  0  0  0  0  0
  138.1870   75.5100  218.8250 O   0  0  0  0  0  0  0  0  0  0  0  0
  139.8980   74.0000  219.1990 C   0  0  0  0  0  0  0  0  0  0  0  0
  139.8810   73.3180  220.4340 N   0  0  0  0  0  0  0  0  0  0  0  0
  138.9570   72.2530  220.7410 C   0  0  0  0  0  0  0  0  0  0  0  0
  138.0890   71.8820  219.8810 O   0  0  0  0  0  0  0  0  0  0  0  0
  139.0200   71.5950  222.0490 C   0  0  0  0  0  0  0  0  0  0  0  0
  138.1780   70.5370  222.3070 C   0  0  0  0  0  0  0  0  0  0  0  0
  138.2070   69.8860  223.5380 C   0  0  0  0  0  0  0  0  0  0  0  0
  139.1030   70.3350  224.4850 C   0  0  0  0  0  0  0  0  0  0  0  0
  139.2190   69.7710  225.7290 C   0  0  0  0  0  0  0  0  0  0  0  0
  140.1200   70.2230  226.6820 C   0  0  0  0  0  0  0  0  0  0  0  0
  140.2430   69.4770  228.2660 Cl  0  0  0  0  0  0  0  0  0  0  0  0
  140.9320   71.2970  226.3400 C   0  0  0  0  0  0  0  0  0  0  0  0
  140.8330   71.8760  225.0980 C   0  0  0  0  0  0  0  0  0  0  0  0
  139.9290   71.4060  224.1720 C   0  0  0  0  0  0  0  0  0  0  0  0
  139.8860   72.0180  222.9840 N   0  0  0  0  0  0  0  0  0  0  0  0
  137.5010   79.5648  222.4597 H   0  0  0  0  0  0  0  0  0  0  0  0
  138.7047   79.7614  221.1409 H   0  0  0  0  0  0  0  0  0  0  0  0
  137.5950   78.3488  221.1409 H   0  0  0  0  0  0  0  0  0  0  0  0
  138.6506   78.0672  223.5126 H   0  0  0  0  0  0  0  0  0  0  0  0
  139.5847   80.7643  221.7541 H   0  0  0  0  0  0  0  0  0  0  0  0
  141.4723   82.2516  222.1848 H   0  0  0  0  0  0  0  0  0  0  0  0
  143.4108   81.4662  223.5458 H   0  0  0  0  0  0  0  0  0  0  0  0
  143.3684   79.1663  224.4370 H   0  0  0  0  0  0  0  0  0  0  0  0
  141.4575   77.6592  224.0056 H   0  0  0  0  0  0  0  0  0  0  0  0
  138.1131   75.8544  223.5776 H   0  0  0  0  0  0  0  0  0  0  0  0
  137.3299   76.3731  222.0465 H   0  0  0  0  0  0  0  0  0  0  0  0
  138.4709   74.9858  222.0465 H   0  0  0  0  0  0  0  0  0  0  0  0
  142.0594   75.8796  220.3117 H   0  0  0  0  0  0  0  0  0  0  0  0
  141.2696   78.6357  221.0699 H   0  0  0  0  0  0  0  0  0  0  0  0
  142.8555   78.0088  220.6313 H   0  0  0  0  0  0  0  0  0  0  0  0
  141.5703   79.5207  218.8379 H   0  0  0  0  0  0  0  0  0  0  0  0
  142.2933   78.0801  218.2033 H   0  0  0  0  0  0  0  0  0  0  0  0
  139.3518   78.5033  219.1806 H   0  0  0  0  0  0  0  0  0  0  0  0
  139.8149   77.8056  217.6511 H   0  0  0  0  0  0  0  0  0  0  0  0
  139.2638   73.4250  218.5082 H   0  0  0  0  0  0  0  0  0  0  0  0
  140.9692   74.0670  218.9580 H   0  0  0  0  0  0  0  0  0  0  0  0
  140.5580   73.5560  221.2170 H   0  0  0  0  0  0  0  0  0  0  0  0
  137.4736   70.2016  221.5315 H   0  0  0  0  0  0  0  0  0  0  0  0
  137.5360   69.0400  223.7481 H   0  0  0  0  0  0  0  0  0  0  0  0
  138.5681   68.9215  225.9831 H   0  0  0  0  0  0  0  0  0  0  0  0
  141.6588   71.6863  227.0681 H   0  0  0  0  0  0  0  0  0  0  0  0
  141.4835   72.7249  224.8405 H   0  0  0  0  0  0  0  0  0  0  0  0
  1  2  1  0
  2  3  1  0
  3  4  2  0
  4  5  1  0
  5  6  2  0
  6  7  1  0
  7  8  2  0
  2  9  1  0
  9 10  1  0
  9 11  1  0
 11 12  2  0
 11 13  1  0
 13 14  1  0
 14 15  1  0
 15 16  1  0
 16 17  1  0
 17 18  1  0
 18 19  2  0
 18 20  1  0
 20 21  1  0
 21 22  1  0
 22 23  2  0
 22 24  1  0
 24 25  2  0
 25 26  1  0
 26 27  2  0
 27 28  1  0
 28 29  2  0
 29 30  1  0
 29 31  1  0
 31 32  2  0
 32 33  1  0
 33 34  2  0
  8  3  1  0
 17 13  1  0
 34 24  1  0
 33 27  1  0
  1 35  1  0
  1 36  1  0
  1 37  1  0
  2 38  1  1
  4 39  1  0
  5 40  1  0
  6 41  1  0
  7 42  1  0
  8 43  1  0
 10 44  1  0
 10 45  1  0
 10 46  1  0
 13 47  1  6
 14 48  1  0
 14 49  1  0
 15 50  1  0
 15 51  1  0
 16 52  1  0
 16 53  1  0
 20 54  1  0
 20 55  1  0
 21 56  1  0
 25 57  1  0
 26 58  1  0
 28 59  1  0
 31 60  1  0
 32 61  1  0
M  END
>  <smiles>  (33) 
C[C@H](c1ccccc1)N(C)C(=O)[C@@H]1CCCN1C(=O)CNC(=O)c1ccc2cc(Cl)ccc2n1

>  <score_type>  (33) 
oracle

>  <origin>  (33) 
autodockgpu

>  <m_score__min__energy>  (33) 
-9.0800000000000001

>  <m_primary>  (33) 
energy

>  <rmsd>  (33) 
3.1230664100879864

>  <m_score__min__rmsd>  (33) 
3.1230664100879864

>  <meeko>  (33) 
{"free_energy": -7.22, "intermolecular_energy": -9.6, "internal_energy": -3.69, "cluster_size": 24, "cluster_id": 1, "rank_in_cluster": 24}

>  <energy>  (33) 
-7.62

>  <cluster_rmsd>  (33) 
1.37

>  <cluster>  (33) 
2

$$$$

     RDKit          3D

 61 64  0  0  0  0  0  0  0  0999 V2000
  140.7020   71.8610  224.3550 C   0  0  0  0  0  0  0  0  0  0  0  0
  139.5020   71.0730  224.7020 C   0  0  2  0  0  0  0  0  0  0  0  0
  139.7970   70.1120  225.8090 C   0  0  0  0  0  0  0  0  0  0  0  0
  139.5010   68.7560  225.6090 C   0  0  0  0  0  0  0  0  0  0  0  0
  139.7600   67.7990  226.5510 C   0  0  0  0  0  0  0  0  0  0  0  0
  140.3340   68.1440  227.7580 C   0  0  0  0  0  0  0  0  0  0  0  0
  140.6280   69.4590  227.9680 C   0  0  0  0  0  0  0  0  0  0  0  0
  140.3630   70.4340  227.0040 C   0  0  0  0  0  0  0  0  0  0  0  0
  138.6710   70.5960  223.6610 N   0  0  0  0  0  0  0  0  0  0  0  0
  139.3720   69.9380  222.5130 C   0  0  0  0  0  0  0  0  0  0  0  0
  137.2770   70.6460  223.5370 C   0  0  0  0  0  0  0  0  0  0  0  0
  136.7680   70.7400  222.3440 O   0  0  0  0  0  0  0  0  0  0  0  0
  136.2430   70.6030  224.5980 C   0  0  2  0  0  0  0  0  0  0  0  0
  135.5890   69.2780  224.7430 C   0  0  0  0  0  0  0  0  0  0  0  0
  134.1280   69.6010  225.0020 C   0  0  0  0  0  0  0  0  0  0  0  0
  133.9230   70.7680  223.9930 C   0  0  0  0  0  0  0  0  0  0  0  0
  135.1600   71.5060  224.1330 N   0  0  0  0  0  0  0  0  0  0  0  0
  135.4400   72.8800  223.8960 C   0  0  0  0  0  0  0  0  0  0  0  0
  135.3490   73.6950  224.9110 O   0  0  0  0  0  0  0  0  0  0  0  0
  135.8190   73.5320  222.6520 C   0  0  0  0  0  0  0  0  0  0  0  0
  137.1760   73.5680  222.2680 N   0  0  0  0  0  0  0  0  0  0  0  0
  137.9410   74.7870  222.1670 C   0  0  0  0  0  0  0  0  0  0  0  0
  137.3980   75.9140  222.4210 O   0  0  0  0  0  0  0  0  0  0  0  0
  139.3500   74.7250  221.7690 C   0  0  0  0  0  0  0  0  0  0  0  0
  140.0170   75.8960  221.4840 C   0  0  0  0  0  0  0  0  0  0  0  0
  141.3560   75.8800  221.1030 C   0  0  0  0  0  0  0  0  0  0  0  0
  141.9890   74.6570  221.0190 C   0  0  0  0  0  0  0  0  0  0  0  0
  143.3030   74.5210  220.6540 C   0  0  0  0  0  0  0  0  0  0  0  0
  143.9400   73.2920  220.5710 C   0  0  0  0  0  0  0  0  0  0  0  0
  145.6260   73.1530  220.1000 Cl  0  0  0  0  0  0  0  0  0  0  0  0
  143.1940   72.1600  220.8740 C   0  0  0  0  0  0  0  0  0  0  0  0
  141.8750   72.2740  221.2420 C   0  0  0  0  0  0  0  0  0  0  0  0
  141.2690   73.5080  221.3170 C   0  0  0  0  0  0  0  0  0  0  0  0
  139.9840   73.5450  221.6820 N   0  0  0  0  0  0  0  0  0  0  0  0
  141.2036   72.1904  225.2769 H   0  0  0  0  0  0  0  0  0  0  0  0
  141.3911   71.2390  223.7648 H   0  0  0  0  0  0  0  0  0  0  0  0
  140.4051   72.7405  223.7648 H   0  0  0  0  0  0  0  0  0  0  0  0
  138.7940   71.8210  225.0882 H   0  0  0  0  0  0  0  0  0  0  0  0
  139.0425   68.4500  224.6571 H   0  0  0  0  0  0  0  0  0  0  0  0
  139.5093   66.7478  226.3456 H   0  0  0  0  0  0  0  0  0  0  0  0
  140.5470   67.3842  228.5243 H   0  0  0  0  0  0  0  0  0  0  0  0
  141.0860   69.7596  228.9219 H   0  0  0  0  0  0  0  0  0  0  0  0
  140.6169   71.4833  227.2148 H   0  0  0  0  0  0  0  0  0  0  0  0
  140.1234   69.2327  222.8978 H   0  0  0  0  0  0  0  0  0  0  0  0
  138.6391   69.3941  221.8990 H   0  0  0  0  0  0  0  0  0  0  0  0
  139.8685   70.7038  221.8990 H   0  0  0  0  0  0  0  0  0  0  0  0
  136.7262   70.8642  225.5510 H   0  0  0  0  0  0  0  0  0  0  0  0
  135.6991   68.6872  223.8217 H   0  0  0  0  0  0  0  0  0  0  0  0
  136.0341   68.6781  225.5505 H   0  0  0  0  0  0  0  0  0  0  0  0
  133.4748   68.7457  224.7744 H   0  0  0  0  0  0  0  0  0  0  0  0
  133.8870   69.8459  226.0470 H   0  0  0  0  0  0  0  0  0  0  0  0
  133.7956   70.3919  222.9672 H   0  0  0  0  0  0  0  0  0  0  0  0
  133.0227   71.3696  224.1869 H   0  0  0  0  0  0  0  0  0  0  0  0
  135.2723   73.0222  221.8450 H   0  0  0  0  0  0  0  0  0  0  0  0
  135.5751   74.5894  222.8318 H   0  0  0  0  0  0  0  0  0  0  0  0
  137.7160   72.6850  222.0300 H   0  0  0  0  0  0  0  0  0  0  0  0
  139.4850   76.8559  221.5584 H   0  0  0  0  0  0  0  0  0  0  0  0
  141.8924   76.8131  220.8761 H   0  0  0  0  0  0  0  0  0  0  0  0
  143.8784   75.4278  220.4161 H   0  0  0  0  0  0  0  0  0  0  0  0
  143.6621   71.1661  220.8190 H   0  0  0  0  0  0  0  0  0  0  0  0
  141.2966   71.3689  221.4794 H   0  0  0  0  0  0  0  0  0  0  0  0
  1  2  1  0
  2  3  1  0
  3  4  2  0
  4  5  1  0
  5  6  2  0
  6  7  1  0
  7  8  2  0
  2  9  1  0
  9 10  1  0
  9 11  1  0
 11 12  2  0
 11 13  1  0
 13 14  1  0
 14 15  1  0
 15 16  1  0
 16 17  1  0
 17 18  1  0
 18 19  2  0
 18 20  1  0
 20 21  1  0
 21 22  1  0
 22 23  2  0
 22 24  1  0
 24 25  2  0
 25 26  1  0
 26 27  2  0
 27 28  1  0
 28 29  2  0
 29 30  1  0
 29 31  1  0
 31 32  2  0
 32 33  1  0
 33 34  2  0
  8  3  1  0
 17 13  1  0
 34 24  1  0
 33 27  1  0
  1 35  1  0
  1 36  1  0
  1 37  1  0
  2 38  1  1
  4 39  1  0
  5 40  1  0
  6 41  1  0
  7 42  1  0
  8 43  1  0
 10 44  1  0
 10 45  1  0
 10 46  1  0
 13 47  1  1
 14 48  1  0
 14 49  1  0
 15 50  1  0
 15 51  1  0
 16 52  1  0
 16 53  1  0
 20 54  1  0
 20 55  1  0
 21 56  1  0
 25 57  1  0
 26 58  1  0
 28 59  1  0
 31 60  1  0
 32 61  1  0
M  END
>  <smiles>  (34) 
C[C@H](c1ccccc1)N(C)C(=O)[C@@H]1CCCN1C(=O)CNC(=O)c1ccc2cc(Cl)ccc2n1

>  <score_type>  (34) 
oracle

>  <origin>  (34) 
autodockgpu

>  <m_score__min__energy>  (34) 
-9.0800000000000001

>  <m_primary>  (34) 
energy

>  <rmsd>  (34) 
9.34990398699698

>  <m_score__min__rmsd>  (34) 
9.34990398699698

>  <meeko>  (34) 
{"free_energy": -7.12, "intermolecular_energy": -9.51, "internal_energy": -3.74, "cluster_size": 2, "cluster_id": 8, "rank_in_cluster": 2}

>  <energy>  (34) 
-7.43

>  <cluster_rmsd>  (34) 
1.2

>  <cluster>  (34) 
2

$$$$

     RDKit          3D

 61 64  0  0  0  0  0  0  0  0999 V2000
  142.5940   76.8170  218.8850 C   0  0  0  0  0  0  0  0  0  0  0  0
  141.7780   76.3240  220.0110 C   0  0  2  0  0  0  0  0  0  0  0  0
  141.5500   77.4060  221.0180 C   0  0  0  0  0  0  0  0  0  0  0  0
  141.8350   78.7290  220.6500 C   0  0  0  0  0  0  0  0  0  0  0  0
  141.6330   79.7870  221.4910 C   0  0  0  0  0  0  0  0  0  0  0  0
  141.1300   79.5850  222.7600 C   0  0  0  0  0  0  0  0  0  0  0  0
  140.8470   78.3050  223.1340 C   0  0  0  0  0  0  0  0  0  0  0  0
  141.0530   77.2250  222.2720 C   0  0  0  0  0  0  0  0  0  0  0  0
  142.0290   75.0300  220.5260 N   0  0  0  0  0  0  0  0  0  0  0  0
  143.4540   74.5720  220.4770 C   0  0  0  0  0  0  0  0  0  0  0  0
  141.1400   74.1010  221.0800 C   0  0  0  0  0  0  0  0  0  0  0  0
  140.6820   74.3270  222.2770 O   0  0  0  0  0  0  0  0  0  0  0  0
  140.6120   72.8480  220.4930 C   0  0  2  0  0  0  0  0  0  0  0  0
  141.6330   72.0520  219.7640 C   0  0  0  0  0  0  0  0  0  0  0  0
  140.9000   71.5190  218.5460 C   0  0  0  0  0  0  0  0  0  0  0  0
  140.0730   72.7760  218.1510 C   0  0  0  0  0  0  0  0  0  0  0  0
  139.6530   73.2750  219.4440 N   0  0  0  0  0  0  0  0  0  0  0  0
  138.5230   74.0630  219.8000 C   0  0  0  0  0  0  0  0  0  0  0  0
  138.0300   74.8530  218.8850 O   0  0  0  0  0  0  0  0  0  0  0  0
  137.8170   74.1250  221.0700 C   0  0  0  0  0  0  0  0  0  0  0  0
  138.2020   73.2700  222.1240 N   0  0  0  0  0  0  0  0  0  0  0  0
  137.9340   71.8520  222.1350 C   0  0  0  0  0  0  0  0  0  0  0  0
  137.3120   71.3040  221.1640 O   0  0  0  0  0  0  0  0  0  0  0  0
  138.3810   71.0400  223.2700 C   0  0  0  0  0  0  0  0  0  0  0  0
  137.8540   69.7800  223.4400 C   0  0  0  0  0  0  0  0  0  0  0  0
  138.2520   68.9760  224.5060 C   0  0  0  0  0  0  0  0  0  0  0  0
  139.1870   69.4850  225.3820 C   0  0  0  0  0  0  0  0  0  0  0  0
  139.6520   68.7860  226.4660 C   0  0  0  0  0  0  0  0  0  0  0  0
  140.5930   69.2970  227.3470 C   0  0  0  0  0  0  0  0  0  0  0  0
  141.1670   68.3730  228.7260 Cl  0  0  0  0  0  0  0  0  0  0  0  0
  141.0730   70.5780  227.1040 C   0  0  0  0  0  0  0  0  0  0  0  0
  140.6200   71.2960  226.0230 C   0  0  0  0  0  0  0  0  0  0  0  0
  139.6860   70.7620  225.1650 C   0  0  0  0  0  0  0  0  0  0  0  0
  139.2910   71.5180  224.1340 N   0  0  0  0  0  0  0  0  0  0  0  0
  143.4742   77.3488  219.2753 H   0  0  0  0  0  0  0  0  0  0  0  0
  142.9225   75.9661  218.2701 H   0  0  0  0  0  0  0  0  0  0  0  0
  141.9936   77.5036  218.2701 H   0  0  0  0  0  0  0  0  0  0  0  0
  140.8081   76.0836  219.5511 H   0  0  0  0  0  0  0  0  0  0  0  0
  142.2371   78.9227  219.6446 H   0  0  0  0  0  0  0  0  0  0  0  0
  141.8729   80.8063  221.1542 H   0  0  0  0  0  0  0  0  0  0  0  0
  140.9631   80.4282  223.4465 H   0  0  0  0  0  0  0  0  0  0  0  0
  140.4459   78.1176  224.1410 H   0  0  0  0  0  0  0  0  0  0  0  0
  140.8087   76.2083  222.6136 H   0  0  0  0  0  0  0  0  0  0  0  0
  143.8352   74.4495  221.5015 H   0  0  0  0  0  0  0  0  0  0  0  0
  143.5119   73.6100  219.9467 H   0  0  0  0  0  0  0  0  0  0  0  0
  144.0616   75.3201  219.9467 H   0  0  0  0  0  0  0  0  0  0  0  0
  140.2056   72.2366  221.3121 H   0  0  0  0  0  0  0  0  0  0  0  0
  142.4786   72.6874  219.4619 H   0  0  0  0  0  0  0  0  0  0  0  0
  142.0566   71.2473  220.3829 H   0  0  0  0  0  0  0  0  0  0  0  0
  141.5970   71.2226  217.7483 H   0  0  0  0  0  0  0  0  0  0  0  0
  140.3039   70.6122  218.7262 H   0  0  0  0  0  0  0  0  0  0  0  0
  140.6937   73.5128  217.6201 H   0  0  0  0  0  0  0  0  0  0  0  0
  139.2402   72.5628  217.4647 H   0  0  0  0  0  0  0  0  0  0  0  0
  137.9179   75.1554  221.4415 H   0  0  0  0  0  0  0  0  0  0  0  0
  136.8030   73.7814  220.8175 H   0  0  0  0  0  0  0  0  0  0  0  0
  138.7180   73.6290  222.9800 H   0  0  0  0  0  0  0  0  0  0  0  0
  137.1085   69.4026  222.7246 H   0  0  0  0  0  0  0  0  0  0  0  0
  137.8339   67.9680  224.6442 H   0  0  0  0  0  0  0  0  0  0  0  0
  139.2607   67.7736  226.6450 H   0  0  0  0  0  0  0  0  0  0  0  0
  141.8195   71.0199  227.7803 H   0  0  0  0  0  0  0  0  0  0  0  0
  141.0085   72.3090  225.8417 H   0  0  0  0  0  0  0  0  0  0  0  0
  1  2  1  0
  2  3  1  0
  3  4  2  0
  4  5  1  0
  5  6  2  0
  6  7  1  0
  7  8  2  0
  2  9  1  0
  9 10  1  0
  9 11  1  0
 11 12  2  0
 11 13  1  0
 13 14  1  0
 14 15  1  0
 15 16  1  0
 16 17  1  0
 17 18  1  0
 18 19  2  0
 18 20  1  0
 20 21  1  0
 21 22  1  0
 22 23  2  0
 22 24  1  0
 24 25  2  0
 25 26  1  0
 26 27  2  0
 27 28  1  0
 28 29  2  0
 29 30  1  0
 29 31  1  0
 31 32  2  0
 32 33  1  0
 33 34  2  0
  8  3  1  0
 17 13  1  0
 34 24  1  0
 33 27  1  0
  1 35  1  0
  1 36  1  0
  1 37  1  0
  2 38  1  6
  4 39  1  0
  5 40  1  0
  6 41  1  0
  7 42  1  0
  8 43  1  0
 10 44  1  0
 10 45  1  0
 10 46  1  0
 13 47  1  1
 14 48  1  0
 14 49  1  0
 15 50  1  0
 15 51  1  0
 16 52  1  0
 16 53  1  0
 20 54  1  0
 20 55  1  0
 21 56  1  0
 25 57  1  0
 26 58  1  0
 28 59  1  0
 31 60  1  0
 32 61  1  0
M  END
>  <smiles>  (35) 
C[C@H](c1ccccc1)N(C)C(=O)[C@@H]1CCCN1C(=O)CNC(=O)c1ccc2cc(Cl)ccc2n1

>  <score_type>  (35) 
oracle

>  <origin>  (35) 
autodockgpu

>  <m_score__min__energy>  (35) 
-9.0800000000000001

>  <m_primary>  (35) 
energy

>  <rmsd>  (35) 
3.510332994341343

>  <m_score__min__rmsd>  (35) 
3.510332994341343

>  <meeko>  (35) 
{"free_energy": -7.75, "intermolecular_energy": -10.13, "internal_energy": -3.41, "cluster_size": 24, "cluster_id": 1, "rank_in_cluster": 21}

>  <energy>  (35) 
-7.43

>  <cluster_rmsd>  (35) 
1.47

>  <cluster>  (35) 
2

$$$$

     RDKit          3D

 61 64  0  0  0  0  0  0  0  0999 V2000
  142.9000   70.1810  219.9000 C   0  0  0  0  0  0  0  0  0  0  0  0
  142.7160   71.6450  219.9350 C   0  0  2  0  0  0  0  0  0  0  0  0
  144.0310   72.3450  220.0650 C   0  0  0  0  0  0  0  0  0  0  0  0
  144.7040   72.7220  218.8940 C   0  0  0  0  0  0  0  0  0  0  0  0
  145.8960   73.3890  218.9120 C   0  0  0  0  0  0  0  0  0  0  0  0
  146.4930   73.7220  220.1110 C   0  0  0  0  0  0  0  0  0  0  0  0
  145.8520   73.3640  221.2600 C   0  0  0  0  0  0  0  0  0  0  0  0
  144.6330   72.6820  221.2380 C   0  0  0  0  0  0  0  0  0  0  0  0
  141.6420   72.1840  220.6820 N   0  0  0  0  0  0  0  0  0  0  0  0
  140.7730   71.1900  221.3890 C   0  0  0  0  0  0  0  0  0  0  0  0
  141.2620   73.5190  220.8640 C   0  0  0  0  0  0  0  0  0  0  0  0
  140.9080   73.9010  222.0560 O   0  0  0  0  0  0  0  0  0  0  0  0
  141.1990   74.6160  219.8700 C   0  0  2  0  0  0  0  0  0  0  0  0
  142.2570   75.6440  220.0460 C   0  0  0  0  0  0  0  0  0  0  0  0
  141.5580   76.9610  219.7620 C   0  0  0  0  0  0  0  0  0  0  0  0
  140.2040   76.7150  220.4880 C   0  0  0  0  0  0  0  0  0  0  0  0
  139.9310   75.3340  220.1510 N   0  0  0  0  0  0  0  0  0  0  0  0
  138.6920   74.6390  220.0650 C   0  0  0  0  0  0  0  0  0  0  0  0
  138.3090   74.2400  218.8830 O   0  0  0  0  0  0  0  0  0  0  0  0
  137.7600   74.3010  221.1290 C   0  0  0  0  0  0  0  0  0  0  0  0
  138.1520   73.3970  222.1390 N   0  0  0  0  0  0  0  0  0  0  0  0
  137.6160   72.0630  222.2620 C   0  0  0  0  0  0  0  0  0  0  0  0
  136.7330   71.6430  221.4410 O   0  0  0  0  0  0  0  0  0  0  0  0
  138.0900   71.1890  223.3380 C   0  0  0  0  0  0  0  0  0  0  0  0
  137.5110   69.9510  223.5000 C   0  0  0  0  0  0  0  0  0  0  0  0
  137.9340   69.0910  224.5100 C   0  0  0  0  0  0  0  0  0  0  0  0
  138.9470   69.5210  225.3410 C   0  0  0  0  0  0  0  0  0  0  0  0
  139.4420   68.7600  226.3690 C   0  0  0  0  0  0  0  0  0  0  0  0
  140.4610   69.1920  227.2040 C   0  0  0  0  0  0  0  0  0  0  0  0
  141.0730   68.1910  228.5110 Cl  0  0  0  0  0  0  0  0  0  0  0  0
  140.9900   70.4550  226.9720 C   0  0  0  0  0  0  0  0  0  0  0  0
  140.5080   71.2340  225.9480 C   0  0  0  0  0  0  0  0  0  0  0  0
  139.4960   70.7790  225.1340 C   0  0  0  0  0  0  0  0  0  0  0  0
  139.0760   71.5900  224.1570 N   0  0  0  0  0  0  0  0  0  0  0  0
  142.9488   69.7929  220.9281 H   0  0  0  0  0  0  0  0  0  0  0  0
  142.0530   69.7175  219.3729 H   0  0  0  0  0  0  0  0  0  0  0  0
  143.8353   69.9415  219.3729 H   0  0  0  0  0  0  0  0  0  0  0  0
  142.3050   71.8847  218.9432 H   0  0  0  0  0  0  0  0  0  0  0  0
  144.2541   72.4706  217.9222 H   0  0  0  0  0  0  0  0  0  0  0  0
  146.3833   73.6625  217.9645 H   0  0  0  0  0  0  0  0  0  0  0  0
  147.4532   74.2580  220.1387 H   0  0  0  0  0  0  0  0  0  0  0  0
  146.3063   73.6187  222.2289 H   0  0  0  0  0  0  0  0  0  0  0  0
  144.1497   72.4118  222.1885 H   0  0  0  0  0  0  0  0  0  0  0  0
  140.8825   71.3152  222.4764 H   0  0  0  0  0  0  0  0  0  0  0  0
  139.7230   71.3535  221.1050 H   0  0  0  0  0  0  0  0  0  0  0  0
  141.0753   70.1712  221.1050 H   0  0  0  0  0  0  0  0  0  0  0  0
  141.3010   74.1708  218.8693 H   0  0  0  0  0  0  0  0  0  0  0  0
  142.6497   75.6259  221.0734 H   0  0  0  0  0  0  0  0  0  0  0  0
  143.1182   75.4759  219.3826 H   0  0  0  0  0  0  0  0  0  0  0  0
  142.1031   77.8132  220.1939 H   0  0  0  0  0  0  0  0  0  0  0  0
  141.4705   77.2168  218.6957 H   0  0  0  0  0  0  0  0  0  0  0  0
  140.3028   76.8495  221.5753 H   0  0  0  0  0  0  0  0  0  0  0  0
  139.4066   77.4114  220.1893 H   0  0  0  0  0  0  0  0  0  0  0  0
  137.4922   75.2429  221.6300 H   0  0  0  0  0  0  0  0  0  0  0  0
  136.9544   73.7664  220.6044 H   0  0  0  0  0  0  0  0  0  0  0  0
  138.8750   73.6530  222.8740 H   0  0  0  0  0  0  0  0  0  0  0  0
  136.7033   69.6368  222.8226 H   0  0  0  0  0  0  0  0  0  0  0  0
  137.4747   68.1001  224.6409 H   0  0  0  0  0  0  0  0  0  0  0  0
  139.0112   67.7622  226.5386 H   0  0  0  0  0  0  0  0  0  0  0  0
  141.8002   70.8341  227.6122 H   0  0  0  0  0  0  0  0  0  0  0  0
  140.9359   72.2328  225.7769 H   0  0  0  0  0  0  0  0  0  0  0  0
  1  2  1  0
  2  3  1  0
  3  4  2  0
  4  5  1  0
  5  6  2  0
  6  7  1  0
  7  8  2  0
  2  9  1  0
  9 10  1  0
  9 11  1  0
 11 12  2  0
 11 13  1  0
 13 14  1  0
 14 15  1  0
 15 16  1  0
 16 17  1  0
 17 18  1  0
 18 19  2  0
 18 20  1  0
 20 21  1  0
 21 22  1  0
 22 23  2  0
 22 24  1  0
 24 25  2  0
 25 26  1  0
 26 27  2  0
 27 28  1  0
 28 29  2  0
 29 30  1  0
 29 31  1  0
 31 32  2  0
 32 33  1  0
 33 34  2  0
  8  3  1  0
 17 13  1  0
 34 24  1  0
 33 27  1  0
  1 35  1  0
  1 36  1  0
  1 37  1  0
  2 38  1  6
  4 39  1  0
  5 40  1  0
  6 41  1  0
  7 42  1  0
  8 43  1  0
 10 44  1  0
 10 45  1  0
 10 46  1  0
 13 47  1  6
 14 48  1  0
 14 49  1  0
 15 50  1  0
 15 51  1  0
 16 52  1  0
 16 53  1  0
 20 54  1  0
 20 55  1  0
 21 56  1  0
 25 57  1  0
 26 58  1  0
 28 59  1  0
 31 60  1  0
 32 61  1  0
M  END
>  <smiles>  (36) 
C[C@H](c1ccccc1)N(C)C(=O)[C@@H]1CCCN1C(=O)CNC(=O)c1ccc2cc(Cl)ccc2n1

>  <score_type>  (36) 
oracle

>  <origin>  (36) 
autodockgpu

>  <m_score__min__energy>  (36) 
-9.0800000000000001

>  <m_primary>  (36) 
energy

>  <rmsd>  (36) 
5.971453744046508

>  <m_score__min__rmsd>  (36) 
5.971453744046508

>  <meeko>  (36) 
{"free_energy": -7.43, "intermolecular_energy": -9.81, "internal_energy": -3.65, "cluster_size": 13, "cluster_id": 2, "rank_in_cluster": 12}

>  <energy>  (36) 
-7.43

>  <cluster_rmsd>  (36) 
1.44

>  <cluster>  (36) 
2

$$$$

     RDKit          3D

 61 64  0  0  0  0  0  0  0  0999 V2000
  143.3170   76.1280  218.7490 C   0  0  0  0  0  0  0  0  0  0  0  0
  143.0890   75.2840  219.9380 C   0  0  2  0  0  0  0  0  0  0  0  0
  144.1550   74.2430  220.0650 C   0  0  0  0  0  0  0  0  0  0  0  0
  145.2790   74.5330  220.8520 C   0  0  0  0  0  0  0  0  0  0  0  0
  146.2910   73.6350  221.0500 C   0  0  0  0  0  0  0  0  0  0  0  0
  146.2390   72.3850  220.4690 C   0  0  0  0  0  0  0  0  0  0  0  0
  145.1530   72.0860  219.7010 C   0  0  0  0  0  0  0  0  0  0  0  0
  144.1200   73.0050  219.5010 C   0  0  0  0  0  0  0  0  0  0  0  0
  141.7710   74.8740  220.2450 N   0  0  0  0  0  0  0  0  0  0  0  0
  141.2170   73.7670  219.4030 C   0  0  0  0  0  0  0  0  0  0  0  0
  140.8930   75.3490  221.2270 C   0  0  0  0  0  0  0  0  0  0  0  0
  140.6230   74.5750  222.2380 O   0  0  0  0  0  0  0  0  0  0  0  0
  140.1960   76.6540  221.3050 C   0  0  2  0  0  0  0  0  0  0  0  0
  140.7000   77.5390  222.3860 C   0  0  0  0  0  0  0  0  0  0  0  0
  139.4540   78.1970  222.9510 C   0  0  0  0  0  0  0  0  0  0  0  0
  138.4810   76.9820  222.9570 C   0  0  0  0  0  0  0  0  0  0  0  0
  138.8020   76.3360  221.7020 N   0  0  0  0  0  0  0  0  0  0  0  0
  138.0050   75.5000  220.8720 C   0  0  0  0  0  0  0  0  0  0  0  0
  137.0770   76.0740  220.1540 O   0  0  0  0  0  0  0  0  0  0  0  0
  138.0670   74.0570  220.7020 C   0  0  0  0  0  0  0  0  0  0  0  0
  138.3870   73.2380  221.8060 N   0  0  0  0  0  0  0  0  0  0  0  0
  138.3000   71.7980  221.7780 C   0  0  0  0  0  0  0  0  0  0  0  0
  137.9100   71.1940  220.7230 O   0  0  0  0  0  0  0  0  0  0  0  0
  138.6630   71.0280  222.9720 C   0  0  0  0  0  0  0  0  0  0  0  0
  138.1320   69.7690  223.1420 C   0  0  0  0  0  0  0  0  0  0  0  0
  138.4520   69.0060  224.2630 C   0  0  0  0  0  0  0  0  0  0  0  0
  139.3120   69.5520  225.1910 C   0  0  0  0  0  0  0  0  0  0  0  0
  139.6960   68.8930  226.3310 C   0  0  0  0  0  0  0  0  0  0  0  0
  140.5620   69.4430  227.2650 C   0  0  0  0  0  0  0  0  0  0  0  0
  141.0340   68.5700  228.7140 Cl  0  0  0  0  0  0  0  0  0  0  0  0
  141.0510   70.7190  227.0160 C   0  0  0  0  0  0  0  0  0  0  0  0
  140.6790   71.3960  225.8800 C   0  0  0  0  0  0  0  0  0  0  0  0
  139.8180   70.8260  224.9700 C   0  0  0  0  0  0  0  0  0  0  0  0
  139.4990   71.5430  223.8870 N   0  0  0  0  0  0  0  0  0  0  0  0
  143.5915   77.1443  219.0679 H   0  0  0  0  0  0  0  0  0  0  0  0
  144.1318   75.7001  218.1464 H   0  0  0  0  0  0  0  0  0  0  0  0
  142.3976   76.1686  218.1464 H   0  0  0  0  0  0  0  0  0  0  0  0
  143.1977   75.9793  220.7834 H   0  0  0  0  0  0  0  0  0  0  0  0
  145.3493   75.5218  221.3288 H   0  0  0  0  0  0  0  0  0  0  0  0
  147.1520   73.9111  221.6765 H   0  0  0  0  0  0  0  0  0  0  0  0
  147.0468   71.6539  220.6203 H   0  0  0  0  0  0  0  0  0  0  0  0
  145.0885   71.0957  219.2266 H   0  0  0  0  0  0  0  0  0  0  0  0
  143.2609   72.7222  218.8749 H   0  0  0  0  0  0  0  0  0  0  0  0
  140.8203   72.9743  220.0543 H   0  0  0  0  0  0  0  0  0  0  0  0
  140.4086   74.1586  218.7680 H   0  0  0  0  0  0  0  0  0  0  0  0
  142.0150   73.3547  218.7680 H   0  0  0  0  0  0  0  0  0  0  0  0
  140.3287   77.1650  220.3400 H   0  0  0  0  0  0  0  0  0  0  0  0
  141.2149   76.9519  223.1607 H   0  0  0  0  0  0  0  0  0  0  0  0
  141.4308   78.2742  222.0179 H   0  0  0  0  0  0  0  0  0  0  0  0
  139.6238   78.5883  223.9650 H   0  0  0  0  0  0  0  0  0  0  0  0
  139.0974   79.0715  222.3871 H   0  0  0  0  0  0  0  0  0  0  0  0
  138.6769   76.3168  223.8109 H   0  0  0  0  0  0  0  0  0  0  0  0
  137.4216   77.2615  223.0547 H   0  0  0  0  0  0  0  0  0  0  0  0
  137.0790   73.7351  220.3412 H   0  0  0  0  0  0  0  0  0  0  0  0
  138.9188   73.9147  220.0207 H   0  0  0  0  0  0  0  0  0  0  0  0
  138.7150   73.6440  222.7310 H   0  0  0  0  0  0  0  0  0  0  0  0
  137.4473   69.3609  222.3840 H   0  0  0  0  0  0  0  0  0  0  0  0
  138.0313   67.9993  224.4029 H   0  0  0  0  0  0  0  0  0  0  0  0
  139.2996   67.8832  226.5129 H   0  0  0  0  0  0  0  0  0  0  0  0
  141.7400   71.1901  227.7325 H   0  0  0  0  0  0  0  0  0  0  0  0
  141.0741   72.4059  225.6954 H   0  0  0  0  0  0  0  0  0  0  0  0
  1  2  1  0
  2  3  1  0
  3  4  2  0
  4  5  1  0
  5  6  2  0
  6  7  1  0
  7  8  2  0
  2  9  1  0
  9 10  1  0
  9 11  1  0
 11 12  2  0
 11 13  1  0
 13 14  1  0
 14 15  1  0
 15 16  1  0
 16 17  1  0
 17 18  1  0
 18 19  2  0
 18 20  1  0
 20 21  1  0
 21 22  1  0
 22 23  2  0
 22 24  1  0
 24 25  2  0
 25 26  1  0
 26 27  2  0
 27 28  1  0
 28 29  2  0
 29 30  1  0
 29 31  1  0
 31 32  2  0
 32 33  1  0
 33 34  2  0
  8  3  1  0
 17 13  1  0
 34 24  1  0
 33 27  1  0
  1 35  1  0
  1 36  1  0
  1 37  1  0
  2 38  1  1
  4 39  1  0
  5 40  1  0
  6 41  1  0
  7 42  1  0
  8 43  1  0
 10 44  1  0
 10 45  1  0
 10 46  1  0
 13 47  1  6
 14 48  1  0
 14 49  1  0
 15 50  1  0
 15 51  1  0
 16 52  1  0
 16 53  1  0
 20 54  1  0
 20 55  1  0
 21 56  1  0
 25 57  1  0
 26 58  1  0
 28 59  1  0
 31 60  1  0
 32 61  1  0
M  END
>  <smiles>  (37) 
C[C@H](c1ccccc1)N(C)C(=O)[C@@H]1CCCN1C(=O)CNC(=O)c1ccc2cc(Cl)ccc2n1

>  <score_type>  (37) 
oracle

>  <origin>  (37) 
autodockgpu

>  <m_score__min__energy>  (37) 
-9.0800000000000001

>  <m_primary>  (37) 
energy

>  <rmsd>  (37) 
5.403433679644988

>  <m_score__min__rmsd>  (37) 
5.403433679644988

>  <meeko>  (37) 
{"free_energy": -8.71, "intermolecular_energy": -11.1, "internal_energy": -2.75, "cluster_size": 13, "cluster_id": 2, "rank_in_cluster": 1}

>  <energy>  (37) 
-7.31

>  <cluster_rmsd>  (37) 
1.43

>  <cluster>  (37) 
2

$$$$

     RDKit          3D

 61 64  0  0  0  0  0  0  0  0999 V2000
  138.9180   80.0630  223.8650 C   0  0  0  0  0  0  0  0  0  0  0  0
  140.2040   80.6490  223.4410 C   0  0  2  0  0  0  0  0  0  0  0  0
  139.9960   81.6790  222.3770 C   0  0  0  0  0  0  0  0  0  0  0  0
  138.6840   81.9510  221.9610 C   0  0  0  0  0  0  0  0  0  0  0  0
  138.3920   82.8940  221.0150 C   0  0  0  0  0  0  0  0  0  0  0  0
  139.4020   83.6270  220.4250 C   0  0  0  0  0  0  0  0  0  0  0  0
  140.6820   83.3760  220.8170 C   0  0  0  0  0  0  0  0  0  0  0  0
  140.9780   82.4120  221.7850 C   0  0  0  0  0  0  0  0  0  0  0  0
  141.3250   79.8010  223.2820 N   0  0  0  0  0  0  0  0  0  0  0  0
  142.6150   80.3070  223.8490 C   0  0  0  0  0  0  0  0  0  0  0  0
  141.4150   78.5450  222.6680 C   0  0  0  0  0  0  0  0  0  0  0  0
  141.4870   77.4930  223.4290 O   0  0  0  0  0  0  0  0  0  0  0  0
  141.4390   78.2100  221.2250 C   0  0  2  0  0  0  0  0  0  0  0  0
  141.6780   79.3810  220.3430 C   0  0  0  0  0  0  0  0  0  0  0  0
  140.7630   79.1540  219.1540 C   0  0  0  0  0  0  0  0  0  0  0  0
  139.4910   78.6320  219.8820 C   0  0  0  0  0  0  0  0  0  0  0  0
  140.0600   77.7710  220.8970 N   0  0  0  0  0  0  0  0  0  0  0  0
  139.5010   76.6460  221.5640 C   0  0  0  0  0  0  0  0  0  0  0  0
  138.8560   76.8680  222.6780 O   0  0  0  0  0  0  0  0  0  0  0  0
  139.5450   75.2430  221.1820 C   0  0  0  0  0  0  0  0  0  0  0  0
  139.6060   74.2500  222.1830 N   0  0  0  0  0  0  0  0  0  0  0  0
  139.8560   72.8560  221.9040 C   0  0  0  0  0  0  0  0  0  0  0  0
  140.0280   72.4580  220.7030 O   0  0  0  0  0  0  0  0  0  0  0  0
  139.9110   71.8960  223.0090 C   0  0  0  0  0  0  0  0  0  0  0  0
  139.4490   70.6150  222.8070 C   0  0  0  0  0  0  0  0  0  0  0  0
  139.4850   69.6730  223.8320 C   0  0  0  0  0  0  0  0  0  0  0  0
  139.9940   70.0650  225.0510 C   0  0  0  0  0  0  0  0  0  0  0  0
  140.0780   69.2240  226.1310 C   0  0  0  0  0  0  0  0  0  0  0  0
  140.5910   69.6190  227.3580 C   0  0  0  0  0  0  0  0  0  0  0  0
  140.6830   68.5150  228.7200 Cl  0  0  0  0  0  0  0  0  0  0  0  0
  141.0340   70.9300  227.4770 C   0  0  0  0  0  0  0  0  0  0  0  0
  140.9600   71.7890  226.4080 C   0  0  0  0  0  0  0  0  0  0  0  0
  140.4460   71.3690  225.2010 C   0  0  0  0  0  0  0  0  0  0  0  0
  140.4040   72.2590  224.2040 N   0  0  0  0  0  0  0  0  0  0  0  0
  138.8696   80.0410  224.9637 H   0  0  0  0  0  0  0  0  0  0  0  0
  138.0904   80.6729  223.4737 H   0  0  0  0  0  0  0  0  0  0  0  0
  138.8352   79.0383  223.4737 H   0  0  0  0  0  0  0  0  0  0  0  0
  140.5699   81.1653  224.3407 H   0  0  0  0  0  0  0  0  0  0  0  0
  137.8578   81.3832  222.4137 H   0  0  0  0  0  0  0  0  0  0  0  0
  137.3463   83.0696  220.7224 H   0  0  0  0  0  0  0  0  0  0  0  0
  139.1803   84.3889  219.6632 H   0  0  0  0  0  0  0  0  0  0  0  0
  141.5040   83.9466  220.3601 H   0  0  0  0  0  0  0  0  0  0  0  0
  142.0257   82.2425  222.0741 H   0  0  0  0  0  0  0  0  0  0  0  0
  142.5653   80.2875  224.9477 H   0  0  0  0  0  0  0  0  0  0  0  0
  143.4417   79.6665  223.5079 H   0  0  0  0  0  0  0  0  0  0  0  0
  142.7858   81.3388  223.5079 H   0  0  0  0  0  0  0  0  0  0  0  0
  142.2412   77.4752  221.0623 H   0  0  0  0  0  0  0  0  0  0  0  0
  141.4187   80.3166  220.8601 H   0  0  0  0  0  0  0  0  0  0  0  0
  142.7334   79.4733  220.0470 H   0  0  0  0  0  0  0  0  0  0  0  0
  140.5654   80.0881  218.6077 H   0  0  0  0  0  0  0  0  0  0  0  0
  141.1647   78.4781  218.3847 H   0  0  0  0  0  0  0  0  0  0  0  0
  138.9203   79.4578  220.3319 H   0  0  0  0  0  0  0  0  0  0  0  0
  138.7759   78.1241  219.2182 H   0  0  0  0  0  0  0  0  0  0  0  0
  138.6395   75.0445  220.5898 H   0  0  0  0  0  0  0  0  0  0  0  0
  140.5112   75.1471  220.6651 H   0  0  0  0  0  0  0  0  0  0  0  0
  139.4690   74.4780  223.2110 H   0  0  0  0  0  0  0  0  0  0  0  0
  139.0463   70.3319  221.8233 H   0  0  0  0  0  0  0  0  0  0  0  0
  139.1186   68.6480  223.6735 H   0  0  0  0  0  0  0  0  0  0  0  0
  139.7224   68.1891  226.0193 H   0  0  0  0  0  0  0  0  0  0  0  0
  141.4468   71.2826  228.4337 H   0  0  0  0  0  0  0  0  0  0  0  0
  141.3153   72.8243  226.5169 H   0  0  0  0  0  0  0  0  0  0  0  0
  1  2  1  0
  2  3  1  0
  3  4  2  0
  4  5  1  0
  5  6  2  0
  6  7  1  0
  7  8  2  0
  2  9  1  0
  9 10  1  0
  9 11  1  0
 11 12  2  0
 11 13  1  0
 13 14  1  0
 14 15  1  0
 15 16  1  0
 16 17  1  0
 17 18  1  0
 18 19  2  0
 18 20  1  0
 20 21  1  0
 21 22  1  0
 22 23  2  0
 22 24  1  0
 24 25  2  0
 25 26  1  0
 26 27  2  0
 27 28  1  0
 28 29  2  0
 29 30  1  0
 29 31  1  0
 31 32  2  0
 32 33  1  0
 33 34  2  0
  8  3  1  0
 17 13  1  0
 34 24  1  0
 33 27  1  0
  1 35  1  0
  1 36  1  0
  1 37  1  0
  2 38  1  1
  4 39  1  0
  5 40  1  0
  6 41  1  0
  7 42  1  0
  8 43  1  0
 10 44  1  0
 10 45  1  0
 10 46  1  0
 13 47  1  1
 14 48  1  0
 14 49  1  0
 15 50  1  0
 15 51  1  0
 16 52  1  0
 16 53  1  0
 20 54  1  0
 20 55  1  0
 21 56  1  0
 25 57  1  0
 26 58  1  0
 28 59  1  0
 31 60  1  0
 32 61  1  0
M  END
>  <smiles>  (38) 
C[C@H](c1ccccc1)N(C)C(=O)[C@@H]1CCCN1C(=O)CNC(=O)c1ccc2cc(Cl)ccc2n1

>  <score_type>  (38) 
oracle

>  <origin>  (38) 
autodockgpu

>  <m_score__min__energy>  (38) 
-9.0800000000000001

>  <m_primary>  (38) 
energy

>  <rmsd>  (38) 
2.496496749761164

>  <m_score__min__rmsd>  (38) 
2.496496749761164

>  <meeko>  (38) 
{"free_energy": -8.49, "intermolecular_energy": -10.88, "internal_energy": -2.78, "cluster_size": 3, "cluster_id": 4, "rank_in_cluster": 1}

>  <energy>  (38) 
-8.57

>  <cluster_rmsd>  (38) 
0.0

>  <cluster>  (38) 
3

$$$$

     RDKit          3D

 61 64  0  0  0  0  0  0  0  0999 V2000
  144.6080   73.5930  220.5560 C   0  0  0  0  0  0  0  0  0  0  0  0
  143.1740   73.4050  220.8510 C   0  0  2  0  0  0  0  0  0  0  0  0
  142.7260   72.0320  220.4630 C   0  0  0  0  0  0  0  0  0  0  0  0
  141.3640   71.7160  220.5840 C   0  0  0  0  0  0  0  0  0  0  0  0
  140.8560   70.4990  220.2280 C   0  0  0  0  0  0  0  0  0  0  0  0
  141.6840   69.5160  219.7260 C   0  0  0  0  0  0  0  0  0  0  0  0
  143.0110   69.8050  219.6010 C   0  0  0  0  0  0  0  0  0  0  0  0
  143.5270   71.0510  219.9650 C   0  0  0  0  0  0  0  0  0  0  0  0
  142.2730   74.4600  220.5780 N   0  0  0  0  0  0  0  0  0  0  0  0
  142.4860   75.1840  219.2840 C   0  0  0  0  0  0  0  0  0  0  0  0
  141.1990   74.9380  221.3390 C   0  0  0  0  0  0  0  0  0  0  0  0
  140.6900   74.1550  222.2450 O   0  0  0  0  0  0  0  0  0  0  0  0
  140.5230   76.2550  221.2770 C   0  0  2  0  0  0  0  0  0  0  0  0
  140.8640   77.1570  222.4070 C   0  0  0  0  0  0  0  0  0  0  0  0
  139.5560   77.8460  222.7510 C   0  0  0  0  0  0  0  0  0  0  0  0
  138.5730   76.6470  222.6270 C   0  0  0  0  0  0  0  0  0  0  0  0
  139.0780   75.9680  221.4520 N   0  0  0  0  0  0  0  0  0  0  0  0
  138.4080   75.1250  220.5220 C   0  0  0  0  0  0  0  0  0  0  0  0
  138.2930   75.5560  219.2950 O   0  0  0  0  0  0  0  0  0  0  0  0
  137.8110   73.8170  220.7420 C   0  0  0  0  0  0  0  0  0  0  0  0
  138.2440   73.0250  221.8260 N   0  0  0  0  0  0  0  0  0  0  0  0
  138.1320   71.5870  221.8550 C   0  0  0  0  0  0  0  0  0  0  0  0
  137.6120   70.9600  220.8720 O   0  0  0  0  0  0  0  0  0  0  0  0
  138.6190   70.8470  223.0220 C   0  0  0  0  0  0  0  0  0  0  0  0
  138.3470   69.5010  223.1220 C   0  0  0  0  0  0  0  0  0  0  0  0
  138.7920   68.7620  224.2150 C   0  0  0  0  0  0  0  0  0  0  0  0
  139.5110   69.4210  225.1900 C   0  0  0  0  0  0  0  0  0  0  0  0
  139.9980   68.7960  226.3090 C   0  0  0  0  0  0  0  0  0  0  0  0
  140.7210   69.4590  227.2890 C   0  0  0  0  0  0  0  0  0  0  0  0
  141.3320   68.6270  228.7100 Cl  0  0  0  0  0  0  0  0  0  0  0  0
  140.9510   70.8170  227.1110 C   0  0  0  0  0  0  0  0  0  0  0  0
  140.4720   71.4630  225.9970 C   0  0  0  0  0  0  0  0  0  0  0  0
  139.7570   70.7790  225.0390 C   0  0  0  0  0  0  0  0  0  0  0  0
  139.3210   71.4710  223.9810 N   0  0  0  0  0  0  0  0  0  0  0  0
  145.1697   73.6666  221.4989 H   0  0  0  0  0  0  0  0  0  0  0  0
  144.9782   72.7357  219.9746 H   0  0  0  0  0  0  0  0  0  0  0  0
  144.7447   74.5168  219.9746 H   0  0  0  0  0  0  0  0  0  0  0  0
  143.1157   73.4800  221.9469 H   0  0  0  0  0  0  0  0  0  0  0  0
  140.6782   72.4788  220.9814 H   0  0  0  0  0  0  0  0  0  0  0  0
  139.7800   70.3014  220.3422 H   0  0  0  0  0  0  0  0  0  0  0  0
  141.2870   68.5319  219.4362 H   0  0  0  0  0  0  0  0  0  0  0  0
  143.6919   69.0378  219.2037 H   0  0  0  0  0  0  0  0  0  0  0  0
  144.6036   71.2433  219.8466 H   0  0  0  0  0  0  0  0  0  0  0  0
  142.7910   76.2207  219.4897 H   0  0  0  0  0  0  0  0  0  0  0  0
  143.2733   74.6780  218.7060 H   0  0  0  0  0  0  0  0  0  0  0  0
  141.5501   75.1850  218.7060 H   0  0  0  0  0  0  0  0  0  0  0  0
  140.8178   76.7411  220.3353 H   0  0  0  0  0  0  0  0  0  0  0  0
  141.2373   76.5801  223.2660 H   0  0  0  0  0  0  0  0  0  0  0  0
  141.6578   77.8725  222.1464 H   0  0  0  0  0  0  0  0  0  0  0  0
  139.5687   78.2588  223.7706 H   0  0  0  0  0  0  0  0  0  0  0  0
  139.3101   78.7118  222.1186 H   0  0  0  0  0  0  0  0  0  0  0  0
  138.6186   75.9987  223.5145 H   0  0  0  0  0  0  0  0  0  0  0  0
  137.5167   76.9441  222.5495 H   0  0  0  0  0  0  0  0  0  0  0  0
  136.7310   73.9776  220.8755 H   0  0  0  0  0  0  0  0  0  0  0  0
  138.1266   73.2396  219.8605 H   0  0  0  0  0  0  0  0  0  0  0  0
  138.6840   73.4530  222.6940 H   0  0  0  0  0  0  0  0  0  0  0  0
  137.7708   69.0031  222.3283 H   0  0  0  0  0  0  0  0  0  0  0  0
  138.5769   67.6865  224.2981 H   0  0  0  0  0  0  0  0  0  0  0  0
  139.8065   67.7201  226.4350 H   0  0  0  0  0  0  0  0  0  0  0  0
  141.5201   71.3788  227.8664 H   0  0  0  0  0  0  0  0  0  0  0  0
  140.6618   72.5389  225.8688 H   0  0  0  0  0  0  0  0  0  0  0  0
  1  2  1  0
  2  3  1  0
  3  4  2  0
  4  5  1  0
  5  6  2  0
  6  7  1  0
  7  8  2  0
  2  9  1  0
  9 10  1  0
  9 11  1  0
 11 12  2  0
 11 13  1  0
 13 14  1  0
 14 15  1  0
 15 16  1  0
 16 17  1  0
 17 18  1  0
 18 19  2  0
 18 20  1  0
 20 21  1  0
 21 22  1  0
 22 23  2  0
 22 24  1  0
 24 25  2  0
 25 26  1  0
 26 27  2  0
 27 28  1  0
 28 29  2  0
 29 30  1  0
 29 31  1  0
 31 32  2  0
 32 33  1  0
 33 34  2  0
  8  3  1  0
 17 13  1  0
 34 24  1  0
 33 27  1  0
  1 35  1  0
  1 36  1  0
  1 37  1  0
  2 38  1  1
  4 39  1  0
  5 40  1  0
  6 41  1  0
  7 42  1  0
  8 43  1  0
 10 44  1  0
 10 45  1  0
 10 46  1  0
 13 47  1  6
 14 48  1  0
 14 49  1  0
 15 50  1  0
 15 51  1  0
 16 52  1  0
 16 53  1  0
 20 54  1  0
 20 55  1  0
 21 56  1  0
 25 57  1  0
 26 58  1  0
 28 59  1  0
 31 60  1  0
 32 61  1  0
M  END
>  <smiles>  (39) 
C[C@H](c1ccccc1)N(C)C(=O)[C@@H]1CCCN1C(=O)CNC(=O)c1ccc2cc(Cl)ccc2n1

>  <score_type>  (39) 
oracle

>  <origin>  (39) 
autodockgpu

>  <m_score__min__energy>  (39) 
-9.0800000000000001

>  <m_primary>  (39) 
energy

>  <rmsd>  (39) 
5.874623130679773

>  <m_score__min__rmsd>  (39) 
5.874623130679773

>  <meeko>  (39) 
{"free_energy": -7.43, "intermolecular_energy": -9.81, "internal_energy": -3.87, "cluster_size": 13, "cluster_id": 2, "rank_in_cluster": 11}

>  <energy>  (39) 
-8.52

>  <cluster_rmsd>  (39) 
1.06

>  <cluster>  (39) 
3

$$$$

     RDKit          3D

 61 64  0  0  0  0  0  0  0  0999 V2000
  138.0100   78.3270  222.7180 C   0  0  0  0  0  0  0  0  0  0  0  0
  139.3470   77.7140  222.5860 C   0  0  2  0  0  0  0  0  0  0  0  0
  140.4170   78.7580  222.6190 C   0  0  0  0  0  0  0  0  0  0  0  0
  141.5320   78.5420  223.4420 C   0  0  0  0  0  0  0  0  0  0  0  0
  142.5730   79.4240  223.5180 C   0  0  0  0  0  0  0  0  0  0  0  0
  142.5620   80.5840  222.7700 C   0  0  0  0  0  0  0  0  0  0  0  0
  141.4860   80.8100  221.9640 C   0  0  0  0  0  0  0  0  0  0  0  0
  140.4230   79.9060  221.8880 C   0  0  0  0  0  0  0  0  0  0  0  0
  139.5290   76.6580  221.6620 N   0  0  0  0  0  0  0  0  0  0  0  0
  138.3440   76.3220  220.8110 C   0  0  0  0  0  0  0  0  0  0  0  0
  140.6590   75.8680  221.4200 C   0  0  0  0  0  0  0  0  0  0  0  0
  140.8020   74.7720  222.1050 O   0  0  0  0  0  0  0  0  0  0  0  0
  141.7670   76.0920  220.4620 C   0  0  2  0  0  0  0  0  0  0  0  0
  142.1740   77.5150  220.3380 C   0  0  0  0  0  0  0  0  0  0  0  0
  142.4540   77.7040  218.8590 C   0  0  0  0  0  0  0  0  0  0  0  0
  141.2730   76.8940  218.2500 C   0  0  0  0  0  0  0  0  0  0  0  0
  141.2150   75.7450  219.1290 N   0  0  0  0  0  0  0  0  0  0  0  0
  140.7290   74.4300  218.8870 C   0  0  0  0  0  0  0  0  0  0  0  0
  139.5830   74.3160  218.2730 O   0  0  0  0  0  0  0  0  0  0  0  0
  141.3360   73.1550  219.2360 C   0  0  0  0  0  0  0  0  0  0  0  0
  141.0580   72.5710  220.4900 N   0  0  0  0  0  0  0  0  0  0  0  0
  140.0930   71.5150  220.6780 C   0  0  0  0  0  0  0  0  0  0  0  0
  139.4270   71.0630  219.6870 O   0  0  0  0  0  0  0  0  0  0  0  0
  139.8780   70.9620  222.0190 C   0  0  0  0  0  0  0  0  0  0  0  0
  139.0110   69.9050  222.1750 C   0  0  0  0  0  0  0  0  0  0  0  0
  138.7800   69.3500  223.4320 C   0  0  0  0  0  0  0  0  0  0  0  0
  139.4460   69.8950  224.5090 C   0  0  0  0  0  0  0  0  0  0  0  0
  139.2950   69.4320  225.7910 C   0  0  0  0  0  0  0  0  0  0  0  0
  139.9650   69.9800  226.8750 C   0  0  0  0  0  0  0  0  0  0  0  0
  139.7500   69.3610  228.5040 Cl  0  0  0  0  0  0  0  0  0  0  0  0
  140.8220   71.0450  226.6290 C   0  0  0  0  0  0  0  0  0  0  0  0
  140.9870   71.5250  225.3520 C   0  0  0  0  0  0  0  0  0  0  0  0
  140.3090   70.9610  224.2950 C   0  0  0  0  0  0  0  0  0  0  0  0
  140.5180   71.4790  223.0800 N   0  0  0  0  0  0  0  0  0  0  0  0
  137.7623   78.4406  223.7837 H   0  0  0  0  0  0  0  0  0  0  0  0
  138.0102   79.3150  222.2343 H   0  0  0  0  0  0  0  0  0  0  0  0
  137.2616   77.6821  222.2343 H   0  0  0  0  0  0  0  0  0  0  0  0
  139.4494   77.0996  223.4927 H   0  0  0  0  0  0  0  0  0  0  0  0
  141.5700   77.6263  224.0504 H   0  0  0  0  0  0  0  0  0  0  0  0
  143.4250   79.2082  224.1794 H   0  0  0  0  0  0  0  0  0  0  0  0
  143.3936   81.3021  222.8225 H   0  0  0  0  0  0  0  0  0  0  0  0
  141.4537   81.7274  221.3580 H   0  0  0  0  0  0  0  0  0  0  0  0
  139.5742   80.1267  221.2241 H   0  0  0  0  0  0  0  0  0  0  0  0
  137.4866   76.0789  221.4558 H   0  0  0  0  0  0  0  0  0  0  0  0
  138.0923   77.1842  220.1760 H   0  0  0  0  0  0  0  0  0  0  0  0
  138.5823   75.4560  220.1760 H   0  0  0  0  0  0  0  0  0  0  0  0
  142.6322   75.5057  220.8050 H   0  0  0  0  0  0  0  0  0  0  0  0
  141.3634   78.1812  220.6682 H   0  0  0  0  0  0  0  0  0  0  0  0
  143.0470   77.7557  220.9625 H   0  0  0  0  0  0  0  0  0  0  0  0
  142.4134   78.7643  218.5688 H   0  0  0  0  0  0  0  0  0  0  0  0
  143.4531   77.3791  218.5331 H   0  0  0  0  0  0  0  0  0  0  0  0
  140.3357   77.4689  218.2805 H   0  0  0  0  0  0  0  0  0  0  0  0
  141.4107   76.6361  217.1896 H   0  0  0  0  0  0  0  0  0  0  0  0
  141.0217   72.4311  218.4697 H   0  0  0  0  0  0  0  0  0  0  0  0
  142.4095   73.3881  219.2930 H   0  0  0  0  0  0  0  0  0  0  0  0
  141.5540   72.8810  221.3770 H   0  0  0  0  0  0  0  0  0  0  0  0
  138.4936   69.4929  221.2961 H   0  0  0  0  0  0  0  0  0  0  0  0
  138.0885   68.5043  223.5608 H   0  0  0  0  0  0  0  0  0  0  0  0
  138.6119   68.5881  225.9677 H   0  0  0  0  0  0  0  0  0  0  0  0
  141.3722   71.5072  227.4618 H   0  0  0  0  0  0  0  0  0  0  0  0
  141.6686   72.3695  225.1724 H   0  0  0  0  0  0  0  0  0  0  0  0
  1  2  1  0
  2  3  1  0
  3  4  2  0
  4  5  1  0
  5  6  2  0
  6  7  1  0
  7  8  2  0
  2  9  1  0
  9 10  1  0
  9 11  1  0
 11 12  2  0
 11 13  1  0
 13 14  1  0
 14 15  1  0
 15 16  1  0
 16 17  1  0
 17 18  1  0
 18 19  2  0
 18 20  1  0
 20 21  1  0
 21 22  1  0
 22 23  2  0
 22 24  1  0
 24 25  2  0
 25 26  1  0
 26 27  2  0
 27 28  1  0
 28 29  2  0
 29 30  1  0
 29 31  1  0
 31 32  2  0
 32 33  1  0
 33 34  2  0
  8  3  1  0
 17 13  1  0
 34 24  1  0
 33 27  1  0
  1 35  1  0
  1 36  1  0
  1 37  1  0
  2 38  1  1
  4 39  1  0
  5 40  1  0
  6 41  1  0
  7 42  1  0
  8 43  1  0
 10 44  1  0
 10 45  1  0
 10 46  1  0
 13 47  1  1
 14 48  1  0
 14 49  1  0
 15 50  1  0
 15 51  1  0
 16 52  1  0
 16 53  1  0
 20 54  1  0
 20 55  1  0
 21 56  1  0
 25 57  1  0
 26 58  1  0
 28 59  1  0
 31 60  1  0
 32 61  1  0
M  END
>  <smiles>  (40) 
C[C@H](c1ccccc1)N(C)C(=O)[C@@H]1CCCN1C(=O)CNC(=O)c1ccc2cc(Cl)ccc2n1

>  <score_type>  (40) 
oracle

>  <origin>  (40) 
autodockgpu

>  <m_score__min__energy>  (40) 
-9.0800000000000001

>  <m_primary>  (40) 
energy

>  <rmsd>  (40) 
3.09833384234537

>  <m_score__min__rmsd>  (40) 
3.09833384234537

>  <meeko>  (40) 
{"free_energy": -7.52, "intermolecular_energy": -9.9, "internal_energy": -3.47, "cluster_size": 24, "cluster_id": 1, "rank_in_cluster": 23}

>  <energy>  (40) 
-8.37

>  <cluster_rmsd>  (40) 
1.24

>  <cluster>  (40) 
3

$$$$

     RDKit          3D

 61 64  0  0  0  0  0  0  0  0999 V2000
  143.0050   80.3970  223.3910 C   0  0  0  0  0  0  0  0  0  0  0  0
  142.2220   80.0590  222.1860 C   0  0  2  0  0  0  0  0  0  0  0  0
  141.2250   81.1310  221.8800 C   0  0  0  0  0  0  0  0  0  0  0  0
  139.9800   81.0860  222.5260 C   0  0  0  0  0  0  0  0  0  0  0  0
  139.0160   82.0360  222.3330 C   0  0  0  0  0  0  0  0  0  0  0  0
  139.2390   83.0940  221.4760 C   0  0  0  0  0  0  0  0  0  0  0  0
  140.4440   83.1530  220.8400 C   0  0  0  0  0  0  0  0  0  0  0  0
  141.4280   82.1820  221.0400 C   0  0  0  0  0  0  0  0  0  0  0  0
  141.7860   78.7260  222.0020 N   0  0  0  0  0  0  0  0  0  0  0  0
  141.4560   77.9680  223.2510 C   0  0  0  0  0  0  0  0  0  0  0  0
  141.6150   77.9970  220.8190 C   0  0  0  0  0  0  0  0  0  0  0  0
  142.5730   77.2020  220.4420 O   0  0  0  0  0  0  0  0  0  0  0  0
  140.4610   77.9830  219.8890 C   0  0  2  0  0  0  0  0  0  0  0  0
  140.2080   79.2900  219.2300 C   0  0  0  0  0  0  0  0  0  0  0  0
  138.6960   79.4150  219.2000 C   0  0  0  0  0  0  0  0  0  0  0  0
  138.3470   78.8680  220.6140 C   0  0  0  0  0  0  0  0  0  0  0  0
  139.2670   77.7570  220.7410 N   0  0  0  0  0  0  0  0  0  0  0  0
  139.1710   76.5720  221.5210 C   0  0  0  0  0  0  0  0  0  0  0  0
  138.7490   76.6950  222.7500 O   0  0  0  0  0  0  0  0  0  0  0  0
  139.4880   75.2030  221.1450 C   0  0  0  0  0  0  0  0  0  0  0  0
  139.5580   74.2050  222.1400 N   0  0  0  0  0  0  0  0  0  0  0  0
  139.8750   72.8260  221.8590 C   0  0  0  0  0  0  0  0  0  0  0  0
  140.1030   72.4450  220.6620 O   0  0  0  0  0  0  0  0  0  0  0  0
  139.9350   71.8590  222.9590 C   0  0  0  0  0  0  0  0  0  0  0  0
  139.4750   70.5790  222.7510 C   0  0  0  0  0  0  0  0  0  0  0  0
  139.5140   69.6300  223.7700 C   0  0  0  0  0  0  0  0  0  0  0  0
  140.0260   70.0170  224.9910 C   0  0  0  0  0  0  0  0  0  0  0  0
  140.1130   69.1700  226.0650 C   0  0  0  0  0  0  0  0  0  0  0  0
  140.6290   69.5590  227.2930 C   0  0  0  0  0  0  0  0  0  0  0  0
  140.7270   68.4470  228.6490 Cl  0  0  0  0  0  0  0  0  0  0  0  0
  141.0700   70.8700  227.4190 C   0  0  0  0  0  0  0  0  0  0  0  0
  140.9920   71.7350  226.3540 C   0  0  0  0  0  0  0  0  0  0  0  0
  140.4760   71.3210  225.1470 C   0  0  0  0  0  0  0  0  0  0  0  0
  140.4300   72.2160  224.1550 N   0  0  0  0  0  0  0  0  0  0  0  0
  142.4223   80.1455  224.2894 H   0  0  0  0  0  0  0  0  0  0  0  0
  143.9440   79.8241  223.3907 H   0  0  0  0  0  0  0  0  0  0  0  0
  143.2321   81.4733  223.3907 H   0  0  0  0  0  0  0  0  0  0  0  0
  142.9680   80.0534  221.3777 H   0  0  0  0  0  0  0  0  0  0  0  0
  139.7716   80.2538  223.2145 H   0  0  0  0  0  0  0  0  0  0  0  0
  138.0562   81.9563  222.8645 H   0  0  0  0  0  0  0  0  0  0  0  0
  138.4708   83.8639  221.3113 H   0  0  0  0  0  0  0  0  0  0  0  0
  140.6462   83.9869  220.1517 H   0  0  0  0  0  0  0  0  0  0  0  0
  142.3866   82.2688  220.5075 H   0  0  0  0  0  0  0  0  0  0  0  0
  141.7204   78.5754  224.1292 H   0  0  0  0  0  0  0  0  0  0  0  0
  140.3791   77.7445  223.2706 H   0  0  0  0  0  0  0  0  0  0  0  0
  142.0261   77.0275  223.2706 H   0  0  0  0  0  0  0  0  0  0  0  0
  140.6618   77.2290  219.1137 H   0  0  0  0  0  0  0  0  0  0  0  0
  140.6544   80.1108  219.8105 H   0  0  0  0  0  0  0  0  0  0  0  0
  140.6518   79.3442  218.2250 H   0  0  0  0  0  0  0  0  0  0  0  0
  138.3759   80.4602  219.0770 H   0  0  0  0  0  0  0  0  0  0  0  0
  138.2057   78.8889  218.3676 H   0  0  0  0  0  0  0  0  0  0  0  0
  138.5253   79.6258  221.3912 H   0  0  0  0  0  0  0  0  0  0  0  0
  137.2905   78.5855  220.7325 H   0  0  0  0  0  0  0  0  0  0  0  0
  138.7198   74.8834  220.4255 H   0  0  0  0  0  0  0  0  0  0  0  0
  140.5219   75.2707  220.7757 H   0  0  0  0  0  0  0  0  0  0  0  0
  139.3780   74.4190  223.1640 H   0  0  0  0  0  0  0  0  0  0  0  0
  139.0708   70.3012  221.7664 H   0  0  0  0  0  0  0  0  0  0  0  0
  139.1485   68.6055  223.6063 H   0  0  0  0  0  0  0  0  0  0  0  0
  139.7579   68.1355  225.9483 H   0  0  0  0  0  0  0  0  0  0  0  0
  141.4841   71.2179  228.3768 H   0  0  0  0  0  0  0  0  0  0  0  0
  141.3461   72.7703  226.4675 H   0  0  0  0  0  0  0  0  0  0  0  0
  1  2  1  0
  2  3  1  0
  3  4  2  0
  4  5  1  0
  5  6  2  0
  6  7  1  0
  7  8  2  0
  2  9  1  0
  9 10  1  0
  9 11  1  0
 11 12  2  0
 11 13  1  0
 13 14  1  0
 14 15  1  0
 15 16  1  0
 16 17  1  0
 17 18  1  0
 18 19  2  0
 18 20  1  0
 20 21  1  0
 21 22  1  0
 22 23  2  0
 22 24  1  0
 24 25  2  0
 25 26  1  0
 26 27  2  0
 27 28  1  0
 28 29  2  0
 29 30  1  0
 29 31  1  0
 31 32  2  0
 32 33  1  0
 33 34  2  0
  8  3  1  0
 17 13  1  0
 34 24  1  0
 33 27  1  0
  1 35  1  0
  1 36  1  0
  1 37  1  0
  2 38  1  6
  4 39  1  0
  5 40  1  0
  6 41  1  0
  7 42  1  0
  8 43  1  0
 10 44  1  0
 10 45  1  0
 10 46  1  0
 13 47  1  6
 14 48  1  0
 14 49  1  0
 15 50  1  0
 15 51  1  0
 16 52  1  0
 16 53  1  0
 20 54  1  0
 20 55  1  0
 21 56  1  0
 25 57  1  0
 26 58  1  0
 28 59  1  0
 31 60  1  0
 32 61  1  0
M  END
>  <smiles>  (41) 
C[C@H](c1ccccc1)N(C)C(=O)[C@@H]1CCCN1C(=O)CNC(=O)c1ccc2cc(Cl)ccc2n1

>  <score_type>  (41) 
oracle

>  <origin>  (41) 
autodockgpu

>  <m_score__min__energy>  (41) 
-9.0800000000000001

>  <m_primary>  (41) 
energy

>  <rmsd>  (41) 
2.205804122325754

>  <m_score__min__rmsd>  (41) 
2.205804122325754

>  <meeko>  (41) 
{"free_energy": -7.99, "intermolecular_energy": -10.37, "internal_energy": -2.97, "cluster_size": 3, "cluster_id": 4, "rank_in_cluster": 2}

>  <energy>  (41) 
-8.26

>  <cluster_rmsd>  (41) 
1.57

>  <cluster>  (41) 
3

$$$$

     RDKit          3D

 61 64  0  0  0  0  0  0  0  0999 V2000
  141.2320   81.8740  219.9210 C   0  0  0  0  0  0  0  0  0  0  0  0
  141.0250   80.4230  220.0960 C   0  0  2  0  0  0  0  0  0  0  0  0
  141.2710   80.0170  221.5150 C   0  0  0  0  0  0  0  0  0  0  0  0
  142.4880   80.3800  222.1100 C   0  0  0  0  0  0  0  0  0  0  0  0
  142.7900   80.0790  223.4090 C   0  0  0  0  0  0  0  0  0  0  0  0
  141.8890   79.3920  224.1950 C   0  0  0  0  0  0  0  0  0  0  0  0
  140.7010   79.0310  223.6320 C   0  0  0  0  0  0  0  0  0  0  0  0
  140.3930   79.3410  222.3050 C   0  0  0  0  0  0  0  0  0  0  0  0
  141.4990   79.5370  219.1000 N   0  0  0  0  0  0  0  0  0  0  0  0
  142.2330   80.1690  217.9580 C   0  0  0  0  0  0  0  0  0  0  0  0
  141.3850   78.1440  219.0150 C   0  0  0  0  0  0  0  0  0  0  0  0
  140.2190   77.6380  218.7360 O   0  0  0  0  0  0  0  0  0  0  0  0
  142.4290   77.1090  219.1980 C   0  0  2  0  0  0  0  0  0  0  0  0
  143.1260   76.7330  217.9410 C   0  0  0  0  0  0  0  0  0  0  0  0
  143.3130   75.2310  218.0440 C   0  0  0  0  0  0  0  0  0  0  0  0
  141.9360   74.8230  218.6420 C   0  0  0  0  0  0  0  0  0  0  0  0
  141.7020   75.8800  219.6030 N   0  0  0  0  0  0  0  0  0  0  0  0
  140.9220   75.8810  220.7920 C   0  0  0  0  0  0  0  0  0  0  0  0
  141.3840   76.5510  221.8130 O   0  0  0  0  0  0  0  0  0  0  0  0
  139.6500   75.2240  221.0490 C   0  0  0  0  0  0  0  0  0  0  0  0
  139.5680   74.2290  222.0460 N   0  0  0  0  0  0  0  0  0  0  0  0
  140.2940   72.9840  221.9860 C   0  0  0  0  0  0  0  0  0  0  0  0
  141.0550   72.7250  220.9940 O   0  0  0  0  0  0  0  0  0  0  0  0
  140.1550   72.0120  223.0750 C   0  0  0  0  0  0  0  0  0  0  0  0
  139.4450   70.8540  222.8500 C   0  0  0  0  0  0  0  0  0  0  0  0
  139.2890   69.9050  223.8580 C   0  0  0  0  0  0  0  0  0  0  0  0
  139.8660   70.1650  225.0830 C   0  0  0  0  0  0  0  0  0  0  0  0
  139.7780   69.3050  226.1470 C   0  0  0  0  0  0  0  0  0  0  0  0
  140.3590   69.5660  227.3790 C   0  0  0  0  0  0  0  0  0  0  0  0
  140.2270   68.4410  228.7210 Cl  0  0  0  0  0  0  0  0  0  0  0  0
  141.0580   70.7580  227.5210 C   0  0  0  0  0  0  0  0  0  0  0  0
  141.1580   71.6340  226.4670 C   0  0  0  0  0  0  0  0  0  0  0  0
  140.5710   71.3490  225.2550 C   0  0  0  0  0  0  0  0  0  0  0  0
  140.7100   72.2470  224.2740 N   0  0  0  0  0  0  0  0  0  0  0  0
  141.3008   82.3561  220.9073 H   0  0  0  0  0  0  0  0  0  0  0  0
  142.1639   82.0467  219.3626 H   0  0  0  0  0  0  0  0  0  0  0  0
  140.3856   82.3004  219.3626 H   0  0  0  0  0  0  0  0  0  0  0  0
  139.9548   80.2801  219.8855 H   0  0  0  0  0  0  0  0  0  0  0  0
  143.2281   80.9280  221.5084 H   0  0  0  0  0  0  0  0  0  0  0  0
  143.7584   80.3870  223.8301 H   0  0  0  0  0  0  0  0  0  0  0  0
  142.1211   79.1436  225.2412 H   0  0  0  0  0  0  0  0  0  0  0  0
  139.9659   78.4814  224.2383 H   0  0  0  0  0  0  0  0  0  0  0  0
  139.4218   79.0326  221.8906 H   0  0  0  0  0  0  0  0  0  0  0  0
  143.0121   80.8398  218.3492 H   0  0  0  0  0  0  0  0  0  0  0  0
  142.6991   79.3851  217.3429 H   0  0  0  0  0  0  0  0  0  0  0  0
  141.5270   80.7463  217.3429 H   0  0  0  0  0  0  0  0  0  0  0  0
  143.1705   77.5000  219.9102 H   0  0  0  0  0  0  0  0  0  0  0  0
  142.5123   76.9891  217.0647 H   0  0  0  0  0  0  0  0  0  0  0  0
  144.0805   77.2655  217.8170 H   0  0  0  0  0  0  0  0  0  0  0  0
  143.4811   74.7727  217.0582 H   0  0  0  0  0  0  0  0  0  0  0  0
  144.1850   74.9139  218.6348 H   0  0  0  0  0  0  0  0  0  0  0  0
  141.1537   74.8050  217.8689 H   0  0  0  0  0  0  0  0  0  0  0  0
  141.9233   73.8139  219.0797 H   0  0  0  0  0  0  0  0  0  0  0  0
  138.9335   76.0119  221.3244 H   0  0  0  0  0  0  0  0  0  0  0  0
  139.4531   74.6720  220.1181 H   0  0  0  0  0  0  0  0  0  0  0  0
  138.9580   74.3450  222.9080 H   0  0  0  0  0  0  0  0  0  0  0  0
  138.9953   70.6759  221.8620 H   0  0  0  0  0  0  0  0  0  0  0  0
  138.7236   68.9780  223.6822 H   0  0  0  0  0  0  0  0  0  0  0  0
  139.2212   68.3652  226.0177 H   0  0  0  0  0  0  0  0  0  0  0  0
  141.5340   71.0020  228.4822 H   0  0  0  0  0  0  0  0  0  0  0  0
  141.7141   72.5747  226.5934 H   0  0  0  0  0  0  0  0  0  0  0  0
  1  2  1  0
  2  3  1  0
  3  4  2  0
  4  5  1  0
  5  6  2  0
  6  7  1  0
  7  8  2  0
  2  9  1  0
  9 10  1  0
  9 11  1  0
 11 12  2  0
 11 13  1  0
 13 14  1  0
 14 15  1  0
 15 16  1  0
 16 17  1  0
 17 18  1  0
 18 19  2  0
 18 20  1  0
 20 21  1  0
 21 22  1  0
 22 23  2  0
 22 24  1  0
 24 25  2  0
 25 26  1  0
 26 27  2  0
 27 28  1  0
 28 29  2  0
 29 30  1  0
 29 31  1  0
 31 32  2  0
 32 33  1  0
 33 34  2  0
  8  3  1  0
 17 13  1  0
 34 24  1  0
 33 27  1  0
  1 35  1  0
  1 36  1  0
  1 37  1  0
  2 38  1  1
  4 39  1  0
  5 40  1  0
  6 41  1  0
  7 42  1  0
  8 43  1  0
 10 44  1  0
 10 45  1  0
 10 46  1  0
 13 47  1  1
 14 48  1  0
 14 49  1  0
 15 50  1  0
 15 51  1  0
 16 52  1  0
 16 53  1  0
 20 54  1  0
 20 55  1  0
 21 56  1  0
 25 57  1  0
 26 58  1  0
 28 59  1  0
 31 60  1  0
 32 61  1  0
M  END
>  <smiles>  (42) 
C[C@H](c1ccccc1)N(C)C(=O)[C@@H]1CCCN1C(=O)CNC(=O)c1ccc2cc(Cl)ccc2n1

>  <score_type>  (42) 
oracle

>  <origin>  (42) 
autodockgpu

>  <m_score__min__energy>  (42) 
-9.0800000000000001

>  <m_primary>  (42) 
energy

>  <rmsd>  (42) 
2.9485568043908943

>  <m_score__min__rmsd>  (42) 
2.9485568043908943

>  <meeko>  (42) 
{"free_energy": -8.8, "intermolecular_energy": -11.19, "internal_energy": -2.35, "cluster_size": 24, "cluster_id": 1, "rank_in_cluster": 6}

>  <energy>  (42) 
-8.49

>  <cluster_rmsd>  (42) 
0.0

>  <cluster>  (42) 
4

$$$$

     RDKit          3D

 61 64  0  0  0  0  0  0  0  0999 V2000
  137.8850   69.5990  224.5070 C   0  0  0  0  0  0  0  0  0  0  0  0
  139.3470   69.7470  224.6390 C   0  0  2  0  0  0  0  0  0  0  0  0
  139.8240   69.1890  225.9420 C   0  0  0  0  0  0  0  0  0  0  0  0
  139.2530   69.6790  227.1260 C   0  0  0  0  0  0  0  0  0  0  0  0
  139.6030   69.2110  228.3610 C   0  0  0  0  0  0  0  0  0  0  0  0
  140.5530   68.2180  228.4890 C   0  0  0  0  0  0  0  0  0  0  0  0
  141.1180   67.7300  227.3490 C   0  0  0  0  0  0  0  0  0  0  0  0
  140.7580   68.2090  226.0870 C   0  0  0  0  0  0  0  0  0  0  0  0
  139.9570   70.9500  224.2120 N   0  0  0  0  0  0  0  0  0  0  0  0
  140.7520   71.6850  225.2460 C   0  0  0  0  0  0  0  0  0  0  0  0
  139.9300   71.5670  222.9550 C   0  0  0  0  0  0  0  0  0  0  0  0
  140.0520   72.8610  222.9030 O   0  0  0  0  0  0  0  0  0  0  0  0
  139.7800   70.9520  221.6150 C   0  0  2  0  0  0  0  0  0  0  0  0
  140.9680   71.1280  220.7400 C   0  0  0  0  0  0  0  0  0  0  0  0
  140.3890   71.3920  219.3620 C   0  0  0  0  0  0  0  0  0  0  0  0
  139.2120   72.3380  219.7350 C   0  0  0  0  0  0  0  0  0  0  0  0
  138.7040   71.7210  220.9430 N   0  0  0  0  0  0  0  0  0  0  0  0
  137.4030   71.7630  221.5160 C   0  0  0  0  0  0  0  0  0  0  0  0
  136.7300   70.6460  221.5600 O   0  0  0  0  0  0  0  0  0  0  0  0
  136.6870   72.9000  222.0740 C   0  0  0  0  0  0  0  0  0  0  0  0
  137.3800   74.1030  222.3290 N   0  0  0  0  0  0  0  0  0  0  0  0
  136.8110   75.4100  222.1040 C   0  0  0  0  0  0  0  0  0  0  0  0
  135.6260   75.5290  221.6430 O   0  0  0  0  0  0  0  0  0  0  0  0
  137.6020   76.6050  222.4070 C   0  0  0  0  0  0  0  0  0  0  0  0
  136.9530   77.7990  222.6290 C   0  0  0  0  0  0  0  0  0  0  0  0
  137.6690   78.9580  222.9200 C   0  0  0  0  0  0  0  0  0  0  0  0
  139.0440   78.8690  222.9770 C   0  0  0  0  0  0  0  0  0  0  0  0
  139.8500   79.9430  223.2540 C   0  0  0  0  0  0  0  0  0  0  0  0
  141.2330   79.8540  223.3120 C   0  0  0  0  0  0  0  0  0  0  0  0
  142.2350   81.2500  223.6710 Cl  0  0  0  0  0  0  0  0  0  0  0  0
  141.8070   78.6120  223.0750 C   0  0  0  0  0  0  0  0  0  0  0  0
  141.0180   77.5230  222.7950 C   0  0  0  0  0  0  0  0  0  0  0  0
  139.6470   77.6400  222.7450 C   0  0  0  0  0  0  0  0  0  0  0  0
  138.9420   76.5390  222.4670 N   0  0  0  0  0  0  0  0  0  0  0  0
  137.4293   69.5529  225.5071 H   0  0  0  0  0  0  0  0  0  0  0  0
  137.4774   70.4605  223.9577 H   0  0  0  0  0  0  0  0  0  0  0  0
  137.6583   68.6733  223.9577 H   0  0  0  0  0  0  0  0  0  0  0  0
  139.7508   69.1151  223.8343 H   0  0  0  0  0  0  0  0  0  0  0  0
  138.4933   70.4715  227.0574 H   0  0  0  0  0  0  0  0  0  0  0  0
  139.1245   69.6284  229.2592 H   0  0  0  0  0  0  0  0  0  0  0  0
  140.8442   67.8336  229.4777 H   0  0  0  0  0  0  0  0  0  0  0  0
  141.8776   66.9380  227.4244 H   0  0  0  0  0  0  0  0  0  0  0  0
  141.2387   67.7860  225.1926 H   0  0  0  0  0  0  0  0  0  0  0  0
  140.4208   71.3788  226.2492 H   0  0  0  0  0  0  0  0  0  0  0  0
  141.8194   71.4487  225.1242 H   0  0  0  0  0  0  0  0  0  0  0  0
  140.6000   72.7676  225.1242 H   0  0  0  0  0  0  0  0  0  0  0  0
  139.6005   69.8759  221.7559 H   0  0  0  0  0  0  0  0  0  0  0  0
  141.5757   71.9809  221.0764 H   0  0  0  0  0  0  0  0  0  0  0  0
  141.6315   70.2508  220.7540 H   0  0  0  0  0  0  0  0  0  0  0  0
  141.1166   71.8874  218.7024 H   0  0  0  0  0  0  0  0  0  0  0  0
  140.0973   70.4904  218.8035 H   0  0  0  0  0  0  0  0  0  0  0  0
  139.5667   73.3614  219.9271 H   0  0  0  0  0  0  0  0  0  0  0  0
  138.4591   72.4453  218.9403 H   0  0  0  0  0  0  0  0  0  0  0  0
  135.8748   73.1416  221.3726 H   0  0  0  0  0  0  0  0  0  0  0  0
  136.3951   72.5536  223.0764 H   0  0  0  0  0  0  0  0  0  0  0  0
  138.3720   74.1110  222.7060 H   0  0  0  0  0  0  0  0  0  0  0  0
  135.8550   77.8381  222.5759 H   0  0  0  0  0  0  0  0  0  0  0  0
  137.1541   79.9135  223.0986 H   0  0  0  0  0  0  0  0  0  0  0  0
  139.3785   80.9195  223.4386 H   0  0  0  0  0  0  0  0  0  0  0  0
  142.9006   78.4995  223.1117 H   0  0  0  0  0  0  0  0  0  0  0  0
  141.4871   76.5457  222.6085 H   0  0  0  0  0  0  0  0  0  0  0  0
  1  2  1  0
  2  3  1  0
  3  4  2  0
  4  5  1  0
  5  6  2  0
  6  7  1  0
  7  8  2  0
  2  9  1  0
  9 10  1  0
  9 11  1  0
 11 12  2  0
 11 13  1  0
 13 14  1  0
 14 15  1  0
 15 16  1  0
 16 17  1  0
 17 18  1  0
 18 19  2  0
 18 20  1  0
 20 21  1  0
 21 22  1  0
 22 23  2  0
 22 24  1  0
 24 25  2  0
 25 26  1  0
 26 27  2  0
 27 28  1  0
 28 29  2  0
 29 30  1  0
 29 31  1  0
 31 32  2  0
 32 33  1  0
 33 34  2  0
  8  3  1  0
 17 13  1  0
 34 24  1  0
 33 27  1  0
  1 35  1  0
  1 36  1  0
  1 37  1  0
  2 38  1  6
  4 39  1  0
  5 40  1  0
  6 41  1  0
  7 42  1  0
  8 43  1  0
 10 44  1  0
 10 45  1  0
 10 46  1  0
 13 47  1  1
 14 48  1  0
 14 49  1  0
 15 50  1  0
 15 51  1  0
 16 52  1  0
 16 53  1  0
 20 54  1  0
 20 55  1  0
 21 56  1  0
 25 57  1  0
 26 58  1  0
 28 59  1  0
 31 60  1  0
 32 61  1  0
M  END
>  <smiles>  (43) 
C[C@H](c1ccccc1)N(C)C(=O)[C@@H]1CCCN1C(=O)CNC(=O)c1ccc2cc(Cl)ccc2n1

>  <score_type>  (43) 
oracle

>  <origin>  (43) 
autodockgpu

>  <m_score__min__energy>  (43) 
-9.0800000000000001

>  <m_primary>  (43) 
energy

>  <rmsd>  (43) 
9.452308784439998

>  <m_score__min__rmsd>  (43) 
9.452308784439998

>  <meeko>  (43) 
{"free_energy": -8.24, "intermolecular_energy": -10.62, "internal_energy": -3.01, "cluster_size": 1, "cluster_id": 5, "rank_in_cluster": 1}

>  <energy>  (43) 
-7.99

>  <cluster_rmsd>  (43) 
0.89

>  <cluster>  (43) 
4

$$$$

     RDKit          3D

 61 64  0  0  0  0  0  0  0  0999 V2000
  138.0630   80.5870  224.1530 C   0  0  0  0  0  0  0  0  0  0  0  0
  138.7760   79.4030  223.6350 C   0  0  2  0  0  0  0  0  0  0  0  0
  140.2070   79.7270  223.3450 C   0  0  0  0  0  0  0  0  0  0  0  0
  140.4880   80.8300  222.5260 C   0  0  0  0  0  0  0  0  0  0  0  0
  141.7630   81.2200  222.2280 C   0  0  0  0  0  0  0  0  0  0  0  0
  142.8430   80.5260  222.7350 C   0  0  0  0  0  0  0  0  0  0  0  0
  142.5880   79.4510  223.5330 C   0  0  0  0  0  0  0  0  0  0  0  0
  141.2830   79.0540  223.8370 C   0  0  0  0  0  0  0  0  0  0  0  0
  138.1230   78.5610  222.7050 N   0  0  0  0  0  0  0  0  0  0  0  0
  136.6330   78.6990  222.6320 C   0  0  0  0  0  0  0  0  0  0  0  0
  138.6600   77.6070  221.8320 C   0  0  0  0  0  0  0  0  0  0  0  0
  138.4470   77.7510  220.5570 O   0  0  0  0  0  0  0  0  0  0  0  0
  139.4730   76.4080  222.1440 C   0  0  2  0  0  0  0  0  0  0  0  0
  140.9160   76.5640  221.8260 C   0  0  0  0  0  0  0  0  0  0  0  0
  141.3270   75.2180  221.2580 C   0  0  0  0  0  0  0  0  0  0  0  0
  140.0860   74.9020  220.3740 C   0  0  0  0  0  0  0  0  0  0  0  0
  138.9980   75.3530  221.2160 N   0  0  0  0  0  0  0  0  0  0  0  0
  137.6370   74.9400  221.2540 C   0  0  0  0  0  0  0  0  0  0  0  0
  136.7250   75.8670  221.1380 O   0  0  0  0  0  0  0  0  0  0  0  0
  137.0940   73.6000  221.4130 C   0  0  0  0  0  0  0  0  0  0  0  0
  137.5970   72.7600  222.4280 N   0  0  0  0  0  0  0  0  0  0  0  0
  138.0740   71.4200  222.1860 C   0  0  0  0  0  0  0  0  0  0  0  0
  138.0500   70.9280  221.0080 O   0  0  0  0  0  0  0  0  0  0  0  0
  138.5900   70.6230  223.3030 C   0  0  0  0  0  0  0  0  0  0  0  0
  138.4060   69.2590  223.2920 C   0  0  0  0  0  0  0  0  0  0  0  0
  138.8800   68.4650  224.3340 C   0  0  0  0  0  0  0  0  0  0  0  0
  139.5360   69.0910  225.3730 C   0  0  0  0  0  0  0  0  0  0  0  0
  140.0440   68.4120  226.4510 C   0  0  0  0  0  0  0  0  0  0  0  0
  140.7040   69.0410  227.4960 C   0  0  0  0  0  0  0  0  0  0  0  0
  141.3440   68.1410  228.8610 Cl  0  0  0  0  0  0  0  0  0  0  0  0
  140.8460   70.4210  227.4280 C   0  0  0  0  0  0  0  0  0  0  0  0
  140.3440   71.1210  226.3580 C   0  0  0  0  0  0  0  0  0  0  0  0
  139.6940   70.4700  225.3340 C   0  0  0  0  0  0  0  0  0  0  0  0
  139.2310   71.2130  224.3240 N   0  0  0  0  0  0  0  0  0  0  0  0
  138.0736   80.5693  225.2528 H   0  0  0  0  0  0  0  0  0  0  0  0
  138.5614   81.5004  223.7961 H   0  0  0  0  0  0  0  0  0  0  0  0
  137.0226   80.5737  223.7961 H   0  0  0  0  0  0  0  0  0  0  0  0
  138.7558   78.6926  224.4746 H   0  0  0  0  0  0  0  0  0  0  0  0
  139.6485   81.4041  222.1068 H   0  0  0  0  0  0  0  0  0  0  0  0
  141.9299   82.0929  221.5797 H   0  0  0  0  0  0  0  0  0  0  0  0
  143.8743   80.8302  222.5029 H   0  0  0  0  0  0  0  0  0  0  0  0
  143.4317   78.8807  223.9488 H   0  0  0  0  0  0  0  0  0  0  0  0
  141.1223   78.1808  224.4864 H   0  0  0  0  0  0  0  0  0  0  0  0
  136.2180   78.7374  223.6500 H   0  0  0  0  0  0  0  0  0  0  0  0
  136.3763   79.6248  222.0962 H   0  0  0  0  0  0  0  0  0  0  0  0
  136.2107   77.8361  222.0962 H   0  0  0  0  0  0  0  0  0  0  0  0
  139.3683   76.2004  223.2191 H   0  0  0  0  0  0  0  0  0  0  0  0
  141.0666   77.3617  221.0838 H   0  0  0  0  0  0  0  0  0  0  0  0
  141.5108   76.8455  222.7075 H   0  0  0  0  0  0  0  0  0  0  0  0
  142.2462   75.2923  220.6583 H   0  0  0  0  0  0  0  0  0  0  0  0
  141.5642   74.4522  222.0112 H   0  0  0  0  0  0  0  0  0  0  0  0
  140.1168   75.4602  219.4266 H   0  0  0  0  0  0  0  0  0  0  0  0
  140.0095   73.8459  220.0759 H   0  0  0  0  0  0  0  0  0  0  0  0
  136.0153   73.7123  221.5967 H   0  0  0  0  0  0  0  0  0  0  0  0
  137.3930   73.0898  220.4855 H   0  0  0  0  0  0  0  0  0  0  0  0
  137.6530   73.0740  223.4410 H   0  0  0  0  0  0  0  0  0  0  0  0
  137.8776   68.7895  222.4492 H   0  0  0  0  0  0  0  0  0  0  0  0
  138.7357   67.3745  224.3282 H   0  0  0  0  0  0  0  0  0  0  0  0
  139.9225   67.3194  226.4884 H   0  0  0  0  0  0  0  0  0  0  0  0
  141.3641   70.9572  228.2367 H   0  0  0  0  0  0  0  0  0  0  0  0
  140.4627   72.2139  226.3190 H   0  0  0  0  0  0  0  0  0  0  0  0
  1  2  1  0
  2  3  1  0
  3  4  2  0
  4  5  1  0
  5  6  2  0
  6  7  1  0
  7  8  2  0
  2  9  1  0
  9 10  1  0
  9 11  1  0
 11 12  2  0
 11 13  1  0
 13 14  1  0
 14 15  1  0
 15 16  1  0
 16 17  1  0
 17 18  1  0
 18 19  2  0
 18 20  1  0
 20 21  1  0
 21 22  1  0
 22 23  2  0
 22 24  1  0
 24 25  2  0
 25 26  1  0
 26 27  2  0
 27 28  1  0
 28 29  2  0
 29 30  1  0
 29 31  1  0
 31 32  2  0
 32 33  1  0
 33 34  2  0
  8  3  1  0
 17 13  1  0
 34 24  1  0
 33 27  1  0
  1 35  1  0
  1 36  1  0
  1 37  1  0
  2 38  1  1
  4 39  1  0
  5 40  1  0
  6 41  1  0
  7 42  1  0
  8 43  1  0
 10 44  1  0
 10 45  1  0
 10 46  1  0
 13 47  1  1
 14 48  1  0
 14 49  1  0
 15 50  1  0
 15 51  1  0
 16 52  1  0
 16 53  1  0
 20 54  1  0
 20 55  1  0
 21 56  1  0
 25 57  1  0
 26 58  1  0
 28 59  1  0
 31 60  1  0
 32 61  1  0
M  END
>  <smiles>  (44) 
C[C@H](c1ccccc1)N(C)C(=O)[C@@H]1CCCN1C(=O)CNC(=O)c1ccc2cc(Cl)ccc2n1

>  <score_type>  (44) 
oracle

>  <origin>  (44) 
autodockgpu

>  <m_score__min__energy>  (44) 
-9.0800000000000001

>  <m_primary>  (44) 
energy

>  <rmsd>  (44) 
2.9839593284705215

>  <m_score__min__rmsd>  (44) 
2.9839593284705215

>  <meeko>  (44) 
{"free_energy": -8.57, "intermolecular_energy": -10.95, "internal_energy": -2.15, "cluster_size": 4, "cluster_id": 3, "rank_in_cluster": 1}

>  <energy>  (44) 
-7.8

>  <cluster_rmsd>  (44) 
1.26

>  <cluster>  (44) 
4

$$$$

     RDKit          3D

 61 64  0  0  0  0  0  0  0  0999 V2000
  142.7540   79.8020  222.6960 C   0  0  0  0  0  0  0  0  0  0  0  0
  141.7100   80.2050  221.7330 C   0  0  2  0  0  0  0  0  0  0  0  0
  140.4130   80.4660  222.4300 C   0  0  0  0  0  0  0  0  0  0  0  0
  140.0490   79.6270  223.4940 C   0  0  0  0  0  0  0  0  0  0  0  0
  138.8980   79.8040  224.2090 C   0  0  0  0  0  0  0  0  0  0  0  0
  138.0350   80.8360  223.9010 C   0  0  0  0  0  0  0  0  0  0  0  0
  138.3740   81.6610  222.8700 C   0  0  0  0  0  0  0  0  0  0  0  0
  139.5520   81.4790  222.1410 C   0  0  0  0  0  0  0  0  0  0  0  0
  141.6300   79.5350  220.4890 N   0  0  0  0  0  0  0  0  0  0  0  0
  142.2280   80.2550  219.3200 C   0  0  0  0  0  0  0  0  0  0  0  0
  141.0710   78.2900  220.1790 C   0  0  0  0  0  0  0  0  0  0  0  0
  141.7410   77.2200  220.4950 O   0  0  0  0  0  0  0  0  0  0  0  0
  139.7790   77.9830  219.5230 C   0  0  2  0  0  0  0  0  0  0  0  0
  139.1560   79.1520  218.8510 C   0  0  0  0  0  0  0  0  0  0  0  0
  137.6730   79.0120  219.1400 C   0  0  0  0  0  0  0  0  0  0  0  0
  137.7250   78.5630  220.6290 C   0  0  0  0  0  0  0  0  0  0  0  0
  138.8440   77.6450  220.6250 N   0  0  0  0  0  0  0  0  0  0  0  0
  139.1330   76.5480  221.4840 C   0  0  0  0  0  0  0  0  0  0  0  0
  139.0520   76.7550  222.7700 O   0  0  0  0  0  0  0  0  0  0  0  0
  139.5210   75.1920  221.1320 C   0  0  0  0  0  0  0  0  0  0  0  0
  139.5830   74.2010  222.1350 N   0  0  0  0  0  0  0  0  0  0  0  0
  139.8860   72.8170  221.8660 C   0  0  0  0  0  0  0  0  0  0  0  0
  140.1090   72.4230  220.6730 O   0  0  0  0  0  0  0  0  0  0  0  0
  139.9380   71.8590  222.9750 C   0  0  0  0  0  0  0  0  0  0  0  0
  139.4660   70.5810  222.7780 C   0  0  0  0  0  0  0  0  0  0  0  0
  139.4980   69.6420  223.8060 C   0  0  0  0  0  0  0  0  0  0  0  0
  140.0140   70.0340  225.0230 C   0  0  0  0  0  0  0  0  0  0  0  0
  140.0940   69.1960  226.1040 C   0  0  0  0  0  0  0  0  0  0  0  0
  140.6130   69.5900  227.3280 C   0  0  0  0  0  0  0  0  0  0  0  0
  140.7020   68.4900  228.6930 Cl  0  0  0  0  0  0  0  0  0  0  0  0
  141.0670   70.8980  227.4420 C   0  0  0  0  0  0  0  0  0  0  0  0
  140.9960   71.7550  226.3710 C   0  0  0  0  0  0  0  0  0  0  0  0
  140.4750   71.3350  225.1670 C   0  0  0  0  0  0  0  0  0  0  0  0
  140.4370   72.2220  224.1670 N   0  0  0  0  0  0  0  0  0  0  0  0
  142.3822   79.9455  223.7213 H   0  0  0  0  0  0  0  0  0  0  0  0
  143.0054   78.7422  222.5421 H   0  0  0  0  0  0  0  0  0  0  0  0
  143.6523   80.4180  222.5421 H   0  0  0  0  0  0  0  0  0  0  0  0
  142.0731   81.1628  221.3321 H   0  0  0  0  0  0  0  0  0  0  0  0
  140.7159   78.7946  223.7630 H   0  0  0  0  0  0  0  0  0  0  0  0
  138.6577   79.1193  225.0357 H   0  0  0  0  0  0  0  0  0  0  0  0
  137.1049   80.9878  224.4683 H   0  0  0  0  0  0  0  0  0  0  0  0
  137.7028   82.4913  222.6052 H   0  0  0  0  0  0  0  0  0  0  0  0
  139.7880   82.1685  221.3170 H   0  0  0  0  0  0  0  0  0  0  0  0
  142.8917   81.0541  219.6820 H   0  0  0  0  0  0  0  0  0  0  0  0
  142.8067   79.5461  218.7097 H   0  0  0  0  0  0  0  0  0  0  0  0
  141.4249   80.6937  218.7097 H   0  0  0  0  0  0  0  0  0  0  0  0
  139.9602   77.1988  218.7732 H   0  0  0  0  0  0  0  0  0  0  0  0
  139.5459   80.0927  219.2670 H   0  0  0  0  0  0  0  0  0  0  0  0
  139.3709   79.1775  217.7725 H   0  0  0  0  0  0  0  0  0  0  0  0
  137.1425   79.9682  219.0209 H   0  0  0  0  0  0  0  0  0  0  0  0
  137.1345   78.3262  218.4694 H   0  0  0  0  0  0  0  0  0  0  0  0
  137.9100   79.4164  221.2980 H   0  0  0  0  0  0  0  0  0  0  0  0
  136.7867   78.1185  220.9923 H   0  0  0  0  0  0  0  0  0  0  0  0
  138.8011   74.8393  220.3788 H   0  0  0  0  0  0  0  0  0  0  0  0
  140.5680   75.2994  220.8122 H   0  0  0  0  0  0  0  0  0  0  0  0
  139.4060   74.4260  223.1580 H   0  0  0  0  0  0  0  0  0  0  0  0
  139.0584   70.2979  221.7963 H   0  0  0  0  0  0  0  0  0  0  0  0
  139.1232   68.6194  223.6518 H   0  0  0  0  0  0  0  0  0  0  0  0
  139.7299   68.1636  225.9960 H   0  0  0  0  0  0  0  0  0  0  0  0
  141.4861   71.2497  228.3963 H   0  0  0  0  0  0  0  0  0  0  0  0
  141.3592   72.7880  226.4759 H   0  0  0  0  0  0  0  0  0  0  0  0
  1  2  1  0
  2  3  1  0
  3  4  2  0
  4  5  1  0
  5  6  2  0
  6  7  1  0
  7  8  2  0
  2  9  1  0
  9 10  1  0
  9 11  1  0
 11 12  2  0
 11 13  1  0
 13 14  1  0
 14 15  1  0
 15 16  1  0
 16 17  1  0
 17 18  1  0
 18 19  2  0
 18 20  1  0
 20 21  1  0
 21 22  1  0
 22 23  2  0
 22 24  1  0
 24 25  2  0
 25 26  1  0
 26 27  2  0
 27 28  1  0
 28 29  2  0
 29 30  1  0
 29 31  1  0
 31 32  2  0
 32 33  1  0
 33 34  2  0
  8  3  1  0
 17 13  1  0
 34 24  1  0
 33 27  1  0
  1 35  1  0
  1 36  1  0
  1 37  1  0
  2 38  1  6
  4 39  1  0
  5 40  1  0
  6 41  1  0
  7 42  1  0
  8 43  1  0
 10 44  1  0
 10 45  1  0
 10 46  1  0
 13 47  1  6
 14 48  1  0
 14 49  1  0
 15 50  1  0
 15 51  1  0
 16 52  1  0
 16 53  1  0
 20 54  1  0
 20 55  1  0
 21 56  1  0
 25 57  1  0
 26 58  1  0
 28 59  1  0
 31 60  1  0
 32 61  1  0
M  END
>  <smiles>  (45) 
C[C@H](c1ccccc1)N(C)C(=O)[C@@H]1CCCN1C(=O)CNC(=O)c1ccc2cc(Cl)ccc2n1

>  <score_type>  (45) 
oracle

>  <origin>  (45) 
autodockgpu

>  <m_score__min__energy>  (45) 
-9.0800000000000001

>  <m_primary>  (45) 
energy

>  <rmsd>  (45) 
2.5468280177524085

>  <m_score__min__rmsd>  (45) 
2.5468280177524085

>  <meeko>  (45) 
{"free_energy": -7.8, "intermolecular_energy": -10.19, "internal_energy": -3.1, "cluster_size": 3, "cluster_id": 4, "rank_in_cluster": 3}

>  <energy>  (45) 
-8.24

>  <cluster_rmsd>  (45) 
0.0

>  <cluster>  (45) 
5

$$$$

     RDKit          3D

 61 64  0  0  0  0  0  0  0  0999 V2000
  137.7190   79.7170  223.2520 C   0  0  0  0  0  0  0  0  0  0  0  0
  138.9180   78.8610  223.1530 C   0  0  2  0  0  0  0  0  0  0  0  0
  140.1650   79.6850  223.1930 C   0  0  0  0  0  0  0  0  0  0  0  0
  141.3020   79.1430  223.8110 C   0  0  0  0  0  0  0  0  0  0  0  0
  142.4940   79.8080  223.8730 C   0  0  0  0  0  0  0  0  0  0  0  0
  142.6230   81.0650  223.3170 C   0  0  0  0  0  0  0  0  0  0  0  0
  141.5280   81.6070  222.7120 C   0  0  0  0  0  0  0  0  0  0  0  0
  140.3100   80.9240  222.6490 C   0  0  0  0  0  0  0  0  0  0  0  0
  138.9120   77.7750  222.2460 N   0  0  0  0  0  0  0  0  0  0  0  0
  137.6580   77.5950  221.4480 C   0  0  0  0  0  0  0  0  0  0  0  0
  139.9110   76.8310  221.9770 C   0  0  0  0  0  0  0  0  0  0  0  0
  139.9750   75.7720  222.7310 O   0  0  0  0  0  0  0  0  0  0  0  0
  140.9500   76.8450  220.9210 C   0  0  2  0  0  0  0  0  0  0  0  0
  141.2780   78.2050  220.4220 C   0  0  0  0  0  0  0  0  0  0  0  0
  141.4640   78.0270  218.9260 C   0  0  0  0  0  0  0  0  0  0  0  0
  140.2910   77.0520  218.6180 C   0  0  0  0  0  0  0  0  0  0  0  0
  140.3400   76.1580  219.7550 N   0  0  0  0  0  0  0  0  0  0  0  0
  139.9070   74.8080  219.8790 C   0  0  0  0  0  0  0  0  0  0  0  0
  140.5930   73.8970  219.2460 O   0  0  0  0  0  0  0  0  0  0  0  0
  138.7770   74.2780  220.6250 C   0  0  0  0  0  0  0  0  0  0  0  0
  139.0060   73.4130  221.7170 N   0  0  0  0  0  0  0  0  0  0  0  0
  139.0580   71.9760  221.5940 C   0  0  0  0  0  0  0  0  0  0  0  0
  138.8860   71.4170  220.4590 O   0  0  0  0  0  0  0  0  0  0  0  0
  139.3120   71.1580  222.7830 C   0  0  0  0  0  0  0  0  0  0  0  0
  138.9320   69.8350  222.7780 C   0  0  0  0  0  0  0  0  0  0  0  0
  139.1550   69.0230  223.8880 C   0  0  0  0  0  0  0  0  0  0  0  0
  139.7650   69.5880  224.9880 C   0  0  0  0  0  0  0  0  0  0  0  0
  140.0330   68.8870  226.1350 C   0  0  0  0  0  0  0  0  0  0  0  0
  140.6470   69.4550  227.2410 C   0  0  0  0  0  0  0  0  0  0  0  0
  140.9770   68.5260  228.6940 Cl  0  0  0  0  0  0  0  0  0  0  0  0
  140.9980   70.7970  227.1630 C   0  0  0  0  0  0  0  0  0  0  0  0
  140.7380   71.5180  226.0230 C   0  0  0  0  0  0  0  0  0  0  0  0
  140.1270   70.9280  224.9400 C   0  0  0  0  0  0  0  0  0  0  0  0
  139.9050   71.6900  223.8640 N   0  0  0  0  0  0  0  0  0  0  0  0
  137.4778   79.8892  224.3113 H   0  0  0  0  0  0  0  0  0  0  0  0
  137.9148   80.6808  222.7592 H   0  0  0  0  0  0  0  0  0  0  0  0
  136.8711   79.2188  222.7592 H   0  0  0  0  0  0  0  0  0  0  0  0
  138.8883   78.2528  224.0691 H   0  0  0  0  0  0  0  0  0  0  0  0
  141.2310   78.1429  224.2636 H   0  0  0  0  0  0  0  0  0  0  0  0
  143.3564   79.3388  224.3691 H   0  0  0  0  0  0  0  0  0  0  0  0
  143.5770   81.6108  223.3606 H   0  0  0  0  0  0  0  0  0  0  0  0
  141.6050   82.6077  222.2618 H   0  0  0  0  0  0  0  0  0  0  0  0
  139.4517   81.3974  222.1498 H   0  0  0  0  0  0  0  0  0  0  0  0
  136.8038   77.4724  222.1301 H   0  0  0  0  0  0  0  0  0  0  0  0
  137.4969   78.4792  220.8138 H   0  0  0  0  0  0  0  0  0  0  0  0
  137.7521   76.7012  220.8138 H   0  0  0  0  0  0  0  0  0  0  0  0
  141.8611   76.3918  221.3387 H   0  0  0  0  0  0  0  0  0  0  0  0
  140.4552   78.9046  220.6309 H   0  0  0  0  0  0  0  0  0  0  0  0
  142.1717   78.6241  220.9074 H   0  0  0  0  0  0  0  0  0  0  0  0
  141.3554   78.9789  218.3856 H   0  0  0  0  0  0  0  0  0  0  0  0
  142.4576   77.6642  218.6241 H   0  0  0  0  0  0  0  0  0  0  0  0
  139.3300   77.5850  218.5692 H   0  0  0  0  0  0  0  0  0  0  0  0
  140.3799   76.5421  217.6474 H   0  0  0  0  0  0  0  0  0  0  0  0
  138.2174   75.1417  221.0135 H   0  0  0  0  0  0  0  0  0  0  0  0
  138.2633   73.6375  219.8930 H   0  0  0  0  0  0  0  0  0  0  0  0
  139.1540   73.7790  222.7030 H   0  0  0  0  0  0  0  0  0  0  0  0
  138.4459   69.4133  221.8859 H   0  0  0  0  0  0  0  0  0  0  0  0
  138.8540   67.9650  223.8869 H   0  0  0  0  0  0  0  0  0  0  0  0
  139.7480   67.8255  226.1802 H   0  0  0  0  0  0  0  0  0  0  0  0
  141.4869   71.2850  228.0190 H   0  0  0  0  0  0  0  0  0  0  0  0
  141.0216   72.5797  225.9751 H   0  0  0  0  0  0  0  0  0  0  0  0
  1  2  1  0
  2  3  1  0
  3  4  2  0
  4  5  1  0
  5  6  2  0
  6  7  1  0
  7  8  2  0
  2  9  1  0
  9 10  1  0
  9 11  1  0
 11 12  2  0
 11 13  1  0
 13 14  1  0
 14 15  1  0
 15 16  1  0
 16 17  1  0
 17 18  1  0
 18 19  2  0
 18 20  1  0
 20 21  1  0
 21 22  1  0
 22 23  2  0
 22 24  1  0
 24 25  2  0
 25 26  1  0
 26 27  2  0
 27 28  1  0
 28 29  2  0
 29 30  1  0
 29 31  1  0
 31 32  2  0
 32 33  1  0
 33 34  2  0
  8  3  1  0
 17 13  1  0
 34 24  1  0
 33 27  1  0
  1 35  1  0
  1 36  1  0
  1 37  1  0
  2 38  1  1
  4 39  1  0
  5 40  1  0
  6 41  1  0
  7 42  1  0
  8 43  1  0
 10 44  1  0
 10 45  1  0
 10 46  1  0
 13 47  1  1
 14 48  1  0
 14 49  1  0
 15 50  1  0
 15 51  1  0
 16 52  1  0
 16 53  1  0
 20 54  1  0
 20 55  1  0
 21 56  1  0
 25 57  1  0
 26 58  1  0
 28 59  1  0
 31 60  1  0
 32 61  1  0
M  END
>  <smiles>  (46) 
C[C@H](c1ccccc1)N(C)C(=O)[C@@H]1CCCN1C(=O)CNC(=O)c1ccc2cc(Cl)ccc2n1

>  <score_type>  (46) 
oracle

>  <origin>  (46) 
autodockgpu

>  <m_score__min__energy>  (46) 
-9.0800000000000001

>  <m_primary>  (46) 
energy

>  <rmsd>  (46) 
2.726214535917155

>  <m_score__min__rmsd>  (46) 
2.726214535917155

>  <meeko>  (46) 
{"free_energy": -8.57, "intermolecular_energy": -10.96, "internal_energy": -3.03, "cluster_size": 24, "cluster_id": 1, "rank_in_cluster": 12}

>  <energy>  (46) 
-7.58

>  <cluster_rmsd>  (46) 
0.0

>  <cluster>  (46) 
6

$$$$

     RDKit          3D

 61 64  0  0  0  0  0  0  0  0999 V2000
  142.2710   74.2100  217.9600 C   0  0  0  0  0  0  0  0  0  0  0  0
  142.4020   74.2910  219.4280 C   0  0  2  0  0  0  0  0  0  0  0  0
  143.7590   73.8430  219.8680 C   0  0  0  0  0  0  0  0  0  0  0  0
  144.1340   72.5140  219.6200 C   0  0  0  0  0  0  0  0  0  0  0  0
  145.3620   72.0200  219.9590 C   0  0  0  0  0  0  0  0  0  0  0  0
  146.2960   72.8300  220.5720 C   0  0  0  0  0  0  0  0  0  0  0  0
  145.9490   74.1250  220.8200 C   0  0  0  0  0  0  0  0  0  0  0  0
  144.6920   74.6280  220.4710 C   0  0  0  0  0  0  0  0  0  0  0  0
  141.3140   73.8860  220.2370 N   0  0  0  0  0  0  0  0  0  0  0  0
  140.8240   72.4880  220.0220 C   0  0  0  0  0  0  0  0  0  0  0  0
  140.6170   74.6000  221.2200 C   0  0  0  0  0  0  0  0  0  0  0  0
  140.3290   73.9930  222.3340 O   0  0  0  0  0  0  0  0  0  0  0  0
  140.1380   76.0020  221.1920 C   0  0  2  0  0  0  0  0  0  0  0  0
  140.7280   76.8570  222.2540 C   0  0  0  0  0  0  0  0  0  0  0  0
  139.5800   77.7370  222.7150 C   0  0  0  0  0  0  0  0  0  0  0  0
  138.4250   76.6950  222.7290 C   0  0  0  0  0  0  0  0  0  0  0  0
  138.6940   75.9340  221.5270 N   0  0  0  0  0  0  0  0  0  0  0  0
  137.8110   75.1880  220.6970 C   0  0  0  0  0  0  0  0  0  0  0  0
  137.1810   75.8370  219.7560 O   0  0  0  0  0  0  0  0  0  0  0  0
  137.4930   73.7700  220.7460 C   0  0  0  0  0  0  0  0  0  0  0  0
  137.9230   72.9960  221.8450 N   0  0  0  0  0  0  0  0  0  0  0  0
  137.9270   71.5530  221.8470 C   0  0  0  0  0  0  0  0  0  0  0  0
  137.5210   70.9040  220.8260 O   0  0  0  0  0  0  0  0  0  0  0  0
  138.4010   70.8330  223.0320 C   0  0  0  0  0  0  0  0  0  0  0  0
  137.9970   69.5320  223.2300 C   0  0  0  0  0  0  0  0  0  0  0  0
  138.4260   68.8130  224.3440 C   0  0  0  0  0  0  0  0  0  0  0  0
  139.2630   69.4470  225.2380 C   0  0  0  0  0  0  0  0  0  0  0  0
  139.7460   68.8390  226.3670 C   0  0  0  0  0  0  0  0  0  0  0  0
  140.5890   69.4760  227.2660 C   0  0  0  0  0  0  0  0  0  0  0  0
  141.1900   68.6660  228.7040 Cl  0  0  0  0  0  0  0  0  0  0  0  0
  140.9470   70.7890  226.9910 C   0  0  0  0  0  0  0  0  0  0  0  0
  140.4740   71.4180  225.8640 C   0  0  0  0  0  0  0  0  0  0  0  0
  139.6390   70.7600  224.9890 C   0  0  0  0  0  0  0  0  0  0  0  0
  139.2170   71.4330  223.9140 N   0  0  0  0  0  0  0  0  0  0  0  0
  141.3612   73.6474  217.7036 H   0  0  0  0  0  0  0  0  0  0  0  0
  142.2047   75.2250  217.5412 H   0  0  0  0  0  0  0  0  0  0  0  0
  143.1494   73.6972  217.5412 H   0  0  0  0  0  0  0  0  0  0  0  0
  142.3182   75.3664  219.6437 H   0  0  0  0  0  0  0  0  0  0  0  0
  143.4107   71.8431  219.1333 H   0  0  0  0  0  0  0  0  0  0  0  0
  145.6076   70.9700  219.7419 H   0  0  0  0  0  0  0  0  0  0  0  0
  147.2874   72.4438  220.8512 H   0  0  0  0  0  0  0  0  0  0  0  0
  146.6765   74.7910  221.3071 H   0  0  0  0  0  0  0  0  0  0  0  0
  144.4528   75.6794  220.6884 H   0  0  0  0  0  0  0  0  0  0  0  0
  140.6547   72.0050  220.9957 H   0  0  0  0  0  0  0  0  0  0  0  0
  139.8810   72.5129  219.4562 H   0  0  0  0  0  0  0  0  0  0  0  0
  141.5762   71.9188  219.4562 H   0  0  0  0  0  0  0  0  0  0  0  0
  140.3963   76.4277  220.2112 H   0  0  0  0  0  0  0  0  0  0  0  0
  141.1039   76.2415  223.0846 H   0  0  0  0  0  0  0  0  0  0  0  0
  141.5849   77.4434  221.8909 H   0  0  0  0  0  0  0  0  0  0  0  0
  139.7636   78.1556  223.7155 H   0  0  0  0  0  0  0  0  0  0  0  0
  139.3960   78.6223  222.0885 H   0  0  0  0  0  0  0  0  0  0  0  0
  138.4718   76.0580  223.6246 H   0  0  0  0  0  0  0  0  0  0  0  0
  137.4214   77.1446  222.7549 H   0  0  0  0  0  0  0  0  0  0  0  0
  136.3968   73.6870  220.7064 H   0  0  0  0  0  0  0  0  0  0  0  0
  138.0575   73.3508  219.9000 H   0  0  0  0  0  0  0  0  0  0  0  0
  138.2730   73.4420  222.7430 H   0  0  0  0  0  0  0  0  0  0  0  0
  137.3273   69.0541  222.4999 H   0  0  0  0  0  0  0  0  0  0  0  0
  138.1071   67.7727  224.5051 H   0  0  0  0  0  0  0  0  0  0  0  0
  139.4520   67.7986  226.5697 H   0  0  0  0  0  0  0  0  0  0  0  0
  141.6134   71.3294  227.6794 H   0  0  0  0  0  0  0  0  0  0  0  0
  140.7658   72.4586  225.6589 H   0  0  0  0  0  0  0  0  0  0  0  0
  1  2  1  0
  2  3  1  0
  3  4  2  0
  4  5  1  0
  5  6  2  0
  6  7  1  0
  7  8  2  0
  2  9  1  0
  9 10  1  0
  9 11  1  0
 11 12  2  0
 11 13  1  0
 13 14  1  0
 14 15  1  0
 15 16  1  0
 16 17  1  0
 17 18  1  0
 18 19  2  0
 18 20  1  0
 20 21  1  0
 21 22  1  0
 22 23  2  0
 22 24  1  0
 24 25  2  0
 25 26  1  0
 26 27  2  0
 27 28  1  0
 28 29  2  0
 29 30  1  0
 29 31  1  0
 31 32  2  0
 32 33  1  0
 33 34  2  0
  8  3  1  0
 17 13  1  0
 34 24  1  0
 33 27  1  0
  1 35  1  0
  1 36  1  0
  1 37  1  0
  2 38  1  6
  4 39  1  0
  5 40  1  0
  6 41  1  0
  7 42  1  0
  8 43  1  0
 10 44  1  0
 10 45  1  0
 10 46  1  0
 13 47  1  6
 14 48  1  0
 14 49  1  0
 15 50  1  0
 15 51  1  0
 16 52  1  0
 16 53  1  0
 20 54  1  0
 20 55  1  0
 21 56  1  0
 25 57  1  0
 26 58  1  0
 28 59  1  0
 31 60  1  0
 32 61  1  0
M  END
>  <smiles>  (47) 
C[C@H](c1ccccc1)N(C)C(=O)[C@@H]1CCCN1C(=O)CNC(=O)c1ccc2cc(Cl)ccc2n1

>  <score_type>  (47) 
oracle

>  <origin>  (47) 
autodockgpu

>  <m_score__min__energy>  (47) 
-9.0800000000000001

>  <m_primary>  (47) 
energy

>  <rmsd>  (47) 
5.523775358062268

>  <m_score__min__rmsd>  (47) 
5.523775358062268

>  <meeko>  (47) 
{"free_energy": -8.43, "intermolecular_energy": -10.81, "internal_energy": -3.19, "cluster_size": 13, "cluster_id": 2, "rank_in_cluster": 3}

>  <energy>  (47) 
-7.51

>  <cluster_rmsd>  (47) 
0.0

>  <cluster>  (47) 
7

$$$$

     RDKit          3D

 61 64  0  0  0  0  0  0  0  0999 V2000
  141.8440   78.7290  224.0010 C   0  0  0  0  0  0  0  0  0  0  0  0
  141.3310   78.4940  222.6360 C   0  0  2  0  0  0  0  0  0  0  0  0
  141.4070   79.7430  221.8170 C   0  0  0  0  0  0  0  0  0  0  0  0
  141.4550   79.6200  220.4200 C   0  0  0  0  0  0  0  0  0  0  0  0
  141.4970   80.7030  219.5870 C   0  0  0  0  0  0  0  0  0  0  0  0
  141.4940   81.9830  220.1040 C   0  0  0  0  0  0  0  0  0  0  0  0
  141.4470   82.1200  221.4600 C   0  0  0  0  0  0  0  0  0  0  0  0
  141.4030   81.0110  222.3090 C   0  0  0  0  0  0  0  0  0  0  0  0
  140.1730   77.7000  222.4660 N   0  0  0  0  0  0  0  0  0  0  0  0
  138.8640   78.4140  222.6090 C   0  0  0  0  0  0  0  0  0  0  0  0
  140.0600   76.3340  222.1810 C   0  0  0  0  0  0  0  0  0  0  0  0
  139.2980   75.6070  222.9450 O   0  0  0  0  0  0  0  0  0  0  0  0
  140.6970   75.5500  221.0970 C   0  0  2  0  0  0  0  0  0  0  0  0
  141.8540   76.2340  220.4640 C   0  0  0  0  0  0  0  0  0  0  0  0
  141.7240   75.9130  218.9860 C   0  0  0  0  0  0  0  0  0  0  0  0
  140.1870   76.0690  218.8060 C   0  0  0  0  0  0  0  0  0  0  0  0
  139.6800   75.4630  220.0200 N   0  0  0  0  0  0  0  0  0  0  0  0
  138.4250   74.8470  220.2810 C   0  0  0  0  0  0  0  0  0  0  0  0
  137.3580   75.5920  220.1840 O   0  0  0  0  0  0  0  0  0  0  0  0
  138.1460   73.4700  220.6580 C   0  0  0  0  0  0  0  0  0  0  0  0
  138.6430   72.9660  221.8790 N   0  0  0  0  0  0  0  0  0  0  0  0
  139.1320   71.6190  222.0420 C   0  0  0  0  0  0  0  0  0  0  0  0
  139.1240   70.8040  221.0590 O   0  0  0  0  0  0  0  0  0  0  0  0
  139.6390   71.1860  223.3470 C   0  0  0  0  0  0  0  0  0  0  0  0
  140.4790   72.0210  224.0490 C   0  0  0  0  0  0  0  0  0  0  0  0
  140.9820   71.6480  225.2920 C   0  0  0  0  0  0  0  0  0  0  0  0
  140.6140   70.4170  225.7940 C   0  0  0  0  0  0  0  0  0  0  0  0
  141.0480   69.9450  227.0060 C   0  0  0  0  0  0  0  0  0  0  0  0
  140.6770   68.7070  227.5100 C   0  0  0  0  0  0  0  0  0  0  0  0
  141.2520   68.1340  229.0670 Cl  0  0  0  0  0  0  0  0  0  0  0  0
  139.8270   67.9270  226.7380 C   0  0  0  0  0  0  0  0  0  0  0  0
  139.3800   68.3810  225.5210 C   0  0  0  0  0  0  0  0  0  0  0  0
  139.7650   69.6140  225.0450 C   0  0  0  0  0  0  0  0  0  0  0  0
  139.2920   69.9920  223.8530 N   0  0  0  0  0  0  0  0  0  0  0  0
  141.1000   78.3882  224.7361 H   0  0  0  0  0  0  0  0  0  0  0  0
  142.7811   78.1704  224.1418 H   0  0  0  0  0  0  0  0  0  0  0  0
  142.0330   79.8035  224.1418 H   0  0  0  0  0  0  0  0  0  0  0  0
  142.0366   77.7679  222.2060 H   0  0  0  0  0  0  0  0  0  0  0  0
  141.4590   78.6127  219.9779 H   0  0  0  0  0  0  0  0  0  0  0  0
  141.5334   80.5536  218.4978 H   0  0  0  0  0  0  0  0  0  0  0  0
  141.5284   82.8627  219.4445 H   0  0  0  0  0  0  0  0  0  0  0  0
  141.4437   83.1296  221.8967 H   0  0  0  0  0  0  0  0  0  0  0  0
  141.3643   81.1666  223.3973 H   0  0  0  0  0  0  0  0  0  0  0  0
  138.6305   78.5414  223.6764 H   0  0  0  0  0  0  0  0  0  0  0  0
  138.9302   79.4010  222.1278 H   0  0  0  0  0  0  0  0  0  0  0  0
  138.0700   77.8240  222.1278 H   0  0  0  0  0  0  0  0  0  0  0  0
  141.0412   74.5978  221.5269 H   0  0  0  0  0  0  0  0  0  0  0  0
  141.8030   77.3199  220.6319 H   0  0  0  0  0  0  0  0  0  0  0  0
  142.8158   75.9010  220.8811 H   0  0  0  0  0  0  0  0  0  0  0  0
  142.2820   76.6276  218.3631 H   0  0  0  0  0  0  0  0  0  0  0  0
  142.1268   74.9335  218.6889 H   0  0  0  0  0  0  0  0  0  0  0  0
  139.8979   77.1281  218.7368 H   0  0  0  0  0  0  0  0  0  0  0  0
  139.7989   75.6098  217.8849 H   0  0  0  0  0  0  0  0  0  0  0  0
  137.0517   73.3634  220.6905 H   0  0  0  0  0  0  0  0  0  0  0  0
  138.6840   72.8822  219.8997 H   0  0  0  0  0  0  0  0  0  0  0  0
  138.6860   73.5620  222.7570 H   0  0  0  0  0  0  0  0  0  0  0  0
  140.7563   72.9960  223.6217 H   0  0  0  0  0  0  0  0  0  0  0  0
  141.6517   72.3137  225.8562 H   0  0  0  0  0  0  0  0  0  0  0  0
  141.7204   70.5763  227.6055 H   0  0  0  0  0  0  0  0  0  0  0  0
  139.5094   66.9392  227.1031 H   0  0  0  0  0  0  0  0  0  0  0  0
  138.7068   67.7521  224.9200 H   0  0  0  0  0  0  0  0  0  0  0  0
  1  2  1  0
  2  3  1  0
  3  4  2  0
  4  5  1  0
  5  6  2  0
  6  7  1  0
  7  8  2  0
  2  9  1  0
  9 10  1  0
  9 11  1  0
 11 12  2  0
 11 13  1  0
 13 14  1  0
 14 15  1  0
 15 16  1  0
 16 17  1  0
 17 18  1  0
 18 19  2  0
 18 20  1  0
 20 21  1  0
 21 22  1  0
 22 23  2  0
 22 24  1  0
 24 25  2  0
 25 26  1  0
 26 27  2  0
 27 28  1  0
 28 29  2  0
 29 30  1  0
 29 31  1  0
 31 32  2  0
 32 33  1  0
 33 34  2  0
  8  3  1  0
 17 13  1  0
 34 24  1  0
 33 27  1  0
  1 35  1  0
  1 36  1  0
  1 37  1  0
  2 38  1  6
  4 39  1  0
  5 40  1  0
  6 41  1  0
  7 42  1  0
  8 43  1  0
 10 44  1  0
 10 45  1  0
 10 46  1  0
 13 47  1  1
 14 48  1  0
 14 49  1  0
 15 50  1  0
 15 51  1  0
 16 52  1  0
 16 53  1  0
 20 54  1  0
 20 55  1  0
 21 56  1  0
 25 57  1  0
 26 58  1  0
 28 59  1  0
 31 60  1  0
 32 61  1  0
M  END
>  <smiles>  (48) 
C[C@H](c1ccccc1)N(C)C(=O)[C@@H]1CCCN1C(=O)CNC(=O)c1ccc2cc(Cl)ccc2n1

>  <score_type>  (48) 
oracle

>  <origin>  (48) 
autodockgpu

>  <m_score__min__energy>  (48) 
-9.0800000000000001

>  <m_primary>  (48) 
energy

>  <rmsd>  (48) 
2.728549184473153

>  <m_score__min__rmsd>  (48) 
2.728549184473153

>  <meeko>  (48) 
{"free_energy": -8.11, "intermolecular_energy": -10.49, "internal_energy": -2.9, "cluster_size": 24, "cluster_id": 1, "rank_in_cluster": 20}

>  <energy>  (48) 
-7.5

>  <cluster_rmsd>  (48) 
0.0

>  <cluster>  (48) 
8

$$$$

     RDKit          3D

 61 64  0  0  0  0  0  0  0  0999 V2000
  142.5790   80.4870  223.5830 C   0  0  0  0  0  0  0  0  0  0  0  0
  141.7920   79.9410  222.4600 C   0  0  2  0  0  0  0  0  0  0  0  0
  141.5210   80.9970  221.4360 C   0  0  0  0  0  0  0  0  0  0  0  0
  141.0580   82.2460  221.8740 C   0  0  0  0  0  0  0  0  0  0  0  0
  140.8090   83.2810  221.0160 C   0  0  0  0  0  0  0  0  0  0  0  0
  141.0100   83.1280  219.6600 C   0  0  0  0  0  0  0  0  0  0  0  0
  141.4610   81.9210  219.2170 C   0  0  0  0  0  0  0  0  0  0  0  0
  141.7150   80.8640  220.0950 C   0  0  0  0  0  0  0  0  0  0  0  0
  140.7300   79.0490  222.7370 N   0  0  0  0  0  0  0  0  0  0  0  0
  141.0890   77.5960  222.7740 C   0  0  0  0  0  0  0  0  0  0  0  0
  139.3780   79.3180  222.9840 C   0  0  0  0  0  0  0  0  0  0  0  0
  138.5540   78.3140  223.0530 O   0  0  0  0  0  0  0  0  0  0  0  0
  138.7080   80.6230  223.1930 C   0  0  2  0  0  0  0  0  0  0  0  0
  138.3490   80.8920  224.6090 C   0  0  0  0  0  0  0  0  0  0  0  0
  136.9900   81.5630  224.5350 C   0  0  0  0  0  0  0  0  0  0  0  0
  136.3180   80.7000  223.4280 C   0  0  0  0  0  0  0  0  0  0  0  0
  137.4050   80.5170  222.4910 N   0  0  0  0  0  0  0  0  0  0  0  0
  137.3760   80.2670  221.0910 C   0  0  0  0  0  0  0  0  0  0  0  0
  137.3520   81.3020  220.2960 O   0  0  0  0  0  0  0  0  0  0  0  0
  137.3650   78.9910  220.3920 C   0  0  0  0  0  0  0  0  0  0  0  0
  138.5330   78.2000  220.3660 N   0  0  0  0  0  0  0  0  0  0  0  0
  139.5840   78.3670  219.3920 C   0  0  0  0  0  0  0  0  0  0  0  0
  139.4890   79.2600  218.4850 O   0  0  0  0  0  0  0  0  0  0  0  0
  140.7670   77.5030  219.4500 C   0  0  0  0  0  0  0  0  0  0  0  0
  141.9360   77.9300  218.8610 C   0  0  0  0  0  0  0  0  0  0  0  0
  143.0820   77.1390  218.8930 C   0  0  0  0  0  0  0  0  0  0  0  0
  143.0050   75.9180  219.5310 C   0  0  0  0  0  0  0  0  0  0  0  0
  144.0680   75.0580  219.6250 C   0  0  0  0  0  0  0  0  0  0  0  0
  143.9920   73.8300  220.2660 C   0  0  0  0  0  0  0  0  0  0  0  0
  145.3740   72.7520  220.3680 Cl  0  0  0  0  0  0  0  0  0  0  0  0
  142.7740   73.4770  220.8330 C   0  0  0  0  0  0  0  0  0  0  0  0
  141.6960   74.3250  220.7510 C   0  0  0  0  0  0  0  0  0  0  0  0
  141.8010   75.5370  220.1080 C   0  0  0  0  0  0  0  0  0  0  0  0
  140.7120   76.3120  220.0660 N   0  0  0  0  0  0  0  0  0  0  0  0
  142.1262   80.1729  224.5350 H   0  0  0  0  0  0  0  0  0  0  0  0
  143.6106   80.1096  223.5255 H   0  0  0  0  0  0  0  0  0  0  0  0
  142.5867   81.5855  223.5255 H   0  0  0  0  0  0  0  0  0  0  0  0
  142.4601   79.1953  222.0044 H   0  0  0  0  0  0  0  0  0  0  0  0
  140.8885   82.3991  222.9500 H   0  0  0  0  0  0  0  0  0  0  0  0
  140.4461   84.2419  221.4097 H   0  0  0  0  0  0  0  0  0  0  0  0
  140.8127   83.9529  218.9596 H   0  0  0  0  0  0  0  0  0  0  0  0
  141.6296   81.7748  218.1399 H   0  0  0  0  0  0  0  0  0  0  0  0
  142.0787   79.9060  219.6950 H   0  0  0  0  0  0  0  0  0  0  0  0
  141.1708   77.2650  223.8198 H   0  0  0  0  0  0  0  0  0  0  0  0
  140.3081   77.0123  222.2647 H   0  0  0  0  0  0  0  0  0  0  0  0
  142.0519   77.4431  222.2647 H   0  0  0  0  0  0  0  0  0  0  0  0
  139.3913   81.4121  222.8459 H   0  0  0  0  0  0  0  0  0  0  0  0
  138.2889   79.9537  225.1799 H   0  0  0  0  0  0  0  0  0  0  0  0
  139.0970   81.5169  225.1189 H   0  0  0  0  0  0  0  0  0  0  0  0
  136.4489   81.4941  225.4902 H   0  0  0  0  0  0  0  0  0  0  0  0
  137.0187   82.6425  224.3253 H   0  0  0  0  0  0  0  0  0  0  0  0
  135.9686   79.7369  223.8285 H   0  0  0  0  0  0  0  0  0  0  0  0
  135.4233   81.1625  222.9858 H   0  0  0  0  0  0  0  0  0  0  0  0
  136.5759   78.3802  220.8547 H   0  0  0  0  0  0  0  0  0  0  0  0
  137.2242   79.2761  219.3389 H   0  0  0  0  0  0  0  0  0  0  0  0
  138.7030   77.4260  221.0740 H   0  0  0  0  0  0  0  0  0  0  0  0
  141.9652   78.9082  218.3588 H   0  0  0  0  0  0  0  0  0  0  0  0
  144.0183   77.4768  218.4247 H   0  0  0  0  0  0  0  0  0  0  0  0
  145.0251   75.3550  219.1715 H   0  0  0  0  0  0  0  0  0  0  0  0
  142.6718   72.5121  221.3511 H   0  0  0  0  0  0  0  0  0  0  0  0
  140.7378   74.0316  221.2047 H   0  0  0  0  0  0  0  0  0  0  0  0
  1  2  1  0
  2  3  1  0
  3  4  2  0
  4  5  1  0
  5  6  2  0
  6  7  1  0
  7  8  2  0
  2  9  1  0
  9 10  1  0
  9 11  1  0
 11 12  2  0
 11 13  1  0
 13 14  1  0
 14 15  1  0
 15 16  1  0
 16 17  1  0
 17 18  1  0
 18 19  2  0
 18 20  1  0
 20 21  1  0
 21 22  1  0
 22 23  2  0
 22 24  1  0
 24 25  2  0
 25 26  1  0
 26 27  2  0
 27 28  1  0
 28 29  2  0
 29 30  1  0
 29 31  1  0
 31 32  2  0
 32 33  1  0
 33 34  2  0
  8  3  1  0
 17 13  1  0
 34 24  1  0
 33 27  1  0
  1 35  1  0
  1 36  1  0
  1 37  1  0
  2 38  1  6
  4 39  1  0
  5 40  1  0
  6 41  1  0
  7 42  1  0
  8 43  1  0
 10 44  1  0
 10 45  1  0
 10 46  1  0
 13 47  1  6
 14 48  1  0
 14 49  1  0
 15 50  1  0
 15 51  1  0
 16 52  1  0
 16 53  1  0
 20 54  1  0
 20 55  1  0
 21 56  1  0
 25 57  1  0
 26 58  1  0
 28 59  1  0
 31 60  1  0
 32 61  1  0
M  END
>  <smiles>  (49) 
C[C@H](c1ccccc1)N(C)C(=O)[C@@H]1CCCN1C(=O)CNC(=O)c1ccc2cc(Cl)ccc2n1

>  <score_type>  (49) 
oracle

>  <origin>  (49) 
autodockgpu

>  <m_score__min__energy>  (49) 
-9.0800000000000001

>  <m_primary>  (49) 
energy

>  <rmsd>  (49) 
6.813276867811117

>  <m_score__min__rmsd>  (49) 
6.813276867811117

>  <meeko>  (49) 
{"free_energy": -6.01, "intermolecular_energy": -8.39, "internal_energy": -4.52, "cluster_size": 1, "cluster_id": 9, "rank_in_cluster": 1}

>  <energy>  (49) 
-7.12

>  <cluster_rmsd>  (49) 
1.28

>  <cluster>  (49) 
8

$$$$

     RDKit          3D

 61 64  0  0  0  0  0  0  0  0999 V2000
  137.8130   80.3130  223.7520 C   0  0  0  0  0  0  0  0  0  0  0  0
  138.8140   79.2880  223.3980 C   0  0  2  0  0  0  0  0  0  0  0  0
  140.1940   79.8660  223.4030 C   0  0  0  0  0  0  0  0  0  0  0  0
  141.2820   78.9910  223.5300 C   0  0  0  0  0  0  0  0  0  0  0  0
  142.5790   79.4220  223.5170 C   0  0  0  0  0  0  0  0  0  0  0  0
  142.8680   80.7640  223.3760 C   0  0  0  0  0  0  0  0  0  0  0  0
  141.8210   81.6290  223.2520 C   0  0  0  0  0  0  0  0  0  0  0  0
  140.4960   81.1860  223.2640 C   0  0  0  0  0  0  0  0  0  0  0  0
  138.5210   78.3730  222.3590 N   0  0  0  0  0  0  0  0  0  0  0  0
  137.5630   77.2760  222.7040 C   0  0  0  0  0  0  0  0  0  0  0  0
  138.9960   78.3350  221.0420 C   0  0  0  0  0  0  0  0  0  0  0  0
  138.1380   78.1350  220.0850 O   0  0  0  0  0  0  0  0  0  0  0  0
  140.3820   78.4980  220.5440 C   0  0  2  0  0  0  0  0  0  0  0  0
  140.4890   79.3750  219.3490 C   0  0  0  0  0  0  0  0  0  0  0  0
  141.5310   78.7010  218.4750 C   0  0  0  0  0  0  0  0  0  0  0  0
  141.1150   77.2120  218.6500 C   0  0  0  0  0  0  0  0  0  0  0  0
  140.7900   77.1560  220.0600 N   0  0  0  0  0  0  0  0  0  0  0  0
  140.8110   76.0570  220.9620 C   0  0  0  0  0  0  0  0  0  0  0  0
  141.1010   76.3090  222.2100 O   0  0  0  0  0  0  0  0  0  0  0  0
  140.5540   74.6500  220.6940 C   0  0  0  0  0  0  0  0  0  0  0  0
  140.4990   73.7340  221.7660 N   0  0  0  0  0  0  0  0  0  0  0  0
  139.8600   72.4440  221.6750 C   0  0  0  0  0  0  0  0  0  0  0  0
  139.2960   72.0760  220.5910 O   0  0  0  0  0  0  0  0  0  0  0  0
  139.8610   71.5540  222.8400 C   0  0  0  0  0  0  0  0  0  0  0  0
  139.2750   70.3130  222.7330 C   0  0  0  0  0  0  0  0  0  0  0  0
  139.2550   69.4370  223.8160 C   0  0  0  0  0  0  0  0  0  0  0  0
  139.8380   69.8550  224.9940 C   0  0  0  0  0  0  0  0  0  0  0  0
  139.8770   69.0780  226.1230 C   0  0  0  0  0  0  0  0  0  0  0  0
  140.4630   69.4980  227.3080 C   0  0  0  0  0  0  0  0  0  0  0  0
  140.4960   68.4770  228.7360 Cl  0  0  0  0  0  0  0  0  0  0  0  0
  141.0310   70.7650  227.3300 C   0  0  0  0  0  0  0  0  0  0  0  0
  141.0030   71.5590  226.2090 C   0  0  0  0  0  0  0  0  0  0  0  0
  140.4140   71.1160  225.0470 C   0  0  0  0  0  0  0  0  0  0  0  0
  140.4230   71.9420  223.9950 N   0  0  0  0  0  0  0  0  0  0  0  0
  137.7381   80.3897  224.8468 H   0  0  0  0  0  0  0  0  0  0  0  0
  138.1200   81.2842  223.3365 H   0  0  0  0  0  0  0  0  0  0  0  0
  136.8348   80.0291  223.3365 H   0  0  0  0  0  0  0  0  0  0  0  0
  138.7519   78.5604  224.2206 H   0  0  0  0  0  0  0  0  0  0  0  0
  141.0840   77.9151  223.6446 H   0  0  0  0  0  0  0  0  0  0  0  0
  143.3977   78.6945  223.6196 H   0  0  0  0  0  0  0  0  0  0  0  0
  143.9074   81.1237  223.3641 H   0  0  0  0  0  0  0  0  0  0  0  0
  142.0251   82.7040  223.1395 H   0  0  0  0  0  0  0  0  0  0  0  0
  139.6814   81.9178  223.1592 H   0  0  0  0  0  0  0  0  0  0  0  0
  137.4856   77.1873  223.7977 H   0  0  0  0  0  0  0  0  0  0  0  0
  136.5732   77.5080  222.2839 H   0  0  0  0  0  0  0  0  0  0  0  0
  137.9262   76.3265  222.2839 H   0  0  0  0  0  0  0  0  0  0  0  0
  140.9837   78.9319  221.3562 H   0  0  0  0  0  0  0  0  0  0  0  0
  139.5238   79.4378  218.8251 H   0  0  0  0  0  0  0  0  0  0  0  0
  140.7666   80.4067  219.6108 H   0  0  0  0  0  0  0  0  0  0  0  0
  141.4547   79.0249  217.4265 H   0  0  0  0  0  0  0  0  0  0  0  0
  142.5739   78.9237  218.7450 H   0  0  0  0  0  0  0  0  0  0  0  0
  140.2420   76.9648  218.0281 H   0  0  0  0  0  0  0  0  0  0  0  0
  141.8911   76.4950  218.3441 H   0  0  0  0  0  0  0  0  0  0  0  0
  139.5844   74.5953  220.1773 H   0  0  0  0  0  0  0  0  0  0  0  0
  141.4415   74.3301  220.1283 H   0  0  0  0  0  0  0  0  0  0  0  0
  140.9330   73.9490  222.7110 H   0  0  0  0  0  0  0  0  0  0  0  0
  138.8167   70.0092  221.7803 H   0  0  0  0  0  0  0  0  0  0  0  0
  138.7892   68.4438  223.7343 H   0  0  0  0  0  0  0  0  0  0  0  0
  139.4232   68.0766  226.0874 H   0  0  0  0  0  0  0  0  0  0  0  0
  141.5062   71.1352  228.2504 H   0  0  0  0  0  0  0  0  0  0  0  0
  141.4568   72.5605  226.2408 H   0  0  0  0  0  0  0  0  0  0  0  0
  1  2  1  0
  2  3  1  0
  3  4  2  0
  4  5  1  0
  5  6  2  0
  6  7  1  0
  7  8  2  0
  2  9  1  0
  9 10  1  0
  9 11  1  0
 11 12  2  0
 11 13  1  0
 13 14  1  0
 14 15  1  0
 15 16  1  0
 16 17  1  0
 17 18  1  0
 18 19  2  0
 18 20  1  0
 20 21  1  0
 21 22  1  0
 22 23  2  0
 22 24  1  0
 24 25  2  0
 25 26  1  0
 26 27  2  0
 27 28  1  0
 28 29  2  0
 29 30  1  0
 29 31  1  0
 31 32  2  0
 32 33  1  0
 33 34  2  0
  8  3  1  0
 17 13  1  0
 34 24  1  0
 33 27  1  0
  1 35  1  0
  1 36  1  0
  1 37  1  0
  2 38  1  1
  4 39  1  0
  5 40  1  0
  6 41  1  0
  7 42  1  0
  8 43  1  0
 10 44  1  0
 10 45  1  0
 10 46  1  0
 13 47  1  1
 14 48  1  0
 14 49  1  0
 15 50  1  0
 15 51  1  0
 16 52  1  0
 16 53  1  0
 20 54  1  0
 20 55  1  0
 21 56  1  0
 25 57  1  0
 26 58  1  0
 28 59  1  0
 31 60  1  0
 32 61  1  0
M  END
>  <smiles>  (50) 
C[C@H](c1ccccc1)N(C)C(=O)[C@@H]1CCCN1C(=O)CNC(=O)c1ccc2cc(Cl)ccc2n1

>  <score_type>  (50) 
oracle

>  <origin>  (50) 
autodockgpu

>  <m_score__min__energy>  (50) 
-9.0800000000000001

>  <m_primary>  (50) 
energy

>  <rmsd>  (50) 
2.9764440353922907

>  <m_score__min__rmsd>  (50) 
2.9764440353922907

>  <meeko>  (50) 
{"free_energy": -8.22, "intermolecular_energy": -10.61, "internal_energy": -2.94, "cluster_size": 24, "cluster_id": 1, "rank_in_cluster": 17}

>  <energy>  (50) 
-6.01

>  <cluster_rmsd>  (50) 
0.0

>  <cluster>  (50) 
9

$$$$
