@<TRIPOS>MOLECULE
*****
 67 70 0 0 0
SMALL
GASTEIGER

@<TRIPOS>ATOM
      1 C         137.7280   78.8010  222.6540 C.3     1  UNL1       -0.0570
      2 C         138.0700   78.8270  221.1920 C.3     1  UNL1        0.0217
      3 C         139.2110   77.9150  220.9070 C.2     1  UNL1        0.2198
      4 O         139.1780   77.3190  219.7910 O.2     1  UNL1       -0.2753
      5 N         140.2620   77.7420  221.8470 N.am    1  UNL1       -0.2683
      6 C         141.0220   78.8490  222.2350 C.ar    1  UNL1        0.0366
      7 C         141.4110   79.8750  221.3870 C.ar    1  UNL1       -0.0403
      8 C         142.1550   80.9520  221.7980 C.ar    1  UNL1       -0.0600
      9 C         142.5670   81.0760  223.1080 C.ar    1  UNL1       -0.0616
     10 C         142.1960   80.0710  223.9750 C.ar    1  UNL1       -0.0600
     11 C         141.4460   78.9870  223.5620 C.ar    1  UNL1       -0.0403
     12 C         140.4700   76.3760  222.3500 C.3     1  UNL1        0.0339
     13 C         139.1850   75.7170  222.7140 C.3     1  UNL1       -0.0180
     14 C         138.6890   74.7440  221.6680 C.3     1  UNL1        0.0164
     15 N         139.7400   73.9290  221.1390 N.am    1  UNL1       -0.3001
     16 C         139.8820   72.5410  221.1750 C.2     1  UNL1        0.2327
     17 O         140.9430   72.0650  220.5900 O.2     1  UNL1       -0.2739
     18 C         139.0260   71.5160  221.7690 C.3     1  UNL1        0.0859
     19 N         137.8040   72.0340  222.2980 N.3     1  UNL1       -0.3197
     20 C         139.7090   70.7960  222.9230 C.3     1  UNL1       -0.0093
     21 C         140.2810   71.8880  223.8030 C.3     1  UNL1       -0.0224
     22 C         140.3410   71.2070  225.1180 C.ar    1  UNL1       -0.0438
     23 C         141.1790   71.4680  226.1910 C.ar    1  UNL1       -0.0580
     24 C         141.0670   70.7010  227.3420 C.ar    1  UNL1       -0.0583
     25 C         140.1170   69.6770  227.4130 C.ar    1  UNL1       -0.0473
     26 C         140.0250   68.8690  228.6730 C.3     1  UNL1       -0.0305
     27 C         141.3720   68.1570  228.7850 C.3     1  UNL1       -0.0613
     28 C         139.3040   69.4490  226.3270 C.ar    1  UNL1       -0.0551
     29 C         139.3960   70.2030  225.1630 C.ar    1  UNL1       -0.0436
     30 C         138.6730   70.1890  223.8640 C.3     1  UNL1       -0.0224
     31 C         140.8180   74.7060  220.4790 C.3     1  UNL1        0.0164
     32 C         141.4190   75.5810  221.5300 C.3     1  UNL1       -0.0180
     33 H         138.6513   78.8712  223.2479 H       1  UNL1        0.0234
     34 H         137.0730   79.6519  222.8925 H       1  UNL1        0.0234
     35 H         137.2092   77.8608  222.8925 H       1  UNL1        0.0234
     36 H         137.1944   78.5042  220.6097 H       1  UNL1        0.0356
     37 H         138.3552   79.8517  220.9117 H       1  UNL1        0.0356
     38 H         141.1076   79.8227  220.3310 H       1  UNL1        0.0636
     39 H         142.4276   81.7301  221.0698 H       1  UNL1        0.0618
     40 H         143.1636   81.9364  223.4452 H       1  UNL1        0.0618
     41 H         142.5067   80.1340  225.0283 H       1  UNL1        0.0618
     42 H         141.1750   78.2124  224.2945 H       1  UNL1        0.0636
     43 H         141.0077   76.4480  223.3069 H       1  UNL1        0.0505
     44 H         139.3290   75.1704  223.6576 H       1  UNL1        0.0298
     45 H         138.4282   76.5103  222.8029 H       1  UNL1        0.0298
     46 H         137.9310   74.0906  222.1245 H       1  UNL1        0.0465
     47 H         138.2685   75.3299  220.8374 H       1  UNL1        0.0465
     48 H         138.8186   70.8319  220.9329 H       1  UNL1        0.0557
     49 H         137.0880   71.2990  222.4950 H       1  UNL1        0.1189
     50 H         137.9950   72.6430  223.1220 H       1  UNL1        0.1189
     51 H         140.4090   70.0532  222.5128 H       1  UNL1        0.0327
     52 H         141.2813   72.1949  223.4635 H       1  UNL1        0.0317
     53 H         139.6915   72.8167  223.8055 H       1  UNL1        0.0317
     54 H         141.9247   72.2744  226.1307 H       1  UNL1        0.0620
     55 H         141.7265   70.8987  228.1999 H       1  UNL1        0.0620
     56 H         139.8605   69.5240  229.5413 H       1  UNL1        0.0311
     57 H         139.1838   68.1606  228.6492 H       1  UNL1        0.0311
     58 H         141.6281   68.0216  229.8462 H       1  UNL1        0.0233
     59 H         141.3092   67.1743  228.2947 H       1  UNL1        0.0233
     60 H         142.1486   68.7624  228.2947 H       1  UNL1        0.0233
     61 H         138.5567   68.6437  226.3816 H       1  UNL1        0.0623
     62 H         138.4104   69.1641  223.5629 H       1  UNL1        0.0317
     63 H         137.7158   70.7307  223.8814 H       1  UNL1        0.0317
     64 H         141.5799   74.0261  220.0700 H       1  UNL1        0.0465
     65 H         140.4221   75.3034  219.6445 H       1  UNL1        0.0465
     66 H         141.9934   74.9376  222.2127 H       1  UNL1        0.0298
     67 H         142.0233   76.3203  220.9839 H       1  UNL1        0.0298
@<TRIPOS>BOND
     1     1     2    1
     2     2     3    1
     3     3     4    2
     4     3     5   am
     5     5     6    1
     6     6     7   ar
     7     7     8   ar
     8     8     9   ar
     9     9    10   ar
    10    10    11   ar
    11     5    12    1
    12    12    13    1
    13    13    14    1
    14    14    15    1
    15    15    16   am
    16    16    17    2
    17    16    18    1
    18    18    19    1
    19    18    20    1
    20    20    21    1
    21    21    22    1
    22    22    23   ar
    23    23    24   ar
    24    24    25   ar
    25    25    26    1
    26    26    27    1
    27    25    28   ar
    28    28    29   ar
    29    29    30    1
    30    15    31    1
    31    31    32    1
    32    11     6   ar
    33    32    12    1
    34    30    20    1
    35    29    22   ar
    36     1    33    1
    37     1    34    1
    38     1    35    1
    39     2    36    1
    40     2    37    1
    41     7    38    1
    42     8    39    1
    43     9    40    1
    44    10    41    1
    45    11    42    1
    46    12    43    1
    47    13    44    1
    48    13    45    1
    49    14    46    1
    50    14    47    1
    51    18    48    1
    52    19    49    1
    53    19    50    1
    54    20    51    1
    55    21    52    1
    56    21    53    1
    57    23    54    1
    58    24    55    1
    59    26    56    1
    60    26    57    1
    61    27    58    1
    62    27    59    1
    63    27    60    1
    64    28    61    1
    65    30    62    1
    66    30    63    1
    67    31    64    1
    68    31    65    1
    69    32    66    1
    70    32    67    1
