@<TRIPOS>MOLECULE
*****
 56 60 0 0 0
SMALL
GASTEIGER

@<TRIPOS>ATOM
      1 O         142.6910   72.2860  219.7660 O.2     1  UNL1       -0.2916
      2 C         141.8510   72.7550  220.5650 C.2     1  UNL1        0.1710
      3 C         140.9990   71.8140  221.3130 C.3     1  UNL1        0.0535
      4 C         140.0370   72.5300  222.2050 C.2     1  UNL1        0.0565
      5 C         139.1050   71.7010  222.9750 C.ar    1  UNL1       -0.0026
      6 C         137.7410   71.9040  222.9780 C.ar    1  UNL1       -0.0528
      7 C         136.9020   71.0470  223.6980 C.ar    1  UNL1       -0.0604
      8 C         137.3980   69.9790  224.4270 C.ar    1  UNL1       -0.0496
      9 C         138.7430   69.7800  224.4270 C.ar    1  UNL1        0.0375
     10 C         139.4150   68.6810  225.1390 C.2     1  UNL1        0.2468
     11 O         139.1850   67.4720  224.9000 O.2     1  UNL1       -0.2700
     12 N         140.3600   69.0280  226.1380 N.am    1  UNL1       -0.2932
     13 C         140.7020   70.4120  226.4640 C.3     1  UNL1        0.0385
     14 C         140.6500   70.6240  227.9590 C.3     1  UNL1        0.0635
     15 O         141.3050   69.6630  228.6870 O.3     1  UNL1       -0.3767
     16 C         140.9730   68.3650  228.4140 C.3     1  UNL1        0.0635
     17 C         141.0530   68.0130  226.9440 C.3     1  UNL1        0.0385
     18 C         139.5670   70.6240  223.7160 C.ar    1  UNL1       -0.0407
     19 N         139.9850   73.8120  222.3060 N.2     1  UNL1       -0.2504
     20 C         140.8040   74.7230  221.6030 C.ar    1  UNL1        0.0764
     21 C         140.6890   76.1080  221.7260 C.ar    1  UNL1       -0.0146
     22 C         141.5220   76.9180  220.9640 C.ar    1  UNL1        0.0319
     23 N         141.4860   78.3280  220.9860 N.pl3   1  UNL1       -0.3255
     24 C         141.3890   79.2140  219.8750 C.3     1  UNL1        0.0357
     25 C         140.6560   80.4820  220.3300 C.3     1  UNL1        0.0634
     26 O         141.2880   81.1380  221.3630 O.3     1  UNL1       -0.3767
     27 C         142.1840   80.3340  222.0680 C.3     1  UNL1        0.0634
     28 C         141.6090   78.9580  222.3200 C.3     1  UNL1        0.0357
     29 C         142.4580   76.3440  220.0930 C.ar    1  UNL1       -0.0399
     30 C         142.5760   74.9800  219.9680 C.ar    1  UNL1       -0.0475
     31 C         141.7440   74.1980  220.7280 C.ar    1  UNL1        0.0432
     32 H         140.4326   71.1997  220.5976 H       1  UNL1        0.0409
     33 H         141.6490   71.1876  221.9416 H       1  UNL1        0.0409
     34 H         137.3109   72.7434  222.4118 H       1  UNL1        0.0624
     35 H         135.8168   71.2266  223.6848 H       1  UNL1        0.0618
     36 H         136.7255   69.3133  224.9879 H       1  UNL1        0.0625
     37 H         141.7171   70.6306  226.1011 H       1  UNL1        0.0487
     38 H         139.9776   71.0841  225.9808 H       1  UNL1        0.0487
     39 H         141.1066   71.5989  228.1851 H       1  UNL1        0.0575
     40 H         139.5901   70.5719  228.2487 H       1  UNL1        0.0575
     41 H         141.6600   67.7072  228.9665 H       1  UNL1        0.0575
     42 H         139.9253   68.2298  228.7205 H       1  UNL1        0.0575
     43 H         142.1088   67.9662  226.6390 H       1  UNL1        0.0487
     44 H         140.5706   67.0376  226.7829 H       1  UNL1        0.0487
     45 H         140.6501   70.4334  223.7372 H       1  UNL1        0.0631
     46 H         139.9528   76.5504  222.4132 H       1  UNL1        0.0657
     47 H         142.3965   79.4748  219.5187 H       1  UNL1        0.0486
     48 H         140.8373   78.7323  219.0543 H       1  UNL1        0.0486
     49 H         140.5828   81.1687  219.4738 H       1  UNL1        0.0575
     50 H         139.6676   80.1710  220.6991 H       1  UNL1        0.0575
     51 H         143.1107   80.2333  221.4839 H       1  UNL1        0.0575
     52 H         142.3851   80.8088  223.0396 H       1  UNL1        0.0575
     53 H         142.2835   78.3714  222.9610 H       1  UNL1        0.0486
     54 H         140.6393   79.0103  222.8366 H       1  UNL1        0.0486
     55 H         143.1115   76.9982  219.4972 H       1  UNL1        0.0636
     56 H         143.3111   74.5320  219.2832 H       1  UNL1        0.0626
@<TRIPOS>BOND
     1     1     2    2
     2     2     3    1
     3     3     4    1
     4     4     5    1
     5     5     6   ar
     6     6     7   ar
     7     7     8   ar
     8     8     9   ar
     9     9    10    1
    10    10    11    2
    11    10    12   am
    12    12    13    1
    13    13    14    1
    14    14    15    1
    15    15    16    1
    16    16    17    1
    17     9    18   ar
    18     4    19    2
    19    19    20    1
    20    20    21   ar
    21    21    22   ar
    22    22    23    1
    23    23    24    1
    24    24    25    1
    25    25    26    1
    26    26    27    1
    27    27    28    1
    28    22    29   ar
    29    29    30   ar
    30    30    31   ar
    31    31     2    1
    32    18     5   ar
    33    31    20   ar
    34    17    12    1
    35    28    23    1
    36     3    32    1
    37     3    33    1
    38     6    34    1
    39     7    35    1
    40     8    36    1
    41    13    37    1
    42    13    38    1
    43    14    39    1
    44    14    40    1
    45    16    41    1
    46    16    42    1
    47    17    43    1
    48    17    44    1
    49    18    45    1
    50    21    46    1
    51    24    47    1
    52    24    48    1
    53    25    49    1
    54    25    50    1
    55    27    51    1
    56    27    52    1
    57    28    53    1
    58    28    54    1
    59    29    55    1
    60    30    56    1
