
 46 49  0  0  1  0  0  0  0  0999 V2000
  139.6010   75.6250  220.3410 O   0  0  0  0  0  0  0  0  0  0  0  0
  140.9460   75.8710  220.9610 S   0  0  0  0  0  0  0  0  0  0  0  0
  141.1380   74.8050  222.0070 O   0  0  0  0  0  0  0  0  0  0  0  0
  142.1750   75.7070  219.7220 C   0  0  0  0  0  0  0  0  0  0  0  0
  143.1520   74.6590  220.1180 C   0  0  0  0  0  0  0  0  0  0  0  0
  142.7130   73.3400  220.1410 C   0  0  0  0  0  0  0  0  0  0  0  0
  143.6080   72.3330  220.5080 C   0  0  0  0  0  0  0  0  0  0  0  0
  144.9230   72.6340  220.8480 C   0  0  0  0  0  0  0  0  0  0  0  0
  145.3660   73.9570  220.8250 C   0  0  0  0  0  0  0  0  0  0  0  0
  144.4610   74.9430  220.4570 C   0  0  0  0  0  0  0  0  0  0  0  0
  140.9350   77.3750  221.7480 N   0  0  0  0  0  0  0  0  0  0  0  0
  141.7850   78.3620  221.1660 C   0  0  0  0  0  0  0  0  0  0  0  0
  142.0010   79.3610  222.2510 C   0  0  0  0  0  0  0  0  0  0  0  0
  143.2340   79.7930  222.6600 C   0  0  0  0  0  0  0  0  0  0  0  0
  143.3790   80.7200  223.6700 C   0  0  0  0  0  0  0  0  0  0  0  0
  142.2380   81.2090  224.2660 C   0  0  0  0  0  0  0  0  0  0  0  0
  140.9890   80.7620  223.8420 C   0  0  0  0  0  0  0  0  0  0  0  0
  140.8170   79.8440  222.8440 C   0  0  0  0  0  0  0  0  0  0  0  0
  139.5740   79.3100  222.3210 C   0  0  2  0  0  0  0  0  0  0  0  0
  138.3150   79.7530  222.8960 C   0  0  0  0  0  0  0  0  0  0  0  0
  137.9690   80.1660  224.0510 N   0  0  0  0  0  0  0  0  0  0  0  0
  136.6000   80.5110  224.2060 C   0  0  0  0  0  0  0  0  0  0  0  0
  136.1800   80.7090  222.7660 C   0  0  0  0  0  0  0  0  0  0  0  0
  137.0880   79.7930  222.1170 N   0  0  0  0  0  0  0  0  0  0  0  0
  139.7130   77.7870  222.3140 C   0  0  0  0  0  0  0  0  0  0  0  0
  141.6998   75.4229  218.7715 H   0  0  0  0  0  0  0  0  0  0  0  0
  142.6999   76.6662  219.6016 H   0  0  0  0  0  0  0  0  0  0  0  0
  141.6749   73.0931  219.8738 H   0  0  0  0  0  0  0  0  0  0  0  0
  143.2685   71.2869  220.5286 H   0  0  0  0  0  0  0  0  0  0  0  0
  145.6144   71.8281  221.1353 H   0  0  0  0  0  0  0  0  0  0  0  0
  146.4027   74.2112  221.0909 H   0  0  0  0  0  0  0  0  0  0  0  0
  144.7986   75.9897  220.4344 H   0  0  0  0  0  0  0  0  0  0  0  0
  142.7406   77.9157  220.8534 H   0  0  0  0  0  0  0  0  0  0  0  0
  141.3433   78.8138  220.2656 H   0  0  0  0  0  0  0  0  0  0  0  0
  144.1325   79.3899  222.1699 H   0  0  0  0  0  0  0  0  0  0  0  0
  144.3755   81.0586  223.9899 H   0  0  0  0  0  0  0  0  0  0  0  0
  142.3129   81.9507  225.0749 H   0  0  0  0  0  0  0  0  0  0  0  0
  140.0943   81.1689  224.3360 H   0  0  0  0  0  0  0  0  0  0  0  0
  139.4649   79.7420  221.3153 H   0  0  0  0  0  0  0  0  0  0  0  0
  136.0316   79.6992  224.6834 H   0  0  0  0  0  0  0  0  0  0  0  0
  136.4257   81.3851  224.8506 H   0  0  0  0  0  0  0  0  0  0  0  0
  135.1292   80.4270  222.6039 H   0  0  0  0  0  0  0  0  0  0  0  0
  136.2296   81.7470  222.4054 H   0  0  0  0  0  0  0  0  0  0  0  0
  136.8990   79.2520  221.2390 H   0  0  0  0  0  0  0  0  0  0  0  0
  139.6587   77.4199  223.3495 H   0  0  0  0  0  0  0  0  0  0  0  0
  138.8971   77.3725  221.7038 H   0  0  0  0  0  0  0  0  0  0  0  0
  1  2  2  0
  2  3  2  0
  2  4  1  0
  4  5  1  0
  5  6  2  0
  6  7  1  0
  7  8  2  0
  8  9  1  0
  9 10  2  0
  2 11  1  0
 11 12  1  0
 12 13  1  0
 13 14  2  0
 14 15  1  0
 15 16  2  0
 16 17  1  0
 17 18  2  0
 18 19  1  0
 19 20  1  0
 20 21  2  0
 21 22  1  0
 22 23  1  0
 23 24  1  0
 19 25  1  0
 10  5  1  0
 25 11  1  0
 18 13  1  0
 24 20  1  0
  4 26  1  0
  4 27  1  0
  6 28  1  0
  7 29  1  0
  8 30  1  0
  9 31  1  0
 10 32  1  0
 12 33  1  0
 12 34  1  0
 14 35  1  0
 15 36  1  0
 16 37  1  0
 17 38  1  0
 19 39  1  6
 22 40  1  0
 22 41  1  0
 23 42  1  0
 23 43  1  0
 24 44  1  0
 25 45  1  0
 25 46  1  0
M  END
