
 54 57  0  0  0  0  0  0  0  0999 V2000
  136.1630   75.0020  223.5440 N   0  0  0  0  0  0  0  0  0  0  0  0
  136.6600   75.9360  222.1980 S   0  0  0  0  0  0  0  0  0  0  0  0
  136.3330   77.3750  222.4230 O   0  0  0  0  0  0  0  0  0  0  0  0
  135.9000   75.5110  220.9580 O   0  0  0  0  0  0  0  0  0  0  0  0
  138.3840   75.7920  221.9490 C   0  0  0  0  0  0  0  0  0  0  0  0
  139.1750   76.8730  221.6180 C   0  0  0  0  0  0  0  0  0  0  0  0
  140.5460   76.6970  221.4320 C   0  0  0  0  0  0  0  0  0  0  0  0
  141.0820   75.4230  221.5860 C   0  0  0  0  0  0  0  0  0  0  0  0
  140.3190   74.3330  221.9130 C   0  0  0  0  0  0  0  0  0  0  0  0
  140.8550   72.9920  222.0790 C   0  0  0  0  0  0  0  0  0  0  0  0
  140.1090   71.9120  222.2260 C   0  0  0  0  0  0  0  0  0  0  0  0
  139.9650   71.3110  223.5680 C   0  0  0  0  0  0  0  0  0  0  0  0
  140.7050   71.7720  224.5750 N   0  0  0  0  0  0  0  0  0  0  0  0
  140.6580   71.3030  225.8240 C   0  0  0  0  0  0  0  0  0  0  0  0
  141.4440   71.8160  226.8260 C   0  0  0  0  0  0  0  0  0  0  0  0
  141.3640   71.3010  228.1080 C   0  0  0  0  0  0  0  0  0  0  0  0
  140.4800   70.2680  228.3440 C   0  0  0  0  0  0  0  0  0  0  0  0
  139.6840   69.7400  227.3560 C   0  0  0  0  0  0  0  0  0  0  0  0
  139.7800   70.2710  226.0800 C   0  0  0  0  0  0  0  0  0  0  0  0
  139.0130   69.7920  225.0420 C   0  0  0  0  0  0  0  0  0  0  0  0
  138.2210   68.8460  225.3170 O   0  0  0  0  0  0  0  0  0  0  0  0
  139.0980   70.3060  223.7790 N   0  0  0  0  0  0  0  0  0  0  0  0
  138.2740   69.7610  222.7490 C   0  0  0  0  0  0  0  0  0  0  0  0
  137.0420   70.5730  222.4270 C   0  0  0  0  0  0  0  0  0  0  0  0
  137.3860   71.4530  221.2230 C   0  0  0  0  0  0  0  0  0  0  0  0
  136.1410   72.2300  220.8020 C   0  0  0  0  0  0  0  0  0  0  0  0
  135.7760   73.0790  221.9110 N   0  0  0  0  0  0  0  0  0  0  0  0
  135.3520   72.2040  223.0080 C   0  0  0  0  0  0  0  0  0  0  0  0
  136.5570   71.4260  223.5460 C   0  0  0  0  0  0  0  0  0  0  0  0
  138.9610   74.5530  222.0900 C   0  0  0  0  0  0  0  0  0  0  0  0
  135.1890   74.6540  223.3260 H   0  0  0  0  0  0  0  0  0  0  0  0
  136.7550   74.1270  223.5890 H   0  0  0  0  0  0  0  0  0  0  0  0
  138.7258   77.8703  221.5012 H   0  0  0  0  0  0  0  0  0  0  0  0
  141.1904   77.5487  221.1688 H   0  0  0  0  0  0  0  0  0  0  0  0
  142.1634   75.2847  221.4392 H   0  0  0  0  0  0  0  0  0  0  0  0
  141.9481   72.8693  222.0824 H   0  0  0  0  0  0  0  0  0  0  0  0
  139.6006   71.4650  221.3590 H   0  0  0  0  0  0  0  0  0  0  0  0
  142.1401   72.6396  226.6089 H   0  0  0  0  0  0  0  0  0  0  0  0
  141.9891   71.7047  228.9181 H   0  0  0  0  0  0  0  0  0  0  0  0
  140.4099   69.8521  229.3599 H   0  0  0  0  0  0  0  0  0  0  0  0
  138.9880   68.9163  227.5729 H   0  0  0  0  0  0  0  0  0  0  0  0
  138.8790   69.6797  221.8339 H   0  0  0  0  0  0  0  0  0  0  0  0
  137.9160   68.7895  223.1205 H   0  0  0  0  0  0  0  0  0  0  0  0
  136.2203   69.8711  222.2219 H   0  0  0  0  0  0  0  0  0  0  0  0
  138.1849   72.1576  221.4977 H   0  0  0  0  0  0  0  0  0  0  0  0
  137.7302   70.8234  220.3893 H   0  0  0  0  0  0  0  0  0  0  0  0
  136.3601   72.8418  219.9145 H   0  0  0  0  0  0  0  0  0  0  0  0
  135.3194   71.5447  220.5463 H   0  0  0  0  0  0  0  0  0  0  0  0
  134.9150   73.6500  221.6780 H   0  0  0  0  0  0  0  0  0  0  0  0
  134.9207   72.8136  223.8156 H   0  0  0  0  0  0  0  0  0  0  0  0
  134.5980   71.4946  222.6363 H   0  0  0  0  0  0  0  0  0  0  0  0
  137.3475   72.1217  223.8639 H   0  0  0  0  0  0  0  0  0  0  0  0
  136.2802   70.8174  224.4195 H   0  0  0  0  0  0  0  0  0  0  0  0
  138.3190   73.6998  222.3543 H   0  0  0  0  0  0  0  0  0  0  0  0
  1  2  1  0
  2  3  2  0
  2  4  2  0
  2  5  1  0
  5  6  2  0
  6  7  1  0
  7  8  2  0
  8  9  1  0
  9 10  1  0
 10 11  2  0
 11 12  1  0
 12 13  2  0
 13 14  1  0
 14 15  2  0
 15 16  1  0
 16 17  2  0
 17 18  1  0
 18 19  2  0
 19 20  1  0
 20 21  2  0
 20 22  1  0
 22 23  1  0
 23 24  1  0
 24 25  1  0
 25 26  1  0
 26 27  1  0
 27 28  1  0
 28 29  1  0
  9 30  2  0
 30  5  1  0
 22 12  1  0
 29 24  1  0
 19 14  1  0
  1 31  1  0
  1 32  1  0
  6 33  1  0
  7 34  1  0
  8 35  1  0
 10 36  1  0
 11 37  1  0
 15 38  1  0
 16 39  1  0
 17 40  1  0
 18 41  1  0
 23 42  1  0
 23 43  1  0
 24 44  1  0
 25 45  1  0
 25 46  1  0
 26 47  1  0
 26 48  1  0
 27 49  1  0
 28 50  1  0
 28 51  1  0
 29 52  1  0
 29 53  1  0
 30 54  1  0
M  END
