
     RDKit          3D

 43 46  0  0  0  0  0  0  0  0999 V2000
  137.5910   73.6580  222.3440 O   0  0  0  0  0  0  0  0  0  0  0  0
  138.8040   73.7930  222.0590 C   0  0  0  0  0  0  0  0  0  0  0  0
  139.2520   75.1160  221.9710 C   0  0  0  0  0  0  0  0  0  0  0  0
  138.3830   76.1790  222.1910 C   0  0  0  0  0  0  0  0  0  0  0  0
  138.8920   77.4610  222.0880 C   0  0  0  0  0  0  0  0  0  0  0  0
  140.2120   77.7240  221.7790 C   0  0  0  0  0  0  0  0  0  0  0  0
  141.0680   76.6680  221.5630 C   0  0  0  0  0  0  0  0  0  0  0  0
  140.5690   75.3870  221.6630 C   0  0  0  0  0  0  0  0  0  0  0  0
  141.3690   74.3240  221.4590 N   0  0  0  0  0  0  0  0  0  0  0  0
  140.9130   73.0620  221.5490 C   0  0  0  0  0  0  0  0  0  0  0  0
  141.8960   72.0030  221.2750 C   0  0  0  0  0  0  0  0  0  0  0  0
  142.6750   72.0710  220.2240 C   0  0  0  0  0  0  0  0  0  0  0  0
  144.0110   72.6410  220.2090 C   0  0  0  0  0  0  0  0  0  0  0  0
  144.2960   73.8460  220.8520 C   0  0  0  0  0  0  0  0  0  0  0  0
  145.5650   74.3940  220.8430 C   0  0  0  0  0  0  0  0  0  0  0  0
  146.5960   73.7540  220.1880 C   0  0  0  0  0  0  0  0  0  0  0  0
  146.3200   72.5920  219.5670 N   0  0  0  0  0  0  0  0  0  0  0  0
  145.0860   72.0470  219.5690 C   0  0  0  0  0  0  0  0  0  0  0  0
  139.6400   72.7490  221.8480 N   0  0  0  0  0  0  0  0  0  0  0  0
  139.1490   71.3980  221.9780 C   0  0  0  0  0  0  0  0  0  0  0  0
  139.4160   70.7800  223.2980 C   0  0  0  0  0  0  0  0  0  0  0  0
  139.0070   69.5300  223.6790 C   0  0  0  0  0  0  0  0  0  0  0  0
  139.2840   69.0020  224.9390 C   0  0  0  0  0  0  0  0  0  0  0  0
  139.9860   69.7210  225.8660 C   0  0  0  0  0  0  0  0  0  0  0  0
  140.3320   69.0600  227.4410 Cl  0  0  0  0  0  0  0  0  0  0  0  0
  140.4100   70.9810  225.5070 C   0  0  0  0  0  0  0  0  0  0  0  0
  140.1330   71.5100  224.2460 C   0  0  0  0  0  0  0  0  0  0  0  0
  137.3253   76.0060  222.4388 H   0  0  0  0  0  0  0  0  0  0  0  0
  138.2142   78.3101  222.2601 H   0  0  0  0  0  0  0  0  0  0  0  0
  140.5734   78.7604  221.7067 H   0  0  0  0  0  0  0  0  0  0  0  0
  142.1257   76.8423  221.3163 H   0  0  0  0  0  0  0  0  0  0  0  0
  141.9779   71.1456  221.9592 H   0  0  0  0  0  0  0  0  0  0  0  0
  142.2869   71.6645  219.2784 H   0  0  0  0  0  0  0  0  0  0  0  0
  143.4888   74.3743  221.3805 H   0  0  0  0  0  0  0  0  0  0  0  0
  145.7535   75.3458  221.3612 H   0  0  0  0  0  0  0  0  0  0  0  0
  147.6105   74.1790  220.1735 H   0  0  0  0  0  0  0  0  0  0  0  0
  144.9275   71.0944  219.0422 H   0  0  0  0  0  0  0  0  0  0  0  0
  138.0611   71.4091  221.8158 H   0  0  0  0  0  0  0  0  0  0  0  0
  139.6846   70.7934  221.2313 H   0  0  0  0  0  0  0  0  0  0  0  0
  138.4378   68.9188  222.9631 H   0  0  0  0  0  0  0  0  0  0  0  0
  138.9322   67.9908  225.1914 H   0  0  0  0  0  0  0  0  0  0  0  0
  140.9794   71.5835  226.2300 H   0  0  0  0  0  0  0  0  0  0  0  0
  140.4864   72.5210  223.9949 H   0  0  0  0  0  0  0  0  0  0  0  0
  1  2  2  0
  2  3  1  0
  3  4  2  0
  4  5  1  0
  5  6  2  0
  6  7  1  0
  7  8  2  0
  8  9  1  0
  9 10  2  0
 10 11  1  0
 11 12  2  0
 12 13  1  0
 13 14  2  0
 14 15  1  0
 15 16  2  0
 16 17  1  0
 17 18  2  0
 10 19  1  0
 19 20  1  0
 20 21  1  0
 21 22  2  0
 22 23  1  0
 23 24  2  0
 24 25  1  0
 24 26  1  0
 26 27  2  0
 19  2  1  0
 27 21  1  0
  8  3  1  0
 18 13  1  0
  4 28  1  0
  5 29  1  0
  6 30  1  0
  7 31  1  0
 11 32  1  0
 12 33  1  0
 14 34  1  0
 15 35  1  0
 16 36  1  0
 18 37  1  0
 20 38  1  0
 20 39  1  0
 22 40  1  0
 23 41  1  0
 26 42  1  0
 27 43  1  0
M  END
>  <smiles>  (1) 
O=c1c2ccccc2nc(/C=C/c2cccnc2)n1Cc1ccc(Cl)cc1

>  <score_type>  (1) 
oracle

>  <origin>  (1) 
autodockgpu

>  <m_score__min__energy>  (1) 
-7.75

>  <m_primary>  (1) 
energy

>  <rmsd>  (1) 
9.162952827666002

>  <m_score__min__rmsd>  (1) 
9.162952827666002

>  <meeko>  (1) 
{"free_energy": -7.63, "intermolecular_energy": -9.12, "internal_energy": -1.21, "cluster_size": 4, "cluster_id": 1, "rank_in_cluster": 4}

>  <energy>  (1) 
-7.75

>  <cluster_rmsd>  (1) 
0.0

>  <cluster>  (1) 
1

$$$$

     RDKit          3D

 43 46  0  0  0  0  0  0  0  0999 V2000
  140.1830   71.8910  225.0150 O   0  0  0  0  0  0  0  0  0  0  0  0
  139.6160   70.7730  224.9990 C   0  0  0  0  0  0  0  0  0  0  0  0
  139.9300   69.9300  226.0710 C   0  0  0  0  0  0  0  0  0  0  0  0
  140.8120   70.3390  227.0650 C   0  0  0  0  0  0  0  0  0  0  0  0
  141.0780   69.4570  228.0960 C   0  0  0  0  0  0  0  0  0  0  0  0
  140.5090   68.2010  228.1770 C   0  0  0  0  0  0  0  0  0  0  0  0
  139.6360   67.8020  227.1910 C   0  0  0  0  0  0  0  0  0  0  0  0
  139.3660   68.6740  226.1600 C   0  0  0  0  0  0  0  0  0  0  0  0
  138.5190   68.3260  225.1740 N   0  0  0  0  0  0  0  0  0  0  0  0
  138.2350   69.1550  224.1540 C   0  0  0  0  0  0  0  0  0  0  0  0
  137.3120   68.6290  223.1350 C   0  0  0  0  0  0  0  0  0  0  0  0
  136.0220   68.8280  223.2380 C   0  0  0  0  0  0  0  0  0  0  0  0
  135.3490   69.3680  224.4060 C   0  0  0  0  0  0  0  0  0  0  0  0
  135.3050   70.7400  224.6510 C   0  0  0  0  0  0  0  0  0  0  0  0
  134.6660   71.2620  225.7600 C   0  0  0  0  0  0  0  0  0  0  0  0
  134.0460   70.4260  226.6650 C   0  0  0  0  0  0  0  0  0  0  0  0
  134.0890   69.1020  226.4280 N   0  0  0  0  0  0  0  0  0  0  0  0
  134.7090   68.5810  225.3490 C   0  0  0  0  0  0  0  0  0  0  0  0
  138.7580   70.3870  224.0260 N   0  0  0  0  0  0  0  0  0  0  0  0
  138.4350   71.2950  222.9520 C   0  0  0  0  0  0  0  0  0  0  0  0
  139.6150   71.9260  222.3150 C   0  0  0  0  0  0  0  0  0  0  0  0
  140.7090   71.2520  221.8420 C   0  0  0  0  0  0  0  0  0  0  0  0
  141.7950   71.9010  221.2560 C   0  0  0  0  0  0  0  0  0  0  0  0
  141.8160   73.2620  221.1270 C   0  0  0  0  0  0  0  0  0  0  0  0
  143.1730   74.0740  220.3940 Cl  0  0  0  0  0  0  0  0  0  0  0  0
  140.7270   73.9640  221.5950 C   0  0  0  0  0  0  0  0  0  0  0  0
  139.6400   73.3140  222.1820 C   0  0  0  0  0  0  0  0  0  0  0  0
  141.2831   71.3325  227.0322 H   0  0  0  0  0  0  0  0  0  0  0  0
  141.7745   69.7698  228.8878 H   0  0  0  0  0  0  0  0  0  0  0  0
  140.7497   67.5310  229.0156 H   0  0  0  0  0  0  0  0  0  0  0  0
  139.1644   66.8088  227.2256 H   0  0  0  0  0  0  0  0  0  0  0  0
  137.7096   68.0637  222.2793 H   0  0  0  0  0  0  0  0  0  0  0  0
  135.3984   68.5652  222.3708 H   0  0  0  0  0  0  0  0  0  0  0  0
  135.7922   71.4258  223.9422 H   0  0  0  0  0  0  0  0  0  0  0  0
  134.6519   72.3500  225.9216 H   0  0  0  0  0  0  0  0  0  0  0  0
  133.5333   70.8282  227.5512 H   0  0  0  0  0  0  0  0  0  0  0  0
  134.7061   67.4894  225.2130 H   0  0  0  0  0  0  0  0  0  0  0  0
  137.8845   70.7358  222.1811 H   0  0  0  0  0  0  0  0  0  0  0  0
  137.8410   72.1087  223.3936 H   0  0  0  0  0  0  0  0  0  0  0  0
  140.7320   70.1556  221.9277 H   0  0  0  0  0  0  0  0  0  0  0  0
  142.6478   71.3091  220.8920 H   0  0  0  0  0  0  0  0  0  0  0  0
  140.7137   75.0602  221.5042 H   0  0  0  0  0  0  0  0  0  0  0  0
  138.7881   73.9071  222.5461 H   0  0  0  0  0  0  0  0  0  0  0  0
  1  2  2  0
  2  3  1  0
  3  4  2  0
  4  5  1  0
  5  6  2  0
  6  7  1  0
  7  8  2  0
  8  9  1  0
  9 10  2  0
 10 11  1  0
 11 12  2  0
 12 13  1  0
 13 14  2  0
 14 15  1  0
 15 16  2  0
 16 17  1  0
 17 18  2  0
 10 19  1  0
 19 20  1  0
 20 21  1  0
 21 22  2  0
 22 23  1  0
 23 24  2  0
 24 25  1  0
 24 26  1  0
 26 27  2  0
 19  2  1  0
 27 21  1  0
  8  3  1  0
 18 13  1  0
  4 28  1  0
  5 29  1  0
  6 30  1  0
  7 31  1  0
 11 32  1  0
 12 33  1  0
 14 34  1  0
 15 35  1  0
 16 36  1  0
 18 37  1  0
 20 38  1  0
 20 39  1  0
 22 40  1  0
 23 41  1  0
 26 42  1  0
 27 43  1  0
M  END
>  <smiles>  (2) 
O=c1c2ccccc2nc(/C=C/c2cccnc2)n1Cc1ccc(Cl)cc1

>  <score_type>  (2) 
oracle

>  <origin>  (2) 
autodockgpu

>  <m_score__min__energy>  (2) 
-7.75

>  <m_primary>  (2) 
energy

>  <rmsd>  (2) 
10.054959598782979

>  <m_score__min__rmsd>  (2) 
10.054959598782979

>  <meeko>  (2) 
{"free_energy": -7.46, "intermolecular_energy": -8.95, "internal_energy": -1.46, "cluster_size": 30, "cluster_id": 3, "rank_in_cluster": 22}

>  <energy>  (2) 
-7.73

>  <cluster_rmsd>  (2) 
0.09

>  <cluster>  (2) 
1

$$$$

     RDKit          3D

 43 46  0  0  0  0  0  0  0  0999 V2000
  140.1310   71.8980  224.9930 O   0  0  0  0  0  0  0  0  0  0  0  0
  139.5770   70.7740  224.9580 C   0  0  0  0  0  0  0  0  0  0  0  0
  139.9100   69.9120  226.0100 C   0  0  0  0  0  0  0  0  0  0  0  0
  140.7960   70.3120  227.0050 C   0  0  0  0  0  0  0  0  0  0  0  0
  141.0810   69.4110  228.0150 C   0  0  0  0  0  0  0  0  0  0  0  0
  140.5280   68.1470  228.0740 C   0  0  0  0  0  0  0  0  0  0  0  0
  139.6510   67.7580  227.0870 C   0  0  0  0  0  0  0  0  0  0  0  0
  139.3620   68.6490  226.0770 C   0  0  0  0  0  0  0  0  0  0  0  0
  138.5120   68.3100  225.0900 N   0  0  0  0  0  0  0  0  0  0  0  0
  138.2090   69.1570  224.0900 C   0  0  0  0  0  0  0  0  0  0  0  0
  137.2840   68.6410  223.0690 C   0  0  0  0  0  0  0  0  0  0  0  0
  135.9880   68.7430  223.2290 C   0  0  0  0  0  0  0  0  0  0  0  0
  135.3320   69.3200  224.3890 C   0  0  0  0  0  0  0  0  0  0  0  0
  135.3020   70.6990  224.5980 C   0  0  0  0  0  0  0  0  0  0  0  0
  134.6790   71.2550  225.6990 C   0  0  0  0  0  0  0  0  0  0  0  0
  134.0620   70.4500  226.6320 C   0  0  0  0  0  0  0  0  0  0  0  0
  134.0900   69.1190  226.4310 N   0  0  0  0  0  0  0  0  0  0  0  0
  134.6950   68.5640  225.3600 C   0  0  0  0  0  0  0  0  0  0  0  0
  138.7160   70.3980  223.9840 N   0  0  0  0  0  0  0  0  0  0  0  0
  138.3730   71.3240  222.9320 C   0  0  0  0  0  0  0  0  0  0  0  0
  139.5380   72.0070  222.3220 C   0  0  0  0  0  0  0  0  0  0  0  0
  139.6690   73.3630  222.1770 C   0  0  0  0  0  0  0  0  0  0  0  0
  140.7880   73.9500  221.5880 C   0  0  0  0  0  0  0  0  0  0  0  0
  141.8210   73.1860  221.1220 C   0  0  0  0  0  0  0  0  0  0  0  0
  143.2200   73.9190  220.3860 Cl  0  0  0  0  0  0  0  0  0  0  0  0
  141.7140   71.8190  221.2560 C   0  0  0  0  0  0  0  0  0  0  0  0
  140.5940   71.2310  221.8440 C   0  0  0  0  0  0  0  0  0  0  0  0
  141.2547   71.3116  226.9891 H   0  0  0  0  0  0  0  0  0  0  0  0
  141.7803   69.7153  228.8077 H   0  0  0  0  0  0  0  0  0  0  0  0
  140.7841   67.4624  228.8961 H   0  0  0  0  0  0  0  0  0  0  0  0
  139.1915   66.7587  227.1044 H   0  0  0  0  0  0  0  0  0  0  0  0
  137.6848   68.1647  222.1621 H   0  0  0  0  0  0  0  0  0  0  0  0
  135.3461   68.3616  222.4212 H   0  0  0  0  0  0  0  0  0  0  0  0
  135.7875   71.3617  223.8665 H   0  0  0  0  0  0  0  0  0  0  0  0
  134.6755   72.3470  225.8316 H   0  0  0  0  0  0  0  0  0  0  0  0
  133.5628   70.8809  227.5124 H   0  0  0  0  0  0  0  0  0  0  0  0
  134.6820   67.4692  225.2537 H   0  0  0  0  0  0  0  0  0  0  0  0
  137.8456   70.7691  222.1421 H   0  0  0  0  0  0  0  0  0  0  0  0
  137.7508   72.1071  223.3899 H   0  0  0  0  0  0  0  0  0  0  0  0
  138.8598   74.0140  222.5394 H   0  0  0  0  0  0  0  0  0  0  0  0
  140.8403   75.0450  221.4969 H   0  0  0  0  0  0  0  0  0  0  0  0
  142.5296   71.1772  220.8914 H   0  0  0  0  0  0  0  0  0  0  0  0
  140.5426   70.1358  221.9323 H   0  0  0  0  0  0  0  0  0  0  0  0
  1  2  2  0
  2  3  1  0
  3  4  2  0
  4  5  1  0
  5  6  2  0
  6  7  1  0
  7  8  2  0
  8  9  1  0
  9 10  2  0
 10 11  1  0
 11 12  2  0
 12 13  1  0
 13 14  2  0
 14 15  1  0
 15 16  2  0
 16 17  1  0
 17 18  2  0
 10 19  1  0
 19 20  1  0
 20 21  1  0
 21 22  2  0
 22 23  1  0
 23 24  2  0
 24 25  1  0
 24 26  1  0
 26 27  2  0
 19  2  1  0
 27 21  1  0
  8  3  1  0
 18 13  1  0
  4 28  1  0
  5 29  1  0
  6 30  1  0
  7 31  1  0
 11 32  1  0
 12 33  1  0
 14 34  1  0
 15 35  1  0
 16 36  1  0
 18 37  1  0
 20 38  1  0
 20 39  1  0
 22 40  1  0
 23 41  1  0
 26 42  1  0
 27 43  1  0
M  END
>  <smiles>  (3) 
O=c1c2ccccc2nc(/C=C/c2cccnc2)n1Cc1ccc(Cl)cc1

>  <score_type>  (3) 
oracle

>  <origin>  (3) 
autodockgpu

>  <m_score__min__energy>  (3) 
-7.75

>  <m_primary>  (3) 
energy

>  <rmsd>  (3) 
10.128207660333585

>  <m_score__min__rmsd>  (3) 
10.128207660333585

>  <meeko>  (3) 
{"free_energy": -7.41, "intermolecular_energy": -8.9, "internal_energy": -1.45, "cluster_size": 30, "cluster_id": 3, "rank_in_cluster": 26}

>  <energy>  (3) 
-7.65

>  <cluster_rmsd>  (3) 
0.3

>  <cluster>  (3) 
1

$$$$

     RDKit          3D

 43 46  0  0  0  0  0  0  0  0999 V2000
  140.8470   73.3860  222.1160 O   0  0  0  0  0  0  0  0  0  0  0  0
  139.6650   73.8010  222.1610 C   0  0  0  0  0  0  0  0  0  0  0  0
  139.5150   75.1870  222.0460 C   0  0  0  0  0  0  0  0  0  0  0  0
  140.6220   76.0140  221.8920 C   0  0  0  0  0  0  0  0  0  0  0  0
  140.4020   77.3750  221.7830 C   0  0  0  0  0  0  0  0  0  0  0  0
  139.1420   77.9390  221.8210 C   0  0  0  0  0  0  0  0  0  0  0  0
  138.0500   77.1150  221.9720 C   0  0  0  0  0  0  0  0  0  0  0  0
  138.2600   75.7580  222.0820 C   0  0  0  0  0  0  0  0  0  0  0  0
  137.2210   74.9150  222.2320 N   0  0  0  0  0  0  0  0  0  0  0  0
  137.3940   73.5860  222.3420 C   0  0  0  0  0  0  0  0  0  0  0  0
  136.1690   72.7930  222.5280 C   0  0  0  0  0  0  0  0  0  0  0  0
  135.7510   72.4820  223.7300 C   0  0  0  0  0  0  0  0  0  0  0  0
  135.1020   73.3980  224.6520 C   0  0  0  0  0  0  0  0  0  0  0  0
  135.3340   74.7720  224.5980 C   0  0  0  0  0  0  0  0  0  0  0  0
  134.7200   75.6490  225.4720 C   0  0  0  0  0  0  0  0  0  0  0  0
  133.8500   75.1810  226.4330 C   0  0  0  0  0  0  0  0  0  0  0  0
  133.6260   73.8550  226.4860 N   0  0  0  0  0  0  0  0  0  0  0  0
  134.2190   72.9880  225.6380 C   0  0  0  0  0  0  0  0  0  0  0  0
  138.5960   72.9840  222.3100 N   0  0  0  0  0  0  0  0  0  0  0  0
  138.7880   71.5570  222.3960 C   0  0  0  0  0  0  0  0  0  0  0  0
  139.2330   71.0840  223.7270 C   0  0  0  0  0  0  0  0  0  0  0  0
  140.2950   71.5890  224.4290 C   0  0  0  0  0  0  0  0  0  0  0  0
  140.6710   71.0980  225.6790 C   0  0  0  0  0  0  0  0  0  0  0  0
  139.9850   70.0730  226.2680 C   0  0  0  0  0  0  0  0  0  0  0  0
  140.4550   69.4600  227.8310 Cl  0  0  0  0  0  0  0  0  0  0  0  0
  138.9120   69.5480  225.5840 C   0  0  0  0  0  0  0  0  0  0  0  0
  138.5360   70.0380  224.3330 C   0  0  0  0  0  0  0  0  0  0  0  0
  141.6402   75.5991  221.8579 H   0  0  0  0  0  0  0  0  0  0  0  0
  141.2705   78.0388  221.6604 H   0  0  0  0  0  0  0  0  0  0  0  0
  139.0134   79.0278  221.7321 H   0  0  0  0  0  0  0  0  0  0  0  0
  137.0321   77.5308  222.0041 H   0  0  0  0  0  0  0  0  0  0  0  0
  135.5984   72.4579  221.6493 H   0  0  0  0  0  0  0  0  0  0  0  0
  135.9034   71.4462  224.0675 H   0  0  0  0  0  0  0  0  0  0  0  0
  136.0245   75.1686  223.8391 H   0  0  0  0  0  0  0  0  0  0  0  0
  134.9269   76.7270  225.4002 H   0  0  0  0  0  0  0  0  0  0  0  0
  133.3547   75.8690  227.1340 H   0  0  0  0  0  0  0  0  0  0  0  0
  133.9927   71.9158  225.7334 H   0  0  0  0  0  0  0  0  0  0  0  0
  137.8336   71.0653  222.1564 H   0  0  0  0  0  0  0  0  0  0  0  0
  139.5884   71.3021  221.6858 H   0  0  0  0  0  0  0  0  0  0  0  0
  140.8743   72.4144  223.9896 H   0  0  0  0  0  0  0  0  0  0  0  0
  141.5327   71.5423  226.1987 H   0  0  0  0  0  0  0  0  0  0  0  0
  138.3384   68.7241  226.0336 H   0  0  0  0  0  0  0  0  0  0  0  0
  137.6744   69.5916  223.8149 H   0  0  0  0  0  0  0  0  0  0  0  0
  1  2  2  0
  2  3  1  0
  3  4  2  0
  4  5  1  0
  5  6  2  0
  6  7  1  0
  7  8  2  0
  8  9  1  0
  9 10  2  0
 10 11  1  0
 11 12  2  0
 12 13  1  0
 13 14  2  0
 14 15  1  0
 15 16  2  0
 16 17  1  0
 17 18  2  0
 10 19  1  0
 19 20  1  0
 20 21  1  0
 21 22  2  0
 22 23  1  0
 23 24  2  0
 24 25  1  0
 24 26  1  0
 26 27  2  0
 19  2  1  0
 27 21  1  0
  8  3  1  0
 18 13  1  0
  4 28  1  0
  5 29  1  0
  6 30  1  0
  7 31  1  0
 11 32  1  0
 12 33  1  0
 14 34  1  0
 15 35  1  0
 16 36  1  0
 18 37  1  0
 20 38  1  0
 20 39  1  0
 22 40  1  0
 23 41  1  0
 26 42  1  0
 27 43  1  0
M  END
>  <smiles>  (4) 
O=c1c2ccccc2nc(/C=C/c2cccnc2)n1Cc1ccc(Cl)cc1

>  <score_type>  (4) 
oracle

>  <origin>  (4) 
autodockgpu

>  <m_score__min__energy>  (4) 
-7.75

>  <m_primary>  (4) 
energy

>  <rmsd>  (4) 
9.27062230838818

>  <m_score__min__rmsd>  (4) 
9.27062230838818

>  <meeko>  (4) 
{"free_energy": -7.41, "intermolecular_energy": -8.9, "internal_energy": -1.39, "cluster_size": 4, "cluster_id": 5, "rank_in_cluster": 2}

>  <energy>  (4) 
-7.63

>  <cluster_rmsd>  (4) 
1.15

>  <cluster>  (4) 
1

$$$$

     RDKit          3D

 43 46  0  0  0  0  0  0  0  0999 V2000
  141.6660   71.1370  221.3070 O   0  0  0  0  0  0  0  0  0  0  0  0
  141.7960   72.3770  221.1770 C   0  0  0  0  0  0  0  0  0  0  0  0
  143.0490   72.7990  220.7170 C   0  0  0  0  0  0  0  0  0  0  0  0
  144.0520   71.8780  220.4340 C   0  0  0  0  0  0  0  0  0  0  0  0
  145.2660   72.3640  219.9830 C   0  0  0  0  0  0  0  0  0  0  0  0
  145.5190   73.7100  219.8050 C   0  0  0  0  0  0  0  0  0  0  0  0
  144.5220   74.6160  220.0850 C   0  0  0  0  0  0  0  0  0  0  0  0
  143.3090   74.1420  220.5360 C   0  0  0  0  0  0  0  0  0  0  0  0
  142.3070   74.9920  220.8240 N   0  0  0  0  0  0  0  0  0  0  0  0
  141.1120   74.5590  221.2650 C   0  0  0  0  0  0  0  0  0  0  0  0
  140.1210   75.6050  221.5640 C   0  0  0  0  0  0  0  0  0  0  0  0
  140.3260   76.4610  222.5340 C   0  0  0  0  0  0  0  0  0  0  0  0
  141.0180   77.7310  222.3980 C   0  0  0  0  0  0  0  0  0  0  0  0
  141.5360   78.4000  223.5070 C   0  0  0  0  0  0  0  0  0  0  0  0
  142.1970   79.6080  223.3850 C   0  0  0  0  0  0  0  0  0  0  0  0
  142.3620   80.1900  222.1460 C   0  0  0  0  0  0  0  0  0  0  0  0
  141.8620   79.5440  221.0760 N   0  0  0  0  0  0  0  0  0  0  0  0
  141.2150   78.3640  221.1830 C   0  0  0  0  0  0  0  0  0  0  0  0
  140.8110   73.2630  221.4550 N   0  0  0  0  0  0  0  0  0  0  0  0
  139.5230   72.7880  221.8980 C   0  0  0  0  0  0  0  0  0  0  0  0
  139.5840   71.8380  223.0330 C   0  0  0  0  0  0  0  0  0  0  0  0
  140.4990   71.8830  224.0510 C   0  0  0  0  0  0  0  0  0  0  0  0
  140.5110   70.9560  225.0910 C   0  0  0  0  0  0  0  0  0  0  0  0
  139.5960   69.9420  225.1420 C   0  0  0  0  0  0  0  0  0  0  0  0
  139.6110   68.7830  226.4430 Cl  0  0  0  0  0  0  0  0  0  0  0  0
  138.6640   69.8740  224.1300 C   0  0  0  0  0  0  0  0  0  0  0  0
  138.6520   70.8010  223.0880 C   0  0  0  0  0  0  0  0  0  0  0  0
  143.8854   70.7986  220.5645 H   0  0  0  0  0  0  0  0  0  0  0  0
  146.0670   71.6452  219.7556 H   0  0  0  0  0  0  0  0  0  0  0  0
  146.5008   74.0519  219.4455 H   0  0  0  0  0  0  0  0  0  0  0  0
  144.6894   75.6950  219.9518 H   0  0  0  0  0  0  0  0  0  0  0  0
  139.1992   75.6686  220.9671 H   0  0  0  0  0  0  0  0  0  0  0  0
  139.9437   76.1972  223.5311 H   0  0  0  0  0  0  0  0  0  0  0  0
  141.4153   77.9544  224.5054 H   0  0  0  0  0  0  0  0  0  0  0  0
  142.5935   80.1076  224.2812 H   0  0  0  0  0  0  0  0  0  0  0  0
  142.8853   81.1512  222.0354 H   0  0  0  0  0  0  0  0  0  0  0  0
  140.8296   77.8873  220.2696 H   0  0  0  0  0  0  0  0  0  0  0  0
  138.9225   73.6564  222.2068 H   0  0  0  0  0  0  0  0  0  0  0  0
  139.0792   72.2422  221.0523 H   0  0  0  0  0  0  0  0  0  0  0  0
  141.2543   72.6827  224.0474 H   0  0  0  0  0  0  0  0  0  0  0  0
  141.2689   71.0415  225.8836 H   0  0  0  0  0  0  0  0  0  0  0  0
  137.9126   69.0708  224.1440 H   0  0  0  0  0  0  0  0  0  0  0  0
  137.8943   70.7131  222.2954 H   0  0  0  0  0  0  0  0  0  0  0  0
  1  2  2  0
  2  3  1  0
  3  4  2  0
  4  5  1  0
  5  6  2  0
  6  7  1  0
  7  8  2  0
  8  9  1  0
  9 10  2  0
 10 11  1  0
 11 12  2  0
 12 13  1  0
 13 14  2  0
 14 15  1  0
 15 16  2  0
 16 17  1  0
 17 18  2  0
 10 19  1  0
 19 20  1  0
 20 21  1  0
 21 22  2  0
 22 23  1  0
 23 24  2  0
 24 25  1  0
 24 26  1  0
 26 27  2  0
 19  2  1  0
 27 21  1  0
  8  3  1  0
 18 13  1  0
  4 28  1  0
  5 29  1  0
  6 30  1  0
  7 31  1  0
 11 32  1  0
 12 33  1  0
 14 34  1  0
 15 35  1  0
 16 36  1  0
 18 37  1  0
 20 38  1  0
 20 39  1  0
 22 40  1  0
 23 41  1  0
 26 42  1  0
 27 43  1  0
M  END
>  <smiles>  (5) 
O=c1c2ccccc2nc(/C=C/c2cccnc2)n1Cc1ccc(Cl)cc1

>  <score_type>  (5) 
oracle

>  <origin>  (5) 
autodockgpu

>  <m_score__min__energy>  (5) 
-7.75

>  <m_primary>  (5) 
energy

>  <rmsd>  (5) 
9.30471691294322

>  <m_score__min__rmsd>  (5) 
9.30471691294322

>  <meeko>  (5) 
{"free_energy": -7.53, "intermolecular_energy": -9.02, "internal_energy": -1.11, "cluster_size": 5, "cluster_id": 2, "rank_in_cluster": 4}

>  <energy>  (5) 
-7.6

>  <cluster_rmsd>  (5) 
0.0

>  <cluster>  (5) 
2

$$$$

     RDKit          3D

 43 46  0  0  0  0  0  0  0  0999 V2000
  139.9200   74.4100  221.9600 O   0  0  0  0  0  0  0  0  0  0  0  0
  140.4730   75.3060  221.2810 C   0  0  0  0  0  0  0  0  0  0  0  0
  141.7760   75.0160  220.8590 C   0  0  0  0  0  0  0  0  0  0  0  0
  142.3800   73.8080  221.1900 C   0  0  0  0  0  0  0  0  0  0  0  0
  143.6690   73.5850  220.7400 C   0  0  0  0  0  0  0  0  0  0  0  0
  144.3710   74.5040  219.9860 C   0  0  0  0  0  0  0  0  0  0  0  0
  143.7680   75.6980  219.6610 C   0  0  0  0  0  0  0  0  0  0  0  0
  142.4840   75.9280  220.1050 C   0  0  0  0  0  0  0  0  0  0  0  0
  141.8560   77.0810  219.8120 N   0  0  0  0  0  0  0  0  0  0  0  0
  140.6030   77.3350  220.2300 C   0  0  0  0  0  0  0  0  0  0  0  0
  140.0550   78.6490  219.8560 C   0  0  0  0  0  0  0  0  0  0  0  0
  140.7520   79.7410  220.0450 C   0  0  0  0  0  0  0  0  0  0  0  0
  141.3530   80.1420  221.3060 C   0  0  0  0  0  0  0  0  0  0  0  0
  142.2380   79.3060  221.9880 C   0  0  0  0  0  0  0  0  0  0  0  0
  142.8150   79.6800  223.1870 C   0  0  0  0  0  0  0  0  0  0  0  0
  142.5260   80.9070  223.7470 C   0  0  0  0  0  0  0  0  0  0  0  0
  141.6730   81.7130  223.0880 N   0  0  0  0  0  0  0  0  0  0  0  0
  141.1030   81.3590  221.9170 C   0  0  0  0  0  0  0  0  0  0  0  0
  139.8730   76.4780  220.9650 N   0  0  0  0  0  0  0  0  0  0  0  0
  138.5180   76.7290  221.3910 C   0  0  0  0  0  0  0  0  0  0  0  0
  138.3720   77.8980  222.2900 C   0  0  0  0  0  0  0  0  0  0  0  0
  139.3520   78.3870  223.1120 C   0  0  0  0  0  0  0  0  0  0  0  0
  139.1540   79.4900  223.9420 C   0  0  0  0  0  0  0  0  0  0  0  0
  137.9530   80.1420  223.9730 C   0  0  0  0  0  0  0  0  0  0  0  0
  137.7060   81.5210  225.0100 Cl  0  0  0  0  0  0  0  0  0  0  0  0
  136.9510   79.6700  223.1550 C   0  0  0  0  0  0  0  0  0  0  0  0
  137.1480   78.5660  222.3250 C   0  0  0  0  0  0  0  0  0  0  0  0
  141.8499   73.0540  221.7904 H   0  0  0  0  0  0  0  0  0  0  0  0
  144.1566   72.6324  220.9945 H   0  0  0  0  0  0  0  0  0  0  0  0
  145.3955   74.2857  219.6504 H   0  0  0  0  0  0  0  0  0  0  0  0
  144.2990   76.4513  219.0606 H   0  0  0  0  0  0  0  0  0  0  0  0
  139.0501   78.7141  219.4134 H   0  0  0  0  0  0  0  0  0  0  0  0
  140.8939   80.4074  219.1814 H   0  0  0  0  0  0  0  0  0  0  0  0
  142.4830   78.3228  221.5598 H   0  0  0  0  0  0  0  0  0  0  0  0
  143.5084   78.9954  223.6974 H   0  0  0  0  0  0  0  0  0  0  0  0
  142.9779   81.2166  224.7009 H   0  0  0  0  0  0  0  0  0  0  0  0
  140.4136   82.0641  221.4295 H   0  0  0  0  0  0  0  0  0  0  0  0
  137.9014   76.9021  220.4967 H   0  0  0  0  0  0  0  0  0  0  0  0
  138.1977   75.8466  221.9644 H   0  0  0  0  0  0  0  0  0  0  0  0
  140.3335   77.8905  223.1178 H   0  0  0  0  0  0  0  0  0  0  0  0
  139.9772   79.8408  224.5818 H   0  0  0  0  0  0  0  0  0  0  0  0
  135.9735   80.1745  223.1559 H   0  0  0  0  0  0  0  0  0  0  0  0
  136.3233   78.2161  221.6868 H   0  0  0  0  0  0  0  0  0  0  0  0
  1  2  2  0
  2  3  1  0
  3  4  2  0
  4  5  1  0
  5  6  2  0
  6  7  1  0
  7  8  2  0
  8  9  1  0
  9 10  2  0
 10 11  1  0
 11 12  2  0
 12 13  1  0
 13 14  2  0
 14 15  1  0
 15 16  2  0
 16 17  1  0
 17 18  2  0
 10 19  1  0
 19 20  1  0
 20 21  1  0
 21 22  2  0
 22 23  1  0
 23 24  2  0
 24 25  1  0
 24 26  1  0
 26 27  2  0
 19  2  1  0
 27 21  1  0
  8  3  1  0
 18 13  1  0
  4 28  1  0
  5 29  1  0
  6 30  1  0
  7 31  1  0
 11 32  1  0
 12 33  1  0
 14 34  1  0
 15 35  1  0
 16 36  1  0
 18 37  1  0
 20 38  1  0
 20 39  1  0
 22 40  1  0
 23 41  1  0
 26 42  1  0
 27 43  1  0
M  END
>  <smiles>  (6) 
O=c1c2ccccc2nc(/C=C/c2cccnc2)n1Cc1ccc(Cl)cc1

>  <score_type>  (6) 
oracle

>  <origin>  (6) 
autodockgpu

>  <m_score__min__energy>  (6) 
-7.75

>  <m_primary>  (6) 
energy

>  <rmsd>  (6) 
4.721316015675639

>  <m_score__min__rmsd>  (6) 
4.721316015675639

>  <meeko>  (6) 
{"free_energy": -6.75, "intermolecular_energy": -8.25, "internal_energy": -1.92, "cluster_size": 1, "cluster_id": 7, "rank_in_cluster": 1}

>  <energy>  (6) 
-7.57

>  <cluster_rmsd>  (6) 
0.55

>  <cluster>  (6) 
2

$$$$

     RDKit          3D

 43 46  0  0  0  0  0  0  0  0999 V2000
  140.2570   71.9380  224.9600 O   0  0  0  0  0  0  0  0  0  0  0  0
  139.6450   70.8450  224.9150 C   0  0  0  0  0  0  0  0  0  0  0  0
  139.9320   69.9580  225.9590 C   0  0  0  0  0  0  0  0  0  0  0  0
  140.8350   70.3020  226.9590 C   0  0  0  0  0  0  0  0  0  0  0  0
  141.0710   69.3780  227.9610 C   0  0  0  0  0  0  0  0  0  0  0  0
  140.4530   68.1440  228.0070 C   0  0  0  0  0  0  0  0  0  0  0  0
  139.5590   67.8100  227.0160 C   0  0  0  0  0  0  0  0  0  0  0  0
  139.3180   68.7240  226.0130 C   0  0  0  0  0  0  0  0  0  0  0  0
  138.4530   68.4390  225.0230 N   0  0  0  0  0  0  0  0  0  0  0  0
  138.1960   69.3100  224.0300 C   0  0  0  0  0  0  0  0  0  0  0  0
  137.2470   68.8520  223.0030 C   0  0  0  0  0  0  0  0  0  0  0  0
  135.9770   68.7070  223.2860 C   0  0  0  0  0  0  0  0  0  0  0  0
  135.2950   69.3210  224.4120 C   0  0  0  0  0  0  0  0  0  0  0  0
  135.2720   70.7050  224.5830 C   0  0  0  0  0  0  0  0  0  0  0  0
  134.6250   71.2960  225.6520 C   0  0  0  0  0  0  0  0  0  0  0  0
  133.9760   70.5210  226.5890 C   0  0  0  0  0  0  0  0  0  0  0  0
  133.9990   69.1860  226.4250 N   0  0  0  0  0  0  0  0  0  0  0  0
  134.6270   68.5970  225.3850 C   0  0  0  0  0  0  0  0  0  0  0  0
  138.7670   70.5240  223.9360 N   0  0  0  0  0  0  0  0  0  0  0  0
  138.4750   71.4760  222.8920 C   0  0  0  0  0  0  0  0  0  0  0  0
  139.6750   72.0580  222.2480 C   0  0  0  0  0  0  0  0  0  0  0  0
  139.9020   73.3960  222.0670 C   0  0  0  0  0  0  0  0  0  0  0  0
  141.0510   73.8860  221.4470 C   0  0  0  0  0  0  0  0  0  0  0  0
  142.0170   73.0370  220.9850 C   0  0  0  0  0  0  0  0  0  0  0  0
  143.4540   73.6490  220.2100 Cl  0  0  0  0  0  0  0  0  0  0  0  0
  141.8140   71.6860  221.1550 C   0  0  0  0  0  0  0  0  0  0  0  0
  140.6640   71.1950  221.7740 C   0  0  0  0  0  0  0  0  0  0  0  0
  141.3448   71.2767  226.9534 H   0  0  0  0  0  0  0  0  0  0  0  0
  141.7836   69.6381  228.7576 H   0  0  0  0  0  0  0  0  0  0  0  0
  140.6720   67.4394  228.8228 H   0  0  0  0  0  0  0  0  0  0  0  0
  139.0483   66.8358  227.0240 H   0  0  0  0  0  0  0  0  0  0  0  0
  137.6080   68.6294  221.9880 H   0  0  0  0  0  0  0  0  0  0  0  0
  135.3790   68.0696  222.6181 H   0  0  0  0  0  0  0  0  0  0  0  0
  135.7826   71.3436  223.8471 H   0  0  0  0  0  0  0  0  0  0  0  0
  134.6281   72.3911  225.7555 H   0  0  0  0  0  0  0  0  0  0  0  0
  133.4561   70.9793  227.4432 H   0  0  0  0  0  0  0  0  0  0  0  0
  134.6072   67.4999  225.3077 H   0  0  0  0  0  0  0  0  0  0  0  0
  137.8805   70.9680  222.1184 H   0  0  0  0  0  0  0  0  0  0  0  0
  137.9352   72.3091  223.3659 H   0  0  0  0  0  0  0  0  0  0  0  0
  139.1482   74.1128  222.4248 H   0  0  0  0  0  0  0  0  0  0  0  0
  141.1816   74.9717  221.3281 H   0  0  0  0  0  0  0  0  0  0  0  0
  142.5751   70.9781  220.7949 H   0  0  0  0  0  0  0  0  0  0  0  0
  140.5347   70.1089  221.8904 H   0  0  0  0  0  0  0  0  0  0  0  0
  1  2  2  0
  2  3  1  0
  3  4  2  0
  4  5  1  0
  5  6  2  0
  6  7  1  0
  7  8  2  0
  8  9  1  0
  9 10  2  0
 10 11  1  0
 11 12  2  0
 12 13  1  0
 13 14  2  0
 14 15  1  0
 15 16  2  0
 16 17  1  0
 17 18  2  0
 10 19  1  0
 19 20  1  0
 20 21  1  0
 21 22  2  0
 22 23  1  0
 23 24  2  0
 24 25  1  0
 24 26  1  0
 26 27  2  0
 19  2  1  0
 27 21  1  0
  8  3  1  0
 18 13  1  0
  4 28  1  0
  5 29  1  0
  6 30  1  0
  7 31  1  0
 11 32  1  0
 12 33  1  0
 14 34  1  0
 15 35  1  0
 16 36  1  0
 18 37  1  0
 20 38  1  0
 20 39  1  0
 22 40  1  0
 23 41  1  0
 26 42  1  0
 27 43  1  0
M  END
>  <smiles>  (7) 
O=c1c2ccccc2nc(/C=C/c2cccnc2)n1Cc1ccc(Cl)cc1

>  <score_type>  (7) 
oracle

>  <origin>  (7) 
autodockgpu

>  <m_score__min__energy>  (7) 
-7.75

>  <m_primary>  (7) 
energy

>  <rmsd>  (7) 
10.129314531974762

>  <m_score__min__rmsd>  (7) 
10.129314531974762

>  <meeko>  (7) 
{"free_energy": -7.39, "intermolecular_energy": -8.88, "internal_energy": -1.44, "cluster_size": 30, "cluster_id": 3, "rank_in_cluster": 27}

>  <energy>  (7) 
-7.55

>  <cluster_rmsd>  (7) 
0.19

>  <cluster>  (7) 
2

$$$$

     RDKit          3D

 43 46  0  0  0  0  0  0  0  0999 V2000
  140.3390   71.9090  225.0720 O   0  0  0  0  0  0  0  0  0  0  0  0
  139.7130   70.8230  225.0690 C   0  0  0  0  0  0  0  0  0  0  0  0
  140.0330   69.9480  226.1130 C   0  0  0  0  0  0  0  0  0  0  0  0
  140.9840   70.2940  227.0670 C   0  0  0  0  0  0  0  0  0  0  0  0
  141.2520   69.3820  228.0720 C   0  0  0  0  0  0  0  0  0  0  0  0
  140.6210   68.1570  228.1640 C   0  0  0  0  0  0  0  0  0  0  0  0
  139.6810   67.8200  227.2170 C   0  0  0  0  0  0  0  0  0  0  0  0
  139.4080   68.7230  226.2120 C   0  0  0  0  0  0  0  0  0  0  0  0
  138.4970   68.4350  225.2650 N   0  0  0  0  0  0  0  0  0  0  0  0
  138.2080   69.2950  224.2710 C   0  0  0  0  0  0  0  0  0  0  0  0
  137.2100   68.8340  223.2930 C   0  0  0  0  0  0  0  0  0  0  0  0
  135.9980   69.3300  223.2920 C   0  0  0  0  0  0  0  0  0  0  0  0
  135.2420   69.6940  224.4780 C   0  0  0  0  0  0  0  0  0  0  0  0
  135.0320   71.0280  224.8260 C   0  0  0  0  0  0  0  0  0  0  0  0
  134.3130   71.3830  225.9530 C   0  0  0  0  0  0  0  0  0  0  0  0
  133.7780   70.4120  226.7720 C   0  0  0  0  0  0  0  0  0  0  0  0
  133.9820   69.1240  226.4360 N   0  0  0  0  0  0  0  0  0  0  0  0
  134.6810   68.7660  225.3390 C   0  0  0  0  0  0  0  0  0  0  0  0
  138.7890   70.4990  224.1340 N   0  0  0  0  0  0  0  0  0  0  0  0
  138.4630   71.4400  223.0900 C   0  0  0  0  0  0  0  0  0  0  0  0
  139.6430   72.0090  222.3970 C   0  0  0  0  0  0  0  0  0  0  0  0
  140.6990   71.2830  221.9140 C   0  0  0  0  0  0  0  0  0  0  0  0
  141.7870   71.8750  221.2740 C   0  0  0  0  0  0  0  0  0  0  0  0
  141.8480   73.2290  221.0970 C   0  0  0  0  0  0  0  0  0  0  0  0
  143.2070   73.9700  220.2960 Cl  0  0  0  0  0  0  0  0  0  0  0  0
  140.7970   73.9830  221.5720 C   0  0  0  0  0  0  0  0  0  0  0  0
  139.7090   73.3910  222.2140 C   0  0  0  0  0  0  0  0  0  0  0  0
  141.5060   71.2613  227.0238 H   0  0  0  0  0  0  0  0  0  0  0  0
  142.0020   69.6445  228.8327 H   0  0  0  0  0  0  0  0  0  0  0  0
  140.8657   67.4620  228.9808 H   0  0  0  0  0  0  0  0  0  0  0  0
  139.1596   66.8524  227.2611 H   0  0  0  0  0  0  0  0  0  0  0  0
  137.4846   68.0653  222.5556 H   0  0  0  0  0  0  0  0  0  0  0  0
  135.5141   69.4831  222.3161 H   0  0  0  0  0  0  0  0  0  0  0  0
  135.4496   71.8197  224.1866 H   0  0  0  0  0  0  0  0  0  0  0  0
  134.1674   72.4457  226.1969 H   0  0  0  0  0  0  0  0  0  0  0  0
  133.2032   70.6804  227.6707 H   0  0  0  0  0  0  0  0  0  0  0  0
  134.8102   67.6958  225.1202 H   0  0  0  0  0  0  0  0  0  0  0  0
  137.8393   70.9257  222.3440 H   0  0  0  0  0  0  0  0  0  0  0  0
  137.9430   72.2808  223.5724 H   0  0  0  0  0  0  0  0  0  0  0  0
  140.6884   70.1898  222.0358 H   0  0  0  0  0  0  0  0  0  0  0  0
  142.6086   71.2430  220.9060 H   0  0  0  0  0  0  0  0  0  0  0  0
  140.8163   75.0751  221.4422 H   0  0  0  0  0  0  0  0  0  0  0  0
  138.8888   74.0246  222.5824 H   0  0  0  0  0  0  0  0  0  0  0  0
  1  2  2  0
  2  3  1  0
  3  4  2  0
  4  5  1  0
  5  6  2  0
  6  7  1  0
  7  8  2  0
  8  9  1  0
  9 10  2  0
 10 11  1  0
 11 12  2  0
 12 13  1  0
 13 14  2  0
 14 15  1  0
 15 16  2  0
 16 17  1  0
 17 18  2  0
 10 19  1  0
 19 20  1  0
 20 21  1  0
 21 22  2  0
 22 23  1  0
 23 24  2  0
 24 25  1  0
 24 26  1  0
 26 27  2  0
 19  2  1  0
 27 21  1  0
  8  3  1  0
 18 13  1  0
  4 28  1  0
  5 29  1  0
  6 30  1  0
  7 31  1  0
 11 32  1  0
 12 33  1  0
 14 34  1  0
 15 35  1  0
 16 36  1  0
 18 37  1  0
 20 38  1  0
 20 39  1  0
 22 40  1  0
 23 41  1  0
 26 42  1  0
 27 43  1  0
M  END
>  <smiles>  (8) 
O=c1c2ccccc2nc(/C=C/c2cccnc2)n1Cc1ccc(Cl)cc1

>  <score_type>  (8) 
oracle

>  <origin>  (8) 
autodockgpu

>  <m_score__min__energy>  (8) 
-7.75

>  <m_primary>  (8) 
energy

>  <rmsd>  (8) 
10.042942000935623

>  <m_score__min__rmsd>  (8) 
10.042942000935623

>  <meeko>  (8) 
{"free_energy": -7.6, "intermolecular_energy": -9.09, "internal_energy": -1.34, "cluster_size": 30, "cluster_id": 3, "rank_in_cluster": 1}

>  <energy>  (8) 
-7.53

>  <cluster_rmsd>  (8) 
0.67

>  <cluster>  (8) 
2

$$$$

     RDKit          3D

 43 46  0  0  0  0  0  0  0  0999 V2000
  140.2110   71.9010  225.0070 O   0  0  0  0  0  0  0  0  0  0  0  0
  139.6240   70.7940  224.9600 C   0  0  0  0  0  0  0  0  0  0  0  0
  139.9260   69.9150  226.0070 C   0  0  0  0  0  0  0  0  0  0  0  0
  140.8180   70.2800  227.0090 C   0  0  0  0  0  0  0  0  0  0  0  0
  141.0710   69.3640  228.0130 C   0  0  0  0  0  0  0  0  0  0  0  0
  140.4810   68.1160  228.0600 C   0  0  0  0  0  0  0  0  0  0  0  0
  139.5980   67.7610  227.0650 C   0  0  0  0  0  0  0  0  0  0  0  0
  139.3400   68.6680  226.0610 C   0  0  0  0  0  0  0  0  0  0  0  0
  138.4850   68.3630  225.0680 N   0  0  0  0  0  0  0  0  0  0  0  0
  138.2120   69.2270  224.0730 C   0  0  0  0  0  0  0  0  0  0  0  0
  137.2770   68.7460  223.0430 C   0  0  0  0  0  0  0  0  0  0  0  0
  135.9870   68.7400  223.2650 C   0  0  0  0  0  0  0  0  0  0  0  0
  135.3320   69.3450  224.4120 C   0  0  0  0  0  0  0  0  0  0  0  0
  135.3050   70.7280  224.5890 C   0  0  0  0  0  0  0  0  0  0  0  0
  134.6830   71.3110  225.6770 C   0  0  0  0  0  0  0  0  0  0  0  0
  134.0640   70.5280  226.6280 C   0  0  0  0  0  0  0  0  0  0  0  0
  134.0900   69.1930  226.4570 N   0  0  0  0  0  0  0  0  0  0  0  0
  134.6940   68.6120  225.3990 C   0  0  0  0  0  0  0  0  0  0  0  0
  138.7570   70.4520  223.9790 N   0  0  0  0  0  0  0  0  0  0  0  0
  138.4470   71.3970  222.9330 C   0  0  0  0  0  0  0  0  0  0  0  0
  139.6370   72.0010  222.2900 C   0  0  0  0  0  0  0  0  0  0  0  0
  140.7180   71.3040  221.8210 C   0  0  0  0  0  0  0  0  0  0  0  0
  141.8150   71.9290  221.2280 C   0  0  0  0  0  0  0  0  0  0  0  0
  141.8590   73.2870  221.0870 C   0  0  0  0  0  0  0  0  0  0  0  0
  143.2300   74.0680  220.3450 Cl  0  0  0  0  0  0  0  0  0  0  0  0
  140.7830   74.0120  221.5490 C   0  0  0  0  0  0  0  0  0  0  0  0
  139.6860   73.3870  222.1430 C   0  0  0  0  0  0  0  0  0  0  0  0
  141.3065   71.2656  227.0031 H   0  0  0  0  0  0  0  0  0  0  0  0
  141.7748   69.6419  228.8114 H   0  0  0  0  0  0  0  0  0  0  0  0
  140.7125   67.4180  228.8780 H   0  0  0  0  0  0  0  0  0  0  0  0
  139.1097   66.7754  227.0717 H   0  0  0  0  0  0  0  0  0  0  0  0
  137.6657   68.3884  222.0781 H   0  0  0  0  0  0  0  0  0  0  0  0
  135.3481   68.2369  222.5242 H   0  0  0  0  0  0  0  0  0  0  0  0
  135.7920   71.3725  223.8424 H   0  0  0  0  0  0  0  0  0  0  0  0
  134.6819   72.4057  225.7847 H   0  0  0  0  0  0  0  0  0  0  0  0
  133.5651   70.9795  227.4982 H   0  0  0  0  0  0  0  0  0  0  0  0
  134.6790   67.5151  225.3175 H   0  0  0  0  0  0  0  0  0  0  0  0
  137.8634   70.8765  222.1594 H   0  0  0  0  0  0  0  0  0  0  0  0
  137.8899   72.2199  223.4046 H   0  0  0  0  0  0  0  0  0  0  0  0
  140.7216   70.2081  221.9155 H   0  0  0  0  0  0  0  0  0  0  0  0
  142.6571   71.3193  220.8686 H   0  0  0  0  0  0  0  0  0  0  0  0
  140.7886   75.1073  221.4475 H   0  0  0  0  0  0  0  0  0  0  0  0
  138.8448   73.9984  222.5018 H   0  0  0  0  0  0  0  0  0  0  0  0
  1  2  2  0
  2  3  1  0
  3  4  2  0
  4  5  1  0
  5  6  2  0
  6  7  1  0
  7  8  2  0
  8  9  1  0
  9 10  2  0
 10 11  1  0
 11 12  2  0
 12 13  1  0
 13 14  2  0
 14 15  1  0
 15 16  2  0
 16 17  1  0
 17 18  2  0
 10 19  1  0
 19 20  1  0
 20 21  1  0
 21 22  2  0
 22 23  1  0
 23 24  2  0
 24 25  1  0
 24 26  1  0
 26 27  2  0
 19  2  1  0
 27 21  1  0
  8  3  1  0
 18 13  1  0
  4 28  1  0
  5 29  1  0
  6 30  1  0
  7 31  1  0
 11 32  1  0
 12 33  1  0
 14 34  1  0
 15 35  1  0
 16 36  1  0
 18 37  1  0
 20 38  1  0
 20 39  1  0
 22 40  1  0
 23 41  1  0
 26 42  1  0
 27 43  1  0
M  END
>  <smiles>  (9) 
O=c1c2ccccc2nc(/C=C/c2cccnc2)n1Cc1ccc(Cl)cc1

>  <score_type>  (9) 
oracle

>  <origin>  (9) 
autodockgpu

>  <m_score__min__energy>  (9) 
-7.75

>  <m_primary>  (9) 
energy

>  <rmsd>  (9) 
10.012611787821958

>  <m_score__min__rmsd>  (9) 
10.012611787821958

>  <meeko>  (9) 
{"free_energy": -7.41, "intermolecular_energy": -8.9, "internal_energy": -1.46, "cluster_size": 30, "cluster_id": 3, "rank_in_cluster": 25}

>  <energy>  (9) 
-7.48

>  <cluster_rmsd>  (9) 
0.95

>  <cluster>  (9) 
2

$$$$

     RDKit          3D

 43 46  0  0  0  0  0  0  0  0999 V2000
  139.1010   74.1290  222.3840 O   0  0  0  0  0  0  0  0  0  0  0  0
  140.0890   73.9320  221.6380 C   0  0  0  0  0  0  0  0  0  0  0  0
  140.7820   75.0850  221.2490 C   0  0  0  0  0  0  0  0  0  0  0  0
  140.3740   76.3410  221.6830 C   0  0  0  0  0  0  0  0  0  0  0  0
  141.1040   77.4380  221.2620 C   0  0  0  0  0  0  0  0  0  0  0  0
  142.2080   77.3360  220.4390 C   0  0  0  0  0  0  0  0  0  0  0  0
  142.6080   76.0890  220.0140 C   0  0  0  0  0  0  0  0  0  0  0  0
  141.8860   74.9910  220.4280 C   0  0  0  0  0  0  0  0  0  0  0  0
  142.2390   73.7530  220.0360 N   0  0  0  0  0  0  0  0  0  0  0  0
  141.5550   72.6620  220.4230 C   0  0  0  0  0  0  0  0  0  0  0  0
  142.0430   71.3770  219.8950 C   0  0  0  0  0  0  0  0  0  0  0  0
  143.2960   71.0280  220.0440 C   0  0  0  0  0  0  0  0  0  0  0  0
  144.4250   71.9420  220.0460 C   0  0  0  0  0  0  0  0  0  0  0  0
  144.8170   72.6120  221.2050 C   0  0  0  0  0  0  0  0  0  0  0  0
  145.8900   73.4830  221.2150 C   0  0  0  0  0  0  0  0  0  0  0  0
  146.6110   73.7150  220.0630 C   0  0  0  0  0  0  0  0  0  0  0  0
  146.2330   73.0680  218.9440 N   0  0  0  0  0  0  0  0  0  0  0  0
  145.1870   72.2150  218.9220 C   0  0  0  0  0  0  0  0  0  0  0  0
  140.4760   72.7020  221.2240 N   0  0  0  0  0  0  0  0  0  0  0  0
  139.7550   71.5350  221.6690 C   0  0  0  0  0  0  0  0  0  0  0  0
  139.9120   71.2390  223.1120 C   0  0  0  0  0  0  0  0  0  0  0  0
  140.7450   71.9080  223.9680 C   0  0  0  0  0  0  0  0  0  0  0  0
  140.8550   71.5810  225.3180 C   0  0  0  0  0  0  0  0  0  0  0  0
  140.1250   70.5590  225.8570 C   0  0  0  0  0  0  0  0  0  0  0  0
  140.2620   70.1490  227.5460 Cl  0  0  0  0  0  0  0  0  0  0  0  0
  139.2770   69.8700  225.0180 C   0  0  0  0  0  0  0  0  0  0  0  0
  139.1670   70.1970  223.6660 C   0  0  0  0  0  0  0  0  0  0  0  0
  139.4994   76.4587  222.3396 H   0  0  0  0  0  0  0  0  0  0  0  0
  140.7906   78.4374  221.5983 H   0  0  0  0  0  0  0  0  0  0  0  0
  142.7587   78.2360  220.1281 H   0  0  0  0  0  0  0  0  0  0  0  0
  143.4839   75.9720  219.3590 H   0  0  0  0  0  0  0  0  0  0  0  0
  141.3485   70.7042  219.3706 H   0  0  0  0  0  0  0  0  0  0  0  0
  143.5109   69.9576  220.1784 H   0  0  0  0  0  0  0  0  0  0  0  0
  144.2568   72.4425  222.1364 H   0  0  0  0  0  0  0  0  0  0  0  0
  146.1705   73.9942  222.1477 H   0  0  0  0  0  0  0  0  0  0  0  0
  147.4669   74.4059  220.0580 H   0  0  0  0  0  0  0  0  0  0  0  0
  144.9299   71.7176  217.9751 H   0  0  0  0  0  0  0  0  0  0  0  0
  138.6857   71.6905  221.4629 H   0  0  0  0  0  0  0  0  0  0  0  0
  140.1735   70.6770  221.1225 H   0  0  0  0  0  0  0  0  0  0  0  0
  141.3517   72.7368  223.5743 H   0  0  0  0  0  0  0  0  0  0  0  0
  141.5400   72.1543  225.9599 H   0  0  0  0  0  0  0  0  0  0  0  0
  138.6735   69.0442  225.4227 H   0  0  0  0  0  0  0  0  0  0  0  0
  138.4810   69.6233  223.0255 H   0  0  0  0  0  0  0  0  0  0  0  0
  1  2  2  0
  2  3  1  0
  3  4  2  0
  4  5  1  0
  5  6  2  0
  6  7  1  0
  7  8  2  0
  8  9  1  0
  9 10  2  0
 10 11  1  0
 11 12  2  0
 12 13  1  0
 13 14  2  0
 14 15  1  0
 15 16  2  0
 16 17  1  0
 17 18  2  0
 10 19  1  0
 19 20  1  0
 20 21  1  0
 21 22  2  0
 22 23  1  0
 23 24  2  0
 24 25  1  0
 24 26  1  0
 26 27  2  0
 19  2  1  0
 27 21  1  0
  8  3  1  0
 18 13  1  0
  4 28  1  0
  5 29  1  0
  6 30  1  0
  7 31  1  0
 11 32  1  0
 12 33  1  0
 14 34  1  0
 15 35  1  0
 16 36  1  0
 18 37  1  0
 20 38  1  0
 20 39  1  0
 22 40  1  0
 23 41  1  0
 26 42  1  0
 27 43  1  0
M  END
>  <smiles>  (10) 
O=c1c2ccccc2nc(/C=C/c2cccnc2)n1Cc1ccc(Cl)cc1

>  <score_type>  (10) 
oracle

>  <origin>  (10) 
autodockgpu

>  <m_score__min__energy>  (10) 
-7.75

>  <m_primary>  (10) 
energy

>  <rmsd>  (10) 
8.844249639115217

>  <m_score__min__rmsd>  (10) 
8.844249639115217

>  <meeko>  (10) 
{"free_energy": -7.73, "intermolecular_energy": -9.22, "internal_energy": -1.44, "cluster_size": 4, "cluster_id": 1, "rank_in_cluster": 2}

>  <energy>  (10) 
-7.6

>  <cluster_rmsd>  (10) 
0.0

>  <cluster>  (10) 
3

$$$$

     RDKit          3D

 43 46  0  0  0  0  0  0  0  0999 V2000
  140.3410   71.8890  225.0920 O   0  0  0  0  0  0  0  0  0  0  0  0
  139.7180   70.8020  225.0860 C   0  0  0  0  0  0  0  0  0  0  0  0
  140.0390   69.9250  226.1300 C   0  0  0  0  0  0  0  0  0  0  0  0
  140.9860   70.2730  227.0860 C   0  0  0  0  0  0  0  0  0  0  0  0
  141.2550   69.3600  228.0900 C   0  0  0  0  0  0  0  0  0  0  0  0
  140.6270   68.1330  228.1790 C   0  0  0  0  0  0  0  0  0  0  0  0
  139.6890   67.7960  227.2300 C   0  0  0  0  0  0  0  0  0  0  0  0
  139.4160   68.6990  226.2260 C   0  0  0  0  0  0  0  0  0  0  0  0
  138.5070   68.4100  225.2770 N   0  0  0  0  0  0  0  0  0  0  0  0
  138.2170   69.2700  224.2840 C   0  0  0  0  0  0  0  0  0  0  0  0
  137.2220   68.8080  223.3040 C   0  0  0  0  0  0  0  0  0  0  0  0
  136.0080   69.3000  223.3020 C   0  0  0  0  0  0  0  0  0  0  0  0
  135.2570   69.6760  224.4880 C   0  0  0  0  0  0  0  0  0  0  0  0
  135.0530   71.0140  224.8260 C   0  0  0  0  0  0  0  0  0  0  0  0
  134.3390   71.3800  225.9520 C   0  0  0  0  0  0  0  0  0  0  0  0
  133.8020   70.4170  226.7800 C   0  0  0  0  0  0  0  0  0  0  0  0
  133.9990   69.1260  226.4530 N   0  0  0  0  0  0  0  0  0  0  0  0
  134.6940   68.7570  225.3570 C   0  0  0  0  0  0  0  0  0  0  0  0
  138.7960   70.4760  224.1500 N   0  0  0  0  0  0  0  0  0  0  0  0
  138.4690   71.4180  223.1060 C   0  0  0  0  0  0  0  0  0  0  0  0
  139.6480   71.9860  222.4110 C   0  0  0  0  0  0  0  0  0  0  0  0
  140.7020   71.2590  221.9260 C   0  0  0  0  0  0  0  0  0  0  0  0
  141.7890   71.8500  221.2840 C   0  0  0  0  0  0  0  0  0  0  0  0
  141.8520   73.2040  221.1080 C   0  0  0  0  0  0  0  0  0  0  0  0
  143.2110   73.9430  220.3040 Cl  0  0  0  0  0  0  0  0  0  0  0  0
  140.8030   73.9580  221.5850 C   0  0  0  0  0  0  0  0  0  0  0  0
  139.7160   73.3670  222.2290 C   0  0  0  0  0  0  0  0  0  0  0  0
  141.5044   71.2423  227.0456 H   0  0  0  0  0  0  0  0  0  0  0  0
  142.0032   69.6232  228.8522 H   0  0  0  0  0  0  0  0  0  0  0  0
  140.8725   67.4370  228.9946 H   0  0  0  0  0  0  0  0  0  0  0  0
  139.1690   66.8276  227.2722 H   0  0  0  0  0  0  0  0  0  0  0  0
  137.5002   68.0417  222.5655 H   0  0  0  0  0  0  0  0  0  0  0  0
  135.5189   69.4394  222.3266 H   0  0  0  0  0  0  0  0  0  0  0  0
  135.4715   71.7991  224.1792 H   0  0  0  0  0  0  0  0  0  0  0  0
  134.1986   72.4450  226.1886 H   0  0  0  0  0  0  0  0  0  0  0  0
  133.2313   70.6946  227.6784 H   0  0  0  0  0  0  0  0  0  0  0  0
  134.8181   67.6846  225.1457 H   0  0  0  0  0  0  0  0  0  0  0  0
  137.8435   70.9044  222.3611 H   0  0  0  0  0  0  0  0  0  0  0  0
  137.9507   72.2592  223.5895 H   0  0  0  0  0  0  0  0  0  0  0  0
  140.6905   70.1658  222.0477 H   0  0  0  0  0  0  0  0  0  0  0  0
  142.6087   71.2170  220.9133 H   0  0  0  0  0  0  0  0  0  0  0  0
  140.8227   75.0502  221.4553 H   0  0  0  0  0  0  0  0  0  0  0  0
  138.8977   74.0016  222.6000 H   0  0  0  0  0  0  0  0  0  0  0  0
  1  2  2  0
  2  3  1  0
  3  4  2  0
  4  5  1  0
  5  6  2  0
  6  7  1  0
  7  8  2  0
  8  9  1  0
  9 10  2  0
 10 11  1  0
 11 12  2  0
 12 13  1  0
 13 14  2  0
 14 15  1  0
 15 16  2  0
 16 17  1  0
 17 18  2  0
 10 19  1  0
 19 20  1  0
 20 21  1  0
 21 22  2  0
 22 23  1  0
 23 24  2  0
 24 25  1  0
 24 26  1  0
 26 27  2  0
 19  2  1  0
 27 21  1  0
  8  3  1  0
 18 13  1  0
  4 28  1  0
  5 29  1  0
  6 30  1  0
  7 31  1  0
 11 32  1  0
 12 33  1  0
 14 34  1  0
 15 35  1  0
 16 36  1  0
 18 37  1  0
 20 38  1  0
 20 39  1  0
 22 40  1  0
 23 41  1  0
 26 42  1  0
 27 43  1  0
M  END
>  <smiles>  (11) 
O=c1c2ccccc2nc(/C=C/c2cccnc2)n1Cc1ccc(Cl)cc1

>  <score_type>  (11) 
oracle

>  <origin>  (11) 
autodockgpu

>  <m_score__min__energy>  (11) 
-7.75

>  <m_primary>  (11) 
energy

>  <rmsd>  (11) 
10.067763268670296

>  <m_score__min__rmsd>  (11) 
10.067763268670296

>  <meeko>  (11) 
{"free_energy": -7.59, "intermolecular_energy": -9.08, "internal_energy": -1.35, "cluster_size": 30, "cluster_id": 3, "rank_in_cluster": 2}

>  <energy>  (11) 
-7.59

>  <cluster_rmsd>  (11) 
0.03

>  <cluster>  (11) 
3

$$$$

     RDKit          3D

 43 46  0  0  0  0  0  0  0  0999 V2000
  140.2290   71.8920  225.0630 O   0  0  0  0  0  0  0  0  0  0  0  0
  139.6150   70.7990  225.0570 C   0  0  0  0  0  0  0  0  0  0  0  0
  139.9320   69.9320  226.1090 C   0  0  0  0  0  0  0  0  0  0  0  0
  140.8660   70.2930  227.0740 C   0  0  0  0  0  0  0  0  0  0  0  0
  141.1310   69.3890  228.0860 C   0  0  0  0  0  0  0  0  0  0  0  0
  140.5130   68.1570  228.1760 C   0  0  0  0  0  0  0  0  0  0  0  0
  139.5880   67.8060  227.2190 C   0  0  0  0  0  0  0  0  0  0  0  0
  139.3180   68.7010  226.2070 C   0  0  0  0  0  0  0  0  0  0  0  0
  138.4220   68.3990  225.2490 N   0  0  0  0  0  0  0  0  0  0  0  0
  138.1360   69.2500  224.2480 C   0  0  0  0  0  0  0  0  0  0  0  0
  137.1560   68.7740  223.2590 C   0  0  0  0  0  0  0  0  0  0  0  0
  135.9210   69.2100  223.2820 C   0  0  0  0  0  0  0  0  0  0  0  0
  135.1960   69.6100  224.4750 C   0  0  0  0  0  0  0  0  0  0  0  0
  135.0260   70.9530  224.8070 C   0  0  0  0  0  0  0  0  0  0  0  0
  134.3360   71.3420  225.9410 C   0  0  0  0  0  0  0  0  0  0  0  0
  133.7930   70.3970  226.7840 C   0  0  0  0  0  0  0  0  0  0  0  0
  133.9570   69.0990  226.4640 N   0  0  0  0  0  0  0  0  0  0  0  0
  134.6280   68.7080  225.3600 C   0  0  0  0  0  0  0  0  0  0  0  0
  138.7060   70.4610  224.1120 N   0  0  0  0  0  0  0  0  0  0  0  0
  138.3830   71.3930  223.0600 C   0  0  0  0  0  0  0  0  0  0  0  0
  139.5650   71.9890  222.3940 C   0  0  0  0  0  0  0  0  0  0  0  0
  139.7930   73.3320  222.2480 C   0  0  0  0  0  0  0  0  0  0  0  0
  140.9230   73.8360  221.6060 C   0  0  0  0  0  0  0  0  0  0  0  0
  141.8690   72.9980  221.0850 C   0  0  0  0  0  0  0  0  0  0  0  0
  143.2830   73.6280  220.2830 Cl  0  0  0  0  0  0  0  0  0  0  0  0
  141.6650   71.6430  221.2190 C   0  0  0  0  0  0  0  0  0  0  0  0
  140.5330   71.1380  221.8610 C   0  0  0  0  0  0  0  0  0  0  0  0
  141.3773   71.2661  227.0335 H   0  0  0  0  0  0  0  0  0  0  0  0
  141.8680   69.6636  228.8550 H   0  0  0  0  0  0  0  0  0  0  0  0
  140.7559   67.4681  228.9984 H   0  0  0  0  0  0  0  0  0  0  0  0
  139.0761   66.8333  227.2613 H   0  0  0  0  0  0  0  0  0  0  0  0
  137.4631   68.0458  222.4938 H   0  0  0  0  0  0  0  0  0  0  0  0
  135.3906   69.2786  222.3207 H   0  0  0  0  0  0  0  0  0  0  0  0
  135.4523   71.7247  224.1492 H   0  0  0  0  0  0  0  0  0  0  0  0
  134.2202   72.4114  226.1710 H   0  0  0  0  0  0  0  0  0  0  0  0
  133.2431   70.6932  227.6895 H   0  0  0  0  0  0  0  0  0  0  0  0
  134.7277   67.6319  225.1551 H   0  0  0  0  0  0  0  0  0  0  0  0
  137.7890   70.8638  222.3003 H   0  0  0  0  0  0  0  0  0  0  0  0
  137.8325   72.2218  223.5292 H   0  0  0  0  0  0  0  0  0  0  0  0
  139.0554   74.0403  222.6533 H   0  0  0  0  0  0  0  0  0  0  0  0
  141.0555   74.9244  221.5173 H   0  0  0  0  0  0  0  0  0  0  0  0
  142.4098   70.9436  220.8115 H   0  0  0  0  0  0  0  0  0  0  0  0
  140.4021   70.0493  221.9481 H   0  0  0  0  0  0  0  0  0  0  0  0
  1  2  2  0
  2  3  1  0
  3  4  2  0
  4  5  1  0
  5  6  2  0
  6  7  1  0
  7  8  2  0
  8  9  1  0
  9 10  2  0
 10 11  1  0
 11 12  2  0
 12 13  1  0
 13 14  2  0
 14 15  1  0
 15 16  2  0
 16 17  1  0
 17 18  2  0
 10 19  1  0
 19 20  1  0
 20 21  1  0
 21 22  2  0
 22 23  1  0
 23 24  2  0
 24 25  1  0
 24 26  1  0
 26 27  2  0
 19  2  1  0
 27 21  1  0
  8  3  1  0
 18 13  1  0
  4 28  1  0
  5 29  1  0
  6 30  1  0
  7 31  1  0
 11 32  1  0
 12 33  1  0
 14 34  1  0
 15 35  1  0
 16 36  1  0
 18 37  1  0
 20 38  1  0
 20 39  1  0
 22 40  1  0
 23 41  1  0
 26 42  1  0
 27 43  1  0
M  END
>  <smiles>  (12) 
O=c1c2ccccc2nc(/C=C/c2cccnc2)n1Cc1ccc(Cl)cc1

>  <score_type>  (12) 
oracle

>  <origin>  (12) 
autodockgpu

>  <m_score__min__energy>  (12) 
-7.75

>  <m_primary>  (12) 
energy

>  <rmsd>  (12) 
10.206530163555446

>  <m_score__min__rmsd>  (12) 
10.206530163555446

>  <meeko>  (12) 
{"free_energy": -7.53, "intermolecular_energy": -9.02, "internal_energy": -1.38, "cluster_size": 30, "cluster_id": 3, "rank_in_cluster": 15}

>  <energy>  (12) 
-7.58

>  <cluster_rmsd>  (12) 
0.07

>  <cluster>  (12) 
3

$$$$

     RDKit          3D

 43 46  0  0  0  0  0  0  0  0999 V2000
  141.5690   71.1570  221.2730 O   0  0  0  0  0  0  0  0  0  0  0  0
  141.7200   72.4000  221.2340 C   0  0  0  0  0  0  0  0  0  0  0  0
  142.9540   72.8350  220.7380 C   0  0  0  0  0  0  0  0  0  0  0  0
  143.9180   71.9220  220.3250 C   0  0  0  0  0  0  0  0  0  0  0  0
  145.1150   72.4200  219.8440 C   0  0  0  0  0  0  0  0  0  0  0  0
  145.3880   73.7720  219.7580 C   0  0  0  0  0  0  0  0  0  0  0  0
  144.4290   74.6710  220.1670 C   0  0  0  0  0  0  0  0  0  0  0  0
  143.2340   74.1830  220.6480 C   0  0  0  0  0  0  0  0  0  0  0  0
  142.2680   75.0250  221.0600 N   0  0  0  0  0  0  0  0  0  0  0  0
  141.0910   74.5800  221.5340 C   0  0  0  0  0  0  0  0  0  0  0  0
  140.1420   75.6170  221.9710 C   0  0  0  0  0  0  0  0  0  0  0  0
  140.1710   76.8140  221.4410 C   0  0  0  0  0  0  0  0  0  0  0  0
  140.9760   77.9230  221.9240 C   0  0  0  0  0  0  0  0  0  0  0  0
  141.3350   78.0310  223.2670 C   0  0  0  0  0  0  0  0  0  0  0  0
  142.1010   79.0830  223.7340 C   0  0  0  0  0  0  0  0  0  0  0  0
  142.5360   80.0650  222.8700 C   0  0  0  0  0  0  0  0  0  0  0  0
  142.1890   79.9610  221.5740 N   0  0  0  0  0  0  0  0  0  0  0  0
  141.4410   78.9390  221.1060 C   0  0  0  0  0  0  0  0  0  0  0  0
  140.7720   73.2790  221.6380 N   0  0  0  0  0  0  0  0  0  0  0  0
  139.5000   72.7930  222.1170 C   0  0  0  0  0  0  0  0  0  0  0  0
  139.5980   71.8810  223.2800 C   0  0  0  0  0  0  0  0  0  0  0  0
  140.6100   71.8860  224.2020 C   0  0  0  0  0  0  0  0  0  0  0  0
  140.6520   70.9980  225.2760 C   0  0  0  0  0  0  0  0  0  0  0  0
  139.6680   70.0680  225.4590 C   0  0  0  0  0  0  0  0  0  0  0  0
  139.7190   68.9580  226.8020 Cl  0  0  0  0  0  0  0  0  0  0  0  0
  138.6370   70.0420  224.5460 C   0  0  0  0  0  0  0  0  0  0  0  0
  138.5950   70.9300  223.4700 C   0  0  0  0  0  0  0  0  0  0  0  0
  143.7344   70.8388  220.3791 H   0  0  0  0  0  0  0  0  0  0  0  0
  145.8854   71.7072  219.5147 H   0  0  0  0  0  0  0  0  0  0  0  0
  146.3551   74.1238  219.3694 H   0  0  0  0  0  0  0  0  0  0  0  0
  144.6128   75.7541  220.1110 H   0  0  0  0  0  0  0  0  0  0  0  0
  139.4014   75.3841  222.7502 H   0  0  0  0  0  0  0  0  0  0  0  0
  139.5361   76.9941  220.5610 H   0  0  0  0  0  0  0  0  0  0  0  0
  140.9996   77.2581  223.9742 H   0  0  0  0  0  0  0  0  0  0  0  0
  142.3647   79.1366  224.8006 H   0  0  0  0  0  0  0  0  0  0  0  0
  143.1471   80.9065  223.2283 H   0  0  0  0  0  0  0  0  0  0  0  0
  141.1917   78.9125  220.0350 H   0  0  0  0  0  0  0  0  0  0  0  0
  138.8872   73.6589  222.4082 H   0  0  0  0  0  0  0  0  0  0  0  0
  139.0539   72.2122  221.2963 H   0  0  0  0  0  0  0  0  0  0  0  0
  141.4221   72.6196  224.0911 H   0  0  0  0  0  0  0  0  0  0  0  0
  141.4901   71.0469  225.9868 H   0  0  0  0  0  0  0  0  0  0  0  0
  137.8291   69.3054  224.6675 H   0  0  0  0  0  0  0  0  0  0  0  0
  137.7567   70.8792  222.7596 H   0  0  0  0  0  0  0  0  0  0  0  0
  1  2  2  0
  2  3  1  0
  3  4  2  0
  4  5  1  0
  5  6  2  0
  6  7  1  0
  7  8  2  0
  8  9  1  0
  9 10  2  0
 10 11  1  0
 11 12  2  0
 12 13  1  0
 13 14  2  0
 14 15  1  0
 15 16  2  0
 16 17  1  0
 17 18  2  0
 10 19  1  0
 19 20  1  0
 20 21  1  0
 21 22  2  0
 22 23  1  0
 23 24  2  0
 24 25  1  0
 24 26  1  0
 26 27  2  0
 19  2  1  0
 27 21  1  0
  8  3  1  0
 18 13  1  0
  4 28  1  0
  5 29  1  0
  6 30  1  0
  7 31  1  0
 11 32  1  0
 12 33  1  0
 14 34  1  0
 15 35  1  0
 16 36  1  0
 18 37  1  0
 20 38  1  0
 20 39  1  0
 22 40  1  0
 23 41  1  0
 26 42  1  0
 27 43  1  0
M  END
>  <smiles>  (13) 
O=c1c2ccccc2nc(/C=C/c2cccnc2)n1Cc1ccc(Cl)cc1

>  <score_type>  (13) 
oracle

>  <origin>  (13) 
autodockgpu

>  <m_score__min__energy>  (13) 
-7.75

>  <m_primary>  (13) 
energy

>  <rmsd>  (13) 
9.267563337160922

>  <m_score__min__rmsd>  (13) 
9.267563337160922

>  <meeko>  (13) 
{"free_energy": -7.57, "intermolecular_energy": -9.06, "internal_energy": -1.14, "cluster_size": 5, "cluster_id": 2, "rank_in_cluster": 2}

>  <energy>  (13) 
-7.58

>  <cluster_rmsd>  (13) 
0.09

>  <cluster>  (13) 
3

$$$$

     RDKit          3D

 43 46  0  0  0  0  0  0  0  0999 V2000
  140.8260   74.1600  221.9760 O   0  0  0  0  0  0  0  0  0  0  0  0
  139.6550   74.5960  222.0740 C   0  0  0  0  0  0  0  0  0  0  0  0
  139.5480   75.9810  222.2490 C   0  0  0  0  0  0  0  0  0  0  0  0
  140.6820   76.7830  222.3050 C   0  0  0  0  0  0  0  0  0  0  0  0
  140.5040   78.1430  222.4790 C   0  0  0  0  0  0  0  0  0  0  0  0
  139.2590   78.7290  222.6000 C   0  0  0  0  0  0  0  0  0  0  0  0
  138.1400   77.9310  222.5430 C   0  0  0  0  0  0  0  0  0  0  0  0
  138.3080   76.5740  222.3690 C   0  0  0  0  0  0  0  0  0  0  0  0
  137.2420   75.7550  222.3100 N   0  0  0  0  0  0  0  0  0  0  0  0
  137.3740   74.4270  222.1410 C   0  0  0  0  0  0  0  0  0  0  0  0
  136.1210   73.6550  222.1200 C   0  0  0  0  0  0  0  0  0  0  0  0
  135.6380   73.1380  223.2220 C   0  0  0  0  0  0  0  0  0  0  0  0
  135.0770   73.8970  224.3270 C   0  0  0  0  0  0  0  0  0  0  0  0
  135.1100   75.2910  224.3430 C   0  0  0  0  0  0  0  0  0  0  0  0
  134.5780   76.0200  225.3900 C   0  0  0  0  0  0  0  0  0  0  0  0
  133.9940   75.3780  226.4610 C   0  0  0  0  0  0  0  0  0  0  0  0
  133.9620   74.0320  226.4450 N   0  0  0  0  0  0  0  0  0  0  0  0
  134.4780   73.3090  225.4290 C   0  0  0  0  0  0  0  0  0  0  0  0
  138.5590   73.8050  222.0170 N   0  0  0  0  0  0  0  0  0  0  0  0
  138.7080   72.3850  221.8050 C   0  0  0  0  0  0  0  0  0  0  0  0
  139.0900   71.6270  223.0190 C   0  0  0  0  0  0  0  0  0  0  0  0
  140.2760   71.7610  223.6900 C   0  0  0  0  0  0  0  0  0  0  0  0
  140.5840   71.0150  224.8270 C   0  0  0  0  0  0  0  0  0  0  0  0
  139.7010   70.1010  225.3290 C   0  0  0  0  0  0  0  0  0  0  0  0
  140.0850   69.1680  226.7500 Cl  0  0  0  0  0  0  0  0  0  0  0  0
  138.5000   69.9470  224.6730 C   0  0  0  0  0  0  0  0  0  0  0  0
  138.1920   70.6930  223.5350 C   0  0  0  0  0  0  0  0  0  0  0  0
  141.6888   76.3495  222.2138 H   0  0  0  0  0  0  0  0  0  0  0  0
  141.3942   78.7876  222.5231 H   0  0  0  0  0  0  0  0  0  0  0  0
  139.1639   79.8159  222.7397 H   0  0  0  0  0  0  0  0  0  0  0  0
  137.1338   78.3660  222.6342 H   0  0  0  0  0  0  0  0  0  0  0  0
  135.5854   73.5110  221.1700 H   0  0  0  0  0  0  0  0  0  0  0  0
  135.6586   72.0425  223.3189 H   0  0  0  0  0  0  0  0  0  0  0  0
  135.5719   75.8250  223.4995 H   0  0  0  0  0  0  0  0  0  0  0  0
  134.6209   77.1189  225.3684 H   0  0  0  0  0  0  0  0  0  0  0  0
  133.5682   75.9465  227.3009 H   0  0  0  0  0  0  0  0  0  0  0  0
  134.4208   72.2116  225.4778 H   0  0  0  0  0  0  0  0  0  0  0  0
  137.7498   71.9885  221.4379 H   0  0  0  0  0  0  0  0  0  0  0  0
  139.5269   72.2574  221.0817 H   0  0  0  0  0  0  0  0  0  0  0  0
  141.0149   72.4857  223.3174 H   0  0  0  0  0  0  0  0  0  0  0  0
  141.5522   71.1645  225.3273 H   0  0  0  0  0  0  0  0  0  0  0  0
  137.7678   69.2202  225.0545 H   0  0  0  0  0  0  0  0  0  0  0  0
  137.2235   70.5418  223.0358 H   0  0  0  0  0  0  0  0  0  0  0  0
  1  2  2  0
  2  3  1  0
  3  4  2  0
  4  5  1  0
  5  6  2  0
  6  7  1  0
  7  8  2  0
  8  9  1  0
  9 10  2  0
 10 11  1  0
 11 12  2  0
 12 13  1  0
 13 14  2  0
 14 15  1  0
 15 16  2  0
 16 17  1  0
 17 18  2  0
 10 19  1  0
 19 20  1  0
 20 21  1  0
 21 22  2  0
 22 23  1  0
 23 24  2  0
 24 25  1  0
 24 26  1  0
 26 27  2  0
 19  2  1  0
 27 21  1  0
  8  3  1  0
 18 13  1  0
  4 28  1  0
  5 29  1  0
  6 30  1  0
  7 31  1  0
 11 32  1  0
 12 33  1  0
 14 34  1  0
 15 35  1  0
 16 36  1  0
 18 37  1  0
 20 38  1  0
 20 39  1  0
 22 40  1  0
 23 41  1  0
 26 42  1  0
 27 43  1  0
M  END
>  <smiles>  (14) 
O=c1c2ccccc2nc(/C=C/c2cccnc2)n1Cc1ccc(Cl)cc1

>  <score_type>  (14) 
oracle

>  <origin>  (14) 
autodockgpu

>  <m_score__min__energy>  (14) 
-7.75

>  <m_primary>  (14) 
energy

>  <rmsd>  (14) 
8.99620588398411

>  <m_score__min__rmsd>  (14) 
8.99620588398411

>  <meeko>  (14) 
{"free_energy": -7.26, "intermolecular_energy": -8.75, "internal_energy": -1.42, "cluster_size": 4, "cluster_id": 5, "rank_in_cluster": 4}

>  <energy>  (14) 
-7.58

>  <cluster_rmsd>  (14) 
0.08

>  <cluster>  (14) 
3

$$$$

     RDKit          3D

 43 46  0  0  0  0  0  0  0  0999 V2000
  141.3760   71.1280  221.4850 O   0  0  0  0  0  0  0  0  0  0  0  0
  141.3430   72.3790  221.4090 C   0  0  0  0  0  0  0  0  0  0  0  0
  142.4900   72.9740  220.8710 C   0  0  0  0  0  0  0  0  0  0  0  0
  143.5690   72.2000  220.4620 C   0  0  0  0  0  0  0  0  0  0  0  0
  144.6710   72.8520  219.9390 C   0  0  0  0  0  0  0  0  0  0  0  0
  144.7410   74.2260  219.8100 C   0  0  0  0  0  0  0  0  0  0  0  0
  143.6690   74.9870  220.2170 C   0  0  0  0  0  0  0  0  0  0  0  0
  142.5670   74.3450  220.7390 C   0  0  0  0  0  0  0  0  0  0  0  0
  141.4970   75.0490  221.1500 N   0  0  0  0  0  0  0  0  0  0  0  0
  140.4060   74.4520  221.6630 C   0  0  0  0  0  0  0  0  0  0  0  0
  139.3240   75.3510  222.0940 C   0  0  0  0  0  0  0  0  0  0  0  0
  139.3040   76.6030  221.7090 C   0  0  0  0  0  0  0  0  0  0  0  0
  139.8940   77.7120  222.4390 C   0  0  0  0  0  0  0  0  0  0  0  0
  141.2770   77.8630  222.5400 C   0  0  0  0  0  0  0  0  0  0  0  0
  141.8460   78.9160  223.2320 C   0  0  0  0  0  0  0  0  0  0  0  0
  141.0490   79.8570  223.8480 C   0  0  0  0  0  0  0  0  0  0  0  0
  139.7140   79.7110  223.7500 N   0  0  0  0  0  0  0  0  0  0  0  0
  139.1470   78.6880  223.0770 C   0  0  0  0  0  0  0  0  0  0  0  0
  140.2840   73.1210  221.8100 N   0  0  0  0  0  0  0  0  0  0  0  0
  139.1070   72.4700  222.3320 C   0  0  0  0  0  0  0  0  0  0  0  0
  139.3730   71.5470  223.4590 C   0  0  0  0  0  0  0  0  0  0  0  0
  138.7200   70.3640  223.6800 C   0  0  0  0  0  0  0  0  0  0  0  0
  139.0100   69.5360  224.7640 C   0  0  0  0  0  0  0  0  0  0  0  0
  139.9750   69.8760  225.6700 C   0  0  0  0  0  0  0  0  0  0  0  0
  140.3390   68.8420  227.0250 Cl  0  0  0  0  0  0  0  0  0  0  0  0
  140.6480   71.0610  225.4710 C   0  0  0  0  0  0  0  0  0  0  0  0
  140.3580   71.8890  224.3860 C   0  0  0  0  0  0  0  0  0  0  0  0
  143.5475   71.1038  220.5513 H   0  0  0  0  0  0  0  0  0  0  0  0
  145.5308   72.2494  219.6108 H   0  0  0  0  0  0  0  0  0  0  0  0
  145.6382   74.7034  219.3892 H   0  0  0  0  0  0  0  0  0  0  0  0
  143.6913   76.0831  220.1276 H   0  0  0  0  0  0  0  0  0  0  0  0
  138.5245   74.9683  222.7455 H   0  0  0  0  0  0  0  0  0  0  0  0
  138.8009   76.8327  220.7582 H   0  0  0  0  0  0  0  0  0  0  0  0
  141.9327   77.1242  222.0559 H   0  0  0  0  0  0  0  0  0  0  0  0
  142.9409   79.0034  223.2913 H   0  0  0  0  0  0  0  0  0  0  0  0
  141.4892   80.6996  224.4015 H   0  0  0  0  0  0  0  0  0  0  0  0
  138.0496   78.6271  223.0335 H   0  0  0  0  0  0  0  0  0  0  0  0
  138.4089   73.2460  222.6791 H   0  0  0  0  0  0  0  0  0  0  0  0
  138.6945   71.8602  221.5147 H   0  0  0  0  0  0  0  0  0  0  0  0
  137.9352   70.0543  222.9742 H   0  0  0  0  0  0  0  0  0  0  0  0
  138.4539   68.5955  224.8917 H   0  0  0  0  0  0  0  0  0  0  0  0
  141.4311   71.3612  226.1828 H   0  0  0  0  0  0  0  0  0  0  0  0
  140.9161   72.8284  224.2592 H   0  0  0  0  0  0  0  0  0  0  0  0
  1  2  2  0
  2  3  1  0
  3  4  2  0
  4  5  1  0
  5  6  2  0
  6  7  1  0
  7  8  2  0
  8  9  1  0
  9 10  2  0
 10 11  1  0
 11 12  2  0
 12 13  1  0
 13 14  2  0
 14 15  1  0
 15 16  2  0
 16 17  1  0
 17 18  2  0
 10 19  1  0
 19 20  1  0
 20 21  1  0
 21 22  2  0
 22 23  1  0
 23 24  2  0
 24 25  1  0
 24 26  1  0
 26 27  2  0
 19  2  1  0
 27 21  1  0
  8  3  1  0
 18 13  1  0
  4 28  1  0
  5 29  1  0
  6 30  1  0
  7 31  1  0
 11 32  1  0
 12 33  1  0
 14 34  1  0
 15 35  1  0
 16 36  1  0
 18 37  1  0
 20 38  1  0
 20 39  1  0
 22 40  1  0
 23 41  1  0
 26 42  1  0
 27 43  1  0
M  END
>  <smiles>  (15) 
O=c1c2ccccc2nc(/C=C/c2cccnc2)n1Cc1ccc(Cl)cc1

>  <score_type>  (15) 
oracle

>  <origin>  (15) 
autodockgpu

>  <m_score__min__energy>  (15) 
-7.75

>  <m_primary>  (15) 
energy

>  <rmsd>  (15) 
9.184148663123361

>  <m_score__min__rmsd>  (15) 
9.184148663123361

>  <meeko>  (15) 
{"free_energy": -7.48, "intermolecular_energy": -8.97, "internal_energy": -1.15, "cluster_size": 5, "cluster_id": 2, "rank_in_cluster": 5}

>  <energy>  (15) 
-7.57

>  <cluster_rmsd>  (15) 
0.07

>  <cluster>  (15) 
3

$$$$

     RDKit          3D

 43 46  0  0  0  0  0  0  0  0999 V2000
  140.7860   73.7140  221.9960 O   0  0  0  0  0  0  0  0  0  0  0  0
  139.5880   74.0640  222.1080 C   0  0  0  0  0  0  0  0  0  0  0  0
  139.3690   75.4470  222.1120 C   0  0  0  0  0  0  0  0  0  0  0  0
  140.4310   76.3370  221.9960 C   0  0  0  0  0  0  0  0  0  0  0  0
  140.1440   77.6900  222.0060 C   0  0  0  0  0  0  0  0  0  0  0  0
  138.8610   78.1860  222.1250 C   0  0  0  0  0  0  0  0  0  0  0  0
  137.8140   77.3000  222.2380 C   0  0  0  0  0  0  0  0  0  0  0  0
  138.0900   75.9500  222.2300 C   0  0  0  0  0  0  0  0  0  0  0  0
  137.0980   75.0480  222.3390 N   0  0  0  0  0  0  0  0  0  0  0  0
  137.3360   73.7240  222.3340 C   0  0  0  0  0  0  0  0  0  0  0  0
  136.1560   72.8590  222.4870 C   0  0  0  0  0  0  0  0  0  0  0  0
  135.7280   72.5190  223.6780 C   0  0  0  0  0  0  0  0  0  0  0  0
  135.0800   73.4150  224.6210 C   0  0  0  0  0  0  0  0  0  0  0  0
  135.3080   74.7900  224.5930 C   0  0  0  0  0  0  0  0  0  0  0  0
  134.6950   75.6490  225.4860 C   0  0  0  0  0  0  0  0  0  0  0  0
  133.8300   75.1590  226.4410 C   0  0  0  0  0  0  0  0  0  0  0  0
  133.6100   73.8310  226.4680 N   0  0  0  0  0  0  0  0  0  0  0  0
  134.2020   72.9830  225.6010 C   0  0  0  0  0  0  0  0  0  0  0  0
  138.5630   73.1870  222.2190 N   0  0  0  0  0  0  0  0  0  0  0  0
  138.8240   71.7690  222.1810 C   0  0  0  0  0  0  0  0  0  0  0  0
  139.1780   71.1820  223.4940 C   0  0  0  0  0  0  0  0  0  0  0  0
  138.4660   70.2050  224.1390 C   0  0  0  0  0  0  0  0  0  0  0  0
  138.8450   69.6940  225.3790 C   0  0  0  0  0  0  0  0  0  0  0  0
  139.9620   70.1530  226.0180 C   0  0  0  0  0  0  0  0  0  0  0  0
  140.4370   69.5140  227.5690 Cl  0  0  0  0  0  0  0  0  0  0  0  0
  140.6980   71.1350  225.3910 C   0  0  0  0  0  0  0  0  0  0  0  0
  140.3180   71.6470  224.1500 C   0  0  0  0  0  0  0  0  0  0  0  0
  141.4658   75.9767  221.8994 H   0  0  0  0  0  0  0  0  0  0  0  0
  140.9761   78.4036  221.9150 H   0  0  0  0  0  0  0  0  0  0  0  0
  138.6788   79.2708  222.1294 H   0  0  0  0  0  0  0  0  0  0  0  0
  136.7795   77.6616  222.3327 H   0  0  0  0  0  0  0  0  0  0  0  0
  135.6281   72.4943  221.5935 H   0  0  0  0  0  0  0  0  0  0  0  0
  135.8704   71.4733  223.9883 H   0  0  0  0  0  0  0  0  0  0  0  0
  135.9947   75.2029  223.8394 H   0  0  0  0  0  0  0  0  0  0  0  0
  134.8985   76.7288  225.4343 H   0  0  0  0  0  0  0  0  0  0  0  0
  133.3356   75.8312  227.1577 H   0  0  0  0  0  0  0  0  0  0  0  0
  133.9788   71.9085  225.6755 H   0  0  0  0  0  0  0  0  0  0  0  0
  137.9218   71.2619  221.8083 H   0  0  0  0  0  0  0  0  0  0  0  0
  139.6952   71.6251  221.5249 H   0  0  0  0  0  0  0  0  0  0  0  0
  137.5592   69.8082  223.6590 H   0  0  0  0  0  0  0  0  0  0  0  0
  138.2354   68.9091  225.8505 H   0  0  0  0  0  0  0  0  0  0  0  0
  141.6040   71.5233  225.8792 H   0  0  0  0  0  0  0  0  0  0  0  0
  140.9287   72.4320  223.6801 H   0  0  0  0  0  0  0  0  0  0  0  0
  1  2  2  0
  2  3  1  0
  3  4  2  0
  4  5  1  0
  5  6  2  0
  6  7  1  0
  7  8  2  0
  8  9  1  0
  9 10  2  0
 10 11  1  0
 11 12  2  0
 12 13  1  0
 13 14  2  0
 14 15  1  0
 15 16  2  0
 16 17  1  0
 17 18  2  0
 10 19  1  0
 19 20  1  0
 20 21  1  0
 21 22  2  0
 22 23  1  0
 23 24  2  0
 24 25  1  0
 24 26  1  0
 26 27  2  0
 19  2  1  0
 27 21  1  0
  8  3  1  0
 18 13  1  0
  4 28  1  0
  5 29  1  0
  6 30  1  0
  7 31  1  0
 11 32  1  0
 12 33  1  0
 14 34  1  0
 15 35  1  0
 16 36  1  0
 18 37  1  0
 20 38  1  0
 20 39  1  0
 22 40  1  0
 23 41  1  0
 26 42  1  0
 27 43  1  0
M  END
>  <smiles>  (16) 
O=c1c2ccccc2nc(/C=C/c2cccnc2)n1Cc1ccc(Cl)cc1

>  <score_type>  (16) 
oracle

>  <origin>  (16) 
autodockgpu

>  <m_score__min__energy>  (16) 
-7.75

>  <m_primary>  (16) 
energy

>  <rmsd>  (16) 
8.91037593687473

>  <m_score__min__rmsd>  (16) 
8.91037593687473

>  <meeko>  (16) 
{"free_energy": -7.43, "intermolecular_energy": -8.92, "internal_energy": -1.39, "cluster_size": 4, "cluster_id": 5, "rank_in_cluster": 1}

>  <energy>  (16) 
-7.56

>  <cluster_rmsd>  (16) 
0.09

>  <cluster>  (16) 
3

$$$$

     RDKit          3D

 43 46  0  0  0  0  0  0  0  0999 V2000
  138.2940   75.3510  221.7830 O   0  0  0  0  0  0  0  0  0  0  0  0
  139.4420   74.9460  221.4820 C   0  0  0  0  0  0  0  0  0  0  0  0
  139.6930   73.5990  221.7680 C   0  0  0  0  0  0  0  0  0  0  0  0
  138.7140   72.7980  222.3450 C   0  0  0  0  0  0  0  0  0  0  0  0
  139.0300   71.4760  222.6000 C   0  0  0  0  0  0  0  0  0  0  0  0
  140.2630   70.9270  222.3090 C   0  0  0  0  0  0  0  0  0  0  0  0
  141.2280   71.7250  221.7370 C   0  0  0  0  0  0  0  0  0  0  0  0
  140.9220   73.0430  221.4790 C   0  0  0  0  0  0  0  0  0  0  0  0
  141.8350   73.8600  220.9220 N   0  0  0  0  0  0  0  0  0  0  0  0
  141.5670   75.1510  220.6580 C   0  0  0  0  0  0  0  0  0  0  0  0
  142.6700   75.9290  220.0720 C   0  0  0  0  0  0  0  0  0  0  0  0
  143.5060   75.3730  219.2300 C   0  0  0  0  0  0  0  0  0  0  0  0
  144.4470   74.3160  219.5610 C   0  0  0  0  0  0  0  0  0  0  0  0
  144.9980   74.2060  220.8370 C   0  0  0  0  0  0  0  0  0  0  0  0
  145.8940   73.2030  221.1590 C   0  0  0  0  0  0  0  0  0  0  0  0
  146.2690   72.2730  220.2130 C   0  0  0  0  0  0  0  0  0  0  0  0
  145.7360   72.3800  218.9810 N   0  0  0  0  0  0  0  0  0  0  0  0
  144.8610   73.3540  218.6550 C   0  0  0  0  0  0  0  0  0  0  0  0
  140.3860   75.7370  220.9190 N   0  0  0  0  0  0  0  0  0  0  0  0
  140.0790   77.1130  220.6110 C   0  0  0  0  0  0  0  0  0  0  0  0
  140.7000   78.0930  221.5320 C   0  0  0  0  0  0  0  0  0  0  0  0
  140.9660   77.8710  222.8560 C   0  0  0  0  0  0  0  0  0  0  0  0
  141.5480   78.8360  223.6780 C   0  0  0  0  0  0  0  0  0  0  0  0
  141.8830   80.0670  223.1890 C   0  0  0  0  0  0  0  0  0  0  0  0
  142.6110   81.2730  224.2150 Cl  0  0  0  0  0  0  0  0  0  0  0  0
  141.6270   80.3160  221.8590 C   0  0  0  0  0  0  0  0  0  0  0  0
  141.0440   79.3520  221.0370 C   0  0  0  0  0  0  0  0  0  0  0  0
  137.7209   73.2024  222.5906 H   0  0  0  0  0  0  0  0  0  0  0  0
  138.2635   70.8320  223.0558 H   0  0  0  0  0  0  0  0  0  0  0  0
  140.4708   69.8698  222.5305 H   0  0  0  0  0  0  0  0  0  0  0  0
  142.2206   71.3194  221.4916 H   0  0  0  0  0  0  0  0  0  0  0  0
  142.7940   76.9877  220.3435 H   0  0  0  0  0  0  0  0  0  0  0  0
  143.4947   75.7346  218.1912 H   0  0  0  0  0  0  0  0  0  0  0  0
  144.7124   74.9365  221.6082 H   0  0  0  0  0  0  0  0  0  0  0  0
  146.3099   73.1470  222.1758 H   0  0  0  0  0  0  0  0  0  0  0  0
  146.9802   71.4700  220.4565 H   0  0  0  0  0  0  0  0  0  0  0  0
  144.4613   73.3851  217.6306 H   0  0  0  0  0  0  0  0  0  0  0  0
  140.4323   77.3256  219.5912 H   0  0  0  0  0  0  0  0  0  0  0  0
  138.9898   77.2257  220.7160 H   0  0  0  0  0  0  0  0  0  0  0  0
  140.7107   76.8926  223.2892 H   0  0  0  0  0  0  0  0  0  0  0  0
  141.7401   78.6025  224.7356 H   0  0  0  0  0  0  0  0  0  0  0  0
  141.8882   81.2971  221.4356 H   0  0  0  0  0  0  0  0  0  0  0  0
  140.8519   79.5879  219.9799 H   0  0  0  0  0  0  0  0  0  0  0  0
  1  2  2  0
  2  3  1  0
  3  4  2  0
  4  5  1  0
  5  6  2  0
  6  7  1  0
  7  8  2  0
  8  9  1  0
  9 10  2  0
 10 11  1  0
 11 12  2  0
 12 13  1  0
 13 14  2  0
 14 15  1  0
 15 16  2  0
 16 17  1  0
 17 18  2  0
 10 19  1  0
 19 20  1  0
 20 21  1  0
 21 22  2  0
 22 23  1  0
 23 24  2  0
 24 25  1  0
 24 26  1  0
 26 27  2  0
 19  2  1  0
 27 21  1  0
  8  3  1  0
 18 13  1  0
  4 28  1  0
  5 29  1  0
  6 30  1  0
  7 31  1  0
 11 32  1  0
 12 33  1  0
 14 34  1  0
 15 35  1  0
 16 36  1  0
 18 37  1  0
 20 38  1  0
 20 39  1  0
 22 40  1  0
 23 41  1  0
 26 42  1  0
 27 43  1  0
M  END
>  <smiles>  (17) 
O=c1c2ccccc2nc(/C=C/c2cccnc2)n1Cc1ccc(Cl)cc1

>  <score_type>  (17) 
oracle

>  <origin>  (17) 
autodockgpu

>  <m_score__min__energy>  (17) 
-7.75

>  <m_primary>  (17) 
energy

>  <rmsd>  (17) 
4.675701847191635

>  <m_score__min__rmsd>  (17) 
4.675701847191635

>  <meeko>  (17) 
{"free_energy": -7.48, "intermolecular_energy": -8.97, "internal_energy": -1.33, "cluster_size": 5, "cluster_id": 4, "rank_in_cluster": 4}

>  <energy>  (17) 
-7.56

>  <cluster_rmsd>  (17) 
0.14

>  <cluster>  (17) 
3

$$$$

     RDKit          3D

 43 46  0  0  0  0  0  0  0  0999 V2000
  140.2380   71.8890  225.1010 O   0  0  0  0  0  0  0  0  0  0  0  0
  139.6230   70.7970  225.0860 C   0  0  0  0  0  0  0  0  0  0  0  0
  139.9350   69.9220  226.1340 C   0  0  0  0  0  0  0  0  0  0  0  0
  140.8660   70.2760  227.1040 C   0  0  0  0  0  0  0  0  0  0  0  0
  141.1270   69.3650  228.1110 C   0  0  0  0  0  0  0  0  0  0  0  0
  140.5070   68.1330  228.1900 C   0  0  0  0  0  0  0  0  0  0  0  0
  139.5860   67.7890  227.2280 C   0  0  0  0  0  0  0  0  0  0  0  0
  139.3200   68.6910  226.2210 C   0  0  0  0  0  0  0  0  0  0  0  0
  138.4270   68.3960  225.2580 N   0  0  0  0  0  0  0  0  0  0  0  0
  138.1460   69.2550  224.2620 C   0  0  0  0  0  0  0  0  0  0  0  0
  137.1680   68.7870  223.2670 C   0  0  0  0  0  0  0  0  0  0  0  0
  135.9330   69.2220  223.2880 C   0  0  0  0  0  0  0  0  0  0  0  0
  135.2070   69.6190  224.4820 C   0  0  0  0  0  0  0  0  0  0  0  0
  135.0330   70.9620  224.8160 C   0  0  0  0  0  0  0  0  0  0  0  0
  134.3430   71.3470  225.9500 C   0  0  0  0  0  0  0  0  0  0  0  0
  133.8000   70.3990  226.7920 C   0  0  0  0  0  0  0  0  0  0  0  0
  133.9680   69.1030  226.4690 N   0  0  0  0  0  0  0  0  0  0  0  0
  134.6400   68.7140  225.3650 C   0  0  0  0  0  0  0  0  0  0  0  0
  138.7170   70.4650  224.1360 N   0  0  0  0  0  0  0  0  0  0  0  0
  138.3990   71.4050  223.0890 C   0  0  0  0  0  0  0  0  0  0  0  0
  139.5840   71.9930  222.4210 C   0  0  0  0  0  0  0  0  0  0  0  0
  139.8190   73.3340  222.2710 C   0  0  0  0  0  0  0  0  0  0  0  0
  140.9520   73.8300  221.6270 C   0  0  0  0  0  0  0  0  0  0  0  0
  141.8930   72.9860  221.1070 C   0  0  0  0  0  0  0  0  0  0  0  0
  143.3090   73.6050  220.3020 Cl  0  0  0  0  0  0  0  0  0  0  0  0
  141.6800   71.6320  221.2450 C   0  0  0  0  0  0  0  0  0  0  0  0
  140.5470   71.1350  221.8890 C   0  0  0  0  0  0  0  0  0  0  0  0
  141.3782   71.2489  227.0715 H   0  0  0  0  0  0  0  0  0  0  0  0
  141.8617   69.6335  228.8843 H   0  0  0  0  0  0  0  0  0  0  0  0
  140.7460   67.4385  229.0089 H   0  0  0  0  0  0  0  0  0  0  0  0
  139.0736   66.8162  227.2618 H   0  0  0  0  0  0  0  0  0  0  0  0
  137.4775   68.0643  222.4976 H   0  0  0  0  0  0  0  0  0  0  0  0
  135.4039   69.2923  222.3262 H   0  0  0  0  0  0  0  0  0  0  0  0
  135.4565   71.7359  224.1589 H   0  0  0  0  0  0  0  0  0  0  0  0
  134.2262   72.4158  226.1824 H   0  0  0  0  0  0  0  0  0  0  0  0
  133.2481   70.6922  227.6972 H   0  0  0  0  0  0  0  0  0  0  0  0
  134.7414   67.6383  225.1585 H   0  0  0  0  0  0  0  0  0  0  0  0
  137.7973   70.8848  222.3292 H   0  0  0  0  0  0  0  0  0  0  0  0
  137.8584   72.2369  223.5641 H   0  0  0  0  0  0  0  0  0  0  0  0
  139.0853   74.0475  222.6743 H   0  0  0  0  0  0  0  0  0  0  0  0
  141.0906   74.9174  221.5361 H   0  0  0  0  0  0  0  0  0  0  0  0
  142.4200   70.9270  220.8382 H   0  0  0  0  0  0  0  0  0  0  0  0
  140.4103   70.0473  221.9791 H   0  0  0  0  0  0  0  0  0  0  0  0
  1  2  2  0
  2  3  1  0
  3  4  2  0
  4  5  1  0
  5  6  2  0
  6  7  1  0
  7  8  2  0
  8  9  1  0
  9 10  2  0
 10 11  1  0
 11 12  2  0
 12 13  1  0
 13 14  2  0
 14 15  1  0
 15 16  2  0
 16 17  1  0
 17 18  2  0
 10 19  1  0
 19 20  1  0
 20 21  1  0
 21 22  2  0
 22 23  1  0
 23 24  2  0
 24 25  1  0
 24 26  1  0
 26 27  2  0
 19  2  1  0
 27 21  1  0
  8  3  1  0
 18 13  1  0
  4 28  1  0
  5 29  1  0
  6 30  1  0
  7 31  1  0
 11 32  1  0
 12 33  1  0
 14 34  1  0
 15 35  1  0
 16 36  1  0
 18 37  1  0
 20 38  1  0
 20 39  1  0
 22 40  1  0
 23 41  1  0
 26 42  1  0
 27 43  1  0
M  END
>  <smiles>  (18) 
O=c1c2ccccc2nc(/C=C/c2cccnc2)n1Cc1ccc(Cl)cc1

>  <score_type>  (18) 
oracle

>  <origin>  (18) 
autodockgpu

>  <m_score__min__energy>  (18) 
-7.75

>  <m_primary>  (18) 
energy

>  <rmsd>  (18) 
10.223155727008805

>  <m_score__min__rmsd>  (18) 
10.223155727008805

>  <meeko>  (18) 
{"free_energy": -7.51, "intermolecular_energy": -9.0, "internal_energy": -1.39, "cluster_size": 30, "cluster_id": 3, "rank_in_cluster": 17}

>  <energy>  (18) 
-7.55

>  <cluster_rmsd>  (18) 
0.09

>  <cluster>  (18) 
3

$$$$

     RDKit          3D

 43 46  0  0  0  0  0  0  0  0999 V2000
  141.0320   72.3300  222.9120 O   0  0  0  0  0  0  0  0  0  0  0  0
  139.9330   71.8600  223.2900 C   0  0  0  0  0  0  0  0  0  0  0  0
  139.9960   71.0250  224.4120 C   0  0  0  0  0  0  0  0  0  0  0  0
  141.2100   70.7610  225.0370 C   0  0  0  0  0  0  0  0  0  0  0  0
  141.2000   69.9280  226.1410 C   0  0  0  0  0  0  0  0  0  0  0  0
  140.0470   69.3550  226.6410 C   0  0  0  0  0  0  0  0  0  0  0  0
  138.8480   69.6210  226.0190 C   0  0  0  0  0  0  0  0  0  0  0  0
  138.8490   70.4500  224.9180 C   0  0  0  0  0  0  0  0  0  0  0  0
  137.7010   70.7360  224.2780 N   0  0  0  0  0  0  0  0  0  0  0  0
  137.6680   71.5410  223.2010 C   0  0  0  0  0  0  0  0  0  0  0  0
  136.3450   71.7430  222.5890 C   0  0  0  0  0  0  0  0  0  0  0  0
  135.2850   71.9240  223.3370 C   0  0  0  0  0  0  0  0  0  0  0  0
  135.0700   73.0530  224.2250 C   0  0  0  0  0  0  0  0  0  0  0  0
  135.6120   74.3090  223.9500 C   0  0  0  0  0  0  0  0  0  0  0  0
  135.4110   75.3890  224.7900 C   0  0  0  0  0  0  0  0  0  0  0  0
  134.6600   75.2500  225.9370 C   0  0  0  0  0  0  0  0  0  0  0  0
  134.1370   74.0380  226.2020 N   0  0  0  0  0  0  0  0  0  0  0  0
  134.3250   72.9760  225.3900 C   0  0  0  0  0  0  0  0  0  0  0  0
  138.7580   72.1260  222.6730 N   0  0  0  0  0  0  0  0  0  0  0  0
  138.7280   73.0160  221.5370 C   0  0  0  0  0  0  0  0  0  0  0  0
  139.2690   74.3670  221.8110 C   0  0  0  0  0  0  0  0  0  0  0  0
  140.5660   74.7540  221.6000 C   0  0  0  0  0  0  0  0  0  0  0  0
  141.0200   76.0420  221.8820 C   0  0  0  0  0  0  0  0  0  0  0  0
  140.1780   76.9900  222.3920 C   0  0  0  0  0  0  0  0  0  0  0  0
  140.7460   78.5990  222.7440 Cl  0  0  0  0  0  0  0  0  0  0  0  0
  138.8680   76.6260  222.6120 C   0  0  0  0  0  0  0  0  0  0  0  0
  138.4130   75.3380  222.3310 C   0  0  0  0  0  0  0  0  0  0  0  0
  142.1475   71.2003  224.6654 H   0  0  0  0  0  0  0  0  0  0  0  0
  142.1541   69.7119  226.6440 H   0  0  0  0  0  0  0  0  0  0  0  0
  140.0861   68.6970  227.5216 H   0  0  0  0  0  0  0  0  0  0  0  0
  137.9109   69.1821  226.3921 H   0  0  0  0  0  0  0  0  0  0  0  0
  136.2453   71.7420  221.4935 H   0  0  0  0  0  0  0  0  0  0  0  0
  134.4949   71.1602  223.2888 H   0  0  0  0  0  0  0  0  0  0  0  0
  136.2156   74.4438  223.0403 H   0  0  0  0  0  0  0  0  0  0  0  0
  135.8533   76.3649  224.5411 H   0  0  0  0  0  0  0  0  0  0  0  0
  134.4934   76.1011  226.6137 H   0  0  0  0  0  0  0  0  0  0  0  0
  133.8692   72.0131  225.6640 H   0  0  0  0  0  0  0  0  0  0  0  0
  139.3215   72.5640  220.7286 H   0  0  0  0  0  0  0  0  0  0  0  0
  137.6701   73.1477  221.2659 H   0  0  0  0  0  0  0  0  0  0  0  0
  141.2769   74.0203  221.1923 H   0  0  0  0  0  0  0  0  0  0  0  0
  142.0724   76.2990  221.6910 H   0  0  0  0  0  0  0  0  0  0  0  0
  138.1648   77.3679  223.0185 H   0  0  0  0  0  0  0  0  0  0  0  0
  137.3602   75.0832  222.5228 H   0  0  0  0  0  0  0  0  0  0  0  0
  1  2  2  0
  2  3  1  0
  3  4  2  0
  4  5  1  0
  5  6  2  0
  6  7  1  0
  7  8  2  0
  8  9  1  0
  9 10  2  0
 10 11  1  0
 11 12  2  0
 12 13  1  0
 13 14  2  0
 14 15  1  0
 15 16  2  0
 16 17  1  0
 17 18  2  0
 10 19  1  0
 19 20  1  0
 20 21  1  0
 21 22  2  0
 22 23  1  0
 23 24  2  0
 24 25  1  0
 24 26  1  0
 26 27  2  0
 19  2  1  0
 27 21  1  0
  8  3  1  0
 18 13  1  0
  4 28  1  0
  5 29  1  0
  6 30  1  0
  7 31  1  0
 11 32  1  0
 12 33  1  0
 14 34  1  0
 15 35  1  0
 16 36  1  0
 18 37  1  0
 20 38  1  0
 20 39  1  0
 22 40  1  0
 23 41  1  0
 26 42  1  0
 27 43  1  0
M  END
>  <smiles>  (19) 
O=c1c2ccccc2nc(/C=C/c2cccnc2)n1Cc1ccc(Cl)cc1

>  <score_type>  (19) 
oracle

>  <origin>  (19) 
autodockgpu

>  <m_score__min__energy>  (19) 
-7.75

>  <m_primary>  (19) 
energy

>  <rmsd>  (19) 
7.953047176894287

>  <m_score__min__rmsd>  (19) 
7.953047176894287

>  <meeko>  (19) 
{"free_energy": -7.05, "intermolecular_energy": -8.54, "internal_energy": -1.48, "cluster_size": 1, "cluster_id": 6, "rank_in_cluster": 1}

>  <energy>  (19) 
-7.55

>  <cluster_rmsd>  (19) 
0.14

>  <cluster>  (19) 
3

$$$$

     RDKit          3D

 43 46  0  0  0  0  0  0  0  0999 V2000
  140.3160   71.8960  225.0250 O   0  0  0  0  0  0  0  0  0  0  0  0
  139.6740   70.8190  225.0150 C   0  0  0  0  0  0  0  0  0  0  0  0
  139.9640   69.9420  226.0670 C   0  0  0  0  0  0  0  0  0  0  0  0
  140.9030   70.2780  227.0350 C   0  0  0  0  0  0  0  0  0  0  0  0
  141.1420   69.3660  228.0470 C   0  0  0  0  0  0  0  0  0  0  0  0
  140.4920   68.1500  228.1330 C   0  0  0  0  0  0  0  0  0  0  0  0
  139.5620   67.8240  227.1710 C   0  0  0  0  0  0  0  0  0  0  0  0
  139.3190   68.7270  226.1590 C   0  0  0  0  0  0  0  0  0  0  0  0
  138.4200   68.4490  225.1980 N   0  0  0  0  0  0  0  0  0  0  0  0
  138.1600   69.3100  224.1970 C   0  0  0  0  0  0  0  0  0  0  0  0
  137.1720   68.8600  223.2040 C   0  0  0  0  0  0  0  0  0  0  0  0
  135.9340   69.2870  223.2530 C   0  0  0  0  0  0  0  0  0  0  0  0
  135.2250   69.6570  224.4660 C   0  0  0  0  0  0  0  0  0  0  0  0
  135.0390   70.9930  224.8210 C   0  0  0  0  0  0  0  0  0  0  0  0
  134.3650   71.3530  225.9730 C   0  0  0  0  0  0  0  0  0  0  0  0
  133.8520   70.3870  226.8120 C   0  0  0  0  0  0  0  0  0  0  0  0
  134.0320   69.0970  226.4690 N   0  0  0  0  0  0  0  0  0  0  0  0
  134.6880   68.7330  225.3470 C   0  0  0  0  0  0  0  0  0  0  0  0
  138.7610   70.5050  224.0660 N   0  0  0  0  0  0  0  0  0  0  0  0
  138.4660   71.4470  223.0130 C   0  0  0  0  0  0  0  0  0  0  0  0
  139.6650   71.9990  222.3400 C   0  0  0  0  0  0  0  0  0  0  0  0
  140.6970   71.2540  221.8340 C   0  0  0  0  0  0  0  0  0  0  0  0
  141.8050   71.8300  221.2140 C   0  0  0  0  0  0  0  0  0  0  0  0
  141.9120   73.1860  221.0820 C   0  0  0  0  0  0  0  0  0  0  0  0
  143.2970   73.9070  220.3060 Cl  0  0  0  0  0  0  0  0  0  0  0  0
  140.8870   73.9580  221.5810 C   0  0  0  0  0  0  0  0  0  0  0  0
  139.7780   73.3830  222.2030 C   0  0  0  0  0  0  0  0  0  0  0  0
  141.4387   71.2380  226.9975 H   0  0  0  0  0  0  0  0  0  0  0  0
  141.8835   69.6205  228.8186 H   0  0  0  0  0  0  0  0  0  0  0  0
  140.7135   67.4542  228.9557 H   0  0  0  0  0  0  0  0  0  0  0  0
  139.0254   66.8646  227.2097 H   0  0  0  0  0  0  0  0  0  0  0  0
  137.4754   68.1585  222.4129 H   0  0  0  0  0  0  0  0  0  0  0  0
  135.3890   69.3719  222.3013 H   0  0  0  0  0  0  0  0  0  0  0  0
  135.4394   71.7814  224.1667 H   0  0  0  0  0  0  0  0  0  0  0  0
  134.2373   72.4169  226.2217 H   0  0  0  0  0  0  0  0  0  0  0  0
  133.3134   70.6607  227.7313 H   0  0  0  0  0  0  0  0  0  0  0  0
  134.8004   67.6618  225.1238 H   0  0  0  0  0  0  0  0  0  0  0  0
  137.8496   70.9381  222.2573 H   0  0  0  0  0  0  0  0  0  0  0  0
  137.9481   72.2958  223.4834 H   0  0  0  0  0  0  0  0  0  0  0  0
  140.6498   70.1584  221.9202 H   0  0  0  0  0  0  0  0  0  0  0  0
  142.6052   71.1831  220.8252 H   0  0  0  0  0  0  0  0  0  0  0  0
  140.9435   75.0525  221.4873 H   0  0  0  0  0  0  0  0  0  0  0  0
  138.9794   74.0318  222.5919 H   0  0  0  0  0  0  0  0  0  0  0  0
  1  2  2  0
  2  3  1  0
  3  4  2  0
  4  5  1  0
  5  6  2  0
  6  7  1  0
  7  8  2  0
  8  9  1  0
  9 10  2  0
 10 11  1  0
 11 12  2  0
 12 13  1  0
 13 14  2  0
 14 15  1  0
 15 16  2  0
 16 17  1  0
 17 18  2  0
 10 19  1  0
 19 20  1  0
 20 21  1  0
 21 22  2  0
 22 23  1  0
 23 24  2  0
 24 25  1  0
 24 26  1  0
 26 27  2  0
 19  2  1  0
 27 21  1  0
  8  3  1  0
 18 13  1  0
  4 28  1  0
  5 29  1  0
  6 30  1  0
  7 31  1  0
 11 32  1  0
 12 33  1  0
 14 34  1  0
 15 35  1  0
 16 36  1  0
 18 37  1  0
 20 38  1  0
 20 39  1  0
 22 40  1  0
 23 41  1  0
 26 42  1  0
 27 43  1  0
M  END
>  <smiles>  (20) 
O=c1c2ccccc2nc(/C=C/c2cccnc2)n1Cc1ccc(Cl)cc1

>  <score_type>  (20) 
oracle

>  <origin>  (20) 
autodockgpu

>  <m_score__min__energy>  (20) 
-7.75

>  <m_primary>  (20) 
energy

>  <rmsd>  (20) 
10.043082911709773

>  <m_score__min__rmsd>  (20) 
10.043082911709773

>  <meeko>  (20) 
{"free_energy": -7.55, "intermolecular_energy": -9.04, "internal_energy": -1.38, "cluster_size": 30, "cluster_id": 3, "rank_in_cluster": 9}

>  <energy>  (20) 
-7.54

>  <cluster_rmsd>  (20) 
0.14

>  <cluster>  (20) 
3

$$$$

     RDKit          3D

 43 46  0  0  0  0  0  0  0  0999 V2000
  140.1420   71.8930  225.0690 O   0  0  0  0  0  0  0  0  0  0  0  0
  139.5930   70.7660  225.0460 C   0  0  0  0  0  0  0  0  0  0  0  0
  139.9200   69.9230  226.1150 C   0  0  0  0  0  0  0  0  0  0  0  0
  140.7950   70.3420  227.1110 C   0  0  0  0  0  0  0  0  0  0  0  0
  141.0740   69.4590  228.1380 C   0  0  0  0  0  0  0  0  0  0  0  0
  140.5260   68.1930  228.2120 C   0  0  0  0  0  0  0  0  0  0  0  0
  139.6600   67.7840  227.2230 C   0  0  0  0  0  0  0  0  0  0  0  0
  139.3770   68.6580  226.1960 C   0  0  0  0  0  0  0  0  0  0  0  0
  138.5370   68.3010  225.2070 N   0  0  0  0  0  0  0  0  0  0  0  0
  138.2400   69.1310  224.1910 C   0  0  0  0  0  0  0  0  0  0  0  0
  137.3270   68.5940  223.1690 C   0  0  0  0  0  0  0  0  0  0  0  0
  136.0410   68.8360  223.2300 C   0  0  0  0  0  0  0  0  0  0  0  0
  135.3440   69.3680  224.3880 C   0  0  0  0  0  0  0  0  0  0  0  0
  135.2880   70.7390  224.6380 C   0  0  0  0  0  0  0  0  0  0  0  0
  134.6260   71.2530  225.7380 C   0  0  0  0  0  0  0  0  0  0  0  0
  133.9950   70.4100  226.6270 C   0  0  0  0  0  0  0  0  0  0  0  0
  134.0490   69.0870  226.3860 N   0  0  0  0  0  0  0  0  0  0  0  0
  134.6920   68.5730  225.3160 C   0  0  0  0  0  0  0  0  0  0  0  0
  138.7420   70.3720  224.0700 N   0  0  0  0  0  0  0  0  0  0  0  0
  138.4050   71.2800  223.0010 C   0  0  0  0  0  0  0  0  0  0  0  0
  139.5770   71.9090  222.3480 C   0  0  0  0  0  0  0  0  0  0  0  0
  140.6690   71.2350  221.8700 C   0  0  0  0  0  0  0  0  0  0  0  0
  141.7470   71.8830  221.2690 C   0  0  0  0  0  0  0  0  0  0  0  0
  141.7620   73.2430  221.1270 C   0  0  0  0  0  0  0  0  0  0  0  0
  143.1090   74.0530  220.3750 Cl  0  0  0  0  0  0  0  0  0  0  0  0
  140.6740   73.9440  221.5990 C   0  0  0  0  0  0  0  0  0  0  0  0
  139.5960   73.2970  222.2010 C   0  0  0  0  0  0  0  0  0  0  0  0
  141.2503   71.3429  227.0829 H   0  0  0  0  0  0  0  0  0  0  0  0
  141.7640   69.7794  228.9325 H   0  0  0  0  0  0  0  0  0  0  0  0
  140.7774   67.5229  229.0473 H   0  0  0  0  0  0  0  0  0  0  0  0
  139.2047   66.7831  227.2520 H   0  0  0  0  0  0  0  0  0  0  0  0
  137.7282   67.9838  222.3464 H   0  0  0  0  0  0  0  0  0  0  0  0
  135.4417   68.6192  222.3334 H   0  0  0  0  0  0  0  0  0  0  0  0
  135.7840   71.4305  223.9410 H   0  0  0  0  0  0  0  0  0  0  0  0
  134.6030   72.3401  225.9042 H   0  0  0  0  0  0  0  0  0  0  0  0
  133.4642   70.8058  227.5054 H   0  0  0  0  0  0  0  0  0  0  0  0
  134.6983   67.4820  225.1759 H   0  0  0  0  0  0  0  0  0  0  0  0
  137.8431   70.7215  222.2379 H   0  0  0  0  0  0  0  0  0  0  0  0
  137.8179   72.0944  223.4505 H   0  0  0  0  0  0  0  0  0  0  0  0
  140.6966   70.1394  221.9640 H   0  0  0  0  0  0  0  0  0  0  0  0
  142.5990   71.2911  220.9032 H   0  0  0  0  0  0  0  0  0  0  0  0
  140.6555   75.0392  221.4985 H   0  0  0  0  0  0  0  0  0  0  0  0
  138.7452   73.8907  222.5667 H   0  0  0  0  0  0  0  0  0  0  0  0
  1  2  2  0
  2  3  1  0
  3  4  2  0
  4  5  1  0
  5  6  2  0
  6  7  1  0
  7  8  2  0
  8  9  1  0
  9 10  2  0
 10 11  1  0
 11 12  2  0
 12 13  1  0
 13 14  2  0
 14 15  1  0
 15 16  2  0
 16 17  1  0
 17 18  2  0
 10 19  1  0
 19 20  1  0
 20 21  1  0
 21 22  2  0
 22 23  1  0
 23 24  2  0
 24 25  1  0
 24 26  1  0
 26 27  2  0
 19  2  1  0
 27 21  1  0
  8  3  1  0
 18 13  1  0
  4 28  1  0
  5 29  1  0
  6 30  1  0
  7 31  1  0
 11 32  1  0
 12 33  1  0
 14 34  1  0
 15 35  1  0
 16 36  1  0
 18 37  1  0
 20 38  1  0
 20 39  1  0
 22 40  1  0
 23 41  1  0
 26 42  1  0
 27 43  1  0
M  END
>  <smiles>  (21) 
O=c1c2ccccc2nc(/C=C/c2cccnc2)n1Cc1ccc(Cl)cc1

>  <score_type>  (21) 
oracle

>  <origin>  (21) 
autodockgpu

>  <m_score__min__energy>  (21) 
-7.75

>  <m_primary>  (21) 
energy

>  <rmsd>  (21) 
10.078500856184627

>  <m_score__min__rmsd>  (21) 
10.078500856184627

>  <meeko>  (21) 
{"free_energy": -7.47, "intermolecular_energy": -8.96, "internal_energy": -1.46, "cluster_size": 30, "cluster_id": 3, "rank_in_cluster": 20}

>  <energy>  (21) 
-7.54

>  <cluster_rmsd>  (21) 
0.09

>  <cluster>  (21) 
3

$$$$

     RDKit          3D

 43 46  0  0  0  0  0  0  0  0999 V2000
  140.2470   71.9050  225.0940 O   0  0  0  0  0  0  0  0  0  0  0  0
  139.6340   70.8120  225.0810 C   0  0  0  0  0  0  0  0  0  0  0  0
  139.9460   69.9410  226.1310 C   0  0  0  0  0  0  0  0  0  0  0  0
  140.8750   70.2990  227.1010 C   0  0  0  0  0  0  0  0  0  0  0  0
  141.1370   69.3910  228.1110 C   0  0  0  0  0  0  0  0  0  0  0  0
  140.5190   68.1580  228.1930 C   0  0  0  0  0  0  0  0  0  0  0  0
  139.5990   67.8100  227.2300 C   0  0  0  0  0  0  0  0  0  0  0  0
  139.3330   68.7090  226.2200 C   0  0  0  0  0  0  0  0  0  0  0  0
  138.4420   68.4100  225.2570 N   0  0  0  0  0  0  0  0  0  0  0  0
  138.1610   69.2660  224.2580 C   0  0  0  0  0  0  0  0  0  0  0  0
  137.1850   68.7930  223.2630 C   0  0  0  0  0  0  0  0  0  0  0  0
  135.9480   69.2210  223.2860 C   0  0  0  0  0  0  0  0  0  0  0  0
  135.2220   69.6180  224.4800 C   0  0  0  0  0  0  0  0  0  0  0  0
  135.0450   70.9610  224.8120 C   0  0  0  0  0  0  0  0  0  0  0  0
  134.3550   71.3460  225.9460 C   0  0  0  0  0  0  0  0  0  0  0  0
  133.8160   70.3990  226.7900 C   0  0  0  0  0  0  0  0  0  0  0  0
  133.9870   69.1020  226.4700 N   0  0  0  0  0  0  0  0  0  0  0  0
  134.6590   68.7140  225.3650 C   0  0  0  0  0  0  0  0  0  0  0  0
  138.7300   70.4770  224.1300 N   0  0  0  0  0  0  0  0  0  0  0  0
  138.4120   71.4140  223.0800 C   0  0  0  0  0  0  0  0  0  0  0  0
  139.5960   71.9890  222.4000 C   0  0  0  0  0  0  0  0  0  0  0  0
  140.6630   71.2690  221.9330 C   0  0  0  0  0  0  0  0  0  0  0  0
  141.7550   71.8660  221.3060 C   0  0  0  0  0  0  0  0  0  0  0  0
  141.8090   73.2200  221.1260 C   0  0  0  0  0  0  0  0  0  0  0  0
  143.1740   73.9680  220.3400 Cl  0  0  0  0  0  0  0  0  0  0  0  0
  140.7480   73.9680  221.5850 C   0  0  0  0  0  0  0  0  0  0  0  0
  139.6550   73.3700  222.2140 C   0  0  0  0  0  0  0  0  0  0  0  0
  141.3853   71.2729  227.0665 H   0  0  0  0  0  0  0  0  0  0  0  0
  141.8707   69.6629  228.8841 H   0  0  0  0  0  0  0  0  0  0  0  0
  140.7581   67.4661  229.0140 H   0  0  0  0  0  0  0  0  0  0  0  0
  139.0879   66.8366  227.2658 H   0  0  0  0  0  0  0  0  0  0  0  0
  137.4980   68.0729  222.4926 H   0  0  0  0  0  0  0  0  0  0  0  0
  135.4163   69.2851  222.3252 H   0  0  0  0  0  0  0  0  0  0  0  0
  135.4660   71.7349  224.1534 H   0  0  0  0  0  0  0  0  0  0  0  0
  134.2353   72.4149  226.1764 H   0  0  0  0  0  0  0  0  0  0  0  0
  133.2643   70.6929  227.6951 H   0  0  0  0  0  0  0  0  0  0  0  0
  134.7632   67.6383  225.1599 H   0  0  0  0  0  0  0  0  0  0  0  0
  137.8005   70.8945  222.3276 H   0  0  0  0  0  0  0  0  0  0  0  0
  137.8819   72.2528  223.5548 H   0  0  0  0  0  0  0  0  0  0  0  0
  140.6580   70.1761  222.0577 H   0  0  0  0  0  0  0  0  0  0  0  0
  142.5857   71.2385  220.9507 H   0  0  0  0  0  0  0  0  0  0  0  0
  140.7621   75.0600  221.4532 H   0  0  0  0  0  0  0  0  0  0  0  0
  138.8255   73.9990  222.5693 H   0  0  0  0  0  0  0  0  0  0  0  0
  1  2  2  0
  2  3  1  0
  3  4  2  0
  4  5  1  0
  5  6  2  0
  6  7  1  0
  7  8  2  0
  8  9  1  0
  9 10  2  0
 10 11  1  0
 11 12  2  0
 12 13  1  0
 13 14  2  0
 14 15  1  0
 15 16  2  0
 16 17  1  0
 17 18  2  0
 10 19  1  0
 19 20  1  0
 20 21  1  0
 21 22  2  0
 22 23  1  0
 23 24  2  0
 24 25  1  0
 24 26  1  0
 26 27  2  0
 19  2  1  0
 27 21  1  0
  8  3  1  0
 18 13  1  0
  4 28  1  0
  5 29  1  0
  6 30  1  0
  7 31  1  0
 11 32  1  0
 12 33  1  0
 14 34  1  0
 15 35  1  0
 16 36  1  0
 18 37  1  0
 20 38  1  0
 20 39  1  0
 22 40  1  0
 23 41  1  0
 26 42  1  0
 27 43  1  0
M  END
>  <smiles>  (22) 
O=c1c2ccccc2nc(/C=C/c2cccnc2)n1Cc1ccc(Cl)cc1

>  <score_type>  (22) 
oracle

>  <origin>  (22) 
autodockgpu

>  <m_score__min__energy>  (22) 
-7.75

>  <m_primary>  (22) 
energy

>  <rmsd>  (22) 
10.059837054365337

>  <m_score__min__rmsd>  (22) 
10.059837054365337

>  <meeko>  (22) 
{"free_energy": -7.57, "intermolecular_energy": -9.06, "internal_energy": -1.38, "cluster_size": 30, "cluster_id": 3, "rank_in_cluster": 6}

>  <energy>  (22) 
-7.53

>  <cluster_rmsd>  (22) 
0.15

>  <cluster>  (22) 
3

$$$$

     RDKit          3D

 43 46  0  0  0  0  0  0  0  0999 V2000
  140.2520   71.8890  225.0520 O   0  0  0  0  0  0  0  0  0  0  0  0
  139.6290   70.8010  225.0430 C   0  0  0  0  0  0  0  0  0  0  0  0
  139.9400   69.9270  226.0910 C   0  0  0  0  0  0  0  0  0  0  0  0
  140.8780   70.2770  227.0570 C   0  0  0  0  0  0  0  0  0  0  0  0
  141.1370   69.3670  228.0650 C   0  0  0  0  0  0  0  0  0  0  0  0
  140.5090   68.1400  228.1510 C   0  0  0  0  0  0  0  0  0  0  0  0
  139.5810   67.8000  227.1930 C   0  0  0  0  0  0  0  0  0  0  0  0
  139.3170   68.7010  226.1840 C   0  0  0  0  0  0  0  0  0  0  0  0
  138.4180   68.4100  225.2260 N   0  0  0  0  0  0  0  0  0  0  0  0
  138.1380   69.2680  224.2290 C   0  0  0  0  0  0  0  0  0  0  0  0
  137.1530   68.8030  223.2390 C   0  0  0  0  0  0  0  0  0  0  0  0
  135.9230   69.2540  223.2600 C   0  0  0  0  0  0  0  0  0  0  0  0
  135.1930   69.6390  224.4550 C   0  0  0  0  0  0  0  0  0  0  0  0
  135.0170   70.9790  224.7990 C   0  0  0  0  0  0  0  0  0  0  0  0
  134.3230   71.3540  225.9350 C   0  0  0  0  0  0  0  0  0  0  0  0
  133.7800   70.3990  226.7670 C   0  0  0  0  0  0  0  0  0  0  0  0
  133.9500   69.1050  226.4340 N   0  0  0  0  0  0  0  0  0  0  0  0
  134.6250   68.7270  225.3280 C   0  0  0  0  0  0  0  0  0  0  0  0
  138.7170   70.4740  224.0980 N   0  0  0  0  0  0  0  0  0  0  0  0
  138.4010   71.4130  223.0490 C   0  0  0  0  0  0  0  0  0  0  0  0
  139.5870   71.9950  222.3780 C   0  0  0  0  0  0  0  0  0  0  0  0
  139.8240   73.3350  222.2220 C   0  0  0  0  0  0  0  0  0  0  0  0
  140.9580   73.8260  221.5750 C   0  0  0  0  0  0  0  0  0  0  0  0
  141.8980   72.9770  221.0600 C   0  0  0  0  0  0  0  0  0  0  0  0
  143.3150   73.5900  220.2530 Cl  0  0  0  0  0  0  0  0  0  0  0  0
  141.6830   71.6240  221.2050 C   0  0  0  0  0  0  0  0  0  0  0  0
  140.5480   71.1330  221.8510 C   0  0  0  0  0  0  0  0  0  0  0  0
  141.3967   71.2463  227.0200 H   0  0  0  0  0  0  0  0  0  0  0  0
  141.8774   69.6325  228.8340 H   0  0  0  0  0  0  0  0  0  0  0  0
  140.7464   67.4463  228.9710 H   0  0  0  0  0  0  0  0  0  0  0  0
  139.0618   66.8310  227.2318 H   0  0  0  0  0  0  0  0  0  0  0  0
  137.4521   68.0705  222.4748 H   0  0  0  0  0  0  0  0  0  0  0  0
  135.4019   69.3485  222.2959 H   0  0  0  0  0  0  0  0  0  0  0  0
  135.4415   71.7586  224.1494 H   0  0  0  0  0  0  0  0  0  0  0  0
  134.2038   72.4207  226.1758 H   0  0  0  0  0  0  0  0  0  0  0  0
  133.2259   70.6842  227.6734 H   0  0  0  0  0  0  0  0  0  0  0  0
  134.7277   67.6533  225.1121 H   0  0  0  0  0  0  0  0  0  0  0  0
  137.7962   70.8933  222.2913 H   0  0  0  0  0  0  0  0  0  0  0  0
  137.8642   72.2480  223.5230 H   0  0  0  0  0  0  0  0  0  0  0  0
  139.0918   74.0516  222.6224 H   0  0  0  0  0  0  0  0  0  0  0  0
  141.0982   74.9127  221.4776 H   0  0  0  0  0  0  0  0  0  0  0  0
  142.4221   70.9155  220.8028 H   0  0  0  0  0  0  0  0  0  0  0  0
  140.4087   70.0460  221.9463 H   0  0  0  0  0  0  0  0  0  0  0  0
  1  2  2  0
  2  3  1  0
  3  4  2  0
  4  5  1  0
  5  6  2  0
  6  7  1  0
  7  8  2  0
  8  9  1  0
  9 10  2  0
 10 11  1  0
 11 12  2  0
 12 13  1  0
 13 14  2  0
 14 15  1  0
 15 16  2  0
 16 17  1  0
 17 18  2  0
 10 19  1  0
 19 20  1  0
 20 21  1  0
 21 22  2  0
 22 23  1  0
 23 24  2  0
 24 25  1  0
 24 26  1  0
 26 27  2  0
 19  2  1  0
 27 21  1  0
  8  3  1  0
 18 13  1  0
  4 28  1  0
  5 29  1  0
  6 30  1  0
  7 31  1  0
 11 32  1  0
 12 33  1  0
 14 34  1  0
 15 35  1  0
 16 36  1  0
 18 37  1  0
 20 38  1  0
 20 39  1  0
 22 40  1  0
 23 41  1  0
 26 42  1  0
 27 43  1  0
M  END
>  <smiles>  (23) 
O=c1c2ccccc2nc(/C=C/c2cccnc2)n1Cc1ccc(Cl)cc1

>  <score_type>  (23) 
oracle

>  <origin>  (23) 
autodockgpu

>  <m_score__min__energy>  (23) 
-7.75

>  <m_primary>  (23) 
energy

>  <rmsd>  (23) 
10.20670277985676

>  <m_score__min__rmsd>  (23) 
10.20670277985676

>  <meeko>  (23) 
{"free_energy": -7.53, "intermolecular_energy": -9.02, "internal_energy": -1.38, "cluster_size": 30, "cluster_id": 3, "rank_in_cluster": 13}

>  <energy>  (23) 
-7.53

>  <cluster_rmsd>  (23) 
0.14

>  <cluster>  (23) 
3

$$$$

     RDKit          3D

 43 46  0  0  0  0  0  0  0  0999 V2000
  140.2850   71.9040  225.1100 O   0  0  0  0  0  0  0  0  0  0  0  0
  139.6600   70.8180  225.0970 C   0  0  0  0  0  0  0  0  0  0  0  0
  139.9740   69.9370  226.1390 C   0  0  0  0  0  0  0  0  0  0  0  0
  140.9170   70.2800  227.1020 C   0  0  0  0  0  0  0  0  0  0  0  0
  141.1790   69.3640  228.1040 C   0  0  0  0  0  0  0  0  0  0  0  0
  140.5490   68.1370  228.1860 C   0  0  0  0  0  0  0  0  0  0  0  0
  139.6160   67.8040  227.2310 C   0  0  0  0  0  0  0  0  0  0  0  0
  139.3490   68.7110  226.2280 C   0  0  0  0  0  0  0  0  0  0  0  0
  138.4450   68.4270  225.2730 N   0  0  0  0  0  0  0  0  0  0  0  0
  138.1620   69.2910  224.2820 C   0  0  0  0  0  0  0  0  0  0  0  0
  137.1720   68.8340  223.2940 C   0  0  0  0  0  0  0  0  0  0  0  0
  135.9520   69.3110  223.3030 C   0  0  0  0  0  0  0  0  0  0  0  0
  135.2030   69.6730  224.4940 C   0  0  0  0  0  0  0  0  0  0  0  0
  134.9940   71.0070  224.8450 C   0  0  0  0  0  0  0  0  0  0  0  0
  134.2820   71.3590  225.9760 C   0  0  0  0  0  0  0  0  0  0  0  0
  133.7530   70.3860  226.7980 C   0  0  0  0  0  0  0  0  0  0  0  0
  133.9550   69.0990  226.4590 N   0  0  0  0  0  0  0  0  0  0  0  0
  134.6480   68.7430  225.3570 C   0  0  0  0  0  0  0  0  0  0  0  0
  138.7430   70.4970  224.1540 N   0  0  0  0  0  0  0  0  0  0  0  0
  138.4240   71.4420  223.1120 C   0  0  0  0  0  0  0  0  0  0  0  0
  139.6070   72.0100  222.4240 C   0  0  0  0  0  0  0  0  0  0  0  0
  139.8800   73.3460  222.3000 C   0  0  0  0  0  0  0  0  0  0  0  0
  141.0090   73.8220  221.6350 C   0  0  0  0  0  0  0  0  0  0  0  0
  141.9070   72.9620  221.0680 C   0  0  0  0  0  0  0  0  0  0  0  0
  143.3190   73.5580  220.2370 Cl  0  0  0  0  0  0  0  0  0  0  0  0
  141.6560   71.6130  221.1790 C   0  0  0  0  0  0  0  0  0  0  0  0
  140.5260   71.1360  221.8440 C   0  0  0  0  0  0  0  0  0  0  0  0
  141.4375   71.2485  227.0676 H   0  0  0  0  0  0  0  0  0  0  0  0
  141.9232   69.6240  228.8712 H   0  0  0  0  0  0  0  0  0  0  0  0
  140.7892   67.4382  229.0009 H   0  0  0  0  0  0  0  0  0  0  0  0
  139.0950   66.8359  227.2672 H   0  0  0  0  0  0  0  0  0  0  0  0
  137.4589   68.0851  222.5411 H   0  0  0  0  0  0  0  0  0  0  0  0
  135.4551   69.4484  222.3313 H   0  0  0  0  0  0  0  0  0  0  0  0
  135.4071   71.8000  224.2043 H   0  0  0  0  0  0  0  0  0  0  0  0
  134.1364   72.4212  226.2220 H   0  0  0  0  0  0  0  0  0  0  0  0
  133.1846   70.6529  227.7011 H   0  0  0  0  0  0  0  0  0  0  0  0
  134.7769   67.6732  225.1358 H   0  0  0  0  0  0  0  0  0  0  0  0
  137.8010   70.9318  222.3626 H   0  0  0  0  0  0  0  0  0  0  0  0
  137.9058   72.2830  223.5959 H   0  0  0  0  0  0  0  0  0  0  0  0
  139.1816   74.0717  222.7422 H   0  0  0  0  0  0  0  0  0  0  0  0
  141.1796   74.9065  221.5656 H   0  0  0  0  0  0  0  0  0  0  0  0
  142.3614   70.8958  220.7339 H   0  0  0  0  0  0  0  0  0  0  0  0
  140.3570   70.0512  221.9120 H   0  0  0  0  0  0  0  0  0  0  0  0
  1  2  2  0
  2  3  1  0
  3  4  2  0
  4  5  1  0
  5  6  2  0
  6  7  1  0
  7  8  2  0
  8  9  1  0
  9 10  2  0
 10 11  1  0
 11 12  2  0
 12 13  1  0
 13 14  2  0
 14 15  1  0
 15 16  2  0
 16 17  1  0
 17 18  2  0
 10 19  1  0
 19 20  1  0
 20 21  1  0
 21 22  2  0
 22 23  1  0
 23 24  2  0
 24 25  1  0
 24 26  1  0
 26 27  2  0
 19  2  1  0
 27 21  1  0
  8  3  1  0
 18 13  1  0
  4 28  1  0
  5 29  1  0
  6 30  1  0
  7 31  1  0
 11 32  1  0
 12 33  1  0
 14 34  1  0
 15 35  1  0
 16 36  1  0
 18 37  1  0
 20 38  1  0
 20 39  1  0
 22 40  1  0
 23 41  1  0
 26 42  1  0
 27 43  1  0
M  END
>  <smiles>  (24) 
O=c1c2ccccc2nc(/C=C/c2cccnc2)n1Cc1ccc(Cl)cc1

>  <score_type>  (24) 
oracle

>  <origin>  (24) 
autodockgpu

>  <m_score__min__energy>  (24) 
-7.75

>  <m_primary>  (24) 
energy

>  <rmsd>  (24) 
10.220171948128902

>  <m_score__min__rmsd>  (24) 
10.220171948128902

>  <meeko>  (24) 
{"free_energy": -7.52, "intermolecular_energy": -9.01, "internal_energy": -1.37, "cluster_size": 30, "cluster_id": 3, "rank_in_cluster": 16}

>  <energy>  (24) 
-7.53

>  <cluster_rmsd>  (24) 
0.14

>  <cluster>  (24) 
3

$$$$

     RDKit          3D

 43 46  0  0  0  0  0  0  0  0999 V2000
  140.1460   71.8840  225.0500 O   0  0  0  0  0  0  0  0  0  0  0  0
  139.5780   70.7670  225.0350 C   0  0  0  0  0  0  0  0  0  0  0  0
  139.8970   69.9210  226.1040 C   0  0  0  0  0  0  0  0  0  0  0  0
  140.7850   70.3280  227.0930 C   0  0  0  0  0  0  0  0  0  0  0  0
  141.0560   69.4430  228.1210 C   0  0  0  0  0  0  0  0  0  0  0  0
  140.4870   68.1870  228.2020 C   0  0  0  0  0  0  0  0  0  0  0  0
  139.6080   67.7910  227.2200 C   0  0  0  0  0  0  0  0  0  0  0  0
  139.3330   68.6660  226.1930 C   0  0  0  0  0  0  0  0  0  0  0  0
  138.4810   68.3200  225.2100 N   0  0  0  0  0  0  0  0  0  0  0  0
  138.1910   69.1520  224.1930 C   0  0  0  0  0  0  0  0  0  0  0  0
  137.2630   68.6280  223.1790 C   0  0  0  0  0  0  0  0  0  0  0  0
  135.9840   68.9030  223.2400 C   0  0  0  0  0  0  0  0  0  0  0  0
  135.2950   69.4260  224.4070 C   0  0  0  0  0  0  0  0  0  0  0  0
  135.2120   70.7970  224.6490 C   0  0  0  0  0  0  0  0  0  0  0  0
  134.5580   71.3030  225.7570 C   0  0  0  0  0  0  0  0  0  0  0  0
  133.9630   70.4530  226.6640 C   0  0  0  0  0  0  0  0  0  0  0  0
  134.0430   69.1290  226.4310 N   0  0  0  0  0  0  0  0  0  0  0  0
  134.6790   68.6230  225.3530 C   0  0  0  0  0  0  0  0  0  0  0  0
  138.7140   70.3830  224.0650 N   0  0  0  0  0  0  0  0  0  0  0  0
  138.3860   71.2940  222.9950 C   0  0  0  0  0  0  0  0  0  0  0  0
  139.5630   71.9250  222.3540 C   0  0  0  0  0  0  0  0  0  0  0  0
  140.6530   71.2520  221.8720 C   0  0  0  0  0  0  0  0  0  0  0  0
  141.7370   71.9020  221.2820 C   0  0  0  0  0  0  0  0  0  0  0  0
  141.7580   73.2630  221.1570 C   0  0  0  0  0  0  0  0  0  0  0  0
  143.1120   74.0750  220.4190 Cl  0  0  0  0  0  0  0  0  0  0  0  0
  140.6730   73.9640  221.6330 C   0  0  0  0  0  0  0  0  0  0  0  0
  139.5890   73.3140  222.2240 C   0  0  0  0  0  0  0  0  0  0  0  0
  141.2567   71.3212  227.0592 H   0  0  0  0  0  0  0  0  0  0  0  0
  141.7567   69.7537  228.9100 H   0  0  0  0  0  0  0  0  0  0  0  0
  140.7323   67.5146  229.0373 H   0  0  0  0  0  0  0  0  0  0  0  0
  139.1358   66.7981  227.2547 H   0  0  0  0  0  0  0  0  0  0  0  0
  137.6469   67.9994  222.3620 H   0  0  0  0  0  0  0  0  0  0  0  0
  135.3838   68.7237  222.3358 H   0  0  0  0  0  0  0  0  0  0  0  0
  135.6797   71.4948  223.9389 H   0  0  0  0  0  0  0  0  0  0  0  0
  134.5123   72.3906  225.9155 H   0  0  0  0  0  0  0  0  0  0  0  0
  133.4398   70.8433  227.5494 H   0  0  0  0  0  0  0  0  0  0  0  0
  134.7092   67.5314  225.2207 H   0  0  0  0  0  0  0  0  0  0  0  0
  137.8310   70.7372  222.2256 H   0  0  0  0  0  0  0  0  0  0  0  0
  137.7948   72.1071  223.4415 H   0  0  0  0  0  0  0  0  0  0  0  0
  140.6750   70.1552  221.9531 H   0  0  0  0  0  0  0  0  0  0  0  0
  142.5875   71.3106  220.9119 H   0  0  0  0  0  0  0  0  0  0  0  0
  140.6604   75.0604  221.5455 H   0  0  0  0  0  0  0  0  0  0  0  0
  138.7398   73.9072  222.5940 H   0  0  0  0  0  0  0  0  0  0  0  0
  1  2  2  0
  2  3  1  0
  3  4  2  0
  4  5  1  0
  5  6  2  0
  6  7  1  0
  7  8  2  0
  8  9  1  0
  9 10  2  0
 10 11  1  0
 11 12  2  0
 12 13  1  0
 13 14  2  0
 14 15  1  0
 15 16  2  0
 16 17  1  0
 17 18  2  0
 10 19  1  0
 19 20  1  0
 20 21  1  0
 21 22  2  0
 22 23  1  0
 23 24  2  0
 24 25  1  0
 24 26  1  0
 26 27  2  0
 19  2  1  0
 27 21  1  0
  8  3  1  0
 18 13  1  0
  4 28  1  0
  5 29  1  0
  6 30  1  0
  7 31  1  0
 11 32  1  0
 12 33  1  0
 14 34  1  0
 15 35  1  0
 16 36  1  0
 18 37  1  0
 20 38  1  0
 20 39  1  0
 22 40  1  0
 23 41  1  0
 26 42  1  0
 27 43  1  0
M  END
>  <smiles>  (25) 
O=c1c2ccccc2nc(/C=C/c2cccnc2)n1Cc1ccc(Cl)cc1

>  <score_type>  (25) 
oracle

>  <origin>  (25) 
autodockgpu

>  <m_score__min__energy>  (25) 
-7.75

>  <m_primary>  (25) 
energy

>  <rmsd>  (25) 
10.06848086857881

>  <m_score__min__rmsd>  (25) 
10.06848086857881

>  <meeko>  (25) 
{"free_energy": -7.48, "intermolecular_energy": -8.97, "internal_energy": -1.44, "cluster_size": 30, "cluster_id": 3, "rank_in_cluster": 19}

>  <energy>  (25) 
-7.52

>  <cluster_rmsd>  (25) 
0.15

>  <cluster>  (25) 
3

$$$$

     RDKit          3D

 43 46  0  0  0  0  0  0  0  0999 V2000
  140.1460   71.8920  225.0210 O   0  0  0  0  0  0  0  0  0  0  0  0
  139.5790   70.7740  225.0060 C   0  0  0  0  0  0  0  0  0  0  0  0
  139.8950   69.9320  226.0780 C   0  0  0  0  0  0  0  0  0  0  0  0
  140.7770   70.3420  227.0710 C   0  0  0  0  0  0  0  0  0  0  0  0
  141.0440   69.4600  228.1020 C   0  0  0  0  0  0  0  0  0  0  0  0
  140.4770   68.2030  228.1830 C   0  0  0  0  0  0  0  0  0  0  0  0
  139.6030   67.8030  227.1980 C   0  0  0  0  0  0  0  0  0  0  0  0
  139.3320   68.6760  226.1670 C   0  0  0  0  0  0  0  0  0  0  0  0
  138.4850   68.3260  225.1810 N   0  0  0  0  0  0  0  0  0  0  0  0
  138.1990   69.1550  224.1610 C   0  0  0  0  0  0  0  0  0  0  0  0
  137.2770   68.6280  223.1430 C   0  0  0  0  0  0  0  0  0  0  0  0
  135.9880   68.8420  223.2360 C   0  0  0  0  0  0  0  0  0  0  0  0
  135.3110   69.3800  224.4030 C   0  0  0  0  0  0  0  0  0  0  0  0
  135.2660   70.7520  224.6510 C   0  0  0  0  0  0  0  0  0  0  0  0
  134.6230   71.2710  225.7590 C   0  0  0  0  0  0  0  0  0  0  0  0
  134.0020   70.4340  226.6610 C   0  0  0  0  0  0  0  0  0  0  0  0
  134.0460   69.1090  226.4220 N   0  0  0  0  0  0  0  0  0  0  0  0
  134.6700   68.5910  225.3430 C   0  0  0  0  0  0  0  0  0  0  0  0
  138.7210   70.3880  224.0330 N   0  0  0  0  0  0  0  0  0  0  0  0
  138.3970   71.2950  222.9590 C   0  0  0  0  0  0  0  0  0  0  0  0
  139.5760   71.9230  222.3180 C   0  0  0  0  0  0  0  0  0  0  0  0
  140.6670   71.2460  221.8410 C   0  0  0  0  0  0  0  0  0  0  0  0
  141.7520   71.8930  221.2510 C   0  0  0  0  0  0  0  0  0  0  0  0
  141.7760   73.2530  221.1220 C   0  0  0  0  0  0  0  0  0  0  0  0
  143.1330   74.0610  220.3850 Cl  0  0  0  0  0  0  0  0  0  0  0  0
  140.6910   73.9580  221.5940 C   0  0  0  0  0  0  0  0  0  0  0  0
  139.6050   73.3110  222.1840 C   0  0  0  0  0  0  0  0  0  0  0  0
  141.2473   71.3358  227.0378 H   0  0  0  0  0  0  0  0  0  0  0  0
  141.7399   69.7738  228.8940 H   0  0  0  0  0  0  0  0  0  0  0  0
  140.7200   67.5329  229.0208 H   0  0  0  0  0  0  0  0  0  0  0  0
  139.1318   66.8096  227.2330 H   0  0  0  0  0  0  0  0  0  0  0  0
  137.6736   68.0490  222.2960 H   0  0  0  0  0  0  0  0  0  0  0  0
  135.3692   68.5946  222.3608 H   0  0  0  0  0  0  0  0  0  0  0  0
  135.7556   71.4396  223.9456 H   0  0  0  0  0  0  0  0  0  0  0  0
  134.6068   72.3587  225.9219 H   0  0  0  0  0  0  0  0  0  0  0  0
  133.4874   70.8347  227.5468 H   0  0  0  0  0  0  0  0  0  0  0  0
  134.6692   67.4997  225.2051 H   0  0  0  0  0  0  0  0  0  0  0  0
  137.8434   70.7358  222.1903 H   0  0  0  0  0  0  0  0  0  0  0  0
  137.8059   72.1104  223.4013 H   0  0  0  0  0  0  0  0  0  0  0  0
  140.6880   70.1495  221.9267 H   0  0  0  0  0  0  0  0  0  0  0  0
  142.6020   71.2992  220.8836 H   0  0  0  0  0  0  0  0  0  0  0  0
  140.6806   75.0542  221.5038 H   0  0  0  0  0  0  0  0  0  0  0  0
  138.7558   73.9065  222.5504 H   0  0  0  0  0  0  0  0  0  0  0  0
  1  2  2  0
  2  3  1  0
  3  4  2  0
  4  5  1  0
  5  6  2  0
  6  7  1  0
  7  8  2  0
  8  9  1  0
  9 10  2  0
 10 11  1  0
 11 12  2  0
 12 13  1  0
 13 14  2  0
 14 15  1  0
 15 16  2  0
 16 17  1  0
 17 18  2  0
 10 19  1  0
 19 20  1  0
 20 21  1  0
 21 22  2  0
 22 23  1  0
 23 24  2  0
 24 25  1  0
 24 26  1  0
 26 27  2  0
 19  2  1  0
 27 21  1  0
  8  3  1  0
 18 13  1  0
  4 28  1  0
  5 29  1  0
  6 30  1  0
  7 31  1  0
 11 32  1  0
 12 33  1  0
 14 34  1  0
 15 35  1  0
 16 36  1  0
 18 37  1  0
 20 38  1  0
 20 39  1  0
 22 40  1  0
 23 41  1  0
 26 42  1  0
 27 43  1  0
M  END
>  <smiles>  (26) 
O=c1c2ccccc2nc(/C=C/c2cccnc2)n1Cc1ccc(Cl)cc1

>  <score_type>  (26) 
oracle

>  <origin>  (26) 
autodockgpu

>  <m_score__min__energy>  (26) 
-7.75

>  <m_primary>  (26) 
energy

>  <rmsd>  (26) 
10.057618756076058

>  <m_score__min__rmsd>  (26) 
10.057618756076058

>  <meeko>  (26) 
{"free_energy": -7.46, "intermolecular_energy": -8.95, "internal_energy": -1.45, "cluster_size": 30, "cluster_id": 3, "rank_in_cluster": 21}

>  <energy>  (26) 
-7.51

>  <cluster_rmsd>  (26) 
0.14

>  <cluster>  (26) 
3

$$$$

     RDKit          3D

 43 46  0  0  0  0  0  0  0  0999 V2000
  140.2350   71.8990  225.0800 O   0  0  0  0  0  0  0  0  0  0  0  0
  139.6190   70.8070  225.0640 C   0  0  0  0  0  0  0  0  0  0  0  0
  139.9280   69.9330  226.1130 C   0  0  0  0  0  0  0  0  0  0  0  0
  140.8580   70.2860  227.0850 C   0  0  0  0  0  0  0  0  0  0  0  0
  141.1160   69.3760  228.0930 C   0  0  0  0  0  0  0  0  0  0  0  0
  140.4950   68.1440  228.1710 C   0  0  0  0  0  0  0  0  0  0  0  0
  139.5750   67.8000  227.2070 C   0  0  0  0  0  0  0  0  0  0  0  0
  139.3120   68.7020  226.1990 C   0  0  0  0  0  0  0  0  0  0  0  0
  138.4220   68.4070  225.2340 N   0  0  0  0  0  0  0  0  0  0  0  0
  138.1430   69.2660  224.2370 C   0  0  0  0  0  0  0  0  0  0  0  0
  137.1670   68.7970  223.2400 C   0  0  0  0  0  0  0  0  0  0  0  0
  135.9320   69.2310  223.2600 C   0  0  0  0  0  0  0  0  0  0  0  0
  135.2020   69.6230  224.4540 C   0  0  0  0  0  0  0  0  0  0  0  0
  135.0200   70.9640  224.7880 C   0  0  0  0  0  0  0  0  0  0  0  0
  134.3260   71.3450  225.9220 C   0  0  0  0  0  0  0  0  0  0  0  0
  133.7900   70.3930  226.7630 C   0  0  0  0  0  0  0  0  0  0  0  0
  133.9660   69.0980  226.4410 N   0  0  0  0  0  0  0  0  0  0  0  0
  134.6410   68.7140  225.3370 C   0  0  0  0  0  0  0  0  0  0  0  0
  138.7150   70.4760  224.1120 N   0  0  0  0  0  0  0  0  0  0  0  0
  138.4000   71.4160  223.0640 C   0  0  0  0  0  0  0  0  0  0  0  0
  139.5860   71.9880  222.3850 C   0  0  0  0  0  0  0  0  0  0  0  0
  140.6510   71.2650  221.9180 C   0  0  0  0  0  0  0  0  0  0  0  0
  141.7450   71.8600  221.2910 C   0  0  0  0  0  0  0  0  0  0  0  0
  141.8030   73.2140  221.1120 C   0  0  0  0  0  0  0  0  0  0  0  0
  143.1700   73.9580  220.3280 Cl  0  0  0  0  0  0  0  0  0  0  0  0
  140.7440   73.9640  221.5720 C   0  0  0  0  0  0  0  0  0  0  0  0
  139.6500   73.3690  222.2010 C   0  0  0  0  0  0  0  0  0  0  0  0
  141.3717   71.2581  227.0527 H   0  0  0  0  0  0  0  0  0  0  0  0
  141.8488   69.6447  228.8681 H   0  0  0  0  0  0  0  0  0  0  0  0
  140.7322   67.4495  228.9904 H   0  0  0  0  0  0  0  0  0  0  0  0
  139.0616   66.8277  227.2404 H   0  0  0  0  0  0  0  0  0  0  0  0
  137.4783   68.0749  222.4708 H   0  0  0  0  0  0  0  0  0  0  0  0
  135.4053   69.3048  222.2971 H   0  0  0  0  0  0  0  0  0  0  0  0
  135.4399   71.7405  224.1317 H   0  0  0  0  0  0  0  0  0  0  0  0
  134.2010   72.4129  226.1541 H   0  0  0  0  0  0  0  0  0  0  0  0
  133.2362   70.6825  227.6682 H   0  0  0  0  0  0  0  0  0  0  0  0
  134.7499   67.6391  225.1304 H   0  0  0  0  0  0  0  0  0  0  0  0
  137.7866   70.9001  222.3107 H   0  0  0  0  0  0  0  0  0  0  0  0
  137.8727   72.2557  223.5403 H   0  0  0  0  0  0  0  0  0  0  0  0
  140.6431   70.1721  222.0424 H   0  0  0  0  0  0  0  0  0  0  0  0
  142.5738   71.2305  220.9350 H   0  0  0  0  0  0  0  0  0  0  0  0
  140.7608   75.0560  221.4408 H   0  0  0  0  0  0  0  0  0  0  0  0
  138.8231   74.0004  222.5582 H   0  0  0  0  0  0  0  0  0  0  0  0
  1  2  2  0
  2  3  1  0
  3  4  2  0
  4  5  1  0
  5  6  2  0
  6  7  1  0
  7  8  2  0
  8  9  1  0
  9 10  2  0
 10 11  1  0
 11 12  2  0
 12 13  1  0
 13 14  2  0
 14 15  1  0
 15 16  2  0
 16 17  1  0
 17 18  2  0
 10 19  1  0
 19 20  1  0
 20 21  1  0
 21 22  2  0
 22 23  1  0
 23 24  2  0
 24 25  1  0
 24 26  1  0
 26 27  2  0
 19  2  1  0
 27 21  1  0
  8  3  1  0
 18 13  1  0
  4 28  1  0
  5 29  1  0
  6 30  1  0
  7 31  1  0
 11 32  1  0
 12 33  1  0
 14 34  1  0
 15 35  1  0
 16 36  1  0
 18 37  1  0
 20 38  1  0
 20 39  1  0
 22 40  1  0
 23 41  1  0
 26 42  1  0
 27 43  1  0
M  END
>  <smiles>  (27) 
O=c1c2ccccc2nc(/C=C/c2cccnc2)n1Cc1ccc(Cl)cc1

>  <score_type>  (27) 
oracle

>  <origin>  (27) 
autodockgpu

>  <m_score__min__energy>  (27) 
-7.75

>  <m_primary>  (27) 
energy

>  <rmsd>  (27) 
10.056959113008745

>  <m_score__min__rmsd>  (27) 
10.056959113008745

>  <meeko>  (27) 
{"free_energy": -7.58, "intermolecular_energy": -9.07, "internal_energy": -1.38, "cluster_size": 30, "cluster_id": 3, "rank_in_cluster": 5}

>  <energy>  (27) 
-7.49

>  <cluster_rmsd>  (27) 
0.26

>  <cluster>  (27) 
3

$$$$

     RDKit          3D

 43 46  0  0  0  0  0  0  0  0999 V2000
  139.1110   74.0900  222.3680 O   0  0  0  0  0  0  0  0  0  0  0  0
  140.0870   73.9110  221.6030 C   0  0  0  0  0  0  0  0  0  0  0  0
  140.7720   75.0730  221.2300 C   0  0  0  0  0  0  0  0  0  0  0  0
  140.3700   76.3190  221.6970 C   0  0  0  0  0  0  0  0  0  0  0  0
  141.0920   77.4260  221.2900 C   0  0  0  0  0  0  0  0  0  0  0  0
  142.1840   77.3440  220.4470 C   0  0  0  0  0  0  0  0  0  0  0  0
  142.5780   76.1070  219.9890 C   0  0  0  0  0  0  0  0  0  0  0  0
  141.8640   74.9990  220.3900 C   0  0  0  0  0  0  0  0  0  0  0  0
  142.2130   73.7710  219.9650 N   0  0  0  0  0  0  0  0  0  0  0  0
  141.5360   72.6700  220.3390 C   0  0  0  0  0  0  0  0  0  0  0  0
  142.0170   71.3990  219.7750 C   0  0  0  0  0  0  0  0  0  0  0  0
  143.2710   71.0440  219.9040 C   0  0  0  0  0  0  0  0  0  0  0  0
  144.3970   71.9590  219.9710 C   0  0  0  0  0  0  0  0  0  0  0  0
  144.7140   72.6390  221.1470 C   0  0  0  0  0  0  0  0  0  0  0  0
  145.7840   73.5110  221.2180 C   0  0  0  0  0  0  0  0  0  0  0  0
  146.5770   73.7340  220.1130 C   0  0  0  0  0  0  0  0  0  0  0  0
  146.2700   73.0790  218.9780 N   0  0  0  0  0  0  0  0  0  0  0  0
  145.2290   72.2250  218.8950 C   0  0  0  0  0  0  0  0  0  0  0  0
  140.4690   72.6920  221.1560 N   0  0  0  0  0  0  0  0  0  0  0  0
  139.7560   71.5130  221.5860 C   0  0  0  0  0  0  0  0  0  0  0  0
  139.8820   71.2230  223.0340 C   0  0  0  0  0  0  0  0  0  0  0  0
  140.7060   71.8880  223.9020 C   0  0  0  0  0  0  0  0  0  0  0  0
  140.7860   71.5670  225.2560 C   0  0  0  0  0  0  0  0  0  0  0  0
  140.0330   70.5560  225.7860 C   0  0  0  0  0  0  0  0  0  0  0  0
  140.1330   70.1550  227.4790 Cl  0  0  0  0  0  0  0  0  0  0  0  0
  139.1950   69.8720  224.9340 C   0  0  0  0  0  0  0  0  0  0  0  0
  139.1150   70.1930  223.5790 C   0  0  0  0  0  0  0  0  0  0  0  0
  139.5051   76.4212  222.3689 H   0  0  0  0  0  0  0  0  0  0  0  0
  140.7830   78.4170  221.6538 H   0  0  0  0  0  0  0  0  0  0  0  0
  142.7289   78.2513  220.1472 H   0  0  0  0  0  0  0  0  0  0  0  0
  143.4436   76.0055  219.3178 H   0  0  0  0  0  0  0  0  0  0  0  0
  141.3167   70.7407  219.2399 H   0  0  0  0  0  0  0  0  0  0  0  0
  143.4887   69.9676  219.9666 H   0  0  0  0  0  0  0  0  0  0  0  0
  144.0956   72.4768  222.0422 H   0  0  0  0  0  0  0  0  0  0  0  0
  146.0041   74.0303  222.1624 H   0  0  0  0  0  0  0  0  0  0  0  0
  147.4323   74.4243  220.1572 H   0  0  0  0  0  0  0  0  0  0  0  0
  145.0332   71.7208  217.9372 H   0  0  0  0  0  0  0  0  0  0  0  0
  138.6898   71.6501  221.3528 H   0  0  0  0  0  0  0  0  0  0  0  0
  140.2020   70.6608  221.0523 H   0  0  0  0  0  0  0  0  0  0  0  0
  141.3294   72.7078  223.5156 H   0  0  0  0  0  0  0  0  0  0  0  0
  141.4652   72.1356  225.9082 H   0  0  0  0  0  0  0  0  0  0  0  0
  138.5751   69.0545  225.3307 H   0  0  0  0  0  0  0  0  0  0  0  0
  138.4349   69.6237  222.9284 H   0  0  0  0  0  0  0  0  0  0  0  0
  1  2  2  0
  2  3  1  0
  3  4  2  0
  4  5  1  0
  5  6  2  0
  6  7  1  0
  7  8  2  0
  8  9  1  0
  9 10  2  0
 10 11  1  0
 11 12  2  0
 12 13  1  0
 13 14  2  0
 14 15  1  0
 15 16  2  0
 16 17  1  0
 17 18  2  0
 10 19  1  0
 19 20  1  0
 20 21  1  0
 21 22  2  0
 22 23  1  0
 23 24  2  0
 24 25  1  0
 24 26  1  0
 26 27  2  0
 19  2  1  0
 27 21  1  0
  8  3  1  0
 18 13  1  0
  4 28  1  0
  5 29  1  0
  6 30  1  0
  7 31  1  0
 11 32  1  0
 12 33  1  0
 14 34  1  0
 15 35  1  0
 16 36  1  0
 18 37  1  0
 20 38  1  0
 20 39  1  0
 22 40  1  0
 23 41  1  0
 26 42  1  0
 27 43  1  0
M  END
>  <smiles>  (28) 
O=c1c2ccccc2nc(/C=C/c2cccnc2)n1Cc1ccc(Cl)cc1

>  <score_type>  (28) 
oracle

>  <origin>  (28) 
autodockgpu

>  <m_score__min__energy>  (28) 
-7.75

>  <m_primary>  (28) 
energy

>  <rmsd>  (28) 
8.841088012430053

>  <m_score__min__rmsd>  (28) 
8.841088012430053

>  <meeko>  (28) 
{"free_energy": -7.75, "intermolecular_energy": -9.24, "internal_energy": -1.4, "cluster_size": 4, "cluster_id": 1, "rank_in_cluster": 1}

>  <energy>  (28) 
-7.48

>  <cluster_rmsd>  (28) 
0.2

>  <cluster>  (28) 
3

$$$$

     RDKit          3D

 43 46  0  0  0  0  0  0  0  0999 V2000
  142.6100   76.3800  219.9830 O   0  0  0  0  0  0  0  0  0  0  0  0
  142.2680   75.2720  220.4590 C   0  0  0  0  0  0  0  0  0  0  0  0
  143.2320   74.2610  220.3680 C   0  0  0  0  0  0  0  0  0  0  0  0
  144.4700   74.5080  219.7850 C   0  0  0  0  0  0  0  0  0  0  0  0
  145.3760   73.4650  219.7280 C   0  0  0  0  0  0  0  0  0  0  0  0
  145.1030   72.2030  220.2210 C   0  0  0  0  0  0  0  0  0  0  0  0
  143.8770   71.9660  220.7980 C   0  0  0  0  0  0  0  0  0  0  0  0
  142.9680   73.0000  220.8580 C   0  0  0  0  0  0  0  0  0  0  0  0
  141.7560   72.8120  221.4130 N   0  0  0  0  0  0  0  0  0  0  0  0
  140.8470   73.8010  221.4870 C   0  0  0  0  0  0  0  0  0  0  0  0
  139.5560   73.4430  222.0960 C   0  0  0  0  0  0  0  0  0  0  0  0
  139.2630   72.1920  222.3490 C   0  0  0  0  0  0  0  0  0  0  0  0
  139.5340   71.5050  223.6010 C   0  0  0  0  0  0  0  0  0  0  0  0
  140.6390   71.8340  224.3860 C   0  0  0  0  0  0  0  0  0  0  0  0
  140.9040   71.1860  225.5780 C   0  0  0  0  0  0  0  0  0  0  0  0
  140.0700   70.1840  226.0270 C   0  0  0  0  0  0  0  0  0  0  0  0
  139.0040   69.8680  225.2690 N   0  0  0  0  0  0  0  0  0  0  0  0
  138.7350   70.4930  224.1040 C   0  0  0  0  0  0  0  0  0  0  0  0
  141.0590   75.0460  221.0250 N   0  0  0  0  0  0  0  0  0  0  0  0
  140.1020   76.1210  221.1280 C   0  0  0  0  0  0  0  0  0  0  0  0
  140.6270   77.3390  221.7870 C   0  0  0  0  0  0  0  0  0  0  0  0
  141.0790   77.4040  223.0780 C   0  0  0  0  0  0  0  0  0  0  0  0
  141.5580   78.5830  223.6480 C   0  0  0  0  0  0  0  0  0  0  0  0
  141.5960   79.7460  222.9310 C   0  0  0  0  0  0  0  0  0  0  0  0
  142.1950   81.2200  223.6420 Cl  0  0  0  0  0  0  0  0  0  0  0  0
  141.1480   79.7080  221.6290 C   0  0  0  0  0  0  0  0  0  0  0  0
  140.6680   78.5290  221.0590 C   0  0  0  0  0  0  0  0  0  0  0  0
  144.7204   75.5006  219.3824 H   0  0  0  0  0  0  0  0  0  0  0  0
  146.3589   73.6480  219.2693 H   0  0  0  0  0  0  0  0  0  0  0  0
  145.8535   71.4016  220.1531 H   0  0  0  0  0  0  0  0  0  0  0  0
  143.6279   70.9738  221.2023 H   0  0  0  0  0  0  0  0  0  0  0  0
  138.8309   74.2331  222.3408 H   0  0  0  0  0  0  0  0  0  0  0  0
  138.7729   71.6153  221.5507 H   0  0  0  0  0  0  0  0  0  0  0  0
  141.3179   72.6306  224.0475 H   0  0  0  0  0  0  0  0  0  0  0  0
  141.7851   71.4713  226.1716 H   0  0  0  0  0  0  0  0  0  0  0  0
  140.2695   69.6603  226.9735 H   0  0  0  0  0  0  0  0  0  0  0  0
  137.8467   70.1866  223.5321 H   0  0  0  0  0  0  0  0  0  0  0  0
  139.7759   76.3912  220.1128 H   0  0  0  0  0  0  0  0  0  0  0  0
  139.2777   75.7518  221.7559 H   0  0  0  0  0  0  0  0  0  0  0  0
  141.0636   76.4899  223.6897 H   0  0  0  0  0  0  0  0  0  0  0  0
  141.9105   78.5770  224.6900 H   0  0  0  0  0  0  0  0  0  0  0  0
  141.1693   80.6275  221.0256 H   0  0  0  0  0  0  0  0  0  0  0  0
  140.3155   78.5372  220.0171 H   0  0  0  0  0  0  0  0  0  0  0  0
  1  2  2  0
  2  3  1  0
  3  4  2  0
  4  5  1  0
  5  6  2  0
  6  7  1  0
  7  8  2  0
  8  9  1  0
  9 10  2  0
 10 11  1  0
 11 12  2  0
 12 13  1  0
 13 14  2  0
 14 15  1  0
 15 16  2  0
 16 17  1  0
 17 18  2  0
 10 19  1  0
 19 20  1  0
 20 21  1  0
 21 22  2  0
 22 23  1  0
 23 24  2  0
 24 25  1  0
 24 26  1  0
 26 27  2  0
 19  2  1  0
 27 21  1  0
  8  3  1  0
 18 13  1  0
  4 28  1  0
  5 29  1  0
  6 30  1  0
  7 31  1  0
 11 32  1  0
 12 33  1  0
 14 34  1  0
 15 35  1  0
 16 36  1  0
 18 37  1  0
 20 38  1  0
 20 39  1  0
 22 40  1  0
 23 41  1  0
 26 42  1  0
 27 43  1  0
M  END
>  <smiles>  (29) 
O=c1c2ccccc2nc(/C=C/c2cccnc2)n1Cc1ccc(Cl)cc1

>  <score_type>  (29) 
oracle

>  <origin>  (29) 
autodockgpu

>  <m_score__min__energy>  (29) 
-7.75

>  <m_primary>  (29) 
energy

>  <rmsd>  (29) 
4.7039550589641355

>  <m_score__min__rmsd>  (29) 
4.7039550589641355

>  <meeko>  (29) 
{"free_energy": -7.53, "intermolecular_energy": -9.02, "internal_energy": -1.19, "cluster_size": 5, "cluster_id": 4, "rank_in_cluster": 2}

>  <energy>  (29) 
-7.47

>  <cluster_rmsd>  (29) 
0.22

>  <cluster>  (29) 
3

$$$$

     RDKit          3D

 43 46  0  0  0  0  0  0  0  0999 V2000
  140.1450   71.8820  225.0850 O   0  0  0  0  0  0  0  0  0  0  0  0
  139.6180   70.7450  225.0530 C   0  0  0  0  0  0  0  0  0  0  0  0
  139.9580   69.9010  226.1160 C   0  0  0  0  0  0  0  0  0  0  0  0
  140.8210   70.3300  227.1190 C   0  0  0  0  0  0  0  0  0  0  0  0
  141.1140   69.4450  228.1410 C   0  0  0  0  0  0  0  0  0  0  0  0
  140.5900   68.1690  228.2040 C   0  0  0  0  0  0  0  0  0  0  0  0
  139.7360   67.7500  227.2090 C   0  0  0  0  0  0  0  0  0  0  0  0
  139.4390   68.6250  226.1870 C   0  0  0  0  0  0  0  0  0  0  0  0
  138.6100   68.2580  225.1930 N   0  0  0  0  0  0  0  0  0  0  0  0
  138.3000   69.0890  224.1810 C   0  0  0  0  0  0  0  0  0  0  0  0
  137.4010   68.5420  223.1530 C   0  0  0  0  0  0  0  0  0  0  0  0
  136.1290   68.8540  223.1440 C   0  0  0  0  0  0  0  0  0  0  0  0
  135.3760   69.3300  224.2910 C   0  0  0  0  0  0  0  0  0  0  0  0
  135.3520   70.6810  224.6360 C   0  0  0  0  0  0  0  0  0  0  0  0
  134.6370   71.1420  225.7260 C   0  0  0  0  0  0  0  0  0  0  0  0
  133.9200   70.2640  226.5110 C   0  0  0  0  0  0  0  0  0  0  0  0
  133.9440   68.9600  226.1780 N   0  0  0  0  0  0  0  0  0  0  0  0
  134.6380   68.4980  225.1170 C   0  0  0  0  0  0  0  0  0  0  0  0
  138.7790   70.3410  224.0710 N   0  0  0  0  0  0  0  0  0  0  0  0
  138.4280   71.2500  223.0060 C   0  0  0  0  0  0  0  0  0  0  0  0
  139.5900   71.8910  222.3490 C   0  0  0  0  0  0  0  0  0  0  0  0
  140.6830   71.2280  221.8580 C   0  0  0  0  0  0  0  0  0  0  0  0
  141.7520   71.8880  221.2530 C   0  0  0  0  0  0  0  0  0  0  0  0
  141.7560   73.2480  221.1210 C   0  0  0  0  0  0  0  0  0  0  0  0
  143.0930   74.0730  220.3640 Cl  0  0  0  0  0  0  0  0  0  0  0  0
  140.6680   73.9390  221.6060 C   0  0  0  0  0  0  0  0  0  0  0  0
  139.5980   73.2800  222.2120 C   0  0  0  0  0  0  0  0  0  0  0  0
  141.2563   71.3400  227.1001 H   0  0  0  0  0  0  0  0  0  0  0  0
  141.7955   69.7727  228.9399 H   0  0  0  0  0  0  0  0  0  0  0  0
  140.8508   67.4982  229.0358 H   0  0  0  0  0  0  0  0  0  0  0  0
  139.3007   66.7400  227.2294 H   0  0  0  0  0  0  0  0  0  0  0  0
  137.8010   67.8643  222.3844 H   0  0  0  0  0  0  0  0  0  0  0  0
  135.5881   68.7470  222.1922 H   0  0  0  0  0  0  0  0  0  0  0  0
  135.9173   71.3995  224.0243 H   0  0  0  0  0  0  0  0  0  0  0  0
  134.6402   72.2150  225.9682 H   0  0  0  0  0  0  0  0  0  0  0  0
  133.3471   70.6176  227.3809 H   0  0  0  0  0  0  0  0  0  0  0  0
  134.6170   67.4199  224.8997 H   0  0  0  0  0  0  0  0  0  0  0  0
  137.8669   70.6890  222.2442 H   0  0  0  0  0  0  0  0  0  0  0  0
  137.8363   72.0578  223.4613 H   0  0  0  0  0  0  0  0  0  0  0  0
  140.7191   70.1320  221.9442 H   0  0  0  0  0  0  0  0  0  0  0  0
  142.6052   71.3048  220.8762 H   0  0  0  0  0  0  0  0  0  0  0  0
  140.6420   75.0348  221.5136 H   0  0  0  0  0  0  0  0  0  0  0  0
  138.7460   73.8652  222.5883 H   0  0  0  0  0  0  0  0  0  0  0  0
  1  2  2  0
  2  3  1  0
  3  4  2  0
  4  5  1  0
  5  6  2  0
  6  7  1  0
  7  8  2  0
  8  9  1  0
  9 10  2  0
 10 11  1  0
 11 12  2  0
 12 13  1  0
 13 14  2  0
 14 15  1  0
 15 16  2  0
 16 17  1  0
 17 18  2  0
 10 19  1  0
 19 20  1  0
 20 21  1  0
 21 22  2  0
 22 23  1  0
 23 24  2  0
 24 25  1  0
 24 26  1  0
 26 27  2  0
 19  2  1  0
 27 21  1  0
  8  3  1  0
 18 13  1  0
  4 28  1  0
  5 29  1  0
  6 30  1  0
  7 31  1  0
 11 32  1  0
 12 33  1  0
 14 34  1  0
 15 35  1  0
 16 36  1  0
 18 37  1  0
 20 38  1  0
 20 39  1  0
 22 40  1  0
 23 41  1  0
 26 42  1  0
 27 43  1  0
M  END
>  <smiles>  (30) 
O=c1c2ccccc2nc(/C=C/c2cccnc2)n1Cc1ccc(Cl)cc1

>  <score_type>  (30) 
oracle

>  <origin>  (30) 
autodockgpu

>  <m_score__min__energy>  (30) 
-7.75

>  <m_primary>  (30) 
energy

>  <rmsd>  (30) 
10.090145977130248

>  <m_score__min__rmsd>  (30) 
10.090145977130248

>  <meeko>  (30) 
{"free_energy": -7.49, "intermolecular_energy": -8.99, "internal_energy": -1.44, "cluster_size": 30, "cluster_id": 3, "rank_in_cluster": 18}

>  <energy>  (30) 
-7.46

>  <cluster_rmsd>  (30) 
0.22

>  <cluster>  (30) 
3

$$$$

     RDKit          3D

 43 46  0  0  0  0  0  0  0  0999 V2000
  140.2490   71.9200  225.0450 O   0  0  0  0  0  0  0  0  0  0  0  0
  139.6350   70.8270  225.0450 C   0  0  0  0  0  0  0  0  0  0  0  0
  139.9590   69.9610  226.0960 C   0  0  0  0  0  0  0  0  0  0  0  0
  140.8990   70.3230  227.0540 C   0  0  0  0  0  0  0  0  0  0  0  0
  141.1710   69.4210  228.0660 C   0  0  0  0  0  0  0  0  0  0  0  0
  140.5530   68.1890  228.1610 C   0  0  0  0  0  0  0  0  0  0  0  0
  139.6220   67.8370  227.2110 C   0  0  0  0  0  0  0  0  0  0  0  0
  139.3450   68.7300  226.1990 C   0  0  0  0  0  0  0  0  0  0  0  0
  138.4430   68.4270  225.2480 N   0  0  0  0  0  0  0  0  0  0  0  0
  138.1510   69.2780  224.2480 C   0  0  0  0  0  0  0  0  0  0  0  0
  137.1640   68.8000  223.2660 C   0  0  0  0  0  0  0  0  0  0  0  0
  135.9360   69.2570  223.2790 C   0  0  0  0  0  0  0  0  0  0  0  0
  135.2010   69.6480  224.4700 C   0  0  0  0  0  0  0  0  0  0  0  0
  135.0170   70.9890  224.8040 C   0  0  0  0  0  0  0  0  0  0  0  0
  134.3180   71.3690  225.9340 C   0  0  0  0  0  0  0  0  0  0  0  0
  133.7780   70.4170  226.7730 C   0  0  0  0  0  0  0  0  0  0  0  0
  133.9560   69.1230  226.4500 N   0  0  0  0  0  0  0  0  0  0  0  0
  134.6360   68.7390  225.3490 C   0  0  0  0  0  0  0  0  0  0  0  0
  138.7200   70.4880  224.1070 N   0  0  0  0  0  0  0  0  0  0  0  0
  138.3900   71.4190  223.0550 C   0  0  0  0  0  0  0  0  0  0  0  0
  139.5670   72.0050  222.3730 C   0  0  0  0  0  0  0  0  0  0  0  0
  140.6220   71.2920  221.8690 C   0  0  0  0  0  0  0  0  0  0  0  0
  141.7080   71.9000  221.2410 C   0  0  0  0  0  0  0  0  0  0  0  0
  141.7690   73.2580  221.0980 C   0  0  0  0  0  0  0  0  0  0  0  0
  143.1260   74.0180  220.3120 Cl  0  0  0  0  0  0  0  0  0  0  0  0
  140.7200   73.9990  221.5950 C   0  0  0  0  0  0  0  0  0  0  0  0
  139.6340   73.3910  222.2250 C   0  0  0  0  0  0  0  0  0  0  0  0
  141.4101   71.2960  227.0084 H   0  0  0  0  0  0  0  0  0  0  0  0
  141.9129   69.6967  228.8299 H   0  0  0  0  0  0  0  0  0  0  0  0
  140.8011   67.5009  228.9825 H   0  0  0  0  0  0  0  0  0  0  0  0
  139.1103   66.8644  227.2584 H   0  0  0  0  0  0  0  0  0  0  0  0
  137.4599   68.0528  222.5149 H   0  0  0  0  0  0  0  0  0  0  0  0
  135.4207   69.3522  222.3118 H   0  0  0  0  0  0  0  0  0  0  0  0
  135.4398   71.7660  224.1501 H   0  0  0  0  0  0  0  0  0  0  0  0
  134.1916   72.4369  226.1655 H   0  0  0  0  0  0  0  0  0  0  0  0
  133.2204   70.7059  227.6761 H   0  0  0  0  0  0  0  0  0  0  0  0
  134.7455   67.6642  225.1422 H   0  0  0  0  0  0  0  0  0  0  0  0
  137.7836   70.8909  222.3044 H   0  0  0  0  0  0  0  0  0  0  0  0
  137.8505   72.2528  223.5279 H   0  0  0  0  0  0  0  0  0  0  0  0
  140.6121   70.1961  221.9634 H   0  0  0  0  0  0  0  0  0  0  0  0
  142.5284   71.2774  220.8546 H   0  0  0  0  0  0  0  0  0  0  0  0
  140.7389   75.0941  221.4930 H   0  0  0  0  0  0  0  0  0  0  0  0
  138.8155   74.0155  222.6122 H   0  0  0  0  0  0  0  0  0  0  0  0
  1  2  2  0
  2  3  1  0
  3  4  2  0
  4  5  1  0
  5  6  2  0
  6  7  1  0
  7  8  2  0
  8  9  1  0
  9 10  2  0
 10 11  1  0
 11 12  2  0
 12 13  1  0
 13 14  2  0
 14 15  1  0
 15 16  2  0
 16 17  1  0
 17 18  2  0
 10 19  1  0
 19 20  1  0
 20 21  1  0
 21 22  2  0
 22 23  1  0
 23 24  2  0
 24 25  1  0
 24 26  1  0
 26 27  2  0
 19  2  1  0
 27 21  1  0
  8  3  1  0
 18 13  1  0
  4 28  1  0
  5 29  1  0
  6 30  1  0
  7 31  1  0
 11 32  1  0
 12 33  1  0
 14 34  1  0
 15 35  1  0
 16 36  1  0
 18 37  1  0
 20 38  1  0
 20 39  1  0
 22 40  1  0
 23 41  1  0
 26 42  1  0
 27 43  1  0
M  END
>  <smiles>  (31) 
O=c1c2ccccc2nc(/C=C/c2cccnc2)n1Cc1ccc(Cl)cc1

>  <score_type>  (31) 
oracle

>  <origin>  (31) 
autodockgpu

>  <m_score__min__energy>  (31) 
-7.75

>  <m_primary>  (31) 
energy

>  <rmsd>  (31) 
10.026617578438179

>  <m_score__min__rmsd>  (31) 
10.026617578438179

>  <meeko>  (31) 
{"free_energy": -7.58, "intermolecular_energy": -9.07, "internal_energy": -1.36, "cluster_size": 30, "cluster_id": 3, "rank_in_cluster": 3}

>  <energy>  (31) 
-7.46

>  <cluster_rmsd>  (31) 
0.22

>  <cluster>  (31) 
3

$$$$

     RDKit          3D

 43 46  0  0  0  0  0  0  0  0999 V2000
  139.0300   74.1620  222.3270 O   0  0  0  0  0  0  0  0  0  0  0  0
  140.0650   73.9410  221.6560 C   0  0  0  0  0  0  0  0  0  0  0  0
  140.7720   75.0810  221.2580 C   0  0  0  0  0  0  0  0  0  0  0  0
  140.3270   76.3520  221.6030 C   0  0  0  0  0  0  0  0  0  0  0  0
  141.0740   77.4360  221.1770 C   0  0  0  0  0  0  0  0  0  0  0  0
  142.2300   77.3060  220.4320 C   0  0  0  0  0  0  0  0  0  0  0  0
  142.6660   76.0450  220.0950 C   0  0  0  0  0  0  0  0  0  0  0  0
  141.9280   74.9600  220.5150 C   0  0  0  0  0  0  0  0  0  0  0  0
  142.3160   73.7090  220.2070 N   0  0  0  0  0  0  0  0  0  0  0  0
  141.6170   72.6300  220.6020 C   0  0  0  0  0  0  0  0  0  0  0  0
  142.1480   71.3270  220.1700 C   0  0  0  0  0  0  0  0  0  0  0  0
  143.4100   71.0270  220.3530 C   0  0  0  0  0  0  0  0  0  0  0  0
  144.5190   71.9560  220.2200 C   0  0  0  0  0  0  0  0  0  0  0  0
  144.9730   72.7070  221.3040 C   0  0  0  0  0  0  0  0  0  0  0  0
  146.0280   73.5920  221.1850 C   0  0  0  0  0  0  0  0  0  0  0  0
  146.6670   73.7580  219.9740 C   0  0  0  0  0  0  0  0  0  0  0  0
  146.2280   73.0330  218.9280 N   0  0  0  0  0  0  0  0  0  0  0  0
  145.1990   72.1660  219.0320 C   0  0  0  0  0  0  0  0  0  0  0  0
  140.4880   72.6970  221.3280 N   0  0  0  0  0  0  0  0  0  0  0  0
  139.7490   71.5440  221.7830 C   0  0  0  0  0  0  0  0  0  0  0  0
  140.0140   71.1700  223.1920 C   0  0  0  0  0  0  0  0  0  0  0  0
  140.7420   71.9150  224.0810 C   0  0  0  0  0  0  0  0  0  0  0  0
  140.9640   71.5090  225.3960 C   0  0  0  0  0  0  0  0  0  0  0  0
  140.4560   70.3290  225.8640 C   0  0  0  0  0  0  0  0  0  0  0  0
  140.7320   69.8220  227.5080 Cl  0  0  0  0  0  0  0  0  0  0  0  0
  139.7180   69.5620  224.9900 C   0  0  0  0  0  0  0  0  0  0  0  0
  139.4970   69.9670  223.6730 C   0  0  0  0  0  0  0  0  0  0  0  0
  139.4107   76.4914  222.1954 H   0  0  0  0  0  0  0  0  0  0  0  0
  140.7319   78.4469  221.4436 H   0  0  0  0  0  0  0  0  0  0  0  0
  142.7928   78.1958  220.1134 H   0  0  0  0  0  0  0  0  0  0  0  0
  143.5831   75.9064  219.5036 H   0  0  0  0  0  0  0  0  0  0  0  0
  141.4789   70.5983  219.6890 H   0  0  0  0  0  0  0  0  0  0  0  0
  143.6489   69.9894  220.6293 H   0  0  0  0  0  0  0  0  0  0  0  0
  144.4783   72.5919  222.2797 H   0  0  0  0  0  0  0  0  0  0  0  0
  146.3601   74.1676  222.0616 H   0  0  0  0  0  0  0  0  0  0  0  0
  147.5074   74.4595  219.8664 H   0  0  0  0  0  0  0  0  0  0  0  0
  144.8884   71.6044  218.1386 H   0  0  0  0  0  0  0  0  0  0  0  0
  138.6753   71.7595  221.6794 H   0  0  0  0  0  0  0  0  0  0  0  0
  140.0750   70.6952  221.1640 H   0  0  0  0  0  0  0  0  0  0  0  0
  141.1684   72.8714  223.7442 H   0  0  0  0  0  0  0  0  0  0  0  0
  141.5569   72.1476  226.0673 H   0  0  0  0  0  0  0  0  0  0  0  0
  139.2933   68.6088  225.3379 H   0  0  0  0  0  0  0  0  0  0  0  0
  138.9049   69.3266  223.0027 H   0  0  0  0  0  0  0  0  0  0  0  0
  1  2  2  0
  2  3  1  0
  3  4  2  0
  4  5  1  0
  5  6  2  0
  6  7  1  0
  7  8  2  0
  8  9  1  0
  9 10  2  0
 10 11  1  0
 11 12  2  0
 12 13  1  0
 13 14  2  0
 14 15  1  0
 15 16  2  0
 16 17  1  0
 17 18  2  0
 10 19  1  0
 19 20  1  0
 20 21  1  0
 21 22  2  0
 22 23  1  0
 23 24  2  0
 24 25  1  0
 24 26  1  0
 26 27  2  0
 19  2  1  0
 27 21  1  0
  8  3  1  0
 18 13  1  0
  4 28  1  0
  5 29  1  0
  6 30  1  0
  7 31  1  0
 11 32  1  0
 12 33  1  0
 14 34  1  0
 15 35  1  0
 16 36  1  0
 18 37  1  0
 20 38  1  0
 20 39  1  0
 22 40  1  0
 23 41  1  0
 26 42  1  0
 27 43  1  0
M  END
>  <smiles>  (32) 
O=c1c2ccccc2nc(/C=C/c2cccnc2)n1Cc1ccc(Cl)cc1

>  <score_type>  (32) 
oracle

>  <origin>  (32) 
autodockgpu

>  <m_score__min__energy>  (32) 
-7.75

>  <m_primary>  (32) 
energy

>  <rmsd>  (32) 
8.924125934236864

>  <m_score__min__rmsd>  (32) 
8.924125934236864

>  <meeko>  (32) 
{"free_energy": -7.65, "intermolecular_energy": -9.14, "internal_energy": -1.44, "cluster_size": 4, "cluster_id": 1, "rank_in_cluster": 3}

>  <energy>  (32) 
-7.44

>  <cluster_rmsd>  (32) 
0.22

>  <cluster>  (32) 
3

$$$$

     RDKit          3D

 43 46  0  0  0  0  0  0  0  0999 V2000
  142.9040   76.4130  219.8640 O   0  0  0  0  0  0  0  0  0  0  0  0
  142.4930   75.3370  220.3580 C   0  0  0  0  0  0  0  0  0  0  0  0
  143.4000   74.2720  220.3080 C   0  0  0  0  0  0  0  0  0  0  0  0
  144.6610   74.4360  219.7440 C   0  0  0  0  0  0  0  0  0  0  0  0
  145.5080   73.3430  219.7280 C   0  0  0  0  0  0  0  0  0  0  0  0
  145.1560   72.1110  220.2430 C   0  0  0  0  0  0  0  0  0  0  0  0
  143.9080   71.9550  220.8010 C   0  0  0  0  0  0  0  0  0  0  0  0
  143.0570   73.0390  220.8210 C   0  0  0  0  0  0  0  0  0  0  0  0
  141.8270   72.9320  221.3560 N   0  0  0  0  0  0  0  0  0  0  0  0
  140.9730   73.9710  221.3900 C   0  0  0  0  0  0  0  0  0  0  0  0
  139.6540   73.6990  221.9810 C   0  0  0  0  0  0  0  0  0  0  0  0
  139.2530   72.4680  222.1820 C   0  0  0  0  0  0  0  0  0  0  0  0
  139.4970   71.6940  223.3870 C   0  0  0  0  0  0  0  0  0  0  0  0
  140.6530   71.8750  224.1460 C   0  0  0  0  0  0  0  0  0  0  0  0
  140.8920   71.1440  225.2950 C   0  0  0  0  0  0  0  0  0  0  0  0
  139.9800   70.2030  225.7240 C   0  0  0  0  0  0  0  0  0  0  0  0
  138.8650   70.0280  224.9910 N   0  0  0  0  0  0  0  0  0  0  0  0
  138.6210   70.7360  223.8680 C   0  0  0  0  0  0  0  0  0  0  0  0
  141.2630   75.1910  220.9050 N   0  0  0  0  0  0  0  0  0  0  0  0
  140.3650   76.3190  220.9660 C   0  0  0  0  0  0  0  0  0  0  0  0
  140.8980   77.4780  221.7200 C   0  0  0  0  0  0  0  0  0  0  0  0
  141.0930   77.5140  223.0750 C   0  0  0  0  0  0  0  0  0  0  0  0
  141.5930   78.6380  223.7320 C   0  0  0  0  0  0  0  0  0  0  0  0
  141.9160   79.7720  223.0400 C   0  0  0  0  0  0  0  0  0  0  0  0
  142.5420   81.1760  223.8610 Cl  0  0  0  0  0  0  0  0  0  0  0  0
  141.7310   79.7610  221.6760 C   0  0  0  0  0  0  0  0  0  0  0  0
  141.2290   78.6380  221.0180 C   0  0  0  0  0  0  0  0  0  0  0  0
  144.9741   75.4034  219.3245 H   0  0  0  0  0  0  0  0  0  0  0  0
  146.5079   73.4603  219.2848 H   0  0  0  0  0  0  0  0  0  0  0  0
  145.8618   71.2681  220.2077 H   0  0  0  0  0  0  0  0  0  0  0  0
  143.5966   70.9874  221.2215 H   0  0  0  0  0  0  0  0  0  0  0  0
  138.9976   74.5374  222.2570 H   0  0  0  0  0  0  0  0  0  0  0  0
  138.6865   71.9818  221.3741 H   0  0  0  0  0  0  0  0  0  0  0  0
  141.3948   72.6196  223.8217 H   0  0  0  0  0  0  0  0  0  0  0  0
  141.8144   71.3140  225.8698 H   0  0  0  0  0  0  0  0  0  0  0  0
  140.1581   69.6143  226.6360 H   0  0  0  0  0  0  0  0  0  0  0  0
  137.6904   70.5444  223.3137 H   0  0  0  0  0  0  0  0  0  0  0  0
  140.1503   76.6453  219.9377 H   0  0  0  0  0  0  0  0  0  0  0  0
  139.4659   75.9794  221.5011 H   0  0  0  0  0  0  0  0  0  0  0  0
  140.8456   76.6215  223.6684 H   0  0  0  0  0  0  0  0  0  0  0  0
  141.7295   78.6117  224.8232 H   0  0  0  0  0  0  0  0  0  0  0  0
  141.9847   80.6578  221.0917 H   0  0  0  0  0  0  0  0  0  0  0  0
  141.0917   78.6672  219.9270 H   0  0  0  0  0  0  0  0  0  0  0  0
  1  2  2  0
  2  3  1  0
  3  4  2  0
  4  5  1  0
  5  6  2  0
  6  7  1  0
  7  8  2  0
  8  9  1  0
  9 10  2  0
 10 11  1  0
 11 12  2  0
 12 13  1  0
 13 14  2  0
 14 15  1  0
 15 16  2  0
 16 17  1  0
 17 18  2  0
 10 19  1  0
 19 20  1  0
 20 21  1  0
 21 22  2  0
 22 23  1  0
 23 24  2  0
 24 25  1  0
 24 26  1  0
 26 27  2  0
 19  2  1  0
 27 21  1  0
  8  3  1  0
 18 13  1  0
  4 28  1  0
  5 29  1  0
  6 30  1  0
  7 31  1  0
 11 32  1  0
 12 33  1  0
 14 34  1  0
 15 35  1  0
 16 36  1  0
 18 37  1  0
 20 38  1  0
 20 39  1  0
 22 40  1  0
 23 41  1  0
 26 42  1  0
 27 43  1  0
M  END
>  <smiles>  (33) 
O=c1c2ccccc2nc(/C=C/c2cccnc2)n1Cc1ccc(Cl)cc1

>  <score_type>  (33) 
oracle

>  <origin>  (33) 
autodockgpu

>  <m_score__min__energy>  (33) 
-7.75

>  <m_primary>  (33) 
energy

>  <rmsd>  (33) 
4.766796726259018

>  <m_score__min__rmsd>  (33) 
4.766796726259018

>  <meeko>  (33) 
{"free_energy": -7.5, "intermolecular_energy": -8.99, "internal_energy": -1.21, "cluster_size": 5, "cluster_id": 4, "rank_in_cluster": 3}

>  <energy>  (33) 
-7.42

>  <cluster_rmsd>  (33) 
0.25

>  <cluster>  (33) 
3

$$$$

     RDKit          3D

 43 46  0  0  0  0  0  0  0  0999 V2000
  140.2360   72.0060  225.0060 O   0  0  0  0  0  0  0  0  0  0  0  0
  139.6320   70.9100  224.9380 C   0  0  0  0  0  0  0  0  0  0  0  0
  139.9300   70.0010  225.9600 C   0  0  0  0  0  0  0  0  0  0  0  0
  140.8360   70.3270  226.9630 C   0  0  0  0  0  0  0  0  0  0  0  0
  141.0830   69.3830  227.9430 C   0  0  0  0  0  0  0  0  0  0  0  0
  140.4740   68.1430  227.9630 C   0  0  0  0  0  0  0  0  0  0  0  0
  139.5770   67.8260  226.9690 C   0  0  0  0  0  0  0  0  0  0  0  0
  139.3240   68.7620  225.9890 C   0  0  0  0  0  0  0  0  0  0  0  0
  138.4560   68.4940  224.9970 N   0  0  0  0  0  0  0  0  0  0  0  0
  138.1880   69.3860  224.0260 C   0  0  0  0  0  0  0  0  0  0  0  0
  137.2380   68.9450  222.9930 C   0  0  0  0  0  0  0  0  0  0  0  0
  135.9670   68.8000  223.2740 C   0  0  0  0  0  0  0  0  0  0  0  0
  135.2880   69.3980  224.4110 C   0  0  0  0  0  0  0  0  0  0  0  0
  135.2350   70.7810  224.5820 C   0  0  0  0  0  0  0  0  0  0  0  0
  134.5900   71.3570  225.6610 C   0  0  0  0  0  0  0  0  0  0  0  0
  133.9750   70.5680  226.6080 C   0  0  0  0  0  0  0  0  0  0  0  0
  134.0260   69.2330  226.4430 N   0  0  0  0  0  0  0  0  0  0  0  0
  134.6520   68.6580  225.3940 C   0  0  0  0  0  0  0  0  0  0  0  0
  138.7510   70.6050  223.9570 N   0  0  0  0  0  0  0  0  0  0  0  0
  138.4470   71.5800  222.9370 C   0  0  0  0  0  0  0  0  0  0  0  0
  139.6390   72.1480  222.2660 C   0  0  0  0  0  0  0  0  0  0  0  0
  139.8460   73.4790  222.0220 C   0  0  0  0  0  0  0  0  0  0  0  0
  140.9880   73.9560  221.3800 C   0  0  0  0  0  0  0  0  0  0  0  0
  141.9670   73.1010  220.9580 C   0  0  0  0  0  0  0  0  0  0  0  0
  143.3950   73.6970  220.1560 Cl  0  0  0  0  0  0  0  0  0  0  0  0
  141.7840   71.7570  221.1920 C   0  0  0  0  0  0  0  0  0  0  0  0
  140.6410   71.2790  221.8340 C   0  0  0  0  0  0  0  0  0  0  0  0
  141.3402   71.3045  226.9766 H   0  0  0  0  0  0  0  0  0  0  0  0
  141.7966   69.6306  228.7427 H   0  0  0  0  0  0  0  0  0  0  0  0
  140.7026   67.4209  228.7607 H   0  0  0  0  0  0  0  0  0  0  0  0
  139.0733   66.8482  226.9566 H   0  0  0  0  0  0  0  0  0  0  0  0
  137.5984   68.7351  221.9751 H   0  0  0  0  0  0  0  0  0  0  0  0
  135.3661   68.1763  222.5958 H   0  0  0  0  0  0  0  0  0  0  0  0
  135.7193   71.4312  223.8386 H   0  0  0  0  0  0  0  0  0  0  0  0
  134.5678   72.4520  225.7638 H   0  0  0  0  0  0  0  0  0  0  0  0
  133.4591   71.0143  227.4709 H   0  0  0  0  0  0  0  0  0  0  0  0
  134.6571   67.5607  225.3172 H   0  0  0  0  0  0  0  0  0  0  0  0
  137.8190   71.0968  222.1740 H   0  0  0  0  0  0  0  0  0  0  0  0
  137.9388   72.4159  223.4400 H   0  0  0  0  0  0  0  0  0  0  0  0
  139.0812   74.2006  222.3452 H   0  0  0  0  0  0  0  0  0  0  0  0
  141.1027   75.0368  221.2106 H   0  0  0  0  0  0  0  0  0  0  0  0
  142.5557   71.0442  220.8658 H   0  0  0  0  0  0  0  0  0  0  0  0
  140.5281   70.1978  222.0024 H   0  0  0  0  0  0  0  0  0  0  0  0
  1  2  2  0
  2  3  1  0
  3  4  2  0
  4  5  1  0
  5  6  2  0
  6  7  1  0
  7  8  2  0
  8  9  1  0
  9 10  2  0
 10 11  1  0
 11 12  2  0
 12 13  1  0
 13 14  2  0
 14 15  1  0
 15 16  2  0
 16 17  1  0
 17 18  2  0
 10 19  1  0
 19 20  1  0
 20 21  1  0
 21 22  2  0
 22 23  1  0
 23 24  2  0
 24 25  1  0
 24 26  1  0
 26 27  2  0
 19  2  1  0
 27 21  1  0
  8  3  1  0
 18 13  1  0
  4 28  1  0
  5 29  1  0
  6 30  1  0
  7 31  1  0
 11 32  1  0
 12 33  1  0
 14 34  1  0
 15 35  1  0
 16 36  1  0
 18 37  1  0
 20 38  1  0
 20 39  1  0
 22 40  1  0
 23 41  1  0
 26 42  1  0
 27 43  1  0
M  END
>  <smiles>  (34) 
O=c1c2ccccc2nc(/C=C/c2cccnc2)n1Cc1ccc(Cl)cc1

>  <score_type>  (34) 
oracle

>  <origin>  (34) 
autodockgpu

>  <m_score__min__energy>  (34) 
-7.75

>  <m_primary>  (34) 
energy

>  <rmsd>  (34) 
10.078177137130034

>  <m_score__min__rmsd>  (34) 
10.078177137130034

>  <meeko>  (34) 
{"free_energy": -7.36, "intermolecular_energy": -8.85, "internal_energy": -1.45, "cluster_size": 30, "cluster_id": 3, "rank_in_cluster": 28}

>  <energy>  (34) 
-7.41

>  <cluster_rmsd>  (34) 
0.24

>  <cluster>  (34) 
3

$$$$

     RDKit          3D

 43 46  0  0  0  0  0  0  0  0999 V2000
  138.1100   75.2230  221.7180 O   0  0  0  0  0  0  0  0  0  0  0  0
  139.2700   74.8140  221.4760 C   0  0  0  0  0  0  0  0  0  0  0  0
  139.5090   73.4730  221.7980 C   0  0  0  0  0  0  0  0  0  0  0  0
  138.5050   72.6820  222.3440 C   0  0  0  0  0  0  0  0  0  0  0  0
  138.8080   71.3650  222.6380 C   0  0  0  0  0  0  0  0  0  0  0  0
  140.0540   70.8120  222.4130 C   0  0  0  0  0  0  0  0  0  0  0  0
  141.0430   71.6000  221.8710 C   0  0  0  0  0  0  0  0  0  0  0  0
  140.7500   72.9130  221.5760 C   0  0  0  0  0  0  0  0  0  0  0  0
  141.6870   73.7200  221.0450 N   0  0  0  0  0  0  0  0  0  0  0  0
  141.4310   75.0060  220.7460 C   0  0  0  0  0  0  0  0  0  0  0  0
  142.5590   75.7740  220.1960 C   0  0  0  0  0  0  0  0  0  0  0  0
  143.3600   75.2400  219.3080 C   0  0  0  0  0  0  0  0  0  0  0  0
  144.3680   74.2320  219.5890 C   0  0  0  0  0  0  0  0  0  0  0  0
  144.9800   74.1430  220.8400 C   0  0  0  0  0  0  0  0  0  0  0  0
  145.9390   73.1870  221.1150 C   0  0  0  0  0  0  0  0  0  0  0  0
  146.3200   72.2830  220.1470 C   0  0  0  0  0  0  0  0  0  0  0  0
  145.7300   72.3690  218.9400 N   0  0  0  0  0  0  0  0  0  0  0  0
  144.7930   73.2980  218.6590 C   0  0  0  0  0  0  0  0  0  0  0  0
  140.2390   75.5950  220.9420 N   0  0  0  0  0  0  0  0  0  0  0  0
  139.9470   76.9650  220.5950 C   0  0  0  0  0  0  0  0  0  0  0  0
  140.6760   77.9660  221.4090 C   0  0  0  0  0  0  0  0  0  0  0  0
  141.2370   79.1170  220.9240 C   0  0  0  0  0  0  0  0  0  0  0  0
  141.9180   80.0210  221.7390 C   0  0  0  0  0  0  0  0  0  0  0  0
  142.0590   79.7930  223.0790 C   0  0  0  0  0  0  0  0  0  0  0  0
  142.9100   80.9230  224.0980 Cl  0  0  0  0  0  0  0  0  0  0  0  0
  141.5020   78.6420  223.5920 C   0  0  0  0  0  0  0  0  0  0  0  0
  140.8220   77.7370  222.7770 C   0  0  0  0  0  0  0  0  0  0  0  0
  137.5018   73.0903  222.5361 H   0  0  0  0  0  0  0  0  0  0  0  0
  138.0215   70.7291  223.0705 H   0  0  0  0  0  0  0  0  0  0  0  0
  140.2520   69.7592  222.6630 H   0  0  0  0  0  0  0  0  0  0  0  0
  142.0454   71.1905  221.6776 H   0  0  0  0  0  0  0  0  0  0  0  0
  142.7312   76.8066  220.5339 H   0  0  0  0  0  0  0  0  0  0  0  0
  143.2618   75.5817  218.2670 H   0  0  0  0  0  0  0  0  0  0  0  0
  144.6911   74.8533  221.6287 H   0  0  0  0  0  0  0  0  0  0  0  0
  146.4011   73.1472  222.1125 H   0  0  0  0  0  0  0  0  0  0  0  0
  147.0812   71.5163  220.3538 H   0  0  0  0  0  0  0  0  0  0  0  0
  144.3495   73.3142  217.6525 H   0  0  0  0  0  0  0  0  0  0  0  0
  140.2145   77.1180  219.5391 H   0  0  0  0  0  0  0  0  0  0  0  0
  138.8754   77.1190  220.7896 H   0  0  0  0  0  0  0  0  0  0  0  0
  141.1471   79.3372  219.8500 H   0  0  0  0  0  0  0  0  0  0  0  0
  142.3482   80.9315  221.2964 H   0  0  0  0  0  0  0  0  0  0  0  0
  141.5956   78.4322  224.6677 H   0  0  0  0  0  0  0  0  0  0  0  0
  140.3933   76.8265  223.2211 H   0  0  0  0  0  0  0  0  0  0  0  0
  1  2  2  0
  2  3  1  0
  3  4  2  0
  4  5  1  0
  5  6  2  0
  6  7  1  0
  7  8  2  0
  8  9  1  0
  9 10  2  0
 10 11  1  0
 11 12  2  0
 12 13  1  0
 13 14  2  0
 14 15  1  0
 15 16  2  0
 16 17  1  0
 17 18  2  0
 10 19  1  0
 19 20  1  0
 20 21  1  0
 21 22  2  0
 22 23  1  0
 23 24  2  0
 24 25  1  0
 24 26  1  0
 26 27  2  0
 19  2  1  0
 27 21  1  0
  8  3  1  0
 18 13  1  0
  4 28  1  0
  5 29  1  0
  6 30  1  0
  7 31  1  0
 11 32  1  0
 12 33  1  0
 14 34  1  0
 15 35  1  0
 16 36  1  0
 18 37  1  0
 20 38  1  0
 20 39  1  0
 22 40  1  0
 23 41  1  0
 26 42  1  0
 27 43  1  0
M  END
>  <smiles>  (35) 
O=c1c2ccccc2nc(/C=C/c2cccnc2)n1Cc1ccc(Cl)cc1

>  <score_type>  (35) 
oracle

>  <origin>  (35) 
autodockgpu

>  <m_score__min__energy>  (35) 
-7.75

>  <m_primary>  (35) 
energy

>  <rmsd>  (35) 
5.129870578816187

>  <m_score__min__rmsd>  (35) 
5.129870578816187

>  <meeko>  (35) 
{"free_energy": -7.47, "intermolecular_energy": -8.96, "internal_energy": -1.32, "cluster_size": 5, "cluster_id": 4, "rank_in_cluster": 5}

>  <energy>  (35) 
-7.41

>  <cluster_rmsd>  (35) 
0.25

>  <cluster>  (35) 
3

$$$$

     RDKit          3D

 43 46  0  0  0  0  0  0  0  0999 V2000
  140.7810   74.0850  221.9700 O   0  0  0  0  0  0  0  0  0  0  0  0
  139.6050   74.4900  222.1230 C   0  0  0  0  0  0  0  0  0  0  0  0
  139.4650   75.8760  222.2640 C   0  0  0  0  0  0  0  0  0  0  0  0
  140.5760   76.7110  222.2290 C   0  0  0  0  0  0  0  0  0  0  0  0
  140.3670   78.0700  222.3740 C   0  0  0  0  0  0  0  0  0  0  0  0
  139.1130   78.6240  222.5490 C   0  0  0  0  0  0  0  0  0  0  0  0
  138.0180   77.7920  222.5810 C   0  0  0  0  0  0  0  0  0  0  0  0
  138.2170   76.4370  222.4390 C   0  0  0  0  0  0  0  0  0  0  0  0
  137.1750   75.5860  222.4650 N   0  0  0  0  0  0  0  0  0  0  0  0
  137.3370   74.2580  222.3280 C   0  0  0  0  0  0  0  0  0  0  0  0
  136.1090   73.4500  222.4040 C   0  0  0  0  0  0  0  0  0  0  0  0
  135.6820   72.9910  223.5540 C   0  0  0  0  0  0  0  0  0  0  0  0
  135.0100   73.7810  224.5720 C   0  0  0  0  0  0  0  0  0  0  0  0
  135.1450   75.1680  224.6230 C   0  0  0  0  0  0  0  0  0  0  0  0
  134.5080   75.9260  225.5880 C   0  0  0  0  0  0  0  0  0  0  0  0
  133.7120   75.3210  226.5370 C   0  0  0  0  0  0  0  0  0  0  0  0
  133.5820   73.9820  226.4870 N   0  0  0  0  0  0  0  0  0  0  0  0
  134.1980   73.2310  225.5500 C   0  0  0  0  0  0  0  0  0  0  0  0
  138.5310   73.6660  222.1540 N   0  0  0  0  0  0  0  0  0  0  0  0
  138.7110   72.2450  221.9750 C   0  0  0  0  0  0  0  0  0  0  0  0
  139.0680   71.5180  223.2160 C   0  0  0  0  0  0  0  0  0  0  0  0
  138.2870   70.5740  223.8270 C   0  0  0  0  0  0  0  0  0  0  0  0
  138.6730   69.9250  225.0000 C   0  0  0  0  0  0  0  0  0  0  0  0
  139.8670   70.2090  225.6010 C   0  0  0  0  0  0  0  0  0  0  0  0
  140.3500   69.3980  227.0660 Cl  0  0  0  0  0  0  0  0  0  0  0  0
  140.6720   71.1550  225.0060 C   0  0  0  0  0  0  0  0  0  0  0  0
  140.2860   71.8050  223.8330 C   0  0  0  0  0  0  0  0  0  0  0  0
  141.5884   76.3037  222.0905 H   0  0  0  0  0  0  0  0  0  0  0  0
  141.2384   78.7408  222.3489 H   0  0  0  0  0  0  0  0  0  0  0  0
  138.9926   79.7117  222.6608 H   0  0  0  0  0  0  0  0  0  0  0  0
  137.0057   78.2002  222.7170 H   0  0  0  0  0  0  0  0  0  0  0  0
  135.5444   73.2295  221.4861 H   0  0  0  0  0  0  0  0  0  0  0  0
  135.8448   71.9239  223.7659 H   0  0  0  0  0  0  0  0  0  0  0  0
  135.7751   75.6724  223.8756 H   0  0  0  0  0  0  0  0  0  0  0  0
  134.6371   77.0183  225.5985 H   0  0  0  0  0  0  0  0  0  0  0  0
  133.1998   75.9129  227.3098 H   0  0  0  0  0  0  0  0  0  0  0  0
  134.0496   72.1411  225.5635 H   0  0  0  0  0  0  0  0  0  0  0  0
  137.7718   71.8243  221.5865 H   0  0  0  0  0  0  0  0  0  0  0  0
  139.5540   72.1177  221.2799 H   0  0  0  0  0  0  0  0  0  0  0  0
  137.3174   70.3173  223.3754 H   0  0  0  0  0  0  0  0  0  0  0  0
  138.0063   69.1734  225.4479 H   0  0  0  0  0  0  0  0  0  0  0  0
  141.6401   71.4035  225.4653 H   0  0  0  0  0  0  0  0  0  0  0  0
  140.9537   72.5568  223.3870 H   0  0  0  0  0  0  0  0  0  0  0  0
  1  2  2  0
  2  3  1  0
  3  4  2  0
  4  5  1  0
  5  6  2  0
  6  7  1  0
  7  8  2  0
  8  9  1  0
  9 10  2  0
 10 11  1  0
 11 12  2  0
 12 13  1  0
 13 14  2  0
 14 15  1  0
 15 16  2  0
 16 17  1  0
 17 18  2  0
 10 19  1  0
 19 20  1  0
 20 21  1  0
 21 22  2  0
 22 23  1  0
 23 24  2  0
 24 25  1  0
 24 26  1  0
 26 27  2  0
 19  2  1  0
 27 21  1  0
  8  3  1  0
 18 13  1  0
  4 28  1  0
  5 29  1  0
  6 30  1  0
  7 31  1  0
 11 32  1  0
 12 33  1  0
 14 34  1  0
 15 35  1  0
 16 36  1  0
 18 37  1  0
 20 38  1  0
 20 39  1  0
 22 40  1  0
 23 41  1  0
 26 42  1  0
 27 43  1  0
M  END
>  <smiles>  (36) 
O=c1c2ccccc2nc(/C=C/c2cccnc2)n1Cc1ccc(Cl)cc1

>  <score_type>  (36) 
oracle

>  <origin>  (36) 
autodockgpu

>  <m_score__min__energy>  (36) 
-7.75

>  <m_primary>  (36) 
energy

>  <rmsd>  (36) 
8.76975346989534

>  <m_score__min__rmsd>  (36) 
8.76975346989534

>  <meeko>  (36) 
{"free_energy": -7.4, "intermolecular_energy": -8.89, "internal_energy": -1.4, "cluster_size": 4, "cluster_id": 5, "rank_in_cluster": 3}

>  <energy>  (36) 
-7.39

>  <cluster_rmsd>  (36) 
0.28

>  <cluster>  (36) 
3

$$$$

     RDKit          3D

 43 46  0  0  0  0  0  0  0  0999 V2000
  140.2570   71.9020  225.0850 O   0  0  0  0  0  0  0  0  0  0  0  0
  139.6380   70.8120  225.0720 C   0  0  0  0  0  0  0  0  0  0  0  0
  139.9520   69.9360  226.1180 C   0  0  0  0  0  0  0  0  0  0  0  0
  140.8880   70.2870  227.0840 C   0  0  0  0  0  0  0  0  0  0  0  0
  141.1500   69.3750  228.0910 C   0  0  0  0  0  0  0  0  0  0  0  0
  140.5270   68.1450  228.1730 C   0  0  0  0  0  0  0  0  0  0  0  0
  139.6000   67.8050  227.2140 C   0  0  0  0  0  0  0  0  0  0  0  0
  139.3330   68.7070  226.2080 C   0  0  0  0  0  0  0  0  0  0  0  0
  138.4350   68.4160  225.2490 N   0  0  0  0  0  0  0  0  0  0  0  0
  138.1530   69.2750  224.2530 C   0  0  0  0  0  0  0  0  0  0  0  0
  137.1700   68.8100  223.2620 C   0  0  0  0  0  0  0  0  0  0  0  0
  135.9370   69.2540  223.2860 C   0  0  0  0  0  0  0  0  0  0  0  0
  135.2100   69.6400  224.4830 C   0  0  0  0  0  0  0  0  0  0  0  0
  135.0270   70.9800  224.8230 C   0  0  0  0  0  0  0  0  0  0  0  0
  134.3350   71.3550  225.9590 C   0  0  0  0  0  0  0  0  0  0  0  0
  133.8010   70.4000  226.7980 C   0  0  0  0  0  0  0  0  0  0  0  0
  133.9780   69.1070  226.4690 N   0  0  0  0  0  0  0  0  0  0  0  0
  134.6510   68.7280  225.3620 C   0  0  0  0  0  0  0  0  0  0  0  0
  138.7280   70.4840  224.1260 N   0  0  0  0  0  0  0  0  0  0  0  0
  138.4080   71.4250  223.0790 C   0  0  0  0  0  0  0  0  0  0  0  0
  139.5920   72.0050  222.4040 C   0  0  0  0  0  0  0  0  0  0  0  0
  139.8360   73.3440  222.2540 C   0  0  0  0  0  0  0  0  0  0  0  0
  140.9670   73.8330  221.6020 C   0  0  0  0  0  0  0  0  0  0  0  0
  141.8980   72.9820  221.0740 C   0  0  0  0  0  0  0  0  0  0  0  0
  143.3130   73.5930  220.2590 Cl  0  0  0  0  0  0  0  0  0  0  0  0
  141.6770   71.6300  221.2110 C   0  0  0  0  0  0  0  0  0  0  0  0
  140.5440   71.1410  221.8630 C   0  0  0  0  0  0  0  0  0  0  0  0
  141.4035   71.2581  227.0490 H   0  0  0  0  0  0  0  0  0  0  0  0
  141.8883   69.6417  228.8616 H   0  0  0  0  0  0  0  0  0  0  0  0
  140.7674   67.4493  228.9904 H   0  0  0  0  0  0  0  0  0  0  0  0
  139.0838   66.8343  227.2503 H   0  0  0  0  0  0  0  0  0  0  0  0
  137.4726   68.0831  222.4939 H   0  0  0  0  0  0  0  0  0  0  0  0
  135.4112   69.3412  222.3238 H   0  0  0  0  0  0  0  0  0  0  0  0
  135.4448   71.7597  224.1692 H   0  0  0  0  0  0  0  0  0  0  0  0
  134.2095   72.4220  226.1953 H   0  0  0  0  0  0  0  0  0  0  0  0
  133.2489   70.6853  227.7057 H   0  0  0  0  0  0  0  0  0  0  0  0
  134.7594   67.6540  225.1503 H   0  0  0  0  0  0  0  0  0  0  0  0
  137.7990   70.9071  222.3235 H   0  0  0  0  0  0  0  0  0  0  0  0
  137.8741   72.2602  223.5558 H   0  0  0  0  0  0  0  0  0  0  0  0
  139.1109   74.0623  222.6642 H   0  0  0  0  0  0  0  0  0  0  0  0
  141.1126   74.9195  221.5109 H   0  0  0  0  0  0  0  0  0  0  0  0
  142.4088   70.9202  220.7979 H   0  0  0  0  0  0  0  0  0  0  0  0
  140.3992   70.0542  221.9519 H   0  0  0  0  0  0  0  0  0  0  0  0
  1  2  2  0
  2  3  1  0
  3  4  2  0
  4  5  1  0
  5  6  2  0
  6  7  1  0
  7  8  2  0
  8  9  1  0
  9 10  2  0
 10 11  1  0
 11 12  2  0
 12 13  1  0
 13 14  2  0
 14 15  1  0
 15 16  2  0
 16 17  1  0
 17 18  2  0
 10 19  1  0
 19 20  1  0
 20 21  1  0
 21 22  2  0
 22 23  1  0
 23 24  2  0
 24 25  1  0
 24 26  1  0
 26 27  2  0
 19  2  1  0
 27 21  1  0
  8  3  1  0
 18 13  1  0
  4 28  1  0
  5 29  1  0
  6 30  1  0
  7 31  1  0
 11 32  1  0
 12 33  1  0
 14 34  1  0
 15 35  1  0
 16 36  1  0
 18 37  1  0
 20 38  1  0
 20 39  1  0
 22 40  1  0
 23 41  1  0
 26 42  1  0
 27 43  1  0
M  END
>  <smiles>  (37) 
O=c1c2ccccc2nc(/C=C/c2cccnc2)n1Cc1ccc(Cl)cc1

>  <score_type>  (37) 
oracle

>  <origin>  (37) 
autodockgpu

>  <m_score__min__energy>  (37) 
-7.75

>  <m_primary>  (37) 
energy

>  <rmsd>  (37) 
10.209915972195988

>  <m_score__min__rmsd>  (37) 
10.209915972195988

>  <meeko>  (37) 
{"free_energy": -7.53, "intermolecular_energy": -9.02, "internal_energy": -1.38, "cluster_size": 30, "cluster_id": 3, "rank_in_cluster": 14}

>  <energy>  (37) 
-7.36

>  <cluster_rmsd>  (37) 
0.27

>  <cluster>  (37) 
3

$$$$

     RDKit          3D

 43 46  0  0  0  0  0  0  0  0999 V2000
  140.3240   71.9140  225.0760 O   0  0  0  0  0  0  0  0  0  0  0  0
  139.6870   70.8340  225.0790 C   0  0  0  0  0  0  0  0  0  0  0  0
  140.0000   69.9600  226.1260 C   0  0  0  0  0  0  0  0  0  0  0  0
  140.9550   70.3000  227.0770 C   0  0  0  0  0  0  0  0  0  0  0  0
  141.2160   69.3900  228.0860 C   0  0  0  0  0  0  0  0  0  0  0  0
  140.5730   68.1720  228.1840 C   0  0  0  0  0  0  0  0  0  0  0  0
  139.6270   67.8410  227.2400 C   0  0  0  0  0  0  0  0  0  0  0  0
  139.3610   68.7420  226.2320 C   0  0  0  0  0  0  0  0  0  0  0  0
  138.4460   68.4600  225.2870 N   0  0  0  0  0  0  0  0  0  0  0  0
  138.1640   69.3180  224.2910 C   0  0  0  0  0  0  0  0  0  0  0  0
  137.1600   68.8640  223.3160 C   0  0  0  0  0  0  0  0  0  0  0  0
  135.9490   69.3650  223.3230 C   0  0  0  0  0  0  0  0  0  0  0  0
  135.2000   69.7260  224.5130 C   0  0  0  0  0  0  0  0  0  0  0  0
  134.9960   71.0590  224.8680 C   0  0  0  0  0  0  0  0  0  0  0  0
  134.2830   71.4110  225.9990 C   0  0  0  0  0  0  0  0  0  0  0  0
  133.7480   70.4380  226.8170 C   0  0  0  0  0  0  0  0  0  0  0  0
  133.9450   69.1520  226.4740 N   0  0  0  0  0  0  0  0  0  0  0  0
  134.6390   68.7960  225.3720 C   0  0  0  0  0  0  0  0  0  0  0  0
  138.7580   70.5160  224.1470 N   0  0  0  0  0  0  0  0  0  0  0  0
  138.4400   71.4560  223.1000 C   0  0  0  0  0  0  0  0  0  0  0  0
  139.6240   72.0190  222.4110 C   0  0  0  0  0  0  0  0  0  0  0  0
  139.8830   73.3550  222.2540 C   0  0  0  0  0  0  0  0  0  0  0  0
  141.0140   73.8280  221.5900 C   0  0  0  0  0  0  0  0  0  0  0  0
  141.9290   72.9640  221.0560 C   0  0  0  0  0  0  0  0  0  0  0  0
  143.3430   73.5550  220.2250 Cl  0  0  0  0  0  0  0  0  0  0  0  0
  141.6930   71.6150  221.2000 C   0  0  0  0  0  0  0  0  0  0  0  0
  140.5610   71.1420  221.8640 C   0  0  0  0  0  0  0  0  0  0  0  0
  141.4864   71.2620  227.0289 H   0  0  0  0  0  0  0  0  0  0  0  0
  141.9698   69.6485  228.8443 H   0  0  0  0  0  0  0  0  0  0  0  0
  140.8126   67.4776  229.0028 H   0  0  0  0  0  0  0  0  0  0  0  0
  139.0956   66.8791  227.2894 H   0  0  0  0  0  0  0  0  0  0  0  0
  137.4283   68.0971  222.5744 H   0  0  0  0  0  0  0  0  0  0  0  0
  135.4614   69.5246  222.3500 H   0  0  0  0  0  0  0  0  0  0  0  0
  135.4138   71.8522  224.2307 H   0  0  0  0  0  0  0  0  0  0  0  0
  134.1416   72.4731  226.2478 H   0  0  0  0  0  0  0  0  0  0  0  0
  133.1791   70.7045  227.7199 H   0  0  0  0  0  0  0  0  0  0  0  0
  134.7636   67.7263  225.1479 H   0  0  0  0  0  0  0  0  0  0  0  0
  137.8174   70.9426  222.3525 H   0  0  0  0  0  0  0  0  0  0  0  0
  137.9214   72.2997  223.5788 H   0  0  0  0  0  0  0  0  0  0  0  0
  139.1704   74.0834  222.6682 H   0  0  0  0  0  0  0  0  0  0  0  0
  141.1724   74.9123  221.4944 H   0  0  0  0  0  0  0  0  0  0  0  0
  142.4124   70.8951  220.7826 H   0  0  0  0  0  0  0  0  0  0  0  0
  140.4043   70.0573  221.9580 H   0  0  0  0  0  0  0  0  0  0  0  0
  1  2  2  0
  2  3  1  0
  3  4  2  0
  4  5  1  0
  5  6  2  0
  6  7  1  0
  7  8  2  0
  8  9  1  0
  9 10  2  0
 10 11  1  0
 11 12  2  0
 12 13  1  0
 13 14  2  0
 14 15  1  0
 15 16  2  0
 16 17  1  0
 17 18  2  0
 10 19  1  0
 19 20  1  0
 20 21  1  0
 21 22  2  0
 22 23  1  0
 23 24  2  0
 24 25  1  0
 24 26  1  0
 26 27  2  0
 19  2  1  0
 27 21  1  0
  8  3  1  0
 18 13  1  0
  4 28  1  0
  5 29  1  0
  6 30  1  0
  7 31  1  0
 11 32  1  0
 12 33  1  0
 14 34  1  0
 15 35  1  0
 16 36  1  0
 18 37  1  0
 20 38  1  0
 20 39  1  0
 22 40  1  0
 23 41  1  0
 26 42  1  0
 27 43  1  0
M  END
>  <smiles>  (38) 
O=c1c2ccccc2nc(/C=C/c2cccnc2)n1Cc1ccc(Cl)cc1

>  <score_type>  (38) 
oracle

>  <origin>  (38) 
autodockgpu

>  <m_score__min__energy>  (38) 
-7.75

>  <m_primary>  (38) 
energy

>  <rmsd>  (38) 
10.20624007243326

>  <m_score__min__rmsd>  (38) 
10.20624007243326

>  <meeko>  (38) 
{"free_energy": -7.54, "intermolecular_energy": -9.03, "internal_energy": -1.35, "cluster_size": 30, "cluster_id": 3, "rank_in_cluster": 11}

>  <energy>  (38) 
-6.99

>  <cluster_rmsd>  (38) 
0.67

>  <cluster>  (38) 
3

$$$$

     RDKit          3D

 43 46  0  0  0  0  0  0  0  0999 V2000
  141.5010   71.1810  221.4220 O   0  0  0  0  0  0  0  0  0  0  0  0
  141.6640   72.4200  221.3320 C   0  0  0  0  0  0  0  0  0  0  0  0
  142.8910   72.8230  220.7930 C   0  0  0  0  0  0  0  0  0  0  0  0
  143.8370   71.8840  220.3950 C   0  0  0  0  0  0  0  0  0  0  0  0
  145.0290   72.3500  219.8700 C   0  0  0  0  0  0  0  0  0  0  0  0
  145.3130   73.6950  219.7270 C   0  0  0  0  0  0  0  0  0  0  0  0
  144.3720   74.6190  220.1210 C   0  0  0  0  0  0  0  0  0  0  0  0
  143.1830   74.1630  220.6460 C   0  0  0  0  0  0  0  0  0  0  0  0
  142.2350   75.0310  221.0450 N   0  0  0  0  0  0  0  0  0  0  0  0
  141.0630   74.6170  221.5610 C   0  0  0  0  0  0  0  0  0  0  0  0
  140.1350   75.6790  221.9780 C   0  0  0  0  0  0  0  0  0  0  0  0
  140.2330   76.8860  221.4780 C   0  0  0  0  0  0  0  0  0  0  0  0
  141.0230   77.9650  222.0470 C   0  0  0  0  0  0  0  0  0  0  0  0
  141.4360   79.0500  221.2740 C   0  0  0  0  0  0  0  0  0  0  0  0
  142.1870   80.0810  221.8070 C   0  0  0  0  0  0  0  0  0  0  0  0
  142.5520   80.0610  223.1360 C   0  0  0  0  0  0  0  0  0  0  0  0
  142.1540   79.0140  223.8820 N   0  0  0  0  0  0  0  0  0  0  0  0
  141.4210   78.0020  223.3730 C   0  0  0  0  0  0  0  0  0  0  0  0
  140.7340   73.3240  221.7220 N   0  0  0  0  0  0  0  0  0  0  0  0
  139.4680   72.8710  222.2450 C   0  0  0  0  0  0  0  0  0  0  0  0
  139.5840   71.8810  223.3410 C   0  0  0  0  0  0  0  0  0  0  0  0
  140.5460   71.8930  224.3150 C   0  0  0  0  0  0  0  0  0  0  0  0
  140.6090   70.9290  225.3210 C   0  0  0  0  0  0  0  0  0  0  0  0
  139.6980   69.9120  225.3790 C   0  0  0  0  0  0  0  0  0  0  0  0
  139.7760   68.7070  226.6360 Cl  0  0  0  0  0  0  0  0  0  0  0  0
  138.7190   69.8770  224.4110 C   0  0  0  0  0  0  0  0  0  0  0  0
  138.6560   70.8400  223.4040 C   0  0  0  0  0  0  0  0  0  0  0  0
  143.6435   70.8057  220.4945 H   0  0  0  0  0  0  0  0  0  0  0  0
  145.7850   71.6169  219.5520 H   0  0  0  0  0  0  0  0  0  0  0  0
  146.2750   74.0216  219.3053 H   0  0  0  0  0  0  0  0  0  0  0  0
  144.5651   75.6971  220.0189 H   0  0  0  0  0  0  0  0  0  0  0  0
  139.3508   75.4577  222.7170 H   0  0  0  0  0  0  0  0  0  0  0  0
  139.6735   77.0994  220.5553 H   0  0  0  0  0  0  0  0  0  0  0  0
  141.1564   79.0863  220.2108 H   0  0  0  0  0  0  0  0  0  0  0  0
  142.4948   80.9214  221.1674 H   0  0  0  0  0  0  0  0  0  0  0  0
  143.1495   80.8747  223.5729 H   0  0  0  0  0  0  0  0  0  0  0  0
  141.1284   77.1749  224.0365 H   0  0  0  0  0  0  0  0  0  0  0  0
  138.9193   73.7450  222.6260 H   0  0  0  0  0  0  0  0  0  0  0  0
  138.9457   72.3678  221.4179 H   0  0  0  0  0  0  0  0  0  0  0  0
  141.2991   72.6947  224.3037 H   0  0  0  0  0  0  0  0  0  0  0  0
  141.4039   70.9882  226.0791 H   0  0  0  0  0  0  0  0  0  0  0  0
  137.9701   69.0716  224.4325 H   0  0  0  0  0  0  0  0  0  0  0  0
  137.8611   70.7781  222.6462 H   0  0  0  0  0  0  0  0  0  0  0  0
  1  2  2  0
  2  3  1  0
  3  4  2  0
  4  5  1  0
  5  6  2  0
  6  7  1  0
  7  8  2  0
  8  9  1  0
  9 10  2  0
 10 11  1  0
 11 12  2  0
 12 13  1  0
 13 14  2  0
 14 15  1  0
 15 16  2  0
 16 17  1  0
 17 18  2  0
 10 19  1  0
 19 20  1  0
 20 21  1  0
 21 22  2  0
 22 23  1  0
 23 24  2  0
 24 25  1  0
 24 26  1  0
 26 27  2  0
 19  2  1  0
 27 21  1  0
  8  3  1  0
 18 13  1  0
  4 28  1  0
  5 29  1  0
  6 30  1  0
  7 31  1  0
 11 32  1  0
 12 33  1  0
 14 34  1  0
 15 35  1  0
 16 36  1  0
 18 37  1  0
 20 38  1  0
 20 39  1  0
 22 40  1  0
 23 41  1  0
 26 42  1  0
 27 43  1  0
M  END
>  <smiles>  (39) 
O=c1c2ccccc2nc(/C=C/c2cccnc2)n1Cc1ccc(Cl)cc1

>  <score_type>  (39) 
oracle

>  <origin>  (39) 
autodockgpu

>  <m_score__min__energy>  (39) 
-7.75

>  <m_primary>  (39) 
energy

>  <rmsd>  (39) 
9.28976174477968

>  <m_score__min__rmsd>  (39) 
9.28976174477968

>  <meeko>  (39) 
{"free_energy": -7.6, "intermolecular_energy": -9.09, "internal_energy": -1.09, "cluster_size": 5, "cluster_id": 2, "rank_in_cluster": 1}

>  <energy>  (39) 
-6.83

>  <cluster_rmsd>  (39) 
1.94

>  <cluster>  (39) 
3

$$$$

     RDKit          3D

 43 46  0  0  0  0  0  0  0  0999 V2000
  140.3220   71.9160  225.0810 O   0  0  0  0  0  0  0  0  0  0  0  0
  139.7000   70.8290  225.0530 C   0  0  0  0  0  0  0  0  0  0  0  0
  139.9960   69.9460  226.0980 C   0  0  0  0  0  0  0  0  0  0  0  0
  140.9200   70.2870  227.0790 C   0  0  0  0  0  0  0  0  0  0  0  0
  141.1650   69.3680  228.0830 C   0  0  0  0  0  0  0  0  0  0  0  0
  140.5360   68.1400  228.1490 C   0  0  0  0  0  0  0  0  0  0  0  0
  139.6220   67.8080  227.1750 C   0  0  0  0  0  0  0  0  0  0  0  0
  139.3720   68.7180  226.1710 C   0  0  0  0  0  0  0  0  0  0  0  0
  138.4860   68.4360  225.1980 N   0  0  0  0  0  0  0  0  0  0  0  0
  138.2210   69.3020  224.2050 C   0  0  0  0  0  0  0  0  0  0  0  0
  137.2490   68.8470  223.1970 C   0  0  0  0  0  0  0  0  0  0  0  0
  135.9630   68.9110  223.4340 C   0  0  0  0  0  0  0  0  0  0  0  0
  135.3350   69.7810  224.4130 C   0  0  0  0  0  0  0  0  0  0  0  0
  134.7280   69.2690  225.5590 C   0  0  0  0  0  0  0  0  0  0  0  0
  134.1290   70.0910  226.4960 C   0  0  0  0  0  0  0  0  0  0  0  0
  134.1160   71.4570  226.3170 C   0  0  0  0  0  0  0  0  0  0  0  0
  134.7020   71.9520  225.2110 N   0  0  0  0  0  0  0  0  0  0  0  0
  135.2900   71.1600  224.2900 C   0  0  0  0  0  0  0  0  0  0  0  0
  138.8010   70.5100  224.0920 N   0  0  0  0  0  0  0  0  0  0  0  0
  138.5000   71.4580  223.0480 C   0  0  0  0  0  0  0  0  0  0  0  0
  139.6940   72.0290  222.3840 C   0  0  0  0  0  0  0  0  0  0  0  0
  139.9460   73.3660  222.2280 C   0  0  0  0  0  0  0  0  0  0  0  0
  141.0870   73.8460  221.5880 C   0  0  0  0  0  0  0  0  0  0  0  0
  142.0210   72.9890  221.0770 C   0  0  0  0  0  0  0  0  0  0  0  0
  143.4490   73.5880  220.2770 Cl  0  0  0  0  0  0  0  0  0  0  0  0
  141.7920   71.6380  221.2210 C   0  0  0  0  0  0  0  0  0  0  0  0
  140.6500   71.1580  221.8610 C   0  0  0  0  0  0  0  0  0  0  0  0
  141.4395   71.2564  227.0574 H   0  0  0  0  0  0  0  0  0  0  0  0
  141.8942   69.6268  228.8648 H   0  0  0  0  0  0  0  0  0  0  0  0
  140.7618   67.4392  228.9663 H   0  0  0  0  0  0  0  0  0  0  0  0
  139.1030   66.8384  227.1975 H   0  0  0  0  0  0  0  0  0  0  0  0
  137.6067   68.4495  222.2357 H   0  0  0  0  0  0  0  0  0  0  0  0
  135.3061   68.2539  222.8451 H   0  0  0  0  0  0  0  0  0  0  0  0
  134.7255   68.1812  225.7224 H   0  0  0  0  0  0  0  0  0  0  0  0
  133.6604   69.6518  227.3891 H   0  0  0  0  0  0  0  0  0  0  0  0
  133.6420   72.1217  227.0542 H   0  0  0  0  0  0  0  0  0  0  0  0
  135.7513   71.6275  223.4076 H   0  0  0  0  0  0  0  0  0  0  0  0
  137.8912   70.9499  222.2856 H   0  0  0  0  0  0  0  0  0  0  0  0
  137.9722   72.2968  223.5253 H   0  0  0  0  0  0  0  0  0  0  0  0
  139.2186   74.0900  222.6237 H   0  0  0  0  0  0  0  0  0  0  0  0
  141.2383   74.9314  221.4926 H   0  0  0  0  0  0  0  0  0  0  0  0
  142.5262   70.9224  220.8223 H   0  0  0  0  0  0  0  0  0  0  0  0
  140.5001   70.0723  221.9552 H   0  0  0  0  0  0  0  0  0  0  0  0
  1  2  2  0
  2  3  1  0
  3  4  2  0
  4  5  1  0
  5  6  2  0
  6  7  1  0
  7  8  2  0
  8  9  1  0
  9 10  2  0
 10 11  1  0
 11 12  2  0
 12 13  1  0
 13 14  2  0
 14 15  1  0
 15 16  2  0
 16 17  1  0
 17 18  2  0
 10 19  1  0
 19 20  1  0
 20 21  1  0
 21 22  2  0
 22 23  1  0
 23 24  2  0
 24 25  1  0
 24 26  1  0
 26 27  2  0
 19  2  1  0
 27 21  1  0
  8  3  1  0
 18 13  1  0
  4 28  1  0
  5 29  1  0
  6 30  1  0
  7 31  1  0
 11 32  1  0
 12 33  1  0
 14 34  1  0
 15 35  1  0
 16 36  1  0
 18 37  1  0
 20 38  1  0
 20 39  1  0
 22 40  1  0
 23 41  1  0
 26 42  1  0
 27 43  1  0
M  END
>  <smiles>  (40) 
O=c1c2ccccc2nc(/C=C/c2cccnc2)n1Cc1ccc(Cl)cc1

>  <score_type>  (40) 
oracle

>  <origin>  (40) 
autodockgpu

>  <m_score__min__energy>  (40) 
-7.75

>  <m_primary>  (40) 
energy

>  <rmsd>  (40) 
10.200764853833288

>  <m_score__min__rmsd>  (40) 
10.200764853833288

>  <meeko>  (40) 
{"free_energy": -6.99, "intermolecular_energy": -8.49, "internal_energy": -1.44, "cluster_size": 30, "cluster_id": 3, "rank_in_cluster": 29}

>  <energy>  (40) 
-7.54

>  <cluster_rmsd>  (40) 
0.0

>  <cluster>  (40) 
4

$$$$

     RDKit          3D

 43 46  0  0  0  0  0  0  0  0999 V2000
  140.4930   72.1300  224.1190 O   0  0  0  0  0  0  0  0  0  0  0  0
  139.7720   71.1590  224.4500 C   0  0  0  0  0  0  0  0  0  0  0  0
  139.9720   70.6860  225.7520 C   0  0  0  0  0  0  0  0  0  0  0  0
  140.9110   71.2770  226.5890 C   0  0  0  0  0  0  0  0  0  0  0  0
  141.0570   70.7590  227.8630 C   0  0  0  0  0  0  0  0  0  0  0  0
  140.3160   69.6920  228.3310 C   0  0  0  0  0  0  0  0  0  0  0  0
  139.3870   69.1120  227.4980 C   0  0  0  0  0  0  0  0  0  0  0  0
  139.2350   69.6210  226.2270 C   0  0  0  0  0  0  0  0  0  0  0  0
  138.3390   69.0840  225.3780 N   0  0  0  0  0  0  0  0  0  0  0  0
  138.1680   69.5580  224.1310 C   0  0  0  0  0  0  0  0  0  0  0  0
  137.1710   68.8550  223.3080 C   0  0  0  0  0  0  0  0  0  0  0  0
  135.9160   69.2320  223.3130 C   0  0  0  0  0  0  0  0  0  0  0  0
  135.1770   69.6650  224.4860 C   0  0  0  0  0  0  0  0  0  0  0  0
  134.9870   71.0180  224.7680 C   0  0  0  0  0  0  0  0  0  0  0  0
  134.2840   71.4380  225.8810 C   0  0  0  0  0  0  0  0  0  0  0  0
  133.7460   70.5170  226.7540 C   0  0  0  0  0  0  0  0  0  0  0  0
  133.9300   69.2120  226.4830 N   0  0  0  0  0  0  0  0  0  0  0  0
  134.6140   68.7890  225.3980 C   0  0  0  0  0  0  0  0  0  0  0  0
  138.8590   70.5940  223.6250 N   0  0  0  0  0  0  0  0  0  0  0  0
  138.6600   71.1290  222.3000 C   0  0  0  0  0  0  0  0  0  0  0  0
  138.2030   72.5380  222.2770 C   0  0  0  0  0  0  0  0  0  0  0  0
  138.9810   73.6130  221.9390 C   0  0  0  0  0  0  0  0  0  0  0  0
  138.4970   74.9200  221.9410 C   0  0  0  0  0  0  0  0  0  0  0  0
  137.2030   75.1910  222.2870 C   0  0  0  0  0  0  0  0  0  0  0  0
  136.5970   76.8250  222.2890 Cl  0  0  0  0  0  0  0  0  0  0  0  0
  136.3980   74.1270  222.6310 C   0  0  0  0  0  0  0  0  0  0  0  0
  136.8830   72.8190  222.6300 C   0  0  0  0  0  0  0  0  0  0  0  0
  141.5182   72.1290  226.2493 H   0  0  0  0  0  0  0  0  0  0  0  0
  141.7976   71.2182  228.5344 H   0  0  0  0  0  0  0  0  0  0  0  0
  140.4658   69.3121  229.3524 H   0  0  0  0  0  0  0  0  0  0  0  0
  138.7793   68.2610  227.8393 H   0  0  0  0  0  0  0  0  0  0  0  0
  137.4821   68.0051  222.6828 H   0  0  0  0  0  0  0  0  0  0  0  0
  135.3797   69.2195  222.3527 H   0  0  0  0  0  0  0  0  0  0  0  0
  135.4083   71.7710  224.0857 H   0  0  0  0  0  0  0  0  0  0  0  0
  134.1530   72.5135  226.0714 H   0  0  0  0  0  0  0  0  0  0  0  0
  133.1844   70.8385  227.6435 H   0  0  0  0  0  0  0  0  0  0  0  0
  134.7280   67.7075  225.2328 H   0  0  0  0  0  0  0  0  0  0  0  0
  139.6139   71.0667  221.7558 H   0  0  0  0  0  0  0  0  0  0  0  0
  137.8637   70.5305  221.8335 H   0  0  0  0  0  0  0  0  0  0  0  0
  140.0292   73.4381  221.6547 H   0  0  0  0  0  0  0  0  0  0  0  0
  139.1668   75.7460  221.6598 H   0  0  0  0  0  0  0  0  0  0  0  0
  135.3509   74.3128  222.9123 H   0  0  0  0  0  0  0  0  0  0  0  0
  136.2124   71.9942  222.9127 H   0  0  0  0  0  0  0  0  0  0  0  0
  1  2  2  0
  2  3  1  0
  3  4  2  0
  4  5  1  0
  5  6  2  0
  6  7  1  0
  7  8  2  0
  8  9  1  0
  9 10  2  0
 10 11  1  0
 11 12  2  0
 12 13  1  0
 13 14  2  0
 14 15  1  0
 15 16  2  0
 16 17  1  0
 17 18  2  0
 10 19  1  0
 19 20  1  0
 20 21  1  0
 21 22  2  0
 22 23  1  0
 23 24  2  0
 24 25  1  0
 24 26  1  0
 26 27  2  0
 19  2  1  0
 27 21  1  0
  8  3  1  0
 18 13  1  0
  4 28  1  0
  5 29  1  0
  6 30  1  0
  7 31  1  0
 11 32  1  0
 12 33  1  0
 14 34  1  0
 15 35  1  0
 16 36  1  0
 18 37  1  0
 20 38  1  0
 20 39  1  0
 22 40  1  0
 23 41  1  0
 26 42  1  0
 27 43  1  0
M  END
>  <smiles>  (41) 
O=c1c2ccccc2nc(/C=C/c2cccnc2)n1Cc1ccc(Cl)cc1

>  <score_type>  (41) 
oracle

>  <origin>  (41) 
autodockgpu

>  <m_score__min__energy>  (41) 
-7.75

>  <m_primary>  (41) 
energy

>  <rmsd>  (41) 
9.387929070214279

>  <m_score__min__rmsd>  (41) 
9.387929070214279

>  <meeko>  (41) 
{"free_energy": -6.83, "intermolecular_energy": -8.32, "internal_energy": -1.72, "cluster_size": 30, "cluster_id": 3, "rank_in_cluster": 30}

>  <energy>  (41) 
-7.53

>  <cluster_rmsd>  (41) 
0.19

>  <cluster>  (41) 
4

$$$$

     RDKit          3D

 43 46  0  0  0  0  0  0  0  0999 V2000
  140.2370   71.8960  225.0830 O   0  0  0  0  0  0  0  0  0  0  0  0
  139.6250   70.8020  225.0660 C   0  0  0  0  0  0  0  0  0  0  0  0
  139.9330   69.9310  226.1170 C   0  0  0  0  0  0  0  0  0  0  0  0
  140.8570   70.2890  227.0930 C   0  0  0  0  0  0  0  0  0  0  0  0
  141.1140   69.3810  228.1030 C   0  0  0  0  0  0  0  0  0  0  0  0
  140.4970   68.1470  228.1810 C   0  0  0  0  0  0  0  0  0  0  0  0
  139.5830   67.7990  227.2130 C   0  0  0  0  0  0  0  0  0  0  0  0
  139.3210   68.6970  226.2030 C   0  0  0  0  0  0  0  0  0  0  0  0
  138.4350   68.3980  225.2350 N   0  0  0  0  0  0  0  0  0  0  0  0
  138.1580   69.2540  224.2350 C   0  0  0  0  0  0  0  0  0  0  0  0
  137.1880   68.7810  223.2340 C   0  0  0  0  0  0  0  0  0  0  0  0
  135.9450   69.1920  223.2630 C   0  0  0  0  0  0  0  0  0  0  0  0
  135.2230   69.5910  224.4590 C   0  0  0  0  0  0  0  0  0  0  0  0
  135.0440   70.9350  224.7870 C   0  0  0  0  0  0  0  0  0  0  0  0
  134.3580   71.3220  225.9230 C   0  0  0  0  0  0  0  0  0  0  0  0
  133.8260   70.3760  226.7730 C   0  0  0  0  0  0  0  0  0  0  0  0
  133.9990   69.0790  226.4560 N   0  0  0  0  0  0  0  0  0  0  0  0
  134.6670   68.6890  225.3500 C   0  0  0  0  0  0  0  0  0  0  0  0
  138.7260   70.4660  224.1110 N   0  0  0  0  0  0  0  0  0  0  0  0
  138.4120   71.4030  223.0590 C   0  0  0  0  0  0  0  0  0  0  0  0
  139.5990   71.9780  222.3840 C   0  0  0  0  0  0  0  0  0  0  0  0
  140.6670   71.2570  221.9190 C   0  0  0  0  0  0  0  0  0  0  0  0
  141.7610   71.8540  221.2950 C   0  0  0  0  0  0  0  0  0  0  0  0
  141.8180   73.2080  221.1180 C   0  0  0  0  0  0  0  0  0  0  0  0
  143.1860   73.9550  220.3370 Cl  0  0  0  0  0  0  0  0  0  0  0  0
  140.7560   73.9560  221.5760 C   0  0  0  0  0  0  0  0  0  0  0  0
  139.6610   73.3590  222.2010 C   0  0  0  0  0  0  0  0  0  0  0  0
  141.3668   71.2633  227.0621 H   0  0  0  0  0  0  0  0  0  0  0  0
  141.8431   69.6532  228.8803 H   0  0  0  0  0  0  0  0  0  0  0  0
  140.7324   67.4548  229.0028 H   0  0  0  0  0  0  0  0  0  0  0  0
  139.0730   66.8249  227.2455 H   0  0  0  0  0  0  0  0  0  0  0  0
  137.5104   68.0755  222.4540 H   0  0  0  0  0  0  0  0  0  0  0  0
  135.4047   69.2389  222.3060 H   0  0  0  0  0  0  0  0  0  0  0  0
  135.4600   71.7077  224.1238 H   0  0  0  0  0  0  0  0  0  0  0  0
  134.2359   72.3913  226.1501 H   0  0  0  0  0  0  0  0  0  0  0  0
  133.2783   70.6711  227.6802 H   0  0  0  0  0  0  0  0  0  0  0  0
  134.7738   67.6129  225.1488 H   0  0  0  0  0  0  0  0  0  0  0  0
  137.8039   70.8831  222.3041 H   0  0  0  0  0  0  0  0  0  0  0  0
  137.8795   72.2417  223.5311 H   0  0  0  0  0  0  0  0  0  0  0  0
  140.6609   70.1640  222.0430 H   0  0  0  0  0  0  0  0  0  0  0  0
  142.5911   71.2259  220.9396 H   0  0  0  0  0  0  0  0  0  0  0  0
  140.7716   75.0482  221.4461 H   0  0  0  0  0  0  0  0  0  0  0  0
  138.8318   73.9888  222.5557 H   0  0  0  0  0  0  0  0  0  0  0  0
  1  2  2  0
  2  3  1  0
  3  4  2  0
  4  5  1  0
  5  6  2  0
  6  7  1  0
  7  8  2  0
  8  9  1  0
  9 10  2  0
 10 11  1  0
 11 12  2  0
 12 13  1  0
 13 14  2  0
 14 15  1  0
 15 16  2  0
 16 17  1  0
 17 18  2  0
 10 19  1  0
 19 20  1  0
 20 21  1  0
 21 22  2  0
 22 23  1  0
 23 24  2  0
 24 25  1  0
 24 26  1  0
 26 27  2  0
 19  2  1  0
 27 21  1  0
  8  3  1  0
 18 13  1  0
  4 28  1  0
  5 29  1  0
  6 30  1  0
  7 31  1  0
 11 32  1  0
 12 33  1  0
 14 34  1  0
 15 35  1  0
 16 36  1  0
 18 37  1  0
 20 38  1  0
 20 39  1  0
 22 40  1  0
 23 41  1  0
 26 42  1  0
 27 43  1  0
M  END
>  <smiles>  (42) 
O=c1c2ccccc2nc(/C=C/c2cccnc2)n1Cc1ccc(Cl)cc1

>  <score_type>  (42) 
oracle

>  <origin>  (42) 
autodockgpu

>  <m_score__min__energy>  (42) 
-7.75

>  <m_primary>  (42) 
energy

>  <rmsd>  (42) 
10.064177532261569

>  <m_score__min__rmsd>  (42) 
10.064177532261569

>  <meeko>  (42) 
{"free_energy": -7.56, "intermolecular_energy": -9.05, "internal_energy": -1.39, "cluster_size": 30, "cluster_id": 3, "rank_in_cluster": 7}

>  <energy>  (42) 
-7.5

>  <cluster_rmsd>  (42) 
0.43

>  <cluster>  (42) 
4

$$$$

     RDKit          3D

 43 46  0  0  0  0  0  0  0  0999 V2000
  140.3360   71.9020  225.0870 O   0  0  0  0  0  0  0  0  0  0  0  0
  139.7000   70.8220  225.0870 C   0  0  0  0  0  0  0  0  0  0  0  0
  140.0140   69.9450  226.1320 C   0  0  0  0  0  0  0  0  0  0  0  0
  140.9680   70.2840  227.0840 C   0  0  0  0  0  0  0  0  0  0  0  0
  141.2300   69.3710  228.0900 C   0  0  0  0  0  0  0  0  0  0  0  0
  140.5880   68.1520  228.1840 C   0  0  0  0  0  0  0  0  0  0  0  0
  139.6440   67.8220  227.2390 C   0  0  0  0  0  0  0  0  0  0  0  0
  139.3780   68.7250  226.2330 C   0  0  0  0  0  0  0  0  0  0  0  0
  138.4630   68.4450  225.2870 N   0  0  0  0  0  0  0  0  0  0  0  0
  138.1800   69.3050  224.2930 C   0  0  0  0  0  0  0  0  0  0  0  0
  137.1770   68.8520  223.3160 C   0  0  0  0  0  0  0  0  0  0  0  0
  135.9680   69.3550  223.3200 C   0  0  0  0  0  0  0  0  0  0  0  0
  135.2160   69.7170  224.5100 C   0  0  0  0  0  0  0  0  0  0  0  0
  135.0120   71.0500  224.8640 C   0  0  0  0  0  0  0  0  0  0  0  0
  134.2970   71.4020  225.9940 C   0  0  0  0  0  0  0  0  0  0  0  0
  133.7600   70.4300  226.8100 C   0  0  0  0  0  0  0  0  0  0  0  0
  133.9570   69.1430  226.4680 N   0  0  0  0  0  0  0  0  0  0  0  0
  134.6530   68.7870  225.3670 C   0  0  0  0  0  0  0  0  0  0  0  0
  138.7720   70.5050  224.1540 N   0  0  0  0  0  0  0  0  0  0  0  0
  138.4530   71.4470  223.1080 C   0  0  0  0  0  0  0  0  0  0  0  0
  139.6370   72.0170  222.4240 C   0  0  0  0  0  0  0  0  0  0  0  0
  139.8870   73.3540  222.2660 C   0  0  0  0  0  0  0  0  0  0  0  0
  141.0180   73.8330  221.6060 C   0  0  0  0  0  0  0  0  0  0  0  0
  141.9420   72.9750  221.0790 C   0  0  0  0  0  0  0  0  0  0  0  0
  143.3560   73.5740  220.2550 Cl  0  0  0  0  0  0  0  0  0  0  0  0
  141.7140   71.6250  221.2250 C   0  0  0  0  0  0  0  0  0  0  0  0
  140.5820   71.1450  221.8840 C   0  0  0  0  0  0  0  0  0  0  0  0
  141.4977   71.2470  227.0392 H   0  0  0  0  0  0  0  0  0  0  0  0
  141.9836   69.6277  228.8491 H   0  0  0  0  0  0  0  0  0  0  0  0
  140.8275   67.4559  229.0014 H   0  0  0  0  0  0  0  0  0  0  0  0
  139.1138   66.8593  227.2856 H   0  0  0  0  0  0  0  0  0  0  0  0
  137.4453   68.0839  222.5757 H   0  0  0  0  0  0  0  0  0  0  0  0
  135.4832   69.5163  222.3459 H   0  0  0  0  0  0  0  0  0  0  0  0
  135.4311   71.8430  224.2272 H   0  0  0  0  0  0  0  0  0  0  0  0
  134.1560   72.4641  226.2430 H   0  0  0  0  0  0  0  0  0  0  0  0
  133.1890   70.6971  227.7114 H   0  0  0  0  0  0  0  0  0  0  0  0
  134.7773   67.7173  225.1426 H   0  0  0  0  0  0  0  0  0  0  0  0
  137.8348   70.9330  222.3573 H   0  0  0  0  0  0  0  0  0  0  0  0
  137.9293   72.2872  223.5874 H   0  0  0  0  0  0  0  0  0  0  0  0
  139.1676   74.0783  222.6757 H   0  0  0  0  0  0  0  0  0  0  0  0
  141.1688   74.9182  221.5080 H   0  0  0  0  0  0  0  0  0  0  0  0
  142.4405   70.9092  220.8129 H   0  0  0  0  0  0  0  0  0  0  0  0
  140.4321   70.0594  221.9794 H   0  0  0  0  0  0  0  0  0  0  0  0
  1  2  2  0
  2  3  1  0
  3  4  2  0
  4  5  1  0
  5  6  2  0
  6  7  1  0
  7  8  2  0
  8  9  1  0
  9 10  2  0
 10 11  1  0
 11 12  2  0
 12 13  1  0
 13 14  2  0
 14 15  1  0
 15 16  2  0
 16 17  1  0
 17 18  2  0
 10 19  1  0
 19 20  1  0
 20 21  1  0
 21 22  2  0
 22 23  1  0
 23 24  2  0
 24 25  1  0
 24 26  1  0
 26 27  2  0
 19  2  1  0
 27 21  1  0
  8  3  1  0
 18 13  1  0
  4 28  1  0
  5 29  1  0
  6 30  1  0
  7 31  1  0
 11 32  1  0
 12 33  1  0
 14 34  1  0
 15 35  1  0
 16 36  1  0
 18 37  1  0
 20 38  1  0
 20 39  1  0
 22 40  1  0
 23 41  1  0
 26 42  1  0
 27 43  1  0
M  END
>  <smiles>  (43) 
O=c1c2ccccc2nc(/C=C/c2cccnc2)n1Cc1ccc(Cl)cc1

>  <score_type>  (43) 
oracle

>  <origin>  (43) 
autodockgpu

>  <m_score__min__energy>  (43) 
-7.75

>  <m_primary>  (43) 
energy

>  <rmsd>  (43) 
10.212310675348748

>  <m_score__min__rmsd>  (43) 
10.212310675348748

>  <meeko>  (43) 
{"free_energy": -7.55, "intermolecular_energy": -9.04, "internal_energy": -1.35, "cluster_size": 30, "cluster_id": 3, "rank_in_cluster": 10}

>  <energy>  (43) 
-7.48

>  <cluster_rmsd>  (43) 
1.93

>  <cluster>  (43) 
4

$$$$

     RDKit          3D

 43 46  0  0  0  0  0  0  0  0999 V2000
  140.2260   71.9040  225.0780 O   0  0  0  0  0  0  0  0  0  0  0  0
  139.6230   70.8050  225.0620 C   0  0  0  0  0  0  0  0  0  0  0  0
  139.9370   69.9380  226.1150 C   0  0  0  0  0  0  0  0  0  0  0  0
  140.8560   70.3050  227.0910 C   0  0  0  0  0  0  0  0  0  0  0  0
  141.1200   69.4000  228.1030 C   0  0  0  0  0  0  0  0  0  0  0  0
  140.5130   68.1620  228.1820 C   0  0  0  0  0  0  0  0  0  0  0  0
  139.6030   67.8040  227.2140 C   0  0  0  0  0  0  0  0  0  0  0  0
  139.3350   68.7000  226.2010 C   0  0  0  0  0  0  0  0  0  0  0  0
  138.4530   68.3920  225.2320 N   0  0  0  0  0  0  0  0  0  0  0  0
  138.1700   69.2440  224.2310 C   0  0  0  0  0  0  0  0  0  0  0  0
  137.2060   68.7610  223.2300 C   0  0  0  0  0  0  0  0  0  0  0  0
  135.9570   69.1560  223.2620 C   0  0  0  0  0  0  0  0  0  0  0  0
  135.2460   69.5860  224.4530 C   0  0  0  0  0  0  0  0  0  0  0  0
  135.0760   70.9380  224.7510 C   0  0  0  0  0  0  0  0  0  0  0  0
  134.4000   71.3550  225.8820 C   0  0  0  0  0  0  0  0  0  0  0  0
  133.8680   70.4320  226.7570 C   0  0  0  0  0  0  0  0  0  0  0  0
  134.0320   69.1270  226.4690 N   0  0  0  0  0  0  0  0  0  0  0  0
  134.6900   68.7070  225.3680 C   0  0  0  0  0  0  0  0  0  0  0  0
  138.7290   70.4610  224.1060 N   0  0  0  0  0  0  0  0  0  0  0  0
  138.4080   71.3930  223.0530 C   0  0  0  0  0  0  0  0  0  0  0  0
  139.5910   71.9820  222.3840 C   0  0  0  0  0  0  0  0  0  0  0  0
  140.6610   71.2730  221.9070 C   0  0  0  0  0  0  0  0  0  0  0  0
  141.7510   71.8840  221.2890 C   0  0  0  0  0  0  0  0  0  0  0  0
  141.8020   73.2410  221.1300 C   0  0  0  0  0  0  0  0  0  0  0  0
  143.1650   74.0040  220.3580 Cl  0  0  0  0  0  0  0  0  0  0  0  0
  140.7370   73.9770  221.6000 C   0  0  0  0  0  0  0  0  0  0  0  0
  139.6460   73.3670  222.2190 C   0  0  0  0  0  0  0  0  0  0  0  0
  141.3572   71.2837  227.0596 H   0  0  0  0  0  0  0  0  0  0  0  0
  141.8465   69.6790  228.8804 H   0  0  0  0  0  0  0  0  0  0  0  0
  140.7531   67.4733  229.0054 H   0  0  0  0  0  0  0  0  0  0  0  0
  139.1011   66.8258  227.2476 H   0  0  0  0  0  0  0  0  0  0  0  0
  137.5367   68.0620  222.4477 H   0  0  0  0  0  0  0  0  0  0  0  0
  135.4033   69.1624  222.3115 H   0  0  0  0  0  0  0  0  0  0  0  0
  135.4913   71.6929  224.0672 H   0  0  0  0  0  0  0  0  0  0  0  0
  134.2857   72.4300  226.0853 H   0  0  0  0  0  0  0  0  0  0  0  0
  133.3275   70.7511  227.6604 H   0  0  0  0  0  0  0  0  0  0  0  0
  134.7885   67.6259  225.1905 H   0  0  0  0  0  0  0  0  0  0  0  0
  137.8100   70.8654  222.2954 H   0  0  0  0  0  0  0  0  0  0  0  0
  137.8623   72.2251  223.5219 H   0  0  0  0  0  0  0  0  0  0  0  0
  140.6604   70.1784  222.0157 H   0  0  0  0  0  0  0  0  0  0  0  0
  142.5833   71.2645  220.9235 H   0  0  0  0  0  0  0  0  0  0  0  0
  140.7470   75.0709  221.4846 H   0  0  0  0  0  0  0  0  0  0  0  0
  138.8145   73.9881  222.5834 H   0  0  0  0  0  0  0  0  0  0  0  0
  1  2  2  0
  2  3  1  0
  3  4  2  0
  4  5  1  0
  5  6  2  0
  6  7  1  0
  7  8  2  0
  8  9  1  0
  9 10  2  0
 10 11  1  0
 11 12  2  0
 12 13  1  0
 13 14  2  0
 14 15  1  0
 15 16  2  0
 16 17  1  0
 17 18  2  0
 10 19  1  0
 19 20  1  0
 20 21  1  0
 21 22  2  0
 22 23  1  0
 23 24  2  0
 24 25  1  0
 24 26  1  0
 26 27  2  0
 19  2  1  0
 27 21  1  0
  8  3  1  0
 18 13  1  0
  4 28  1  0
  5 29  1  0
  6 30  1  0
  7 31  1  0
 11 32  1  0
 12 33  1  0
 14 34  1  0
 15 35  1  0
 16 36  1  0
 18 37  1  0
 20 38  1  0
 20 39  1  0
 22 40  1  0
 23 41  1  0
 26 42  1  0
 27 43  1  0
M  END
>  <smiles>  (44) 
O=c1c2ccccc2nc(/C=C/c2cccnc2)n1Cc1ccc(Cl)cc1

>  <score_type>  (44) 
oracle

>  <origin>  (44) 
autodockgpu

>  <m_score__min__energy>  (44) 
-7.75

>  <m_primary>  (44) 
energy

>  <rmsd>  (44) 
10.054146189885229

>  <m_score__min__rmsd>  (44) 
10.054146189885229

>  <meeko>  (44) 
{"free_energy": -7.54, "intermolecular_energy": -9.03, "internal_energy": -1.4, "cluster_size": 30, "cluster_id": 3, "rank_in_cluster": 12}

>  <energy>  (44) 
-7.47

>  <cluster_rmsd>  (44) 
1.95

>  <cluster>  (44) 
4

$$$$

     RDKit          3D

 43 46  0  0  0  0  0  0  0  0999 V2000
  140.2290   71.8960  225.1110 O   0  0  0  0  0  0  0  0  0  0  0  0
  139.6160   70.8040  225.0950 C   0  0  0  0  0  0  0  0  0  0  0  0
  139.9270   69.9290  226.1430 C   0  0  0  0  0  0  0  0  0  0  0  0
  140.8550   70.2840  227.1150 C   0  0  0  0  0  0  0  0  0  0  0  0
  141.1150   69.3730  228.1230 C   0  0  0  0  0  0  0  0  0  0  0  0
  140.4970   68.1410  228.2010 C   0  0  0  0  0  0  0  0  0  0  0  0
  139.5780   67.7960  227.2360 C   0  0  0  0  0  0  0  0  0  0  0  0
  139.3130   68.6970  226.2280 C   0  0  0  0  0  0  0  0  0  0  0  0
  138.4230   68.4010  225.2630 N   0  0  0  0  0  0  0  0  0  0  0  0
  138.1430   69.2600  224.2670 C   0  0  0  0  0  0  0  0  0  0  0  0
  137.1680   68.7900  223.2690 C   0  0  0  0  0  0  0  0  0  0  0  0
  135.9330   69.2260  223.2860 C   0  0  0  0  0  0  0  0  0  0  0  0
  135.2010   69.6180  224.4780 C   0  0  0  0  0  0  0  0  0  0  0  0
  135.0190   70.9600  224.8120 C   0  0  0  0  0  0  0  0  0  0  0  0
  134.3220   71.3410  225.9440 C   0  0  0  0  0  0  0  0  0  0  0  0
  133.7830   70.3900  226.7830 C   0  0  0  0  0  0  0  0  0  0  0  0
  133.9590   69.0950  226.4610 N   0  0  0  0  0  0  0  0  0  0  0  0
  134.6370   68.7100  225.3590 C   0  0  0  0  0  0  0  0  0  0  0  0
  138.7130   70.4710  224.1430 N   0  0  0  0  0  0  0  0  0  0  0  0
  138.3950   71.4110  223.0940 C   0  0  0  0  0  0  0  0  0  0  0  0
  139.5800   71.9870  222.4170 C   0  0  0  0  0  0  0  0  0  0  0  0
  140.6480   71.2670  221.9500 C   0  0  0  0  0  0  0  0  0  0  0  0
  141.7400   71.8660  221.3240 C   0  0  0  0  0  0  0  0  0  0  0  0
  141.7950   73.2200  221.1470 C   0  0  0  0  0  0  0  0  0  0  0  0
  143.1610   73.9690  220.3640 Cl  0  0  0  0  0  0  0  0  0  0  0  0
  140.7340   73.9670  221.6070 C   0  0  0  0  0  0  0  0  0  0  0  0
  139.6410   73.3680  222.2340 C   0  0  0  0  0  0  0  0  0  0  0  0
  141.3660   71.2576  227.0837 H   0  0  0  0  0  0  0  0  0  0  0  0
  141.8477   69.6426  228.8979 H   0  0  0  0  0  0  0  0  0  0  0  0
  140.7349   67.4468  229.0204 H   0  0  0  0  0  0  0  0  0  0  0  0
  139.0666   66.8226  227.2689 H   0  0  0  0  0  0  0  0  0  0  0  0
  137.4796   68.0659  222.5018 H   0  0  0  0  0  0  0  0  0  0  0  0
  135.4089   69.3013  222.3218 H   0  0  0  0  0  0  0  0  0  0  0  0
  135.4414   71.7364  224.1571 H   0  0  0  0  0  0  0  0  0  0  0  0
  134.1972   72.4090  226.1759 H   0  0  0  0  0  0  0  0  0  0  0  0
  133.2269   70.6798  227.6867 H   0  0  0  0  0  0  0  0  0  0  0  0
  134.7456   67.6350  225.1529 H   0  0  0  0  0  0  0  0  0  0  0  0
  137.7843   70.8931  222.3398 H   0  0  0  0  0  0  0  0  0  0  0  0
  137.8637   72.2486  223.5696 H   0  0  0  0  0  0  0  0  0  0  0  0
  140.6436   70.1740  222.0738 H   0  0  0  0  0  0  0  0  0  0  0  0
  142.5704   71.2391  220.9669 H   0  0  0  0  0  0  0  0  0  0  0  0
  140.7483   75.0593  221.4774 H   0  0  0  0  0  0  0  0  0  0  0  0
  138.8119   73.9969  222.5906 H   0  0  0  0  0  0  0  0  0  0  0  0
  1  2  2  0
  2  3  1  0
  3  4  2  0
  4  5  1  0
  5  6  2  0
  6  7  1  0
  7  8  2  0
  8  9  1  0
  9 10  2  0
 10 11  1  0
 11 12  2  0
 12 13  1  0
 13 14  2  0
 14 15  1  0
 15 16  2  0
 16 17  1  0
 17 18  2  0
 10 19  1  0
 19 20  1  0
 20 21  1  0
 21 22  2  0
 22 23  1  0
 23 24  2  0
 24 25  1  0
 24 26  1  0
 26 27  2  0
 19  2  1  0
 27 21  1  0
  8  3  1  0
 18 13  1  0
  4 28  1  0
  5 29  1  0
  6 30  1  0
  7 31  1  0
 11 32  1  0
 12 33  1  0
 14 34  1  0
 15 35  1  0
 16 36  1  0
 18 37  1  0
 20 38  1  0
 20 39  1  0
 22 40  1  0
 23 41  1  0
 26 42  1  0
 27 43  1  0
M  END
>  <smiles>  (45) 
O=c1c2ccccc2nc(/C=C/c2cccnc2)n1Cc1ccc(Cl)cc1

>  <score_type>  (45) 
oracle

>  <origin>  (45) 
autodockgpu

>  <m_score__min__energy>  (45) 
-7.75

>  <m_primary>  (45) 
energy

>  <rmsd>  (45) 
10.069445696726065

>  <m_score__min__rmsd>  (45) 
10.069445696726065

>  <meeko>  (45) 
{"free_energy": -7.58, "intermolecular_energy": -9.07, "internal_energy": -1.38, "cluster_size": 30, "cluster_id": 3, "rank_in_cluster": 4}

>  <energy>  (45) 
-7.43

>  <cluster_rmsd>  (45) 
0.0

>  <cluster>  (45) 
5

$$$$

     RDKit          3D

 43 46  0  0  0  0  0  0  0  0999 V2000
  141.4750   71.0920  221.2390 O   0  0  0  0  0  0  0  0  0  0  0  0
  141.6470   72.3340  221.2400 C   0  0  0  0  0  0  0  0  0  0  0  0
  142.9140   72.7600  220.8220 C   0  0  0  0  0  0  0  0  0  0  0  0
  143.8840   71.8410  220.4390 C   0  0  0  0  0  0  0  0  0  0  0  0
  145.1130   72.3300  220.0360 C   0  0  0  0  0  0  0  0  0  0  0  0
  145.4120   73.6780  220.0000 C   0  0  0  0  0  0  0  0  0  0  0  0
  144.4460   74.5830  220.3780 C   0  0  0  0  0  0  0  0  0  0  0  0
  143.2190   74.1040  220.7810 C   0  0  0  0  0  0  0  0  0  0  0  0
  142.2460   74.9530  221.1620 N   0  0  0  0  0  0  0  0  0  0  0  0
  141.0370   74.5170  221.5600 C   0  0  0  0  0  0  0  0  0  0  0  0
  140.0820   75.5580  221.9710 C   0  0  0  0  0  0  0  0  0  0  0  0
  140.1650   76.7700  221.4820 C   0  0  0  0  0  0  0  0  0  0  0  0
  140.9870   77.8370  222.0260 C   0  0  0  0  0  0  0  0  0  0  0  0
  141.4120   78.9040  221.2340 C   0  0  0  0  0  0  0  0  0  0  0  0
  142.1930   79.9240  221.7450 C   0  0  0  0  0  0  0  0  0  0  0  0
  142.5780   79.9120  223.0690 C   0  0  0  0  0  0  0  0  0  0  0  0
  142.1680   78.8820  223.8320 N   0  0  0  0  0  0  0  0  0  0  0  0
  141.4050   77.8810  223.3450 C   0  0  0  0  0  0  0  0  0  0  0  0
  140.6930   73.2180  221.6140 N   0  0  0  0  0  0  0  0  0  0  0  0
  139.3890   72.7430  222.0100 C   0  0  0  0  0  0  0  0  0  0  0  0
  139.4140   71.7520  223.1110 C   0  0  0  0  0  0  0  0  0  0  0  0
  138.5390   70.7080  223.2500 C   0  0  0  0  0  0  0  0  0  0  0  0
  138.6080   69.8080  224.3130 C   0  0  0  0  0  0  0  0  0  0  0  0
  139.5660   69.9310  225.2790 C   0  0  0  0  0  0  0  0  0  0  0  0
  139.6530   68.8060  226.6070 Cl  0  0  0  0  0  0  0  0  0  0  0  0
  140.4600   70.9730  225.1620 C   0  0  0  0  0  0  0  0  0  0  0  0
  140.3910   71.8740  224.0990 C   0  0  0  0  0  0  0  0  0  0  0  0
  143.6806   70.7601  220.4559 H   0  0  0  0  0  0  0  0  0  0  0  0
  145.8884   71.6123  219.7299 H   0  0  0  0  0  0  0  0  0  0  0  0
  146.4048   74.0224  219.6749 H   0  0  0  0  0  0  0  0  0  0  0  0
  144.6493   75.6639  220.3587 H   0  0  0  0  0  0  0  0  0  0  0  0
  139.2908   75.3160  222.6959 H   0  0  0  0  0  0  0  0  0  0  0  0
  139.5649   76.9981  220.5888 H   0  0  0  0  0  0  0  0  0  0  0  0
  141.1178   78.9346  220.1745 H   0  0  0  0  0  0  0  0  0  0  0  0
  142.5092   80.7503  221.0913 H   0  0  0  0  0  0  0  0  0  0  0  0
  143.1995   80.7174  223.4876 H   0  0  0  0  0  0  0  0  0  0  0  0
  141.1035   77.0685  224.0225 H   0  0  0  0  0  0  0  0  0  0  0  0
  138.7913   73.6068  222.3365 H   0  0  0  0  0  0  0  0  0  0  0  0
  138.9582   72.2339  221.1352 H   0  0  0  0  0  0  0  0  0  0  0  0
  137.7513   70.5740  222.4940 H   0  0  0  0  0  0  0  0  0  0  0  0
  137.8795   68.9861  224.3746 H   0  0  0  0  0  0  0  0  0  0  0  0
  141.2447   71.0971  225.9228 H   0  0  0  0  0  0  0  0  0  0  0  0
  141.1202   72.6954  224.0390 H   0  0  0  0  0  0  0  0  0  0  0  0
  1  2  2  0
  2  3  1  0
  3  4  2  0
  4  5  1  0
  5  6  2  0
  6  7  1  0
  7  8  2  0
  8  9  1  0
  9 10  2  0
 10 11  1  0
 11 12  2  0
 12 13  1  0
 13 14  2  0
 14 15  1  0
 15 16  2  0
 16 17  1  0
 17 18  2  0
 10 19  1  0
 19 20  1  0
 20 21  1  0
 21 22  2  0
 22 23  1  0
 23 24  2  0
 24 25  1  0
 24 26  1  0
 26 27  2  0
 19  2  1  0
 27 21  1  0
  8  3  1  0
 18 13  1  0
  4 28  1  0
  5 29  1  0
  6 30  1  0
  7 31  1  0
 11 32  1  0
 12 33  1  0
 14 34  1  0
 15 35  1  0
 16 36  1  0
 18 37  1  0
 20 38  1  0
 20 39  1  0
 22 40  1  0
 23 41  1  0
 26 42  1  0
 27 43  1  0
M  END
>  <smiles>  (46) 
O=c1c2ccccc2nc(/C=C/c2cccnc2)n1Cc1ccc(Cl)cc1

>  <score_type>  (46) 
oracle

>  <origin>  (46) 
autodockgpu

>  <m_score__min__energy>  (46) 
-7.75

>  <m_primary>  (46) 
energy

>  <rmsd>  (46) 
9.178189917005527

>  <m_score__min__rmsd>  (46) 
9.178189917005527

>  <meeko>  (46) 
{"free_energy": -7.55, "intermolecular_energy": -9.04, "internal_energy": -1.14, "cluster_size": 5, "cluster_id": 2, "rank_in_cluster": 3}

>  <energy>  (46) 
-7.41

>  <cluster_rmsd>  (46) 
0.26

>  <cluster>  (46) 
5

$$$$

     RDKit          3D

 43 46  0  0  0  0  0  0  0  0999 V2000
  140.2640   71.9480  225.0100 O   0  0  0  0  0  0  0  0  0  0  0  0
  139.6500   70.8560  224.9470 C   0  0  0  0  0  0  0  0  0  0  0  0
  139.9400   69.9500  225.9740 C   0  0  0  0  0  0  0  0  0  0  0  0
  140.8480   70.2750  226.9760 C   0  0  0  0  0  0  0  0  0  0  0  0
  141.0870   69.3340  227.9610 C   0  0  0  0  0  0  0  0  0  0  0  0
  140.4680   68.0990  227.9880 C   0  0  0  0  0  0  0  0  0  0  0  0
  139.5690   67.7850  226.9950 C   0  0  0  0  0  0  0  0  0  0  0  0
  139.3250   68.7160  226.0100 C   0  0  0  0  0  0  0  0  0  0  0  0
  138.4540   68.4510  225.0180 N   0  0  0  0  0  0  0  0  0  0  0  0
  138.1950   69.3390  224.0420 C   0  0  0  0  0  0  0  0  0  0  0  0
  137.2410   68.9010  223.0110 C   0  0  0  0  0  0  0  0  0  0  0  0
  135.9720   68.7480  223.2980 C   0  0  0  0  0  0  0  0  0  0  0  0
  135.2890   69.3600  224.4250 C   0  0  0  0  0  0  0  0  0  0  0  0
  135.2600   70.7440  224.5940 C   0  0  0  0  0  0  0  0  0  0  0  0
  134.6120   71.3330  225.6640 C   0  0  0  0  0  0  0  0  0  0  0  0
  133.9690   70.5560  226.6040 C   0  0  0  0  0  0  0  0  0  0  0  0
  133.9980   69.2200  226.4400 N   0  0  0  0  0  0  0  0  0  0  0  0
  134.6270   68.6330  225.4000 C   0  0  0  0  0  0  0  0  0  0  0  0
  138.7670   70.5540  223.9670 N   0  0  0  0  0  0  0  0  0  0  0  0
  138.4720   71.5250  222.9420 C   0  0  0  0  0  0  0  0  0  0  0  0
  139.6690   72.0790  222.2680 C   0  0  0  0  0  0  0  0  0  0  0  0
  140.7380   71.3430  221.8310 C   0  0  0  0  0  0  0  0  0  0  0  0
  141.8430   71.9210  221.2070 C   0  0  0  0  0  0  0  0  0  0  0  0
  141.9080   73.2710  221.0000 C   0  0  0  0  0  0  0  0  0  0  0  0
  143.2880   73.9940  220.2190 Cl  0  0  0  0  0  0  0  0  0  0  0  0
  140.8450   74.0340  221.4290 C   0  0  0  0  0  0  0  0  0  0  0  0
  139.7400   73.4560  222.0550 C   0  0  0  0  0  0  0  0  0  0  0  0
  141.3595   71.2488  226.9848 H   0  0  0  0  0  0  0  0  0  0  0  0
  141.8026   69.5800  228.7594 H   0  0  0  0  0  0  0  0  0  0  0  0
  140.6902   67.3792  228.7896 H   0  0  0  0  0  0  0  0  0  0  0  0
  139.0564   66.8118  226.9880 H   0  0  0  0  0  0  0  0  0  0  0  0
  137.5967   68.7001  221.9897 H   0  0  0  0  0  0  0  0  0  0  0  0
  135.3763   68.1053  222.6331 H   0  0  0  0  0  0  0  0  0  0  0  0
  135.7661   71.3841  223.8564 H   0  0  0  0  0  0  0  0  0  0  0  0
  134.6095   72.4283  225.7659 H   0  0  0  0  0  0  0  0  0  0  0  0
  133.4496   71.0124  227.4595 H   0  0  0  0  0  0  0  0  0  0  0  0
  134.6132   67.5357  225.3241 H   0  0  0  0  0  0  0  0  0  0  0  0
  137.8401   71.0428  222.1816 H   0  0  0  0  0  0  0  0  0  0  0  0
  137.9710   72.3682  223.4401 H   0  0  0  0  0  0  0  0  0  0  0  0
  140.7245   70.2530  221.9780 H   0  0  0  0  0  0  0  0  0  0  0  0
  142.6747   71.2814  220.8764 H   0  0  0  0  0  0  0  0  0  0  0  0
  140.8674   75.1229  221.2748 H   0  0  0  0  0  0  0  0  0  0  0  0
  138.9101   74.0974  222.3864 H   0  0  0  0  0  0  0  0  0  0  0  0
  1  2  2  0
  2  3  1  0
  3  4  2  0
  4  5  1  0
  5  6  2  0
  6  7  1  0
  7  8  2  0
  8  9  1  0
  9 10  2  0
 10 11  1  0
 11 12  2  0
 12 13  1  0
 13 14  2  0
 14 15  1  0
 15 16  2  0
 16 17  1  0
 17 18  2  0
 10 19  1  0
 19 20  1  0
 20 21  1  0
 21 22  2  0
 22 23  1  0
 23 24  2  0
 24 25  1  0
 24 26  1  0
 26 27  2  0
 19  2  1  0
 27 21  1  0
  8  3  1  0
 18 13  1  0
  4 28  1  0
  5 29  1  0
  6 30  1  0
  7 31  1  0
 11 32  1  0
 12 33  1  0
 14 34  1  0
 15 35  1  0
 16 36  1  0
 18 37  1  0
 20 38  1  0
 20 39  1  0
 22 40  1  0
 23 41  1  0
 26 42  1  0
 27 43  1  0
M  END
>  <smiles>  (47) 
O=c1c2ccccc2nc(/C=C/c2cccnc2)n1Cc1ccc(Cl)cc1

>  <score_type>  (47) 
oracle

>  <origin>  (47) 
autodockgpu

>  <m_score__min__energy>  (47) 
-7.75

>  <m_primary>  (47) 
energy

>  <rmsd>  (47) 
9.968772013607213

>  <m_score__min__rmsd>  (47) 
9.968772013607213

>  <meeko>  (47) 
{"free_energy": -7.42, "intermolecular_energy": -8.91, "internal_energy": -1.43, "cluster_size": 30, "cluster_id": 3, "rank_in_cluster": 24}

>  <energy>  (47) 
-7.4

>  <cluster_rmsd>  (47) 
0.47

>  <cluster>  (47) 
5

$$$$

     RDKit          3D

 43 46  0  0  0  0  0  0  0  0999 V2000
  140.3660   71.8940  225.0730 O   0  0  0  0  0  0  0  0  0  0  0  0
  139.7250   70.8170  225.0740 C   0  0  0  0  0  0  0  0  0  0  0  0
  140.0410   69.9370  226.1160 C   0  0  0  0  0  0  0  0  0  0  0  0
  141.0020   70.2700  227.0640 C   0  0  0  0  0  0  0  0  0  0  0  0
  141.2640   69.3540  228.0660 C   0  0  0  0  0  0  0  0  0  0  0  0
  140.6170   68.1380  228.1620 C   0  0  0  0  0  0  0  0  0  0  0  0
  139.6660   67.8140  227.2220 C   0  0  0  0  0  0  0  0  0  0  0  0
  139.3990   68.7210  226.2190 C   0  0  0  0  0  0  0  0  0  0  0  0
  138.4770   68.4460  225.2770 N   0  0  0  0  0  0  0  0  0  0  0  0
  138.1940   69.3100  224.2860 C   0  0  0  0  0  0  0  0  0  0  0  0
  137.1830   68.8630  223.3140 C   0  0  0  0  0  0  0  0  0  0  0  0
  135.9790   69.3780  223.3210 C   0  0  0  0  0  0  0  0  0  0  0  0
  135.2280   69.7370  224.5120 C   0  0  0  0  0  0  0  0  0  0  0  0
  135.0300   71.0690  224.8730 C   0  0  0  0  0  0  0  0  0  0  0  0
  134.3170   71.4180  226.0050 C   0  0  0  0  0  0  0  0  0  0  0  0
  133.7750   70.4440  226.8150 C   0  0  0  0  0  0  0  0  0  0  0  0
  133.9660   69.1580  226.4660 N   0  0  0  0  0  0  0  0  0  0  0  0
  134.6600   68.8040  225.3640 C   0  0  0  0  0  0  0  0  0  0  0  0
  138.7910   70.5060  224.1450 N   0  0  0  0  0  0  0  0  0  0  0  0
  138.4710   71.4520  223.1030 C   0  0  0  0  0  0  0  0  0  0  0  0
  139.6540   72.0180  222.4140 C   0  0  0  0  0  0  0  0  0  0  0  0
  139.9080   73.3540  222.2560 C   0  0  0  0  0  0  0  0  0  0  0  0
  141.0380   73.8300  221.5920 C   0  0  0  0  0  0  0  0  0  0  0  0
  141.9560   72.9690  221.0600 C   0  0  0  0  0  0  0  0  0  0  0  0
  143.3690   73.5630  220.2300 Cl  0  0  0  0  0  0  0  0  0  0  0  0
  141.7250   71.6190  221.2060 C   0  0  0  0  0  0  0  0  0  0  0  0
  140.5940   71.1430  221.8700 C   0  0  0  0  0  0  0  0  0  0  0  0
  141.5362   71.2305  227.0184 H   0  0  0  0  0  0  0  0  0  0  0  0
  142.0229   69.6056  228.8215 H   0  0  0  0  0  0  0  0  0  0  0  0
  140.8580   67.4395  228.9769 H   0  0  0  0  0  0  0  0  0  0  0  0
  139.1314   66.8538  227.2698 H   0  0  0  0  0  0  0  0  0  0  0  0
  137.4410   68.0897  222.5754 H   0  0  0  0  0  0  0  0  0  0  0  0
  135.4977   69.5528  222.3474 H   0  0  0  0  0  0  0  0  0  0  0  0
  135.4523   71.8635  224.2403 H   0  0  0  0  0  0  0  0  0  0  0  0
  134.1817   72.4793  226.2604 H   0  0  0  0  0  0  0  0  0  0  0  0
  133.2047   70.7087  227.7176 H   0  0  0  0  0  0  0  0  0  0  0  0
  134.7791   67.7350  225.1338 H   0  0  0  0  0  0  0  0  0  0  0  0
  137.8464   70.9427  222.3543 H   0  0  0  0  0  0  0  0  0  0  0  0
  137.9539   72.2935  223.5872 H   0  0  0  0  0  0  0  0  0  0  0  0
  139.1926   74.0804  222.6690 H   0  0  0  0  0  0  0  0  0  0  0  0
  141.1927   74.9147  221.4950 H   0  0  0  0  0  0  0  0  0  0  0  0
  142.4474   70.9011  220.7904 H   0  0  0  0  0  0  0  0  0  0  0  0
  140.4409   70.0580  221.9662 H   0  0  0  0  0  0  0  0  0  0  0  0
  1  2  2  0
  2  3  1  0
  3  4  2  0
  4  5  1  0
  5  6  2  0
  6  7  1  0
  7  8  2  0
  8  9  1  0
  9 10  2  0
 10 11  1  0
 11 12  2  0
 12 13  1  0
 13 14  2  0
 14 15  1  0
 15 16  2  0
 16 17  1  0
 17 18  2  0
 10 19  1  0
 19 20  1  0
 20 21  1  0
 21 22  2  0
 22 23  1  0
 23 24  2  0
 24 25  1  0
 24 26  1  0
 26 27  2  0
 19  2  1  0
 27 21  1  0
  8  3  1  0
 18 13  1  0
  4 28  1  0
  5 29  1  0
  6 30  1  0
  7 31  1  0
 11 32  1  0
 12 33  1  0
 14 34  1  0
 15 35  1  0
 16 36  1  0
 18 37  1  0
 20 38  1  0
 20 39  1  0
 22 40  1  0
 23 41  1  0
 26 42  1  0
 27 43  1  0
M  END
>  <smiles>  (48) 
O=c1c2ccccc2nc(/C=C/c2cccnc2)n1Cc1ccc(Cl)cc1

>  <score_type>  (48) 
oracle

>  <origin>  (48) 
autodockgpu

>  <m_score__min__energy>  (48) 
-7.75

>  <m_primary>  (48) 
energy

>  <rmsd>  (48) 
10.210106178612515

>  <m_score__min__rmsd>  (48) 
10.210106178612515

>  <meeko>  (48) 
{"free_energy": -7.56, "intermolecular_energy": -9.05, "internal_energy": -1.35, "cluster_size": 30, "cluster_id": 3, "rank_in_cluster": 8}

>  <energy>  (48) 
-7.26

>  <cluster_rmsd>  (48) 
0.66

>  <cluster>  (48) 
5

$$$$

     RDKit          3D

 43 46  0  0  0  0  0  0  0  0999 V2000
  140.1780   71.9010  225.0350 O   0  0  0  0  0  0  0  0  0  0  0  0
  139.6150   70.7810  225.0070 C   0  0  0  0  0  0  0  0  0  0  0  0
  139.9310   69.9280  226.0710 C   0  0  0  0  0  0  0  0  0  0  0  0
  140.8100   70.3300  227.0700 C   0  0  0  0  0  0  0  0  0  0  0  0
  141.0780   69.4380  228.0920 C   0  0  0  0  0  0  0  0  0  0  0  0
  140.5140   68.1790  228.1590 C   0  0  0  0  0  0  0  0  0  0  0  0
  139.6430   67.7870  227.1670 C   0  0  0  0  0  0  0  0  0  0  0  0
  139.3710   68.6700  226.1450 C   0  0  0  0  0  0  0  0  0  0  0  0
  138.5270   68.3290  225.1540 N   0  0  0  0  0  0  0  0  0  0  0  0
  138.2410   69.1680  224.1430 C   0  0  0  0  0  0  0  0  0  0  0  0
  137.3210   68.6490  223.1180 C   0  0  0  0  0  0  0  0  0  0  0  0
  136.0280   68.8250  223.2310 C   0  0  0  0  0  0  0  0  0  0  0  0
  135.3580   69.3780  224.3950 C   0  0  0  0  0  0  0  0  0  0  0  0
  135.3280   70.7520  224.6330 C   0  0  0  0  0  0  0  0  0  0  0  0
  134.6910   71.2860  225.7380 C   0  0  0  0  0  0  0  0  0  0  0  0
  134.0610   70.4620  226.6450 C   0  0  0  0  0  0  0  0  0  0  0  0
  134.0900   69.1360  226.4150 N   0  0  0  0  0  0  0  0  0  0  0  0
  134.7080   68.6030  225.3400 C   0  0  0  0  0  0  0  0  0  0  0  0
  138.7590   70.4030  224.0280 N   0  0  0  0  0  0  0  0  0  0  0  0
  138.4340   71.3210  222.9640 C   0  0  0  0  0  0  0  0  0  0  0  0
  139.6140   71.9470  222.3220 C   0  0  0  0  0  0  0  0  0  0  0  0
  140.7050   71.2700  221.8480 C   0  0  0  0  0  0  0  0  0  0  0  0
  141.7910   71.9150  221.2570 C   0  0  0  0  0  0  0  0  0  0  0  0
  141.8140   73.2750  221.1230 C   0  0  0  0  0  0  0  0  0  0  0  0
  143.1710   74.0820  220.3840 Cl  0  0  0  0  0  0  0  0  0  0  0  0
  140.7270   73.9800  221.5910 C   0  0  0  0  0  0  0  0  0  0  0  0
  139.6410   73.3350  222.1830 C   0  0  0  0  0  0  0  0  0  0  0  0
  141.2773   71.3256  227.0482 H   0  0  0  0  0  0  0  0  0  0  0  0
  141.7722   69.7452  228.8881 H   0  0  0  0  0  0  0  0  0  0  0  0
  140.7564   67.5010  228.9906 H   0  0  0  0  0  0  0  0  0  0  0  0
  139.1752   66.7917  227.1901 H   0  0  0  0  0  0  0  0  0  0  0  0
  137.7232   68.1081  222.2487 H   0  0  0  0  0  0  0  0  0  0  0  0
  135.4001   68.5308  222.3771 H   0  0  0  0  0  0  0  0  0  0  0  0
  135.8245   71.4291  223.9224 H   0  0  0  0  0  0  0  0  0  0  0  0
  134.6872   72.3749  225.8939 H   0  0  0  0  0  0  0  0  0  0  0  0
  133.5510   70.8742  227.5282 H   0  0  0  0  0  0  0  0  0  0  0  0
  134.6946   67.5108  225.2098 H   0  0  0  0  0  0  0  0  0  0  0  0
  137.8726   70.7719  222.1937 H   0  0  0  0  0  0  0  0  0  0  0  0
  137.8499   72.1360  223.4163 H   0  0  0  0  0  0  0  0  0  0  0  0
  140.7260   70.1738  221.9367 H   0  0  0  0  0  0  0  0  0  0  0  0
  142.6419   71.3203  220.8932 H   0  0  0  0  0  0  0  0  0  0  0  0
  140.7151   75.0758  221.4958 H   0  0  0  0  0  0  0  0  0  0  0  0
  138.7910   73.9311  222.5466 H   0  0  0  0  0  0  0  0  0  0  0  0
  1  2  2  0
  2  3  1  0
  3  4  2  0
  4  5  1  0
  5  6  2  0
  6  7  1  0
  7  8  2  0
  8  9  1  0
  9 10  2  0
 10 11  1  0
 11 12  2  0
 12 13  1  0
 13 14  2  0
 14 15  1  0
 15 16  2  0
 16 17  1  0
 17 18  2  0
 10 19  1  0
 19 20  1  0
 20 21  1  0
 21 22  2  0
 22 23  1  0
 23 24  2  0
 24 25  1  0
 24 26  1  0
 26 27  2  0
 19  2  1  0
 27 21  1  0
  8  3  1  0
 18 13  1  0
  4 28  1  0
  5 29  1  0
  6 30  1  0
  7 31  1  0
 11 32  1  0
 12 33  1  0
 14 34  1  0
 15 35  1  0
 16 36  1  0
 18 37  1  0
 20 38  1  0
 20 39  1  0
 22 40  1  0
 23 41  1  0
 26 42  1  0
 27 43  1  0
M  END
>  <smiles>  (49) 
O=c1c2ccccc2nc(/C=C/c2cccnc2)n1Cc1ccc(Cl)cc1

>  <score_type>  (49) 
oracle

>  <origin>  (49) 
autodockgpu

>  <m_score__min__energy>  (49) 
-7.75

>  <m_primary>  (49) 
energy

>  <rmsd>  (49) 
10.047384100556194

>  <m_score__min__rmsd>  (49) 
10.047384100556194

>  <meeko>  (49) 
{"free_energy": -7.44, "intermolecular_energy": -8.94, "internal_energy": -1.46, "cluster_size": 30, "cluster_id": 3, "rank_in_cluster": 23}

>  <energy>  (49) 
-7.05

>  <cluster_rmsd>  (49) 
0.0

>  <cluster>  (49) 
6

$$$$

     RDKit          3D

 43 46  0  0  0  0  0  0  0  0999 V2000
  142.5370   76.3120  219.9850 O   0  0  0  0  0  0  0  0  0  0  0  0
  142.2410   75.1920  220.4620 C   0  0  0  0  0  0  0  0  0  0  0  0
  143.2300   74.2100  220.3370 C   0  0  0  0  0  0  0  0  0  0  0  0
  144.4440   74.4960  219.7220 C   0  0  0  0  0  0  0  0  0  0  0  0
  145.3780   73.4790  219.6320 C   0  0  0  0  0  0  0  0  0  0  0  0
  145.1550   72.2070  220.1240 C   0  0  0  0  0  0  0  0  0  0  0  0
  143.9520   71.9310  220.7330 C   0  0  0  0  0  0  0  0  0  0  0  0
  143.0160   72.9380  220.8260 C   0  0  0  0  0  0  0  0  0  0  0  0
  141.8260   72.7130  221.4120 N   0  0  0  0  0  0  0  0  0  0  0  0
  140.8910   73.6750  221.5190 C   0  0  0  0  0  0  0  0  0  0  0  0
  139.6290   73.2750  222.1600 C   0  0  0  0  0  0  0  0  0  0  0  0
  139.3890   72.0180  222.4360 C   0  0  0  0  0  0  0  0  0  0  0  0
  139.6980   71.3640  223.6970 C   0  0  0  0  0  0  0  0  0  0  0  0
  140.6840   71.8580  224.5500 C   0  0  0  0  0  0  0  0  0  0  0  0
  140.9830   71.2420  225.7510 C   0  0  0  0  0  0  0  0  0  0  0  0
  140.3040   70.1080  226.1410 C   0  0  0  0  0  0  0  0  0  0  0  0
  139.3520   69.6310  225.3170 N   0  0  0  0  0  0  0  0  0  0  0  0
  139.0510   70.2240  224.1420 C   0  0  0  0  0  0  0  0  0  0  0  0
  141.0550   74.9280  221.0600 N   0  0  0  0  0  0  0  0  0  0  0  0
  140.0710   75.9740  221.1970 C   0  0  0  0  0  0  0  0  0  0  0  0
  140.5960   77.2260  221.7900 C   0  0  0  0  0  0  0  0  0  0  0  0
  141.0690   77.3550  223.0680 C   0  0  0  0  0  0  0  0  0  0  0  0
  141.5460   78.5640  223.5740 C   0  0  0  0  0  0  0  0  0  0  0  0
  141.5630   79.6920  222.8030 C   0  0  0  0  0  0  0  0  0  0  0  0
  142.1600   81.2030  223.4350 Cl  0  0  0  0  0  0  0  0  0  0  0  0
  141.0930   79.5890  221.5130 C   0  0  0  0  0  0  0  0  0  0  0  0
  140.6140   78.3810  221.0060 C   0  0  0  0  0  0  0  0  0  0  0  0
  144.6549   75.4980  219.3202 H   0  0  0  0  0  0  0  0  0  0  0  0
  146.3418   73.6927  219.1468 H   0  0  0  0  0  0  0  0  0  0  0  0
  145.9261   71.4281  220.0304 H   0  0  0  0  0  0  0  0  0  0  0  0
  143.7425   70.9293  221.1363 H   0  0  0  0  0  0  0  0  0  0  0  0
  138.8791   74.0400  222.4100 H   0  0  0  0  0  0  0  0  0  0  0  0
  138.9162   71.4085  221.6518 H   0  0  0  0  0  0  0  0  0  0  0  0
  141.2390   72.7622  224.2596 H   0  0  0  0  0  0  0  0  0  0  0  0
  141.7676   71.6595  226.3992 H   0  0  0  0  0  0  0  0  0  0  0  0
  140.5323   69.6089  227.0943 H   0  0  0  0  0  0  0  0  0  0  0  0
  138.2616   69.7846  223.5145 H   0  0  0  0  0  0  0  0  0  0  0  0
  139.6722   76.2057  220.1984 H   0  0  0  0  0  0  0  0  0  0  0  0
  139.3009   75.5961  221.8856 H   0  0  0  0  0  0  0  0  0  0  0  0
  141.0731   76.4703  223.7217 H   0  0  0  0  0  0  0  0  0  0  0  0
  141.9141   78.6102  224.6095 H   0  0  0  0  0  0  0  0  0  0  0  0
  141.0953   80.4796  220.8674 H   0  0  0  0  0  0  0  0  0  0  0  0
  140.2442   78.3377  219.9709 H   0  0  0  0  0  0  0  0  0  0  0  0
  1  2  2  0
  2  3  1  0
  3  4  2  0
  4  5  1  0
  5  6  2  0
  6  7  1  0
  7  8  2  0
  8  9  1  0
  9 10  2  0
 10 11  1  0
 11 12  2  0
 12 13  1  0
 13 14  2  0
 14 15  1  0
 15 16  2  0
 16 17  1  0
 17 18  2  0
 10 19  1  0
 19 20  1  0
 20 21  1  0
 21 22  2  0
 22 23  1  0
 23 24  2  0
 24 25  1  0
 24 26  1  0
 26 27  2  0
 19  2  1  0
 27 21  1  0
  8  3  1  0
 18 13  1  0
  4 28  1  0
  5 29  1  0
  6 30  1  0
  7 31  1  0
 11 32  1  0
 12 33  1  0
 14 34  1  0
 15 35  1  0
 16 36  1  0
 18 37  1  0
 20 38  1  0
 20 39  1  0
 22 40  1  0
 23 41  1  0
 26 42  1  0
 27 43  1  0
M  END
>  <smiles>  (50) 
O=c1c2ccccc2nc(/C=C/c2cccnc2)n1Cc1ccc(Cl)cc1

>  <score_type>  (50) 
oracle

>  <origin>  (50) 
autodockgpu

>  <m_score__min__energy>  (50) 
-7.75

>  <m_primary>  (50) 
energy

>  <rmsd>  (50) 
4.716813459556898

>  <m_score__min__rmsd>  (50) 
4.716813459556898

>  <meeko>  (50) 
{"free_energy": -7.54, "intermolecular_energy": -9.03, "internal_energy": -1.15, "cluster_size": 5, "cluster_id": 4, "rank_in_cluster": 1}

>  <energy>  (50) 
-6.75

>  <cluster_rmsd>  (50) 
0.0

>  <cluster>  (50) 
7

$$$$
