@<TRIPOS>MOLECULE
*****
 51 54 0 0 0
SMALL
GASTEIGER

@<TRIPOS>ATOM
      1 O         140.7170   71.1200  221.3370 O.2     1  UNL1       -0.2685
      2 C         140.2880   71.6920  222.3720 C.2     1  UNL1        0.2628
      3 N         139.9480   73.0810  222.3380 N.am    1  UNL1       -0.3015
      4 C         140.1220   73.7770  221.0450 C.3     1  UNL1        0.0887
      5 C         140.5410   75.1620  221.2700 C.2     1  UNL1        0.2332
      6 O         140.2740   75.6390  222.4390 O.2     1  UNL1       -0.2739
      7 N         141.1850   76.0410  220.3910 N.am    1  UNL1       -0.2931
      8 C         141.1850   75.6220  218.9690 C.3     1  UNL1        0.0153
      9 C         140.4810   76.6720  218.1310 C.3     1  UNL1       -0.0371
     10 C         141.0160   78.0490  218.4440 C.3     1  UNL1       -0.0496
     11 C         142.1520   78.0040  219.4240 C.3     1  UNL1       -0.0301
     12 C         141.8290   77.2820  220.7120 C.3     1  UNL1        0.0512
     13 C         141.0670   78.1840  221.5990 C.ar    1  UNL1       -0.0269
     14 C         141.5850   78.8810  222.6500 C.ar    1  UNL1       -0.0554
     15 C         140.8250   79.7080  223.4680 C.ar    1  UNL1       -0.0431
     16 C         139.4620   79.8590  223.2340 C.ar    1  UNL1        0.0410
     17 CL        138.4550   80.8810  224.2270 Cl      1  UNL1       -0.0835
     18 C         138.9170   79.1580  222.1670 C.ar    1  UNL1       -0.0431
     19 C         139.6960   78.3410  221.3700 C.ar    1  UNL1       -0.0554
     20 C         140.1150   70.9750  223.6490 C.ar    1  UNL1        0.1260
     21 C         139.5470   69.7350  223.6240 C.ar    1  UNL1       -0.0306
     22 C         139.3570   68.9870  224.7890 C.ar    1  UNL1       -0.0504
     23 C         139.8000   69.6300  225.9470 C.ar    1  UNL1        0.0004
     24 C         139.6410   68.9520  227.1240 C.ar    1  UNL1       -0.0526
     25 C         140.0270   69.4580  228.3440 C.ar    1  UNL1       -0.0611
     26 C         140.6000   70.7130  228.3460 C.ar    1  UNL1       -0.0597
     27 C         140.7870   71.4530  227.1740 C.ar    1  UNL1       -0.0357
     28 C         140.3660   70.8630  225.9770 C.ar    1  UNL1        0.0718
     29 N         140.5140   71.5210  224.8050 N.ar    1  UNL1       -0.2421
     30 H         139.5950   73.6090  223.1730 H       1  UNL1        0.1496
     31 H         140.8890   73.2568  220.4524 H       1  UNL1        0.0558
     32 H         139.1644   73.7746  220.5037 H       1  UNL1        0.0558
     33 H         142.2221   75.5097  218.6201 H       1  UNL1        0.0465
     34 H         140.6582   74.6614  218.8704 H       1  UNL1        0.0465
     35 H         140.6455   76.4539  217.0655 H       1  UNL1        0.0280
     36 H         139.4060   76.6483  218.3630 H       1  UNL1        0.0280
     37 H         141.3703   78.5123  217.5114 H       1  UNL1        0.0266
     38 H         140.2016   78.6342  218.8961 H       1  UNL1        0.0266
     39 H         143.0007   77.4934  218.9455 H       1  UNL1        0.0286
     40 H         142.3793   79.0460  219.6934 H       1  UNL1        0.0286
     41 H         142.7305   77.0139  221.2824 H       1  UNL1        0.0550
     42 H         142.6601   78.7836  222.8613 H       1  UNL1        0.0621
     43 H         141.3018   80.2441  224.3018 H       1  UNL1        0.0632
     44 H         137.8427   79.2549  221.9515 H       1  UNL1        0.0632
     45 H         139.2264   77.8007  220.5348 H       1  UNL1        0.0621
     46 H         139.2296   69.3119  222.6595 H       1  UNL1        0.0641
     47 H         138.9013   67.9858  224.7936 H       1  UNL1        0.0625
     48 H         139.1819   67.9528  227.0939 H       1  UNL1        0.0624
     49 H         139.8853   68.8884  229.2743 H       1  UNL1        0.0618
     50 H         140.9215   71.1474  229.3041 H       1  UNL1        0.0618
     51 H         141.2442   72.4533  227.1923 H       1  UNL1        0.0639
@<TRIPOS>BOND
     1     1     2    2
     2     2     3   am
     3     3     4    1
     4     4     5    1
     5     5     6    2
     6     5     7   am
     7     7     8    1
     8     8     9    1
     9     9    10    1
    10    10    11    1
    11    11    12    1
    12    12    13    1
    13    13    14   ar
    14    14    15   ar
    15    15    16   ar
    16    16    17    1
    17    16    18   ar
    18    18    19   ar
    19     2    20    1
    20    20    21   ar
    21    21    22   ar
    22    22    23   ar
    23    23    24   ar
    24    24    25   ar
    25    25    26   ar
    26    26    27   ar
    27    27    28   ar
    28    28    29   ar
    29    12     7    1
    30    19    13   ar
    31    29    20   ar
    32    28    23   ar
    33     3    30    1
    34     4    31    1
    35     4    32    1
    36     8    33    1
    37     8    34    1
    38     9    35    1
    39     9    36    1
    40    10    37    1
    41    10    38    1
    42    11    39    1
    43    11    40    1
    44    12    41    1
    45    14    42    1
    46    15    43    1
    47    18    44    1
    48    19    45    1
    49    21    46    1
    50    22    47    1
    51    24    48    1
    52    25    49    1
    53    26    50    1
    54    27    51    1
