
     RDKit          3D

 56 60  0  0  0  0  0  0  0  0999 V2000
  142.6910   72.2860  219.7660 O   0  0  0  0  0  0  0  0  0  0  0  0
  141.8510   72.7550  220.5650 C   0  0  0  0  0  0  0  0  0  0  0  0
  140.9990   71.8140  221.3130 C   0  0  0  0  0  0  0  0  0  0  0  0
  140.0370   72.5300  222.2050 C   0  0  0  0  0  0  0  0  0  0  0  0
  139.1050   71.7010  222.9750 C   0  0  0  0  0  0  0  0  0  0  0  0
  137.7410   71.9040  222.9780 C   0  0  0  0  0  0  0  0  0  0  0  0
  136.9020   71.0470  223.6980 C   0  0  0  0  0  0  0  0  0  0  0  0
  137.3980   69.9790  224.4270 C   0  0  0  0  0  0  0  0  0  0  0  0
  138.7430   69.7800  224.4270 C   0  0  0  0  0  0  0  0  0  0  0  0
  139.4150   68.6810  225.1390 C   0  0  0  0  0  0  0  0  0  0  0  0
  139.1850   67.4720  224.9000 O   0  0  0  0  0  0  0  0  0  0  0  0
  140.3600   69.0280  226.1380 N   0  0  0  0  0  0  0  0  0  0  0  0
  140.7020   70.4120  226.4640 C   0  0  0  0  0  0  0  0  0  0  0  0
  140.6500   70.6240  227.9590 C   0  0  0  0  0  0  0  0  0  0  0  0
  141.3050   69.6630  228.6870 O   0  0  0  0  0  0  0  0  0  0  0  0
  140.9730   68.3650  228.4140 C   0  0  0  0  0  0  0  0  0  0  0  0
  141.0530   68.0130  226.9440 C   0  0  0  0  0  0  0  0  0  0  0  0
  139.5670   70.6240  223.7160 C   0  0  0  0  0  0  0  0  0  0  0  0
  139.9850   73.8120  222.3060 N   0  0  0  0  0  0  0  0  0  0  0  0
  140.8040   74.7230  221.6030 C   0  0  0  0  0  0  0  0  0  0  0  0
  140.6890   76.1080  221.7260 C   0  0  0  0  0  0  0  0  0  0  0  0
  141.5220   76.9180  220.9640 C   0  0  0  0  0  0  0  0  0  0  0  0
  141.4860   78.3280  220.9860 N   0  0  0  0  0  0  0  0  0  0  0  0
  141.3890   79.2140  219.8750 C   0  0  0  0  0  0  0  0  0  0  0  0
  140.6560   80.4820  220.3300 C   0  0  0  0  0  0  0  0  0  0  0  0
  141.2880   81.1380  221.3630 O   0  0  0  0  0  0  0  0  0  0  0  0
  142.1840   80.3340  222.0680 C   0  0  0  0  0  0  0  0  0  0  0  0
  141.6090   78.9580  222.3200 C   0  0  0  0  0  0  0  0  0  0  0  0
  142.4580   76.3440  220.0930 C   0  0  0  0  0  0  0  0  0  0  0  0
  142.5760   74.9800  219.9680 C   0  0  0  0  0  0  0  0  0  0  0  0
  141.7440   74.1980  220.7280 C   0  0  0  0  0  0  0  0  0  0  0  0
  140.4326   71.1997  220.5976 H   0  0  0  0  0  0  0  0  0  0  0  0
  141.6490   71.1876  221.9416 H   0  0  0  0  0  0  0  0  0  0  0  0
  137.3109   72.7434  222.4118 H   0  0  0  0  0  0  0  0  0  0  0  0
  135.8168   71.2266  223.6848 H   0  0  0  0  0  0  0  0  0  0  0  0
  136.7255   69.3133  224.9879 H   0  0  0  0  0  0  0  0  0  0  0  0
  141.7171   70.6306  226.1011 H   0  0  0  0  0  0  0  0  0  0  0  0
  139.9776   71.0841  225.9808 H   0  0  0  0  0  0  0  0  0  0  0  0
  141.1066   71.5989  228.1851 H   0  0  0  0  0  0  0  0  0  0  0  0
  139.5901   70.5719  228.2487 H   0  0  0  0  0  0  0  0  0  0  0  0
  141.6600   67.7072  228.9665 H   0  0  0  0  0  0  0  0  0  0  0  0
  139.9253   68.2298  228.7205 H   0  0  0  0  0  0  0  0  0  0  0  0
  142.1088   67.9662  226.6390 H   0  0  0  0  0  0  0  0  0  0  0  0
  140.5706   67.0376  226.7829 H   0  0  0  0  0  0  0  0  0  0  0  0
  140.6501   70.4334  223.7372 H   0  0  0  0  0  0  0  0  0  0  0  0
  139.9528   76.5504  222.4132 H   0  0  0  0  0  0  0  0  0  0  0  0
  142.3965   79.4748  219.5187 H   0  0  0  0  0  0  0  0  0  0  0  0
  140.8373   78.7323  219.0543 H   0  0  0  0  0  0  0  0  0  0  0  0
  140.5828   81.1687  219.4738 H   0  0  0  0  0  0  0  0  0  0  0  0
  139.6676   80.1710  220.6991 H   0  0  0  0  0  0  0  0  0  0  0  0
  143.1107   80.2333  221.4839 H   0  0  0  0  0  0  0  0  0  0  0  0
  142.3851   80.8088  223.0396 H   0  0  0  0  0  0  0  0  0  0  0  0
  142.2835   78.3714  222.9610 H   0  0  0  0  0  0  0  0  0  0  0  0
  140.6393   79.0103  222.8366 H   0  0  0  0  0  0  0  0  0  0  0  0
  143.1115   76.9982  219.4972 H   0  0  0  0  0  0  0  0  0  0  0  0
  143.3111   74.5320  219.2832 H   0  0  0  0  0  0  0  0  0  0  0  0
  1  2  2  0
  2  3  1  0
  3  4  1  0
  4  5  1  0
  5  6  2  0
  6  7  1  0
  7  8  2  0
  8  9  1  0
  9 10  1  0
 10 11  2  0
 10 12  1  0
 12 13  1  0
 13 14  1  0
 14 15  1  0
 15 16  1  0
 16 17  1  0
  9 18  2  0
  4 19  2  0
 19 20  1  0
 20 21  2  0
 21 22  1  0
 22 23  1  0
 23 24  1  0
 24 25  1  0
 25 26  1  0
 26 27  1  0
 27 28  1  0
 22 29  2  0
 29 30  1  0
 30 31  2  0
 31  2  1  0
 18  5  1  0
 31 20  1  0
 17 12  1  0
 28 23  1  0
  3 32  1  0
  3 33  1  0
  6 34  1  0
  7 35  1  0
  8 36  1  0
 13 37  1  0
 13 38  1  0
 14 39  1  0
 14 40  1  0
 16 41  1  0
 16 42  1  0
 17 43  1  0
 17 44  1  0
 18 45  1  0
 21 46  1  0
 24 47  1  0
 24 48  1  0
 25 49  1  0
 25 50  1  0
 27 51  1  0
 27 52  1  0
 28 53  1  0
 28 54  1  0
 29 55  1  0
 30 56  1  0
M  END
