
     RDKit          3D

 73 79  0  0  0  0  0  0  0  0999 V2000
  142.1870   81.3950  222.6400 C   0  0  0  0  0  0  0  0  0  0  0  0
  141.7190   80.6940  221.5590 C   0  0  0  0  0  0  0  0  0  0  0  0
  141.3580   79.3710  221.6640 C   0  0  0  0  0  0  0  0  0  0  0  0
  141.4500   78.6750  222.8830 C   0  0  0  0  0  0  0  0  0  0  0  0
  141.0650   77.3780  222.8710 O   0  0  0  0  0  0  0  0  0  0  0  0
  141.1280   76.3820  221.9100 C   0  0  0  0  0  0  0  0  0  0  0  0
  139.8610   76.2780  221.1530 C   0  0  2  0  0  0  0  0  0  0  0  0
  138.6940   76.9580  221.8900 C   0  0  0  0  0  0  0  0  0  0  0  0
  137.5130   76.3620  221.1610 C   0  0  0  0  0  0  0  0  0  0  0  0
  137.9780   75.0190  220.5920 C   0  0  0  0  0  0  0  0  0  0  0  0
  139.3130   74.9140  221.1540 N   0  0  0  0  0  0  0  0  0  0  0  0
  139.9190   73.7130  221.6000 C   0  0  0  0  0  0  0  0  0  0  0  0
  140.9330   73.2280  220.8620 N   0  0  0  0  0  0  0  0  0  0  0  0
  141.5900   72.0900  221.1870 C   0  0  0  0  0  0  0  0  0  0  0  0
  142.6630   71.5770  220.4060 N   0  0  0  0  0  0  0  0  0  0  0  0
  143.9220   72.3230  220.3620 C   0  0  0  0  0  0  0  0  0  0  0  0
  144.8040   71.8630  219.2370 C   0  0  0  0  0  0  0  0  0  0  0  0
  144.9690   70.3770  219.3380 C   0  0  0  0  0  0  0  0  0  0  0  0
  146.2020   69.7660  219.2210 C   0  0  0  0  0  0  0  0  0  0  0  0
  146.3010   68.3900  219.3220 C   0  0  0  0  0  0  0  0  0  0  0  0
  145.1790   67.6450  219.5370 C   0  0  0  0  0  0  0  0  0  0  0  0
  143.9280   68.2550  219.6560 C   0  0  0  0  0  0  0  0  0  0  0  0
  143.8290   69.6280  219.5560 C   0  0  0  0  0  0  0  0  0  0  0  0
  142.5450   70.3610  219.6680 C   0  0  0  0  0  0  0  0  0  0  0  0
  141.1800   71.4540  222.2990 N   0  0  0  0  0  0  0  0  0  0  0  0
  140.1840   71.9030  223.0510 C   0  0  0  0  0  0  0  0  0  0  0  0
  139.8010   71.1810  224.2160 N   0  0  0  0  0  0  0  0  0  0  0  0
  138.8640   70.0840  224.0740 C   0  0  0  0  0  0  0  0  0  0  0  0
  139.3420   68.8020  224.6970 C   0  0  0  0  0  0  0  0  0  0  0  0
  140.0020   69.0420  226.0020 C   0  0  0  0  0  0  0  0  0  0  0  0
  140.1740   67.9770  226.8580 C   0  0  0  0  0  0  0  0  0  0  0  0
  140.7750   68.0930  228.0900 C   0  0  0  0  0  0  0  0  0  0  0  0
  141.2140   69.3540  228.4520 C   0  0  0  0  0  0  0  0  0  0  0  0
  141.0570   70.4560  227.6110 C   0  0  0  0  0  0  0  0  0  0  0  0
  140.4470   70.2910  226.3830 C   0  0  0  0  0  0  0  0  0  0  0  0
  140.3110   71.5000  225.5340 C   0  0  0  0  0  0  0  0  0  0  0  0
  139.5580   73.0390  222.6920 N   0  0  0  0  0  0  0  0  0  0  0  0
  141.9200   79.4060  223.9430 C   0  0  0  0  0  0  0  0  0  0  0  0
  142.2870   80.7400  223.8440 C   0  0  0  0  0  0  0  0  0  0  0  0
  142.4746   82.4526  222.5464 H   0  0  0  0  0  0  0  0  0  0  0  0
  141.6302   81.2005  220.5866 H   0  0  0  0  0  0  0  0  0  0  0  0
  140.9880   78.8438  220.7723 H   0  0  0  0  0  0  0  0  0  0  0  0
  141.9448   76.6119  221.2100 H   0  0  0  0  0  0  0  0  0  0  0  0
  141.3061   75.4228  222.4182 H   0  0  0  0  0  0  0  0  0  0  0  0
  140.1335   76.6901  220.1702 H   0  0  0  0  0  0  0  0  0  0  0  0
  138.6835   76.6976  222.9587 H   0  0  0  0  0  0  0  0  0  0  0  0
  138.7278   78.0574  221.8799 H   0  0  0  0  0  0  0  0  0  0  0  0
  136.6756   76.2088  221.8577 H   0  0  0  0  0  0  0  0  0  0  0  0
  137.1641   77.0309  220.3605 H   0  0  0  0  0  0  0  0  0  0  0  0
  137.3334   74.1943  220.9303 H   0  0  0  0  0  0  0  0  0  0  0  0
  137.9476   74.9621  219.4939 H   0  0  0  0  0  0  0  0  0  0  0  0
  143.6982   73.3913  220.2250 H   0  0  0  0  0  0  0  0  0  0  0  0
  144.4557   72.1489  221.3079 H   0  0  0  0  0  0  0  0  0  0  0  0
  144.3402   72.1200  218.2732 H   0  0  0  0  0  0  0  0  0  0  0  0
  145.7852   72.3560  219.3021 H   0  0  0  0  0  0  0  0  0  0  0  0
  147.1034   70.3722  219.0479 H   0  0  0  0  0  0  0  0  0  0  0  0
  147.2808   67.8986  219.2293 H   0  0  0  0  0  0  0  0  0  0  0  0
  145.2602   66.5510  219.6176 H   0  0  0  0  0  0  0  0  0  0  0  0
  143.0285   67.6457  219.8281 H   0  0  0  0  0  0  0  0  0  0  0  0
  142.1866   70.5982  218.6554 H   0  0  0  0  0  0  0  0  0  0  0  0
  141.8406   69.7127  220.2098 H   0  0  0  0  0  0  0  0  0  0  0  0
  137.9163   70.3715  224.5528 H   0  0  0  0  0  0  0  0  0  0  0  0
  138.7471   69.8960  222.9965 H   0  0  0  0  0  0  0  0  0  0  0  0
  138.4797   68.1364  224.8502 H   0  0  0  0  0  0  0  0  0  0  0  0
  140.0770   68.3434  224.0191 H   0  0  0  0  0  0  0  0  0  0  0  0
  139.8138   66.9869  226.5417 H   0  0  0  0  0  0  0  0  0  0  0  0
  140.9004   67.2256  228.7547 H   0  0  0  0  0  0  0  0  0  0  0  0
  141.6999   69.4915  229.4292 H   0  0  0  0  0  0  0  0  0  0  0  0
  141.4160   71.4478  227.9233 H   0  0  0  0  0  0  0  0  0  0  0  0
  139.6189   72.2016  226.0227 H   0  0  0  0  0  0  0  0  0  0  0  0
  141.3094   71.9460  225.4141 H   0  0  0  0  0  0  0  0  0  0  0  0
  142.0106   78.9101  224.9207 H   0  0  0  0  0  0  0  0  0  0  0  0
  142.6587   81.2745  224.7306 H   0  0  0  0  0  0  0  0  0  0  0  0
  1  2  2  0
  2  3  1  0
  3  4  2  0
  4  5  1  0
  5  6  1  0
  6  7  1  0
  7  8  1  0
  8  9  1  0
  9 10  1  0
 10 11  1  0
 11 12  1  0
 12 13  2  0
 13 14  1  0
 14 15  1  0
 15 16  1  0
 16 17  1  0
 17 18  1  0
 18 19  2  0
 19 20  1  0
 20 21  2  0
 21 22  1  0
 22 23  2  0
 23 24  1  0
 14 25  2  0
 25 26  1  0
 26 27  1  0
 27 28  1  0
 28 29  1  0
 29 30  1  0
 30 31  2  0
 31 32  1  0
 32 33  2  0
 33 34  1  0
 34 35  2  0
 35 36  1  0
 26 37  2  0
  4 38  1  0
 38 39  2  0
 39  1  1  0
 11  7  1  0
 37 12  1  0
 24 15  1  0
 36 27  1  0
 23 18  1  0
 35 30  1  0
  1 40  1  0
  2 41  1  0
  3 42  1  0
  6 43  1  0
  6 44  1  0
  7 45  1  6
  8 46  1  0
  8 47  1  0
  9 48  1  0
  9 49  1  0
 10 50  1  0
 10 51  1  0
 16 52  1  0
 16 53  1  0
 17 54  1  0
 17 55  1  0
 19 56  1  0
 20 57  1  0
 21 58  1  0
 22 59  1  0
 24 60  1  0
 24 61  1  0
 28 62  1  0
 28 63  1  0
 29 64  1  0
 29 65  1  0
 31 66  1  0
 32 67  1  0
 33 68  1  0
 34 69  1  0
 36 70  1  0
 36 71  1  0
 38 72  1  0
 39 73  1  0
M  END
>  <smiles>  (1) 
c1ccc(OC[C@@H]2CCCN2c2nc(N3CCc4ccccc4C3)nc(N3CCc4ccccc4C3)n2)cc1

>  <score_type>  (1) 
oracle

>  <origin>  (1) 
autodockgpu

>  <m_score__min__energy>  (1) 
-11.19

>  <m_primary>  (1) 
energy

>  <rmsd>  (1) 
10.532460421976756

>  <m_score__min__rmsd>  (1) 
10.532460421976756

>  <meeko>  (1) 
{"free_energy": -10.97, "intermolecular_energy": -12.76, "internal_energy": -1.51, "cluster_size": 29, "cluster_id": 1, "rank_in_cluster": 3}

>  <energy>  (1) 
-11.19

>  <cluster_rmsd>  (1) 
0.0

>  <cluster>  (1) 
1

$$$$

     RDKit          3D

 73 79  0  0  0  0  0  0  0  0999 V2000
  141.0410   68.0390  228.2280 C   0  0  0  0  0  0  0  0  0  0  0  0
  140.6860   67.8710  226.9150 C   0  0  0  0  0  0  0  0  0  0  0  0
  140.5020   68.9480  226.0790 C   0  0  0  0  0  0  0  0  0  0  0  0
  140.6700   70.2700  226.5290 C   0  0  0  0  0  0  0  0  0  0  0  0
  140.4650   71.2510  225.6190 O   0  0  0  0  0  0  0  0  0  0  0  0
  140.3670   71.2530  224.2380 C   0  0  0  0  0  0  0  0  0  0  0  0
  138.9560   71.3260  223.7950 C   0  0  2  0  0  0  0  0  0  0  0  0
  138.5150   70.0430  223.0710 C   0  0  0  0  0  0  0  0  0  0  0  0
  137.2590   70.5240  222.3830 C   0  0  0  0  0  0  0  0  0  0  0  0
  137.4080   72.0370  222.2010 C   0  0  0  0  0  0  0  0  0  0  0  0
  138.7650   72.2520  222.6690 N   0  0  0  0  0  0  0  0  0  0  0  0
  139.6830   73.1790  222.1150 C   0  0  0  0  0  0  0  0  0  0  0  0
  140.7600   72.6740  221.4880 N   0  0  0  0  0  0  0  0  0  0  0  0
  141.7070   73.4580  220.9200 C   0  0  0  0  0  0  0  0  0  0  0  0
  142.8450   72.9230  220.2560 N   0  0  0  0  0  0  0  0  0  0  0  0
  144.1770   73.3710  220.6690 C   0  0  0  0  0  0  0  0  0  0  0  0
  145.2260   73.0060  219.6580 C   0  0  0  0  0  0  0  0  0  0  0  0
  145.1280   71.5380  219.3770 C   0  0  0  0  0  0  0  0  0  0  0  0
  146.2400   70.7200  219.3430 C   0  0  0  0  0  0  0  0  0  0  0  0
  146.0950   69.3700  219.0790 C   0  0  0  0  0  0  0  0  0  0  0  0
  144.8530   68.8540  218.8550 C   0  0  0  0  0  0  0  0  0  0  0  0
  143.7220   69.6740  218.8870 C   0  0  0  0  0  0  0  0  0  0  0  0
  143.8660   71.0210  219.1510 C   0  0  0  0  0  0  0  0  0  0  0  0
  142.7250   71.9660  219.2040 C   0  0  0  0  0  0  0  0  0  0  0  0
  141.5210   74.7870  221.0110 N   0  0  0  0  0  0  0  0  0  0  0  0
  140.4710   75.3210  221.6210 C   0  0  0  0  0  0  0  0  0  0  0  0
  140.3360   76.7360  221.6800 N   0  0  0  0  0  0  0  0  0  0  0  0
  139.0290   77.2960  221.9600 C   0  0  0  0  0  0  0  0  0  0  0  0
  139.0320   78.2870  223.0910 C   0  0  0  0  0  0  0  0  0  0  0  0
  140.2170   79.1750  223.0370 C   0  0  0  0  0  0  0  0  0  0  0  0
  140.1970   80.3440  223.7640 C   0  0  0  0  0  0  0  0  0  0  0  0
  141.2450   81.2360  223.7830 C   0  0  0  0  0  0  0  0  0  0  0  0
  142.3530   80.9080  223.0220 C   0  0  0  0  0  0  0  0  0  0  0  0
  142.4090   79.7330  222.2740 C   0  0  0  0  0  0  0  0  0  0  0  0
  141.3320   78.8680  222.2860 C   0  0  0  0  0  0  0  0  0  0  0  0
  141.4530   77.6350  221.4700 C   0  0  0  0  0  0  0  0  0  0  0  0
  139.5540   74.5040  222.1720 N   0  0  0  0  0  0  0  0  0  0  0  0
  141.0250   70.4010  227.8460 C   0  0  0  0  0  0  0  0  0  0  0  0
  141.2110   69.3200  228.6950 C   0  0  0  0  0  0  0  0  0  0  0  0
  141.1858   67.1723  228.8897 H   0  0  0  0  0  0  0  0  0  0  0  0
  140.5452   66.8536  226.5213 H   0  0  0  0  0  0  0  0  0  0  0  0
  140.2161   68.7707  225.0317 H   0  0  0  0  0  0  0  0  0  0  0  0
  140.9115   72.1229  223.8421 H   0  0  0  0  0  0  0  0  0  0  0  0
  140.7998   70.3152  223.8596 H   0  0  0  0  0  0  0  0  0  0  0  0
  138.4243   71.5777  224.7245 H   0  0  0  0  0  0  0  0  0  0  0  0
  139.2707   69.7073  222.3456 H   0  0  0  0  0  0  0  0  0  0  0  0
  138.3691   69.1749  223.7306 H   0  0  0  0  0  0  0  0  0  0  0  0
  137.1513   70.0334  221.4044 H   0  0  0  0  0  0  0  0  0  0  0  0
  136.3655   70.2834  222.9778 H   0  0  0  0  0  0  0  0  0  0  0  0
  137.2958   72.3279  221.1461 H   0  0  0  0  0  0  0  0  0  0  0  0
  136.6503   72.6298  222.7343 H   0  0  0  0  0  0  0  0  0  0  0  0
  144.1636   74.4643  220.7895 H   0  0  0  0  0  0  0  0  0  0  0  0
  144.4271   72.8721  221.6169 H   0  0  0  0  0  0  0  0  0  0  0  0
  145.0597   73.5729  218.7301 H   0  0  0  0  0  0  0  0  0  0  0  0
  146.2253   73.2481  220.0489 H   0  0  0  0  0  0  0  0  0  0  0  0
  147.2396   71.1413  219.5256 H   0  0  0  0  0  0  0  0  0  0  0  0
  146.9784   68.7152  219.0499 H   0  0  0  0  0  0  0  0  0  0  0  0
  144.7400   67.7798  218.6467 H   0  0  0  0  0  0  0  0  0  0  0  0
  142.7242   69.2491  218.7031 H   0  0  0  0  0  0  0  0  0  0  0  0
  142.6692   72.5030  218.2456 H   0  0  0  0  0  0  0  0  0  0  0  0
  141.8166   71.3763  219.3962 H   0  0  0  0  0  0  0  0  0  0  0  0
  138.6657   77.8027  221.0538 H   0  0  0  0  0  0  0  0  0  0  0  0
  138.3772   76.4627  222.2611 H   0  0  0  0  0  0  0  0  0  0  0  0
  138.1222   78.9021  223.0287 H   0  0  0  0  0  0  0  0  0  0  0  0
  139.0649   77.7277  224.0376 H   0  0  0  0  0  0  0  0  0  0  0  0
  139.3007   80.5762  224.3580 H   0  0  0  0  0  0  0  0  0  0  0  0
  141.2038   82.1631  224.3735 H   0  0  0  0  0  0  0  0  0  0  0  0
  143.2133   81.5932  223.0068 H   0  0  0  0  0  0  0  0  0  0  0  0
  143.3035   79.4965  221.6791 H   0  0  0  0  0  0  0  0  0  0  0  0
  141.4895   77.9144  220.4067 H   0  0  0  0  0  0  0  0  0  0  0  0
  142.3722   77.1134  221.7749 H   0  0  0  0  0  0  0  0  0  0  0  0
  141.1697   71.4138  228.2500 H   0  0  0  0  0  0  0  0  0  0  0  0
  141.4952   69.4886  229.7442 H   0  0  0  0  0  0  0  0  0  0  0  0
  1  2  2  0
  2  3  1  0
  3  4  2  0
  4  5  1  0
  5  6  1  0
  6  7  1  0
  7  8  1  0
  8  9  1  0
  9 10  1  0
 10 11  1  0
 11 12  1  0
 12 13  2  0
 13 14  1  0
 14 15  1  0
 15 16  1  0
 16 17  1  0
 17 18  1  0
 18 19  2  0
 19 20  1  0
 20 21  2  0
 21 22  1  0
 22 23  2  0
 23 24  1  0
 14 25  2  0
 25 26  1  0
 26 27  1  0
 27 28  1  0
 28 29  1  0
 29 30  1  0
 30 31  2  0
 31 32  1  0
 32 33  2  0
 33 34  1  0
 34 35  2  0
 35 36  1  0
 26 37  2  0
  4 38  1  0
 38 39  2  0
 39  1  1  0
 11  7  1  0
 37 12  1  0
 24 15  1  0
 36 27  1  0
 23 18  1  0
 35 30  1  0
  1 40  1  0
  2 41  1  0
  3 42  1  0
  6 43  1  0
  6 44  1  0
  7 45  1  1
  8 46  1  0
  8 47  1  0
  9 48  1  0
  9 49  1  0
 10 50  1  0
 10 51  1  0
 16 52  1  0
 16 53  1  0
 17 54  1  0
 17 55  1  0
 19 56  1  0
 20 57  1  0
 21 58  1  0
 22 59  1  0
 24 60  1  0
 24 61  1  0
 28 62  1  0
 28 63  1  0
 29 64  1  0
 29 65  1  0
 31 66  1  0
 32 67  1  0
 33 68  1  0
 34 69  1  0
 36 70  1  0
 36 71  1  0
 38 72  1  0
 39 73  1  0
M  END
>  <smiles>  (2) 
c1ccc(OC[C@@H]2CCCN2c2nc(N3CCc4ccccc4C3)nc(N3CCc4ccccc4C3)n2)cc1

>  <score_type>  (2) 
oracle

>  <origin>  (2) 
autodockgpu

>  <m_score__min__energy>  (2) 
-11.19

>  <m_primary>  (2) 
energy

>  <rmsd>  (2) 
9.545829964493398

>  <m_score__min__rmsd>  (2) 
9.545829964493398

>  <meeko>  (2) 
{"free_energy": -10.73, "intermolecular_energy": -12.52, "internal_energy": -1.48, "cluster_size": 29, "cluster_id": 1, "rank_in_cluster": 13}

>  <energy>  (2) 
-11.16

>  <cluster_rmsd>  (2) 
0.1

>  <cluster>  (2) 
1

$$$$

     RDKit          3D

 73 79  0  0  0  0  0  0  0  0999 V2000
  141.1750   78.0560  218.4040 C   0  0  0  0  0  0  0  0  0  0  0  0
  140.7390   76.7830  218.1440 C   0  0  0  0  0  0  0  0  0  0  0  0
  141.5780   75.7000  218.2620 C   0  0  0  0  0  0  0  0  0  0  0  0
  142.9210   75.8450  218.6560 C   0  0  0  0  0  0  0  0  0  0  0  0
  143.6530   74.7100  218.7420 O   0  0  0  0  0  0  0  0  0  0  0  0
  144.4090   74.1470  219.7570 C   0  0  0  0  0  0  0  0  0  0  0  0
  144.4860   72.6750  219.6230 C   0  0  2  0  0  0  0  0  0  0  0  0
  144.2940   72.2210  218.1660 C   0  0  0  0  0  0  0  0  0  0  0  0
  143.9970   70.7530  218.3650 C   0  0  0  0  0  0  0  0  0  0  0  0
  143.4170   70.6080  219.7730 C   0  0  0  0  0  0  0  0  0  0  0  0
  143.3110   71.9950  220.1880 N   0  0  0  0  0  0  0  0  0  0  0  0
  142.2660   72.5350  220.9760 C   0  0  0  0  0  0  0  0  0  0  0  0
  141.6900   71.7170  221.8730 N   0  0  0  0  0  0  0  0  0  0  0  0
  140.6810   72.1180  222.6840 C   0  0  0  0  0  0  0  0  0  0  0  0
  140.0720   71.2510  223.6330 N   0  0  0  0  0  0  0  0  0  0  0  0
  139.3010   70.1050  223.1480 C   0  0  0  0  0  0  0  0  0  0  0  0
  138.4390   69.5160  224.2280 C   0  0  0  0  0  0  0  0  0  0  0  0
  139.3010   69.2200  225.4170 C   0  0  0  0  0  0  0  0  0  0  0  0
  139.2330   68.0190  226.0950 C   0  0  0  0  0  0  0  0  0  0  0  0
  140.0510   67.7970  227.1880 C   0  0  0  0  0  0  0  0  0  0  0  0
  140.9220   68.7650  227.5900 C   0  0  0  0  0  0  0  0  0  0  0  0
  140.9980   69.9840  226.9100 C   0  0  0  0  0  0  0  0  0  0  0  0
  140.1820   70.2060  225.8190 C   0  0  0  0  0  0  0  0  0  0  0  0
  140.1930   71.4670  225.0390 C   0  0  0  0  0  0  0  0  0  0  0  0
  140.2740   73.3920  222.5510 N   0  0  0  0  0  0  0  0  0  0  0  0
  140.8190   74.2290  221.6780 C   0  0  0  0  0  0  0  0  0  0  0  0
  140.3390   75.5650  221.5900 N   0  0  0  0  0  0  0  0  0  0  0  0
  138.9080   75.7860  221.5410 C   0  0  0  0  0  0  0  0  0  0  0  0
  138.4190   76.7770  222.5620 C   0  0  0  0  0  0  0  0  0  0  0  0
  139.3380   77.9320  222.6850 C   0  0  0  0  0  0  0  0  0  0  0  0
  138.8750   79.0780  223.2930 C   0  0  0  0  0  0  0  0  0  0  0  0
  139.6480   80.2050  223.4580 C   0  0  0  0  0  0  0  0  0  0  0  0
  140.9440   80.1460  222.9790 C   0  0  0  0  0  0  0  0  0  0  0  0
  141.4470   79.0030  222.3580 C   0  0  0  0  0  0  0  0  0  0  0  0
  140.6330   77.8960  222.2140 C   0  0  0  0  0  0  0  0  0  0  0  0
  141.2260   76.7110  221.5470 C   0  0  0  0  0  0  0  0  0  0  0  0
  141.8190   73.7880  220.8920 N   0  0  0  0  0  0  0  0  0  0  0  0
  143.3230   77.1300  218.9090 C   0  0  0  0  0  0  0  0  0  0  0  0
  142.4830   78.2270  218.7900 C   0  0  0  0  0  0  0  0  0  0  0  0
  140.4971   78.9168  218.3065 H   0  0  0  0  0  0  0  0  0  0  0  0
  139.6955   76.6242  217.8343 H   0  0  0  0  0  0  0  0  0  0  0  0
  141.1894   74.6946  218.0428 H   0  0  0  0  0  0  0  0  0  0  0  0
  145.4265   74.5632  219.7179 H   0  0  0  0  0  0  0  0  0  0  0  0
  143.9268   74.3815  220.7174 H   0  0  0  0  0  0  0  0  0  0  0  0
  145.4532   72.4402  220.0913 H   0  0  0  0  0  0  0  0  0  0  0  0
  143.4528   72.7431  217.6866 H   0  0  0  0  0  0  0  0  0  0  0  0
  145.1505   72.4277  217.5075 H   0  0  0  0  0  0  0  0  0  0  0  0
  143.2671   70.4093  217.6172 H   0  0  0  0  0  0  0  0  0  0  0  0
  144.9069   70.1461  218.2478 H   0  0  0  0  0  0  0  0  0  0  0  0
  142.4322   70.1183  219.7532 H   0  0  0  0  0  0  0  0  0  0  0  0
  144.0242   69.9843  220.4456 H   0  0  0  0  0  0  0  0  0  0  0  0
  138.6577   70.4339  222.3185 H   0  0  0  0  0  0  0  0  0  0  0  0
  140.0095   69.3318  222.8159 H   0  0  0  0  0  0  0  0  0  0  0  0
  137.6539   70.2335  224.5085 H   0  0  0  0  0  0  0  0  0  0  0  0
  137.9636   68.5916  223.8681 H   0  0  0  0  0  0  0  0  0  0  0  0
  138.5294   67.2400  225.7663 H   0  0  0  0  0  0  0  0  0  0  0  0
  139.9987   66.8419  227.7312 H   0  0  0  0  0  0  0  0  0  0  0  0
  141.5722   68.5852  228.4589 H   0  0  0  0  0  0  0  0  0  0  0  0
  141.7028   70.7606  227.2419 H   0  0  0  0  0  0  0  0  0  0  0  0
  139.3519   72.0930  225.3717 H   0  0  0  0  0  0  0  0  0  0  0  0
  141.1621   71.9564  225.2159 H   0  0  0  0  0  0  0  0  0  0  0  0
  138.6475   76.1601  220.5399 H   0  0  0  0  0  0  0  0  0  0  0  0
  138.4240   74.8241  221.7657 H   0  0  0  0  0  0  0  0  0  0  0  0
  137.4264   77.1414  222.2588 H   0  0  0  0  0  0  0  0  0  0  0  0
  138.3708   76.2705  223.5373 H   0  0  0  0  0  0  0  0  0  0  0  0
  137.8395   79.0933  223.6639 H   0  0  0  0  0  0  0  0  0  0  0  0
  139.2541   81.1083  223.9469 H   0  0  0  0  0  0  0  0  0  0  0  0
  141.5961   81.0248  223.0909 H   0  0  0  0  0  0  0  0  0  0  0  0
  142.4821   78.9831  221.9863 H   0  0  0  0  0  0  0  0  0  0  0  0
  141.4329   76.9611  220.4960 H   0  0  0  0  0  0  0  0  0  0  0  0
  142.1503   76.4464  222.0815 H   0  0  0  0  0  0  0  0  0  0  0  0
  144.3637   77.3001  219.2221 H   0  0  0  0  0  0  0  0  0  0  0  0
  142.8643   79.2361  219.0050 H   0  0  0  0  0  0  0  0  0  0  0  0
  1  2  2  0
  2  3  1  0
  3  4  2  0
  4  5  1  0
  5  6  1  0
  6  7  1  0
  7  8  1  0
  8  9  1  0
  9 10  1  0
 10 11  1  0
 11 12  1  0
 12 13  2  0
 13 14  1  0
 14 15  1  0
 15 16  1  0
 16 17  1  0
 17 18  1  0
 18 19  2  0
 19 20  1  0
 20 21  2  0
 21 22  1  0
 22 23  2  0
 23 24  1  0
 14 25  2  0
 25 26  1  0
 26 27  1  0
 27 28  1  0
 28 29  1  0
 29 30  1  0
 30 31  2  0
 31 32  1  0
 32 33  2  0
 33 34  1  0
 34 35  2  0
 35 36  1  0
 26 37  2  0
  4 38  1  0
 38 39  2  0
 39  1  1  0
 11  7  1  0
 37 12  1  0
 24 15  1  0
 36 27  1  0
 23 18  1  0
 35 30  1  0
  1 40  1  0
  2 41  1  0
  3 42  1  0
  6 43  1  0
  6 44  1  0
  7 45  1  1
  8 46  1  0
  8 47  1  0
  9 48  1  0
  9 49  1  0
 10 50  1  0
 10 51  1  0
 16 52  1  0
 16 53  1  0
 17 54  1  0
 17 55  1  0
 19 56  1  0
 20 57  1  0
 21 58  1  0
 22 59  1  0
 24 60  1  0
 24 61  1  0
 28 62  1  0
 28 63  1  0
 29 64  1  0
 29 65  1  0
 31 66  1  0
 32 67  1  0
 33 68  1  0
 34 69  1  0
 36 70  1  0
 36 71  1  0
 38 72  1  0
 39 73  1  0
M  END
>  <smiles>  (3) 
c1ccc(OC[C@@H]2CCCN2c2nc(N3CCc4ccccc4C3)nc(N3CCc4ccccc4C3)n2)cc1

>  <score_type>  (3) 
oracle

>  <origin>  (3) 
autodockgpu

>  <m_score__min__energy>  (3) 
-11.19

>  <m_primary>  (3) 
energy

>  <rmsd>  (3) 
11.298853883266473

>  <m_score__min__rmsd>  (3) 
11.298853883266473

>  <meeko>  (3) 
{"free_energy": -9.56, "intermolecular_energy": -11.35, "internal_energy": -2.58, "cluster_size": 9, "cluster_id": 5, "rank_in_cluster": 4}

>  <energy>  (3) 
-10.97

>  <cluster_rmsd>  (3) 
0.52

>  <cluster>  (3) 
1

$$$$

     RDKit          3D

 73 79  0  0  0  0  0  0  0  0999 V2000
  142.0940   81.3930  223.3860 C   0  0  0  0  0  0  0  0  0  0  0  0
  142.3110   80.2310  224.0810 C   0  0  0  0  0  0  0  0  0  0  0  0
  142.1900   79.0020  223.4760 C   0  0  0  0  0  0  0  0  0  0  0  0
  141.8410   78.8760  222.1190 C   0  0  0  0  0  0  0  0  0  0  0  0
  141.7540   77.6180  221.6290 O   0  0  0  0  0  0  0  0  0  0  0  0
  141.0100   76.5090  221.9980 C   0  0  0  0  0  0  0  0  0  0  0  0
  139.7840   76.3810  221.1790 C   0  0  2  0  0  0  0  0  0  0  0  0
  138.5650   77.0160  221.8680 C   0  0  0  0  0  0  0  0  0  0  0  0
  137.4380   76.3990  221.0740 C   0  0  0  0  0  0  0  0  0  0  0  0
  137.9680   75.0790  220.5090 C   0  0  0  0  0  0  0  0  0  0  0  0
  139.2770   75.0020  221.1340 N   0  0  0  0  0  0  0  0  0  0  0  0
  139.8950   73.8130  221.5920 C   0  0  0  0  0  0  0  0  0  0  0  0
  140.9240   73.3390  220.8670 N   0  0  0  0  0  0  0  0  0  0  0  0
  141.5940   72.2110  221.2040 C   0  0  0  0  0  0  0  0  0  0  0  0
  142.6830   71.7110  220.4370 N   0  0  0  0  0  0  0  0  0  0  0  0
  143.9590   72.4280  220.4740 C   0  0  0  0  0  0  0  0  0  0  0  0
  144.8700   72.0020  219.3590 C   0  0  0  0  0  0  0  0  0  0  0  0
  144.9990   70.5090  219.3930 C   0  0  0  0  0  0  0  0  0  0  0  0
  146.2210   69.8740  219.2910 C   0  0  0  0  0  0  0  0  0  0  0  0
  146.2850   68.4930  219.3270 C   0  0  0  0  0  0  0  0  0  0  0  0
  145.1400   67.7660  219.4660 C   0  0  0  0  0  0  0  0  0  0  0  0
  143.8990   68.4000  219.5700 C   0  0  0  0  0  0  0  0  0  0  0  0
  143.8350   69.7780  219.5340 C   0  0  0  0  0  0  0  0  0  0  0  0
  142.5650   70.5360  219.6370 C   0  0  0  0  0  0  0  0  0  0  0  0
  141.1800   71.5740  222.3140 N   0  0  0  0  0  0  0  0  0  0  0  0
  140.1700   72.0120  223.0530 C   0  0  0  0  0  0  0  0  0  0  0  0
  139.7850   71.2890  224.2160 N   0  0  0  0  0  0  0  0  0  0  0  0
  138.8120   70.2230  224.0790 C   0  0  0  0  0  0  0  0  0  0  0  0
  139.2620   68.9200  224.6810 C   0  0  0  0  0  0  0  0  0  0  0  0
  139.9500   69.1260  225.9760 C   0  0  0  0  0  0  0  0  0  0  0  0
  140.1030   68.0470  226.8180 C   0  0  0  0  0  0  0  0  0  0  0  0
  140.7280   68.1320  228.0420 C   0  0  0  0  0  0  0  0  0  0  0  0
  141.2100   69.3750  228.4100 C   0  0  0  0  0  0  0  0  0  0  0  0
  141.0730   70.4900  227.5830 C   0  0  0  0  0  0  0  0  0  0  0  0
  140.4390   70.3560  226.3630 C   0  0  0  0  0  0  0  0  0  0  0  0
  140.3250   71.5780  225.5300 C   0  0  0  0  0  0  0  0  0  0  0  0
  139.5320   73.1380  222.6820 N   0  0  0  0  0  0  0  0  0  0  0  0
  141.6320   80.0570  221.4550 C   0  0  0  0  0  0  0  0  0  0  0  0
  141.7500   81.3000  222.0590 C   0  0  0  0  0  0  0  0  0  0  0  0
  142.1926   82.3723  223.8772 H   0  0  0  0  0  0  0  0  0  0  0  0
  142.5876   80.2830  225.1444 H   0  0  0  0  0  0  0  0  0  0  0  0
  142.3709   78.0933  224.0689 H   0  0  0  0  0  0  0  0  0  0  0  0
  141.6243   75.6062  221.8653 H   0  0  0  0  0  0  0  0  0  0  0  0
  140.7113   76.6284  223.0499 H   0  0  0  0  0  0  0  0  0  0  0  0
  140.0907   76.8159  220.2163 H   0  0  0  0  0  0  0  0  0  0  0  0
  138.5106   76.7384  222.9310 H   0  0  0  0  0  0  0  0  0  0  0  0
  138.5678   78.1160  221.8756 H   0  0  0  0  0  0  0  0  0  0  0  0
  136.5728   76.2115  221.7269 H   0  0  0  0  0  0  0  0  0  0  0  0
  137.1090   77.0705  220.2673 H   0  0  0  0  0  0  0  0  0  0  0  0
  137.3316   74.2315  220.8033 H   0  0  0  0  0  0  0  0  0  0  0  0
  137.9924   75.0389  219.4100 H   0  0  0  0  0  0  0  0  0  0  0  0
  143.7642   73.5067  220.3823 H   0  0  0  0  0  0  0  0  0  0  0  0
  144.4544   72.1957  221.4282 H   0  0  0  0  0  0  0  0  0  0  0  0
  144.4464   72.3158  218.3935 H   0  0  0  0  0  0  0  0  0  0  0  0
  145.8587   72.4682  219.4817 H   0  0  0  0  0  0  0  0  0  0  0  0
  147.1419   70.4656  219.1813 H   0  0  0  0  0  0  0  0  0  0  0  0
  147.2561   67.9830  219.2438 H   0  0  0  0  0  0  0  0  0  0  0  0
  145.1937   66.6677  219.4966 H   0  0  0  0  0  0  0  0  0  0  0  0
  142.9802   67.8052  219.6797 H   0  0  0  0  0  0  0  0  0  0  0  0
  142.2490   70.8305  218.6253 H   0  0  0  0  0  0  0  0  0  0  0  0
  141.8272   69.8796  220.1216 H   0  0  0  0  0  0  0  0  0  0  0  0
  137.8820   70.5341  224.5772 H   0  0  0  0  0  0  0  0  0  0  0  0
  138.6701   70.0504  223.0019 H   0  0  0  0  0  0  0  0  0  0  0  0
  138.3828   68.2788  224.8420 H   0  0  0  0  0  0  0  0  0  0  0  0
  139.9716   68.4471  223.9861 H   0  0  0  0  0  0  0  0  0  0  0  0
  139.7075   67.0718  226.4978 H   0  0  0  0  0  0  0  0  0  0  0  0
  140.8385   67.2540  228.6954 H   0  0  0  0  0  0  0  0  0  0  0  0
  141.7149   69.4874  229.3808 H   0  0  0  0  0  0  0  0  0  0  0  0
  141.4663   71.4673  227.8995 H   0  0  0  0  0  0  0  0  0  0  0  0
  139.6614   72.2936  226.0375 H   0  0  0  0  0  0  0  0  0  0  0  0
  141.3339   71.9963  225.3991 H   0  0  0  0  0  0  0  0  0  0  0  0
  141.3572   80.0169  220.3906 H   0  0  0  0  0  0  0  0  0  0  0  0
  141.5677   82.2137  221.4742 H   0  0  0  0  0  0  0  0  0  0  0  0
  1  2  2  0
  2  3  1  0
  3  4  2  0
  4  5  1  0
  5  6  1  0
  6  7  1  0
  7  8  1  0
  8  9  1  0
  9 10  1  0
 10 11  1  0
 11 12  1  0
 12 13  2  0
 13 14  1  0
 14 15  1  0
 15 16  1  0
 16 17  1  0
 17 18  1  0
 18 19  2  0
 19 20  1  0
 20 21  2  0
 21 22  1  0
 22 23  2  0
 23 24  1  0
 14 25  2  0
 25 26  1  0
 26 27  1  0
 27 28  1  0
 28 29  1  0
 29 30  1  0
 30 31  2  0
 31 32  1  0
 32 33  2  0
 33 34  1  0
 34 35  2  0
 35 36  1  0
 26 37  2  0
  4 38  1  0
 38 39  2  0
 39  1  1  0
 11  7  1  0
 37 12  1  0
 24 15  1  0
 36 27  1  0
 23 18  1  0
 35 30  1  0
  1 40  1  0
  2 41  1  0
  3 42  1  0
  6 43  1  0
  6 44  1  0
  7 45  1  6
  8 46  1  0
  8 47  1  0
  9 48  1  0
  9 49  1  0
 10 50  1  0
 10 51  1  0
 16 52  1  0
 16 53  1  0
 17 54  1  0
 17 55  1  0
 19 56  1  0
 20 57  1  0
 21 58  1  0
 22 59  1  0
 24 60  1  0
 24 61  1  0
 28 62  1  0
 28 63  1  0
 29 64  1  0
 29 65  1  0
 31 66  1  0
 32 67  1  0
 33 68  1  0
 34 69  1  0
 36 70  1  0
 36 71  1  0
 38 72  1  0
 39 73  1  0
M  END
>  <smiles>  (4) 
c1ccc(OC[C@@H]2CCCN2c2nc(N3CCc4ccccc4C3)nc(N3CCc4ccccc4C3)n2)cc1

>  <score_type>  (4) 
oracle

>  <origin>  (4) 
autodockgpu

>  <m_score__min__energy>  (4) 
-11.19

>  <m_primary>  (4) 
energy

>  <rmsd>  (4) 
10.425590396106177

>  <m_score__min__rmsd>  (4) 
10.425590396106177

>  <meeko>  (4) 
{"free_energy": -10.74, "intermolecular_energy": -12.53, "internal_energy": -1.47, "cluster_size": 29, "cluster_id": 1, "rank_in_cluster": 11}

>  <energy>  (4) 
-10.94

>  <cluster_rmsd>  (4) 
0.25

>  <cluster>  (4) 
1

$$$$

     RDKit          3D

 73 79  0  0  0  0  0  0  0  0999 V2000
  140.7620   77.9710  218.4620 C   0  0  0  0  0  0  0  0  0  0  0  0
  140.5020   76.6440  218.2370 C   0  0  0  0  0  0  0  0  0  0  0  0
  141.4830   75.6890  218.3700 C   0  0  0  0  0  0  0  0  0  0  0  0
  142.7970   76.0260  218.7430 C   0  0  0  0  0  0  0  0  0  0  0  0
  143.6790   75.0050  218.8460 O   0  0  0  0  0  0  0  0  0  0  0  0
  144.4180   74.4970  219.9010 C   0  0  0  0  0  0  0  0  0  0  0  0
  144.6060   73.0340  219.7770 C   0  0  2  0  0  0  0  0  0  0  0  0
  144.5070   72.5650  218.3160 C   0  0  0  0  0  0  0  0  0  0  0  0
  144.3080   71.0800  218.5080 C   0  0  0  0  0  0  0  0  0  0  0  0
  143.6820   70.8950  219.8920 C   0  0  0  0  0  0  0  0  0  0  0  0
  143.4600   72.2720  220.2960 N   0  0  0  0  0  0  0  0  0  0  0  0
  142.3470   72.7370  221.0380 C   0  0  0  0  0  0  0  0  0  0  0  0
  141.7610   71.8640  221.8750 N   0  0  0  0  0  0  0  0  0  0  0  0
  140.6900   72.1910  222.6370 C   0  0  0  0  0  0  0  0  0  0  0  0
  140.0700   71.2660  223.5230 N   0  0  0  0  0  0  0  0  0  0  0  0
  139.3220   70.1430  222.9570 C   0  0  0  0  0  0  0  0  0  0  0  0
  138.4440   69.4850  223.9840 C   0  0  0  0  0  0  0  0  0  0  0  0
  139.2840   69.1310  225.1730 C   0  0  0  0  0  0  0  0  0  0  0  0
  139.2140   67.8930  225.7800 C   0  0  0  0  0  0  0  0  0  0  0  0
  140.0110   67.6160  226.8760 C   0  0  0  0  0  0  0  0  0  0  0  0
  140.8630   68.5690  227.3500 C   0  0  0  0  0  0  0  0  0  0  0  0
  140.9410   69.8250  226.7420 C   0  0  0  0  0  0  0  0  0  0  0  0
  140.1460   70.1010  225.6490 C   0  0  0  0  0  0  0  0  0  0  0  0
  140.1600   71.4040  224.9400 C   0  0  0  0  0  0  0  0  0  0  0  0
  140.2300   73.4490  222.5190 N   0  0  0  0  0  0  0  0  0  0  0  0
  140.7830   74.3380  221.7050 C   0  0  0  0  0  0  0  0  0  0  0  0
  140.2450   75.6530  221.6300 N   0  0  0  0  0  0  0  0  0  0  0  0
  138.8100   75.8090  221.4980 C   0  0  0  0  0  0  0  0  0  0  0  0
  138.2130   76.7400  222.5170 C   0  0  0  0  0  0  0  0  0  0  0  0
  139.0660   77.9320  222.7350 C   0  0  0  0  0  0  0  0  0  0  0  0
  138.5120   79.0330  223.3480 C   0  0  0  0  0  0  0  0  0  0  0  0
  139.2170   80.1890  223.5970 C   0  0  0  0  0  0  0  0  0  0  0  0
  140.5420   80.2070  223.1980 C   0  0  0  0  0  0  0  0  0  0  0  0
  141.1360   79.1100  222.5740 C   0  0  0  0  0  0  0  0  0  0  0  0
  140.3880   77.9720  222.3450 C   0  0  0  0  0  0  0  0  0  0  0  0
  141.0770   76.8390  221.6780 C   0  0  0  0  0  0  0  0  0  0  0  0
  141.8460   73.9700  220.9660 N   0  0  0  0  0  0  0  0  0  0  0  0
  143.0220   77.3600  218.9600 C   0  0  0  0  0  0  0  0  0  0  0  0
  142.0370   78.3290  218.8270 C   0  0  0  0  0  0  0  0  0  0  0  0
  139.9715   78.7282  218.3533 H   0  0  0  0  0  0  0  0  0  0  0  0
  139.4874   76.3364  217.9439 H   0  0  0  0  0  0  0  0  0  0  0  0
  141.2337   74.6346  218.1798 H   0  0  0  0  0  0  0  0  0  0  0  0
  145.4041   74.9842  219.9140 H   0  0  0  0  0  0  0  0  0  0  0  0
  143.8702   74.6967  220.8338 H   0  0  0  0  0  0  0  0  0  0  0  0
  145.5675   72.8703  220.2857 H   0  0  0  0  0  0  0  0  0  0  0  0
  143.6510   73.0248  217.8004 H   0  0  0  0  0  0  0  0  0  0  0  0
  145.3732   72.8315  217.6926 H   0  0  0  0  0  0  0  0  0  0  0  0
  143.6361   70.6842  217.7322 H   0  0  0  0  0  0  0  0  0  0  0  0
  145.2631   70.5398  218.4305 H   0  0  0  0  0  0  0  0  0  0  0  0
  142.7365   70.3359  219.8338 H   0  0  0  0  0  0  0  0  0  0  0  0
  144.3037   70.3171  220.5917 H   0  0  0  0  0  0  0  0  0  0  0  0
  138.6925   70.5127  222.1342 H   0  0  0  0  0  0  0  0  0  0  0  0
  140.0452   69.3969  222.5959 H   0  0  0  0  0  0  0  0  0  0  0  0
  137.6451   70.1776  224.2874 H   0  0  0  0  0  0  0  0  0  0  0  0
  137.9870   68.5775  223.5625 H   0  0  0  0  0  0  0  0  0  0  0  0
  138.5253   67.1278  225.3925 H   0  0  0  0  0  0  0  0  0  0  0  0
  139.9577   66.6311  227.3631 H   0  0  0  0  0  0  0  0  0  0  0  0
  141.4966   68.3467  228.2213 H   0  0  0  0  0  0  0  0  0  0  0  0
  141.6311   70.5876  227.1321 H   0  0  0  0  0  0  0  0  0  0  0  0
  139.3059   72.0028  225.2893 H   0  0  0  0  0  0  0  0  0  0  0  0
  141.1205   71.8913  225.1638 H   0  0  0  0  0  0  0  0  0  0  0  0
  138.5934   76.2051  220.4949 H   0  0  0  0  0  0  0  0  0  0  0  0
  138.3599   74.8186  221.6607 H   0  0  0  0  0  0  0  0  0  0  0  0
  137.2244   77.0686  222.1640 H   0  0  0  0  0  0  0  0  0  0  0  0
  138.1303   76.1979  223.4706 H   0  0  0  0  0  0  0  0  0  0  0  0
  137.4562   78.9870  223.6533 H   0  0  0  0  0  0  0  0  0  0  0  0
  138.7503   81.0553  224.0887 H   0  0  0  0  0  0  0  0  0  0  0  0
  141.1429   81.1107  223.3778 H   0  0  0  0  0  0  0  0  0  0  0  0
  142.1915   79.1510  222.2669 H   0  0  0  0  0  0  0  0  0  0  0  0
  141.3343   77.1347  220.6502 H   0  0  0  0  0  0  0  0  0  0  0  0
  141.9794   76.5990  222.2594 H   0  0  0  0  0  0  0  0  0  0  0  0
  144.0329   77.6788  219.2541 H   0  0  0  0  0  0  0  0  0  0  0  0
  142.2779   79.3858  219.0143 H   0  0  0  0  0  0  0  0  0  0  0  0
  1  2  2  0
  2  3  1  0
  3  4  2  0
  4  5  1  0
  5  6  1  0
  6  7  1  0
  7  8  1  0
  8  9  1  0
  9 10  1  0
 10 11  1  0
 11 12  1  0
 12 13  2  0
 13 14  1  0
 14 15  1  0
 15 16  1  0
 16 17  1  0
 17 18  1  0
 18 19  2  0
 19 20  1  0
 20 21  2  0
 21 22  1  0
 22 23  2  0
 23 24  1  0
 14 25  2  0
 25 26  1  0
 26 27  1  0
 27 28  1  0
 28 29  1  0
 29 30  1  0
 30 31  2  0
 31 32  1  0
 32 33  2  0
 33 34  1  0
 34 35  2  0
 35 36  1  0
 26 37  2  0
  4 38  1  0
 38 39  2  0
 39  1  1  0
 11  7  1  0
 37 12  1  0
 24 15  1  0
 36 27  1  0
 23 18  1  0
 35 30  1  0
  1 40  1  0
  2 41  1  0
  3 42  1  0
  6 43  1  0
  6 44  1  0
  7 45  1  1
  8 46  1  0
  8 47  1  0
  9 48  1  0
  9 49  1  0
 10 50  1  0
 10 51  1  0
 16 52  1  0
 16 53  1  0
 17 54  1  0
 17 55  1  0
 19 56  1  0
 20 57  1  0
 21 58  1  0
 22 59  1  0
 24 60  1  0
 24 61  1  0
 28 62  1  0
 28 63  1  0
 29 64  1  0
 29 65  1  0
 31 66  1  0
 32 67  1  0
 33 68  1  0
 34 69  1  0
 36 70  1  0
 36 71  1  0
 38 72  1  0
 39 73  1  0
M  END
>  <smiles>  (5) 
c1ccc(OC[C@@H]2CCCN2c2nc(N3CCc4ccccc4C3)nc(N3CCc4ccccc4C3)n2)cc1

>  <score_type>  (5) 
oracle

>  <origin>  (5) 
autodockgpu

>  <m_score__min__energy>  (5) 
-11.19

>  <m_primary>  (5) 
energy

>  <rmsd>  (5) 
11.267518339440285

>  <m_score__min__rmsd>  (5) 
11.267518339440285

>  <meeko>  (5) 
{"free_energy": -9.5, "intermolecular_energy": -11.29, "internal_energy": -2.59, "cluster_size": 9, "cluster_id": 5, "rank_in_cluster": 6}

>  <energy>  (5) 
-10.94

>  <cluster_rmsd>  (5) 
0.31

>  <cluster>  (5) 
1

$$$$

     RDKit          3D

 73 79  0  0  0  0  0  0  0  0999 V2000
  141.6830   78.1180  218.6710 C   0  0  0  0  0  0  0  0  0  0  0  0
  140.6450   77.3460  218.2180 C   0  0  0  0  0  0  0  0  0  0  0  0
  140.8540   76.0710  217.7440 C   0  0  0  0  0  0  0  0  0  0  0  0
  142.1390   75.5000  217.7020 C   0  0  0  0  0  0  0  0  0  0  0  0
  142.2260   74.2390  217.2180 O   0  0  0  0  0  0  0  0  0  0  0  0
  142.2510   72.9940  217.8240 C   0  0  0  0  0  0  0  0  0  0  0  0
  143.5470   72.7430  218.4940 C   0  0  2  0  0  0  0  0  0  0  0  0
  143.9780   71.2710  218.3770 C   0  0  0  0  0  0  0  0  0  0  0  0
  145.0390   71.2010  219.4500 C   0  0  0  0  0  0  0  0  0  0  0  0
  144.7120   72.2980  220.4650 C   0  0  0  0  0  0  0  0  0  0  0  0
  143.4440   72.7920  219.9600 N   0  0  0  0  0  0  0  0  0  0  0  0
  142.3560   73.2210  220.7590 C   0  0  0  0  0  0  0  0  0  0  0  0
  141.7880   72.3050  221.5620 N   0  0  0  0  0  0  0  0  0  0  0  0
  140.7420   72.5950  222.3720 C   0  0  0  0  0  0  0  0  0  0  0  0
  140.1410   71.6250  223.2220 N   0  0  0  0  0  0  0  0  0  0  0  0
  139.3220   70.5720  222.6200 C   0  0  0  0  0  0  0  0  0  0  0  0
  138.4810   69.8650  223.6450 C   0  0  0  0  0  0  0  0  0  0  0  0
  139.3740   69.3960  224.7530 C   0  0  0  0  0  0  0  0  0  0  0  0
  139.2950   68.1180  225.2690 C   0  0  0  0  0  0  0  0  0  0  0  0
  140.1430   67.7340  226.2930 C   0  0  0  0  0  0  0  0  0  0  0  0
  141.0540   68.6210  226.7850 C   0  0  0  0  0  0  0  0  0  0  0  0
  141.1410   69.9170  226.2680 C   0  0  0  0  0  0  0  0  0  0  0  0
  140.2960   70.2990  225.2470 C   0  0  0  0  0  0  0  0  0  0  0  0
  140.3160   71.6510  224.6380 C   0  0  0  0  0  0  0  0  0  0  0  0
  140.2890   73.8610  222.3400 N   0  0  0  0  0  0  0  0  0  0  0  0
  140.8250   74.7910  221.5610 C   0  0  0  0  0  0  0  0  0  0  0  0
  140.2950   76.1110  221.5770 N   0  0  0  0  0  0  0  0  0  0  0  0
  138.8620   76.2850  221.4520 C   0  0  0  0  0  0  0  0  0  0  0  0
  138.2660   77.1460  222.5320 C   0  0  0  0  0  0  0  0  0  0  0  0
  139.1260   78.3140  222.8340 C   0  0  0  0  0  0  0  0  0  0  0  0
  138.5760   79.3740  223.5220 C   0  0  0  0  0  0  0  0  0  0  0  0
  139.2880   80.5050  223.8530 C   0  0  0  0  0  0  0  0  0  0  0  0
  140.6140   80.5420  223.4600 C   0  0  0  0  0  0  0  0  0  0  0  0
  141.2040   79.4880  222.7630 C   0  0  0  0  0  0  0  0  0  0  0  0
  140.4490   78.3730  222.4520 C   0  0  0  0  0  0  0  0  0  0  0  0
  141.1340   77.2860  221.7100 C   0  0  0  0  0  0  0  0  0  0  0  0
  141.8630   74.4590  220.7710 N   0  0  0  0  0  0  0  0  0  0  0  0
  143.1520   76.2990  218.1630 C   0  0  0  0  0  0  0  0  0  0  0  0
  142.9490   77.5850  218.6410 C   0  0  0  0  0  0  0  0  0  0  0  0
  141.5073   79.1363  219.0482 H   0  0  0  0  0  0  0  0  0  0  0  0
  139.6236   77.7540  218.2336 H   0  0  0  0  0  0  0  0  0  0  0  0
  139.9945   75.4835  217.3890 H   0  0  0  0  0  0  0  0  0  0  0  0
  141.4462   72.9444  218.5722 H   0  0  0  0  0  0  0  0  0  0  0  0
  142.1104   72.2287  217.0465 H   0  0  0  0  0  0  0  0  0  0  0  0
  144.2067   73.4907  218.0296 H   0  0  0  0  0  0  0  0  0  0  0  0
  143.1430   70.5866  218.5880 H   0  0  0  0  0  0  0  0  0  0  0  0
  144.3230   70.9756  217.3752 H   0  0  0  0  0  0  0  0  0  0  0  0
  145.0200   70.2153  219.9380 H   0  0  0  0  0  0  0  0  0  0  0  0
  146.0428   71.3437  219.0233 H   0  0  0  0  0  0  0  0  0  0  0  0
  144.6076   71.8877  221.4803 H   0  0  0  0  0  0  0  0  0  0  0  0
  145.4897   73.0706  220.5561 H   0  0  0  0  0  0  0  0  0  0  0  0
  138.6601   71.0229  221.8659 H   0  0  0  0  0  0  0  0  0  0  0  0
  139.9967   69.8333  222.1626 H   0  0  0  0  0  0  0  0  0  0  0  0
  137.7251   70.5566  224.0455 H   0  0  0  0  0  0  0  0  0  0  0  0
  137.9695   69.0067  223.1850 H   0  0  0  0  0  0  0  0  0  0  0  0
  138.5592   67.4060  224.8669 H   0  0  0  0  0  0  0  0  0  0  0  0
  140.0823   66.7172  226.7083 H   0  0  0  0  0  0  0  0  0  0  0  0
  141.7282   68.3135  227.5980 H   0  0  0  0  0  0  0  0  0  0  0  0
  141.8778   70.6267  226.6724 H   0  0  0  0  0  0  0  0  0  0  0  0
  139.5048   72.2475  225.0810 H   0  0  0  0  0  0  0  0  0  0  0  0
  141.3043   72.0896  224.8404 H   0  0  0  0  0  0  0  0  0  0  0  0
  138.6515   76.7519  220.4785 H   0  0  0  0  0  0  0  0  0  0  0  0
  138.4057   75.2884  221.5438 H   0  0  0  0  0  0  0  0  0  0  0  0
  137.2805   77.5045  222.1998 H   0  0  0  0  0  0  0  0  0  0  0  0
  138.1756   76.5396  223.4453 H   0  0  0  0  0  0  0  0  0  0  0  0
  137.5190   79.3136  223.8206 H   0  0  0  0  0  0  0  0  0  0  0  0
  138.8254   81.3380  224.4027 H   0  0  0  0  0  0  0  0  0  0  0  0
  141.2196   81.4272  223.7041 H   0  0  0  0  0  0  0  0  0  0  0  0
  142.2609   79.5436  222.4634 H   0  0  0  0  0  0  0  0  0  0  0  0
  141.3966   77.6511  220.7061 H   0  0  0  0  0  0  0  0  0  0  0  0
  142.0333   77.0009  222.2757 H   0  0  0  0  0  0  0  0  0  0  0  0
  144.1773   75.9007  218.1535 H   0  0  0  0  0  0  0  0  0  0  0  0
  143.8034   78.1795  218.9969 H   0  0  0  0  0  0  0  0  0  0  0  0
  1  2  2  0
  2  3  1  0
  3  4  2  0
  4  5  1  0
  5  6  1  0
  6  7  1  0
  7  8  1  0
  8  9  1  0
  9 10  1  0
 10 11  1  0
 11 12  1  0
 12 13  2  0
 13 14  1  0
 14 15  1  0
 15 16  1  0
 16 17  1  0
 17 18  1  0
 18 19  2  0
 19 20  1  0
 20 21  2  0
 21 22  1  0
 22 23  2  0
 23 24  1  0
 14 25  2  0
 25 26  1  0
 26 27  1  0
 27 28  1  0
 28 29  1  0
 29 30  1  0
 30 31  2  0
 31 32  1  0
 32 33  2  0
 33 34  1  0
 34 35  2  0
 35 36  1  0
 26 37  2  0
  4 38  1  0
 38 39  2  0
 39  1  1  0
 11  7  1  0
 37 12  1  0
 24 15  1  0
 36 27  1  0
 23 18  1  0
 35 30  1  0
  1 40  1  0
  2 41  1  0
  3 42  1  0
  6 43  1  0
  6 44  1  0
  7 45  1  6
  8 46  1  0
  8 47  1  0
  9 48  1  0
  9 49  1  0
 10 50  1  0
 10 51  1  0
 16 52  1  0
 16 53  1  0
 17 54  1  0
 17 55  1  0
 19 56  1  0
 20 57  1  0
 21 58  1  0
 22 59  1  0
 24 60  1  0
 24 61  1  0
 28 62  1  0
 28 63  1  0
 29 64  1  0
 29 65  1  0
 31 66  1  0
 32 67  1  0
 33 68  1  0
 34 69  1  0
 36 70  1  0
 36 71  1  0
 38 72  1  0
 39 73  1  0
M  END
>  <smiles>  (6) 
c1ccc(OC[C@@H]2CCCN2c2nc(N3CCc4ccccc4C3)nc(N3CCc4ccccc4C3)n2)cc1

>  <score_type>  (6) 
oracle

>  <origin>  (6) 
autodockgpu

>  <m_score__min__energy>  (6) 
-11.19

>  <m_primary>  (6) 
energy

>  <rmsd>  (6) 
10.87564331070414

>  <m_score__min__rmsd>  (6) 
10.87564331070414

>  <meeko>  (6) 
{"free_energy": -9.21, "intermolecular_energy": -11.0, "internal_energy": -2.6, "cluster_size": 9, "cluster_id": 5, "rank_in_cluster": 8}

>  <energy>  (6) 
-10.91

>  <cluster_rmsd>  (6) 
1.84

>  <cluster>  (6) 
1

$$$$

     RDKit          3D

 73 79  0  0  0  0  0  0  0  0999 V2000
  140.9100   68.5100  228.4460 C   0  0  0  0  0  0  0  0  0  0  0  0
  140.5820   67.7530  227.3510 C   0  0  0  0  0  0  0  0  0  0  0  0
  140.4270   68.3200  226.1080 C   0  0  0  0  0  0  0  0  0  0  0  0
  140.5970   69.7010  225.8990 C   0  0  0  0  0  0  0  0  0  0  0  0
  140.4210   70.1490  224.6350 O   0  0  0  0  0  0  0  0  0  0  0  0
  140.2040   71.4080  224.0990 C   0  0  0  0  0  0  0  0  0  0  0  0
  138.8580   71.5130  223.4920 C   0  0  2  0  0  0  0  0  0  0  0  0
  138.4320   70.2020  222.8100 C   0  0  0  0  0  0  0  0  0  0  0  0
  137.2890   70.6890  221.9500 C   0  0  0  0  0  0  0  0  0  0  0  0
  137.5400   72.1750  221.6840 C   0  0  0  0  0  0  0  0  0  0  0  0
  138.8460   72.3610  222.2900 N   0  0  0  0  0  0  0  0  0  0  0  0
  139.8690   73.2010  221.7860 C   0  0  0  0  0  0  0  0  0  0  0  0
  139.7590   74.5170  222.0340 N   0  0  0  0  0  0  0  0  0  0  0  0
  140.6730   75.4190  221.6040 C   0  0  0  0  0  0  0  0  0  0  0  0
  140.5550   76.8120  221.8680 N   0  0  0  0  0  0  0  0  0  0  0  0
  139.4070   77.2890  222.6400 C   0  0  0  0  0  0  0  0  0  0  0  0
  139.2340   78.7760  222.5220 C   0  0  0  0  0  0  0  0  0  0  0  0
  140.5320   79.4360  222.8750 C   0  0  0  0  0  0  0  0  0  0  0  0
  140.5970   80.5190  223.7290 C   0  0  0  0  0  0  0  0  0  0  0  0
  141.8210   81.0930  224.0230 C   0  0  0  0  0  0  0  0  0  0  0  0
  142.9580   80.5840  223.4680 C   0  0  0  0  0  0  0  0  0  0  0  0
  142.9010   79.4880  222.6020 C   0  0  0  0  0  0  0  0  0  0  0  0
  141.6800   78.9150  222.3090 C   0  0  0  0  0  0  0  0  0  0  0  0
  141.5230   77.7520  221.4030 C   0  0  0  0  0  0  0  0  0  0  0  0
  141.7140   74.9340  220.9050 N   0  0  0  0  0  0  0  0  0  0  0  0
  141.8570   73.6420  220.6420 C   0  0  0  0  0  0  0  0  0  0  0  0
  142.9840   73.1960  219.8970 N   0  0  0  0  0  0  0  0  0  0  0  0
  144.2850   73.7560  220.2060 C   0  0  0  0  0  0  0  0  0  0  0  0
  145.3410   72.7160  220.4570 C   0  0  0  0  0  0  0  0  0  0  0  0
  145.2340   71.5870  219.5030 C   0  0  0  0  0  0  0  0  0  0  0  0
  146.3130   70.7440  219.3590 C   0  0  0  0  0  0  0  0  0  0  0  0
  146.3150   69.6670  218.5010 C   0  0  0  0  0  0  0  0  0  0  0  0
  145.1630   69.4550  217.7660 C   0  0  0  0  0  0  0  0  0  0  0  0
  144.0510   70.2880  217.8870 C   0  0  0  0  0  0  0  0  0  0  0  0
  144.0950   71.3570  218.7610 C   0  0  0  0  0  0  0  0  0  0  0  0
  142.8810   72.2060  218.8440 C   0  0  0  0  0  0  0  0  0  0  0  0
  140.9240   72.7800  221.0890 N   0  0  0  0  0  0  0  0  0  0  0  0
  140.9240   70.4280  227.0140 C   0  0  0  0  0  0  0  0  0  0  0  0
  141.0820   69.8620  228.2710 C   0  0  0  0  0  0  0  0  0  0  0  0
  141.0321   68.0480  229.4368 H   0  0  0  0  0  0  0  0  0  0  0  0
  140.4398   66.6687  227.4694 H   0  0  0  0  0  0  0  0  0  0  0  0
  140.1633   67.6774  225.2550 H   0  0  0  0  0  0  0  0  0  0  0  0
  140.2953   72.1578  224.8987 H   0  0  0  0  0  0  0  0  0  0  0  0
  140.9527   71.5826  223.3122 H   0  0  0  0  0  0  0  0  0  0  0  0
  138.2398   71.8566  224.3344 H   0  0  0  0  0  0  0  0  0  0  0  0
  139.2451   69.7794  222.2014 H   0  0  0  0  0  0  0  0  0  0  0  0
  138.1660   69.3923  223.5054 H   0  0  0  0  0  0  0  0  0  0  0  0
  137.2650   70.1329  221.0012 H   0  0  0  0  0  0  0  0  0  0  0  0
  136.3227   70.5350  222.4524 H   0  0  0  0  0  0  0  0  0  0  0  0
  137.5627   72.3920  220.6059 H   0  0  0  0  0  0  0  0  0  0  0  0
  136.7609   72.8402  222.0847 H   0  0  0  0  0  0  0  0  0  0  0  0
  138.4976   76.7942  222.2682 H   0  0  0  0  0  0  0  0  0  0  0  0
  139.5835   77.0485  223.6988 H   0  0  0  0  0  0  0  0  0  0  0  0
  138.9541   79.0361  221.4905 H   0  0  0  0  0  0  0  0  0  0  0  0
  138.4404   79.1179  223.2026 H   0  0  0  0  0  0  0  0  0  0  0  0
  139.6770   80.9248  224.1750 H   0  0  0  0  0  0  0  0  0  0  0  0
  141.8769   81.9567  224.7019 H   0  0  0  0  0  0  0  0  0  0  0  0
  143.9304   81.0407  223.7043 H   0  0  0  0  0  0  0  0  0  0  0  0
  143.8229   79.0851  222.1572 H   0  0  0  0  0  0  0  0  0  0  0  0
  141.2102   78.1175  220.4138 H   0  0  0  0  0  0  0  0  0  0  0  0
  142.4923   77.2337  221.3604 H   0  0  0  0  0  0  0  0  0  0  0  0
  144.6055   74.3803  219.3589 H   0  0  0  0  0  0  0  0  0  0  0  0
  144.1754   74.3365  221.1339 H   0  0  0  0  0  0  0  0  0  0  0  0
  146.3322   73.1809  220.3499 H   0  0  0  0  0  0  0  0  0  0  0  0
  145.1995   72.3211  221.4739 H   0  0  0  0  0  0  0  0  0  0  0  0
  147.2152   70.9399  219.9570 H   0  0  0  0  0  0  0  0  0  0  0  0
  147.1902   69.0075  218.4050 H   0  0  0  0  0  0  0  0  0  0  0  0
  145.1226   68.6065  217.0671 H   0  0  0  0  0  0  0  0  0  0  0  0
  143.1464   70.0954  217.2915 H   0  0  0  0  0  0  0  0  0  0  0  0
  142.7421   72.7226  217.8828 H   0  0  0  0  0  0  0  0  0  0  0  0
  142.0246   71.5543  219.0719 H   0  0  0  0  0  0  0  0  0  0  0  0
  141.0682   71.5133  226.9071 H   0  0  0  0  0  0  0  0  0  0  0  0
  141.3456   70.4972  229.1295 H   0  0  0  0  0  0  0  0  0  0  0  0
  1  2  2  0
  2  3  1  0
  3  4  2  0
  4  5  1  0
  5  6  1  0
  6  7  1  0
  7  8  1  0
  8  9  1  0
  9 10  1  0
 10 11  1  0
 11 12  1  0
 12 13  2  0
 13 14  1  0
 14 15  1  0
 15 16  1  0
 16 17  1  0
 17 18  1  0
 18 19  2  0
 19 20  1  0
 20 21  2  0
 21 22  1  0
 22 23  2  0
 23 24  1  0
 14 25  2  0
 25 26  1  0
 26 27  1  0
 27 28  1  0
 28 29  1  0
 29 30  1  0
 30 31  2  0
 31 32  1  0
 32 33  2  0
 33 34  1  0
 34 35  2  0
 35 36  1  0
 26 37  2  0
  4 38  1  0
 38 39  2  0
 39  1  1  0
 11  7  1  0
 37 12  1  0
 24 15  1  0
 36 27  1  0
 23 18  1  0
 35 30  1  0
  1 40  1  0
  2 41  1  0
  3 42  1  0
  6 43  1  0
  6 44  1  0
  7 45  1  1
  8 46  1  0
  8 47  1  0
  9 48  1  0
  9 49  1  0
 10 50  1  0
 10 51  1  0
 16 52  1  0
 16 53  1  0
 17 54  1  0
 17 55  1  0
 19 56  1  0
 20 57  1  0
 21 58  1  0
 22 59  1  0
 24 60  1  0
 24 61  1  0
 28 62  1  0
 28 63  1  0
 29 64  1  0
 29 65  1  0
 31 66  1  0
 32 67  1  0
 33 68  1  0
 34 69  1  0
 36 70  1  0
 36 71  1  0
 38 72  1  0
 39 73  1  0
M  END
>  <smiles>  (7) 
c1ccc(OC[C@@H]2CCCN2c2nc(N3CCc4ccccc4C3)nc(N3CCc4ccccc4C3)n2)cc1

>  <score_type>  (7) 
oracle

>  <origin>  (7) 
autodockgpu

>  <m_score__min__energy>  (7) 
-11.19

>  <m_primary>  (7) 
energy

>  <rmsd>  (7) 
5.511590503019887

>  <m_score__min__rmsd>  (7) 
5.511590503019887

>  <meeko>  (7) 
{"free_energy": -10.53, "intermolecular_energy": -12.32, "internal_energy": -1.45, "cluster_size": 29, "cluster_id": 1, "rank_in_cluster": 22}

>  <energy>  (7) 
-10.86

>  <cluster_rmsd>  (7) 
0.3

>  <cluster>  (7) 
1

$$$$

     RDKit          3D

 73 79  0  0  0  0  0  0  0  0999 V2000
  137.8700   73.4900  219.6040 C   0  0  0  0  0  0  0  0  0  0  0  0
  137.8360   72.2400  220.1650 C   0  0  0  0  0  0  0  0  0  0  0  0
  138.8000   71.3010  219.8800 C   0  0  0  0  0  0  0  0  0  0  0  0
  139.8660   71.5780  219.0040 C   0  0  0  0  0  0  0  0  0  0  0  0
  140.7570   70.5810  218.8000 O   0  0  0  0  0  0  0  0  0  0  0  0
  141.9430   70.2300  219.4250 C   0  0  0  0  0  0  0  0  0  0  0  0
  143.0120   71.2160  219.1530 C   0  0  2  0  0  0  0  0  0  0  0  0
  144.3970   70.6880  219.5620 C   0  0  0  0  0  0  0  0  0  0  0  0
  145.1930   71.9720  219.5870 C   0  0  0  0  0  0  0  0  0  0  0  0
  144.1960   73.1040  219.8450 C   0  0  0  0  0  0  0  0  0  0  0  0
  142.9690   72.3620  220.0740 N   0  0  0  0  0  0  0  0  0  0  0  0
  141.9650   72.7120  221.0100 C   0  0  0  0  0  0  0  0  0  0  0  0
  141.5720   73.9980  221.0340 N   0  0  0  0  0  0  0  0  0  0  0  0
  140.6210   74.4530  221.8840 C   0  0  0  0  0  0  0  0  0  0  0  0
  140.2050   75.8130  221.9080 N   0  0  0  0  0  0  0  0  0  0  0  0
  138.8470   76.1270  222.3550 C   0  0  0  0  0  0  0  0  0  0  0  0
  138.4470   77.5270  221.9840 C   0  0  0  0  0  0  0  0  0  0  0  0
  139.4960   78.4710  222.4870 C   0  0  0  0  0  0  0  0  0  0  0  0
  139.1770   79.6310  223.1660 C   0  0  0  0  0  0  0  0  0  0  0  0
  140.1830   80.4690  223.6100 C   0  0  0  0  0  0  0  0  0  0  0  0
  141.4870   80.1440  223.3760 C   0  0  0  0  0  0  0  0  0  0  0  0
  141.8190   78.9730  222.6900 C   0  0  0  0  0  0  0  0  0  0  0  0
  140.8150   78.1360  222.2470 C   0  0  0  0  0  0  0  0  0  0  0  0
  141.0730   76.8750  221.5120 C   0  0  0  0  0  0  0  0  0  0  0  0
  140.0760   73.5490  222.7180 N   0  0  0  0  0  0  0  0  0  0  0  0
  140.4380   72.2730  222.7220 C   0  0  0  0  0  0  0  0  0  0  0  0
  139.8200   71.3700  223.6310 N   0  0  0  0  0  0  0  0  0  0  0  0
  138.8570   70.4180  223.1140 C   0  0  0  0  0  0  0  0  0  0  0  0
  139.1450   68.9970  223.5130 C   0  0  0  0  0  0  0  0  0  0  0  0
  139.5870   68.9050  224.9250 C   0  0  0  0  0  0  0  0  0  0  0  0
  139.5460   67.6780  225.5480 C   0  0  0  0  0  0  0  0  0  0  0  0
  139.9340   67.4850  226.8540 C   0  0  0  0  0  0  0  0  0  0  0  0
  140.3790   68.6000  227.5420 C   0  0  0  0  0  0  0  0  0  0  0  0
  140.4340   69.8580  226.9430 C   0  0  0  0  0  0  0  0  0  0  0  0
  140.0340   70.0030  225.6290 C   0  0  0  0  0  0  0  0  0  0  0  0
  140.1160   71.3670  225.0500 C   0  0  0  0  0  0  0  0  0  0  0  0
  141.3880   71.8630  221.8600 N   0  0  0  0  0  0  0  0  0  0  0  0
  139.8690   72.8370  218.4630 C   0  0  0  0  0  0  0  0  0  0  0  0
  138.8990   73.7880  218.7450 C   0  0  0  0  0  0  0  0  0  0  0  0
  137.0940   74.2344  219.8356 H   0  0  0  0  0  0  0  0  0  0  0  0
  137.0210   71.9823  220.8574 H   0  0  0  0  0  0  0  0  0  0  0  0
  138.7360   70.3080  220.3489 H   0  0  0  0  0  0  0  0  0  0  0  0
  141.7730   70.1775  220.5105 H   0  0  0  0  0  0  0  0  0  0  0  0
  142.2649   69.2546  219.0313 H   0  0  0  0  0  0  0  0  0  0  0  0
  142.8644   71.4445  218.0872 H   0  0  0  0  0  0  0  0  0  0  0  0
  144.3714   70.2082  220.5515 H   0  0  0  0  0  0  0  0  0  0  0  0
  144.8038   69.9127  218.8961 H   0  0  0  0  0  0  0  0  0  0  0  0
  145.9431   71.9372  220.3909 H   0  0  0  0  0  0  0  0  0  0  0  0
  145.7269   72.1245  218.6375 H   0  0  0  0  0  0  0  0  0  0  0  0
  144.4790   73.6952  220.7284 H   0  0  0  0  0  0  0  0  0  0  0  0
  144.1304   73.8387  219.0290 H   0  0  0  0  0  0  0  0  0  0  0  0
  138.1458   75.4205  221.8869 H   0  0  0  0  0  0  0  0  0  0  0  0
  138.8200   76.0430  223.4514 H   0  0  0  0  0  0  0  0  0  0  0  0
  138.3653   77.6119  220.8903 H   0  0  0  0  0  0  0  0  0  0  0  0
  137.4733   77.7720  222.4332 H   0  0  0  0  0  0  0  0  0  0  0  0
  138.1239   79.8876  223.3532 H   0  0  0  0  0  0  0  0  0  0  0  0
  139.9329   81.3942  224.1498 H   0  0  0  0  0  0  0  0  0  0  0  0
  142.2860   80.8113  223.7314 H   0  0  0  0  0  0  0  0  0  0  0  0
  142.8733   78.7199  222.5043 H   0  0  0  0  0  0  0  0  0  0  0  0
  140.9326   77.0605  220.4369 H   0  0  0  0  0  0  0  0  0  0  0  0
  142.1023   76.5633  221.7429 H   0  0  0  0  0  0  0  0  0  0  0  0
  137.8605   70.6906  223.4918 H   0  0  0  0  0  0  0  0  0  0  0  0
  138.9138   70.4638  222.0164 H   0  0  0  0  0  0  0  0  0  0  0  0
  138.2311   68.3983  223.3854 H   0  0  0  0  0  0  0  0  0  0  0  0
  139.9558   68.6179  222.8735 H   0  0  0  0  0  0  0  0  0  0  0  0
  139.1861   66.8110  224.9747 H   0  0  0  0  0  0  0  0  0  0  0  0
  139.8925   66.4931  227.3278 H   0  0  0  0  0  0  0  0  0  0  0  0
  140.6978   68.4911  228.5892 H   0  0  0  0  0  0  0  0  0  0  0  0
  140.7931   70.7280  227.5124 H   0  0  0  0  0  0  0  0  0  0  0  0
  139.3931   72.0163  225.5655 H   0  0  0  0  0  0  0  0  0  0  0  0
  141.1443   71.7335  225.1848 H   0  0  0  0  0  0  0  0  0  0  0  0
  140.6804   73.1069  217.7711 H   0  0  0  0  0  0  0  0  0  0  0  0
  138.9544   74.7831  218.2794 H   0  0  0  0  0  0  0  0  0  0  0  0
  1  2  2  0
  2  3  1  0
  3  4  2  0
  4  5  1  0
  5  6  1  0
  6  7  1  0
  7  8  1  0
  8  9  1  0
  9 10  1  0
 10 11  1  0
 11 12  1  0
 12 13  2  0
 13 14  1  0
 14 15  1  0
 15 16  1  0
 16 17  1  0
 17 18  1  0
 18 19  2  0
 19 20  1  0
 20 21  2  0
 21 22  1  0
 22 23  2  0
 23 24  1  0
 14 25  2  0
 25 26  1  0
 26 27  1  0
 27 28  1  0
 28 29  1  0
 29 30  1  0
 30 31  2  0
 31 32  1  0
 32 33  2  0
 33 34  1  0
 34 35  2  0
 35 36  1  0
 26 37  2  0
  4 38  1  0
 38 39  2  0
 39  1  1  0
 11  7  1  0
 37 12  1  0
 24 15  1  0
 36 27  1  0
 23 18  1  0
 35 30  1  0
  1 40  1  0
  2 41  1  0
  3 42  1  0
  6 43  1  0
  6 44  1  0
  7 45  1  6
  8 46  1  0
  8 47  1  0
  9 48  1  0
  9 49  1  0
 10 50  1  0
 10 51  1  0
 16 52  1  0
 16 53  1  0
 17 54  1  0
 17 55  1  0
 19 56  1  0
 20 57  1  0
 21 58  1  0
 22 59  1  0
 24 60  1  0
 24 61  1  0
 28 62  1  0
 28 63  1  0
 29 64  1  0
 29 65  1  0
 31 66  1  0
 32 67  1  0
 33 68  1  0
 34 69  1  0
 36 70  1  0
 36 71  1  0
 38 72  1  0
 39 73  1  0
M  END
>  <smiles>  (8) 
c1ccc(OC[C@@H]2CCCN2c2nc(N3CCc4ccccc4C3)nc(N3CCc4ccccc4C3)n2)cc1

>  <score_type>  (8) 
oracle

>  <origin>  (8) 
autodockgpu

>  <m_score__min__energy>  (8) 
-11.19

>  <m_primary>  (8) 
energy

>  <rmsd>  (8) 
5.046647959947376

>  <m_score__min__rmsd>  (8) 
5.046647959947376

>  <meeko>  (8) 
{"free_energy": -8.66, "intermolecular_energy": -10.45, "internal_energy": -2.9, "cluster_size": 29, "cluster_id": 1, "rank_in_cluster": 29}

>  <energy>  (8) 
-10.77

>  <cluster_rmsd>  (8) 
1.86

>  <cluster>  (8) 
1

$$$$

     RDKit          3D

 73 79  0  0  0  0  0  0  0  0999 V2000
  146.2910   73.3710  220.1400 C   0  0  0  0  0  0  0  0  0  0  0  0
  145.9460   73.2350  218.8200 C   0  0  0  0  0  0  0  0  0  0  0  0
  144.7760   73.7630  218.3270 C   0  0  0  0  0  0  0  0  0  0  0  0
  143.8790   74.4680  219.1500 C   0  0  0  0  0  0  0  0  0  0  0  0
  142.7600   74.9450  218.5580 O   0  0  0  0  0  0  0  0  0  0  0  0
  141.4100   74.6980  218.7480 C   0  0  0  0  0  0  0  0  0  0  0  0
  140.8160   75.6480  219.7150 C   0  0  2  0  0  0  0  0  0  0  0  0
  141.7950   76.7740  220.0890 C   0  0  0  0  0  0  0  0  0  0  0  0
  141.1400   77.3150  221.3380 C   0  0  0  0  0  0  0  0  0  0  0  0
  140.3110   76.1730  221.9310 C   0  0  0  0  0  0  0  0  0  0  0  0
  140.6720   75.0700  221.0590 N   0  0  0  0  0  0  0  0  0  0  0  0
  140.8420   73.7250  221.4700 C   0  0  0  0  0  0  0  0  0  0  0  0
  141.5940   72.9350  220.6840 N   0  0  0  0  0  0  0  0  0  0  0  0
  141.8290   71.6320  220.9720 C   0  0  0  0  0  0  0  0  0  0  0  0
  142.6260   70.7980  220.1400 N   0  0  0  0  0  0  0  0  0  0  0  0
  144.0760   70.9970  220.1240 C   0  0  0  0  0  0  0  0  0  0  0  0
  144.7200   70.3080  218.9560 C   0  0  0  0  0  0  0  0  0  0  0  0
  144.2950   68.8710  218.9550 C   0  0  0  0  0  0  0  0  0  0  0  0
  145.1940   67.8380  218.7780 C   0  0  0  0  0  0  0  0  0  0  0  0
  144.7490   66.5280  218.7860 C   0  0  0  0  0  0  0  0  0  0  0  0
  143.4240   66.2650  218.9700 C   0  0  0  0  0  0  0  0  0  0  0  0
  142.5070   67.3040  219.1500 C   0  0  0  0  0  0  0  0  0  0  0  0
  142.9510   68.6110  219.1430 C   0  0  0  0  0  0  0  0  0  0  0  0
  142.0520   69.7760  219.3250 C   0  0  0  0  0  0  0  0  0  0  0  0
  141.2670   71.1540  222.0960 N   0  0  0  0  0  0  0  0  0  0  0  0
  140.5200   71.9030  222.8950 C   0  0  0  0  0  0  0  0  0  0  0  0
  139.9570   71.3330  224.0710 N   0  0  0  0  0  0  0  0  0  0  0  0
  138.7590   70.5270  223.9440 C   0  0  0  0  0  0  0  0  0  0  0  0
  138.8750   69.1750  224.5930 C   0  0  0  0  0  0  0  0  0  0  0  0
  139.5750   69.2540  225.8970 C   0  0  0  0  0  0  0  0  0  0  0  0
  139.4530   68.1980  226.7730 C   0  0  0  0  0  0  0  0  0  0  0  0
  140.0630   68.1720  228.0070 C   0  0  0  0  0  0  0  0  0  0  0  0
  140.8250   69.2750  228.3480 C   0  0  0  0  0  0  0  0  0  0  0  0
  140.9710   70.3620  227.4860 C   0  0  0  0  0  0  0  0  0  0  0  0
  140.3390   70.3440  226.2570 C   0  0  0  0  0  0  0  0  0  0  0  0
  140.5330   71.5290  225.3860 C   0  0  0  0  0  0  0  0  0  0  0  0
  140.3130   73.1940  222.5720 N   0  0  0  0  0  0  0  0  0  0  0  0
  144.2540   74.5850  220.4630 C   0  0  0  0  0  0  0  0  0  0  0  0
  145.4330   74.0540  220.9670 C   0  0  0  0  0  0  0  0  0  0  0  0
  147.2288   72.9450  220.5260 H   0  0  0  0  0  0  0  0  0  0  0  0
  146.6196   72.6919  218.1409 H   0  0  0  0  0  0  0  0  0  0  0  0
  144.5353   73.6307  217.2618 H   0  0  0  0  0  0  0  0  0  0  0  0
  140.8894   74.7967  217.7841 H   0  0  0  0  0  0  0  0  0  0  0  0
  141.2985   73.6804  219.1507 H   0  0  0  0  0  0  0  0  0  0  0  0
  139.8835   75.9487  219.2149 H   0  0  0  0  0  0  0  0  0  0  0  0
  142.8018   76.3827  220.2969 H   0  0  0  0  0  0  0  0  0  0  0  0
  141.9535   77.5213  219.2976 H   0  0  0  0  0  0  0  0  0  0  0  0
  141.9061   77.6402  222.0572 H   0  0  0  0  0  0  0  0  0  0  0  0
  140.5070   78.1846  221.1075 H   0  0  0  0  0  0  0  0  0  0  0  0
  140.5949   75.9700  222.9742 H   0  0  0  0  0  0  0  0  0  0  0  0
  139.2309   76.3773  221.9720 H   0  0  0  0  0  0  0  0  0  0  0  0
  144.2869   72.0748  220.0622 H   0  0  0  0  0  0  0  0  0  0  0  0
  144.4907   70.5655  221.0469 H   0  0  0  0  0  0  0  0  0  0  0  0
  144.4010   70.7894  218.0198 H   0  0  0  0  0  0  0  0  0  0  0  0
  145.8149   70.3760  219.0365 H   0  0  0  0  0  0  0  0  0  0  0  0
  146.2621   68.0562  218.6309 H   0  0  0  0  0  0  0  0  0  0  0  0
  145.4614   65.7019  218.6444 H   0  0  0  0  0  0  0  0  0  0  0  0
  143.0726   65.2227  218.9769 H   0  0  0  0  0  0  0  0  0  0  0  0
  141.4396   67.0820  219.2961 H   0  0  0  0  0  0  0  0  0  0  0  0
  141.8244   70.2016  218.3365 H   0  0  0  0  0  0  0  0  0  0  0  0
  141.1455   69.4173  219.8345 H   0  0  0  0  0  0  0  0  0  0  0  0
  137.9238   71.0680  224.4129 H   0  0  0  0  0  0  0  0  0  0  0  0
  138.5949   70.3576  222.8696 H   0  0  0  0  0  0  0  0  0  0  0  0
  137.8656   68.7684  224.7537 H   0  0  0  0  0  0  0  0  0  0  0  0
  139.4598   68.5230  223.9275 H   0  0  0  0  0  0  0  0  0  0  0  0
  138.8398   67.3355  226.4727 H   0  0  0  0  0  0  0  0  0  0  0  0
  139.9500   67.3159  228.6885 H   0  0  0  0  0  0  0  0  0  0  0  0
  141.3294   69.2955  229.3253 H   0  0  0  0  0  0  0  0  0  0  0  0
  141.5839   71.2261  227.7819 H   0  0  0  0  0  0  0  0  0  0  0  0
  140.0540   72.3995  225.8579 H   0  0  0  0  0  0  0  0  0  0  0  0
  141.6144   71.6891  225.2641 H   0  0  0  0  0  0  0  0  0  0  0  0
  143.5879   75.1263  221.1510 H   0  0  0  0  0  0  0  0  0  0  0  0
  145.6809   74.1804  222.0312 H   0  0  0  0  0  0  0  0  0  0  0  0
  1  2  2  0
  2  3  1  0
  3  4  2  0
  4  5  1  0
  5  6  1  0
  6  7  1  0
  7  8  1  0
  8  9  1  0
  9 10  1  0
 10 11  1  0
 11 12  1  0
 12 13  2  0
 13 14  1  0
 14 15  1  0
 15 16  1  0
 16 17  1  0
 17 18  1  0
 18 19  2  0
 19 20  1  0
 20 21  2  0
 21 22  1  0
 22 23  2  0
 23 24  1  0
 14 25  2  0
 25 26  1  0
 26 27  1  0
 27 28  1  0
 28 29  1  0
 29 30  1  0
 30 31  2  0
 31 32  1  0
 32 33  2  0
 33 34  1  0
 34 35  2  0
 35 36  1  0
 26 37  2  0
  4 38  1  0
 38 39  2  0
 39  1  1  0
 11  7  1  0
 37 12  1  0
 24 15  1  0
 36 27  1  0
 23 18  1  0
 35 30  1  0
  1 40  1  0
  2 41  1  0
  3 42  1  0
  6 43  1  0
  6 44  1  0
  7 45  1  6
  8 46  1  0
  8 47  1  0
  9 48  1  0
  9 49  1  0
 10 50  1  0
 10 51  1  0
 16 52  1  0
 16 53  1  0
 17 54  1  0
 17 55  1  0
 19 56  1  0
 20 57  1  0
 21 58  1  0
 22 59  1  0
 24 60  1  0
 24 61  1  0
 28 62  1  0
 28 63  1  0
 29 64  1  0
 29 65  1  0
 31 66  1  0
 32 67  1  0
 33 68  1  0
 34 69  1  0
 36 70  1  0
 36 71  1  0
 38 72  1  0
 39 73  1  0
M  END
>  <smiles>  (9) 
c1ccc(OC[C@@H]2CCCN2c2nc(N3CCc4ccccc4C3)nc(N3CCc4ccccc4C3)n2)cc1

>  <score_type>  (9) 
oracle

>  <origin>  (9) 
autodockgpu

>  <m_score__min__energy>  (9) 
-11.19

>  <m_primary>  (9) 
energy

>  <rmsd>  (9) 
11.268443717091083

>  <m_score__min__rmsd>  (9) 
11.268443717091083

>  <meeko>  (9) 
{"free_energy": -9.68, "intermolecular_energy": -11.47, "internal_energy": -2.13, "cluster_size": 29, "cluster_id": 1, "rank_in_cluster": 26}

>  <energy>  (9) 
-10.76

>  <cluster_rmsd>  (9) 
1.91

>  <cluster>  (9) 
1

$$$$

     RDKit          3D

 73 79  0  0  0  0  0  0  0  0999 V2000
  141.0270   77.8890  218.4290 C   0  0  0  0  0  0  0  0  0  0  0  0
  140.6990   76.5840  218.1670 C   0  0  0  0  0  0  0  0  0  0  0  0
  141.6220   75.5720  218.2970 C   0  0  0  0  0  0  0  0  0  0  0  0
  142.9440   75.8270  218.7040 C   0  0  0  0  0  0  0  0  0  0  0  0
  143.7660   74.7560  218.7990 O   0  0  0  0  0  0  0  0  0  0  0  0
  144.3850   74.1320  219.8700 C   0  0  0  0  0  0  0  0  0  0  0  0
  144.4310   72.6640  219.6880 C   0  0  2  0  0  0  0  0  0  0  0  0
  144.2480   72.2610  218.2150 C   0  0  0  0  0  0  0  0  0  0  0  0
  143.9160   70.7950  218.3610 C   0  0  0  0  0  0  0  0  0  0  0  0
  143.3140   70.6170  219.7570 C   0  0  0  0  0  0  0  0  0  0  0  0
  143.2340   71.9920  220.2160 N   0  0  0  0  0  0  0  0  0  0  0  0
  142.1910   72.5300  221.0090 C   0  0  0  0  0  0  0  0  0  0  0  0
  141.6200   71.7100  221.9080 N   0  0  0  0  0  0  0  0  0  0  0  0
  140.6140   72.1090  222.7230 C   0  0  0  0  0  0  0  0  0  0  0  0
  140.0120   71.2400  223.6750 N   0  0  0  0  0  0  0  0  0  0  0  0
  139.2260   70.1030  223.1930 C   0  0  0  0  0  0  0  0  0  0  0  0
  138.3750   69.5130  224.2810 C   0  0  0  0  0  0  0  0  0  0  0  0
  139.2500   69.2050  225.4580 C   0  0  0  0  0  0  0  0  0  0  0  0
  139.1810   68.0010  226.1290 C   0  0  0  0  0  0  0  0  0  0  0  0
  140.0120   67.7660  227.2100 C   0  0  0  0  0  0  0  0  0  0  0  0
  140.8940   68.7270  227.6060 C   0  0  0  0  0  0  0  0  0  0  0  0
  140.9700   69.9490  226.9320 C   0  0  0  0  0  0  0  0  0  0  0  0
  140.1420   70.1830  225.8540 C   0  0  0  0  0  0  0  0  0  0  0  0
  140.1520   71.4480  225.0800 C   0  0  0  0  0  0  0  0  0  0  0  0
  140.2030   73.3820  222.5910 N   0  0  0  0  0  0  0  0  0  0  0  0
  140.7420   74.2200  221.7160 C   0  0  0  0  0  0  0  0  0  0  0  0
  140.2590   75.5550  221.6290 N   0  0  0  0  0  0  0  0  0  0  0  0
  138.8260   75.7720  221.5830 C   0  0  0  0  0  0  0  0  0  0  0  0
  138.3360   76.7600  222.6050 C   0  0  0  0  0  0  0  0  0  0  0  0
  139.2530   77.9180  222.7280 C   0  0  0  0  0  0  0  0  0  0  0  0
  138.7880   79.0630  223.3370 C   0  0  0  0  0  0  0  0  0  0  0  0
  139.5570   80.1920  223.5010 C   0  0  0  0  0  0  0  0  0  0  0  0
  140.8530   80.1370  223.0190 C   0  0  0  0  0  0  0  0  0  0  0  0
  141.3580   78.9950  222.3980 C   0  0  0  0  0  0  0  0  0  0  0  0
  140.5470   77.8860  222.2540 C   0  0  0  0  0  0  0  0  0  0  0  0
  141.1420   76.7030  221.5850 C   0  0  0  0  0  0  0  0  0  0  0  0
  141.7400   73.7820  220.9250 N   0  0  0  0  0  0  0  0  0  0  0  0
  143.2380   77.1410  218.9570 C   0  0  0  0  0  0  0  0  0  0  0  0
  142.3120   78.1660  218.8280 C   0  0  0  0  0  0  0  0  0  0  0  0
  140.2823   78.6916  218.3227 H   0  0  0  0  0  0  0  0  0  0  0  0
  139.6755   76.3406  217.8458 H   0  0  0  0  0  0  0  0  0  0  0  0
  141.3185   74.5378  218.0772 H   0  0  0  0  0  0  0  0  0  0  0  0
  145.4127   74.5135  219.9610 H   0  0  0  0  0  0  0  0  0  0  0  0
  143.8052   74.3497  220.7791 H   0  0  0  0  0  0  0  0  0  0  0  0
  145.3871   72.3932  220.1599 H   0  0  0  0  0  0  0  0  0  0  0  0
  143.4250   72.8172  217.7425 H   0  0  0  0  0  0  0  0  0  0  0  0
  145.1180   72.4691  217.5748 H   0  0  0  0  0  0  0  0  0  0  0  0
  143.1886   70.4928  217.5932 H   0  0  0  0  0  0  0  0  0  0  0  0
  144.8135   70.1717  218.2348 H   0  0  0  0  0  0  0  0  0  0  0  0
  142.3187   70.1510  219.7088 H   0  0  0  0  0  0  0  0  0  0  0  0
  143.8979   69.9577  220.4161 H   0  0  0  0  0  0  0  0  0  0  0  0
  138.5736   70.4422  222.3749 H   0  0  0  0  0  0  0  0  0  0  0  0
  139.9240   69.3270  222.8456 H   0  0  0  0  0  0  0  0  0  0  0  0
  137.5978   70.2335  224.5755 H   0  0  0  0  0  0  0  0  0  0  0  0
  137.8903   68.5931  223.9220 H   0  0  0  0  0  0  0  0  0  0  0  0
  138.4668   67.2297  225.8050 H   0  0  0  0  0  0  0  0  0  0  0  0
  139.9611   66.8077  227.7477 H   0  0  0  0  0  0  0  0  0  0  0  0
  141.5535   68.5385  228.4659 H   0  0  0  0  0  0  0  0  0  0  0  0
  141.6849   70.7185  227.2588 H   0  0  0  0  0  0  0  0  0  0  0  0
  139.3195   72.0781  225.4263 H   0  0  0  0  0  0  0  0  0  0  0  0
  141.1267   71.9298  225.2471 H   0  0  0  0  0  0  0  0  0  0  0  0
  138.5624   76.1461  220.5827 H   0  0  0  0  0  0  0  0  0  0  0  0
  138.3454   74.8085  221.8080 H   0  0  0  0  0  0  0  0  0  0  0  0
  137.3421   77.1222  222.3035 H   0  0  0  0  0  0  0  0  0  0  0  0
  138.2901   76.2524  223.5798 H   0  0  0  0  0  0  0  0  0  0  0  0
  137.7531   79.0751  223.7097 H   0  0  0  0  0  0  0  0  0  0  0  0
  139.1612   81.0938  223.9911 H   0  0  0  0  0  0  0  0  0  0  0  0
  141.5025   81.0180  223.1287 H   0  0  0  0  0  0  0  0  0  0  0  0
  142.3931   78.9775  222.0261 H   0  0  0  0  0  0  0  0  0  0  0  0
  141.3460   76.9544  220.5337 H   0  0  0  0  0  0  0  0  0  0  0  0
  142.0681   76.4407  222.1176 H   0  0  0  0  0  0  0  0  0  0  0  0
  144.2587   77.3959  219.2783 H   0  0  0  0  0  0  0  0  0  0  0  0
  142.6074   79.2030  219.0457 H   0  0  0  0  0  0  0  0  0  0  0  0
  1  2  2  0
  2  3  1  0
  3  4  2  0
  4  5  1  0
  5  6  1  0
  6  7  1  0
  7  8  1  0
  8  9  1  0
  9 10  1  0
 10 11  1  0
 11 12  1  0
 12 13  2  0
 13 14  1  0
 14 15  1  0
 15 16  1  0
 16 17  1  0
 17 18  1  0
 18 19  2  0
 19 20  1  0
 20 21  2  0
 21 22  1  0
 22 23  2  0
 23 24  1  0
 14 25  2  0
 25 26  1  0
 26 27  1  0
 27 28  1  0
 28 29  1  0
 29 30  1  0
 30 31  2  0
 31 32  1  0
 32 33  2  0
 33 34  1  0
 34 35  2  0
 35 36  1  0
 26 37  2  0
  4 38  1  0
 38 39  2  0
 39  1  1  0
 11  7  1  0
 37 12  1  0
 24 15  1  0
 36 27  1  0
 23 18  1  0
 35 30  1  0
  1 40  1  0
  2 41  1  0
  3 42  1  0
  6 43  1  0
  6 44  1  0
  7 45  1  1
  8 46  1  0
  8 47  1  0
  9 48  1  0
  9 49  1  0
 10 50  1  0
 10 51  1  0
 16 52  1  0
 16 53  1  0
 17 54  1  0
 17 55  1  0
 19 56  1  0
 20 57  1  0
 21 58  1  0
 22 59  1  0
 24 60  1  0
 24 61  1  0
 28 62  1  0
 28 63  1  0
 29 64  1  0
 29 65  1  0
 31 66  1  0
 32 67  1  0
 33 68  1  0
 34 69  1  0
 36 70  1  0
 36 71  1  0
 38 72  1  0
 39 73  1  0
M  END
>  <smiles>  (10) 
c1ccc(OC[C@@H]2CCCN2c2nc(N3CCc4ccccc4C3)nc(N3CCc4ccccc4C3)n2)cc1

>  <score_type>  (10) 
oracle

>  <origin>  (10) 
autodockgpu

>  <m_score__min__energy>  (10) 
-11.19

>  <m_primary>  (10) 
energy

>  <rmsd>  (10) 
11.337639738709669

>  <m_score__min__rmsd>  (10) 
11.337639738709669

>  <meeko>  (10) 
{"free_energy": -9.58, "intermolecular_energy": -11.37, "internal_energy": -2.59, "cluster_size": 9, "cluster_id": 5, "rank_in_cluster": 3}

>  <energy>  (10) 
-10.76

>  <cluster_rmsd>  (10) 
1.7

>  <cluster>  (10) 
1

$$$$

     RDKit          3D

 73 79  0  0  0  0  0  0  0  0999 V2000
  140.6780   70.2290  228.3420 C   0  0  0  0  0  0  0  0  0  0  0  0
  140.3110   69.3730  227.3360 C   0  0  0  0  0  0  0  0  0  0  0  0
  140.3250   69.7680  226.0180 C   0  0  0  0  0  0  0  0  0  0  0  0
  140.7180   71.0650  225.6400 C   0  0  0  0  0  0  0  0  0  0  0  0
  140.6960   71.3420  224.3160 O   0  0  0  0  0  0  0  0  0  0  0  0
  139.9460   70.8520  223.2590 C   0  0  0  0  0  0  0  0  0  0  0  0
  138.5860   71.4360  223.2430 C   0  0  2  0  0  0  0  0  0  0  0  0
  137.6230   70.6220  222.3630 C   0  0  0  0  0  0  0  0  0  0  0  0
  136.4990   71.6140  222.1810 C   0  0  0  0  0  0  0  0  0  0  0  0
  137.1080   73.0080  222.3560 C   0  0  0  0  0  0  0  0  0  0  0  0
  138.5200   72.6920  222.4820 N   0  0  0  0  0  0  0  0  0  0  0  0
  139.5820   73.4700  221.9570 C   0  0  0  0  0  0  0  0  0  0  0  0
  139.5460   74.7930  222.1920 N   0  0  0  0  0  0  0  0  0  0  0  0
  140.5030   75.6390  221.7420 C   0  0  0  0  0  0  0  0  0  0  0  0
  140.4640   77.0390  221.9930 N   0  0  0  0  0  0  0  0  0  0  0  0
  139.3270   77.5920  222.7300 C   0  0  0  0  0  0  0  0  0  0  0  0
  139.2500   79.0860  222.5960 C   0  0  0  0  0  0  0  0  0  0  0  0
  140.5760   79.6690  222.9790 C   0  0  0  0  0  0  0  0  0  0  0  0
  140.6850   80.7530  223.8260 C   0  0  0  0  0  0  0  0  0  0  0  0
  141.9340   81.2530  224.1480 C   0  0  0  0  0  0  0  0  0  0  0  0
  143.0510   80.6700  223.6270 C   0  0  0  0  0  0  0  0  0  0  0  0
  142.9500   79.5720  222.7690 C   0  0  0  0  0  0  0  0  0  0  0  0
  141.7040   79.0730  222.4480 C   0  0  0  0  0  0  0  0  0  0  0  0
  141.5000   77.9130  221.5460 C   0  0  0  0  0  0  0  0  0  0  0  0
  141.5080   75.0900  221.0380 N   0  0  0  0  0  0  0  0  0  0  0  0
  141.5770   73.7900  220.7870 C   0  0  0  0  0  0  0  0  0  0  0  0
  142.6700   73.2750  220.0350 N   0  0  0  0  0  0  0  0  0  0  0  0
  143.8690   74.0800  219.9160 C   0  0  0  0  0  0  0  0  0  0  0  0
  145.1250   73.3440  220.2930 C   0  0  0  0  0  0  0  0  0  0  0  0
  145.1180   71.9540  219.7800 C   0  0  0  0  0  0  0  0  0  0  0  0
  146.3110   71.2680  219.7220 C   0  0  0  0  0  0  0  0  0  0  0  0
  146.4120   69.9750  219.2630 C   0  0  0  0  0  0  0  0  0  0  0  0
  145.2400   69.3680  218.8490 C   0  0  0  0  0  0  0  0  0  0  0  0
  144.0140   70.0310  218.8940 C   0  0  0  0  0  0  0  0  0  0  0  0
  143.9620   71.3300  219.3620 C   0  0  0  0  0  0  0  0  0  0  0  0
  142.6280   71.9800  219.3850 C   0  0  0  0  0  0  0  0  0  0  0  0
  140.6040   72.9840  221.2530 N   0  0  0  0  0  0  0  0  0  0  0  0
  141.0790   71.8930  226.6700 C   0  0  0  0  0  0  0  0  0  0  0  0
  141.0650   71.5020  228.0010 C   0  0  0  0  0  0  0  0  0  0  0  0
  140.6629   69.9053  229.3932 H   0  0  0  0  0  0  0  0  0  0  0  0
  139.9988   68.3487  227.5878 H   0  0  0  0  0  0  0  0  0  0  0  0
  140.0213   69.0517  225.2404 H   0  0  0  0  0  0  0  0  0  0  0  0
  140.4531   71.1008  222.3151 H   0  0  0  0  0  0  0  0  0  0  0  0
  139.8526   69.7624  223.3776 H   0  0  0  0  0  0  0  0  0  0  0  0
  138.3405   71.5049  224.3130 H   0  0  0  0  0  0  0  0  0  0  0  0
  138.0839   70.3515  221.4015 H   0  0  0  0  0  0  0  0  0  0  0  0
  137.3147   69.6588  222.7956 H   0  0  0  0  0  0  0  0  0  0  0  0
  136.0644   71.5139  221.1754 H   0  0  0  0  0  0  0  0  0  0  0  0
  135.6955   71.4392  222.9117 H   0  0  0  0  0  0  0  0  0  0  0  0
  136.9150   73.6440  221.4795 H   0  0  0  0  0  0  0  0  0  0  0  0
  136.6971   73.5741  223.2049 H   0  0  0  0  0  0  0  0  0  0  0  0
  138.3992   77.1508  222.3370 H   0  0  0  0  0  0  0  0  0  0  0  0
  139.4591   77.3502  223.7949 H   0  0  0  0  0  0  0  0  0  0  0  0
  139.0144   79.3531  221.5553 H   0  0  0  0  0  0  0  0  0  0  0  0
  138.4614   79.4822  223.2526 H   0  0  0  0  0  0  0  0  0  0  0  0
  139.7804   81.2186  224.2443 H   0  0  0  0  0  0  0  0  0  0  0  0
  142.0257   82.1176  224.8218 H   0  0  0  0  0  0  0  0  0  0  0  0
  144.0431   81.0687  223.8852 H   0  0  0  0  0  0  0  0  0  0  0  0
  143.8566   79.1088  222.3525 H   0  0  0  0  0  0  0  0  0  0  0  0
  141.2363   78.2878  220.5460 H   0  0  0  0  0  0  0  0  0  0  0  0
  142.4364   77.3360  221.5323 H   0  0  0  0  0  0  0  0  0  0  0  0
  143.9615   74.4148  218.8723 H   0  0  0  0  0  0  0  0  0  0  0  0
  143.7645   74.9219  220.6162 H   0  0  0  0  0  0  0  0  0  0  0  0
  145.9906   73.8758  219.8711 H   0  0  0  0  0  0  0  0  0  0  0  0
  145.1844   73.3051  221.3907 H   0  0  0  0  0  0  0  0  0  0  0  0
  147.2258   71.7778  220.0584 H   0  0  0  0  0  0  0  0  0  0  0  0
  147.3777   69.4495  219.2270 H   0  0  0  0  0  0  0  0  0  0  0  0
  145.2761   68.3345  218.4742 H   0  0  0  0  0  0  0  0  0  0  0  0
  143.0966   69.5244  218.5599 H   0  0  0  0  0  0  0  0  0  0  0  0
  142.2788   72.1124  218.3503 H   0  0  0  0  0  0  0  0  0  0  0  0
  141.9434   71.3342  219.9545 H   0  0  0  0  0  0  0  0  0  0  0  0
  141.3956   72.9187  226.4298 H   0  0  0  0  0  0  0  0  0  0  0  0
  141.3645   72.2131  228.7850 H   0  0  0  0  0  0  0  0  0  0  0  0
  1  2  2  0
  2  3  1  0
  3  4  2  0
  4  5  1  0
  5  6  1  0
  6  7  1  0
  7  8  1  0
  8  9  1  0
  9 10  1  0
 10 11  1  0
 11 12  1  0
 12 13  2  0
 13 14  1  0
 14 15  1  0
 15 16  1  0
 16 17  1  0
 17 18  1  0
 18 19  2  0
 19 20  1  0
 20 21  2  0
 21 22  1  0
 22 23  2  0
 23 24  1  0
 14 25  2  0
 25 26  1  0
 26 27  1  0
 27 28  1  0
 28 29  1  0
 29 30  1  0
 30 31  2  0
 31 32  1  0
 32 33  2  0
 33 34  1  0
 34 35  2  0
 35 36  1  0
 26 37  2  0
  4 38  1  0
 38 39  2  0
 39  1  1  0
 11  7  1  0
 37 12  1  0
 24 15  1  0
 36 27  1  0
 23 18  1  0
 35 30  1  0
  1 40  1  0
  2 41  1  0
  3 42  1  0
  6 43  1  0
  6 44  1  0
  7 45  1  1
  8 46  1  0
  8 47  1  0
  9 48  1  0
  9 49  1  0
 10 50  1  0
 10 51  1  0
 16 52  1  0
 16 53  1  0
 17 54  1  0
 17 55  1  0
 19 56  1  0
 20 57  1  0
 21 58  1  0
 22 59  1  0
 24 60  1  0
 24 61  1  0
 28 62  1  0
 28 63  1  0
 29 64  1  0
 29 65  1  0
 31 66  1  0
 32 67  1  0
 33 68  1  0
 34 69  1  0
 36 70  1  0
 36 71  1  0
 38 72  1  0
 39 73  1  0
M  END
>  <smiles>  (11) 
c1ccc(OC[C@@H]2CCCN2c2nc(N3CCc4ccccc4C3)nc(N3CCc4ccccc4C3)n2)cc1

>  <score_type>  (11) 
oracle

>  <origin>  (11) 
autodockgpu

>  <m_score__min__energy>  (11) 
-11.19

>  <m_primary>  (11) 
energy

>  <rmsd>  (11) 
5.652599432224499

>  <m_score__min__rmsd>  (11) 
5.652599432224499

>  <meeko>  (11) 
{"free_energy": -10.91, "intermolecular_energy": -12.7, "internal_energy": -1.62, "cluster_size": 29, "cluster_id": 1, "rank_in_cluster": 6}

>  <energy>  (11) 
-10.74

>  <cluster_rmsd>  (11) 
0.57

>  <cluster>  (11) 
1

$$$$

     RDKit          3D

 73 79  0  0  0  0  0  0  0  0999 V2000
  145.8150   73.7240  220.3150 C   0  0  0  0  0  0  0  0  0  0  0  0
  144.5800   74.1360  220.7450 C   0  0  0  0  0  0  0  0  0  0  0  0
  143.5220   73.2610  220.8290 C   0  0  0  0  0  0  0  0  0  0  0  0
  143.6550   71.9040  220.4800 C   0  0  0  0  0  0  0  0  0  0  0  0
  142.5490   71.1350  220.6040 O   0  0  0  0  0  0  0  0  0  0  0  0
  141.8910   70.2780  219.7370 C   0  0  0  0  0  0  0  0  0  0  0  0
  141.3420   71.0040  218.5700 C   0  0  2  0  0  0  0  0  0  0  0  0
  142.4530   71.6260  217.7070 C   0  0  0  0  0  0  0  0  0  0  0  0
  141.6560   72.6120  216.8870 C   0  0  0  0  0  0  0  0  0  0  0  0
  140.4100   72.9600  217.7050 C   0  0  0  0  0  0  0  0  0  0  0  0
  140.6750   72.2590  218.9480 N   0  0  0  0  0  0  0  0  0  0  0  0
  140.3410   72.7320  220.2410 C   0  0  0  0  0  0  0  0  0  0  0  0
  140.2560   74.0640  220.4030 N   0  0  0  0  0  0  0  0  0  0  0  0
  139.9440   74.6350  221.5900 C   0  0  0  0  0  0  0  0  0  0  0  0
  139.8540   76.0450  221.7600 N   0  0  0  0  0  0  0  0  0  0  0  0
  138.6320   76.6090  222.3350 C   0  0  0  0  0  0  0  0  0  0  0  0
  138.5440   78.0920  222.1140 C   0  0  0  0  0  0  0  0  0  0  0  0
  139.8090   78.7230  222.6120 C   0  0  0  0  0  0  0  0  0  0  0  0
  139.8030   79.8520  223.4080 C   0  0  0  0  0  0  0  0  0  0  0  0
  140.9990   80.3950  223.8420 C   0  0  0  0  0  0  0  0  0  0  0  0
  142.1770   79.8130  223.4810 C   0  0  0  0  0  0  0  0  0  0  0  0
  142.1930   78.6700  222.6760 C   0  0  0  0  0  0  0  0  0  0  0  0
  141.0000   78.1270  222.2440 C   0  0  0  0  0  0  0  0  0  0  0  0
  140.9190   76.9190  221.3880 C   0  0  0  0  0  0  0  0  0  0  0  0
  139.7190   73.7990  222.6200 N   0  0  0  0  0  0  0  0  0  0  0  0
  139.7930   72.4810  222.4970 C   0  0  0  0  0  0  0  0  0  0  0  0
  139.5410   71.6550  223.6280 N   0  0  0  0  0  0  0  0  0  0  0  0
  138.2560   70.9920  223.7300 C   0  0  0  0  0  0  0  0  0  0  0  0
  138.3630   69.5110  223.9700 C   0  0  0  0  0  0  0  0  0  0  0  0
  139.4350   69.1920  224.9420 C   0  0  0  0  0  0  0  0  0  0  0  0
  139.4330   67.9500  225.5380 C   0  0  0  0  0  0  0  0  0  0  0  0
  140.3830   67.5540  226.4510 C   0  0  0  0  0  0  0  0  0  0  0  0
  141.3690   68.4730  226.7610 C   0  0  0  0  0  0  0  0  0  0  0  0
  141.4030   69.7390  226.1770 C   0  0  0  0  0  0  0  0  0  0  0  0
  140.4280   70.0920  225.2650 C   0  0  0  0  0  0  0  0  0  0  0  0
  140.5190   71.4520  224.6790 C   0  0  0  0  0  0  0  0  0  0  0  0
  140.1060   71.9550  221.2980 N   0  0  0  0  0  0  0  0  0  0  0  0
  144.9020   71.5270  220.0560 C   0  0  0  0  0  0  0  0  0  0  0  0
  145.9740   72.4040  219.9680 C   0  0  0  0  0  0  0  0  0  0  0  0
  146.6554   74.4307  220.2496 H   0  0  0  0  0  0  0  0  0  0  0  0
  144.4321   75.1884  221.0288 H   0  0  0  0  0  0  0  0  0  0  0  0
  142.5468   73.6314  221.1779 H   0  0  0  0  0  0  0  0  0  0  0  0
  142.5995   69.5149  219.3824 H   0  0  0  0  0  0  0  0  0  0  0  0
  141.0544   69.8134  220.2794 H   0  0  0  0  0  0  0  0  0  0  0  0
  140.7082   70.2438  218.0900 H   0  0  0  0  0  0  0  0  0  0  0  0
  143.2100   72.1316  218.3245 H   0  0  0  0  0  0  0  0  0  0  0  0
  143.0286   70.9004  217.1135 H   0  0  0  0  0  0  0  0  0  0  0  0
  142.2514   73.5177  216.6996 H   0  0  0  0  0  0  0  0  0  0  0  0
  141.3817   72.1843  215.9114 H   0  0  0  0  0  0  0  0  0  0  0  0
  140.3249   74.0449  217.8657 H   0  0  0  0  0  0  0  0  0  0  0  0
  139.4631   72.6758  217.2228 H   0  0  0  0  0  0  0  0  0  0  0  0
  137.7620   76.1268  221.8652 H   0  0  0  0  0  0  0  0  0  0  0  0
  138.6483   76.4255  223.4195 H   0  0  0  0  0  0  0  0  0  0  0  0
  138.4228   78.3007  221.0408 H   0  0  0  0  0  0  0  0  0  0  0  0
  137.6793   78.5031  222.6555 H   0  0  0  0  0  0  0  0  0  0  0  0
  138.8492   80.3182  223.6961 H   0  0  0  0  0  0  0  0  0  0  0  0
  140.9991   81.2936  224.4764 H   0  0  0  0  0  0  0  0  0  0  0  0
  143.1265   80.2475  223.8270 H   0  0  0  0  0  0  0  0  0  0  0  0
  143.1488   78.2072  222.3892 H   0  0  0  0  0  0  0  0  0  0  0  0
  140.7646   77.2368  220.3463 H   0  0  0  0  0  0  0  0  0  0  0  0
  141.8603   76.3634  221.5114 H   0  0  0  0  0  0  0  0  0  0  0  0
  137.6979   71.4407  224.5650 H   0  0  0  0  0  0  0  0  0  0  0  0
  137.7442   71.1276  222.7658 H   0  0  0  0  0  0  0  0  0  0  0  0
  137.4038   69.1428  224.3629 H   0  0  0  0  0  0  0  0  0  0  0  0
  138.6090   69.0245  223.0146 H   0  0  0  0  0  0  0  0  0  0  0  0
  138.6346   67.2418  225.2715 H   0  0  0  0  0  0  0  0  0  0  0  0
  140.3595   66.5555  226.9118 H   0  0  0  0  0  0  0  0  0  0  0  0
  142.1475   68.1979  227.4879 H   0  0  0  0  0  0  0  0  0  0  0  0
  142.1996   70.4503  226.4406 H   0  0  0  0  0  0  0  0  0  0  0  0
  140.3467   72.1935  225.4730 H   0  0  0  0  0  0  0  0  0  0  0  0
  141.5206   71.5671  224.2391 H   0  0  0  0  0  0  0  0  0  0  0  0
  145.0615   70.4766  219.7710 H   0  0  0  0  0  0  0  0  0  0  0  0
  146.9526   72.0418  219.6199 H   0  0  0  0  0  0  0  0  0  0  0  0
  1  2  2  0
  2  3  1  0
  3  4  2  0
  4  5  1  0
  5  6  1  0
  6  7  1  0
  7  8  1  0
  8  9  1  0
  9 10  1  0
 10 11  1  0
 11 12  1  0
 12 13  2  0
 13 14  1  0
 14 15  1  0
 15 16  1  0
 16 17  1  0
 17 18  1  0
 18 19  2  0
 19 20  1  0
 20 21  2  0
 21 22  1  0
 22 23  2  0
 23 24  1  0
 14 25  2  0
 25 26  1  0
 26 27  1  0
 27 28  1  0
 28 29  1  0
 29 30  1  0
 30 31  2  0
 31 32  1  0
 32 33  2  0
 33 34  1  0
 34 35  2  0
 35 36  1  0
 26 37  2  0
  4 38  1  0
 38 39  2  0
 39  1  1  0
 11  7  1  0
 37 12  1  0
 24 15  1  0
 36 27  1  0
 23 18  1  0
 35 30  1  0
  1 40  1  0
  2 41  1  0
  3 42  1  0
  6 43  1  0
  6 44  1  0
  7 45  1  6
  8 46  1  0
  8 47  1  0
  9 48  1  0
  9 49  1  0
 10 50  1  0
 10 51  1  0
 16 52  1  0
 16 53  1  0
 17 54  1  0
 17 55  1  0
 19 56  1  0
 20 57  1  0
 21 58  1  0
 22 59  1  0
 24 60  1  0
 24 61  1  0
 28 62  1  0
 28 63  1  0
 29 64  1  0
 29 65  1  0
 31 66  1  0
 32 67  1  0
 33 68  1  0
 34 69  1  0
 36 70  1  0
 36 71  1  0
 38 72  1  0
 39 73  1  0
M  END
>  <smiles>  (12) 
c1ccc(OC[C@@H]2CCCN2c2nc(N3CCc4ccccc4C3)nc(N3CCc4ccccc4C3)n2)cc1

>  <score_type>  (12) 
oracle

>  <origin>  (12) 
autodockgpu

>  <m_score__min__energy>  (12) 
-11.19

>  <m_primary>  (12) 
energy

>  <rmsd>  (12) 
5.276883906706688

>  <m_score__min__rmsd>  (12) 
5.276883906706688

>  <meeko>  (12) 
{"free_energy": -9.59, "intermolecular_energy": -11.38, "internal_energy": -2.11, "cluster_size": 3, "cluster_id": 3, "rank_in_cluster": 3}

>  <energy>  (12) 
-10.73

>  <cluster_rmsd>  (12) 
0.51

>  <cluster>  (12) 
1

$$$$

     RDKit          3D

 73 79  0  0  0  0  0  0  0  0999 V2000
  141.7820   81.4020  223.8190 C   0  0  0  0  0  0  0  0  0  0  0  0
  140.5750   80.7790  223.6350 C   0  0  0  0  0  0  0  0  0  0  0  0
  140.4990   79.4860  223.1730 C   0  0  0  0  0  0  0  0  0  0  0  0
  141.6530   78.7420  222.8670 C   0  0  0  0  0  0  0  0  0  0  0  0
  141.4600   77.4780  222.4220 O   0  0  0  0  0  0  0  0  0  0  0  0
  140.3850   76.6080  222.4860 C   0  0  0  0  0  0  0  0  0  0  0  0
  139.6730   76.5290  221.1910 C   0  0  2  0  0  0  0  0  0  0  0  0
  138.1830   76.8830  221.3320 C   0  0  0  0  0  0  0  0  0  0  0  0
  137.6380   76.3320  220.0350 C   0  0  0  0  0  0  0  0  0  0  0  0
  138.5890   75.2170  219.5950 C   0  0  0  0  0  0  0  0  0  0  0  0
  139.4940   75.1450  220.7280 N   0  0  0  0  0  0  0  0  0  0  0  0
  140.0620   73.9550  221.2460 C   0  0  0  0  0  0  0  0  0  0  0  0
  141.1000   73.4290  220.5740 N   0  0  0  0  0  0  0  0  0  0  0  0
  141.7260   72.2950  220.9710 C   0  0  0  0  0  0  0  0  0  0  0  0
  142.8250   71.7390  220.2590 N   0  0  0  0  0  0  0  0  0  0  0  0
  144.1380   72.3740  220.3840 C   0  0  0  0  0  0  0  0  0  0  0  0
  145.0860   71.9080  219.3160 C   0  0  0  0  0  0  0  0  0  0  0  0
  145.1210   70.4100  219.3300 C   0  0  0  0  0  0  0  0  0  0  0  0
  146.3060   69.7020  219.2870 C   0  0  0  0  0  0  0  0  0  0  0  0
  146.2830   68.3190  219.3020 C   0  0  0  0  0  0  0  0  0  0  0  0
  145.0890   67.6620  219.3610 C   0  0  0  0  0  0  0  0  0  0  0  0
  143.8850   68.3710  219.4040 C   0  0  0  0  0  0  0  0  0  0  0  0
  143.9080   69.7510  219.3900 C   0  0  0  0  0  0  0  0  0  0  0  0
  142.6830   70.5850  219.4320 C   0  0  0  0  0  0  0  0  0  0  0  0
  141.2560   71.7070  222.0850 N   0  0  0  0  0  0  0  0  0  0  0  0
  140.2340   72.1970  222.7740 C   0  0  0  0  0  0  0  0  0  0  0  0
  139.7880   71.5250  223.9460 N   0  0  0  0  0  0  0  0  0  0  0  0
  138.6280   70.6610  223.8500 C   0  0  0  0  0  0  0  0  0  0  0  0
  138.8610   69.2810  224.4000 C   0  0  0  0  0  0  0  0  0  0  0  0
  139.6490   69.3190  225.6540 C   0  0  0  0  0  0  0  0  0  0  0  0
  139.6460   68.2060  226.4650 C   0  0  0  0  0  0  0  0  0  0  0  0
  140.3450   68.1380  227.6490 C   0  0  0  0  0  0  0  0  0  0  0  0
  141.0700   69.2590  228.0080 C   0  0  0  0  0  0  0  0  0  0  0  0
  141.0970   70.4040  227.2120 C   0  0  0  0  0  0  0  0  0  0  0  0
  140.3790   70.4250  226.0310 C   0  0  0  0  0  0  0  0  0  0  0  0
  140.4480   71.6710  225.2280 C   0  0  0  0  0  0  0  0  0  0  0  0
  139.6410   73.3270  222.3440 N   0  0  0  0  0  0  0  0  0  0  0  0
  142.8420   79.3950  223.0630 C   0  0  0  0  0  0  0  0  0  0  0  0
  142.9260   80.6990  223.5280 C   0  0  0  0  0  0  0  0  0  0  0  0
  141.8333   82.4365  224.1895 H   0  0  0  0  0  0  0  0  0  0  0  0
  139.6474   81.3250  223.8617 H   0  0  0  0  0  0  0  0  0  0  0  0
  139.5108   79.0217  223.0393 H   0  0  0  0  0  0  0  0  0  0  0  0
  140.7515   75.6061  222.7540 H   0  0  0  0  0  0  0  0  0  0  0  0
  139.6818   76.9836  223.2439 H   0  0  0  0  0  0  0  0  0  0  0  0
  140.2778   77.1816  220.5442 H   0  0  0  0  0  0  0  0  0  0  0  0
  137.7301   76.3887  222.2041 H   0  0  0  0  0  0  0  0  0  0  0  0
  137.9819   77.9524  221.4931 H   0  0  0  0  0  0  0  0  0  0  0  0
  136.6267   75.9280  220.1903 H   0  0  0  0  0  0  0  0  0  0  0  0
  137.5704   77.1186  219.2691 H   0  0  0  0  0  0  0  0  0  0  0  0
  138.0538   74.2674  219.4471 H   0  0  0  0  0  0  0  0  0  0  0  0
  139.0883   75.4067  218.6334 H   0  0  0  0  0  0  0  0  0  0  0  0
  144.0159   73.4640  220.3010 H   0  0  0  0  0  0  0  0  0  0  0  0
  144.5605   72.0972  221.3612 H   0  0  0  0  0  0  0  0  0  0  0  0
  144.7404   72.2617  218.3334 H   0  0  0  0  0  0  0  0  0  0  0  0
  146.0925   72.3097  219.5048 H   0  0  0  0  0  0  0  0  0  0  0  0
  147.2662   70.2368  219.2409 H   0  0  0  0  0  0  0  0  0  0  0  0
  147.2243   67.7510  219.2665 H   0  0  0  0  0  0  0  0  0  0  0  0
  145.0734   66.5622  219.3749 H   0  0  0  0  0  0  0  0  0  0  0  0
  142.9265   67.8332  219.4487 H   0  0  0  0  0  0  0  0  0  0  0  0
  142.4466   70.9132  218.4091 H   0  0  0  0  0  0  0  0  0  0  0  0
  141.8787   69.9689  219.8604 H   0  0  0  0  0  0  0  0  0  0  0  0
  137.8018   71.1239  224.4095 H   0  0  0  0  0  0  0  0  0  0  0  0
  138.3960   70.5483  222.7807 H   0  0  0  0  0  0  0  0  0  0  0  0
  137.8885   68.8092  224.6038 H   0  0  0  0  0  0  0  0  0  0  0  0
  139.4288   68.7051  223.6544 H   0  0  0  0  0  0  0  0  0  0  0  0
  139.0578   67.3307  226.1522 H   0  0  0  0  0  0  0  0  0  0  0  0
  140.3275   67.2361  228.2785 H   0  0  0  0  0  0  0  0  0  0  0  0
  141.6416   69.2476  228.9477 H   0  0  0  0  0  0  0  0  0  0  0  0
  141.6838   71.2816  227.5210 H   0  0  0  0  0  0  0  0  0  0  0  0
  139.9609   72.4826  225.7884 H   0  0  0  0  0  0  0  0  0  0  0  0
  141.5080   71.8983  225.0418 H   0  0  0  0  0  0  0  0  0  0  0  0
  143.7760   78.8582  222.8405 H   0  0  0  0  0  0  0  0  0  0  0  0
  143.9102   81.1711  223.6640 H   0  0  0  0  0  0  0  0  0  0  0  0
  1  2  2  0
  2  3  1  0
  3  4  2  0
  4  5  1  0
  5  6  1  0
  6  7  1  0
  7  8  1  0
  8  9  1  0
  9 10  1  0
 10 11  1  0
 11 12  1  0
 12 13  2  0
 13 14  1  0
 14 15  1  0
 15 16  1  0
 16 17  1  0
 17 18  1  0
 18 19  2  0
 19 20  1  0
 20 21  2  0
 21 22  1  0
 22 23  2  0
 23 24  1  0
 14 25  2  0
 25 26  1  0
 26 27  1  0
 27 28  1  0
 28 29  1  0
 29 30  1  0
 30 31  2  0
 31 32  1  0
 32 33  2  0
 33 34  1  0
 34 35  2  0
 35 36  1  0
 26 37  2  0
  4 38  1  0
 38 39  2  0
 39  1  1  0
 11  7  1  0
 37 12  1  0
 24 15  1  0
 36 27  1  0
 23 18  1  0
 35 30  1  0
  1 40  1  0
  2 41  1  0
  3 42  1  0
  6 43  1  0
  6 44  1  0
  7 45  1  6
  8 46  1  0
  8 47  1  0
  9 48  1  0
  9 49  1  0
 10 50  1  0
 10 51  1  0
 16 52  1  0
 16 53  1  0
 17 54  1  0
 17 55  1  0
 19 56  1  0
 20 57  1  0
 21 58  1  0
 22 59  1  0
 24 60  1  0
 24 61  1  0
 28 62  1  0
 28 63  1  0
 29 64  1  0
 29 65  1  0
 31 66  1  0
 32 67  1  0
 33 68  1  0
 34 69  1  0
 36 70  1  0
 36 71  1  0
 38 72  1  0
 39 73  1  0
M  END
>  <smiles>  (13) 
c1ccc(OC[C@@H]2CCCN2c2nc(N3CCc4ccccc4C3)nc(N3CCc4ccccc4C3)n2)cc1

>  <score_type>  (13) 
oracle

>  <origin>  (13) 
autodockgpu

>  <m_score__min__energy>  (13) 
-11.19

>  <m_primary>  (13) 
energy

>  <rmsd>  (13) 
10.51813139497275

>  <m_score__min__rmsd>  (13) 
10.51813139497275

>  <meeko>  (13) 
{"free_energy": -10.73, "intermolecular_energy": -12.52, "internal_energy": -1.45, "cluster_size": 29, "cluster_id": 1, "rank_in_cluster": 12}

>  <energy>  (13) 
-10.73

>  <cluster_rmsd>  (13) 
1.64

>  <cluster>  (13) 
1

$$$$

     RDKit          3D

 73 79  0  0  0  0  0  0  0  0999 V2000
  140.5590   70.8810  228.3420 C   0  0  0  0  0  0  0  0  0  0  0  0
  141.1400   71.9030  227.6370 C   0  0  0  0  0  0  0  0  0  0  0  0
  141.1690   71.8980  226.2620 C   0  0  0  0  0  0  0  0  0  0  0  0
  140.6040   70.8490  225.5140 C   0  0  0  0  0  0  0  0  0  0  0  0
  140.6890   70.9510  224.1680 O   0  0  0  0  0  0  0  0  0  0  0  0
  139.8980   70.4800  223.1320 C   0  0  0  0  0  0  0  0  0  0  0  0
  138.5620   71.1170  223.1380 C   0  0  2  0  0  0  0  0  0  0  0  0
  137.5950   70.4310  222.1580 C   0  0  0  0  0  0  0  0  0  0  0  0
  136.5150   71.4810  222.0450 C   0  0  0  0  0  0  0  0  0  0  0  0
  137.1710   72.8250  222.3690 C   0  0  0  0  0  0  0  0  0  0  0  0
  138.5660   72.4410  222.5000 N   0  0  0  0  0  0  0  0  0  0  0  0
  139.6710   73.2220  222.0810 C   0  0  0  0  0  0  0  0  0  0  0  0
  139.5710   74.5540  222.2290 N   0  0  0  0  0  0  0  0  0  0  0  0
  140.5600   75.4050  221.8650 C   0  0  0  0  0  0  0  0  0  0  0  0
  140.4540   76.8140  222.0220 N   0  0  0  0  0  0  0  0  0  0  0  0
  139.2770   77.3610  222.7010 C   0  0  0  0  0  0  0  0  0  0  0  0
  139.1350   78.8380  222.4680 C   0  0  0  0  0  0  0  0  0  0  0  0
  140.4260   79.5050  222.8360 C   0  0  0  0  0  0  0  0  0  0  0  0
  140.4680   80.6460  223.6120 C   0  0  0  0  0  0  0  0  0  0  0  0
  141.6860   81.2230  223.9230 C   0  0  0  0  0  0  0  0  0  0  0  0
  142.8390   80.6600  223.4620 C   0  0  0  0  0  0  0  0  0  0  0  0
  142.8050   79.5050  222.6750 C   0  0  0  0  0  0  0  0  0  0  0  0
  141.5910   78.9290  222.3650 C   0  0  0  0  0  0  0  0  0  0  0  0
  141.4580   77.7050  221.5380 C   0  0  0  0  0  0  0  0  0  0  0  0
  141.6680   74.8490  221.3400 N   0  0  0  0  0  0  0  0  0  0  0  0
  141.8020   73.5400  221.1800 C   0  0  0  0  0  0  0  0  0  0  0  0
  143.0010   73.0190  220.6190 N   0  0  0  0  0  0  0  0  0  0  0  0
  143.4020   71.6710  220.9680 C   0  0  0  0  0  0  0  0  0  0  0  0
  143.6910   70.8030  219.7750 C   0  0  0  0  0  0  0  0  0  0  0  0
  144.4340   71.5440  218.7290 C   0  0  0  0  0  0  0  0  0  0  0  0
  145.0810   70.8250  217.7480 C   0  0  0  0  0  0  0  0  0  0  0  0
  145.7980   71.4160  216.7320 C   0  0  0  0  0  0  0  0  0  0  0  0
  145.8480   72.7980  216.7290 C   0  0  0  0  0  0  0  0  0  0  0  0
  145.2050   73.5590  217.7060 C   0  0  0  0  0  0  0  0  0  0  0  0
  144.4980   72.9210  218.7070 C   0  0  0  0  0  0  0  0  0  0  0  0
  143.8360   73.7850  219.7150 C   0  0  0  0  0  0  0  0  0  0  0  0
  140.7930   72.7310  221.5560 N   0  0  0  0  0  0  0  0  0  0  0  0
  140.0320   69.8450  226.2500 C   0  0  0  0  0  0  0  0  0  0  0  0
  139.9990   69.8430  227.6380 C   0  0  0  0  0  0  0  0  0  0  0  0
  140.5417   70.8919  229.4418 H   0  0  0  0  0  0  0  0  0  0  0  0
  141.5924   72.7445  228.1823 H   0  0  0  0  0  0  0  0  0  0  0  0
  141.6465   72.7361  225.7333 H   0  0  0  0  0  0  0  0  0  0  0  0
  140.3943   70.6990  222.1751 H   0  0  0  0  0  0  0  0  0  0  0  0
  139.7646   69.3962  223.2644 H   0  0  0  0  0  0  0  0  0  0  0  0
  138.2879   71.0927  224.2030 H   0  0  0  0  0  0  0  0  0  0  0  0
  138.0734   70.2361  221.1869 H   0  0  0  0  0  0  0  0  0  0  0  0
  137.2380   69.4437  222.4863 H   0  0  0  0  0  0  0  0  0  0  0  0
  136.1059   71.4954  221.0240 H   0  0  0  0  0  0  0  0  0  0  0  0
  135.6849   71.2699  222.7351 H   0  0  0  0  0  0  0  0  0  0  0  0
  137.0282   73.5491  221.5533 H   0  0  0  0  0  0  0  0  0  0  0  0
  136.7573   73.3238  223.2578 H   0  0  0  0  0  0  0  0  0  0  0  0
  138.3785   76.8526  222.3212 H   0  0  0  0  0  0  0  0  0  0  0  0
  139.3979   77.1954  223.7817 H   0  0  0  0  0  0  0  0  0  0  0  0
  138.9093   79.0262  221.4080 H   0  0  0  0  0  0  0  0  0  0  0  0
  138.3156   79.2390  223.0826 H   0  0  0  0  0  0  0  0  0  0  0  0
  139.5347   81.0954  223.9822 H   0  0  0  0  0  0  0  0  0  0  0  0
  141.7243   82.1328  224.5401 H   0  0  0  0  0  0  0  0  0  0  0  0
  143.8066   81.1196  223.7120 H   0  0  0  0  0  0  0  0  0  0  0  0
  143.7401   79.0588  222.3056 H   0  0  0  0  0  0  0  0  0  0  0  0
  141.1984   78.0018  220.5111 H   0  0  0  0  0  0  0  0  0  0  0  0
  142.4196   77.1725  221.5796 H   0  0  0  0  0  0  0  0  0  0  0  0
  144.3103   71.7270  221.5859 H   0  0  0  0  0  0  0  0  0  0  0  0
  142.5592   71.2118  221.5054 H   0  0  0  0  0  0  0  0  0  0  0  0
  144.2933   69.9411  220.0980 H   0  0  0  0  0  0  0  0  0  0  0  0
  142.7320   70.4740  219.3483 H   0  0  0  0  0  0  0  0  0  0  0  0
  145.0220   69.7270  217.7778 H   0  0  0  0  0  0  0  0  0  0  0  0
  146.3060   70.8184  215.9607 H   0  0  0  0  0  0  0  0  0  0  0  0
  146.4100   73.3113  215.9348 H   0  0  0  0  0  0  0  0  0  0  0  0
  145.2605   74.6573  217.6794 H   0  0  0  0  0  0  0  0  0  0  0  0
  144.6088   74.3055  220.2997 H   0  0  0  0  0  0  0  0  0  0  0  0
  143.1933   74.5005  219.1812 H   0  0  0  0  0  0  0  0  0  0  0  0
  139.5764   68.9988  225.7149 H   0  0  0  0  0  0  0  0  0  0  0  0
  139.5236   69.0088  228.1748 H   0  0  0  0  0  0  0  0  0  0  0  0
  1  2  2  0
  2  3  1  0
  3  4  2  0
  4  5  1  0
  5  6  1  0
  6  7  1  0
  7  8  1  0
  8  9  1  0
  9 10  1  0
 10 11  1  0
 11 12  1  0
 12 13  2  0
 13 14  1  0
 14 15  1  0
 15 16  1  0
 16 17  1  0
 17 18  1  0
 18 19  2  0
 19 20  1  0
 20 21  2  0
 21 22  1  0
 22 23  2  0
 23 24  1  0
 14 25  2  0
 25 26  1  0
 26 27  1  0
 27 28  1  0
 28 29  1  0
 29 30  1  0
 30 31  2  0
 31 32  1  0
 32 33  2  0
 33 34  1  0
 34 35  2  0
 35 36  1  0
 26 37  2  0
  4 38  1  0
 38 39  2  0
 39  1  1  0
 11  7  1  0
 37 12  1  0
 24 15  1  0
 36 27  1  0
 23 18  1  0
 35 30  1  0
  1 40  1  0
  2 41  1  0
  3 42  1  0
  6 43  1  0
  6 44  1  0
  7 45  1  1
  8 46  1  0
  8 47  1  0
  9 48  1  0
  9 49  1  0
 10 50  1  0
 10 51  1  0
 16 52  1  0
 16 53  1  0
 17 54  1  0
 17 55  1  0
 19 56  1  0
 20 57  1  0
 21 58  1  0
 22 59  1  0
 24 60  1  0
 24 61  1  0
 28 62  1  0
 28 63  1  0
 29 64  1  0
 29 65  1  0
 31 66  1  0
 32 67  1  0
 33 68  1  0
 34 69  1  0
 36 70  1  0
 36 71  1  0
 38 72  1  0
 39 73  1  0
M  END
>  <smiles>  (14) 
c1ccc(OC[C@@H]2CCCN2c2nc(N3CCc4ccccc4C3)nc(N3CCc4ccccc4C3)n2)cc1

>  <score_type>  (14) 
oracle

>  <origin>  (14) 
autodockgpu

>  <m_score__min__energy>  (14) 
-11.19

>  <m_primary>  (14) 
energy

>  <rmsd>  (14) 
5.497257075307796

>  <m_score__min__rmsd>  (14) 
5.497257075307796

>  <meeko>  (14) 
{"free_energy": -10.12, "intermolecular_energy": -11.91, "internal_energy": -1.7, "cluster_size": 3, "cluster_id": 3, "rank_in_cluster": 1}

>  <energy>  (14) 
-10.72

>  <cluster_rmsd>  (14) 
1.8

>  <cluster>  (14) 
1

$$$$

     RDKit          3D

 73 79  0  0  0  0  0  0  0  0999 V2000
  142.4320   77.8250  218.9270 C   0  0  0  0  0  0  0  0  0  0  0  0
  141.1880   77.5520  218.4200 C   0  0  0  0  0  0  0  0  0  0  0  0
  140.8430   76.2850  218.0100 C   0  0  0  0  0  0  0  0  0  0  0  0
  141.7480   75.2110  218.0920 C   0  0  0  0  0  0  0  0  0  0  0  0
  141.3010   74.0080  217.6630 O   0  0  0  0  0  0  0  0  0  0  0  0
  141.5000   72.7110  218.1080 C   0  0  0  0  0  0  0  0  0  0  0  0
  142.8730   72.5210  218.6270 C   0  0  2  0  0  0  0  0  0  0  0  0
  143.3760   71.0850  218.4070 C   0  0  0  0  0  0  0  0  0  0  0  0
  144.5480   71.0460  219.3590 C   0  0  0  0  0  0  0  0  0  0  0  0
  144.2660   72.0850  220.4470 C   0  0  0  0  0  0  0  0  0  0  0  0
  142.9240   72.5140  220.0970 N   0  0  0  0  0  0  0  0  0  0  0  0
  141.9040   72.8450  221.0230 C   0  0  0  0  0  0  0  0  0  0  0  0
  141.5010   74.1270  221.0570 N   0  0  0  0  0  0  0  0  0  0  0  0
  140.5350   74.5650  221.8990 C   0  0  0  0  0  0  0  0  0  0  0  0
  140.1090   75.9220  221.9340 N   0  0  0  0  0  0  0  0  0  0  0  0
  138.6990   76.2110  222.2050 C   0  0  0  0  0  0  0  0  0  0  0  0
  138.3430   77.6270  221.8530 C   0  0  0  0  0  0  0  0  0  0  0  0
  139.3050   78.5460  222.5420 C   0  0  0  0  0  0  0  0  0  0  0  0
  138.8860   79.6690  223.2260 C   0  0  0  0  0  0  0  0  0  0  0  0
  139.8150   80.4860  223.8460 C   0  0  0  0  0  0  0  0  0  0  0  0
  141.1410   80.1750  223.7760 C   0  0  0  0  0  0  0  0  0  0  0  0
  141.5740   79.0400  223.0850 C   0  0  0  0  0  0  0  0  0  0  0  0
  140.6470   78.2260  222.4680 C   0  0  0  0  0  0  0  0  0  0  0  0
  141.0140   77.0030  221.7130 C   0  0  0  0  0  0  0  0  0  0  0  0
  139.9860   73.6470  222.7140 N   0  0  0  0  0  0  0  0  0  0  0  0
  140.3580   72.3740  222.7080 C   0  0  0  0  0  0  0  0  0  0  0  0
  139.7340   71.4550  223.5970 N   0  0  0  0  0  0  0  0  0  0  0  0
  138.8190   70.4730  223.0500 C   0  0  0  0  0  0  0  0  0  0  0  0
  139.1340   69.0630  223.4640 C   0  0  0  0  0  0  0  0  0  0  0  0
  139.5270   68.9880  224.8910 C   0  0  0  0  0  0  0  0  0  0  0  0
  139.5000   67.7620  225.5170 C   0  0  0  0  0  0  0  0  0  0  0  0
  139.8460   67.5840  226.8370 C   0  0  0  0  0  0  0  0  0  0  0  0
  140.2320   68.7130  227.5360 C   0  0  0  0  0  0  0  0  0  0  0  0
  140.2720   69.9710  226.9350 C   0  0  0  0  0  0  0  0  0  0  0  0
  139.9150   70.1010  225.6070 C   0  0  0  0  0  0  0  0  0  0  0  0
  139.9780   71.4640  225.0260 C   0  0  0  0  0  0  0  0  0  0  0  0
  141.3220   71.9820  221.8540 N   0  0  0  0  0  0  0  0  0  0  0  0
  142.9810   75.5190  218.6040 C   0  0  0  0  0  0  0  0  0  0  0  0
  143.3350   76.7950  219.0190 C   0  0  0  0  0  0  0  0  0  0  0  0
  142.6994   78.8415  219.2513 H   0  0  0  0  0  0  0  0  0  0  0  0
  140.4498   78.3635  218.3393 H   0  0  0  0  0  0  0  0  0  0  0  0
  139.8346   76.1072  217.6081 H   0  0  0  0  0  0  0  0  0  0  0  0
  140.7808   72.4944  218.9116 H   0  0  0  0  0  0  0  0  0  0  0  0
  141.3544   72.0280  217.2581 H   0  0  0  0  0  0  0  0  0  0  0  0
  143.4336   73.3240  218.1260 H   0  0  0  0  0  0  0  0  0  0  0  0
  142.6107   70.3423  218.6766 H   0  0  0  0  0  0  0  0  0  0  0  0
  143.6291   70.8462  217.3635 H   0  0  0  0  0  0  0  0  0  0  0  0
  144.6404   70.0450  219.8056 H   0  0  0  0  0  0  0  0  0  0  0  0
  145.4901   71.2668  218.8358 H   0  0  0  0  0  0  0  0  0  0  0  0
  144.2950   71.6344  221.4501 H   0  0  0  0  0  0  0  0  0  0  0  0
  145.0015   72.9020  220.4883 H   0  0  0  0  0  0  0  0  0  0  0  0
  138.0747   75.5283  221.6099 H   0  0  0  0  0  0  0  0  0  0  0  0
  138.5217   76.0711  223.2816 H   0  0  0  0  0  0  0  0  0  0  0  0
  138.4118   77.7669  220.7641 H   0  0  0  0  0  0  0  0  0  0  0  0
  137.3149   77.8478  222.1758 H   0  0  0  0  0  0  0  0  0  0  0  0
  137.8150   79.9143  223.2783 H   0  0  0  0  0  0  0  0  0  0  0  0
  139.4856   81.3819  224.3926 H   0  0  0  0  0  0  0  0  0  0  0  0
  141.8785   80.8252  224.2693 H   0  0  0  0  0  0  0  0  0  0  0  0
  142.6458   78.7977  223.0336 H   0  0  0  0  0  0  0  0  0  0  0  0
  141.0201   77.2419  220.6393 H   0  0  0  0  0  0  0  0  0  0  0  0
  142.0050   76.6817  222.0662 H   0  0  0  0  0  0  0  0  0  0  0  0
  137.8020   70.7169  223.3910 H   0  0  0  0  0  0  0  0  0  0  0  0
  138.9141   70.5173  221.9550 H   0  0  0  0  0  0  0  0  0  0  0  0
  138.2434   68.4371  223.3057 H   0  0  0  0  0  0  0  0  0  0  0  0
  139.9782   68.7064  222.8556 H   0  0  0  0  0  0  0  0  0  0  0  0
  139.1870   66.8831  224.9343 H   0  0  0  0  0  0  0  0  0  0  0  0
  139.8169   66.5926  227.3126 H   0  0  0  0  0  0  0  0  0  0  0  0
  140.5151   68.6163  228.5945 H   0  0  0  0  0  0  0  0  0  0  0  0
  140.5853   70.8524  227.5138 H   0  0  0  0  0  0  0  0  0  0  0  0
  139.2181   72.0933  225.5124 H   0  0  0  0  0  0  0  0  0  0  0  0
  140.9899   71.8604  225.1963 H   0  0  0  0  0  0  0  0  0  0  0  0
  143.7270   74.7152  218.6904 H   0  0  0  0  0  0  0  0  0  0  0  0
  144.3412   76.9816  219.4225 H   0  0  0  0  0  0  0  0  0  0  0  0
  1  2  2  0
  2  3  1  0
  3  4  2  0
  4  5  1  0
  5  6  1  0
  6  7  1  0
  7  8  1  0
  8  9  1  0
  9 10  1  0
 10 11  1  0
 11 12  1  0
 12 13  2  0
 13 14  1  0
 14 15  1  0
 15 16  1  0
 16 17  1  0
 17 18  1  0
 18 19  2  0
 19 20  1  0
 20 21  2  0
 21 22  1  0
 22 23  2  0
 23 24  1  0
 14 25  2  0
 25 26  1  0
 26 27  1  0
 27 28  1  0
 28 29  1  0
 29 30  1  0
 30 31  2  0
 31 32  1  0
 32 33  2  0
 33 34  1  0
 34 35  2  0
 35 36  1  0
 26 37  2  0
  4 38  1  0
 38 39  2  0
 39  1  1  0
 11  7  1  0
 37 12  1  0
 24 15  1  0
 36 27  1  0
 23 18  1  0
 35 30  1  0
  1 40  1  0
  2 41  1  0
  3 42  1  0
  6 43  1  0
  6 44  1  0
  7 45  1  6
  8 46  1  0
  8 47  1  0
  9 48  1  0
  9 49  1  0
 10 50  1  0
 10 51  1  0
 16 52  1  0
 16 53  1  0
 17 54  1  0
 17 55  1  0
 19 56  1  0
 20 57  1  0
 21 58  1  0
 22 59  1  0
 24 60  1  0
 24 61  1  0
 28 62  1  0
 28 63  1  0
 29 64  1  0
 29 65  1  0
 31 66  1  0
 32 67  1  0
 33 68  1  0
 34 69  1  0
 36 70  1  0
 36 71  1  0
 38 72  1  0
 39 73  1  0
M  END
>  <smiles>  (15) 
c1ccc(OC[C@@H]2CCCN2c2nc(N3CCc4ccccc4C3)nc(N3CCc4ccccc4C3)n2)cc1

>  <score_type>  (15) 
oracle

>  <origin>  (15) 
autodockgpu

>  <m_score__min__energy>  (15) 
-11.19

>  <m_primary>  (15) 
energy

>  <rmsd>  (15) 
5.132112261220073

>  <m_score__min__rmsd>  (15) 
5.132112261220073

>  <meeko>  (15) 
{"free_energy": -9.26, "intermolecular_energy": -11.05, "internal_energy": -2.52, "cluster_size": 7, "cluster_id": 4, "rank_in_cluster": 6}

>  <energy>  (15) 
-10.66

>  <cluster_rmsd>  (15) 
1.85

>  <cluster>  (15) 
1

$$$$

     RDKit          3D

 73 79  0  0  0  0  0  0  0  0999 V2000
  140.6900   71.7250  228.3530 C   0  0  0  0  0  0  0  0  0  0  0  0
  141.2630   72.2900  227.2430 C   0  0  0  0  0  0  0  0  0  0  0  0
  141.1660   71.6970  226.0060 C   0  0  0  0  0  0  0  0  0  0  0  0
  140.4740   70.4860  225.8190 C   0  0  0  0  0  0  0  0  0  0  0  0
  140.4410   69.9950  224.5580 O   0  0  0  0  0  0  0  0  0  0  0  0
  140.0080   70.5190  223.3510 C   0  0  0  0  0  0  0  0  0  0  0  0
  138.6520   71.1000  223.4670 C   0  0  2  0  0  0  0  0  0  0  0  0
  137.6130   70.2990  222.6650 C   0  0  0  0  0  0  0  0  0  0  0  0
  136.4770   71.2920  222.6010 C   0  0  0  0  0  0  0  0  0  0  0  0
  137.1000   72.6830  222.7410 C   0  0  0  0  0  0  0  0  0  0  0  0
  138.5170   72.3680  222.7350 N   0  0  0  0  0  0  0  0  0  0  0  0
  139.5270   73.1550  222.1280 C   0  0  0  0  0  0  0  0  0  0  0  0
  139.4580   74.4850  222.3100 N   0  0  0  0  0  0  0  0  0  0  0  0
  140.3640   75.3410  221.7810 C   0  0  0  0  0  0  0  0  0  0  0  0
  140.2910   76.7490  221.9740 N   0  0  0  0  0  0  0  0  0  0  0  0
  139.1480   77.3010  222.7040 C   0  0  0  0  0  0  0  0  0  0  0  0
  139.0280   78.7860  222.5110 C   0  0  0  0  0  0  0  0  0  0  0  0
  140.3430   79.4190  222.8510 C   0  0  0  0  0  0  0  0  0  0  0  0
  140.4330   80.5400  223.6520 C   0  0  0  0  0  0  0  0  0  0  0  0
  141.6720   81.0860  223.9360 C   0  0  0  0  0  0  0  0  0  0  0  0
  142.7980   80.5130  223.4240 C   0  0  0  0  0  0  0  0  0  0  0  0
  142.7160   79.3780  222.6130 C   0  0  0  0  0  0  0  0  0  0  0  0
  141.4800   78.8330  222.3290 C   0  0  0  0  0  0  0  0  0  0  0  0
  141.2960   77.6320  221.4790 C   0  0  0  0  0  0  0  0  0  0  0  0
  141.3540   74.7950  221.0530 N   0  0  0  0  0  0  0  0  0  0  0  0
  141.4550   73.4880  220.8530 C   0  0  0  0  0  0  0  0  0  0  0  0
  142.5280   72.9760  220.0720 N   0  0  0  0  0  0  0  0  0  0  0  0
  143.6650   73.8360  219.8090 C   0  0  0  0  0  0  0  0  0  0  0  0
  144.9860   73.2070  220.1570 C   0  0  0  0  0  0  0  0  0  0  0  0
  145.0340   71.7810  219.7580 C   0  0  0  0  0  0  0  0  0  0  0  0
  146.2610   71.1630  219.6730 C   0  0  0  0  0  0  0  0  0  0  0  0
  146.4150   69.8430  219.3130 C   0  0  0  0  0  0  0  0  0  0  0  0
  145.2600   69.1380  219.0290 C   0  0  0  0  0  0  0  0  0  0  0  0
  144.0000   69.7300  219.1040 C   0  0  0  0  0  0  0  0  0  0  0  0
  143.8950   71.0580  219.4700 C   0  0  0  0  0  0  0  0  0  0  0  0
  142.5280   71.6310  219.5320 C   0  0  0  0  0  0  0  0  0  0  0  0
  140.5320   72.6730  221.3980 N   0  0  0  0  0  0  0  0  0  0  0  0
  139.9130   69.9500  226.9480 C   0  0  0  0  0  0  0  0  0  0  0  0
  140.0090   70.5420  228.2000 C   0  0  0  0  0  0  0  0  0  0  0  0
  140.7733   72.2058  229.3389 H   0  0  0  0  0  0  0  0  0  0  0  0
  141.8120   73.2378  227.3440 H   0  0  0  0  0  0  0  0  0  0  0  0
  141.6415   72.1817  225.1406 H   0  0  0  0  0  0  0  0  0  0  0  0
  140.7076   71.3053  223.0312 H   0  0  0  0  0  0  0  0  0  0  0  0
  139.9720   69.7033  222.6138 H   0  0  0  0  0  0  0  0  0  0  0  0
  138.5044   71.1507  224.5559 H   0  0  0  0  0  0  0  0  0  0  0  0
  137.9849   70.0444  221.6616 H   0  0  0  0  0  0  0  0  0  0  0  0
  137.3450   69.3288  223.1086 H   0  0  0  0  0  0  0  0  0  0  0  0
  135.9528   71.2067  221.6377 H   0  0  0  0  0  0  0  0  0  0  0  0
  135.7430   71.1052  223.3987 H   0  0  0  0  0  0  0  0  0  0  0  0
  136.8291   73.3315  221.8948 H   0  0  0  0  0  0  0  0  0  0  0  0
  136.7674   73.2355  223.6321 H   0  0  0  0  0  0  0  0  0  0  0  0
  138.2278   76.8193  222.3419 H   0  0  0  0  0  0  0  0  0  0  0  0
  139.3003   77.1064  223.7759 H   0  0  0  0  0  0  0  0  0  0  0  0
  138.7712   79.0043  221.4639 H   0  0  0  0  0  0  0  0  0  0  0  0
  138.2376   79.1874  223.1623 H   0  0  0  0  0  0  0  0  0  0  0  0
  139.5214   80.9980  224.0635 H   0  0  0  0  0  0  0  0  0  0  0  0
  141.7483   81.9796  224.5729 H   0  0  0  0  0  0  0  0  0  0  0  0
  143.7819   80.9489  223.6518 H   0  0  0  0  0  0  0  0  0  0  0  0
  143.6297   78.9222  222.2039 H   0  0  0  0  0  0  0  0  0  0  0  0
  141.0095   77.9581  220.4683 H   0  0  0  0  0  0  0  0  0  0  0  0
  142.2477   77.0804  221.4774 H   0  0  0  0  0  0  0  0  0  0  0  0
  143.6706   74.0880  218.7383 H   0  0  0  0  0  0  0  0  0  0  0  0
  143.5522   74.7255  220.4463 H   0  0  0  0  0  0  0  0  0  0  0  0
  145.7882   73.7504  219.6362 H   0  0  0  0  0  0  0  0  0  0  0  0
  145.1167   73.2633  221.2478 H   0  0  0  0  0  0  0  0  0  0  0  0
  147.1612   71.7516  219.9036 H   0  0  0  0  0  0  0  0  0  0  0  0
  147.4076   69.3727  219.2542 H   0  0  0  0  0  0  0  0  0  0  0  0
  145.3374   68.0806  218.7357 H   0  0  0  0  0  0  0  0  0  0  0  0
  143.0974   69.1449  218.8738 H   0  0  0  0  0  0  0  0  0  0  0  0
  142.1068   71.6560  218.5161 H   0  0  0  0  0  0  0  0  0  0  0  0
  141.9234   70.9973  220.1974 H   0  0  0  0  0  0  0  0  0  0  0  0
  139.3591   69.0039  226.8581 H   0  0  0  0  0  0  0  0  0  0  0  0
  139.5387   70.0627  229.0713 H   0  0  0  0  0  0  0  0  0  0  0  0
  1  2  2  0
  2  3  1  0
  3  4  2  0
  4  5  1  0
  5  6  1  0
  6  7  1  0
  7  8  1  0
  8  9  1  0
  9 10  1  0
 10 11  1  0
 11 12  1  0
 12 13  2  0
 13 14  1  0
 14 15  1  0
 15 16  1  0
 16 17  1  0
 17 18  1  0
 18 19  2  0
 19 20  1  0
 20 21  2  0
 21 22  1  0
 22 23  2  0
 23 24  1  0
 14 25  2  0
 25 26  1  0
 26 27  1  0
 27 28  1  0
 28 29  1  0
 29 30  1  0
 30 31  2  0
 31 32  1  0
 32 33  2  0
 33 34  1  0
 34 35  2  0
 35 36  1  0
 26 37  2  0
  4 38  1  0
 38 39  2  0
 39  1  1  0
 11  7  1  0
 37 12  1  0
 24 15  1  0
 36 27  1  0
 23 18  1  0
 35 30  1  0
  1 40  1  0
  2 41  1  0
  3 42  1  0
  6 43  1  0
  6 44  1  0
  7 45  1  1
  8 46  1  0
  8 47  1  0
  9 48  1  0
  9 49  1  0
 10 50  1  0
 10 51  1  0
 16 52  1  0
 16 53  1  0
 17 54  1  0
 17 55  1  0
 19 56  1  0
 20 57  1  0
 21 58  1  0
 22 59  1  0
 24 60  1  0
 24 61  1  0
 28 62  1  0
 28 63  1  0
 29 64  1  0
 29 65  1  0
 31 66  1  0
 32 67  1  0
 33 68  1  0
 34 69  1  0
 36 70  1  0
 36 71  1  0
 38 72  1  0
 39 73  1  0
M  END
>  <smiles>  (16) 
c1ccc(OC[C@@H]2CCCN2c2nc(N3CCc4ccccc4C3)nc(N3CCc4ccccc4C3)n2)cc1

>  <score_type>  (16) 
oracle

>  <origin>  (16) 
autodockgpu

>  <m_score__min__energy>  (16) 
-11.19

>  <m_primary>  (16) 
energy

>  <rmsd>  (16) 
5.484438292486439

>  <m_score__min__rmsd>  (16) 
5.484438292486439

>  <meeko>  (16) 
{"free_energy": -10.66, "intermolecular_energy": -12.45, "internal_energy": -1.67, "cluster_size": 29, "cluster_id": 1, "rank_in_cluster": 16}

>  <energy>  (16) 
-10.66

>  <cluster_rmsd>  (16) 
1.88

>  <cluster>  (16) 
1

$$$$

     RDKit          3D

 73 79  0  0  0  0  0  0  0  0999 V2000
  146.0000   72.5830  219.8120 C   0  0  0  0  0  0  0  0  0  0  0  0
  145.4000   72.8450  221.0160 C   0  0  0  0  0  0  0  0  0  0  0  0
  144.3510   73.7280  221.1180 C   0  0  0  0  0  0  0  0  0  0  0  0
  143.8420   74.4030  219.9930 C   0  0  0  0  0  0  0  0  0  0  0  0
  142.8060   75.2460  220.2100 O   0  0  0  0  0  0  0  0  0  0  0  0
  141.6690   75.5540  219.4820 C   0  0  0  0  0  0  0  0  0  0  0  0
  140.5880   76.0650  220.3540 C   0  0  2  0  0  0  0  0  0  0  0  0
  141.1160   77.0670  221.3940 C   0  0  0  0  0  0  0  0  0  0  0  0
  139.9640   77.0940  222.3710 C   0  0  0  0  0  0  0  0  0  0  0  0
  139.2350   75.7560  222.2290 C   0  0  0  0  0  0  0  0  0  0  0  0
  140.1010   75.0510  221.3020 N   0  0  0  0  0  0  0  0  0  0  0  0
  140.3890   73.6650  221.3440 C   0  0  0  0  0  0  0  0  0  0  0  0
  139.9900   72.9900  222.4370 N   0  0  0  0  0  0  0  0  0  0  0  0
  140.2090   71.6620  222.5930 C   0  0  0  0  0  0  0  0  0  0  0  0
  139.7860   70.9490  223.7490 N   0  0  0  0  0  0  0  0  0  0  0  0
  139.2490   69.5970  223.5860 C   0  0  0  0  0  0  0  0  0  0  0  0
  138.5250   69.1320  224.8170 C   0  0  0  0  0  0  0  0  0  0  0  0
  139.4350   69.2970  225.9960 C   0  0  0  0  0  0  0  0  0  0  0  0
  139.6050   68.3020  226.9370 C   0  0  0  0  0  0  0  0  0  0  0  0
  140.4570   68.5040  228.0080 C   0  0  0  0  0  0  0  0  0  0  0  0
  141.1260   69.6860  228.1270 C   0  0  0  0  0  0  0  0  0  0  0  0
  140.9590   70.6990  227.1780 C   0  0  0  0  0  0  0  0  0  0  0  0
  140.1090   70.4980  226.1100 C   0  0  0  0  0  0  0  0  0  0  0  0
  139.8710   71.5140  225.0570 C   0  0  0  0  0  0  0  0  0  0  0  0
  140.8520   71.0360  221.5920 N   0  0  0  0  0  0  0  0  0  0  0  0
  141.2590   71.6690  220.5000 C   0  0  0  0  0  0  0  0  0  0  0  0
  141.9340   70.9450  219.4780 N   0  0  0  0  0  0  0  0  0  0  0  0
  141.7440   71.3500  218.1000 C   0  0  0  0  0  0  0  0  0  0  0  0
  143.0330   71.5720  217.3570 C   0  0  0  0  0  0  0  0  0  0  0  0
  144.0380   70.5350  217.6870 C   0  0  0  0  0  0  0  0  0  0  0  0
  145.1200   70.3780  216.8480 C   0  0  0  0  0  0  0  0  0  0  0  0
  146.1090   69.4460  217.0650 C   0  0  0  0  0  0  0  0  0  0  0  0
  145.9760   68.6470  218.1870 C   0  0  0  0  0  0  0  0  0  0  0  0
  144.8950   68.7780  219.0580 C   0  0  0  0  0  0  0  0  0  0  0  0
  143.9260   69.7280  218.7990 C   0  0  0  0  0  0  0  0  0  0  0  0
  142.8020   69.8190  219.7630 C   0  0  0  0  0  0  0  0  0  0  0  0
  141.0220   72.9890  220.3850 N   0  0  0  0  0  0  0  0  0  0  0  0
  144.4630   74.1180  218.8060 C   0  0  0  0  0  0  0  0  0  0  0  0
  145.5230   73.2290  218.6970 C   0  0  0  0  0  0  0  0  0  0  0  0
  146.8395   71.8758  219.7403 H   0  0  0  0  0  0  0  0  0  0  0  0
  145.7658   72.3376  221.9209 H   0  0  0  0  0  0  0  0  0  0  0  0
  143.8983   73.9114  222.1036 H   0  0  0  0  0  0  0  0  0  0  0  0
  141.9197   76.3225  218.7359 H   0  0  0  0  0  0  0  0  0  0  0  0
  141.3128   74.6351  218.9935 H   0  0  0  0  0  0  0  0  0  0  0  0
  139.8523   76.4443  219.6295 H   0  0  0  0  0  0  0  0  0  0  0  0
  142.0411   76.7081  221.8687 H   0  0  0  0  0  0  0  0  0  0  0  0
  141.3873   78.0503  220.9824 H   0  0  0  0  0  0  0  0  0  0  0  0
  140.3404   77.2135  223.3977 H   0  0  0  0  0  0  0  0  0  0  0  0
  139.2883   77.9366  222.1626 H   0  0  0  0  0  0  0  0  0  0  0  0
  139.1669   75.2313  223.1934 H   0  0  0  0  0  0  0  0  0  0  0  0
  138.1931   75.8471  221.8882 H   0  0  0  0  0  0  0  0  0  0  0  0
  138.5486   69.5920  222.7378 H   0  0  0  0  0  0  0  0  0  0  0  0
  140.0921   68.9136  223.4067 H   0  0  0  0  0  0  0  0  0  0  0  0
  137.6163   69.7346  224.9627 H   0  0  0  0  0  0  0  0  0  0  0  0
  138.2376   68.0758  224.7082 H   0  0  0  0  0  0  0  0  0  0  0  0
  139.0638   67.3497  226.8356 H   0  0  0  0  0  0  0  0  0  0  0  0
  140.5942   67.7138  228.7609 H   0  0  0  0  0  0  0  0  0  0  0  0
  141.8042   69.8443  228.9785 H   0  0  0  0  0  0  0  0  0  0  0  0
  141.5018   71.6501  227.2821 H   0  0  0  0  0  0  0  0  0  0  0  0
  138.9265   72.0331  225.2772 H   0  0  0  0  0  0  0  0  0  0  0  0
  140.7282   72.2033  225.0637 H   0  0  0  0  0  0  0  0  0  0  0  0
  141.1741   70.5648  217.5817 H   0  0  0  0  0  0  0  0  0  0  0  0
  141.2098   72.3115  218.1159 H   0  0  0  0  0  0  0  0  0  0  0  0
  142.8316   71.5427  216.2760 H   0  0  0  0  0  0  0  0  0  0  0  0
  143.4377   72.5505  217.6548 H   0  0  0  0  0  0  0  0  0  0  0  0
  145.1967   71.0279  215.9638 H   0  0  0  0  0  0  0  0  0  0  0  0
  146.9634   69.3413  216.3801 H   0  0  0  0  0  0  0  0  0  0  0  0
  146.7438   67.8880  218.3975 H   0  0  0  0  0  0  0  0  0  0  0  0
  144.8145   68.1306  219.9436 H   0  0  0  0  0  0  0  0  0  0  0  0
  142.2116   68.8925  219.7091 H   0  0  0  0  0  0  0  0  0  0  0  0
  143.2260   69.9617  220.7679 H   0  0  0  0  0  0  0  0  0  0  0  0
  144.1040   74.6182  217.8945 H   0  0  0  0  0  0  0  0  0  0  0  0
  145.9825   73.0410  217.7154 H   0  0  0  0  0  0  0  0  0  0  0  0
  1  2  2  0
  2  3  1  0
  3  4  2  0
  4  5  1  0
  5  6  1  0
  6  7  1  0
  7  8  1  0
  8  9  1  0
  9 10  1  0
 10 11  1  0
 11 12  1  0
 12 13  2  0
 13 14  1  0
 14 15  1  0
 15 16  1  0
 16 17  1  0
 17 18  1  0
 18 19  2  0
 19 20  1  0
 20 21  2  0
 21 22  1  0
 22 23  2  0
 23 24  1  0
 14 25  2  0
 25 26  1  0
 26 27  1  0
 27 28  1  0
 28 29  1  0
 29 30  1  0
 30 31  2  0
 31 32  1  0
 32 33  2  0
 33 34  1  0
 34 35  2  0
 35 36  1  0
 26 37  2  0
  4 38  1  0
 38 39  2  0
 39  1  1  0
 11  7  1  0
 37 12  1  0
 24 15  1  0
 36 27  1  0
 23 18  1  0
 35 30  1  0
  1 40  1  0
  2 41  1  0
  3 42  1  0
  6 43  1  0
  6 44  1  0
  7 45  1  6
  8 46  1  0
  8 47  1  0
  9 48  1  0
  9 49  1  0
 10 50  1  0
 10 51  1  0
 16 52  1  0
 16 53  1  0
 17 54  1  0
 17 55  1  0
 19 56  1  0
 20 57  1  0
 21 58  1  0
 22 59  1  0
 24 60  1  0
 24 61  1  0
 28 62  1  0
 28 63  1  0
 29 64  1  0
 29 65  1  0
 31 66  1  0
 32 67  1  0
 33 68  1  0
 34 69  1  0
 36 70  1  0
 36 71  1  0
 38 72  1  0
 39 73  1  0
M  END
>  <smiles>  (17) 
c1ccc(OC[C@@H]2CCCN2c2nc(N3CCc4ccccc4C3)nc(N3CCc4ccccc4C3)n2)cc1

>  <score_type>  (17) 
oracle

>  <origin>  (17) 
autodockgpu

>  <m_score__min__energy>  (17) 
-11.19

>  <m_primary>  (17) 
energy

>  <rmsd>  (17) 
11.348017931058449

>  <m_score__min__rmsd>  (17) 
11.348017931058449

>  <meeko>  (17) 
{"free_energy": -8.67, "intermolecular_energy": -10.46, "internal_energy": -2.96, "cluster_size": 29, "cluster_id": 1, "rank_in_cluster": 28}

>  <energy>  (17) 
-10.63

>  <cluster_rmsd>  (17) 
1.91

>  <cluster>  (17) 
1

$$$$

     RDKit          3D

 73 79  0  0  0  0  0  0  0  0999 V2000
  140.9910   71.6920  228.3650 C   0  0  0  0  0  0  0  0  0  0  0  0
  141.3900   72.2900  227.1980 C   0  0  0  0  0  0  0  0  0  0  0  0
  141.1330   71.7180  225.9740 C   0  0  0  0  0  0  0  0  0  0  0  0
  140.4480   70.4940  225.8610 C   0  0  0  0  0  0  0  0  0  0  0  0
  140.2480   70.0250  224.6070 O   0  0  0  0  0  0  0  0  0  0  0  0
  139.9260   70.6400  223.4080 C   0  0  0  0  0  0  0  0  0  0  0  0
  138.5300   71.1290  223.4080 C   0  0  2  0  0  0  0  0  0  0  0  0
  137.6230   70.2770  222.5030 C   0  0  0  0  0  0  0  0  0  0  0  0
  136.4340   71.1950  222.3490 C   0  0  0  0  0  0  0  0  0  0  0  0
  136.9470   72.6210  222.5630 C   0  0  0  0  0  0  0  0  0  0  0  0
  138.3770   72.3990  222.6820 N   0  0  0  0  0  0  0  0  0  0  0  0
  139.3820   73.2620  222.1810 C   0  0  0  0  0  0  0  0  0  0  0  0
  140.4650   72.6860  221.6310 N   0  0  0  0  0  0  0  0  0  0  0  0
  141.4920   73.4050  221.1190 C   0  0  0  0  0  0  0  0  0  0  0  0
  142.6380   72.7940  220.5370 N   0  0  0  0  0  0  0  0  0  0  0  0
  142.6470   71.3410  220.3560 C   0  0  0  0  0  0  0  0  0  0  0  0
  144.0290   70.8220  220.0800 C   0  0  0  0  0  0  0  0  0  0  0  0
  144.6060   71.5910  218.9310 C   0  0  0  0  0  0  0  0  0  0  0  0
  145.2460   70.9680  217.8780 C   0  0  0  0  0  0  0  0  0  0  0  0
  145.7620   71.7240  216.8400 C   0  0  0  0  0  0  0  0  0  0  0  0
  145.6340   73.0820  216.8630 C   0  0  0  0  0  0  0  0  0  0  0  0
  144.9880   73.7200  217.9250 C   0  0  0  0  0  0  0  0  0  0  0  0
  144.4730   72.9660  218.9600 C   0  0  0  0  0  0  0  0  0  0  0  0
  143.7730   73.5560  220.1260 C   0  0  0  0  0  0  0  0  0  0  0  0
  141.3810   74.7430  221.1830 N   0  0  0  0  0  0  0  0  0  0  0  0
  140.3270   75.3470  221.7170 C   0  0  0  0  0  0  0  0  0  0  0  0
  140.2730   76.7680  221.7520 N   0  0  0  0  0  0  0  0  0  0  0  0
  138.9950   77.4070  221.9910 C   0  0  0  0  0  0  0  0  0  0  0  0
  139.0270   78.4140  223.1070 C   0  0  0  0  0  0  0  0  0  0  0  0
  140.2630   79.2310  223.0700 C   0  0  0  0  0  0  0  0  0  0  0  0
  140.2930   80.4110  223.7800 C   0  0  0  0  0  0  0  0  0  0  0  0
  141.3900   81.2410  223.8120 C   0  0  0  0  0  0  0  0  0  0  0  0
  142.4960   80.8380  223.0850 C   0  0  0  0  0  0  0  0  0  0  0  0
  142.5020   79.6490  222.3550 C   0  0  0  0  0  0  0  0  0  0  0  0
  141.3760   78.8480  222.3520 C   0  0  0  0  0  0  0  0  0  0  0  0
  141.4460   77.5980  221.5570 C   0  0  0  0  0  0  0  0  0  0  0  0
  139.3290   74.5930  222.2150 N   0  0  0  0  0  0  0  0  0  0  0  0
  140.0630   69.9240  227.0460 C   0  0  0  0  0  0  0  0  0  0  0  0
  140.3210   70.4950  228.2840 C   0  0  0  0  0  0  0  0  0  0  0  0
  141.2013   72.1573  229.3393 H   0  0  0  0  0  0  0  0  0  0  0  0
  141.9277   73.2487  227.2414 H   0  0  0  0  0  0  0  0  0  0  0  0
  141.4712   72.2298  225.0610 H   0  0  0  0  0  0  0  0  0  0  0  0
  140.6034   71.4922  223.2501 H   0  0  0  0  0  0  0  0  0  0  0  0
  140.0329   69.9004  222.6008 H   0  0  0  0  0  0  0  0  0  0  0  0
  138.2821   71.1497  224.4795 H   0  0  0  0  0  0  0  0  0  0  0  0
  138.1002   70.0667  221.5345 H   0  0  0  0  0  0  0  0  0  0  0  0
  137.3814   69.2828  222.9070 H   0  0  0  0  0  0  0  0  0  0  0  0
  136.0053   71.0939  221.3410 H   0  0  0  0  0  0  0  0  0  0  0  0
  135.6457   70.9456  223.0745 H   0  0  0  0  0  0  0  0  0  0  0  0
  136.7106   73.2663  221.7041 H   0  0  0  0  0  0  0  0  0  0  0  0
  136.4992   73.1340  223.4269 H   0  0  0  0  0  0  0  0  0  0  0  0
  142.2644   70.8658  221.2713 H   0  0  0  0  0  0  0  0  0  0  0  0
  142.0122   71.1003  219.4905 H   0  0  0  0  0  0  0  0  0  0  0  0
  144.6604   70.9565  220.9706 H   0  0  0  0  0  0  0  0  0  0  0  0
  143.9865   69.7510  219.8327 H   0  0  0  0  0  0  0  0  0  0  0  0
  145.3456   69.8726  217.8642 H   0  0  0  0  0  0  0  0  0  0  0  0
  146.2734   71.2318  215.9996 H   0  0  0  0  0  0  0  0  0  0  0  0
  146.0438   73.6812  216.0365 H   0  0  0  0  0  0  0  0  0  0  0  0
  144.8905   74.8156  217.9361 H   0  0  0  0  0  0  0  0  0  0  0  0
  144.4797   73.6143  220.9669 H   0  0  0  0  0  0  0  0  0  0  0  0
  143.4114   74.5504  219.8252 H   0  0  0  0  0  0  0  0  0  0  0  0
  138.6841   77.9194  221.0686 H   0  0  0  0  0  0  0  0  0  0  0  0
  138.2891   76.6174  222.2880 H   0  0  0  0  0  0  0  0  0  0  0  0
  138.1563   79.0795  223.0122 H   0  0  0  0  0  0  0  0  0  0  0  0
  139.0033   77.8693  224.0624 H   0  0  0  0  0  0  0  0  0  0  0  0
  139.3977   80.7036  224.3482 H   0  0  0  0  0  0  0  0  0  0  0  0
  141.3877   82.1786  224.3872 H   0  0  0  0  0  0  0  0  0  0  0  0
  143.3948   81.4721  223.0825 H   0  0  0  0  0  0  0  0  0  0  0  0
  143.3956   79.3517  221.7866 H   0  0  0  0  0  0  0  0  0  0  0  0
  141.5246   77.8581  220.4911 H   0  0  0  0  0  0  0  0  0  0  0  0
  142.3261   77.0293  221.8918 H   0  0  0  0  0  0  0  0  0  0  0  0
  139.5227   68.9664  227.0143 H   0  0  0  0  0  0  0  0  0  0  0  0
  139.9886   69.9886  229.2022 H   0  0  0  0  0  0  0  0  0  0  0  0
  1  2  2  0
  2  3  1  0
  3  4  2  0
  4  5  1  0
  5  6  1  0
  6  7  1  0
  7  8  1  0
  8  9  1  0
  9 10  1  0
 10 11  1  0
 11 12  1  0
 12 13  2  0
 13 14  1  0
 14 15  1  0
 15 16  1  0
 16 17  1  0
 17 18  1  0
 18 19  2  0
 19 20  1  0
 20 21  2  0
 21 22  1  0
 22 23  2  0
 23 24  1  0
 14 25  2  0
 25 26  1  0
 26 27  1  0
 27 28  1  0
 28 29  1  0
 29 30  1  0
 30 31  2  0
 31 32  1  0
 32 33  2  0
 33 34  1  0
 34 35  2  0
 35 36  1  0
 26 37  2  0
  4 38  1  0
 38 39  2  0
 39  1  1  0
 11  7  1  0
 37 12  1  0
 24 15  1  0
 36 27  1  0
 23 18  1  0
 35 30  1  0
  1 40  1  0
  2 41  1  0
  3 42  1  0
  6 43  1  0
  6 44  1  0
  7 45  1  1
  8 46  1  0
  8 47  1  0
  9 48  1  0
  9 49  1  0
 10 50  1  0
 10 51  1  0
 16 52  1  0
 16 53  1  0
 17 54  1  0
 17 55  1  0
 19 56  1  0
 20 57  1  0
 21 58  1  0
 22 59  1  0
 24 60  1  0
 24 61  1  0
 28 62  1  0
 28 63  1  0
 29 64  1  0
 29 65  1  0
 31 66  1  0
 32 67  1  0
 33 68  1  0
 34 69  1  0
 36 70  1  0
 36 71  1  0
 38 72  1  0
 39 73  1  0
M  END
>  <smiles>  (18) 
c1ccc(OC[C@@H]2CCCN2c2nc(N3CCc4ccccc4C3)nc(N3CCc4ccccc4C3)n2)cc1

>  <score_type>  (18) 
oracle

>  <origin>  (18) 
autodockgpu

>  <m_score__min__energy>  (18) 
-11.19

>  <m_primary>  (18) 
energy

>  <rmsd>  (18) 
7.866719722561536

>  <m_score__min__rmsd>  (18) 
7.866719722561536

>  <meeko>  (18) 
{"free_energy": -10.05, "intermolecular_energy": -11.84, "internal_energy": -1.53, "cluster_size": 3, "cluster_id": 3, "rank_in_cluster": 2}

>  <energy>  (18) 
-10.58

>  <cluster_rmsd>  (18) 
0.79

>  <cluster>  (18) 
1

$$$$

     RDKit          3D

 73 79  0  0  0  0  0  0  0  0999 V2000
  142.4190   80.6120  223.8960 C   0  0  0  0  0  0  0  0  0  0  0  0
  141.9180   79.3800  224.2280 C   0  0  0  0  0  0  0  0  0  0  0  0
  141.5620   78.4680  223.2620 C   0  0  0  0  0  0  0  0  0  0  0  0
  141.6940   78.7540  221.8910 C   0  0  0  0  0  0  0  0  0  0  0  0
  141.3150   77.7820  221.0290 O   0  0  0  0  0  0  0  0  0  0  0  0
  140.9140   76.4670  221.2030 C   0  0  0  0  0  0  0  0  0  0  0  0
  139.4390   76.3470  221.2160 C   0  0  2  0  0  0  0  0  0  0  0  0
  138.8140   77.0710  222.4200 C   0  0  0  0  0  0  0  0  0  0  0  0
  137.4330   76.4600  222.4330 C   0  0  0  0  0  0  0  0  0  0  0  0
  137.5520   75.0890  221.7630 C   0  0  0  0  0  0  0  0  0  0  0  0
  138.9860   74.9910  221.5570 N   0  0  0  0  0  0  0  0  0  0  0  0
  139.7500   73.8030  221.6760 C   0  0  0  0  0  0  0  0  0  0  0  0
  139.4770   73.0020  222.7210 N   0  0  0  0  0  0  0  0  0  0  0  0
  140.1390   71.8410  222.9420 C   0  0  0  0  0  0  0  0  0  0  0  0
  139.8490   70.9940  224.0470 N   0  0  0  0  0  0  0  0  0  0  0  0
  139.5510   69.5840  223.7940 C   0  0  0  0  0  0  0  0  0  0  0  0
  138.9220   68.9240  224.9890 C   0  0  0  0  0  0  0  0  0  0  0  0
  139.7960   69.1660  226.1820 C   0  0  0  0  0  0  0  0  0  0  0  0
  140.1380   68.1560  227.0590 C   0  0  0  0  0  0  0  0  0  0  0  0
  140.9490   68.4330  228.1460 C   0  0  0  0  0  0  0  0  0  0  0  0
  141.4060   69.7020  228.3430 C   0  0  0  0  0  0  0  0  0  0  0  0
  141.0640   70.7300  227.4600 C   0  0  0  0  0  0  0  0  0  0  0  0
  140.2570   70.4550  226.3760 C   0  0  0  0  0  0  0  0  0  0  0  0
  139.8430   71.4800  225.3890 C   0  0  0  0  0  0  0  0  0  0  0  0
  141.0970   71.5170  222.0550 N   0  0  0  0  0  0  0  0  0  0  0  0
  141.3930   72.2820  221.0130 C   0  0  0  0  0  0  0  0  0  0  0  0
  142.4180   71.8790  220.1130 N   0  0  0  0  0  0  0  0  0  0  0  0
  143.5060   72.7980  219.8450 C   0  0  0  0  0  0  0  0  0  0  0  0
  144.8680   72.1890  220.0370 C   0  0  0  0  0  0  0  0  0  0  0  0
  144.9260   70.8060  219.5100 C   0  0  0  0  0  0  0  0  0  0  0  0
  146.1610   70.2420  219.2810 C   0  0  0  0  0  0  0  0  0  0  0  0
  146.3250   68.9650  218.7940 C   0  0  0  0  0  0  0  0  0  0  0  0
  145.1730   68.2460  218.5330 C   0  0  0  0  0  0  0  0  0  0  0  0
  143.9050   68.7850  218.7520 C   0  0  0  0  0  0  0  0  0  0  0  0
  143.7900   70.0710  219.2430 C   0  0  0  0  0  0  0  0  0  0  0  0
  142.4160   70.5870  219.4550 C   0  0  0  0  0  0  0  0  0  0  0  0
  140.7100   73.4280  220.8320 N   0  0  0  0  0  0  0  0  0  0  0  0
  142.1980   79.9940  221.5950 C   0  0  0  0  0  0  0  0  0  0  0  0
  142.5590   80.9190  222.5650 C   0  0  0  0  0  0  0  0  0  0  0  0
  142.7014   81.3354  224.6751 H   0  0  0  0  0  0  0  0  0  0  0  0
  141.7982   79.1153  225.2889 H   0  0  0  0  0  0  0  0  0  0  0  0
  141.1638   77.4898  223.5694 H   0  0  0  0  0  0  0  0  0  0  0  0
  141.3148   75.8590  220.3786 H   0  0  0  0  0  0  0  0  0  0  0  0
  141.2975   76.1145  222.1719 H   0  0  0  0  0  0  0  0  0  0  0  0
  139.1592   76.7147  220.2177 H   0  0  0  0  0  0  0  0  0  0  0  0
  139.3605   76.8557  223.3500 H   0  0  0  0  0  0  0  0  0  0  0  0
  138.8254   78.1685  222.3472 H   0  0  0  0  0  0  0  0  0  0  0  0
  137.0784   76.3466  223.4681 H   0  0  0  0  0  0  0  0  0  0  0  0
  136.7127   77.0990  221.9011 H   0  0  0  0  0  0  0  0  0  0  0  0
  137.1848   74.2872  222.4205 H   0  0  0  0  0  0  0  0  0  0  0  0
  136.9586   74.9867  220.8424 H   0  0  0  0  0  0  0  0  0  0  0  0
  138.8582   69.5136  222.9425 H   0  0  0  0  0  0  0  0  0  0  0  0
  140.4977   69.0678  223.5768 H   0  0  0  0  0  0  0  0  0  0  0  0
  137.9245   69.3523  225.1670 H   0  0  0  0  0  0  0  0  0  0  0  0
  138.8184   67.8434  224.8112 H   0  0  0  0  0  0  0  0  0  0  0  0
  139.7669   67.1337  226.8943 H   0  0  0  0  0  0  0  0  0  0  0  0
  141.2237   67.6321  228.8482 H   0  0  0  0  0  0  0  0  0  0  0  0
  142.0514   69.9195  229.2068 H   0  0  0  0  0  0  0  0  0  0  0  0
  141.4359   71.7514  227.6285 H   0  0  0  0  0  0  0  0  0  0  0  0
  138.8247   71.8144  225.6365 H   0  0  0  0  0  0  0  0  0  0  0  0
  140.5696   72.3040  225.4447 H   0  0  0  0  0  0  0  0  0  0  0  0
  143.4223   73.1421  218.8036 H   0  0  0  0  0  0  0  0  0  0  0  0
  143.4166   73.6238  220.5662 H   0  0  0  0  0  0  0  0  0  0  0  0
  145.6116   72.8038  219.5088 H   0  0  0  0  0  0  0  0  0  0  0  0
  145.0809   72.1554  221.1157 H   0  0  0  0  0  0  0  0  0  0  0  0
  147.0586   70.8399  219.4974 H   0  0  0  0  0  0  0  0  0  0  0  0
  147.3236   68.5374  218.6209 H   0  0  0  0  0  0  0  0  0  0  0  0
  145.2587   67.2214  218.1421 H   0  0  0  0  0  0  0  0  0  0  0  0
  143.0047   68.1911  218.5356 H   0  0  0  0  0  0  0  0  0  0  0  0
  141.9190   70.6862  218.4787 H   0  0  0  0  0  0  0  0  0  0  0  0
  141.8816   69.8761  220.1023 H   0  0  0  0  0  0  0  0  0  0  0  0
  142.3224   80.2694  220.5373 H   0  0  0  0  0  0  0  0  0  0  0  0
  142.9580   81.8998  222.2668 H   0  0  0  0  0  0  0  0  0  0  0  0
  1  2  2  0
  2  3  1  0
  3  4  2  0
  4  5  1  0
  5  6  1  0
  6  7  1  0
  7  8  1  0
  8  9  1  0
  9 10  1  0
 10 11  1  0
 11 12  1  0
 12 13  2  0
 13 14  1  0
 14 15  1  0
 15 16  1  0
 16 17  1  0
 17 18  1  0
 18 19  2  0
 19 20  1  0
 20 21  2  0
 21 22  1  0
 22 23  2  0
 23 24  1  0
 14 25  2  0
 25 26  1  0
 26 27  1  0
 27 28  1  0
 28 29  1  0
 29 30  1  0
 30 31  2  0
 31 32  1  0
 32 33  2  0
 33 34  1  0
 34 35  2  0
 35 36  1  0
 26 37  2  0
  4 38  1  0
 38 39  2  0
 39  1  1  0
 11  7  1  0
 37 12  1  0
 24 15  1  0
 36 27  1  0
 23 18  1  0
 35 30  1  0
  1 40  1  0
  2 41  1  0
  3 42  1  0
  6 43  1  0
  6 44  1  0
  7 45  1  6
  8 46  1  0
  8 47  1  0
  9 48  1  0
  9 49  1  0
 10 50  1  0
 10 51  1  0
 16 52  1  0
 16 53  1  0
 17 54  1  0
 17 55  1  0
 19 56  1  0
 20 57  1  0
 21 58  1  0
 22 59  1  0
 24 60  1  0
 24 61  1  0
 28 62  1  0
 28 63  1  0
 29 64  1  0
 29 65  1  0
 31 66  1  0
 32 67  1  0
 33 68  1  0
 34 69  1  0
 36 70  1  0
 36 71  1  0
 38 72  1  0
 39 73  1  0
M  END
>  <smiles>  (19) 
c1ccc(OC[C@@H]2CCCN2c2nc(N3CCc4ccccc4C3)nc(N3CCc4ccccc4C3)n2)cc1

>  <score_type>  (19) 
oracle

>  <origin>  (19) 
autodockgpu

>  <m_score__min__energy>  (19) 
-11.19

>  <m_primary>  (19) 
energy

>  <rmsd>  (19) 
11.500357902315523

>  <m_score__min__rmsd>  (19) 
11.500357902315523

>  <meeko>  (19) 
{"free_energy": -10.55, "intermolecular_energy": -12.34, "internal_energy": -1.48, "cluster_size": 29, "cluster_id": 1, "rank_in_cluster": 20}

>  <energy>  (19) 
-10.56

>  <cluster_rmsd>  (19) 
1.85

>  <cluster>  (19) 
1

$$$$

     RDKit          3D

 73 79  0  0  0  0  0  0  0  0999 V2000
  141.3660   71.5590  228.4940 C   0  0  0  0  0  0  0  0  0  0  0  0
  141.3910   72.3540  227.3780 C   0  0  0  0  0  0  0  0  0  0  0  0
  141.0920   71.8500  226.1330 C   0  0  0  0  0  0  0  0  0  0  0  0
  140.7460   70.5000  225.9460 C   0  0  0  0  0  0  0  0  0  0  0  0
  140.4690   70.1150  224.6780 O   0  0  0  0  0  0  0  0  0  0  0  0
  140.2240   70.8170  223.5090 C   0  0  0  0  0  0  0  0  0  0  0  0
  138.7930   71.1730  223.3800 C   0  0  2  0  0  0  0  0  0  0  0  0
  138.0270   70.1650  222.5070 C   0  0  0  0  0  0  0  0  0  0  0  0
  136.7750   70.9520  222.1980 C   0  0  0  0  0  0  0  0  0  0  0  0
  137.1470   72.4320  222.3090 C   0  0  0  0  0  0  0  0  0  0  0  0
  138.5800   72.3550  222.5320 N   0  0  0  0  0  0  0  0  0  0  0  0
  139.5380   73.2600  222.0130 C   0  0  0  0  0  0  0  0  0  0  0  0
  140.6060   72.7310  221.3910 N   0  0  0  0  0  0  0  0  0  0  0  0
  141.5880   73.4930  220.8540 C   0  0  0  0  0  0  0  0  0  0  0  0
  142.7170   72.9330  220.1950 N   0  0  0  0  0  0  0  0  0  0  0  0
  144.0460   73.4720  220.4910 C   0  0  0  0  0  0  0  0  0  0  0  0
  145.0620   73.0400  219.4730 C   0  0  0  0  0  0  0  0  0  0  0  0
  145.0150   71.5470  219.3560 C   0  0  0  0  0  0  0  0  0  0  0  0
  146.1580   70.7730  219.3550 C   0  0  0  0  0  0  0  0  0  0  0  0
  146.0600   69.3980  219.2440 C   0  0  0  0  0  0  0  0  0  0  0  0
  144.8320   68.8140  219.1380 C   0  0  0  0  0  0  0  0  0  0  0  0
  143.6690   69.5900  219.1390 C   0  0  0  0  0  0  0  0  0  0  0  0
  143.7680   70.9610  219.2500 C   0  0  0  0  0  0  0  0  0  0  0  0
  142.5900   71.8630  219.2590 C   0  0  0  0  0  0  0  0  0  0  0  0
  141.4480   74.8260  220.9720 N   0  0  0  0  0  0  0  0  0  0  0  0
  140.4080   75.3830  221.5780 C   0  0  0  0  0  0  0  0  0  0  0  0
  140.3220   76.8000  221.6660 N   0  0  0  0  0  0  0  0  0  0  0  0
  139.0350   77.4000  221.9570 C   0  0  0  0  0  0  0  0  0  0  0  0
  139.0700   78.3660  223.1080 C   0  0  0  0  0  0  0  0  0  0  0  0
  140.2860   79.2130  223.0730 C   0  0  0  0  0  0  0  0  0  0  0  0
  140.3040   80.3670  223.8250 C   0  0  0  0  0  0  0  0  0  0  0  0
  141.3830   81.2220  223.8630 C   0  0  0  0  0  0  0  0  0  0  0  0
  142.4800   80.8720  223.0960 C   0  0  0  0  0  0  0  0  0  0  0  0
  142.4970   79.7110  222.3240 C   0  0  0  0  0  0  0  0  0  0  0  0
  141.3910   78.8840  222.3170 C   0  0  0  0  0  0  0  0  0  0  0  0
  141.4700   77.6650  221.4750 C   0  0  0  0  0  0  0  0  0  0  0  0
  139.4540   74.5870  222.0970 N   0  0  0  0  0  0  0  0  0  0  0  0
  140.7290   69.7350  227.0820 C   0  0  0  0  0  0  0  0  0  0  0  0
  141.0310   70.2350  228.3410 C   0  0  0  0  0  0  0  0  0  0  0  0
  141.6075   71.9696  229.4855 H   0  0  0  0  0  0  0  0  0  0  0  0
  141.6556   73.4169  227.4796 H   0  0  0  0  0  0  0  0  0  0  0  0
  141.1245   72.5205  225.2616 H   0  0  0  0  0  0  0  0  0  0  0  0
  140.8229   71.7397  223.5139 H   0  0  0  0  0  0  0  0  0  0  0  0
  140.4985   70.1766  222.6578 H   0  0  0  0  0  0  0  0  0  0  0  0
  138.4720   71.2642  224.4282 H   0  0  0  0  0  0  0  0  0  0  0  0
  138.5847   69.9159  221.5922 H   0  0  0  0  0  0  0  0  0  0  0  0
  137.8463   69.1919  222.9870 H   0  0  0  0  0  0  0  0  0  0  0  0
  136.4257   70.7243  221.1801 H   0  0  0  0  0  0  0  0  0  0  0  0
  135.9639   70.6947  222.8951 H   0  0  0  0  0  0  0  0  0  0  0  0
  136.9134   72.9756  221.3817 H   0  0  0  0  0  0  0  0  0  0  0  0
  136.5997   72.9741  223.0942 H   0  0  0  0  0  0  0  0  0  0  0  0
  143.9917   74.5706  220.4960 H   0  0  0  0  0  0  0  0  0  0  0  0
  144.3603   73.0874  221.4725 H   0  0  0  0  0  0  0  0  0  0  0  0
  144.8284   73.4957  218.4995 H   0  0  0  0  0  0  0  0  0  0  0  0
  146.0668   73.3615  219.7844 H   0  0  0  0  0  0  0  0  0  0  0  0
  147.1457   71.2494  219.4424 H   0  0  0  0  0  0  0  0  0  0  0  0
  146.9686   68.7779  219.2412 H   0  0  0  0  0  0  0  0  0  0  0  0
  144.7558   67.7201  219.0507 H   0  0  0  0  0  0  0  0  0  0  0  0
  142.6828   69.1107  219.0519 H   0  0  0  0  0  0  0  0  0  0  0  0
  142.4670   72.2897  218.2526 H   0  0  0  0  0  0  0  0  0  0  0  0
  141.7177   71.2638  219.5590 H   0  0  0  0  0  0  0  0  0  0  0  0
  138.6913   77.9381  221.0613 H   0  0  0  0  0  0  0  0  0  0  0  0
  138.3543   76.5837  222.2404 H   0  0  0  0  0  0  0  0  0  0  0  0
  138.1823   79.0137  223.0576 H   0  0  0  0  0  0  0  0  0  0  0  0
  139.0811   77.7867  224.0430 H   0  0  0  0  0  0  0  0  0  0  0  0
  139.4153   80.6172  224.4229 H   0  0  0  0  0  0  0  0  0  0  0  0
  141.3731   82.1375  224.4728 H   0  0  0  0  0  0  0  0  0  0  0  0
  143.3632   81.5278  223.0952 H   0  0  0  0  0  0  0  0  0  0  0  0
  143.3840   79.4559  221.7255 H   0  0  0  0  0  0  0  0  0  0  0  0
  141.5168   77.9655  220.4179 H   0  0  0  0  0  0  0  0  0  0  0  0
  142.3705   77.1058  221.7688 H   0  0  0  0  0  0  0  0  0  0  0  0
  140.4628   68.6715  226.9920 H   0  0  0  0  0  0  0  0  0  0  0  0
  141.0022   69.5708  229.2173 H   0  0  0  0  0  0  0  0  0  0  0  0
  1  2  2  0
  2  3  1  0
  3  4  2  0
  4  5  1  0
  5  6  1  0
  6  7  1  0
  7  8  1  0
  8  9  1  0
  9 10  1  0
 10 11  1  0
 11 12  1  0
 12 13  2  0
 13 14  1  0
 14 15  1  0
 15 16  1  0
 16 17  1  0
 17 18  1  0
 18 19  2  0
 19 20  1  0
 20 21  2  0
 21 22  1  0
 22 23  2  0
 23 24  1  0
 14 25  2  0
 25 26  1  0
 26 27  1  0
 27 28  1  0
 28 29  1  0
 29 30  1  0
 30 31  2  0
 31 32  1  0
 32 33  2  0
 33 34  1  0
 34 35  2  0
 35 36  1  0
 26 37  2  0
  4 38  1  0
 38 39  2  0
 39  1  1  0
 11  7  1  0
 37 12  1  0
 24 15  1  0
 36 27  1  0
 23 18  1  0
 35 30  1  0
  1 40  1  0
  2 41  1  0
  3 42  1  0
  6 43  1  0
  6 44  1  0
  7 45  1  1
  8 46  1  0
  8 47  1  0
  9 48  1  0
  9 49  1  0
 10 50  1  0
 10 51  1  0
 16 52  1  0
 16 53  1  0
 17 54  1  0
 17 55  1  0
 19 56  1  0
 20 57  1  0
 21 58  1  0
 22 59  1  0
 24 60  1  0
 24 61  1  0
 28 62  1  0
 28 63  1  0
 29 64  1  0
 29 65  1  0
 31 66  1  0
 32 67  1  0
 33 68  1  0
 34 69  1  0
 36 70  1  0
 36 71  1  0
 38 72  1  0
 39 73  1  0
M  END
>  <smiles>  (20) 
c1ccc(OC[C@@H]2CCCN2c2nc(N3CCc4ccccc4C3)nc(N3CCc4ccccc4C3)n2)cc1

>  <score_type>  (20) 
oracle

>  <origin>  (20) 
autodockgpu

>  <m_score__min__energy>  (20) 
-11.19

>  <m_primary>  (20) 
energy

>  <rmsd>  (20) 
9.537392772482866

>  <m_score__min__rmsd>  (20) 
9.537392772482866

>  <meeko>  (20) 
{"free_energy": -10.56, "intermolecular_energy": -12.35, "internal_energy": -1.53, "cluster_size": 29, "cluster_id": 1, "rank_in_cluster": 19}

>  <energy>  (20) 
-10.55

>  <cluster_rmsd>  (20) 
0.8

>  <cluster>  (20) 
1

$$$$

     RDKit          3D

 73 79  0  0  0  0  0  0  0  0999 V2000
  141.9560   81.3430  223.5230 C   0  0  0  0  0  0  0  0  0  0  0  0
  142.8770   80.4140  223.1140 C   0  0  0  0  0  0  0  0  0  0  0  0
  142.5330   79.0940  222.9360 C   0  0  0  0  0  0  0  0  0  0  0  0
  141.2230   78.6340  223.1620 C   0  0  0  0  0  0  0  0  0  0  0  0
  140.9980   77.3170  222.9530 O   0  0  0  0  0  0  0  0  0  0  0  0
  141.0930   76.5080  221.8320 C   0  0  0  0  0  0  0  0  0  0  0  0
  139.7900   76.3850  221.1410 C   0  0  2  0  0  0  0  0  0  0  0  0
  138.6580   77.0750  221.9220 C   0  0  0  0  0  0  0  0  0  0  0  0
  137.4450   76.4610  221.2640 C   0  0  0  0  0  0  0  0  0  0  0  0
  137.8880   75.1090  220.6980 C   0  0  0  0  0  0  0  0  0  0  0  0
  139.2490   75.0190  221.1950 N   0  0  0  0  0  0  0  0  0  0  0  0
  139.8820   73.8290  221.6340 C   0  0  0  0  0  0  0  0  0  0  0  0
  140.9110   73.3770  220.8990 N   0  0  0  0  0  0  0  0  0  0  0  0
  141.5950   72.2510  221.2170 C   0  0  0  0  0  0  0  0  0  0  0  0
  142.6850   71.7730  220.4380 N   0  0  0  0  0  0  0  0  0  0  0  0
  143.9500   72.5080  220.4710 C   0  0  0  0  0  0  0  0  0  0  0  0
  144.8600   72.1030  219.3460 C   0  0  0  0  0  0  0  0  0  0  0  0
  145.0110   70.6130  219.3680 C   0  0  0  0  0  0  0  0  0  0  0  0
  146.2420   69.9970  219.2520 C   0  0  0  0  0  0  0  0  0  0  0  0
  146.3270   68.6170  219.2790 C   0  0  0  0  0  0  0  0  0  0  0  0
  145.1940   67.8720  219.4210 C   0  0  0  0  0  0  0  0  0  0  0  0
  143.9450   68.4860  219.5390 C   0  0  0  0  0  0  0  0  0  0  0  0
  143.8590   69.8630  219.5130 C   0  0  0  0  0  0  0  0  0  0  0  0
  142.5790   70.6010  219.6310 C   0  0  0  0  0  0  0  0  0  0  0  0
  141.1930   71.5950  222.3200 N   0  0  0  0  0  0  0  0  0  0  0  0
  140.1820   72.0120  223.0700 C   0  0  0  0  0  0  0  0  0  0  0  0
  139.8100   71.2690  224.2250 N   0  0  0  0  0  0  0  0  0  0  0  0
  138.8890   70.1610  224.0690 C   0  0  0  0  0  0  0  0  0  0  0  0
  139.3860   68.8780  224.6760 C   0  0  0  0  0  0  0  0  0  0  0  0
  140.0420   69.1120  225.9840 C   0  0  0  0  0  0  0  0  0  0  0  0
  140.2290   68.0380  226.8260 C   0  0  0  0  0  0  0  0  0  0  0  0
  140.8280   68.1470  228.0600 C   0  0  0  0  0  0  0  0  0  0  0  0
  141.2480   69.4100  228.4390 C   0  0  0  0  0  0  0  0  0  0  0  0
  141.0750   70.5200  227.6120 C   0  0  0  0  0  0  0  0  0  0  0  0
  140.4680   70.3610  226.3810 C   0  0  0  0  0  0  0  0  0  0  0  0
  140.3140   71.5790  225.5480 C   0  0  0  0  0  0  0  0  0  0  0  0
  139.5300   73.1360  222.7170 N   0  0  0  0  0  0  0  0  0  0  0  0
  140.3280   79.5890  223.5690 C   0  0  0  0  0  0  0  0  0  0  0  0
  140.6680   80.9220  223.7520 C   0  0  0  0  0  0  0  0  0  0  0  0
  142.2399   82.3963  223.6640 H   0  0  0  0  0  0  0  0  0  0  0  0
  143.9132   80.7306  222.9241 H   0  0  0  0  0  0  0  0  0  0  0  0
  143.3025   78.3795  222.6084 H   0  0  0  0  0  0  0  0  0  0  0  0
  141.8263   76.9439  221.1375 H   0  0  0  0  0  0  0  0  0  0  0  0
  141.4087   75.5051  222.1554 H   0  0  0  0  0  0  0  0  0  0  0  0
  140.0114   76.7793  220.1382 H   0  0  0  0  0  0  0  0  0  0  0  0
  138.7016   76.8351  222.9946 H   0  0  0  0  0  0  0  0  0  0  0  0
  138.6864   78.1741  221.8893 H   0  0  0  0  0  0  0  0  0  0  0  0
  136.6440   76.3179  222.0042 H   0  0  0  0  0  0  0  0  0  0  0  0
  137.0534   77.1132  220.4695 H   0  0  0  0  0  0  0  0  0  0  0  0
  137.2646   74.2885  221.0829 H   0  0  0  0  0  0  0  0  0  0  0  0
  137.8041   75.0316  219.6039 H   0  0  0  0  0  0  0  0  0  0  0  0
  143.7387   73.5843  220.3882 H   0  0  0  0  0  0  0  0  0  0  0  0
  144.4555   72.2763  221.4201 H   0  0  0  0  0  0  0  0  0  0  0  0
  144.4252   72.4175  218.3858 H   0  0  0  0  0  0  0  0  0  0  0  0
  145.8427   72.5826  219.4656 H   0  0  0  0  0  0  0  0  0  0  0  0
  147.1529   70.6031  219.1384 H   0  0  0  0  0  0  0  0  0  0  0  0
  147.3050   68.1222  219.1863 H   0  0  0  0  0  0  0  0  0  0  0  0
  145.2644   66.7745  219.4429 H   0  0  0  0  0  0  0  0  0  0  0  0
  143.0364   67.8763  219.6518 H   0  0  0  0  0  0  0  0  0  0  0  0
  142.2507   70.8972  218.6238 H   0  0  0  0  0  0  0  0  0  0  0  0
  141.8554   69.9303  220.1173 H   0  0  0  0  0  0  0  0  0  0  0  0
  137.9373   70.4287  224.5514 H   0  0  0  0  0  0  0  0  0  0  0  0
  138.7744   69.9851  222.9892 H   0  0  0  0  0  0  0  0  0  0  0  0
  138.5337   68.1978  224.8206 H   0  0  0  0  0  0  0  0  0  0  0  0
  140.1276   68.4385  223.9927 H   0  0  0  0  0  0  0  0  0  0  0  0
  139.8834   67.0470  226.4966 H   0  0  0  0  0  0  0  0  0  0  0  0
  140.9663   67.2729  228.7133 H   0  0  0  0  0  0  0  0  0  0  0  0
  141.7311   69.5421  229.4184 H   0  0  0  0  0  0  0  0  0  0  0  0
  141.4188   71.5131  227.9370 H   0  0  0  0  0  0  0  0  0  0  0  0
  139.6106   72.2632  226.0452 H   0  0  0  0  0  0  0  0  0  0  0  0
  141.3053   72.0423  225.4352 H   0  0  0  0  0  0  0  0  0  0  0  0
  139.2886   79.2837  223.7601 H   0  0  0  0  0  0  0  0  0  0  0  0
  139.9051   81.6429  224.0810 H   0  0  0  0  0  0  0  0  0  0  0  0
  1  2  2  0
  2  3  1  0
  3  4  2  0
  4  5  1  0
  5  6  1  0
  6  7  1  0
  7  8  1  0
  8  9  1  0
  9 10  1  0
 10 11  1  0
 11 12  1  0
 12 13  2  0
 13 14  1  0
 14 15  1  0
 15 16  1  0
 16 17  1  0
 17 18  1  0
 18 19  2  0
 19 20  1  0
 20 21  2  0
 21 22  1  0
 22 23  2  0
 23 24  1  0
 14 25  2  0
 25 26  1  0
 26 27  1  0
 27 28  1  0
 28 29  1  0
 29 30  1  0
 30 31  2  0
 31 32  1  0
 32 33  2  0
 33 34  1  0
 34 35  2  0
 35 36  1  0
 26 37  2  0
  4 38  1  0
 38 39  2  0
 39  1  1  0
 11  7  1  0
 37 12  1  0
 24 15  1  0
 36 27  1  0
 23 18  1  0
 35 30  1  0
  1 40  1  0
  2 41  1  0
  3 42  1  0
  6 43  1  0
  6 44  1  0
  7 45  1  6
  8 46  1  0
  8 47  1  0
  9 48  1  0
  9 49  1  0
 10 50  1  0
 10 51  1  0
 16 52  1  0
 16 53  1  0
 17 54  1  0
 17 55  1  0
 19 56  1  0
 20 57  1  0
 21 58  1  0
 22 59  1  0
 24 60  1  0
 24 61  1  0
 28 62  1  0
 28 63  1  0
 29 64  1  0
 29 65  1  0
 31 66  1  0
 32 67  1  0
 33 68  1  0
 34 69  1  0
 36 70  1  0
 36 71  1  0
 38 72  1  0
 39 73  1  0
M  END
>  <smiles>  (21) 
c1ccc(OC[C@@H]2CCCN2c2nc(N3CCc4ccccc4C3)nc(N3CCc4ccccc4C3)n2)cc1

>  <score_type>  (21) 
oracle

>  <origin>  (21) 
autodockgpu

>  <m_score__min__energy>  (21) 
-11.19

>  <m_primary>  (21) 
energy

>  <rmsd>  (21) 
10.358298730742488

>  <m_score__min__rmsd>  (21) 
10.358298730742488

>  <meeko>  (21) 
{"free_energy": -11.16, "intermolecular_energy": -12.95, "internal_energy": -1.51, "cluster_size": 29, "cluster_id": 1, "rank_in_cluster": 2}

>  <energy>  (21) 
-10.54

>  <cluster_rmsd>  (21) 
1.89

>  <cluster>  (21) 
1

$$$$

     RDKit          3D

 73 79  0  0  0  0  0  0  0  0999 V2000
  140.9400   70.1700  227.9030 C   0  0  0  0  0  0  0  0  0  0  0  0
  141.1440   71.4830  227.5650 C   0  0  0  0  0  0  0  0  0  0  0  0
  140.9990   71.9200  226.2690 C   0  0  0  0  0  0  0  0  0  0  0  0
  140.6360   71.0430  225.2300 C   0  0  0  0  0  0  0  0  0  0  0  0
  140.5210   71.5830  223.9950 O   0  0  0  0  0  0  0  0  0  0  0  0
  139.4530   71.7360  223.1250 C   0  0  0  0  0  0  0  0  0  0  0  0
  139.9120   71.9240  221.7310 C   0  0  2  0  0  0  0  0  0  0  0  0
  141.4460   71.9800  221.6350 C   0  0  0  0  0  0  0  0  0  0  0  0
  141.6210   72.5790  220.2590 C   0  0  0  0  0  0  0  0  0  0  0  0
  140.3510   73.3800  219.9620 C   0  0  0  0  0  0  0  0  0  0  0  0
  139.6430   73.2780  221.2250 N   0  0  0  0  0  0  0  0  0  0  0  0
  138.8640   74.3060  221.8110 C   0  0  0  0  0  0  0  0  0  0  0  0
  139.3980   75.5390  221.8370 N   0  0  0  0  0  0  0  0  0  0  0  0
  138.7500   76.6030  222.3700 C   0  0  0  0  0  0  0  0  0  0  0  0
  139.3160   77.9080  222.3970 N   0  0  0  0  0  0  0  0  0  0  0  0
  138.5760   78.9820  223.0610 C   0  0  0  0  0  0  0  0  0  0  0  0
  139.1120   80.3370  222.6950 C   0  0  0  0  0  0  0  0  0  0  0  0
  140.5880   80.3510  222.9530 C   0  0  0  0  0  0  0  0  0  0  0  0
  141.2080   81.3920  223.6160 C   0  0  0  0  0  0  0  0  0  0  0  0
  142.5750   81.3570  223.8280 C   0  0  0  0  0  0  0  0  0  0  0  0
  143.3020   80.2930  223.3830 C   0  0  0  0  0  0  0  0  0  0  0  0
  142.6820   79.2360  222.7110 C   0  0  0  0  0  0  0  0  0  0  0  0
  141.3200   79.2700  222.4990 C   0  0  0  0  0  0  0  0  0  0  0  0
  140.5780   78.1950  221.7970 C   0  0  0  0  0  0  0  0  0  0  0  0
  137.5280   76.3680  222.8810 N   0  0  0  0  0  0  0  0  0  0  0  0
  136.9700   75.1660  222.8730 C   0  0  0  0  0  0  0  0  0  0  0  0
  135.6730   74.9880  223.4300 N   0  0  0  0  0  0  0  0  0  0  0  0
  134.9840   73.7340  223.1980 C   0  0  0  0  0  0  0  0  0  0  0  0
  134.4820   73.0840  224.4580 C   0  0  0  0  0  0  0  0  0  0  0  0
  133.9060   74.0780  225.3930 C   0  0  0  0  0  0  0  0  0  0  0  0
  133.0930   73.6290  226.4100 C   0  0  0  0  0  0  0  0  0  0  0  0
  132.5100   74.4690  227.3320 C   0  0  0  0  0  0  0  0  0  0  0  0
  132.7740   75.8200  227.1960 C   0  0  0  0  0  0  0  0  0  0  0  0
  133.5920   76.3110  226.1790 C   0  0  0  0  0  0  0  0  0  0  0  0
  134.1560   75.4290  225.2770 C   0  0  0  0  0  0  0  0  0  0  0  0
  135.0160   76.0120  224.2180 C   0  0  0  0  0  0  0  0  0  0  0  0
  137.6490   74.1360  222.3320 N   0  0  0  0  0  0  0  0  0  0  0  0
  140.4400   69.7400  225.6030 C   0  0  0  0  0  0  0  0  0  0  0  0
  140.5840   69.2920  226.9080 C   0  0  0  0  0  0  0  0  0  0  0  0
  141.0581   69.8290  228.9421 H   0  0  0  0  0  0  0  0  0  0  0  0
  141.4297   72.2021  228.3469 H   0  0  0  0  0  0  0  0  0  0  0  0
  141.1711   72.9818  226.0388 H   0  0  0  0  0  0  0  0  0  0  0  0
  138.8199   70.8379  223.1748 H   0  0  0  0  0  0  0  0  0  0  0  0
  138.8880   72.6305  223.4260 H   0  0  0  0  0  0  0  0  0  0  0  0
  139.4120   71.1006  221.1999 H   0  0  0  0  0  0  0  0  0  0  0  0
  141.8773   72.6245  222.4151 H   0  0  0  0  0  0  0  0  0  0  0  0
  141.9472   71.0113  221.7775 H   0  0  0  0  0  0  0  0  0  0  0  0
  142.4991   73.2413  220.2429 H   0  0  0  0  0  0  0  0  0  0  0  0
  141.7794   71.7950  219.5039 H   0  0  0  0  0  0  0  0  0  0  0  0
  140.5842   74.4263  219.7154 H   0  0  0  0  0  0  0  0  0  0  0  0
  139.7803   73.0116  219.0968 H   0  0  0  0  0  0  0  0  0  0  0  0
  137.5191   78.9243  222.7616 H   0  0  0  0  0  0  0  0  0  0  0  0
  138.6864   78.8525  224.1478 H   0  0  0  0  0  0  0  0  0  0  0  0
  138.9196   80.5368  221.6305 H   0  0  0  0  0  0  0  0  0  0  0  0
  138.6171   81.1130  223.2974 H   0  0  0  0  0  0  0  0  0  0  0  0
  140.6163   82.2471  223.9748 H   0  0  0  0  0  0  0  0  0  0  0  0
  143.0733   82.1848  224.3538 H   0  0  0  0  0  0  0  0  0  0  0  0
  144.3882   80.2662  223.5547 H   0  0  0  0  0  0  0  0  0  0  0  0
  143.2767   78.3825  222.3535 H   0  0  0  0  0  0  0  0  0  0  0  0
  140.4087   78.5076  220.7560 H   0  0  0  0  0  0  0  0  0  0  0  0
  141.1870   77.2809  221.8562 H   0  0  0  0  0  0  0  0  0  0  0  0
  134.1246   73.9256  222.5387 H   0  0  0  0  0  0  0  0  0  0  0  0
  135.7111   73.0439  222.7451 H   0  0  0  0  0  0  0  0  0  0  0  0
  133.7064   72.3493  224.1959 H   0  0  0  0  0  0  0  0  0  0  0  0
  135.3331   72.5966  224.9560 H   0  0  0  0  0  0  0  0  0  0  0  0
  132.9005   72.5489  226.4893 H   0  0  0  0  0  0  0  0  0  0  0  0
  131.8662   74.0848  228.1369 H   0  0  0  0  0  0  0  0  0  0  0  0
  132.3262   76.5268  227.9101 H   0  0  0  0  0  0  0  0  0  0  0  0
  133.7865   77.3904  226.0955 H   0  0  0  0  0  0  0  0  0  0  0  0
  134.3928   76.6275  223.5526 H   0  0  0  0  0  0  0  0  0  0  0  0
  135.7938   76.6179  224.7059 H   0  0  0  0  0  0  0  0  0  0  0  0
  140.1541   69.0123  224.8292 H   0  0  0  0  0  0  0  0  0  0  0  0
  140.4128   68.2319  227.1466 H   0  0  0  0  0  0  0  0  0  0  0  0
  1  2  2  0
  2  3  1  0
  3  4  2  0
  4  5  1  0
  5  6  1  0
  6  7  1  0
  7  8  1  0
  8  9  1  0
  9 10  1  0
 10 11  1  0
 11 12  1  0
 12 13  2  0
 13 14  1  0
 14 15  1  0
 15 16  1  0
 16 17  1  0
 17 18  1  0
 18 19  2  0
 19 20  1  0
 20 21  2  0
 21 22  1  0
 22 23  2  0
 23 24  1  0
 14 25  2  0
 25 26  1  0
 26 27  1  0
 27 28  1  0
 28 29  1  0
 29 30  1  0
 30 31  2  0
 31 32  1  0
 32 33  2  0
 33 34  1  0
 34 35  2  0
 35 36  1  0
 26 37  2  0
  4 38  1  0
 38 39  2  0
 39  1  1  0
 11  7  1  0
 37 12  1  0
 24 15  1  0
 36 27  1  0
 23 18  1  0
 35 30  1  0
  1 40  1  0
  2 41  1  0
  3 42  1  0
  6 43  1  0
  6 44  1  0
  7 45  1  6
  8 46  1  0
  8 47  1  0
  9 48  1  0
  9 49  1  0
 10 50  1  0
 10 51  1  0
 16 52  1  0
 16 53  1  0
 17 54  1  0
 17 55  1  0
 19 56  1  0
 20 57  1  0
 21 58  1  0
 22 59  1  0
 24 60  1  0
 24 61  1  0
 28 62  1  0
 28 63  1  0
 29 64  1  0
 29 65  1  0
 31 66  1  0
 32 67  1  0
 33 68  1  0
 34 69  1  0
 36 70  1  0
 36 71  1  0
 38 72  1  0
 39 73  1  0
M  END
>  <smiles>  (22) 
c1ccc(OC[C@@H]2CCCN2c2nc(N3CCc4ccccc4C3)nc(N3CCc4ccccc4C3)n2)cc1

>  <score_type>  (22) 
oracle

>  <origin>  (22) 
autodockgpu

>  <m_score__min__energy>  (22) 
-11.19

>  <m_primary>  (22) 
energy

>  <rmsd>  (22) 
5.908660143186625

>  <m_score__min__rmsd>  (22) 
5.908660143186625

>  <meeko>  (22) 
{"free_energy": -10.46, "intermolecular_energy": -12.25, "internal_energy": -1.55, "cluster_size": 2, "cluster_id": 2, "rank_in_cluster": 2}

>  <energy>  (22) 
-10.53

>  <cluster_rmsd>  (22) 
1.87

>  <cluster>  (22) 
1

$$$$

     RDKit          3D

 73 79  0  0  0  0  0  0  0  0999 V2000
  141.7770   77.7830  218.5250 C   0  0  0  0  0  0  0  0  0  0  0  0
  140.6480   77.0280  218.3430 C   0  0  0  0  0  0  0  0  0  0  0  0
  140.7220   75.7030  217.9830 C   0  0  0  0  0  0  0  0  0  0  0  0
  141.9570   75.0590  217.7860 C   0  0  0  0  0  0  0  0  0  0  0  0
  141.9110   73.7520  217.4360 O   0  0  0  0  0  0  0  0  0  0  0  0
  142.3690   72.5940  218.0420 C   0  0  0  0  0  0  0  0  0  0  0  0
  143.7050   72.7920  218.6480 C   0  0  2  0  0  0  0  0  0  0  0  0
  144.4490   71.4600  218.8440 C   0  0  0  0  0  0  0  0  0  0  0  0
  145.5260   71.8780  219.8160 C   0  0  0  0  0  0  0  0  0  0  0  0
  144.9900   73.0960  220.5720 C   0  0  0  0  0  0  0  0  0  0  0  0
  143.6310   73.1750  220.0660 N   0  0  0  0  0  0  0  0  0  0  0  0
  142.4960   73.5480  220.8270 C   0  0  0  0  0  0  0  0  0  0  0  0
  141.9210   72.5930  221.5790 N   0  0  0  0  0  0  0  0  0  0  0  0
  140.8320   72.8290  222.3480 C   0  0  0  0  0  0  0  0  0  0  0  0
  140.2250   71.8180  223.1440 N   0  0  0  0  0  0  0  0  0  0  0  0
  139.4750   70.7520  222.4770 C   0  0  0  0  0  0  0  0  0  0  0  0
  138.6100   69.9920  223.4420 C   0  0  0  0  0  0  0  0  0  0  0  0
  139.4630   69.5260  224.5820 C   0  0  0  0  0  0  0  0  0  0  0  0
  139.4040   68.2340  225.0650 C   0  0  0  0  0  0  0  0  0  0  0  0
  140.2130   67.8540  226.1200 C   0  0  0  0  0  0  0  0  0  0  0  0
  141.0670   68.7590  226.6780 C   0  0  0  0  0  0  0  0  0  0  0  0
  141.1330   70.0700  226.1960 C   0  0  0  0  0  0  0  0  0  0  0  0
  140.3260   70.4480  225.1430 C   0  0  0  0  0  0  0  0  0  0  0  0
  140.3280   71.8150  224.5670 C   0  0  0  0  0  0  0  0  0  0  0  0
  140.3410   74.0810  222.3280 N   0  0  0  0  0  0  0  0  0  0  0  0
  140.8810   75.0480  221.6000 C   0  0  0  0  0  0  0  0  0  0  0  0
  140.3110   76.3510  221.6260 N   0  0  0  0  0  0  0  0  0  0  0  0
  138.8670   76.4760  221.6030 C   0  0  0  0  0  0  0  0  0  0  0  0
  138.3230   77.3430  222.7050 C   0  0  0  0  0  0  0  0  0  0  0  0
  139.1620   78.5440  222.9190 C   0  0  0  0  0  0  0  0  0  0  0  0
  138.6290   79.6020  223.6220 C   0  0  0  0  0  0  0  0  0  0  0  0
  139.3250   80.7620  223.8770 C   0  0  0  0  0  0  0  0  0  0  0  0
  140.6160   80.8330  223.3870 C   0  0  0  0  0  0  0  0  0  0  0  0
  141.1890   79.7820  222.6710 C   0  0  0  0  0  0  0  0  0  0  0  0
  140.4520   78.6370  222.4400 C   0  0  0  0  0  0  0  0  0  0  0  0
  141.1170   77.5550  221.6730 C   0  0  0  0  0  0  0  0  0  0  0  0
  141.9640   74.7700  220.8490 N   0  0  0  0  0  0  0  0  0  0  0  0
  143.0650   75.8420  217.9770 C   0  0  0  0  0  0  0  0  0  0  0  0
  142.9970   77.1800  218.3380 C   0  0  0  0  0  0  0  0  0  0  0  0
  141.7082   78.8424  218.8128 H   0  0  0  0  0  0  0  0  0  0  0  0
  139.6612   77.4919  218.4880 H   0  0  0  0  0  0  0  0  0  0  0  0
  139.7918   75.1321  217.8456 H   0  0  0  0  0  0  0  0  0  0  0  0
  141.6598   72.2975  218.8288 H   0  0  0  0  0  0  0  0  0  0  0  0
  142.4506   71.8109  217.2738 H   0  0  0  0  0  0  0  0  0  0  0  0
  144.1699   73.5246  217.9719 H   0  0  0  0  0  0  0  0  0  0  0  0
  143.7926   70.6891  219.2740 H   0  0  0  0  0  0  0  0  0  0  0  0
  144.8250   71.0073  217.9146 H   0  0  0  0  0  0  0  0  0  0  0  0
  145.7399   71.0597  220.5192 H   0  0  0  0  0  0  0  0  0  0  0  0
  146.4610   72.1200  219.2894 H   0  0  0  0  0  0  0  0  0  0  0  0
  145.0051   72.9326  221.6597 H   0  0  0  0  0  0  0  0  0  0  0  0
  145.5790   74.0127  220.4212 H   0  0  0  0  0  0  0  0  0  0  0  0
  138.8359   71.1980  221.7007 H   0  0  0  0  0  0  0  0  0  0  0  0
  140.1974   70.0485  222.0374 H   0  0  0  0  0  0  0  0  0  0  0  0
  137.8117   70.6476  223.8200 H   0  0  0  0  0  0  0  0  0  0  0  0
  138.1521   69.1286  222.9373 H   0  0  0  0  0  0  0  0  0  0  0  0
  138.7140   67.5075  224.6109 H   0  0  0  0  0  0  0  0  0  0  0  0
  140.1679   66.8256  226.5077 H   0  0  0  0  0  0  0  0  0  0  0  0
  141.7109   68.4544  227.5163 H   0  0  0  0  0  0  0  0  0  0  0  0
  141.8232   70.7944  226.6531 H   0  0  0  0  0  0  0  0  0  0  0  0
  139.4749   72.3719  224.9818 H   0  0  0  0  0  0  0  0  0  0  0  0
  141.2886   72.2824  224.8294 H   0  0  0  0  0  0  0  0  0  0  0  0
  138.5705   76.9125  220.6378 H   0  0  0  0  0  0  0  0  0  0  0  0
  138.4523   75.4678  221.7494 H   0  0  0  0  0  0  0  0  0  0  0  0
  137.3046   77.6620  222.4383 H   0  0  0  0  0  0  0  0  0  0  0  0
  138.3201   76.7555  223.6350 H   0  0  0  0  0  0  0  0  0  0  0  0
  137.5986   79.5158  223.9973 H   0  0  0  0  0  0  0  0  0  0  0  0
  138.8761   81.5917  224.4428 H   0  0  0  0  0  0  0  0  0  0  0  0
  141.2072   81.7430  223.5667 H   0  0  0  0  0  0  0  0  0  0  0  0
  142.2189   79.8644  222.2936 H   0  0  0  0  0  0  0  0  0  0  0  0
  141.2939   77.9048  220.6452 H   0  0  0  0  0  0  0  0  0  0  0  0
  142.0636   77.3118  222.1778 H   0  0  0  0  0  0  0  0  0  0  0  0
  144.0570   75.3877  217.8373 H   0  0  0  0  0  0  0  0  0  0  0  0
  143.9221   77.7592  218.4748 H   0  0  0  0  0  0  0  0  0  0  0  0
  1  2  2  0
  2  3  1  0
  3  4  2  0
  4  5  1  0
  5  6  1  0
  6  7  1  0
  7  8  1  0
  8  9  1  0
  9 10  1  0
 10 11  1  0
 11 12  1  0
 12 13  2  0
 13 14  1  0
 14 15  1  0
 15 16  1  0
 16 17  1  0
 17 18  1  0
 18 19  2  0
 19 20  1  0
 20 21  2  0
 21 22  1  0
 22 23  2  0
 23 24  1  0
 14 25  2  0
 25 26  1  0
 26 27  1  0
 27 28  1  0
 28 29  1  0
 29 30  1  0
 30 31  2  0
 31 32  1  0
 32 33  2  0
 33 34  1  0
 34 35  2  0
 35 36  1  0
 26 37  2  0
  4 38  1  0
 38 39  2  0
 39  1  1  0
 11  7  1  0
 37 12  1  0
 24 15  1  0
 36 27  1  0
 23 18  1  0
 35 30  1  0
  1 40  1  0
  2 41  1  0
  3 42  1  0
  6 43  1  0
  6 44  1  0
  7 45  1  6
  8 46  1  0
  8 47  1  0
  9 48  1  0
  9 49  1  0
 10 50  1  0
 10 51  1  0
 16 52  1  0
 16 53  1  0
 17 54  1  0
 17 55  1  0
 19 56  1  0
 20 57  1  0
 21 58  1  0
 22 59  1  0
 24 60  1  0
 24 61  1  0
 28 62  1  0
 28 63  1  0
 29 64  1  0
 29 65  1  0
 31 66  1  0
 32 67  1  0
 33 68  1  0
 34 69  1  0
 36 70  1  0
 36 71  1  0
 38 72  1  0
 39 73  1  0
M  END
>  <smiles>  (23) 
c1ccc(OC[C@@H]2CCCN2c2nc(N3CCc4ccccc4C3)nc(N3CCc4ccccc4C3)n2)cc1

>  <score_type>  (23) 
oracle

>  <origin>  (23) 
autodockgpu

>  <m_score__min__energy>  (23) 
-11.19

>  <m_primary>  (23) 
energy

>  <rmsd>  (23) 
10.686143831378738

>  <m_score__min__rmsd>  (23) 
10.686143831378738

>  <meeko>  (23) 
{"free_energy": -9.13, "intermolecular_energy": -10.92, "internal_energy": -2.63, "cluster_size": 9, "cluster_id": 5, "rank_in_cluster": 9}

>  <energy>  (23) 
-10.53

>  <cluster_rmsd>  (23) 
1.7

>  <cluster>  (23) 
1

$$$$

     RDKit          3D

 73 79  0  0  0  0  0  0  0  0999 V2000
  141.0150   77.6230  218.3710 C   0  0  0  0  0  0  0  0  0  0  0  0
  142.2620   78.0010  218.7970 C   0  0  0  0  0  0  0  0  0  0  0  0
  143.2600   77.0770  219.0020 C   0  0  0  0  0  0  0  0  0  0  0  0
  143.0510   75.7030  218.7850 C   0  0  0  0  0  0  0  0  0  0  0  0
  144.1040   74.8850  219.0170 O   0  0  0  0  0  0  0  0  0  0  0  0
  144.4830   74.1160  220.1050 C   0  0  0  0  0  0  0  0  0  0  0  0
  144.4460   72.6710  219.7860 C   0  0  2  0  0  0  0  0  0  0  0  0
  144.2970   72.4200  218.2760 C   0  0  0  0  0  0  0  0  0  0  0  0
  143.8700   70.9710  218.2710 C   0  0  0  0  0  0  0  0  0  0  0  0
  143.2020   70.7040  219.6220 C   0  0  0  0  0  0  0  0  0  0  0  0
  143.1890   72.0330  220.2060 N   0  0  0  0  0  0  0  0  0  0  0  0
  142.1500   72.5620  221.0110 C   0  0  0  0  0  0  0  0  0  0  0  0
  141.5950   71.7370  221.9150 N   0  0  0  0  0  0  0  0  0  0  0  0
  140.5940   72.1260  222.7400 C   0  0  0  0  0  0  0  0  0  0  0  0
  140.0080   71.2520  223.6970 N   0  0  0  0  0  0  0  0  0  0  0  0
  139.2110   70.1200  223.2220 C   0  0  0  0  0  0  0  0  0  0  0  0
  138.3790   69.5240  224.3210 C   0  0  0  0  0  0  0  0  0  0  0  0
  139.2750   69.2050  225.4790 C   0  0  0  0  0  0  0  0  0  0  0  0
  139.2170   67.9960  226.1420 C   0  0  0  0  0  0  0  0  0  0  0  0
  140.0680   67.7510  227.2050 C   0  0  0  0  0  0  0  0  0  0  0  0
  140.9600   68.7070  227.5920 C   0  0  0  0  0  0  0  0  0  0  0  0
  141.0260   69.9340  226.9260 C   0  0  0  0  0  0  0  0  0  0  0  0
  140.1780   70.1780  225.8650 C   0  0  0  0  0  0  0  0  0  0  0  0
  140.1760   71.4490  225.1010 C   0  0  0  0  0  0  0  0  0  0  0  0
  140.1720   73.3970  222.6150 N   0  0  0  0  0  0  0  0  0  0  0  0
  140.6960   74.2400  221.7350 C   0  0  0  0  0  0  0  0  0  0  0  0
  140.2020   75.5720  221.6560 N   0  0  0  0  0  0  0  0  0  0  0  0
  138.7680   75.7780  221.6100 C   0  0  0  0  0  0  0  0  0  0  0  0
  138.2690   76.7560  222.6370 C   0  0  0  0  0  0  0  0  0  0  0  0
  139.1760   77.9210  222.7670 C   0  0  0  0  0  0  0  0  0  0  0  0
  138.7010   79.0580  223.3820 C   0  0  0  0  0  0  0  0  0  0  0  0
  139.4620   80.1920  223.5540 C   0  0  0  0  0  0  0  0  0  0  0  0
  140.7580   80.1510  223.0730 C   0  0  0  0  0  0  0  0  0  0  0  0
  141.2730   79.0170  222.4450 C   0  0  0  0  0  0  0  0  0  0  0  0
  140.4710   77.9010  222.2950 C   0  0  0  0  0  0  0  0  0  0  0  0
  141.0770   76.7270  221.6190 C   0  0  0  0  0  0  0  0  0  0  0  0
  141.6890   73.8100  220.9340 N   0  0  0  0  0  0  0  0  0  0  0  0
  141.7940   75.3600  218.3600 C   0  0  0  0  0  0  0  0  0  0  0  0
  140.7820   76.2870  218.1520 C   0  0  0  0  0  0  0  0  0  0  0  0
  140.2229   78.3689  218.2090 H   0  0  0  0  0  0  0  0  0  0  0  0
  142.4688   79.0660  218.9787 H   0  0  0  0  0  0  0  0  0  0  0  0
  144.2470   77.4214  219.3445 H   0  0  0  0  0  0  0  0  0  0  0  0
  145.5068   74.3914  220.3983 H   0  0  0  0  0  0  0  0  0  0  0  0
  143.7762   74.3068  220.9260 H   0  0  0  0  0  0  0  0  0  0  0  0
  145.3637   72.2954  220.2622 H   0  0  0  0  0  0  0  0  0  0  0  0
  143.5290   73.0699  217.8314 H   0  0  0  0  0  0  0  0  0  0  0  0
  145.2024   72.6301  217.6878 H   0  0  0  0  0  0  0  0  0  0  0  0
  143.1573   70.7888  217.4532 H   0  0  0  0  0  0  0  0  0  0  0  0
  144.7321   70.3052  218.1177 H   0  0  0  0  0  0  0  0  0  0  0  0
  142.1825   70.3107  219.4955 H   0  0  0  0  0  0  0  0  0  0  0  0
  143.7164   69.9496  220.2354 H   0  0  0  0  0  0  0  0  0  0  0  0
  138.5444   70.4661  222.4184 H   0  0  0  0  0  0  0  0  0  0  0  0
  139.9011   69.3451  222.8568 H   0  0  0  0  0  0  0  0  0  0  0  0
  137.6093   70.2442  224.6353 H   0  0  0  0  0  0  0  0  0  0  0  0
  137.8852   68.6081  223.9642 H   0  0  0  0  0  0  0  0  0  0  0  0
  138.4953   67.2284  225.8258 H   0  0  0  0  0  0  0  0  0  0  0  0
  140.0252   66.7886  227.7360 H   0  0  0  0  0  0  0  0  0  0  0  0
  141.6352   68.5103  228.4378 H   0  0  0  0  0  0  0  0  0  0  0  0
  141.7486   70.6995  227.2452 H   0  0  0  0  0  0  0  0  0  0  0  0
  139.3519   72.0783  225.4684 H   0  0  0  0  0  0  0  0  0  0  0  0
  141.1548   71.9274  225.2528 H   0  0  0  0  0  0  0  0  0  0  0  0
  138.5025   76.1558  220.6116 H   0  0  0  0  0  0  0  0  0  0  0  0
  138.2950   74.8094  221.8292 H   0  0  0  0  0  0  0  0  0  0  0  0
  137.2722   77.1114  222.3368 H   0  0  0  0  0  0  0  0  0  0  0  0
  138.2268   76.2427  223.6090 H   0  0  0  0  0  0  0  0  0  0  0  0
  137.6654   79.0600  223.7530 H   0  0  0  0  0  0  0  0  0  0  0  0
  139.0589   81.0873  224.0499 H   0  0  0  0  0  0  0  0  0  0  0  0
  141.4000   81.0367  223.1888 H   0  0  0  0  0  0  0  0  0  0  0  0
  142.3080   79.0107  222.0725 H   0  0  0  0  0  0  0  0  0  0  0  0
  141.2798   76.9863  220.5694 H   0  0  0  0  0  0  0  0  0  0  0  0
  142.0053   76.4691  222.1497 H   0  0  0  0  0  0  0  0  0  0  0  0
  141.5764   74.2978  218.1746 H   0  0  0  0  0  0  0  0  0  0  0  0
  139.7915   75.9512  217.8111 H   0  0  0  0  0  0  0  0  0  0  0  0
  1  2  2  0
  2  3  1  0
  3  4  2  0
  4  5  1  0
  5  6  1  0
  6  7  1  0
  7  8  1  0
  8  9  1  0
  9 10  1  0
 10 11  1  0
 11 12  1  0
 12 13  2  0
 13 14  1  0
 14 15  1  0
 15 16  1  0
 16 17  1  0
 17 18  1  0
 18 19  2  0
 19 20  1  0
 20 21  2  0
 21 22  1  0
 22 23  2  0
 23 24  1  0
 14 25  2  0
 25 26  1  0
 26 27  1  0
 27 28  1  0
 28 29  1  0
 29 30  1  0
 30 31  2  0
 31 32  1  0
 32 33  2  0
 33 34  1  0
 34 35  2  0
 35 36  1  0
 26 37  2  0
  4 38  1  0
 38 39  2  0
 39  1  1  0
 11  7  1  0
 37 12  1  0
 24 15  1  0
 36 27  1  0
 23 18  1  0
 35 30  1  0
  1 40  1  0
  2 41  1  0
  3 42  1  0
  6 43  1  0
  6 44  1  0
  7 45  1  1
  8 46  1  0
  8 47  1  0
  9 48  1  0
  9 49  1  0
 10 50  1  0
 10 51  1  0
 16 52  1  0
 16 53  1  0
 17 54  1  0
 17 55  1  0
 19 56  1  0
 20 57  1  0
 21 58  1  0
 22 59  1  0
 24 60  1  0
 24 61  1  0
 28 62  1  0
 28 63  1  0
 29 64  1  0
 29 65  1  0
 31 66  1  0
 32 67  1  0
 33 68  1  0
 34 69  1  0
 36 70  1  0
 36 71  1  0
 38 72  1  0
 39 73  1  0
M  END
>  <smiles>  (24) 
c1ccc(OC[C@@H]2CCCN2c2nc(N3CCc4ccccc4C3)nc(N3CCc4ccccc4C3)n2)cc1

>  <score_type>  (24) 
oracle

>  <origin>  (24) 
autodockgpu

>  <m_score__min__energy>  (24) 
-11.19

>  <m_primary>  (24) 
energy

>  <rmsd>  (24) 
11.34618470010858

>  <m_score__min__rmsd>  (24) 
11.34618470010858

>  <meeko>  (24) 
{"free_energy": -9.61, "intermolecular_energy": -11.4, "internal_energy": -2.61, "cluster_size": 9, "cluster_id": 5, "rank_in_cluster": 2}

>  <energy>  (24) 
-10.44

>  <cluster_rmsd>  (24) 
1.8

>  <cluster>  (24) 
1

$$$$

     RDKit          3D

 73 79  0  0  0  0  0  0  0  0999 V2000
  140.9310   77.9590  218.4950 C   0  0  0  0  0  0  0  0  0  0  0  0
  140.5770   76.6560  218.2550 C   0  0  0  0  0  0  0  0  0  0  0  0
  141.4850   75.6310  218.3850 C   0  0  0  0  0  0  0  0  0  0  0  0
  142.8170   75.8690  218.7710 C   0  0  0  0  0  0  0  0  0  0  0  0
  143.6220   74.7850  218.8690 O   0  0  0  0  0  0  0  0  0  0  0  0
  144.3820   74.2630  219.9030 C   0  0  0  0  0  0  0  0  0  0  0  0
  144.5160   72.7940  219.7880 C   0  0  2  0  0  0  0  0  0  0  0  0
  144.3780   72.3170  218.3330 C   0  0  0  0  0  0  0  0  0  0  0  0
  144.1290   70.8410  218.5410 C   0  0  0  0  0  0  0  0  0  0  0  0
  143.5190   70.6900  219.9360 C   0  0  0  0  0  0  0  0  0  0  0  0
  143.3530   72.0770  220.3310 N   0  0  0  0  0  0  0  0  0  0  0  0
  142.2680   72.5880  221.0870 C   0  0  0  0  0  0  0  0  0  0  0  0
  141.6860   71.7520  221.9640 N   0  0  0  0  0  0  0  0  0  0  0  0
  140.6410   72.1240  222.7420 C   0  0  0  0  0  0  0  0  0  0  0  0
  140.0260   71.2390  223.6700 N   0  0  0  0  0  0  0  0  0  0  0  0
  139.3050   70.0720  223.1580 C   0  0  0  0  0  0  0  0  0  0  0  0
  138.4240   69.4570  224.2080 C   0  0  0  0  0  0  0  0  0  0  0  0
  139.2530   69.1850  225.4270 C   0  0  0  0  0  0  0  0  0  0  0  0
  139.1960   67.9820  226.1010 C   0  0  0  0  0  0  0  0  0  0  0  0
  139.9830   67.7810  227.2210 C   0  0  0  0  0  0  0  0  0  0  0  0
  140.8110   68.7750  227.6530 C   0  0  0  0  0  0  0  0  0  0  0  0
  140.8750   69.9960  226.9760 C   0  0  0  0  0  0  0  0  0  0  0  0
  140.0910   70.1960  225.8580 C   0  0  0  0  0  0  0  0  0  0  0  0
  140.0930   71.4570  225.0790 C   0  0  0  0  0  0  0  0  0  0  0  0
  140.2050   73.3880  222.5980 N   0  0  0  0  0  0  0  0  0  0  0  0
  140.7550   74.2400  221.7440 C   0  0  0  0  0  0  0  0  0  0  0  0
  140.2430   75.5640  221.6430 N   0  0  0  0  0  0  0  0  0  0  0  0
  138.8120   75.7450  221.4960 C   0  0  0  0  0  0  0  0  0  0  0  0
  138.2230   76.7020  222.4950 C   0  0  0  0  0  0  0  0  0  0  0  0
  139.0970   77.8810  222.7010 C   0  0  0  0  0  0  0  0  0  0  0  0
  138.5580   79.0030  223.2920 C   0  0  0  0  0  0  0  0  0  0  0  0
  139.2830   80.1480  223.5290 C   0  0  0  0  0  0  0  0  0  0  0  0
  140.6110   80.1360  223.1420 C   0  0  0  0  0  0  0  0  0  0  0  0
  141.1900   79.0180  222.5410 C   0  0  0  0  0  0  0  0  0  0  0  0
  140.4230   77.8900  222.3230 C   0  0  0  0  0  0  0  0  0  0  0  0
  141.0960   76.7350  221.6810 C   0  0  0  0  0  0  0  0  0  0  0  0
  141.7910   73.8280  220.9900 N   0  0  0  0  0  0  0  0  0  0  0  0
  143.1360   77.1810  219.0030 C   0  0  0  0  0  0  0  0  0  0  0  0
  142.2260   78.2200  218.8730 C   0  0  0  0  0  0  0  0  0  0  0  0
  140.1985   78.7726  218.3878 H   0  0  0  0  0  0  0  0  0  0  0  0
  139.5449   76.4257  217.9521 H   0  0  0  0  0  0  0  0  0  0  0  0
  141.1617   74.5993  218.1821 H   0  0  0  0  0  0  0  0  0  0  0  0
  145.3837   74.7168  219.8750 H   0  0  0  0  0  0  0  0  0  0  0  0
  143.8760   74.4906  220.8528 H   0  0  0  0  0  0  0  0  0  0  0  0
  145.4791   72.6008  220.2831 H   0  0  0  0  0  0  0  0  0  0  0  0
  143.5311   72.8029  217.8263 H   0  0  0  0  0  0  0  0  0  0  0  0
  145.2435   72.5472  217.6943 H   0  0  0  0  0  0  0  0  0  0  0  0
  143.4311   70.4633  217.7792 H   0  0  0  0  0  0  0  0  0  0  0  0
  145.0627   70.2661  218.4533 H   0  0  0  0  0  0  0  0  0  0  0  0
  142.5532   70.1648  219.8976 H   0  0  0  0  0  0  0  0  0  0  0  0
  144.1306   70.0959  220.6310 H   0  0  0  0  0  0  0  0  0  0  0  0
  138.6811   70.3837  222.3074 H   0  0  0  0  0  0  0  0  0  0  0  0
  140.0461   69.3199  222.8495 H   0  0  0  0  0  0  0  0  0  0  0  0
  137.6090   70.1510  224.4612 H   0  0  0  0  0  0  0  0  0  0  0  0
  137.9889   68.5193  223.8320 H   0  0  0  0  0  0  0  0  0  0  0  0
  138.5259   67.1842  225.7483 H   0  0  0  0  0  0  0  0  0  0  0  0
  139.9411   66.8235  227.7608 H   0  0  0  0  0  0  0  0  0  0  0  0
  141.4354   68.6139  228.5442 H   0  0  0  0  0  0  0  0  0  0  0  0
  141.5456   70.7921  227.3318 H   0  0  0  0  0  0  0  0  0  0  0  0
  139.2238   72.0588  225.3829 H   0  0  0  0  0  0  0  0  0  0  0  0
  141.0414   71.9733  225.2886 H   0  0  0  0  0  0  0  0  0  0  0  0
  138.6117   76.1298  220.4852 H   0  0  0  0  0  0  0  0  0  0  0  0
  138.3423   74.7657  221.6701 H   0  0  0  0  0  0  0  0  0  0  0  0
  137.2437   77.0432  222.1282 H   0  0  0  0  0  0  0  0  0  0  0  0
  138.1210   76.1769  223.4562 H   0  0  0  0  0  0  0  0  0  0  0  0
  137.4988   78.9823  223.5881 H   0  0  0  0  0  0  0  0  0  0  0  0
  138.8286   81.0304  224.0033 H   0  0  0  0  0  0  0  0  0  0  0  0
  141.2267   81.0315  223.3126 H   0  0  0  0  0  0  0  0  0  0  0  0
  142.2488   79.0346  222.2431 H   0  0  0  0  0  0  0  0  0  0  0  0
  141.3685   77.0098  220.6513 H   0  0  0  0  0  0  0  0  0  0  0  0
  141.9880   76.4873  222.2752 H   0  0  0  0  0  0  0  0  0  0  0  0
  144.1650   77.4226  219.3076 H   0  0  0  0  0  0  0  0  0  0  0  0
  142.5417   79.2546  219.0729 H   0  0  0  0  0  0  0  0  0  0  0  0
  1  2  2  0
  2  3  1  0
  3  4  2  0
  4  5  1  0
  5  6  1  0
  6  7  1  0
  7  8  1  0
  8  9  1  0
  9 10  1  0
 10 11  1  0
 11 12  1  0
 12 13  2  0
 13 14  1  0
 14 15  1  0
 15 16  1  0
 16 17  1  0
 17 18  1  0
 18 19  2  0
 19 20  1  0
 20 21  2  0
 21 22  1  0
 22 23  2  0
 23 24  1  0
 14 25  2  0
 25 26  1  0
 26 27  1  0
 27 28  1  0
 28 29  1  0
 29 30  1  0
 30 31  2  0
 31 32  1  0
 32 33  2  0
 33 34  1  0
 34 35  2  0
 35 36  1  0
 26 37  2  0
  4 38  1  0
 38 39  2  0
 39  1  1  0
 11  7  1  0
 37 12  1  0
 24 15  1  0
 36 27  1  0
 23 18  1  0
 35 30  1  0
  1 40  1  0
  2 41  1  0
  3 42  1  0
  6 43  1  0
  6 44  1  0
  7 45  1  1
  8 46  1  0
  8 47  1  0
  9 48  1  0
  9 49  1  0
 10 50  1  0
 10 51  1  0
 16 52  1  0
 16 53  1  0
 17 54  1  0
 17 55  1  0
 19 56  1  0
 20 57  1  0
 21 58  1  0
 22 59  1  0
 24 60  1  0
 24 61  1  0
 28 62  1  0
 28 63  1  0
 29 64  1  0
 29 65  1  0
 31 66  1  0
 32 67  1  0
 33 68  1  0
 34 69  1  0
 36 70  1  0
 36 71  1  0
 38 72  1  0
 39 73  1  0
M  END
>  <smiles>  (25) 
c1ccc(OC[C@@H]2CCCN2c2nc(N3CCc4ccccc4C3)nc(N3CCc4ccccc4C3)n2)cc1

>  <score_type>  (25) 
oracle

>  <origin>  (25) 
autodockgpu

>  <m_score__min__energy>  (25) 
-11.19

>  <m_primary>  (25) 
energy

>  <rmsd>  (25) 
11.32865798999927

>  <m_score__min__rmsd>  (25) 
11.32865798999927

>  <meeko>  (25) 
{"free_energy": -9.54, "intermolecular_energy": -11.33, "internal_energy": -2.59, "cluster_size": 9, "cluster_id": 5, "rank_in_cluster": 5}

>  <energy>  (25) 
-10.29

>  <cluster_rmsd>  (25) 
1.9

>  <cluster>  (25) 
1

$$$$

     RDKit          3D

 73 79  0  0  0  0  0  0  0  0999 V2000
  141.0030   77.6130  218.2940 C   0  0  0  0  0  0  0  0  0  0  0  0
  140.8420   76.2680  218.0880 C   0  0  0  0  0  0  0  0  0  0  0  0
  141.8700   75.3810  218.3090 C   0  0  0  0  0  0  0  0  0  0  0  0
  143.1330   75.8100  218.7560 C   0  0  0  0  0  0  0  0  0  0  0  0
  144.0680   74.8500  218.9420 O   0  0  0  0  0  0  0  0  0  0  0  0
  144.4970   74.1500  220.0590 C   0  0  0  0  0  0  0  0  0  0  0  0
  144.5160   72.6920  219.8100 C   0  0  2  0  0  0  0  0  0  0  0  0
  144.3780   72.3630  218.3130 C   0  0  0  0  0  0  0  0  0  0  0  0
  144.0070   70.9000  218.3780 C   0  0  0  0  0  0  0  0  0  0  0  0
  143.3510   70.6720  219.7420 C   0  0  0  0  0  0  0  0  0  0  0  0
  143.2850   72.0260  220.2620 N   0  0  0  0  0  0  0  0  0  0  0  0
  142.2260   72.5520  221.0410 C   0  0  0  0  0  0  0  0  0  0  0  0
  141.6530   71.7250  221.9330 N   0  0  0  0  0  0  0  0  0  0  0  0
  140.6320   72.1120  222.7350 C   0  0  0  0  0  0  0  0  0  0  0  0
  140.0270   71.2360  223.6790 N   0  0  0  0  0  0  0  0  0  0  0  0
  139.2750   70.0810  223.1870 C   0  0  0  0  0  0  0  0  0  0  0  0
  138.4120   69.4800  224.2590 C   0  0  0  0  0  0  0  0  0  0  0  0
  139.2680   69.1950  225.4560 C   0  0  0  0  0  0  0  0  0  0  0  0
  139.2100   67.9930  226.1320 C   0  0  0  0  0  0  0  0  0  0  0  0
  140.0220   67.7800  227.2310 C   0  0  0  0  0  0  0  0  0  0  0  0
  140.8770   68.7600  227.6410 C   0  0  0  0  0  0  0  0  0  0  0  0
  140.9420   69.9800  226.9620 C   0  0  0  0  0  0  0  0  0  0  0  0
  140.1330   70.1920  225.8650 C   0  0  0  0  0  0  0  0  0  0  0  0
  140.1340   71.4530  225.0850 C   0  0  0  0  0  0  0  0  0  0  0  0
  140.2090   73.3810  222.5990 N   0  0  0  0  0  0  0  0  0  0  0  0
  140.7500   74.2250  221.7310 C   0  0  0  0  0  0  0  0  0  0  0  0
  140.2530   75.5550  221.6400 N   0  0  0  0  0  0  0  0  0  0  0  0
  138.8190   75.7600  221.6340 C   0  0  0  0  0  0  0  0  0  0  0  0
  138.3520   76.7600  222.6550 C   0  0  0  0  0  0  0  0  0  0  0  0
  139.2620   77.9270  222.7320 C   0  0  0  0  0  0  0  0  0  0  0  0
  138.8060   79.0770  223.3380 C   0  0  0  0  0  0  0  0  0  0  0  0
  139.5710   80.2140  223.4620 C   0  0  0  0  0  0  0  0  0  0  0  0
  140.8520   80.1620  222.9420 C   0  0  0  0  0  0  0  0  0  0  0  0
  141.3470   79.0150  222.3220 C   0  0  0  0  0  0  0  0  0  0  0  0
  140.5420   77.8970  222.2200 C   0  0  0  0  0  0  0  0  0  0  0  0
  141.1260   76.7090  221.5510 C   0  0  0  0  0  0  0  0  0  0  0  0
  141.7630   73.7980  220.9530 N   0  0  0  0  0  0  0  0  0  0  0  0
  143.2590   77.1600  218.9530 C   0  0  0  0  0  0  0  0  0  0  0  0
  142.2270   78.0600  218.7310 C   0  0  0  0  0  0  0  0  0  0  0  0
  140.1757   78.3154  218.1146 H   0  0  0  0  0  0  0  0  0  0  0  0
  139.8701   75.8895  217.7385 H   0  0  0  0  0  0  0  0  0  0  0  0
  141.7001   74.3088  218.1317 H   0  0  0  0  0  0  0  0  0  0  0  0
  145.5128   74.4814  220.3203 H   0  0  0  0  0  0  0  0  0  0  0  0
  143.7960   74.3506  220.8826 H   0  0  0  0  0  0  0  0  0  0  0  0
  145.4472   72.3758  220.3027 H   0  0  0  0  0  0  0  0  0  0  0  0
  143.5859   72.9608  217.8384 H   0  0  0  0  0  0  0  0  0  0  0  0
  145.2752   72.5793  217.7145 H   0  0  0  0  0  0  0  0  0  0  0  0
  143.3010   70.6519  217.5717 H   0  0  0  0  0  0  0  0  0  0  0  0
  144.8940   70.2613  218.2542 H   0  0  0  0  0  0  0  0  0  0  0  0
  142.3480   70.2326  219.6370 H   0  0  0  0  0  0  0  0  0  0  0  0
  143.8957   69.9692  220.3895 H   0  0  0  0  0  0  0  0  0  0  0  0
  138.6343   70.4024  222.3526 H   0  0  0  0  0  0  0  0  0  0  0  0
  139.9961   69.3173  222.8602 H   0  0  0  0  0  0  0  0  0  0  0  0
  137.6148   70.1867  224.5330 H   0  0  0  0  0  0  0  0  0  0  0  0
  137.9524   68.5494  223.8947 H   0  0  0  0  0  0  0  0  0  0  0  0
  138.5188   67.2055  225.7970 H   0  0  0  0  0  0  0  0  0  0  0  0
  139.9783   66.8235  227.7725 H   0  0  0  0  0  0  0  0  0  0  0  0
  141.5223   68.5886  228.5152 H   0  0  0  0  0  0  0  0  0  0  0  0
  141.6336   70.7657  227.3001 H   0  0  0  0  0  0  0  0  0  0  0  0
  139.2823   72.0681  225.4111 H   0  0  0  0  0  0  0  0  0  0  0  0
  141.0955   71.9546  225.2694 H   0  0  0  0  0  0  0  0  0  0  0  0
  138.5224   76.1164  220.6365 H   0  0  0  0  0  0  0  0  0  0  0  0
  138.3533   74.7964  221.8882 H   0  0  0  0  0  0  0  0  0  0  0  0
  137.3463   77.1093  222.3785 H   0  0  0  0  0  0  0  0  0  0  0  0
  138.3404   76.2675  223.6385 H   0  0  0  0  0  0  0  0  0  0  0  0
  137.7827   79.0868  223.7415 H   0  0  0  0  0  0  0  0  0  0  0  0
  139.1830   81.1199  223.9507 H   0  0  0  0  0  0  0  0  0  0  0  0
  141.4975   81.0493  223.0197 H   0  0  0  0  0  0  0  0  0  0  0  0
  142.3699   79.0007  221.9176 H   0  0  0  0  0  0  0  0  0  0  0  0
  141.2956   76.9457  220.4902 H   0  0  0  0  0  0  0  0  0  0  0  0
  142.0704   76.4620  222.0580 H   0  0  0  0  0  0  0  0  0  0  0  0
  144.2259   77.5493  219.3044 H   0  0  0  0  0  0  0  0  0  0  0  0
  142.3887   79.1340  218.9051 H   0  0  0  0  0  0  0  0  0  0  0  0
  1  2  2  0
  2  3  1  0
  3  4  2  0
  4  5  1  0
  5  6  1  0
  6  7  1  0
  7  8  1  0
  8  9  1  0
  9 10  1  0
 10 11  1  0
 11 12  1  0
 12 13  2  0
 13 14  1  0
 14 15  1  0
 15 16  1  0
 16 17  1  0
 17 18  1  0
 18 19  2  0
 19 20  1  0
 20 21  2  0
 21 22  1  0
 22 23  2  0
 23 24  1  0
 14 25  2  0
 25 26  1  0
 26 27  1  0
 27 28  1  0
 28 29  1  0
 29 30  1  0
 30 31  2  0
 31 32  1  0
 32 33  2  0
 33 34  1  0
 34 35  2  0
 35 36  1  0
 26 37  2  0
  4 38  1  0
 38 39  2  0
 39  1  1  0
 11  7  1  0
 37 12  1  0
 24 15  1  0
 36 27  1  0
 23 18  1  0
 35 30  1  0
  1 40  1  0
  2 41  1  0
  3 42  1  0
  6 43  1  0
  6 44  1  0
  7 45  1  1
  8 46  1  0
  8 47  1  0
  9 48  1  0
  9 49  1  0
 10 50  1  0
 10 51  1  0
 16 52  1  0
 16 53  1  0
 17 54  1  0
 17 55  1  0
 19 56  1  0
 20 57  1  0
 21 58  1  0
 22 59  1  0
 24 60  1  0
 24 61  1  0
 28 62  1  0
 28 63  1  0
 29 64  1  0
 29 65  1  0
 31 66  1  0
 32 67  1  0
 33 68  1  0
 34 69  1  0
 36 70  1  0
 36 71  1  0
 38 72  1  0
 39 73  1  0
M  END
>  <smiles>  (26) 
c1ccc(OC[C@@H]2CCCN2c2nc(N3CCc4ccccc4C3)nc(N3CCc4ccccc4C3)n2)cc1

>  <score_type>  (26) 
oracle

>  <origin>  (26) 
autodockgpu

>  <m_score__min__energy>  (26) 
-11.19

>  <m_primary>  (26) 
energy

>  <rmsd>  (26) 
11.336477837479316

>  <m_score__min__rmsd>  (26) 
11.336477837479316

>  <meeko>  (26) 
{"free_energy": -9.61, "intermolecular_energy": -11.4, "internal_energy": -2.6, "cluster_size": 9, "cluster_id": 5, "rank_in_cluster": 1}

>  <energy>  (26) 
-9.68

>  <cluster_rmsd>  (26) 
1.97

>  <cluster>  (26) 
1

$$$$

     RDKit          3D

 73 79  0  0  0  0  0  0  0  0999 V2000
  140.4590   70.4830  228.3520 C   0  0  0  0  0  0  0  0  0  0  0  0
  141.0580   71.6260  227.8890 C   0  0  0  0  0  0  0  0  0  0  0  0
  141.1520   71.8910  226.5430 C   0  0  0  0  0  0  0  0  0  0  0  0
  140.6380   71.0050  225.5780 C   0  0  0  0  0  0  0  0  0  0  0  0
  140.7840   71.3690  224.2830 O   0  0  0  0  0  0  0  0  0  0  0  0
  140.1610   70.9680  223.1120 C   0  0  0  0  0  0  0  0  0  0  0  0
  138.7870   71.5100  223.0160 C   0  0  2  0  0  0  0  0  0  0  0  0
  137.9070   70.6780  222.0680 C   0  0  0  0  0  0  0  0  0  0  0  0
  136.7660   71.6390  221.8250 C   0  0  0  0  0  0  0  0  0  0  0  0
  137.3210   73.0470  222.0520 C   0  0  0  0  0  0  0  0  0  0  0  0
  138.7300   72.7730  222.2640 N   0  0  0  0  0  0  0  0  0  0  0  0
  139.7990   73.5880  221.8150 C   0  0  0  0  0  0  0  0  0  0  0  0
  139.7130   74.9050  222.0730 N   0  0  0  0  0  0  0  0  0  0  0  0
  140.6710   75.7850  221.6940 C   0  0  0  0  0  0  0  0  0  0  0  0
  140.5800   77.1780  221.9670 N   0  0  0  0  0  0  0  0  0  0  0  0
  139.4180   77.6770  222.7040 C   0  0  0  0  0  0  0  0  0  0  0  0
  139.2870   79.1700  222.5940 C   0  0  0  0  0  0  0  0  0  0  0  0
  140.5890   79.7930  222.9980 C   0  0  0  0  0  0  0  0  0  0  0  0
  140.6520   80.8670  223.8640 C   0  0  0  0  0  0  0  0  0  0  0  0
  141.8800   81.4050  224.2050 C   0  0  0  0  0  0  0  0  0  0  0  0
  143.0210   80.8720  223.6840 C   0  0  0  0  0  0  0  0  0  0  0  0
  142.9660   79.7850  222.8070 C   0  0  0  0  0  0  0  0  0  0  0  0
  141.7420   79.2470  222.4670 C   0  0  0  0  0  0  0  0  0  0  0  0
  141.5870   78.0970  221.5450 C   0  0  0  0  0  0  0  0  0  0  0  0
  141.7300   75.2770  221.0390 N   0  0  0  0  0  0  0  0  0  0  0  0
  141.8480   73.9840  220.7680 C   0  0  0  0  0  0  0  0  0  0  0  0
  142.9960   73.5130  220.0710 N   0  0  0  0  0  0  0  0  0  0  0  0
  144.2910   74.0610  220.4200 C   0  0  0  0  0  0  0  0  0  0  0  0
  145.3240   73.0110  220.7230 C   0  0  0  0  0  0  0  0  0  0  0  0
  145.2360   71.8710  219.7800 C   0  0  0  0  0  0  0  0  0  0  0  0
  146.3090   71.0110  219.6860 C   0  0  0  0  0  0  0  0  0  0  0  0
  146.3280   69.9230  218.8440 C   0  0  0  0  0  0  0  0  0  0  0  0
  145.2000   69.7160  218.0700 C   0  0  0  0  0  0  0  0  0  0  0  0
  144.0960   70.5650  218.1390 C   0  0  0  0  0  0  0  0  0  0  0  0
  144.1220   71.6450  219.0000 C   0  0  0  0  0  0  0  0  0  0  0  0
  142.9170   72.5100  219.0280 C   0  0  0  0  0  0  0  0  0  0  0  0
  140.8720   73.1440  221.1630 N   0  0  0  0  0  0  0  0  0  0  0  0
  140.0450   69.8740  226.0750 C   0  0  0  0  0  0  0  0  0  0  0  0
  139.9480   69.6000  227.4320 C   0  0  0  0  0  0  0  0  0  0  0  0
  140.3895   70.2786  229.4306 H   0  0  0  0  0  0  0  0  0  0  0  0
  141.4722   72.3465  228.6097 H   0  0  0  0  0  0  0  0  0  0  0  0
  141.6413   72.8190  226.2122 H   0  0  0  0  0  0  0  0  0  0  0  0
  140.7478   71.3272  222.2537 H   0  0  0  0  0  0  0  0  0  0  0  0
  140.0998   69.8697  223.1120 H   0  0  0  0  0  0  0  0  0  0  0  0
  138.4726   71.5581  224.0690 H   0  0  0  0  0  0  0  0  0  0  0  0
  138.4359   70.4332  221.1350 H   0  0  0  0  0  0  0  0  0  0  0  0
  137.6017   69.7007  222.4700 H   0  0  0  0  0  0  0  0  0  0  0  0
  136.3986   71.5381  220.7931 H   0  0  0  0  0  0  0  0  0  0  0  0
  135.9235   71.4320  222.5013 H   0  0  0  0  0  0  0  0  0  0  0  0
  137.1644   73.6872  221.1713 H   0  0  0  0  0  0  0  0  0  0  0  0
  136.8407   73.5899  222.8794 H   0  0  0  0  0  0  0  0  0  0  0  0
  138.5099   77.2088  222.2965 H   0  0  0  0  0  0  0  0  0  0  0  0
  139.5513   77.4226  223.7658 H   0  0  0  0  0  0  0  0  0  0  0  0
  139.0499   79.4461  221.5560 H   0  0  0  0  0  0  0  0  0  0  0  0
  138.4791   79.5267  223.2498 H   0  0  0  0  0  0  0  0  0  0  0  0
  139.7280   81.2935  224.2815 H   0  0  0  0  0  0  0  0  0  0  0  0
  141.9354   82.2603  224.8945 H   0  0  0  0  0  0  0  0  0  0  0  0
  143.9960   81.3020  223.9567 H   0  0  0  0  0  0  0  0  0  0  0  0
  143.8921   79.3616  222.3909 H   0  0  0  0  0  0  0  0  0  0  0  0
  141.3181   78.4794  220.5493 H   0  0  0  0  0  0  0  0  0  0  0  0
  142.5437   77.5544  221.5308 H   0  0  0  0  0  0  0  0  0  0  0  0
  144.6501   74.6699  219.5773 H   0  0  0  0  0  0  0  0  0  0  0  0
  144.1551   74.6553  221.3356 H   0  0  0  0  0  0  0  0  0  0  0  0
  146.3245   73.4617  220.6458 H   0  0  0  0  0  0  0  0  0  0  0  0
  145.1413   72.6318  221.7393 H   0  0  0  0  0  0  0  0  0  0  0  0
  147.1916   71.2035  220.3136 H   0  0  0  0  0  0  0  0  0  0  0  0
  147.1971   69.2509  218.7889 H   0  0  0  0  0  0  0  0  0  0  0  0
  145.1734   68.8585  217.3816 H   0  0  0  0  0  0  0  0  0  0  0  0
  143.2115   70.3763  217.5129 H   0  0  0  0  0  0  0  0  0  0  0  0
  142.8191   73.0150  218.0557 H   0  0  0  0  0  0  0  0  0  0  0  0
  142.0444   71.8725  219.2334 H   0  0  0  0  0  0  0  0  0  0  0  0
  139.6253   69.1477  225.3634 H   0  0  0  0  0  0  0  0  0  0  0  0
  139.4610   68.6740  227.7716 H   0  0  0  0  0  0  0  0  0  0  0  0
  1  2  2  0
  2  3  1  0
  3  4  2  0
  4  5  1  0
  5  6  1  0
  6  7  1  0
  7  8  1  0
  8  9  1  0
  9 10  1  0
 10 11  1  0
 11 12  1  0
 12 13  2  0
 13 14  1  0
 14 15  1  0
 15 16  1  0
 16 17  1  0
 17 18  1  0
 18 19  2  0
 19 20  1  0
 20 21  2  0
 21 22  1  0
 22 23  2  0
 23 24  1  0
 14 25  2  0
 25 26  1  0
 26 27  1  0
 27 28  1  0
 28 29  1  0
 29 30  1  0
 30 31  2  0
 31 32  1  0
 32 33  2  0
 33 34  1  0
 34 35  2  0
 35 36  1  0
 26 37  2  0
  4 38  1  0
 38 39  2  0
 39  1  1  0
 11  7  1  0
 37 12  1  0
 24 15  1  0
 36 27  1  0
 23 18  1  0
 35 30  1  0
  1 40  1  0
  2 41  1  0
  3 42  1  0
  6 43  1  0
  6 44  1  0
  7 45  1  1
  8 46  1  0
  8 47  1  0
  9 48  1  0
  9 49  1  0
 10 50  1  0
 10 51  1  0
 16 52  1  0
 16 53  1  0
 17 54  1  0
 17 55  1  0
 19 56  1  0
 20 57  1  0
 21 58  1  0
 22 59  1  0
 24 60  1  0
 24 61  1  0
 28 62  1  0
 28 63  1  0
 29 64  1  0
 29 65  1  0
 31 66  1  0
 32 67  1  0
 33 68  1  0
 34 69  1  0
 36 70  1  0
 36 71  1  0
 38 72  1  0
 39 73  1  0
M  END
>  <smiles>  (27) 
c1ccc(OC[C@@H]2CCCN2c2nc(N3CCc4ccccc4C3)nc(N3CCc4ccccc4C3)n2)cc1

>  <score_type>  (27) 
oracle

>  <origin>  (27) 
autodockgpu

>  <m_score__min__energy>  (27) 
-11.19

>  <m_primary>  (27) 
energy

>  <rmsd>  (27) 
5.686346862343475

>  <m_score__min__rmsd>  (27) 
5.686346862343475

>  <meeko>  (27) 
{"free_energy": -10.76, "intermolecular_energy": -12.55, "internal_energy": -1.59, "cluster_size": 29, "cluster_id": 1, "rank_in_cluster": 9}

>  <energy>  (27) 
-9.34

>  <cluster_rmsd>  (27) 
1.83

>  <cluster>  (27) 
1

$$$$

     RDKit          3D

 73 79  0  0  0  0  0  0  0  0999 V2000
  140.7350   71.7500  228.4000 C   0  0  0  0  0  0  0  0  0  0  0  0
  140.0340   70.6030  228.1290 C   0  0  0  0  0  0  0  0  0  0  0  0
  139.9850   70.0770  226.8590 C   0  0  0  0  0  0  0  0  0  0  0  0
  140.6500   70.6860  225.7800 C   0  0  0  0  0  0  0  0  0  0  0  0
  140.5350   70.0790  224.5760 O   0  0  0  0  0  0  0  0  0  0  0  0
  140.0190   70.4880  223.3570 C   0  0  0  0  0  0  0  0  0  0  0  0
  138.6330   70.9870  223.4940 C   0  0  2  0  0  0  0  0  0  0  0  0
  137.6340   70.1340  222.6940 C   0  0  0  0  0  0  0  0  0  0  0  0
  136.4410   71.0590  222.6540 C   0  0  0  0  0  0  0  0  0  0  0  0
  136.9820   72.4830  222.8040 C   0  0  0  0  0  0  0  0  0  0  0  0
  138.4150   72.2520  222.7790 N   0  0  0  0  0  0  0  0  0  0  0  0
  139.3690   73.1050  222.1710 C   0  0  0  0  0  0  0  0  0  0  0  0
  140.3700   72.5180  221.4910 N   0  0  0  0  0  0  0  0  0  0  0  0
  141.3420   73.2260  220.8680 C   0  0  0  0  0  0  0  0  0  0  0  0
  142.3990   72.6040  220.1490 N   0  0  0  0  0  0  0  0  0  0  0  0
  143.7080   73.2600  220.1120 C   0  0  0  0  0  0  0  0  0  0  0  0
  144.5890   72.6860  219.0400 C   0  0  0  0  0  0  0  0  0  0  0  0
  144.6490   71.1990  219.2170 C   0  0  0  0  0  0  0  0  0  0  0  0
  145.8390   70.5010  219.1710 C   0  0  0  0  0  0  0  0  0  0  0  0
  145.8390   69.1280  219.3410 C   0  0  0  0  0  0  0  0  0  0  0  0
  144.6630   68.4720  219.5540 C   0  0  0  0  0  0  0  0  0  0  0  0
  143.4540   69.1710  219.6010 C   0  0  0  0  0  0  0  0  0  0  0  0
  143.4530   70.5400  219.4320 C   0  0  0  0  0  0  0  0  0  0  0  0
  142.2200   71.3630  219.4660 C   0  0  0  0  0  0  0  0  0  0  0  0
  141.2620   74.5660  220.9600 N   0  0  0  0  0  0  0  0  0  0  0  0
  140.2900   75.1790  221.6200 C   0  0  0  0  0  0  0  0  0  0  0  0
  140.2660   76.6010  221.6760 N   0  0  0  0  0  0  0  0  0  0  0  0
  138.9980   77.2640  221.9120 C   0  0  0  0  0  0  0  0  0  0  0  0
  139.0410   78.2530  223.0440 C   0  0  0  0  0  0  0  0  0  0  0  0
  140.2940   79.0430  223.0310 C   0  0  0  0  0  0  0  0  0  0  0  0
  140.3410   80.2120  223.7590 C   0  0  0  0  0  0  0  0  0  0  0  0
  141.4550   81.0170  223.8150 C   0  0  0  0  0  0  0  0  0  0  0  0
  142.5600   80.6020  223.0930 C   0  0  0  0  0  0  0  0  0  0  0  0
  142.5490   79.4250  222.3450 C   0  0  0  0  0  0  0  0  0  0  0  0
  141.4060   78.6480  222.3190 C   0  0  0  0  0  0  0  0  0  0  0  0
  141.4570   77.4080  221.5060 C   0  0  0  0  0  0  0  0  0  0  0  0
  139.3440   74.4360  222.2250 N   0  0  0  0  0  0  0  0  0  0  0  0
  141.3410   71.8290  226.0860 C   0  0  0  0  0  0  0  0  0  0  0  0
  141.3950   72.3660  227.3640 C   0  0  0  0  0  0  0  0  0  0  0  0
  140.7681   72.1653  229.4180 H   0  0  0  0  0  0  0  0  0  0  0  0
  139.4998   70.0930  228.9442 H   0  0  0  0  0  0  0  0  0  0  0  0
  139.4105   69.1557  226.6828 H   0  0  0  0  0  0  0  0  0  0  0  0
  140.6505   71.2934  222.9538 H   0  0  0  0  0  0  0  0  0  0  0  0
  140.0082   69.6218  222.6791 H   0  0  0  0  0  0  0  0  0  0  0  0
  138.4951   71.0177  224.5849 H   0  0  0  0  0  0  0  0  0  0  0  0
  138.0087   69.9126  221.6838 H   0  0  0  0  0  0  0  0  0  0  0  0
  137.4290   69.1447  223.1290 H   0  0  0  0  0  0  0  0  0  0  0  0
  135.9118   70.9537  221.6954 H   0  0  0  0  0  0  0  0  0  0  0  0
  135.7286   70.8202  223.4574 H   0  0  0  0  0  0  0  0  0  0  0  0
  136.6636   73.1239  221.9686 H   0  0  0  0  0  0  0  0  0  0  0  0
  136.6274   73.0050  223.7050 H   0  0  0  0  0  0  0  0  0  0  0  0
  143.5632   74.3329  219.9174 H   0  0  0  0  0  0  0  0  0  0  0  0
  144.1997   73.0972  221.0824 H   0  0  0  0  0  0  0  0  0  0  0  0
  144.1725   72.9250  218.0504 H   0  0  0  0  0  0  0  0  0  0  0  0
  145.5993   73.1147  219.1139 H   0  0  0  0  0  0  0  0  0  0  0  0
  146.7852   71.0352  218.9996 H   0  0  0  0  0  0  0  0  0  0  0  0
  146.7848   68.5675  219.3044 H   0  0  0  0  0  0  0  0  0  0  0  0
  144.6659   67.3805  219.6904 H   0  0  0  0  0  0  0  0  0  0  0  0
  142.5096   68.6333  219.7716 H   0  0  0  0  0  0  0  0  0  0  0  0
  141.9096   71.5731  218.4318 H   0  0  0  0  0  0  0  0  0  0  0  0
  141.4567   70.7915  220.0144 H   0  0  0  0  0  0  0  0  0  0  0  0
  138.7075   77.7969  220.9946 H   0  0  0  0  0  0  0  0  0  0  0  0
  138.2720   76.4855  222.1893 H   0  0  0  0  0  0  0  0  0  0  0  0
  138.1858   78.9386  222.9516 H   0  0  0  0  0  0  0  0  0  0  0  0
  138.9964   77.6944  223.9906 H   0  0  0  0  0  0  0  0  0  0  0  0
  139.4459   80.5156  224.3216 H   0  0  0  0  0  0  0  0  0  0  0  0
  141.4668   81.9453  224.4050 H   0  0  0  0  0  0  0  0  0  0  0  0
  143.4718   81.2171  223.1094 H   0  0  0  0  0  0  0  0  0  0  0  0
  143.4419   79.1177  221.7808 H   0  0  0  0  0  0  0  0  0  0  0  0
  141.5523   77.6821  220.4450 H   0  0  0  0  0  0  0  0  0  0  0  0
  142.3209   76.8156  221.8418 H   0  0  0  0  0  0  0  0  0  0  0  0
  141.8795   72.3464  225.2784 H   0  0  0  0  0  0  0  0  0  0  0  0
  141.9675   73.2870  227.5485 H   0  0  0  0  0  0  0  0  0  0  0  0
  1  2  2  0
  2  3  1  0
  3  4  2  0
  4  5  1  0
  5  6  1  0
  6  7  1  0
  7  8  1  0
  8  9  1  0
  9 10  1  0
 10 11  1  0
 11 12  1  0
 12 13  2  0
 13 14  1  0
 14 15  1  0
 15 16  1  0
 16 17  1  0
 17 18  1  0
 18 19  2  0
 19 20  1  0
 20 21  2  0
 21 22  1  0
 22 23  2  0
 23 24  1  0
 14 25  2  0
 25 26  1  0
 26 27  1  0
 27 28  1  0
 28 29  1  0
 29 30  1  0
 30 31  2  0
 31 32  1  0
 32 33  2  0
 33 34  1  0
 34 35  2  0
 35 36  1  0
 26 37  2  0
  4 38  1  0
 38 39  2  0
 39  1  1  0
 11  7  1  0
 37 12  1  0
 24 15  1  0
 36 27  1  0
 23 18  1  0
 35 30  1  0
  1 40  1  0
  2 41  1  0
  3 42  1  0
  6 43  1  0
  6 44  1  0
  7 45  1  1
  8 46  1  0
  8 47  1  0
  9 48  1  0
  9 49  1  0
 10 50  1  0
 10 51  1  0
 16 52  1  0
 16 53  1  0
 17 54  1  0
 17 55  1  0
 19 56  1  0
 20 57  1  0
 21 58  1  0
 22 59  1  0
 24 60  1  0
 24 61  1  0
 28 62  1  0
 28 63  1  0
 29 64  1  0
 29 65  1  0
 31 66  1  0
 32 67  1  0
 33 68  1  0
 34 69  1  0
 36 70  1  0
 36 71  1  0
 38 72  1  0
 39 73  1  0
M  END
>  <smiles>  (28) 
c1ccc(OC[C@@H]2CCCN2c2nc(N3CCc4ccccc4C3)nc(N3CCc4ccccc4C3)n2)cc1

>  <score_type>  (28) 
oracle

>  <origin>  (28) 
autodockgpu

>  <m_score__min__energy>  (28) 
-11.19

>  <m_primary>  (28) 
energy

>  <rmsd>  (28) 
9.70157808742293

>  <m_score__min__rmsd>  (28) 
9.70157808742293

>  <meeko>  (28) 
{"free_energy": -10.44, "intermolecular_energy": -12.23, "internal_energy": -1.61, "cluster_size": 29, "cluster_id": 1, "rank_in_cluster": 24}

>  <energy>  (28) 
-8.67

>  <cluster_rmsd>  (28) 
1.79

>  <cluster>  (28) 
1

$$$$

     RDKit          3D

 73 79  0  0  0  0  0  0  0  0999 V2000
  140.9000   69.2930  228.4490 C   0  0  0  0  0  0  0  0  0  0  0  0
  140.8220   70.5330  227.8710 C   0  0  0  0  0  0  0  0  0  0  0  0
  140.5440   70.6830  226.5320 C   0  0  0  0  0  0  0  0  0  0  0  0
  140.3270   69.5740  225.6930 C   0  0  0  0  0  0  0  0  0  0  0  0
  140.0600   69.8400  224.3940 O   0  0  0  0  0  0  0  0  0  0  0  0
  140.0150   71.0130  223.6580 C   0  0  0  0  0  0  0  0  0  0  0  0
  138.6270   71.5020  223.5020 C   0  0  2  0  0  0  0  0  0  0  0  0
  137.7660   70.5300  222.6770 C   0  0  0  0  0  0  0  0  0  0  0  0
  136.5990   71.4200  222.3190 C   0  0  0  0  0  0  0  0  0  0  0  0
  137.1160   72.8600  222.3550 C   0  0  0  0  0  0  0  0  0  0  0  0
  138.5330   72.6530  222.5920 N   0  0  0  0  0  0  0  0  0  0  0  0
  139.5770   73.4310  222.0330 C   0  0  0  0  0  0  0  0  0  0  0  0
  139.5330   74.7570  222.2460 N   0  0  0  0  0  0  0  0  0  0  0  0
  140.4740   75.6040  221.7620 C   0  0  0  0  0  0  0  0  0  0  0  0
  140.4270   77.0080  221.9880 N   0  0  0  0  0  0  0  0  0  0  0  0
  139.2880   77.5670  222.7190 C   0  0  0  0  0  0  0  0  0  0  0  0
  139.2000   79.0570  222.5590 C   0  0  0  0  0  0  0  0  0  0  0  0
  140.5240   79.6550  222.9290 C   0  0  0  0  0  0  0  0  0  0  0  0
  140.6280   80.7550  223.7570 C   0  0  0  0  0  0  0  0  0  0  0  0
  141.8740   81.2680  224.0680 C   0  0  0  0  0  0  0  0  0  0  0  0
  142.9940   80.6840  223.5540 C   0  0  0  0  0  0  0  0  0  0  0  0
  142.8980   79.5700  222.7150 C   0  0  0  0  0  0  0  0  0  0  0  0
  141.6550   79.0580  222.4060 C   0  0  0  0  0  0  0  0  0  0  0  0
  141.4560   77.8810  221.5250 C   0  0  0  0  0  0  0  0  0  0  0  0
  141.4710   75.0520  221.0490 N   0  0  0  0  0  0  0  0  0  0  0  0
  141.5470   73.7480  220.8190 C   0  0  0  0  0  0  0  0  0  0  0  0
  142.6300   73.2300  220.0560 N   0  0  0  0  0  0  0  0  0  0  0  0
  143.8220   74.0410  219.9040 C   0  0  0  0  0  0  0  0  0  0  0  0
  145.0890   73.3190  220.2690 C   0  0  0  0  0  0  0  0  0  0  0  0
  145.0820   71.9220  219.7770 C   0  0  0  0  0  0  0  0  0  0  0  0
  146.2790   71.2440  219.7080 C   0  0  0  0  0  0  0  0  0  0  0  0
  146.3820   69.9440  219.2660 C   0  0  0  0  0  0  0  0  0  0  0  0
  145.2070   69.3230  218.8820 C   0  0  0  0  0  0  0  0  0  0  0  0
  143.9770   69.9790  218.9390 C   0  0  0  0  0  0  0  0  0  0  0  0
  143.9240   71.2840  219.3890 C   0  0  0  0  0  0  0  0  0  0  0  0
  142.5870   71.9250  219.4260 C   0  0  0  0  0  0  0  0  0  0  0  0
  140.5910   72.9420  221.3190 N   0  0  0  0  0  0  0  0  0  0  0  0
  140.4130   68.3510  226.3040 C   0  0  0  0  0  0  0  0  0  0  0  0
  140.6940   68.1920  227.6540 C   0  0  0  0  0  0  0  0  0  0  0  0
  141.1216   69.1823  229.5208 H   0  0  0  0  0  0  0  0  0  0  0  0
  140.9851   71.4272  228.4906 H   0  0  0  0  0  0  0  0  0  0  0  0
  140.4899   71.6958  226.1061 H   0  0  0  0  0  0  0  0  0  0  0  0
  140.6090   71.7818  224.1739 H   0  0  0  0  0  0  0  0  0  0  0  0
  140.4237   70.8087  222.6574 H   0  0  0  0  0  0  0  0  0  0  0  0
  138.3156   71.6797  224.5419 H   0  0  0  0  0  0  0  0  0  0  0  0
  138.2978   70.1793  221.7802 H   0  0  0  0  0  0  0  0  0  0  0  0
  137.4888   69.6059  223.2055 H   0  0  0  0  0  0  0  0  0  0  0  0
  136.2303   71.1748  221.3121 H   0  0  0  0  0  0  0  0  0  0  0  0
  135.7654   71.2814  223.0233 H   0  0  0  0  0  0  0  0  0  0  0  0
  136.9395   73.3743  221.3988 H   0  0  0  0  0  0  0  0  0  0  0  0
  136.6236   73.4946  223.1066 H   0  0  0  0  0  0  0  0  0  0  0  0
  138.3620   77.1126  222.3369 H   0  0  0  0  0  0  0  0  0  0  0  0
  139.4254   77.3454  223.7876 H   0  0  0  0  0  0  0  0  0  0  0  0
  138.9602   79.3043  221.5143 H   0  0  0  0  0  0  0  0  0  0  0  0
  138.4099   79.4596  223.2099 H   0  0  0  0  0  0  0  0  0  0  0  0
  139.7213   81.2225  224.1686 H   0  0  0  0  0  0  0  0  0  0  0  0
  141.9613   82.1440  224.7276 H   0  0  0  0  0  0  0  0  0  0  0  0
  143.9840   81.0941  223.8024 H   0  0  0  0  0  0  0  0  0  0  0  0
  143.8066   79.1053  222.3044 H   0  0  0  0  0  0  0  0  0  0  0  0
  141.1880   78.2368  220.5192 H   0  0  0  0  0  0  0  0  0  0  0  0
  142.3960   77.3097  221.5204 H   0  0  0  0  0  0  0  0  0  0  0  0
  143.8938   74.3611  218.8541 H   0  0  0  0  0  0  0  0  0  0  0  0
  143.7244   74.8922  220.5939 H   0  0  0  0  0  0  0  0  0  0  0  0
  145.9433   73.8499  219.8237 H   0  0  0  0  0  0  0  0  0  0  0  0
  145.1684   73.2969  221.3659 H   0  0  0  0  0  0  0  0  0  0  0  0
  147.1956   71.7656  220.0206 H   0  0  0  0  0  0  0  0  0  0  0  0
  147.3507   69.4249  219.2205 H   0  0  0  0  0  0  0  0  0  0  0  0
  145.2434   68.2842  218.5221 H   0  0  0  0  0  0  0  0  0  0  0  0
  143.0574   69.4615  218.6283 H   0  0  0  0  0  0  0  0  0  0  0  0
  142.2190   72.0395  218.3957 H   0  0  0  0  0  0  0  0  0  0  0  0
  141.9176   71.2830  220.0174 H   0  0  0  0  0  0  0  0  0  0  0  0
  140.2513   67.4498  225.6943 H   0  0  0  0  0  0  0  0  0  0  0  0
  140.7518   67.1828  228.0878 H   0  0  0  0  0  0  0  0  0  0  0  0
  1  2  2  0
  2  3  1  0
  3  4  2  0
  4  5  1  0
  5  6  1  0
  6  7  1  0
  7  8  1  0
  8  9  1  0
  9 10  1  0
 10 11  1  0
 11 12  1  0
 12 13  2  0
 13 14  1  0
 14 15  1  0
 15 16  1  0
 16 17  1  0
 17 18  1  0
 18 19  2  0
 19 20  1  0
 20 21  2  0
 21 22  1  0
 22 23  2  0
 23 24  1  0
 14 25  2  0
 25 26  1  0
 26 27  1  0
 27 28  1  0
 28 29  1  0
 29 30  1  0
 30 31  2  0
 31 32  1  0
 32 33  2  0
 33 34  1  0
 34 35  2  0
 35 36  1  0
 26 37  2  0
  4 38  1  0
 38 39  2  0
 39  1  1  0
 11  7  1  0
 37 12  1  0
 24 15  1  0
 36 27  1  0
 23 18  1  0
 35 30  1  0
  1 40  1  0
  2 41  1  0
  3 42  1  0
  6 43  1  0
  6 44  1  0
  7 45  1  1
  8 46  1  0
  8 47  1  0
  9 48  1  0
  9 49  1  0
 10 50  1  0
 10 51  1  0
 16 52  1  0
 16 53  1  0
 17 54  1  0
 17 55  1  0
 19 56  1  0
 20 57  1  0
 21 58  1  0
 22 59  1  0
 24 60  1  0
 24 61  1  0
 28 62  1  0
 28 63  1  0
 29 64  1  0
 29 65  1  0
 31 66  1  0
 32 67  1  0
 33 68  1  0
 34 69  1  0
 36 70  1  0
 36 71  1  0
 38 72  1  0
 39 73  1  0
M  END
>  <smiles>  (29) 
c1ccc(OC[C@@H]2CCCN2c2nc(N3CCc4ccccc4C3)nc(N3CCc4ccccc4C3)n2)cc1

>  <score_type>  (29) 
oracle

>  <origin>  (29) 
autodockgpu

>  <m_score__min__energy>  (29) 
-11.19

>  <m_primary>  (29) 
energy

>  <rmsd>  (29) 
5.610562513233669

>  <m_score__min__rmsd>  (29) 
5.610562513233669

>  <meeko>  (29) 
{"free_energy": -10.63, "intermolecular_energy": -12.42, "internal_energy": -1.47, "cluster_size": 29, "cluster_id": 1, "rank_in_cluster": 17}

>  <energy>  (29) 
-8.66

>  <cluster_rmsd>  (29) 
1.96

>  <cluster>  (29) 
1

$$$$

     RDKit          3D

 73 79  0  0  0  0  0  0  0  0999 V2000
  141.4940   77.1810  218.5120 C   0  0  0  0  0  0  0  0  0  0  0  0
  142.5650   77.5230  219.2970 C   0  0  0  0  0  0  0  0  0  0  0  0
  143.5550   76.6150  219.5930 C   0  0  0  0  0  0  0  0  0  0  0  0
  143.5180   75.2960  219.1060 C   0  0  0  0  0  0  0  0  0  0  0  0
  144.5460   74.4900  219.4590 O   0  0  0  0  0  0  0  0  0  0  0  0
  144.7000   73.5310  220.4470 C   0  0  0  0  0  0  0  0  0  0  0  0
  144.4450   72.1690  219.9240 C   0  0  2  0  0  0  0  0  0  0  0  0
  144.3480   72.1520  218.3890 C   0  0  0  0  0  0  0  0  0  0  0  0
  143.6900   70.8120  218.1620 C   0  0  0  0  0  0  0  0  0  0  0  0
  142.9080   70.4840  219.4360 C   0  0  0  0  0  0  0  0  0  0  0  0
  143.0780   71.7050  220.2030 N   0  0  0  0  0  0  0  0  0  0  0  0
  142.0930   72.2910  221.0360 C   0  0  0  0  0  0  0  0  0  0  0  0
  141.5770   71.5200  222.0090 N   0  0  0  0  0  0  0  0  0  0  0  0
  140.6300   71.9670  222.8680 C   0  0  0  0  0  0  0  0  0  0  0  0
  140.0850   71.1510  223.8980 N   0  0  0  0  0  0  0  0  0  0  0  0
  139.4720   69.8730  223.5340 C   0  0  0  0  0  0  0  0  0  0  0  0
  138.6390   69.3160  224.6520 C   0  0  0  0  0  0  0  0  0  0  0  0
  139.4770   69.2670  225.8930 C   0  0  0  0  0  0  0  0  0  0  0  0
  139.5180   68.1540  226.7090 C   0  0  0  0  0  0  0  0  0  0  0  0
  140.3090   68.1610  227.8440 C   0  0  0  0  0  0  0  0  0  0  0  0
  141.0440   69.2680  228.1500 C   0  0  0  0  0  0  0  0  0  0  0  0
  141.0080   70.3990  227.3300 C   0  0  0  0  0  0  0  0  0  0  0  0
  140.2200   70.3920  226.1970 C   0  0  0  0  0  0  0  0  0  0  0  0
  140.1200   71.5440  225.2690 C   0  0  0  0  0  0  0  0  0  0  0  0
  140.2210   73.2380  222.7030 N   0  0  0  0  0  0  0  0  0  0  0  0
  140.7070   74.0270  221.7550 C   0  0  0  0  0  0  0  0  0  0  0  0
  140.2300   75.3620  221.6380 N   0  0  0  0  0  0  0  0  0  0  0  0
  138.8580   75.5730  221.2210 C   0  0  0  0  0  0  0  0  0  0  0  0
  138.0850   76.4780  222.1410 C   0  0  0  0  0  0  0  0  0  0  0  0
  138.9030   77.6290  222.5890 C   0  0  0  0  0  0  0  0  0  0  0  0
  138.2610   78.7210  223.1310 C   0  0  0  0  0  0  0  0  0  0  0  0
  138.9280   79.8380  223.5780 C   0  0  0  0  0  0  0  0  0  0  0  0
  140.3060   79.8290  223.4610 C   0  0  0  0  0  0  0  0  0  0  0  0
  140.9900   78.7410  222.9190 C   0  0  0  0  0  0  0  0  0  0  0  0
  140.2780   77.6400  222.4830 C   0  0  0  0  0  0  0  0  0  0  0  0
  141.0620   76.5160  221.9160 C   0  0  0  0  0  0  0  0  0  0  0  0
  141.6480   73.5420  220.9230 N   0  0  0  0  0  0  0  0  0  0  0  0
  142.4340   74.9880  218.3260 C   0  0  0  0  0  0  0  0  0  0  0  0
  141.4320   75.8990  218.0230 C   0  0  0  0  0  0  0  0  0  0  0  0
  140.7063   77.9131  218.2803 H   0  0  0  0  0  0  0  0  0  0  0  0
  142.6339   78.5448  219.6984 H   0  0  0  0  0  0  0  0  0  0  0  0
  144.3974   76.9286  220.2270 H   0  0  0  0  0  0  0  0  0  0  0  0
  145.7284   73.5786  220.8345 H   0  0  0  0  0  0  0  0  0  0  0  0
  143.9716   73.7368  221.2451 H   0  0  0  0  0  0  0  0  0  0  0  0
  145.2582   71.5814  220.3750 H   0  0  0  0  0  0  0  0  0  0  0  0
  143.7255   72.9775  218.0135 H   0  0  0  0  0  0  0  0  0  0  0  0
  145.3095   72.2810  217.8704 H   0  0  0  0  0  0  0  0  0  0  0  0
  143.0070   70.8661  217.3014 H   0  0  0  0  0  0  0  0  0  0  0  0
  144.4385   70.0353  217.9465 H   0  0  0  0  0  0  0  0  0  0  0  0
  141.8473   70.2910  219.2178 H   0  0  0  0  0  0  0  0  0  0  0  0
  143.2545   69.5774  219.9538 H   0  0  0  0  0  0  0  0  0  0  0  0
  138.8307   70.0237  222.6531 H   0  0  0  0  0  0  0  0  0  0  0  0
  140.2780   69.1562  223.3181 H   0  0  0  0  0  0  0  0  0  0  0  0
  137.7648   69.9621  224.8203 H   0  0  0  0  0  0  0  0  0  0  0  0
  138.2902   68.3053  224.3936 H   0  0  0  0  0  0  0  0  0  0  0  0
  138.9231   67.2637  226.4572 H   0  0  0  0  0  0  0  0  0  0  0  0
  140.3449   67.2767  228.4972 H   0  0  0  0  0  0  0  0  0  0  0  0
  141.6725   69.2708  229.0527 H   0  0  0  0  0  0  0  0  0  0  0  0
  141.6032   71.2881  227.5856 H   0  0  0  0  0  0  0  0  0  0  0  0
  139.1992   72.1005  225.4982 H   0  0  0  0  0  0  0  0  0  0  0  0
  141.0184   72.1623  225.4123 H   0  0  0  0  0  0  0  0  0  0  0  0
  138.8642   76.0206  220.2162 H   0  0  0  0  0  0  0  0  0  0  0  0
  138.3599   74.5924  221.2371 H   0  0  0  0  0  0  0  0  0  0  0  0
  137.1992   76.8553  221.6090 H   0  0  0  0  0  0  0  0  0  0  0  0
  137.7931   75.8976  223.0286 H   0  0  0  0  0  0  0  0  0  0  0  0
  137.1641   78.6986  223.2099 H   0  0  0  0  0  0  0  0  0  0  0  0
  138.3913   80.6967  224.0077 H   0  0  0  0  0  0  0  0  0  0  0  0
  140.8780   80.7035  223.8046 H   0  0  0  0  0  0  0  0  0  0  0  0
  142.0870   78.7593  222.8393 H   0  0  0  0  0  0  0  0  0  0  0  0
  141.5335   76.8483  220.9794 H   0  0  0  0  0  0  0  0  0  0  0  0
  141.8184   76.2199  222.6578 H   0  0  0  0  0  0  0  0  0  0  0  0
  142.3543   73.9687  217.9203 H   0  0  0  0  0  0  0  0  0  0  0  0
  140.5861   75.5937  217.3896 H   0  0  0  0  0  0  0  0  0  0  0  0
  1  2  2  0
  2  3  1  0
  3  4  2  0
  4  5  1  0
  5  6  1  0
  6  7  1  0
  7  8  1  0
  8  9  1  0
  9 10  1  0
 10 11  1  0
 11 12  1  0
 12 13  2  0
 13 14  1  0
 14 15  1  0
 15 16  1  0
 16 17  1  0
 17 18  1  0
 18 19  2  0
 19 20  1  0
 20 21  2  0
 21 22  1  0
 22 23  2  0
 23 24  1  0
 14 25  2  0
 25 26  1  0
 26 27  1  0
 27 28  1  0
 28 29  1  0
 29 30  1  0
 30 31  2  0
 31 32  1  0
 32 33  2  0
 33 34  1  0
 34 35  2  0
 35 36  1  0
 26 37  2  0
  4 38  1  0
 38 39  2  0
 39  1  1  0
 11  7  1  0
 37 12  1  0
 24 15  1  0
 36 27  1  0
 23 18  1  0
 35 30  1  0
  1 40  1  0
  2 41  1  0
  3 42  1  0
  6 43  1  0
  6 44  1  0
  7 45  1  6
  8 46  1  0
  8 47  1  0
  9 48  1  0
  9 49  1  0
 10 50  1  0
 10 51  1  0
 16 52  1  0
 16 53  1  0
 17 54  1  0
 17 55  1  0
 19 56  1  0
 20 57  1  0
 21 58  1  0
 22 59  1  0
 24 60  1  0
 24 61  1  0
 28 62  1  0
 28 63  1  0
 29 64  1  0
 29 65  1  0
 31 66  1  0
 32 67  1  0
 33 68  1  0
 34 69  1  0
 36 70  1  0
 36 71  1  0
 38 72  1  0
 39 73  1  0
M  END
>  <smiles>  (30) 
c1ccc(OC[C@@H]2CCCN2c2nc(N3CCc4ccccc4C3)nc(N3CCc4ccccc4C3)n2)cc1

>  <score_type>  (30) 
oracle

>  <origin>  (30) 
autodockgpu

>  <m_score__min__energy>  (30) 
-11.19

>  <m_primary>  (30) 
energy

>  <rmsd>  (30) 
11.410971174875842

>  <m_score__min__rmsd>  (30) 
11.410971174875842

>  <meeko>  (30) 
{"free_energy": -9.61, "intermolecular_energy": -11.4, "internal_energy": -2.64, "cluster_size": 7, "cluster_id": 4, "rank_in_cluster": 2}

>  <energy>  (30) 
-10.54

>  <cluster_rmsd>  (30) 
0.0

>  <cluster>  (30) 
2

$$$$

     RDKit          3D

 73 79  0  0  0  0  0  0  0  0999 V2000
  142.1030   81.3480  223.6370 C   0  0  0  0  0  0  0  0  0  0  0  0
  142.9650   80.3640  223.2260 C   0  0  0  0  0  0  0  0  0  0  0  0
  142.5310   79.0780  223.0030 C   0  0  0  0  0  0  0  0  0  0  0  0
  141.1860   78.7110  223.1850 C   0  0  0  0  0  0  0  0  0  0  0  0
  140.8710   77.4190  222.9340 O   0  0  0  0  0  0  0  0  0  0  0  0
  141.1020   76.5820  221.8550 C   0  0  0  0  0  0  0  0  0  0  0  0
  139.9060   76.4720  220.9890 C   0  0  2  0  0  0  0  0  0  0  0  0
  138.6710   77.1260  221.6310 C   0  0  0  0  0  0  0  0  0  0  0  0
  137.5660   76.5260  220.7940 C   0  0  0  0  0  0  0  0  0  0  0  0
  138.0970   75.1970  220.2510 C   0  0  0  0  0  0  0  0  0  0  0  0
  139.3800   75.1010  220.9250 N   0  0  0  0  0  0  0  0  0  0  0  0
  139.9620   73.9020  221.4070 C   0  0  0  0  0  0  0  0  0  0  0  0
  141.0050   73.4080  220.7180 N   0  0  0  0  0  0  0  0  0  0  0  0
  141.6440   72.2700  221.0810 C   0  0  0  0  0  0  0  0  0  0  0  0
  142.7480   71.7480  220.3520 N   0  0  0  0  0  0  0  0  0  0  0  0
  144.0440   72.4210  220.4580 C   0  0  0  0  0  0  0  0  0  0  0  0
  144.9890   71.9840  219.3750 C   0  0  0  0  0  0  0  0  0  0  0  0
  145.0670   70.4880  219.3850 C   0  0  0  0  0  0  0  0  0  0  0  0
  146.2710   69.8150  219.3220 C   0  0  0  0  0  0  0  0  0  0  0  0
  146.2880   68.4310  219.3340 C   0  0  0  0  0  0  0  0  0  0  0  0
  145.1150   67.7410  219.4090 C   0  0  0  0  0  0  0  0  0  0  0  0
  143.8920   68.4140  219.4720 C   0  0  0  0  0  0  0  0  0  0  0  0
  143.8750   69.7940  219.4610 C   0  0  0  0  0  0  0  0  0  0  0  0
  142.6270   70.5920  219.5240 C   0  0  0  0  0  0  0  0  0  0  0  0
  141.1830   71.6450  222.1790 N   0  0  0  0  0  0  0  0  0  0  0  0
  140.1570   72.1030  222.8830 C   0  0  0  0  0  0  0  0  0  0  0  0
  139.7210   71.3920  224.0350 N   0  0  0  0  0  0  0  0  0  0  0  0
  138.5650   70.5250  223.9190 C   0  0  0  0  0  0  0  0  0  0  0  0
  138.8090   69.1300  224.4240 C   0  0  0  0  0  0  0  0  0  0  0  0
  139.6030   69.1330  225.6740 C   0  0  0  0  0  0  0  0  0  0  0  0
  139.6110   67.9950  226.4510 C   0  0  0  0  0  0  0  0  0  0  0  0
  140.3160   67.8940  227.6280 C   0  0  0  0  0  0  0  0  0  0  0  0
  141.0380   69.0080  228.0190 C   0  0  0  0  0  0  0  0  0  0  0  0
  141.0530   70.1770  227.2580 C   0  0  0  0  0  0  0  0  0  0  0  0
  140.3300   70.2310  226.0820 C   0  0  0  0  0  0  0  0  0  0  0  0
  140.3870   71.5020  225.3180 C   0  0  0  0  0  0  0  0  0  0  0  0
  139.5510   73.2380  222.4870 N   0  0  0  0  0  0  0  0  0  0  0  0
  140.3520   79.7180  223.5960 C   0  0  0  0  0  0  0  0  0  0  0  0
  140.7830   81.0170  223.8230 C   0  0  0  0  0  0  0  0  0  0  0  0
  142.4587   82.3739  223.8128 H   0  0  0  0  0  0  0  0  0  0  0  0
  144.0263   80.6083  223.0713 H   0  0  0  0  0  0  0  0  0  0  0  0
  143.2544   78.3175  222.6740 H   0  0  0  0  0  0  0  0  0  0  0  0
  141.9368   76.9845  221.2624 H   0  0  0  0  0  0  0  0  0  0  0  0
  141.3431   75.5802  222.2401 H   0  0  0  0  0  0  0  0  0  0  0  0
  140.2561   76.9014  220.0387 H   0  0  0  0  0  0  0  0  0  0  0  0
  138.5716   76.8496  222.6911 H   0  0  0  0  0  0  0  0  0  0  0  0
  138.6904   78.2258  221.6391 H   0  0  0  0  0  0  0  0  0  0  0  0
  136.6731   76.3530  221.4128 H   0  0  0  0  0  0  0  0  0  0  0  0
  137.2791   77.2016  219.9747 H   0  0  0  0  0  0  0  0  0  0  0  0
  137.4370   74.3597  220.5220 H   0  0  0  0  0  0  0  0  0  0  0  0
  138.1624   75.1548  219.1538 H   0  0  0  0  0  0  0  0  0  0  0  0
  143.8889   73.5071  220.3785 H   0  0  0  0  0  0  0  0  0  0  0  0
  144.4891   72.1555  221.4282 H   0  0  0  0  0  0  0  0  0  0  0  0
  144.6189   72.3294  218.3984 H   0  0  0  0  0  0  0  0  0  0  0  0
  145.9863   72.4139  219.5500 H   0  0  0  0  0  0  0  0  0  0  0  0
  147.2145   70.3774  219.2624 H   0  0  0  0  0  0  0  0  0  0  0  0
  147.2445   67.8901  219.2832 H   0  0  0  0  0  0  0  0  0  0  0  0
  145.1313   66.6412  219.4201 H   0  0  0  0  0  0  0  0  0  0  0  0
  142.9503   67.8484  219.5299 H   0  0  0  0  0  0  0  0  0  0  0  0
  142.3655   70.9155  218.5057 H   0  0  0  0  0  0  0  0  0  0  0  0
  141.8477   69.9517  219.9630 H   0  0  0  0  0  0  0  0  0  0  0  0
  137.7398   70.9655  224.4978 H   0  0  0  0  0  0  0  0  0  0  0  0
  138.3268   70.4446  222.8481 H   0  0  0  0  0  0  0  0  0  0  0  0
  137.8403   68.6461  224.6177 H   0  0  0  0  0  0  0  0  0  0  0  0
  139.3764   68.5814  223.6577 H   0  0  0  0  0  0  0  0  0  0  0  0
  139.0261   67.1264  226.1143 H   0  0  0  0  0  0  0  0  0  0  0  0
  140.3063   66.9727  228.2290 H   0  0  0  0  0  0  0  0  0  0  0  0
  141.6153   68.9707  228.9546 H   0  0  0  0  0  0  0  0  0  0  0  0
  141.6356   71.0485  227.5914 H   0  0  0  0  0  0  0  0  0  0  0  0
  139.8978   72.2926  225.9060 H   0  0  0  0  0  0  0  0  0  0  0  0
  141.4446   71.7417  225.1336 H   0  0  0  0  0  0  0  0  0  0  0  0
  139.2886   79.4848  223.7536 H   0  0  0  0  0  0  0  0  0  0  0  0
  140.0661   81.7834  224.1526 H   0  0  0  0  0  0  0  0  0  0  0  0
  1  2  2  0
  2  3  1  0
  3  4  2  0
  4  5  1  0
  5  6  1  0
  6  7  1  0
  7  8  1  0
  8  9  1  0
  9 10  1  0
 10 11  1  0
 11 12  1  0
 12 13  2  0
 13 14  1  0
 14 15  1  0
 15 16  1  0
 16 17  1  0
 17 18  1  0
 18 19  2  0
 19 20  1  0
 20 21  2  0
 21 22  1  0
 22 23  2  0
 23 24  1  0
 14 25  2  0
 25 26  1  0
 26 27  1  0
 27 28  1  0
 28 29  1  0
 29 30  1  0
 30 31  2  0
 31 32  1  0
 32 33  2  0
 33 34  1  0
 34 35  2  0
 35 36  1  0
 26 37  2  0
  4 38  1  0
 38 39  2  0
 39  1  1  0
 11  7  1  0
 37 12  1  0
 24 15  1  0
 36 27  1  0
 23 18  1  0
 35 30  1  0
  1 40  1  0
  2 41  1  0
  3 42  1  0
  6 43  1  0
  6 44  1  0
  7 45  1  6
  8 46  1  0
  8 47  1  0
  9 48  1  0
  9 49  1  0
 10 50  1  0
 10 51  1  0
 16 52  1  0
 16 53  1  0
 17 54  1  0
 17 55  1  0
 19 56  1  0
 20 57  1  0
 21 58  1  0
 22 59  1  0
 24 60  1  0
 24 61  1  0
 28 62  1  0
 28 63  1  0
 29 64  1  0
 29 65  1  0
 31 66  1  0
 32 67  1  0
 33 68  1  0
 34 69  1  0
 36 70  1  0
 36 71  1  0
 38 72  1  0
 39 73  1  0
M  END
>  <smiles>  (31) 
c1ccc(OC[C@@H]2CCCN2c2nc(N3CCc4ccccc4C3)nc(N3CCc4ccccc4C3)n2)cc1

>  <score_type>  (31) 
oracle

>  <origin>  (31) 
autodockgpu

>  <m_score__min__energy>  (31) 
-11.19

>  <m_primary>  (31) 
energy

>  <rmsd>  (31) 
10.451910113171188

>  <m_score__min__rmsd>  (31) 
10.451910113171188

>  <meeko>  (31) 
{"free_energy": -10.94, "intermolecular_energy": -12.73, "internal_energy": -1.51, "cluster_size": 29, "cluster_id": 1, "rank_in_cluster": 5}

>  <energy>  (31) 
-10.46

>  <cluster_rmsd>  (31) 
0.13

>  <cluster>  (31) 
2

$$$$

     RDKit          3D

 73 79  0  0  0  0  0  0  0  0999 V2000
  145.1080   66.0450  218.6510 C   0  0  0  0  0  0  0  0  0  0  0  0
  145.8180   67.0380  219.2750 C   0  0  0  0  0  0  0  0  0  0  0  0
  145.2040   68.1830  219.7250 C   0  0  0  0  0  0  0  0  0  0  0  0
  143.8210   68.3910  219.5690 C   0  0  0  0  0  0  0  0  0  0  0  0
  143.3240   69.5530  220.0530 O   0  0  0  0  0  0  0  0  0  0  0  0
  142.7120   70.6410  219.4530 C   0  0  0  0  0  0  0  0  0  0  0  0
  143.6970   71.6830  219.0870 C   0  0  2  0  0  0  0  0  0  0  0  0
  145.0960   71.3730  219.6480 C   0  0  0  0  0  0  0  0  0  0  0  0
  145.7600   72.7230  219.5130 C   0  0  0  0  0  0  0  0  0  0  0  0
  144.6430   73.7690  219.5350 C   0  0  0  0  0  0  0  0  0  0  0  0
  143.4810   72.9440  219.8130 N   0  0  0  0  0  0  0  0  0  0  0  0
  142.3850   73.3230  220.6270 C   0  0  0  0  0  0  0  0  0  0  0  0
  141.8410   72.3710  221.4040 N   0  0  0  0  0  0  0  0  0  0  0  0
  140.7910   72.6110  222.2240 C   0  0  0  0  0  0  0  0  0  0  0  0
  140.2160   71.6030  223.0470 N   0  0  0  0  0  0  0  0  0  0  0  0
  139.5530   70.4650  222.4070 C   0  0  0  0  0  0  0  0  0  0  0  0
  138.7010   69.6990  223.3780 C   0  0  0  0  0  0  0  0  0  0  0  0
  139.5390   69.3370  224.5660 C   0  0  0  0  0  0  0  0  0  0  0  0
  139.5380   68.0660  225.1060 C   0  0  0  0  0  0  0  0  0  0  0  0
  140.3310   67.7830  226.2040 C   0  0  0  0  0  0  0  0  0  0  0  0
  141.1100   68.7620  226.7460 C   0  0  0  0  0  0  0  0  0  0  0  0
  141.1170   70.0510  226.2060 C   0  0  0  0  0  0  0  0  0  0  0  0
  140.3270   70.3330  225.1100 C   0  0  0  0  0  0  0  0  0  0  0  0
  140.2700   71.6700  224.4710 C   0  0  0  0  0  0  0  0  0  0  0  0
  140.3060   73.8660  222.2290 N   0  0  0  0  0  0  0  0  0  0  0  0
  140.8170   74.8310  221.4770 C   0  0  0  0  0  0  0  0  0  0  0  0
  140.2560   76.1370  221.5320 N   0  0  0  0  0  0  0  0  0  0  0  0
  138.8130   76.2720  221.5530 C   0  0  0  0  0  0  0  0  0  0  0  0
  138.3080   77.1320  222.6780 C   0  0  0  0  0  0  0  0  0  0  0  0
  139.1610   78.3260  222.8780 C   0  0  0  0  0  0  0  0  0  0  0  0
  138.6560   79.3810  223.6060 C   0  0  0  0  0  0  0  0  0  0  0  0
  139.3660   80.5340  223.8500 C   0  0  0  0  0  0  0  0  0  0  0  0
  140.6430   80.6010  223.3220 C   0  0  0  0  0  0  0  0  0  0  0  0
  141.1880   79.5530  222.5800 C   0  0  0  0  0  0  0  0  0  0  0  0
  140.4360   78.4150  222.3610 C   0  0  0  0  0  0  0  0  0  0  0  0
  141.0710   77.3360  221.5650 C   0  0  0  0  0  0  0  0  0  0  0  0
  141.8620   74.5480  220.6760 N   0  0  0  0  0  0  0  0  0  0  0  0
  143.1430   67.3780  218.9430 C   0  0  0  0  0  0  0  0  0  0  0  0
  143.7560   66.2210  218.4850 C   0  0  0  0  0  0  0  0  0  0  0  0
  145.6073   65.1325  218.2932 H   0  0  0  0  0  0  0  0  0  0  0  0
  146.9017   66.9162  219.4187 H   0  0  0  0  0  0  0  0  0  0  0  0
  145.8096   68.9566  220.2198 H   0  0  0  0  0  0  0  0  0  0  0  0
  142.1942   70.3031  218.5432 H   0  0  0  0  0  0  0  0  0  0  0  0
  141.9999   71.0755  220.1701 H   0  0  0  0  0  0  0  0  0  0  0  0
  143.6013   71.7309  217.9922 H   0  0  0  0  0  0  0  0  0  0  0  0
  145.0484   71.0483  220.6979 H   0  0  0  0  0  0  0  0  0  0  0  0
  145.6212   70.5536  219.1354 H   0  0  0  0  0  0  0  0  0  0  0  0
  146.4520   72.8902  220.3515 H   0  0  0  0  0  0  0  0  0  0  0  0
  146.3413   72.7857  218.5812 H   0  0  0  0  0  0  0  0  0  0  0  0
  144.8058   74.5144  220.3274 H   0  0  0  0  0  0  0  0  0  0  0  0
  144.5632   74.3602  218.6108 H   0  0  0  0  0  0  0  0  0  0  0  0
  138.9164   70.8367  221.5906 H   0  0  0  0  0  0  0  0  0  0  0  0
  140.3300   69.7869  222.0243 H   0  0  0  0  0  0  0  0  0  0  0  0
  137.8529   70.3219  223.6986 H   0  0  0  0  0  0  0  0  0  0  0  0
  138.3127   68.7876  222.8999 H   0  0  0  0  0  0  0  0  0  0  0  0
  138.9079   67.2800  224.6641 H   0  0  0  0  0  0  0  0  0  0  0  0
  140.3329   66.7722  226.6379 H   0  0  0  0  0  0  0  0  0  0  0  0
  141.7403   68.5346  227.6184 H   0  0  0  0  0  0  0  0  0  0  0  0
  141.7474   70.8349  226.6511 H   0  0  0  0  0  0  0  0  0  0  0  0
  139.3725   72.1935  224.8320 H   0  0  0  0  0  0  0  0  0  0  0  0
  141.1925   72.2047  224.7415 H   0  0  0  0  0  0  0  0  0  0  0  0
  138.4912   76.7195  220.6010 H   0  0  0  0  0  0  0  0  0  0  0  0
  138.3958   75.2653  221.7026 H   0  0  0  0  0  0  0  0  0  0  0  0
  137.2843   77.4599  222.4446 H   0  0  0  0  0  0  0  0  0  0  0  0
  138.3290   76.5360  223.6023 H   0  0  0  0  0  0  0  0  0  0  0  0
  137.6368   79.2976  224.0114 H   0  0  0  0  0  0  0  0  0  0  0  0
  138.9394   81.3615  224.4359 H   0  0  0  0  0  0  0  0  0  0  0  0
  141.2452   81.5057  223.4920 H   0  0  0  0  0  0  0  0  0  0  0  0
  142.2069   79.6320  222.1731 H   0  0  0  0  0  0  0  0  0  0  0  0
  141.2191   77.6938  220.5354 H   0  0  0  0  0  0  0  0  0  0  0  0
  142.0309   77.0827  222.0388 H   0  0  0  0  0  0  0  0  0  0  0  0
  142.0584   67.4878  218.7963 H   0  0  0  0  0  0  0  0  0  0  0  0
  143.1581   65.4429  217.9879 H   0  0  0  0  0  0  0  0  0  0  0  0
  1  2  2  0
  2  3  1  0
  3  4  2  0
  4  5  1  0
  5  6  1  0
  6  7  1  0
  7  8  1  0
  8  9  1  0
  9 10  1  0
 10 11  1  0
 11 12  1  0
 12 13  2  0
 13 14  1  0
 14 15  1  0
 15 16  1  0
 16 17  1  0
 17 18  1  0
 18 19  2  0
 19 20  1  0
 20 21  2  0
 21 22  1  0
 22 23  2  0
 23 24  1  0
 14 25  2  0
 25 26  1  0
 26 27  1  0
 27 28  1  0
 28 29  1  0
 29 30  1  0
 30 31  2  0
 31 32  1  0
 32 33  2  0
 33 34  1  0
 34 35  2  0
 35 36  1  0
 26 37  2  0
  4 38  1  0
 38 39  2  0
 39  1  1  0
 11  7  1  0
 37 12  1  0
 24 15  1  0
 36 27  1  0
 23 18  1  0
 35 30  1  0
  1 40  1  0
  2 41  1  0
  3 42  1  0
  6 43  1  0
  6 44  1  0
  7 45  1  6
  8 46  1  0
  8 47  1  0
  9 48  1  0
  9 49  1  0
 10 50  1  0
 10 51  1  0
 16 52  1  0
 16 53  1  0
 17 54  1  0
 17 55  1  0
 19 56  1  0
 20 57  1  0
 21 58  1  0
 22 59  1  0
 24 60  1  0
 24 61  1  0
 28 62  1  0
 28 63  1  0
 29 64  1  0
 29 65  1  0
 31 66  1  0
 32 67  1  0
 33 68  1  0
 34 69  1  0
 36 70  1  0
 36 71  1  0
 38 72  1  0
 39 73  1  0
M  END
>  <smiles>  (32) 
c1ccc(OC[C@@H]2CCCN2c2nc(N3CCc4ccccc4C3)nc(N3CCc4ccccc4C3)n2)cc1

>  <score_type>  (32) 
oracle

>  <origin>  (32) 
autodockgpu

>  <m_score__min__energy>  (32) 
-11.19

>  <m_primary>  (32) 
energy

>  <rmsd>  (32) 
10.783894132391117

>  <m_score__min__rmsd>  (32) 
10.783894132391117

>  <meeko>  (32) 
{"free_energy": -10.54, "intermolecular_energy": -12.33, "internal_energy": -1.41, "cluster_size": 29, "cluster_id": 1, "rank_in_cluster": 21}

>  <energy>  (32) 
-10.12

>  <cluster_rmsd>  (32) 
0.0

>  <cluster>  (32) 
3

$$$$

     RDKit          3D

 73 79  0  0  0  0  0  0  0  0999 V2000
  140.4130   70.9760  228.3390 C   0  0  0  0  0  0  0  0  0  0  0  0
  141.0430   71.9740  227.6410 C   0  0  0  0  0  0  0  0  0  0  0  0
  141.1440   71.9360  226.2700 C   0  0  0  0  0  0  0  0  0  0  0  0
  140.6080   70.8740  225.5190 C   0  0  0  0  0  0  0  0  0  0  0  0
  140.7640   70.9410  224.1760 O   0  0  0  0  0  0  0  0  0  0  0  0
  139.9260   70.6560  223.1110 C   0  0  0  0  0  0  0  0  0  0  0  0
  138.6010   71.2930  223.2780 C   0  0  2  0  0  0  0  0  0  0  0  0
  137.5170   70.5930  222.4410 C   0  0  0  0  0  0  0  0  0  0  0  0
  136.4300   71.6410  222.4510 C   0  0  0  0  0  0  0  0  0  0  0  0
  137.1210   72.9900  222.6670 C   0  0  0  0  0  0  0  0  0  0  0  0
  138.5210   72.6080  222.6250 N   0  0  0  0  0  0  0  0  0  0  0  0
  139.5620   73.3810  222.0550 C   0  0  0  0  0  0  0  0  0  0  0  0
  139.5210   74.7090  222.2610 N   0  0  0  0  0  0  0  0  0  0  0  0
  140.4590   75.5520  221.7670 C   0  0  0  0  0  0  0  0  0  0  0  0
  140.4160   76.9570  221.9860 N   0  0  0  0  0  0  0  0  0  0  0  0
  139.2770   77.5220  222.7110 C   0  0  0  0  0  0  0  0  0  0  0  0
  139.1940   79.0130  222.5440 C   0  0  0  0  0  0  0  0  0  0  0  0
  140.5180   79.6090  222.9140 C   0  0  0  0  0  0  0  0  0  0  0  0
  140.6240   80.7120  223.7360 C   0  0  0  0  0  0  0  0  0  0  0  0
  141.8710   81.2240  224.0470 C   0  0  0  0  0  0  0  0  0  0  0  0
  142.9900   80.6340  223.5390 C   0  0  0  0  0  0  0  0  0  0  0  0
  142.8930   79.5160  222.7050 C   0  0  0  0  0  0  0  0  0  0  0  0
  141.6490   79.0050  222.3950 C   0  0  0  0  0  0  0  0  0  0  0  0
  141.4490   77.8250  221.5200 C   0  0  0  0  0  0  0  0  0  0  0  0
  141.4510   74.9950  221.0500 N   0  0  0  0  0  0  0  0  0  0  0  0
  141.5240   73.6900  220.8260 C   0  0  0  0  0  0  0  0  0  0  0  0
  142.6010   73.1660  220.0590 N   0  0  0  0  0  0  0  0  0  0  0  0
  143.7770   73.9910  219.8610 C   0  0  0  0  0  0  0  0  0  0  0  0
  145.0620   73.2990  220.2240 C   0  0  0  0  0  0  0  0  0  0  0  0
  145.0690   71.8880  219.7720 C   0  0  0  0  0  0  0  0  0  0  0  0
  146.2750   71.2270  219.7000 C   0  0  0  0  0  0  0  0  0  0  0  0
  146.3900   69.9170  219.2950 C   0  0  0  0  0  0  0  0  0  0  0  0
  145.2180   69.2670  218.9500 C   0  0  0  0  0  0  0  0  0  0  0  0
  143.9790   69.9050  219.0100 C   0  0  0  0  0  0  0  0  0  0  0  0
  143.9130   71.2210  219.4240 C   0  0  0  0  0  0  0  0  0  0  0  0
  142.5670   71.8430  219.4670 C   0  0  0  0  0  0  0  0  0  0  0  0
  140.5700   72.8880  221.3360 N   0  0  0  0  0  0  0  0  0  0  0  0
  139.9860   69.8940  226.2480 C   0  0  0  0  0  0  0  0  0  0  0  0
  139.8800   69.9260  227.6310 C   0  0  0  0  0  0  0  0  0  0  0  0
  140.3364   71.0149  229.4356 H   0  0  0  0  0  0  0  0  0  0  0  0
  141.4769   72.8231  228.1894 H   0  0  0  0  0  0  0  0  0  0  0  0
  141.6569   72.7568  225.7473 H   0  0  0  0  0  0  0  0  0  0  0  0
  140.3870   71.0277  222.1840 H   0  0  0  0  0  0  0  0  0  0  0  0
  139.7820   69.5663  223.0671 H   0  0  0  0  0  0  0  0  0  0  0  0
  138.4659   71.2844  224.3696 H   0  0  0  0  0  0  0  0  0  0  0  0
  137.8671   70.3829  221.4196 H   0  0  0  0  0  0  0  0  0  0  0  0
  137.2063   69.6113  222.8280 H   0  0  0  0  0  0  0  0  0  0  0  0
  135.8932   71.6395  221.4909 H   0  0  0  0  0  0  0  0  0  0  0  0
  135.6953   71.4413  223.2450 H   0  0  0  0  0  0  0  0  0  0  0  0
  136.8742   73.7009  221.8647 H   0  0  0  0  0  0  0  0  0  0  0  0
  136.8237   73.5030  223.5935 H   0  0  0  0  0  0  0  0  0  0  0  0
  138.3508   77.0686  222.3282 H   0  0  0  0  0  0  0  0  0  0  0  0
  139.4105   77.3044  223.7810 H   0  0  0  0  0  0  0  0  0  0  0  0
  138.9573   79.2563  221.4977 H   0  0  0  0  0  0  0  0  0  0  0  0
  138.4038   79.4206  223.1916 H   0  0  0  0  0  0  0  0  0  0  0  0
  139.7178   81.1839  224.1437 H   0  0  0  0  0  0  0  0  0  0  0  0
  141.9592   82.1036  224.7016 H   0  0  0  0  0  0  0  0  0  0  0  0
  143.9806   81.0422  223.7881 H   0  0  0  0  0  0  0  0  0  0  0  0
  143.8015   79.0472  222.2989 H   0  0  0  0  0  0  0  0  0  0  0  0
  141.1841   78.1764  220.5119 H   0  0  0  0  0  0  0  0  0  0  0  0
  142.3875   77.2511  221.5198 H   0  0  0  0  0  0  0  0  0  0  0  0
  143.8248   74.2808  218.8009 H   0  0  0  0  0  0  0  0  0  0  0  0
  143.6782   74.8611  220.5267 H   0  0  0  0  0  0  0  0  0  0  0  0
  145.8999   73.8301  219.7488 H   0  0  0  0  0  0  0  0  0  0  0  0
  145.1605   73.3095  221.3195 H   0  0  0  0  0  0  0  0  0  0  0  0
  147.1890   71.7717  219.9793 H   0  0  0  0  0  0  0  0  0  0  0  0
  147.3657   69.4112  219.2478 H   0  0  0  0  0  0  0  0  0  0  0  0
  145.2647   68.2189  218.6195 H   0  0  0  0  0  0  0  0  0  0  0  0
  143.0626   69.3648  218.7301 H   0  0  0  0  0  0  0  0  0  0  0  0
  142.1792   71.9226  218.4407 H   0  0  0  0  0  0  0  0  0  0  0  0
  141.9181   71.2083  220.0883 H   0  0  0  0  0  0  0  0  0  0  0  0
  139.5492   69.0398  225.7099 H   0  0  0  0  0  0  0  0  0  0  0  0
  139.3684   69.1094  228.1615 H   0  0  0  0  0  0  0  0  0  0  0  0
  1  2  2  0
  2  3  1  0
  3  4  2  0
  4  5  1  0
  5  6  1  0
  6  7  1  0
  7  8  1  0
  8  9  1  0
  9 10  1  0
 10 11  1  0
 11 12  1  0
 12 13  2  0
 13 14  1  0
 14 15  1  0
 15 16  1  0
 16 17  1  0
 17 18  1  0
 18 19  2  0
 19 20  1  0
 20 21  2  0
 21 22  1  0
 22 23  2  0
 23 24  1  0
 14 25  2  0
 25 26  1  0
 26 27  1  0
 27 28  1  0
 28 29  1  0
 29 30  1  0
 30 31  2  0
 31 32  1  0
 32 33  2  0
 33 34  1  0
 34 35  2  0
 35 36  1  0
 26 37  2  0
  4 38  1  0
 38 39  2  0
 39  1  1  0
 11  7  1  0
 37 12  1  0
 24 15  1  0
 36 27  1  0
 23 18  1  0
 35 30  1  0
  1 40  1  0
  2 41  1  0
  3 42  1  0
  6 43  1  0
  6 44  1  0
  7 45  1  1
  8 46  1  0
  8 47  1  0
  9 48  1  0
  9 49  1  0
 10 50  1  0
 10 51  1  0
 16 52  1  0
 16 53  1  0
 17 54  1  0
 17 55  1  0
 19 56  1  0
 20 57  1  0
 21 58  1  0
 22 59  1  0
 24 60  1  0
 24 61  1  0
 28 62  1  0
 28 63  1  0
 29 64  1  0
 29 65  1  0
 31 66  1  0
 32 67  1  0
 33 68  1  0
 34 69  1  0
 36 70  1  0
 36 71  1  0
 38 72  1  0
 39 73  1  0
M  END
>  <smiles>  (33) 
c1ccc(OC[C@@H]2CCCN2c2nc(N3CCc4ccccc4C3)nc(N3CCc4ccccc4C3)n2)cc1

>  <score_type>  (33) 
oracle

>  <origin>  (33) 
autodockgpu

>  <m_score__min__energy>  (33) 
-11.19

>  <m_primary>  (33) 
energy

>  <rmsd>  (33) 
5.592302560499136

>  <m_score__min__rmsd>  (33) 
5.592302560499136

>  <meeko>  (33) 
{"free_energy": -10.66, "intermolecular_energy": -12.45, "internal_energy": -1.68, "cluster_size": 29, "cluster_id": 1, "rank_in_cluster": 15}

>  <energy>  (33) 
-10.05

>  <cluster_rmsd>  (33) 
0.48

>  <cluster>  (33) 
3

$$$$

     RDKit          3D

 73 79  0  0  0  0  0  0  0  0999 V2000
  142.0350   81.3240  223.5410 C   0  0  0  0  0  0  0  0  0  0  0  0
  142.9310   80.3390  223.2120 C   0  0  0  0  0  0  0  0  0  0  0  0
  142.5340   79.0310  223.0590 C   0  0  0  0  0  0  0  0  0  0  0  0
  141.1940   78.6410  223.2310 C   0  0  0  0  0  0  0  0  0  0  0  0
  140.9170   77.3280  223.0540 O   0  0  0  0  0  0  0  0  0  0  0  0
  141.0710   76.4660  221.9800 C   0  0  0  0  0  0  0  0  0  0  0  0
  139.8200   76.3470  221.1980 C   0  0  2  0  0  0  0  0  0  0  0  0
  138.6280   77.0010  221.9170 C   0  0  0  0  0  0  0  0  0  0  0  0
  137.4720   76.3900  221.1610 C   0  0  0  0  0  0  0  0  0  0  0  0
  137.9710   75.0600  220.5910 C   0  0  0  0  0  0  0  0  0  0  0  0
  139.2960   74.9730  221.1780 N   0  0  0  0  0  0  0  0  0  0  0  0
  139.9140   73.7800  221.6280 C   0  0  0  0  0  0  0  0  0  0  0  0
  140.9390   73.3090  220.8960 N   0  0  0  0  0  0  0  0  0  0  0  0
  141.6080   72.1780  221.2240 C   0  0  0  0  0  0  0  0  0  0  0  0
  142.6930   71.6800  220.4510 N   0  0  0  0  0  0  0  0  0  0  0  0
  143.9720   72.3910  220.4900 C   0  0  0  0  0  0  0  0  0  0  0  0
  144.8790   71.9700  219.3690 C   0  0  0  0  0  0  0  0  0  0  0  0
  145.0020   70.4770  219.3910 C   0  0  0  0  0  0  0  0  0  0  0  0
  146.2210   69.8390  219.2800 C   0  0  0  0  0  0  0  0  0  0  0  0
  146.2810   68.4570  219.3060 C   0  0  0  0  0  0  0  0  0  0  0  0
  145.1340   67.7330  219.4420 C   0  0  0  0  0  0  0  0  0  0  0  0
  143.8950   68.3710  219.5540 C   0  0  0  0  0  0  0  0  0  0  0  0
  143.8360   69.7490  219.5290 C   0  0  0  0  0  0  0  0  0  0  0  0
  142.5680   70.5110  219.6420 C   0  0  0  0  0  0  0  0  0  0  0  0
  141.1980   71.5350  222.3330 N   0  0  0  0  0  0  0  0  0  0  0  0
  140.1910   71.9710  223.0780 C   0  0  0  0  0  0  0  0  0  0  0  0
  139.8090   71.2430  224.2390 N   0  0  0  0  0  0  0  0  0  0  0  0
  138.8540   70.1620  224.0960 C   0  0  0  0  0  0  0  0  0  0  0  0
  139.3200   68.8660  224.7010 C   0  0  0  0  0  0  0  0  0  0  0  0
  139.9960   69.0840  226.0010 C   0  0  0  0  0  0  0  0  0  0  0  0
  140.1600   68.0070  226.8450 C   0  0  0  0  0  0  0  0  0  0  0  0
  140.7740   68.1010  228.0730 C   0  0  0  0  0  0  0  0  0  0  0  0
  141.2350   69.3520  228.4430 C   0  0  0  0  0  0  0  0  0  0  0  0
  141.0870   70.4640  227.6150 C   0  0  0  0  0  0  0  0  0  0  0  0
  140.4630   70.3210  226.3910 C   0  0  0  0  0  0  0  0  0  0  0  0
  140.3360   71.5410  225.5560 C   0  0  0  0  0  0  0  0  0  0  0  0
  139.5530   73.1000  222.7150 N   0  0  0  0  0  0  0  0  0  0  0  0
  140.3260   79.6490  223.5590 C   0  0  0  0  0  0  0  0  0  0  0  0
  140.7190   80.9710  223.7150 C   0  0  0  0  0  0  0  0  0  0  0  0
  142.3612   82.3675  223.6621 H   0  0  0  0  0  0  0  0  0  0  0  0
  143.9896   80.6007  223.0674 H   0  0  0  0  0  0  0  0  0  0  0  0
  143.2839   78.2706  222.7954 H   0  0  0  0  0  0  0  0  0  0  0  0
  141.8672   76.8494  221.3249 H   0  0  0  0  0  0  0  0  0  0  0  0
  141.3310   75.4708  222.3699 H   0  0  0  0  0  0  0  0  0  0  0  0
  140.1037   76.7721  220.2239 H   0  0  0  0  0  0  0  0  0  0  0  0
  138.6015   76.7325  222.9834 H   0  0  0  0  0  0  0  0  0  0  0  0
  138.6428   78.1009  221.9156 H   0  0  0  0  0  0  0  0  0  0  0  0
  136.6243   76.2168  221.8403 H   0  0  0  0  0  0  0  0  0  0  0  0
  137.1269   77.0589  220.3588 H   0  0  0  0  0  0  0  0  0  0  0  0
  137.3342   74.2218  220.9102 H   0  0  0  0  0  0  0  0  0  0  0  0
  137.9630   75.0116  219.4921 H   0  0  0  0  0  0  0  0  0  0  0  0
  143.7815   73.4712  220.4072 H   0  0  0  0  0  0  0  0  0  0  0  0
  144.4689   72.1487  221.4410 H   0  0  0  0  0  0  0  0  0  0  0  0
  144.4543   72.2930  218.4071 H   0  0  0  0  0  0  0  0  0  0  0  0
  145.8699   72.4313  219.4929 H   0  0  0  0  0  0  0  0  0  0  0  0
  147.1433   70.4284  219.1710 H   0  0  0  0  0  0  0  0  0  0  0  0
  147.2503   67.9445  219.2173 H   0  0  0  0  0  0  0  0  0  0  0  0
  145.1838   66.6343  219.4639 H   0  0  0  0  0  0  0  0  0  0  0  0
  142.9743   67.7787  219.6612 H   0  0  0  0  0  0  0  0  0  0  0  0
  142.2497   70.8143  218.6337 H   0  0  0  0  0  0  0  0  0  0  0  0
  141.8294   69.8534  220.1238 H   0  0  0  0  0  0  0  0  0  0  0  0
  137.9160   70.4586  224.5881 H   0  0  0  0  0  0  0  0  0  0  0  0
  138.7222   69.9871  223.0180 H   0  0  0  0  0  0  0  0  0  0  0  0
  138.4499   68.2111  224.8563 H   0  0  0  0  0  0  0  0  0  0  0  0
  140.0411   68.4034  224.0111 H   0  0  0  0  0  0  0  0  0  0  0  0
  139.7822   67.0258  226.5218 H   0  0  0  0  0  0  0  0  0  0  0  0
  140.8924   67.2251  228.7279 H   0  0  0  0  0  0  0  0  0  0  0  0
  141.7318   69.4726  229.4170 H   0  0  0  0  0  0  0  0  0  0  0  0
  141.4640   71.4470  227.9338 H   0  0  0  0  0  0  0  0  0  0  0  0
  139.6584   72.2469  226.0587 H   0  0  0  0  0  0  0  0  0  0  0  0
  141.3393   71.9743  225.4313 H   0  0  0  0  0  0  0  0  0  0  0  0
  139.2651   79.3982  223.7060 H   0  0  0  0  0  0  0  0  0  0  0  0
  139.9752   81.7374  223.9784 H   0  0  0  0  0  0  0  0  0  0  0  0
  1  2  2  0
  2  3  1  0
  3  4  2  0
  4  5  1  0
  5  6  1  0
  6  7  1  0
  7  8  1  0
  8  9  1  0
  9 10  1  0
 10 11  1  0
 11 12  1  0
 12 13  2  0
 13 14  1  0
 14 15  1  0
 15 16  1  0
 16 17  1  0
 17 18  1  0
 18 19  2  0
 19 20  1  0
 20 21  2  0
 21 22  1  0
 22 23  2  0
 23 24  1  0
 14 25  2  0
 25 26  1  0
 26 27  1  0
 27 28  1  0
 28 29  1  0
 29 30  1  0
 30 31  2  0
 31 32  1  0
 32 33  2  0
 33 34  1  0
 34 35  2  0
 35 36  1  0
 26 37  2  0
  4 38  1  0
 38 39  2  0
 39  1  1  0
 11  7  1  0
 37 12  1  0
 24 15  1  0
 36 27  1  0
 23 18  1  0
 35 30  1  0
  1 40  1  0
  2 41  1  0
  3 42  1  0
  6 43  1  0
  6 44  1  0
  7 45  1  6
  8 46  1  0
  8 47  1  0
  9 48  1  0
  9 49  1  0
 10 50  1  0
 10 51  1  0
 16 52  1  0
 16 53  1  0
 17 54  1  0
 17 55  1  0
 19 56  1  0
 20 57  1  0
 21 58  1  0
 22 59  1  0
 24 60  1  0
 24 61  1  0
 28 62  1  0
 28 63  1  0
 29 64  1  0
 29 65  1  0
 31 66  1  0
 32 67  1  0
 33 68  1  0
 34 69  1  0
 36 70  1  0
 36 71  1  0
 38 72  1  0
 39 73  1  0
M  END
>  <smiles>  (34) 
c1ccc(OC[C@@H]2CCCN2c2nc(N3CCc4ccccc4C3)nc(N3CCc4ccccc4C3)n2)cc1

>  <score_type>  (34) 
oracle

>  <origin>  (34) 
autodockgpu

>  <m_score__min__energy>  (34) 
-11.19

>  <m_primary>  (34) 
energy

>  <rmsd>  (34) 
10.449362775291748

>  <m_score__min__rmsd>  (34) 
10.449362775291748

>  <meeko>  (34) 
{"free_energy": -11.19, "intermolecular_energy": -12.98, "internal_energy": -1.51, "cluster_size": 29, "cluster_id": 1, "rank_in_cluster": 1}

>  <energy>  (34) 
-9.59

>  <cluster_rmsd>  (34) 
1.93

>  <cluster>  (34) 
3

$$$$

     RDKit          3D

 73 79  0  0  0  0  0  0  0  0999 V2000
  138.0580   73.8030  219.3610 C   0  0  0  0  0  0  0  0  0  0  0  0
  138.2400   72.4960  219.7350 C   0  0  0  0  0  0  0  0  0  0  0  0
  139.3560   71.7900  219.3510 C   0  0  0  0  0  0  0  0  0  0  0  0
  140.3630   72.3720  218.5590 C   0  0  0  0  0  0  0  0  0  0  0  0
  141.4170   71.5840  218.2430 O   0  0  0  0  0  0  0  0  0  0  0  0
  142.4220   71.0020  218.9980 C   0  0  0  0  0  0  0  0  0  0  0  0
  143.6290   71.8580  219.0460 C   0  0  2  0  0  0  0  0  0  0  0  0
  144.8350   71.1160  219.6450 C   0  0  0  0  0  0  0  0  0  0  0  0
  145.7500   72.2750  219.9650 C   0  0  0  0  0  0  0  0  0  0  0  0
  144.8560   73.5020  220.1580 C   0  0  0  0  0  0  0  0  0  0  0  0
  143.5320   72.9120  220.0670 N   0  0  0  0  0  0  0  0  0  0  0  0
  142.4070   73.3080  220.8320 C   0  0  0  0  0  0  0  0  0  0  0  0
  141.8280   72.3690  221.6000 N   0  0  0  0  0  0  0  0  0  0  0  0
  140.7480   72.6250  222.3750 C   0  0  0  0  0  0  0  0  0  0  0  0
  140.1360   71.6310  223.1880 N   0  0  0  0  0  0  0  0  0  0  0  0
  139.3500   70.5790  222.5430 C   0  0  0  0  0  0  0  0  0  0  0  0
  138.4890   69.8420  223.5280 C   0  0  0  0  0  0  0  0  0  0  0  0
  139.3560   69.3630  224.6530 C   0  0  0  0  0  0  0  0  0  0  0  0
  139.2790   68.0740  225.1430 C   0  0  0  0  0  0  0  0  0  0  0  0
  140.1020   67.6820  226.1830 C   0  0  0  0  0  0  0  0  0  0  0  0
  140.9860   68.5710  226.7190 C   0  0  0  0  0  0  0  0  0  0  0  0
  141.0700   69.8780  226.2290 C   0  0  0  0  0  0  0  0  0  0  0  0
  140.2500   70.2690  225.1910 C   0  0  0  0  0  0  0  0  0  0  0  0
  140.2690   71.6320  224.6090 C   0  0  0  0  0  0  0  0  0  0  0  0
  140.2700   73.8820  222.3430 N   0  0  0  0  0  0  0  0  0  0  0  0
  140.8150   74.8350  221.5990 C   0  0  0  0  0  0  0  0  0  0  0  0
  140.2590   76.1440  221.6130 N   0  0  0  0  0  0  0  0  0  0  0  0
  138.8160   76.2840  221.6150 C   0  0  0  0  0  0  0  0  0  0  0  0
  138.3020   77.1750  222.7120 C   0  0  0  0  0  0  0  0  0  0  0  0
  139.1580   78.3720  222.8890 C   0  0  0  0  0  0  0  0  0  0  0  0
  138.6500   79.4470  223.5840 C   0  0  0  0  0  0  0  0  0  0  0  0
  139.3620   80.6040  223.8040 C   0  0  0  0  0  0  0  0  0  0  0  0
  140.6450   80.6520  223.2890 C   0  0  0  0  0  0  0  0  0  0  0  0
  141.1930   79.5830  222.5810 C   0  0  0  0  0  0  0  0  0  0  0  0
  140.4390   78.4410  222.3840 C   0  0  0  0  0  0  0  0  0  0  0  0
  141.0780   77.3390  221.6240 C   0  0  0  0  0  0  0  0  0  0  0  0
  141.8890   74.5350  220.8430 N   0  0  0  0  0  0  0  0  0  0  0  0
  140.1490   73.6780  218.2040 C   0  0  0  0  0  0  0  0  0  0  0  0
  139.0250   74.3960  218.5870 C   0  0  0  0  0  0  0  0  0  0  0  0
  137.1624   74.3606  219.6723 H   0  0  0  0  0  0  0  0  0  0  0  0
  137.4774   72.0022  220.3551 H   0  0  0  0  0  0  0  0  0  0  0  0
  139.4642   70.7432  219.6713 H   0  0  0  0  0  0  0  0  0  0  0  0
  142.0541   70.8450  220.0227 H   0  0  0  0  0  0  0  0  0  0  0  0
  142.6957   70.0451  218.5295 H   0  0  0  0  0  0  0  0  0  0  0  0
  143.7249   72.1988  218.0045 H   0  0  0  0  0  0  0  0  0  0  0  0
  144.5574   70.5573  220.5510 H   0  0  0  0  0  0  0  0  0  0  0  0
  145.2767   70.3562  218.9835 H   0  0  0  0  0  0  0  0  0  0  0  0
  146.3147   72.0689  220.8862 H   0  0  0  0  0  0  0  0  0  0  0  0
  146.4775   72.4392  219.1564 H   0  0  0  0  0  0  0  0  0  0  0  0
  145.0212   73.9692  221.1401 H   0  0  0  0  0  0  0  0  0  0  0  0
  145.0386   74.3088  219.4329 H   0  0  0  0  0  0  0  0  0  0  0  0
  138.7048   71.0352  221.7778 H   0  0  0  0  0  0  0  0  0  0  0  0
  140.0483   69.8579  222.0931 H   0  0  0  0  0  0  0  0  0  0  0  0
  137.7125   70.5159  223.9191 H   0  0  0  0  0  0  0  0  0  0  0  0
  138.0023   68.9865  223.0368 H   0  0  0  0  0  0  0  0  0  0  0  0
  138.5644   67.3605  224.7069 H   0  0  0  0  0  0  0  0  0  0  0  0
  140.0436   66.6564  226.5765 H   0  0  0  0  0  0  0  0  0  0  0  0
  141.6401   68.2567  227.5457 H   0  0  0  0  0  0  0  0  0  0  0  0
  141.7850   70.5893  226.6682 H   0  0  0  0  0  0  0  0  0  0  0  0
  139.4369   72.2089  225.0390 H   0  0  0  0  0  0  0  0  0  0  0  0
  141.2446   72.0798  224.8489 H   0  0  0  0  0  0  0  0  0  0  0  0
  138.5058   76.7074  220.6483 H   0  0  0  0  0  0  0  0  0  0  0  0
  138.3937   75.2828  221.7863 H   0  0  0  0  0  0  0  0  0  0  0  0
  137.2819   77.4999  222.4595 H   0  0  0  0  0  0  0  0  0  0  0  0
  138.3110   76.6036  223.6519 H   0  0  0  0  0  0  0  0  0  0  0  0
  137.6269   79.3776  223.9820 H   0  0  0  0  0  0  0  0  0  0  0  0
  138.9321   81.4490  224.3619 H   0  0  0  0  0  0  0  0  0  0  0  0
  141.2494   81.5582  223.4422 H   0  0  0  0  0  0  0  0  0  0  0  0
  142.2163   79.6477  222.1827 H   0  0  0  0  0  0  0  0  0  0  0  0
  141.2393   77.6690  220.5871 H   0  0  0  0  0  0  0  0  0  0  0  0
  142.0313   77.0943  222.1153 H   0  0  0  0  0  0  0  0  0  0  0  0
  140.9056   74.1822  217.5848 H   0  0  0  0  0  0  0  0  0  0  0  0
  138.9083   75.4428  218.2698 H   0  0  0  0  0  0  0  0  0  0  0  0
  1  2  2  0
  2  3  1  0
  3  4  2  0
  4  5  1  0
  5  6  1  0
  6  7  1  0
  7  8  1  0
  8  9  1  0
  9 10  1  0
 10 11  1  0
 11 12  1  0
 12 13  2  0
 13 14  1  0
 14 15  1  0
 15 16  1  0
 16 17  1  0
 17 18  1  0
 18 19  2  0
 19 20  1  0
 20 21  2  0
 21 22  1  0
 22 23  2  0
 23 24  1  0
 14 25  2  0
 25 26  1  0
 26 27  1  0
 27 28  1  0
 28 29  1  0
 29 30  1  0
 30 31  2  0
 31 32  1  0
 32 33  2  0
 33 34  1  0
 34 35  2  0
 35 36  1  0
 26 37  2  0
  4 38  1  0
 38 39  2  0
 39  1  1  0
 11  7  1  0
 37 12  1  0
 24 15  1  0
 36 27  1  0
 23 18  1  0
 35 30  1  0
  1 40  1  0
  2 41  1  0
  3 42  1  0
  6 43  1  0
  6 44  1  0
  7 45  1  6
  8 46  1  0
  8 47  1  0
  9 48  1  0
  9 49  1  0
 10 50  1  0
 10 51  1  0
 16 52  1  0
 16 53  1  0
 17 54  1  0
 17 55  1  0
 19 56  1  0
 20 57  1  0
 21 58  1  0
 22 59  1  0
 24 60  1  0
 24 61  1  0
 28 62  1  0
 28 63  1  0
 29 64  1  0
 29 65  1  0
 31 66  1  0
 32 67  1  0
 33 68  1  0
 34 69  1  0
 36 70  1  0
 36 71  1  0
 38 72  1  0
 39 73  1  0
M  END
>  <smiles>  (35) 
c1ccc(OC[C@@H]2CCCN2c2nc(N3CCc4ccccc4C3)nc(N3CCc4ccccc4C3)n2)cc1

>  <score_type>  (35) 
oracle

>  <origin>  (35) 
autodockgpu

>  <m_score__min__energy>  (35) 
-11.19

>  <m_primary>  (35) 
energy

>  <rmsd>  (35) 
10.862353893709185

>  <m_score__min__rmsd>  (35) 
10.862353893709185

>  <meeko>  (35) 
{"free_energy": -8.68, "intermolecular_energy": -10.47, "internal_energy": -2.93, "cluster_size": 7, "cluster_id": 4, "rank_in_cluster": 7}

>  <energy>  (35) 
-9.67

>  <cluster_rmsd>  (35) 
0.0

>  <cluster>  (35) 
4

$$$$

     RDKit          3D

 73 79  0  0  0  0  0  0  0  0999 V2000
  140.4510   70.7440  228.3400 C   0  0  0  0  0  0  0  0  0  0  0  0
  139.9810   69.7540  227.5160 C   0  0  0  0  0  0  0  0  0  0  0  0
  140.1190   69.8330  226.1500 C   0  0  0  0  0  0  0  0  0  0  0  0
  140.7460   70.9310  225.5330 C   0  0  0  0  0  0  0  0  0  0  0  0
  140.8270   70.9020  224.1820 O   0  0  0  0  0  0  0  0  0  0  0  0
  139.9760   70.4370  223.1930 C   0  0  0  0  0  0  0  0  0  0  0  0
  138.6030   70.9600  223.3700 C   0  0  2  0  0  0  0  0  0  0  0  0
  137.5770   70.1700  222.5390 C   0  0  0  0  0  0  0  0  0  0  0  0
  136.4050   71.1230  222.5580 C   0  0  0  0  0  0  0  0  0  0  0  0
  136.9800   72.5250  222.7710 C   0  0  0  0  0  0  0  0  0  0  0  0
  138.4070   72.2640  222.7190 N   0  0  0  0  0  0  0  0  0  0  0  0
  139.3760   73.1230  222.1430 C   0  0  0  0  0  0  0  0  0  0  0  0
  140.4000   72.5430  221.4950 N   0  0  0  0  0  0  0  0  0  0  0  0
  141.3870   73.2580  220.9040 C   0  0  0  0  0  0  0  0  0  0  0  0
  142.4710   72.6440  220.2170 N   0  0  0  0  0  0  0  0  0  0  0  0
  143.8140   73.2040  220.3760 C   0  0  0  0  0  0  0  0  0  0  0  0
  144.7600   72.6880  219.3300 C   0  0  0  0  0  0  0  0  0  0  0  0
  144.7110   71.1900  219.3390 C   0  0  0  0  0  0  0  0  0  0  0  0
  145.8550   70.4170  219.3220 C   0  0  0  0  0  0  0  0  0  0  0  0
  145.7540   69.0380  219.3310 C   0  0  0  0  0  0  0  0  0  0  0  0
  144.5250   68.4490  219.3580 C   0  0  0  0  0  0  0  0  0  0  0  0
  143.3620   69.2240  219.3750 C   0  0  0  0  0  0  0  0  0  0  0  0
  143.4620   70.6000  219.3660 C   0  0  0  0  0  0  0  0  0  0  0  0
  142.2840   71.5010  219.3820 C   0  0  0  0  0  0  0  0  0  0  0  0
  141.2970   74.5970  220.9950 N   0  0  0  0  0  0  0  0  0  0  0  0
  140.3000   75.2040  221.6260 C   0  0  0  0  0  0  0  0  0  0  0  0
  140.2660   76.6250  221.6830 N   0  0  0  0  0  0  0  0  0  0  0  0
  138.9970   77.2780  221.9340 C   0  0  0  0  0  0  0  0  0  0  0  0
  139.0440   78.2660  223.0660 C   0  0  0  0  0  0  0  0  0  0  0  0
  140.2910   79.0660  223.0400 C   0  0  0  0  0  0  0  0  0  0  0  0
  140.3380   80.2350  223.7680 C   0  0  0  0  0  0  0  0  0  0  0  0
  141.4470   81.0490  223.8120 C   0  0  0  0  0  0  0  0  0  0  0  0
  142.5460   80.6420  223.0780 C   0  0  0  0  0  0  0  0  0  0  0  0
  142.5350   79.4660  222.3290 C   0  0  0  0  0  0  0  0  0  0  0  0
  141.3980   78.6800  222.3150 C   0  0  0  0  0  0  0  0  0  0  0  0
  141.4500   77.4420  221.5000 C   0  0  0  0  0  0  0  0  0  0  0  0
  139.3400   74.4540  222.1990 N   0  0  0  0  0  0  0  0  0  0  0  0
  141.2030   71.9020  226.3850 C   0  0  0  0  0  0  0  0  0  0  0  0
  141.0670   71.8280  227.7640 C   0  0  0  0  0  0  0  0  0  0  0  0
  140.3379   70.6721  229.4318 H   0  0  0  0  0  0  0  0  0  0  0  0
  139.4830   68.8779  227.9570 H   0  0  0  0  0  0  0  0  0  0  0  0
  139.7292   69.0169  225.5238 H   0  0  0  0  0  0  0  0  0  0  0  0
  140.3575   70.7586  222.2127 H   0  0  0  0  0  0  0  0  0  0  0  0
  139.9386   69.3395  223.2573 H   0  0  0  0  0  0  0  0  0  0  0  0
  138.4765   70.9403  224.4625 H   0  0  0  0  0  0  0  0  0  0  0  0
  137.9368   69.9909  221.5151 H   0  0  0  0  0  0  0  0  0  0  0  0
  137.3536   69.1649  222.9263 H   0  0  0  0  0  0  0  0  0  0  0  0
  135.8636   71.0768  221.6016 H   0  0  0  0  0  0  0  0  0  0  0  0
  135.6958   70.8612  223.3570 H   0  0  0  0  0  0  0  0  0  0  0  0
  136.6680   73.2129  221.9714 H   0  0  0  0  0  0  0  0  0  0  0  0
  136.6465   73.0099  223.7003 H   0  0  0  0  0  0  0  0  0  0  0  0
  143.7552   74.2994  220.2939 H   0  0  0  0  0  0  0  0  0  0  0  0
  144.1963   72.9018  221.3622 H   0  0  0  0  0  0  0  0  0  0  0  0
  144.4589   73.0628  218.3406 H   0  0  0  0  0  0  0  0  0  0  0  0
  145.7824   73.0321  219.5450 H   0  0  0  0  0  0  0  0  0  0  0  0
  146.8445   70.8971  219.3014 H   0  0  0  0  0  0  0  0  0  0  0  0
  146.6626   68.4182  219.3164 H   0  0  0  0  0  0  0  0  0  0  0  0
  144.4477   67.3518  219.3665 H   0  0  0  0  0  0  0  0  0  0  0  0
  142.3742   68.7404  219.3954 H   0  0  0  0  0  0  0  0  0  0  0  0
  142.0905   71.8443  218.3550 H   0  0  0  0  0  0  0  0  0  0  0  0
  141.4365   70.9297  219.7887 H   0  0  0  0  0  0  0  0  0  0  0  0
  138.6924   77.8096  221.0204 H   0  0  0  0  0  0  0  0  0  0  0  0
  138.2805   76.4935  222.2191 H   0  0  0  0  0  0  0  0  0  0  0  0
  138.1825   78.9449  222.9833 H   0  0  0  0  0  0  0  0  0  0  0  0
  139.0137   77.7065  224.0126 H   0  0  0  0  0  0  0  0  0  0  0  0
  139.4471   80.5316  224.3411 H   0  0  0  0  0  0  0  0  0  0  0  0
  141.4585   81.9774  224.4019 H   0  0  0  0  0  0  0  0  0  0  0  0
  143.4539   81.2631  223.0852 H   0  0  0  0  0  0  0  0  0  0  0  0
  143.4236   79.1662  221.7541 H   0  0  0  0  0  0  0  0  0  0  0  0
  141.5311   77.7181  220.4383 H   0  0  0  0  0  0  0  0  0  0  0  0
  142.3225   76.8561  221.8247 H   0  0  0  0  0  0  0  0  0  0  0  0
  141.7019   72.7830  225.9549 H   0  0  0  0  0  0  0  0  0  0  0  0
  141.4536   72.6398  228.3976 H   0  0  0  0  0  0  0  0  0  0  0  0
  1  2  2  0
  2  3  1  0
  3  4  2  0
  4  5  1  0
  5  6  1  0
  6  7  1  0
  7  8  1  0
  8  9  1  0
  9 10  1  0
 10 11  1  0
 11 12  1  0
 12 13  2  0
 13 14  1  0
 14 15  1  0
 15 16  1  0
 16 17  1  0
 17 18  1  0
 18 19  2  0
 19 20  1  0
 20 21  2  0
 21 22  1  0
 22 23  2  0
 23 24  1  0
 14 25  2  0
 25 26  1  0
 26 27  1  0
 27 28  1  0
 28 29  1  0
 29 30  1  0
 30 31  2  0
 31 32  1  0
 32 33  2  0
 33 34  1  0
 34 35  2  0
 35 36  1  0
 26 37  2  0
  4 38  1  0
 38 39  2  0
 39  1  1  0
 11  7  1  0
 37 12  1  0
 24 15  1  0
 36 27  1  0
 23 18  1  0
 35 30  1  0
  1 40  1  0
  2 41  1  0
  3 42  1  0
  6 43  1  0
  6 44  1  0
  7 45  1  1
  8 46  1  0
  8 47  1  0
  9 48  1  0
  9 49  1  0
 10 50  1  0
 10 51  1  0
 16 52  1  0
 16 53  1  0
 17 54  1  0
 17 55  1  0
 19 56  1  0
 20 57  1  0
 21 58  1  0
 22 59  1  0
 24 60  1  0
 24 61  1  0
 28 62  1  0
 28 63  1  0
 29 64  1  0
 29 65  1  0
 31 66  1  0
 32 67  1  0
 33 68  1  0
 34 69  1  0
 36 70  1  0
 36 71  1  0
 38 72  1  0
 39 73  1  0
M  END
>  <smiles>  (36) 
c1ccc(OC[C@@H]2CCCN2c2nc(N3CCc4ccccc4C3)nc(N3CCc4ccccc4C3)n2)cc1

>  <score_type>  (36) 
oracle

>  <origin>  (36) 
autodockgpu

>  <m_score__min__energy>  (36) 
-11.19

>  <m_primary>  (36) 
energy

>  <rmsd>  (36) 
9.69004093722056

>  <m_score__min__rmsd>  (36) 
9.69004093722056

>  <meeko>  (36) 
{"free_energy": -10.53, "intermolecular_energy": -12.32, "internal_energy": -1.62, "cluster_size": 29, "cluster_id": 1, "rank_in_cluster": 23}

>  <energy>  (36) 
-9.61

>  <cluster_rmsd>  (36) 
1.85

>  <cluster>  (36) 
4

$$$$

     RDKit          3D

 73 79  0  0  0  0  0  0  0  0999 V2000
  140.5900   77.9360  218.3820 C   0  0  0  0  0  0  0  0  0  0  0  0
  140.4680   76.5760  218.2570 C   0  0  0  0  0  0  0  0  0  0  0  0
  141.5340   75.7380  218.4830 C   0  0  0  0  0  0  0  0  0  0  0  0
  142.7980   76.2320  218.8540 C   0  0  0  0  0  0  0  0  0  0  0  0
  143.7730   75.3150  219.0540 O   0  0  0  0  0  0  0  0  0  0  0  0
  144.0980   74.4980  220.1240 C   0  0  0  0  0  0  0  0  0  0  0  0
  144.2060   73.0810  219.7110 C   0  0  2  0  0  0  0  0  0  0  0  0
  143.9800   72.9050  218.2000 C   0  0  0  0  0  0  0  0  0  0  0  0
  143.7250   71.4190  218.1230 C   0  0  0  0  0  0  0  0  0  0  0  0
  143.1920   70.9920  219.4930 C   0  0  0  0  0  0  0  0  0  0  0  0
  143.0660   72.2720  220.1660 N   0  0  0  0  0  0  0  0  0  0  0  0
  142.0330   72.6230  221.0690 C   0  0  0  0  0  0  0  0  0  0  0  0
  141.6080   73.8980  221.0490 N   0  0  0  0  0  0  0  0  0  0  0  0
  140.6270   74.3530  221.8640 C   0  0  0  0  0  0  0  0  0  0  0  0
  140.1780   75.7020  221.8420 N   0  0  0  0  0  0  0  0  0  0  0  0
  138.7500   75.9730  222.0170 C   0  0  0  0  0  0  0  0  0  0  0  0
  138.3940   77.3740  221.6120 C   0  0  0  0  0  0  0  0  0  0  0  0
  139.2960   78.3250  222.3380 C   0  0  0  0  0  0  0  0  0  0  0  0
  138.8170   79.4550  222.9700 C   0  0  0  0  0  0  0  0  0  0  0  0
  139.6930   80.3010  223.6270 C   0  0  0  0  0  0  0  0  0  0  0  0
  141.0250   80.0120  223.6480 C   0  0  0  0  0  0  0  0  0  0  0  0
  141.5190   78.8700  223.0110 C   0  0  0  0  0  0  0  0  0  0  0  0
  140.6450   78.0260  222.3560 C   0  0  0  0  0  0  0  0  0  0  0  0
  141.0780   76.7940  221.6530 C   0  0  0  0  0  0  0  0  0  0  0  0
  140.0860   73.4580  222.7110 N   0  0  0  0  0  0  0  0  0  0  0  0
  140.4790   72.1930  222.7590 C   0  0  0  0  0  0  0  0  0  0  0  0
  139.8620   71.2990  223.6780 N   0  0  0  0  0  0  0  0  0  0  0  0
  138.8690   70.3680  223.1810 C   0  0  0  0  0  0  0  0  0  0  0  0
  139.1370   68.9410  223.5700 C   0  0  0  0  0  0  0  0  0  0  0  0
  139.6070   68.8360  224.9710 C   0  0  0  0  0  0  0  0  0  0  0  0
  139.5550   67.6080  225.5920 C   0  0  0  0  0  0  0  0  0  0  0  0
  139.9680   67.4040  226.8890 C   0  0  0  0  0  0  0  0  0  0  0  0
  140.4500   68.5070  227.5700 C   0  0  0  0  0  0  0  0  0  0  0  0
  140.5170   69.7660  226.9730 C   0  0  0  0  0  0  0  0  0  0  0  0
  140.0910   69.9230  225.6680 C   0  0  0  0  0  0  0  0  0  0  0  0
  140.1890   71.2860  225.0910 C   0  0  0  0  0  0  0  0  0  0  0  0
  141.4570   71.7830  221.9300 N   0  0  0  0  0  0  0  0  0  0  0  0
  142.8840   77.5950  218.9710 C   0  0  0  0  0  0  0  0  0  0  0  0
  141.8130   78.4470  218.7430 C   0  0  0  0  0  0  0  0  0  0  0  0
  139.7322   78.5996  218.1983 H   0  0  0  0  0  0  0  0  0  0  0  0
  139.4968   76.1466  217.9699 H   0  0  0  0  0  0  0  0  0  0  0  0
  141.3951   74.6526  218.3708 H   0  0  0  0  0  0  0  0  0  0  0  0
  145.0622   74.8230  220.5420 H   0  0  0  0  0  0  0  0  0  0  0  0
  143.2985   74.5787  220.8752 H   0  0  0  0  0  0  0  0  0  0  0  0
  145.1926   72.7908  220.1014 H   0  0  0  0  0  0  0  0  0  0  0  0
  143.1120   73.4833  217.8505 H   0  0  0  0  0  0  0  0  0  0  0  0
  144.8109   73.2576  217.5712 H   0  0  0  0  0  0  0  0  0  0  0  0
  142.9809   71.2021  217.3424 H   0  0  0  0  0  0  0  0  0  0  0  0
  144.6452   70.8725  217.8688 H   0  0  0  0  0  0  0  0  0  0  0  0
  142.2190   70.4863  219.4059 H   0  0  0  0  0  0  0  0  0  0  0  0
  143.8339   70.2699  220.0189 H   0  0  0  0  0  0  0  0  0  0  0  0
  138.1754   75.2671  221.3993 H   0  0  0  0  0  0  0  0  0  0  0  0
  138.5078   75.8537  223.0834 H   0  0  0  0  0  0  0  0  0  0  0  0
  138.5282   77.4914  220.5265 H   0  0  0  0  0  0  0  0  0  0  0  0
  137.3444   77.5835  221.8659 H   0  0  0  0  0  0  0  0  0  0  0  0
  137.7409   79.6825  222.9513 H   0  0  0  0  0  0  0  0  0  0  0  0
  139.3159   81.2034  224.1305 H   0  0  0  0  0  0  0  0  0  0  0  0
  141.7191   80.6853  224.1723 H   0  0  0  0  0  0  0  0  0  0  0  0
  142.5957   78.6457  223.0316 H   0  0  0  0  0  0  0  0  0  0  0  0
  141.1471   77.0098  220.5766 H   0  0  0  0  0  0  0  0  0  0  0  0
  142.0501   76.4977  222.0739 H   0  0  0  0  0  0  0  0  0  0  0  0
  137.8870   70.6596  223.5818 H   0  0  0  0  0  0  0  0  0  0  0  0
  138.9022   70.4155  222.0825 H   0  0  0  0  0  0  0  0  0  0  0  0
  138.2088   68.3610  223.4606 H   0  0  0  0  0  0  0  0  0  0  0  0
  139.9262   68.5478  222.9123 H   0  0  0  0  0  0  0  0  0  0  0  0
  139.1651   66.7499  225.0249 H   0  0  0  0  0  0  0  0  0  0  0  0
  139.9172   66.4117  227.3611 H   0  0  0  0  0  0  0  0  0  0  0  0
  140.7894   68.3884  228.6096 H   0  0  0  0  0  0  0  0  0  0  0  0
  140.9058   70.6269  227.5366 H   0  0  0  0  0  0  0  0  0  0  0  0
  139.4913   71.9489  225.6238 H   0  0  0  0  0  0  0  0  0  0  0  0
  141.2274   71.6307  225.2042 H   0  0  0  0  0  0  0  0  0  0  0  0
  143.8499   78.0351  219.2599 H   0  0  0  0  0  0  0  0  0  0  0  0
  141.9434   79.5338  218.8515 H   0  0  0  0  0  0  0  0  0  0  0  0
  1  2  2  0
  2  3  1  0
  3  4  2  0
  4  5  1  0
  5  6  1  0
  6  7  1  0
  7  8  1  0
  8  9  1  0
  9 10  1  0
 10 11  1  0
 11 12  1  0
 12 13  2  0
 13 14  1  0
 14 15  1  0
 15 16  1  0
 16 17  1  0
 17 18  1  0
 18 19  2  0
 19 20  1  0
 20 21  2  0
 21 22  1  0
 22 23  2  0
 23 24  1  0
 14 25  2  0
 25 26  1  0
 26 27  1  0
 27 28  1  0
 28 29  1  0
 29 30  1  0
 30 31  2  0
 31 32  1  0
 32 33  2  0
 33 34  1  0
 34 35  2  0
 35 36  1  0
 26 37  2  0
  4 38  1  0
 38 39  2  0
 39  1  1  0
 11  7  1  0
 37 12  1  0
 24 15  1  0
 36 27  1  0
 23 18  1  0
 35 30  1  0
  1 40  1  0
  2 41  1  0
  3 42  1  0
  6 43  1  0
  6 44  1  0
  7 45  1  1
  8 46  1  0
  8 47  1  0
  9 48  1  0
  9 49  1  0
 10 50  1  0
 10 51  1  0
 16 52  1  0
 16 53  1  0
 17 54  1  0
 17 55  1  0
 19 56  1  0
 20 57  1  0
 21 58  1  0
 22 59  1  0
 24 60  1  0
 24 61  1  0
 28 62  1  0
 28 63  1  0
 29 64  1  0
 29 65  1  0
 31 66  1  0
 32 67  1  0
 33 68  1  0
 34 69  1  0
 36 70  1  0
 36 71  1  0
 38 72  1  0
 39 73  1  0
M  END
>  <smiles>  (37) 
c1ccc(OC[C@@H]2CCCN2c2nc(N3CCc4ccccc4C3)nc(N3CCc4ccccc4C3)n2)cc1

>  <score_type>  (37) 
oracle

>  <origin>  (37) 
autodockgpu

>  <m_score__min__energy>  (37) 
-11.19

>  <m_primary>  (37) 
energy

>  <rmsd>  (37) 
4.9986277332081865

>  <m_score__min__rmsd>  (37) 
4.9986277332081865

>  <meeko>  (37) 
{"free_energy": -9.38, "intermolecular_energy": -11.17, "internal_energy": -2.57, "cluster_size": 9, "cluster_id": 5, "rank_in_cluster": 7}

>  <energy>  (37) 
-9.39

>  <cluster_rmsd>  (37) 
1.99

>  <cluster>  (37) 
4

$$$$

     RDKit          3D

 73 79  0  0  0  0  0  0  0  0999 V2000
  145.5550   74.6010  220.8420 C   0  0  0  0  0  0  0  0  0  0  0  0
  146.2410   73.4200  220.7220 C   0  0  0  0  0  0  0  0  0  0  0  0
  145.6230   72.2740  220.2790 C   0  0  0  0  0  0  0  0  0  0  0  0
  144.2610   72.2580  219.9280 C   0  0  0  0  0  0  0  0  0  0  0  0
  143.7590   71.0750  219.5030 O   0  0  0  0  0  0  0  0  0  0  0  0
  142.6590   70.3240  219.8820 C   0  0  0  0  0  0  0  0  0  0  0  0
  141.6040   70.3450  218.8440 C   0  0  2  0  0  0  0  0  0  0  0  0
  142.0430   71.1290  217.5960 C   0  0  0  0  0  0  0  0  0  0  0  0
  140.7100   71.3540  216.9210 C   0  0  0  0  0  0  0  0  0  0  0  0
  139.6460   71.3100  218.0200 C   0  0  0  0  0  0  0  0  0  0  0  0
  140.4670   71.2020  219.2130 N   0  0  0  0  0  0  0  0  0  0  0  0
  140.1860   71.8180  220.4570 C   0  0  0  0  0  0  0  0  0  0  0  0
  140.1520   73.1620  220.4800 N   0  0  0  0  0  0  0  0  0  0  0  0
  139.8950   73.8650  221.6090 C   0  0  0  0  0  0  0  0  0  0  0  0
  139.8590   75.2870  221.6330 N   0  0  0  0  0  0  0  0  0  0  0  0
  138.5680   75.9620  221.4910 C   0  0  0  0  0  0  0  0  0  0  0  0
  138.7340   77.4200  221.1740 C   0  0  0  0  0  0  0  0  0  0  0  0
  139.6400   78.0310  222.1990 C   0  0  0  0  0  0  0  0  0  0  0  0
  139.3440   79.2270  222.8220 C   0  0  0  0  0  0  0  0  0  0  0  0
  140.2150   79.7490  223.7620 C   0  0  0  0  0  0  0  0  0  0  0  0
  141.3610   79.0770  224.0690 C   0  0  0  0  0  0  0  0  0  0  0  0
  141.6680   77.8650  223.4430 C   0  0  0  0  0  0  0  0  0  0  0  0
  140.8000   77.3450  222.5060 C   0  0  0  0  0  0  0  0  0  0  0  0
  141.0430   76.0680  221.7920 C   0  0  0  0  0  0  0  0  0  0  0  0
  139.6690   73.1490  222.7250 N   0  0  0  0  0  0  0  0  0  0  0  0
  139.6930   71.8230  222.7400 C   0  0  0  0  0  0  0  0  0  0  0  0
  139.4440   71.1280  223.9560 N   0  0  0  0  0  0  0  0  0  0  0  0
  138.5420   69.9940  223.9350 C   0  0  0  0  0  0  0  0  0  0  0  0
  139.1250   68.7530  224.5520 C   0  0  0  0  0  0  0  0  0  0  0  0
  139.8890   69.0620  225.7830 C   0  0  0  0  0  0  0  0  0  0  0  0
  140.1780   68.0340  226.6530 C   0  0  0  0  0  0  0  0  0  0  0  0
  140.8820   68.2150  227.8220 C   0  0  0  0  0  0  0  0  0  0  0  0
  141.3010   69.5030  228.1020 C   0  0  0  0  0  0  0  0  0  0  0  0
  141.0270   70.5680  227.2450 C   0  0  0  0  0  0  0  0  0  0  0  0
  140.3170   70.3390  226.0820 C   0  0  0  0  0  0  0  0  0  0  0  0
  140.0570   71.5120  225.2120 C   0  0  0  0  0  0  0  0  0  0  0  0
  139.9530   71.1640  221.5950 N   0  0  0  0  0  0  0  0  0  0  0  0
  143.6060   73.4540  220.0590 C   0  0  0  0  0  0  0  0  0  0  0  0
  144.2230   74.6140  220.5060 C   0  0  0  0  0  0  0  0  0  0  0  0
  146.0572   75.5128  221.1974 H   0  0  0  0  0  0  0  0  0  0  0  0
  147.3085   73.3884  220.9857 H   0  0  0  0  0  0  0  0  0  0  0  0
  146.2086   71.3465  220.1971 H   0  0  0  0  0  0  0  0  0  0  0  0
  142.9763   69.2839  220.0481 H   0  0  0  0  0  0  0  0  0  0  0  0
  142.2451   70.7591  220.8036 H   0  0  0  0  0  0  0  0  0  0  0  0
  141.3809   69.2769  218.7047 H   0  0  0  0  0  0  0  0  0  0  0  0
  142.5267   72.0798  217.8644 H   0  0  0  0  0  0  0  0  0  0  0  0
  142.7884   70.6135  216.9726 H   0  0  0  0  0  0  0  0  0  0  0  0
  140.6988   72.3341  216.4218 H   0  0  0  0  0  0  0  0  0  0  0  0
  140.5199   70.5866  216.1561 H   0  0  0  0  0  0  0  0  0  0  0  0
  139.0407   72.2285  218.0304 H   0  0  0  0  0  0  0  0  0  0  0  0
  138.9143   70.4969  217.9038 H   0  0  0  0  0  0  0  0  0  0  0  0
  138.0030   75.4828  220.6779 H   0  0  0  0  0  0  0  0  0  0  0  0
  138.0311   75.8787  222.4475 H   0  0  0  0  0  0  0  0  0  0  0  0
  139.1763   77.5338  220.1733 H   0  0  0  0  0  0  0  0  0  0  0  0
  137.7554   77.9222  221.1898 H   0  0  0  0  0  0  0  0  0  0  0  0
  138.4173   79.7640  222.5715 H   0  0  0  0  0  0  0  0  0  0  0  0
  139.9838   80.7024  224.2596 H   0  0  0  0  0  0  0  0  0  0  0  0
  142.0516   79.4929  224.8174 H   0  0  0  0  0  0  0  0  0  0  0  0
  142.5953   77.3301  223.6961 H   0  0  0  0  0  0  0  0  0  0  0  0
  141.4504   76.2948  220.7957 H   0  0  0  0  0  0  0  0  0  0  0  0
  141.7478   75.4797  222.3980 H   0  0  0  0  0  0  0  0  0  0  0  0
  137.6308   70.2635  224.4892 H   0  0  0  0  0  0  0  0  0  0  0  0
  138.3353   69.7643  222.8793 H   0  0  0  0  0  0  0  0  0  0  0  0
  138.3072   68.0617  224.8037 H   0  0  0  0  0  0  0  0  0  0  0  0
  139.8142   68.2989  223.8248 H   0  0  0  0  0  0  0  0  0  0  0  0
  139.8300   67.0211  226.4019 H   0  0  0  0  0  0  0  0  0  0  0  0
  141.1005   67.3767  228.4999 H   0  0  0  0  0  0  0  0  0  0  0  0
  141.8661   69.6924  229.0265 H   0  0  0  0  0  0  0  0  0  0  0  0
  141.3732   71.5823  227.4927 H   0  0  0  0  0  0  0  0  0  0  0  0
  139.3838   72.2037  225.7395 H   0  0  0  0  0  0  0  0  0  0  0  0
  141.0216   71.9909  224.9882 H   0  0  0  0  0  0  0  0  0  0  0  0
  142.5385   73.4971  219.7970 H   0  0  0  0  0  0  0  0  0  0  0  0
  143.6444   75.5456  220.5914 H   0  0  0  0  0  0  0  0  0  0  0  0
  1  2  2  0
  2  3  1  0
  3  4  2  0
  4  5  1  0
  5  6  1  0
  6  7  1  0
  7  8  1  0
  8  9  1  0
  9 10  1  0
 10 11  1  0
 11 12  1  0
 12 13  2  0
 13 14  1  0
 14 15  1  0
 15 16  1  0
 16 17  1  0
 17 18  1  0
 18 19  2  0
 19 20  1  0
 20 21  2  0
 21 22  1  0
 22 23  2  0
 23 24  1  0
 14 25  2  0
 25 26  1  0
 26 27  1  0
 27 28  1  0
 28 29  1  0
 29 30  1  0
 30 31  2  0
 31 32  1  0
 32 33  2  0
 33 34  1  0
 34 35  2  0
 35 36  1  0
 26 37  2  0
  4 38  1  0
 38 39  2  0
 39  1  1  0
 11  7  1  0
 37 12  1  0
 24 15  1  0
 36 27  1  0
 23 18  1  0
 35 30  1  0
  1 40  1  0
  2 41  1  0
  3 42  1  0
  6 43  1  0
  6 44  1  0
  7 45  1  6
  8 46  1  0
  8 47  1  0
  9 48  1  0
  9 49  1  0
 10 50  1  0
 10 51  1  0
 16 52  1  0
 16 53  1  0
 17 54  1  0
 17 55  1  0
 19 56  1  0
 20 57  1  0
 21 58  1  0
 22 59  1  0
 24 60  1  0
 24 61  1  0
 28 62  1  0
 28 63  1  0
 29 64  1  0
 29 65  1  0
 31 66  1  0
 32 67  1  0
 33 68  1  0
 34 69  1  0
 36 70  1  0
 36 71  1  0
 38 72  1  0
 39 73  1  0
M  END
>  <smiles>  (38) 
c1ccc(OC[C@@H]2CCCN2c2nc(N3CCc4ccccc4C3)nc(N3CCc4ccccc4C3)n2)cc1

>  <score_type>  (38) 
oracle

>  <origin>  (38) 
autodockgpu

>  <m_score__min__energy>  (38) 
-11.19

>  <m_primary>  (38) 
energy

>  <rmsd>  (38) 
5.173959190364883

>  <m_score__min__rmsd>  (38) 
5.173959190364883

>  <meeko>  (38) 
{"free_energy": -9.67, "intermolecular_energy": -11.46, "internal_energy": -2.14, "cluster_size": 7, "cluster_id": 4, "rank_in_cluster": 1}

>  <energy>  (38) 
-9.37

>  <cluster_rmsd>  (38) 
1.91

>  <cluster>  (38) 
4

$$$$

     RDKit          3D

 73 79  0  0  0  0  0  0  0  0999 V2000
  141.7970   81.3650  223.9020 C   0  0  0  0  0  0  0  0  0  0  0  0
  142.8830   80.6490  223.4670 C   0  0  0  0  0  0  0  0  0  0  0  0
  142.7440   79.3880  222.9350 C   0  0  0  0  0  0  0  0  0  0  0  0
  141.4840   78.7740  222.8120 C   0  0  0  0  0  0  0  0  0  0  0  0
  141.4660   77.5330  222.2720 O   0  0  0  0  0  0  0  0  0  0  0  0
  140.6330   76.4390  222.4440 C   0  0  0  0  0  0  0  0  0  0  0  0
  139.6520   76.3280  221.3410 C   0  0  2  0  0  0  0  0  0  0  0  0
  138.2490   76.7880  221.7730 C   0  0  0  0  0  0  0  0  0  0  0  0
  137.4050   76.1950  220.6700 C   0  0  0  0  0  0  0  0  0  0  0  0
  138.1770   74.9940  220.1210 C   0  0  0  0  0  0  0  0  0  0  0  0
  139.3040   74.9320  221.0350 N   0  0  0  0  0  0  0  0  0  0  0  0
  139.9090   73.7410  221.5070 C   0  0  0  0  0  0  0  0  0  0  0  0
  140.9280   73.2440  220.7840 N   0  0  0  0  0  0  0  0  0  0  0  0
  141.5850   72.1130  221.1340 C   0  0  0  0  0  0  0  0  0  0  0  0
  142.6630   71.5870  220.3690 N   0  0  0  0  0  0  0  0  0  0  0  0
  143.9210   72.3350  220.3180 C   0  0  0  0  0  0  0  0  0  0  0  0
  144.8090   71.8550  219.2060 C   0  0  0  0  0  0  0  0  0  0  0  0
  144.9780   70.3710  219.3370 C   0  0  0  0  0  0  0  0  0  0  0  0
  146.2120   69.7610  219.2400 C   0  0  0  0  0  0  0  0  0  0  0  0
  146.3140   68.3870  219.3680 C   0  0  0  0  0  0  0  0  0  0  0  0
  145.1920   67.6440  219.5920 C   0  0  0  0  0  0  0  0  0  0  0  0
  143.9390   68.2540  219.6910 C   0  0  0  0  0  0  0  0  0  0  0  0
  143.8380   69.6240  219.5640 C   0  0  0  0  0  0  0  0  0  0  0  0
  142.5520   70.3570  219.6550 C   0  0  0  0  0  0  0  0  0  0  0  0
  141.1690   71.4970  222.2550 N   0  0  0  0  0  0  0  0  0  0  0  0
  140.1690   71.9590  222.9940 C   0  0  0  0  0  0  0  0  0  0  0  0
  139.7800   71.2580  224.1690 N   0  0  0  0  0  0  0  0  0  0  0  0
  138.7870   70.2090  224.0540 C   0  0  0  0  0  0  0  0  0  0  0  0
  139.2170   68.9060  224.6690 C   0  0  0  0  0  0  0  0  0  0  0  0
  139.9210   69.1160  225.9560 C   0  0  0  0  0  0  0  0  0  0  0  0
  140.0610   68.0440  226.8100 C   0  0  0  0  0  0  0  0  0  0  0  0
  140.6970   68.1330  228.0270 C   0  0  0  0  0  0  0  0  0  0  0  0
  141.2060   69.3710  228.3750 C   0  0  0  0  0  0  0  0  0  0  0  0
  141.0830   70.4780  227.5350 C   0  0  0  0  0  0  0  0  0  0  0  0
  140.4350   70.3410  226.3220 C   0  0  0  0  0  0  0  0  0  0  0  0
  140.3370   71.5540  225.4740 C   0  0  0  0  0  0  0  0  0  0  0  0
  139.5430   73.0870  222.6090 N   0  0  0  0  0  0  0  0  0  0  0  0
  140.4220   79.5160  223.2550 C   0  0  0  0  0  0  0  0  0  0  0  0
  140.5550   80.7880  223.7930 C   0  0  0  0  0  0  0  0  0  0  0  0
  141.9171   82.3728  224.3262 H   0  0  0  0  0  0  0  0  0  0  0  0
  143.8866   81.0926  223.5452 H   0  0  0  0  0  0  0  0  0  0  0  0
  143.6400   78.8464  222.5975 H   0  0  0  0  0  0  0  0  0  0  0  0
  141.2442   75.5249  222.4726 H   0  0  0  0  0  0  0  0  0  0  0  0
  140.0808   76.5693  223.3864 H   0  0  0  0  0  0  0  0  0  0  0  0
  140.1328   76.8971  220.5317 H   0  0  0  0  0  0  0  0  0  0  0  0
  137.9742   76.3800  222.7569 H   0  0  0  0  0  0  0  0  0  0  0  0
  138.1431   77.8763  221.8926 H   0  0  0  0  0  0  0  0  0  0  0  0
  136.4331   75.8700  221.0697 H   0  0  0  0  0  0  0  0  0  0  0  0
  137.2113   76.9350  219.8795 H   0  0  0  0  0  0  0  0  0  0  0  0
  137.5739   74.0750  220.1637 H   0  0  0  0  0  0  0  0  0  0  0  0
  138.4623   75.0898  219.0630 H   0  0  0  0  0  0  0  0  0  0  0  0
  143.6961   73.4001  220.1599 H   0  0  0  0  0  0  0  0  0  0  0  0
  144.4502   72.1805  221.2699 H   0  0  0  0  0  0  0  0  0  0  0  0
  144.3485   72.0915  218.2354 H   0  0  0  0  0  0  0  0  0  0  0  0
  145.7885   72.3520  219.2655 H   0  0  0  0  0  0  0  0  0  0  0  0
  147.1131   70.3660  219.0612 H   0  0  0  0  0  0  0  0  0  0  0  0
  147.2952   67.8961  219.2895 H   0  0  0  0  0  0  0  0  0  0  0  0
  145.2748   66.5520  219.6959 H   0  0  0  0  0  0  0  0  0  0  0  0
  143.0395   67.6463  219.8689 H   0  0  0  0  0  0  0  0  0  0  0  0
  142.1986   70.5734  218.6360 H   0  0  0  0  0  0  0  0  0  0  0  0
  141.8464   69.7181  220.2062 H   0  0  0  0  0  0  0  0  0  0  0  0
  137.8671   70.5439  224.5555 H   0  0  0  0  0  0  0  0  0  0  0  0
  138.6336   70.0250  222.9804 H   0  0  0  0  0  0  0  0  0  0  0  0
  138.3271   68.2841  224.8463 H   0  0  0  0  0  0  0  0  0  0  0  0
  139.9109   68.4102  223.9743 H   0  0  0  0  0  0  0  0  0  0  0  0
  139.6453   67.0723  226.5050 H   0  0  0  0  0  0  0  0  0  0  0  0
  140.7958   67.2616  228.6910 H   0  0  0  0  0  0  0  0  0  0  0  0
  141.7216   69.4858  229.3399 H   0  0  0  0  0  0  0  0  0  0  0  0
  141.4981   71.4513  227.8355 H   0  0  0  0  0  0  0  0  0  0  0  0
  139.6917   72.2888  225.9777 H   0  0  0  0  0  0  0  0  0  0  0  0
  141.3524   71.9513  225.3289 H   0  0  0  0  0  0  0  0  0  0  0  0
  139.4138   79.0824  223.1807 H   0  0  0  0  0  0  0  0  0  0  0  0
  139.6638   81.3358  224.1331 H   0  0  0  0  0  0  0  0  0  0  0  0
  1  2  2  0
  2  3  1  0
  3  4  2  0
  4  5  1  0
  5  6  1  0
  6  7  1  0
  7  8  1  0
  8  9  1  0
  9 10  1  0
 10 11  1  0
 11 12  1  0
 12 13  2  0
 13 14  1  0
 14 15  1  0
 15 16  1  0
 16 17  1  0
 17 18  1  0
 18 19  2  0
 19 20  1  0
 20 21  2  0
 21 22  1  0
 22 23  2  0
 23 24  1  0
 14 25  2  0
 25 26  1  0
 26 27  1  0
 27 28  1  0
 28 29  1  0
 29 30  1  0
 30 31  2  0
 31 32  1  0
 32 33  2  0
 33 34  1  0
 34 35  2  0
 35 36  1  0
 26 37  2  0
  4 38  1  0
 38 39  2  0
 39  1  1  0
 11  7  1  0
 37 12  1  0
 24 15  1  0
 36 27  1  0
 23 18  1  0
 35 30  1  0
  1 40  1  0
  2 41  1  0
  3 42  1  0
  6 43  1  0
  6 44  1  0
  7 45  1  6
  8 46  1  0
  8 47  1  0
  9 48  1  0
  9 49  1  0
 10 50  1  0
 10 51  1  0
 16 52  1  0
 16 53  1  0
 17 54  1  0
 17 55  1  0
 19 56  1  0
 20 57  1  0
 21 58  1  0
 22 59  1  0
 24 60  1  0
 24 61  1  0
 28 62  1  0
 28 63  1  0
 29 64  1  0
 29 65  1  0
 31 66  1  0
 32 67  1  0
 33 68  1  0
 34 69  1  0
 36 70  1  0
 36 71  1  0
 38 72  1  0
 39 73  1  0
M  END
>  <smiles>  (39) 
c1ccc(OC[C@@H]2CCCN2c2nc(N3CCc4ccccc4C3)nc(N3CCc4ccccc4C3)n2)cc1

>  <score_type>  (39) 
oracle

>  <origin>  (39) 
autodockgpu

>  <m_score__min__energy>  (39) 
-11.19

>  <m_primary>  (39) 
energy

>  <rmsd>  (39) 
10.541280072981735

>  <m_score__min__rmsd>  (39) 
10.541280072981735

>  <meeko>  (39) 
{"free_energy": -10.86, "intermolecular_energy": -12.65, "internal_energy": -1.44, "cluster_size": 29, "cluster_id": 1, "rank_in_cluster": 7}

>  <energy>  (39) 
-9.36

>  <cluster_rmsd>  (39) 
1.85

>  <cluster>  (39) 
4

$$$$

     RDKit          3D

 73 79  0  0  0  0  0  0  0  0999 V2000
  141.0880   77.6030  218.3220 C   0  0  0  0  0  0  0  0  0  0  0  0
  140.9160   76.2550  218.1460 C   0  0  0  0  0  0  0  0  0  0  0  0
  141.9260   75.3620  218.4180 C   0  0  0  0  0  0  0  0  0  0  0  0
  143.1810   75.7880  218.8900 C   0  0  0  0  0  0  0  0  0  0  0  0
  144.0990   74.8220  219.1260 O   0  0  0  0  0  0  0  0  0  0  0  0
  144.2350   73.8700  220.1230 C   0  0  0  0  0  0  0  0  0  0  0  0
  144.0620   72.5000  219.5900 C   0  0  2  0  0  0  0  0  0  0  0  0
  143.7800   72.5030  218.0780 C   0  0  0  0  0  0  0  0  0  0  0  0
  143.2430   71.1040  217.8870 C   0  0  0  0  0  0  0  0  0  0  0  0
  142.6620   70.6680  219.2350 C   0  0  0  0  0  0  0  0  0  0  0  0
  142.7960   71.8840  220.0150 N   0  0  0  0  0  0  0  0  0  0  0  0
  141.8650   72.3440  220.9790 C   0  0  0  0  0  0  0  0  0  0  0  0
  141.4950   73.6340  220.9060 N   0  0  0  0  0  0  0  0  0  0  0  0
  140.6120   74.1890  221.7710 C   0  0  0  0  0  0  0  0  0  0  0  0
  140.2210   75.5540  221.6930 N   0  0  0  0  0  0  0  0  0  0  0  0
  138.7930   75.8780  221.6800 C   0  0  0  0  0  0  0  0  0  0  0  0
  138.5460   77.2910  221.2350 C   0  0  0  0  0  0  0  0  0  0  0  0
  139.3790   78.2080  222.0770 C   0  0  0  0  0  0  0  0  0  0  0  0
  138.8640   79.3570  222.6430 C   0  0  0  0  0  0  0  0  0  0  0  0
  139.6760   80.1710  223.4120 C   0  0  0  0  0  0  0  0  0  0  0  0
  140.9820   79.8320  223.6080 C   0  0  0  0  0  0  0  0  0  0  0  0
  141.5130   78.6720  223.0380 C   0  0  0  0  0  0  0  0  0  0  0  0
  140.7020   77.8600  222.2710 C   0  0  0  0  0  0  0  0  0  0  0  0
  141.1770   76.6110  221.6280 C   0  0  0  0  0  0  0  0  0  0  0  0
  140.1130   73.3800  222.7230 N   0  0  0  0  0  0  0  0  0  0  0  0
  140.4550   72.1020  222.8250 C   0  0  0  0  0  0  0  0  0  0  0  0
  139.8870   71.3030  223.8550 N   0  0  0  0  0  0  0  0  0  0  0  0
  138.8930   70.3110  223.4960 C   0  0  0  0  0  0  0  0  0  0  0  0
  139.1990   68.9360  224.0220 C   0  0  0  0  0  0  0  0  0  0  0  0
  139.7210   68.9860  225.4080 C   0  0  0  0  0  0  0  0  0  0  0  0
  139.7130   67.8300  226.1560 C   0  0  0  0  0  0  0  0  0  0  0  0
  140.1750   67.7690  227.4510 C   0  0  0  0  0  0  0  0  0  0  0  0
  140.6620   68.9440  227.9930 C   0  0  0  0  0  0  0  0  0  0  0  0
  140.6870   70.1340  227.2660 C   0  0  0  0  0  0  0  0  0  0  0  0
  140.2110   70.1470  225.9690 C   0  0  0  0  0  0  0  0  0  0  0  0
  140.2640   71.4420  225.2480 C   0  0  0  0  0  0  0  0  0  0  0  0
  141.3350   71.5920  221.9440 N   0  0  0  0  0  0  0  0  0  0  0  0
  143.3180   77.1410  219.0550 C   0  0  0  0  0  0  0  0  0  0  0  0
  142.3040   78.0470  218.7820 C   0  0  0  0  0  0  0  0  0  0  0  0
  140.2749   78.3101  218.1011 H   0  0  0  0  0  0  0  0  0  0  0  0
  139.9495   75.8791  217.7793 H   0  0  0  0  0  0  0  0  0  0  0  0
  141.7481   74.2877  218.2626 H   0  0  0  0  0  0  0  0  0  0  0  0
  145.2378   73.9573  220.5666 H   0  0  0  0  0  0  0  0  0  0  0  0
  143.4563   74.0477  220.8793 H   0  0  0  0  0  0  0  0  0  0  0  0
  144.9817   71.9955  219.9212 H   0  0  0  0  0  0  0  0  0  0  0  0
  143.0331   73.2637  217.8071 H   0  0  0  0  0  0  0  0  0  0  0  0
  144.6520   72.7452  217.4527 H   0  0  0  0  0  0  0  0  0  0  0  0
  142.4575   71.1013  217.1169 H   0  0  0  0  0  0  0  0  0  0  0  0
  144.0364   70.4171  217.5573 H   0  0  0  0  0  0  0  0  0  0  0  0
  141.6086   70.3659  219.1397 H   0  0  0  0  0  0  0  0  0  0  0  0
  143.1626   69.7941  219.6774 H   0  0  0  0  0  0  0  0  0  0  0  0
  138.2786   75.1924  220.9905 H   0  0  0  0  0  0  0  0  0  0  0  0
  138.4084   75.7700  222.7049 H   0  0  0  0  0  0  0  0  0  0  0  0
  138.8270   77.4012  220.1772 H   0  0  0  0  0  0  0  0  0  0  0  0
  137.4806   77.5404  221.3477 H   0  0  0  0  0  0  0  0  0  0  0  0
  137.8092   79.6249  222.4827 H   0  0  0  0  0  0  0  0  0  0  0  0
  139.2697   81.0881  223.8636 H   0  0  0  0  0  0  0  0  0  0  0  0
  141.6253   80.4794  224.2221 H   0  0  0  0  0  0  0  0  0  0  0  0
  142.5686   78.4081  223.1992 H   0  0  0  0  0  0  0  0  0  0  0  0
  141.3956   76.8218  220.5708 H   0  0  0  0  0  0  0  0  0  0  0  0
  142.0729   76.2794  222.1734 H   0  0  0  0  0  0  0  0  0  0  0  0
  137.9211   70.6300  223.9006 H   0  0  0  0  0  0  0  0  0  0  0  0
  138.8865   70.2428  222.3981 H   0  0  0  0  0  0  0  0  0  0  0  0
  138.2774   68.3355  224.0090 H   0  0  0  0  0  0  0  0  0  0  0  0
  139.9703   68.4857  223.3799 H   0  0  0  0  0  0  0  0  0  0  0  0
  139.3186   66.9116  225.6967 H   0  0  0  0  0  0  0  0  0  0  0  0
  140.1577   66.8317  228.0264 H   0  0  0  0  0  0  0  0  0  0  0  0
  141.0401   68.9402  229.0260 H   0  0  0  0  0  0  0  0  0  0  0  0
  141.0822   71.0541  227.7212 H   0  0  0  0  0  0  0  0  0  0  0  0
  139.5743   72.1477  225.7340 H   0  0  0  0  0  0  0  0  0  0  0  0
  141.3001   71.8097  225.2849 H   0  0  0  0  0  0  0  0  0  0  0  0
  144.2799   77.5281  219.4222 H   0  0  0  0  0  0  0  0  0  0  0  0
  142.4737   79.1231  218.9341 H   0  0  0  0  0  0  0  0  0  0  0  0
  1  2  2  0
  2  3  1  0
  3  4  2  0
  4  5  1  0
  5  6  1  0
  6  7  1  0
  7  8  1  0
  8  9  1  0
  9 10  1  0
 10 11  1  0
 11 12  1  0
 12 13  2  0
 13 14  1  0
 14 15  1  0
 15 16  1  0
 16 17  1  0
 17 18  1  0
 18 19  2  0
 19 20  1  0
 20 21  2  0
 21 22  1  0
 22 23  2  0
 23 24  1  0
 14 25  2  0
 25 26  1  0
 26 27  1  0
 27 28  1  0
 28 29  1  0
 29 30  1  0
 30 31  2  0
 31 32  1  0
 32 33  2  0
 33 34  1  0
 34 35  2  0
 35 36  1  0
 26 37  2  0
  4 38  1  0
 38 39  2  0
 39  1  1  0
 11  7  1  0
 37 12  1  0
 24 15  1  0
 36 27  1  0
 23 18  1  0
 35 30  1  0
  1 40  1  0
  2 41  1  0
  3 42  1  0
  6 43  1  0
  6 44  1  0
  7 45  1  6
  8 46  1  0
  8 47  1  0
  9 48  1  0
  9 49  1  0
 10 50  1  0
 10 51  1  0
 16 52  1  0
 16 53  1  0
 17 54  1  0
 17 55  1  0
 19 56  1  0
 20 57  1  0
 21 58  1  0
 22 59  1  0
 24 60  1  0
 24 61  1  0
 28 62  1  0
 28 63  1  0
 29 64  1  0
 29 65  1  0
 31 66  1  0
 32 67  1  0
 33 68  1  0
 34 69  1  0
 36 70  1  0
 36 71  1  0
 38 72  1  0
 39 73  1  0
M  END
>  <smiles>  (40) 
c1ccc(OC[C@@H]2CCCN2c2nc(N3CCc4ccccc4C3)nc(N3CCc4ccccc4C3)n2)cc1

>  <score_type>  (40) 
oracle

>  <origin>  (40) 
autodockgpu

>  <m_score__min__energy>  (40) 
-11.19

>  <m_primary>  (40) 
energy

>  <rmsd>  (40) 
4.888309441336279

>  <m_score__min__rmsd>  (40) 
4.888309441336279

>  <meeko>  (40) 
{"free_energy": -9.37, "intermolecular_energy": -11.16, "internal_energy": -2.7, "cluster_size": 7, "cluster_id": 4, "rank_in_cluster": 4}

>  <energy>  (40) 
-9.26

>  <cluster_rmsd>  (40) 
1.96

>  <cluster>  (40) 
4

$$$$

     RDKit          3D

 73 79  0  0  0  0  0  0  0  0999 V2000
  141.0030   68.1420  228.2760 C   0  0  0  0  0  0  0  0  0  0  0  0
  140.7140   67.9090  226.9560 C   0  0  0  0  0  0  0  0  0  0  0  0
  140.5910   68.9420  226.0560 C   0  0  0  0  0  0  0  0  0  0  0  0
  140.7580   70.2840  226.4450 C   0  0  0  0  0  0  0  0  0  0  0  0
  140.6170   71.2170  225.4750 O   0  0  0  0  0  0  0  0  0  0  0  0
  140.3660   71.1380  224.1150 C   0  0  0  0  0  0  0  0  0  0  0  0
  138.9440   71.4160  223.8100 C   0  0  2  0  0  0  0  0  0  0  0  0
  138.2640   70.2260  223.1130 C   0  0  0  0  0  0  0  0  0  0  0  0
  137.0290   70.8940  222.5540 C   0  0  0  0  0  0  0  0  0  0  0  0
  137.3710   72.3750  222.3800 C   0  0  0  0  0  0  0  0  0  0  0  0
  138.7820   72.3890  222.7190 N   0  0  0  0  0  0  0  0  0  0  0  0
  139.7650   73.1950  222.0940 C   0  0  0  0  0  0  0  0  0  0  0  0
  139.6660   74.5250  222.2660 N   0  0  0  0  0  0  0  0  0  0  0  0
  140.5450   75.3980  221.7180 C   0  0  0  0  0  0  0  0  0  0  0  0
  140.4400   76.8040  221.9000 N   0  0  0  0  0  0  0  0  0  0  0  0
  139.2570   77.3410  222.5760 C   0  0  0  0  0  0  0  0  0  0  0  0
  139.1210   78.8220  222.3690 C   0  0  0  0  0  0  0  0  0  0  0  0
  140.4090   79.4790  222.7640 C   0  0  0  0  0  0  0  0  0  0  0  0
  140.4450   80.6060  223.5610 C   0  0  0  0  0  0  0  0  0  0  0  0
  141.6600   81.1740  223.8970 C   0  0  0  0  0  0  0  0  0  0  0  0
  142.8170   80.6170  223.4390 C   0  0  0  0  0  0  0  0  0  0  0  0
  142.7900   79.4770  222.6310 C   0  0  0  0  0  0  0  0  0  0  0  0
  141.5780   78.9100  222.2960 C   0  0  0  0  0  0  0  0  0  0  0  0
  141.4520   77.7020  221.4450 C   0  0  0  0  0  0  0  0  0  0  0  0
  141.5400   74.8680  220.9830 N   0  0  0  0  0  0  0  0  0  0  0  0
  141.6700   73.5620  220.7930 C   0  0  0  0  0  0  0  0  0  0  0  0
  142.7460   73.0700  220.0050 N   0  0  0  0  0  0  0  0  0  0  0  0
  143.9790   73.8320  219.9600 C   0  0  0  0  0  0  0  0  0  0  0  0
  145.2000   73.0150  220.2770 C   0  0  0  0  0  0  0  0  0  0  0  0
  145.1400   71.6750  219.6460 C   0  0  0  0  0  0  0  0  0  0  0  0
  146.3050   70.9490  219.5340 C   0  0  0  0  0  0  0  0  0  0  0  0
  146.3570   69.6960  218.9650 C   0  0  0  0  0  0  0  0  0  0  0  0
  145.1640   69.1760  218.4960 C   0  0  0  0  0  0  0  0  0  0  0  0
  143.9660   69.8830  218.5930 C   0  0  0  0  0  0  0  0  0  0  0  0
  143.9630   71.1380  219.1710 C   0  0  0  0  0  0  0  0  0  0  0  0
  142.6570   71.8380  219.2450 C   0  0  0  0  0  0  0  0  0  0  0  0
  140.7730   72.7310  221.3560 N   0  0  0  0  0  0  0  0  0  0  0  0
  141.0460   70.4800  227.7700 C   0  0  0  0  0  0  0  0  0  0  0  0
  141.1700   69.4430  228.6830 C   0  0  0  0  0  0  0  0  0  0  0  0
  141.0984   67.3100  228.9892 H   0  0  0  0  0  0  0  0  0  0  0  0
  140.5776   66.8740  226.6094 H   0  0  0  0  0  0  0  0  0  0  0  0
  140.3562   68.7133  225.0060 H   0  0  0  0  0  0  0  0  0  0  0  0
  140.9945   71.8738  223.5919 H   0  0  0  0  0  0  0  0  0  0  0  0
  140.5983   70.1166  223.7793 H   0  0  0  0  0  0  0  0  0  0  0  0
  138.5401   71.7131  224.7891 H   0  0  0  0  0  0  0  0  0  0  0  0
  138.8957   69.8095  222.3145 H   0  0  0  0  0  0  0  0  0  0  0  0
  138.0599   69.3685  223.7710 H   0  0  0  0  0  0  0  0  0  0  0  0
  136.7640   70.4495  221.5833 H   0  0  0  0  0  0  0  0  0  0  0  0
  136.1691   70.7629  223.2273 H   0  0  0  0  0  0  0  0  0  0  0  0
  137.2033   72.7070  221.3448 H   0  0  0  0  0  0  0  0  0  0  0  0
  136.7564   73.0517  222.9919 H   0  0  0  0  0  0  0  0  0  0  0  0
  138.3616   76.8420  222.1770 H   0  0  0  0  0  0  0  0  0  0  0  0
  139.3655   77.1550  223.6547 H   0  0  0  0  0  0  0  0  0  0  0  0
  138.9079   79.0304  221.3102 H   0  0  0  0  0  0  0  0  0  0  0  0
  138.2955   79.2134  222.9817 H   0  0  0  0  0  0  0  0  0  0  0  0
  139.5085   81.0512  223.9280 H   0  0  0  0  0  0  0  0  0  0  0  0
  141.6930   82.0720  224.5315 H   0  0  0  0  0  0  0  0  0  0  0  0
  143.7826   81.0699  223.7084 H   0  0  0  0  0  0  0  0  0  0  0  0
  143.7284   79.0351  222.2648 H   0  0  0  0  0  0  0  0  0  0  0  0
  141.2054   78.0186  220.4208 H   0  0  0  0  0  0  0  0  0  0  0  0
  142.4118   77.1664  221.4886 H   0  0  0  0  0  0  0  0  0  0  0  0
  144.0929   74.2508  218.9492 H   0  0  0  0  0  0  0  0  0  0  0  0
  143.9043   74.6145  220.7295 H   0  0  0  0  0  0  0  0  0  0  0  0
  146.0899   73.5446  219.9059 H   0  0  0  0  0  0  0  0  0  0  0  0
  145.2492   72.8794  221.3675 H   0  0  0  0  0  0  0  0  0  0  0  0
  147.2370   71.3904  219.9167 H   0  0  0  0  0  0  0  0  0  0  0  0
  147.3007   69.1362  218.8873 H   0  0  0  0  0  0  0  0  0  0  0  0
  145.1603   68.1777  218.0340 H   0  0  0  0  0  0  0  0  0  0  0  0
  143.0313   69.4453  218.2126 H   0  0  0  0  0  0  0  0  0  0  0  0
  142.3213   72.0733  218.2242 H   0  0  0  0  0  0  0  0  0  0  0  0
  141.9428   71.1742  219.7542 H   0  0  0  0  0  0  0  0  0  0  0  0
  141.1859   71.5108  228.1276 H   0  0  0  0  0  0  0  0  0  0  0  0
  141.4026   69.6632  229.7353 H   0  0  0  0  0  0  0  0  0  0  0  0
  1  2  2  0
  2  3  1  0
  3  4  2  0
  4  5  1  0
  5  6  1  0
  6  7  1  0
  7  8  1  0
  8  9  1  0
  9 10  1  0
 10 11  1  0
 11 12  1  0
 12 13  2  0
 13 14  1  0
 14 15  1  0
 15 16  1  0
 16 17  1  0
 17 18  1  0
 18 19  2  0
 19 20  1  0
 20 21  2  0
 21 22  1  0
 22 23  2  0
 23 24  1  0
 14 25  2  0
 25 26  1  0
 26 27  1  0
 27 28  1  0
 28 29  1  0
 29 30  1  0
 30 31  2  0
 31 32  1  0
 32 33  2  0
 33 34  1  0
 34 35  2  0
 35 36  1  0
 26 37  2  0
  4 38  1  0
 38 39  2  0
 39  1  1  0
 11  7  1  0
 37 12  1  0
 24 15  1  0
 36 27  1  0
 23 18  1  0
 35 30  1  0
  1 40  1  0
  2 41  1  0
  3 42  1  0
  6 43  1  0
  6 44  1  0
  7 45  1  1
  8 46  1  0
  8 47  1  0
  9 48  1  0
  9 49  1  0
 10 50  1  0
 10 51  1  0
 16 52  1  0
 16 53  1  0
 17 54  1  0
 17 55  1  0
 19 56  1  0
 20 57  1  0
 21 58  1  0
 22 59  1  0
 24 60  1  0
 24 61  1  0
 28 62  1  0
 28 63  1  0
 29 64  1  0
 29 65  1  0
 31 66  1  0
 32 67  1  0
 33 68  1  0
 34 69  1  0
 36 70  1  0
 36 71  1  0
 38 72  1  0
 39 73  1  0
M  END
>  <smiles>  (41) 
c1ccc(OC[C@@H]2CCCN2c2nc(N3CCc4ccccc4C3)nc(N3CCc4ccccc4C3)n2)cc1

>  <score_type>  (41) 
oracle

>  <origin>  (41) 
autodockgpu

>  <m_score__min__energy>  (41) 
-11.19

>  <m_primary>  (41) 
energy

>  <rmsd>  (41) 
5.4614152919098915

>  <m_score__min__rmsd>  (41) 
5.4614152919098915

>  <meeko>  (41) 
{"free_energy": -10.76, "intermolecular_energy": -12.55, "internal_energy": -1.47, "cluster_size": 29, "cluster_id": 1, "rank_in_cluster": 10}

>  <energy>  (41) 
-8.68

>  <cluster_rmsd>  (41) 
1.88

>  <cluster>  (41) 
4

$$$$

     RDKit          3D

 73 79  0  0  0  0  0  0  0  0999 V2000
  142.1440   81.1000  223.5810 C   0  0  0  0  0  0  0  0  0  0  0  0
  142.0720   79.8330  224.1000 C   0  0  0  0  0  0  0  0  0  0  0  0
  141.9060   78.7350  223.2880 C   0  0  0  0  0  0  0  0  0  0  0  0
  141.8050   78.8570  221.8900 C   0  0  0  0  0  0  0  0  0  0  0  0
  141.6460   77.7100  221.1910 O   0  0  0  0  0  0  0  0  0  0  0  0
  141.1520   76.4600  221.5250 C   0  0  0  0  0  0  0  0  0  0  0  0
  139.6810   76.4000  221.3750 C   0  0  2  0  0  0  0  0  0  0  0  0
  138.9570   77.0620  222.5590 C   0  0  0  0  0  0  0  0  0  0  0  0
  137.5620   76.5090  222.3830 C   0  0  0  0  0  0  0  0  0  0  0  0
  137.7050   75.1860  221.6280 C   0  0  0  0  0  0  0  0  0  0  0  0
  139.1490   75.0430  221.5650 N   0  0  0  0  0  0  0  0  0  0  0  0
  139.8550   73.8190  221.6740 C   0  0  0  0  0  0  0  0  0  0  0  0
  139.5600   73.0330  222.7240 N   0  0  0  0  0  0  0  0  0  0  0  0
  140.1670   71.8410  222.9360 C   0  0  0  0  0  0  0  0  0  0  0  0
  139.8540   71.0100  224.0470 N   0  0  0  0  0  0  0  0  0  0  0  0
  139.5090   69.6090  223.8030 C   0  0  0  0  0  0  0  0  0  0  0  0
  138.8640   68.9770  225.0040 C   0  0  0  0  0  0  0  0  0  0  0  0
  139.7500   69.1970  226.1920 C   0  0  0  0  0  0  0  0  0  0  0  0
  140.0620   68.1820  227.0740 C   0  0  0  0  0  0  0  0  0  0  0  0
  140.8850   68.4370  228.1560 C   0  0  0  0  0  0  0  0  0  0  0  0
  141.3840   69.6920  228.3450 C   0  0  0  0  0  0  0  0  0  0  0  0
  141.0730   70.7260  227.4570 C   0  0  0  0  0  0  0  0  0  0  0  0
  140.2530   70.4710  226.3780 C   0  0  0  0  0  0  0  0  0  0  0  0
  139.8690   71.5040  225.3860 C   0  0  0  0  0  0  0  0  0  0  0  0
  141.0930   71.4700  222.0340 N   0  0  0  0  0  0  0  0  0  0  0  0
  141.4100   72.2180  220.9860 C   0  0  0  0  0  0  0  0  0  0  0  0
  142.3990   71.7640  220.0700 N   0  0  0  0  0  0  0  0  0  0  0  0
  143.4400   72.6870  219.6600 C   0  0  0  0  0  0  0  0  0  0  0  0
  144.8290   72.1370  219.8310 C   0  0  0  0  0  0  0  0  0  0  0  0
  144.9060   70.7140  219.4270 C   0  0  0  0  0  0  0  0  0  0  0  0
  146.1460   70.1670  219.1810 C   0  0  0  0  0  0  0  0  0  0  0  0
  146.3270   68.8560  218.8020 C   0  0  0  0  0  0  0  0  0  0  0  0
  145.1870   68.0830  218.6710 C   0  0  0  0  0  0  0  0  0  0  0  0
  143.9160   68.6030  218.9120 C   0  0  0  0  0  0  0  0  0  0  0  0
  143.7830   69.9250  219.2900 C   0  0  0  0  0  0  0  0  0  0  0  0
  142.4050   70.4180  219.5320 C   0  0  0  0  0  0  0  0  0  0  0  0
  140.7810   73.3970  220.8140 N   0  0  0  0  0  0  0  0  0  0  0  0
  141.8820   80.1370  221.4060 C   0  0  0  0  0  0  0  0  0  0  0  0
  142.0480   81.2490  222.2190 C   0  0  0  0  0  0  0  0  0  0  0  0
  142.2750   81.9730  224.2372 H   0  0  0  0  0  0  0  0  0  0  0  0
  142.1486   79.6915  225.1882 H   0  0  0  0  0  0  0  0  0  0  0  0
  141.8508   77.7354  223.7437 H   0  0  0  0  0  0  0  0  0  0  0  0
  141.6094   75.7072  220.8661 H   0  0  0  0  0  0  0  0  0  0  0  0
  141.3998   76.2613  222.5781 H   0  0  0  0  0  0  0  0  0  0  0  0
  139.5212   76.8481  220.3832 H   0  0  0  0  0  0  0  0  0  0  0  0
  139.3942   76.7586  223.5217 H   0  0  0  0  0  0  0  0  0  0  0  0
  139.0133   78.1605  222.5706 H   0  0  0  0  0  0  0  0  0  0  0  0
  137.0959   76.3369  223.3644 H   0  0  0  0  0  0  0  0  0  0  0  0
  136.9243   77.2136  221.8290 H   0  0  0  0  0  0  0  0  0  0  0  0
  137.2428   74.3554  222.1816 H   0  0  0  0  0  0  0  0  0  0  0  0
  137.2100   75.1744  220.6458 H   0  0  0  0  0  0  0  0  0  0  0  0
  138.8107   69.5566  222.9547 H   0  0  0  0  0  0  0  0  0  0  0  0
  140.4373   69.0608  223.5847 H   0  0  0  0  0  0  0  0  0  0  0  0
  137.8818   69.4386  225.1834 H   0  0  0  0  0  0  0  0  0  0  0  0
  138.7246   67.8994  224.8329 H   0  0  0  0  0  0  0  0  0  0  0  0
  139.6566   67.1716  226.9165 H   0  0  0  0  0  0  0  0  0  0  0  0
  141.1360   67.6309  228.8611 H   0  0  0  0  0  0  0  0  0  0  0  0
  142.0386   69.8930  229.2059 H   0  0  0  0  0  0  0  0  0  0  0  0
  141.4794   71.7355  227.6178 H   0  0  0  0  0  0  0  0  0  0  0  0
  138.8632   71.8732  225.6352 H   0  0  0  0  0  0  0  0  0  0  0  0
  140.6224   72.3041  225.4342 H   0  0  0  0  0  0  0  0  0  0  0  0
  143.2904   72.9315  218.5980 H   0  0  0  0  0  0  0  0  0  0  0  0
  143.3605   73.5733  220.3067 H   0  0  0  0  0  0  0  0  0  0  0  0
  145.5235   72.7223  219.2104 H   0  0  0  0  0  0  0  0  0  0  0  0
  145.0981   72.2074  220.8952 H   0  0  0  0  0  0  0  0  0  0  0  0
  147.0331   70.8077  219.2926 H   0  0  0  0  0  0  0  0  0  0  0  0
  147.3289   68.4432  218.6126 H   0  0  0  0  0  0  0  0  0  0  0  0
  145.2861   67.0300  218.3686 H   0  0  0  0  0  0  0  0  0  0  0  0
  143.0262   67.9656  218.8020 H   0  0  0  0  0  0  0  0  0  0  0  0
  141.8533   70.4130  218.5804 H   0  0  0  0  0  0  0  0  0  0  0  0
  141.9301   69.7541  220.2693 H   0  0  0  0  0  0  0  0  0  0  0  0
  141.8086   80.2903  220.3192 H   0  0  0  0  0  0  0  0  0  0  0  0
  142.1029   82.2524  221.7716 H   0  0  0  0  0  0  0  0  0  0  0  0
  1  2  2  0
  2  3  1  0
  3  4  2  0
  4  5  1  0
  5  6  1  0
  6  7  1  0
  7  8  1  0
  8  9  1  0
  9 10  1  0
 10 11  1  0
 11 12  1  0
 12 13  2  0
 13 14  1  0
 14 15  1  0
 15 16  1  0
 16 17  1  0
 17 18  1  0
 18 19  2  0
 19 20  1  0
 20 21  2  0
 21 22  1  0
 22 23  2  0
 23 24  1  0
 14 25  2  0
 25 26  1  0
 26 27  1  0
 27 28  1  0
 28 29  1  0
 29 30  1  0
 30 31  2  0
 31 32  1  0
 32 33  2  0
 33 34  1  0
 34 35  2  0
 35 36  1  0
 26 37  2  0
  4 38  1  0
 38 39  2  0
 39  1  1  0
 11  7  1  0
 37 12  1  0
 24 15  1  0
 36 27  1  0
 23 18  1  0
 35 30  1  0
  1 40  1  0
  2 41  1  0
  3 42  1  0
  6 43  1  0
  6 44  1  0
  7 45  1  6
  8 46  1  0
  8 47  1  0
  9 48  1  0
  9 49  1  0
 10 50  1  0
 10 51  1  0
 16 52  1  0
 16 53  1  0
 17 54  1  0
 17 55  1  0
 19 56  1  0
 20 57  1  0
 21 58  1  0
 22 59  1  0
 24 60  1  0
 24 61  1  0
 28 62  1  0
 28 63  1  0
 29 64  1  0
 29 65  1  0
 31 66  1  0
 32 67  1  0
 33 68  1  0
 34 69  1  0
 36 70  1  0
 36 71  1  0
 38 72  1  0
 39 73  1  0
M  END
>  <smiles>  (42) 
c1ccc(OC[C@@H]2CCCN2c2nc(N3CCc4ccccc4C3)nc(N3CCc4ccccc4C3)n2)cc1

>  <score_type>  (42) 
oracle

>  <origin>  (42) 
autodockgpu

>  <m_score__min__energy>  (42) 
-11.19

>  <m_primary>  (42) 
energy

>  <rmsd>  (42) 
11.492270849786067

>  <m_score__min__rmsd>  (42) 
11.492270849786067

>  <meeko>  (42) 
{"free_energy": -10.58, "intermolecular_energy": -12.37, "internal_energy": -1.53, "cluster_size": 29, "cluster_id": 1, "rank_in_cluster": 18}

>  <energy>  (42) 
-9.61

>  <cluster_rmsd>  (42) 
0.0

>  <cluster>  (42) 
5

$$$$

     RDKit          3D

 73 79  0  0  0  0  0  0  0  0999 V2000
  141.2490   78.1300  218.5870 C   0  0  0  0  0  0  0  0  0  0  0  0
  142.5780   78.0350  218.9110 C   0  0  0  0  0  0  0  0  0  0  0  0
  143.2360   76.8270  218.8940 C   0  0  0  0  0  0  0  0  0  0  0  0
  142.5800   75.6340  218.5420 C   0  0  0  0  0  0  0  0  0  0  0  0
  143.3260   74.5050  218.5560 O   0  0  0  0  0  0  0  0  0  0  0  0
  144.1890   73.9540  219.4890 C   0  0  0  0  0  0  0  0  0  0  0  0
  144.2470   72.4800  219.3700 C   0  0  2  0  0  0  0  0  0  0  0  0
  143.9410   72.0070  217.9380 C   0  0  0  0  0  0  0  0  0  0  0  0
  143.6510   70.5450  218.1790 C   0  0  0  0  0  0  0  0  0  0  0  0
  143.1790   70.4220  219.6300 C   0  0  0  0  0  0  0  0  0  0  0  0
  143.1150   71.8150  220.0320 N   0  0  0  0  0  0  0  0  0  0  0  0
  142.1360   72.3730  220.8910 C   0  0  0  0  0  0  0  0  0  0  0  0
  141.6250   71.5700  221.8410 N   0  0  0  0  0  0  0  0  0  0  0  0
  140.6840   71.9890  222.7200 C   0  0  0  0  0  0  0  0  0  0  0  0
  140.1450   71.1390  223.7250 N   0  0  0  0  0  0  0  0  0  0  0  0
  139.5720   69.8520  223.3270 C   0  0  0  0  0  0  0  0  0  0  0  0
  138.7360   69.2520  224.4210 C   0  0  0  0  0  0  0  0  0  0  0  0
  139.5560   69.2010  225.6740 C   0  0  0  0  0  0  0  0  0  0  0  0
  139.6140   68.0740  226.4700 C   0  0  0  0  0  0  0  0  0  0  0  0
  140.3860   68.0800  227.6170 C   0  0  0  0  0  0  0  0  0  0  0  0
  141.0870   69.1990  227.9560 C   0  0  0  0  0  0  0  0  0  0  0  0
  141.0340   70.3440  227.1570 C   0  0  0  0  0  0  0  0  0  0  0  0
  140.2640   70.3390  226.0120 C   0  0  0  0  0  0  0  0  0  0  0  0
  140.1470   71.5060  225.1040 C   0  0  0  0  0  0  0  0  0  0  0  0
  140.2750   73.2650  222.6010 N   0  0  0  0  0  0  0  0  0  0  0  0
  140.7560   74.0860  221.6770 C   0  0  0  0  0  0  0  0  0  0  0  0
  140.2790   75.4240  221.6080 N   0  0  0  0  0  0  0  0  0  0  0  0
  138.8480   75.6480  221.5530 C   0  0  0  0  0  0  0  0  0  0  0  0
  138.3540   76.6220  222.5860 C   0  0  0  0  0  0  0  0  0  0  0  0
  139.2740   77.7740  222.7350 C   0  0  0  0  0  0  0  0  0  0  0  0
  138.8080   78.9110  223.3580 C   0  0  0  0  0  0  0  0  0  0  0  0
  139.5810   80.0340  223.5470 C   0  0  0  0  0  0  0  0  0  0  0  0
  140.8800   79.9810  223.0750 C   0  0  0  0  0  0  0  0  0  0  0  0
  141.3860   78.8470  222.4400 C   0  0  0  0  0  0  0  0  0  0  0  0
  140.5720   77.7440  222.2720 C   0  0  0  0  0  0  0  0  0  0  0  0
  141.1680   76.5690  221.5890 C   0  0  0  0  0  0  0  0  0  0  0  0
  141.6910   73.6280  220.8230 N   0  0  0  0  0  0  0  0  0  0  0  0
  141.2540   75.7640  218.2230 C   0  0  0  0  0  0  0  0  0  0  0  0
  140.5830   76.9790  218.2390 C   0  0  0  0  0  0  0  0  0  0  0  0
  140.7304   79.0999  218.6051 H   0  0  0  0  0  0  0  0  0  0  0  0
  143.1300   78.9445  219.1906 H   0  0  0  0  0  0  0  0  0  0  0  0
  144.3022   76.7934  219.1625 H   0  0  0  0  0  0  0  0  0  0  0  0
  145.1968   74.3653  219.3305 H   0  0  0  0  0  0  0  0  0  0  0  0
  143.8173   74.2048  220.4934 H   0  0  0  0  0  0  0  0  0  0  0  0
  145.2460   72.2458  219.7664 H   0  0  0  0  0  0  0  0  0  0  0  0
  143.0689   72.5287  217.5170 H   0  0  0  0  0  0  0  0  0  0  0  0
  144.7462   72.1982  217.2133 H   0  0  0  0  0  0  0  0  0  0  0  0
  142.8640   70.1969  217.4938 H   0  0  0  0  0  0  0  0  0  0  0  0
  144.5457   69.9302  218.0011 H   0  0  0  0  0  0  0  0  0  0  0  0
  142.1922   69.9400  219.6921 H   0  0  0  0  0  0  0  0  0  0  0  0
  143.8309   69.8019  220.2628 H   0  0  0  0  0  0  0  0  0  0  0  0
  138.9412   70.0025  222.4385 H   0  0  0  0  0  0  0  0  0  0  0  0
  140.4001   69.1609  223.1111 H   0  0  0  0  0  0  0  0  0  0  0  0
  137.8427   69.8719  224.5874 H   0  0  0  0  0  0  0  0  0  0  0  0
  138.4175   68.2378  224.1381 H   0  0  0  0  0  0  0  0  0  0  0  0
  139.0471   67.1733  226.1920 H   0  0  0  0  0  0  0  0  0  0  0  0
  140.4344   67.1846  228.2541 H   0  0  0  0  0  0  0  0  0  0  0  0
  141.7011   69.2005  228.8686 H   0  0  0  0  0  0  0  0  0  0  0  0
  141.6020   71.2429  227.4387 H   0  0  0  0  0  0  0  0  0  0  0  0
  139.2076   72.0324  225.3284 H   0  0  0  0  0  0  0  0  0  0  0  0
  141.0256   72.1457  225.2739 H   0  0  0  0  0  0  0  0  0  0  0  0
  138.5947   76.0389  220.5565 H   0  0  0  0  0  0  0  0  0  0  0  0
  138.3611   74.6833  221.7585 H   0  0  0  0  0  0  0  0  0  0  0  0
  137.3641   76.9930  222.2820 H   0  0  0  0  0  0  0  0  0  0  0  0
  138.2985   76.0993  223.5523 H   0  0  0  0  0  0  0  0  0  0  0  0
  137.7698   78.9218  223.7213 H   0  0  0  0  0  0  0  0  0  0  0  0
  139.1852   80.9294  224.0486 H   0  0  0  0  0  0  0  0  0  0  0  0
  141.5321   80.8575  223.2040 H   0  0  0  0  0  0  0  0  0  0  0  0
  142.4240   78.8313  222.0763 H   0  0  0  0  0  0  0  0  0  0  0  0
  141.3816   76.8360  220.5435 H   0  0  0  0  0  0  0  0  0  0  0  0
  142.0888   76.2944  222.1244 H   0  0  0  0  0  0  0  0  0  0  0  0
  140.6933   74.8608  217.9402 H   0  0  0  0  0  0  0  0  0  0  0  0
  139.5165   77.0208  217.9727 H   0  0  0  0  0  0  0  0  0  0  0  0
  1  2  2  0
  2  3  1  0
  3  4  2  0
  4  5  1  0
  5  6  1  0
  6  7  1  0
  7  8  1  0
  8  9  1  0
  9 10  1  0
 10 11  1  0
 11 12  1  0
 12 13  2  0
 13 14  1  0
 14 15  1  0
 15 16  1  0
 16 17  1  0
 17 18  1  0
 18 19  2  0
 19 20  1  0
 20 21  2  0
 21 22  1  0
 22 23  2  0
 23 24  1  0
 14 25  2  0
 25 26  1  0
 26 27  1  0
 27 28  1  0
 28 29  1  0
 29 30  1  0
 30 31  2  0
 31 32  1  0
 32 33  2  0
 33 34  1  0
 34 35  2  0
 35 36  1  0
 26 37  2  0
  4 38  1  0
 38 39  2  0
 39  1  1  0
 11  7  1  0
 37 12  1  0
 24 15  1  0
 36 27  1  0
 23 18  1  0
 35 30  1  0
  1 40  1  0
  2 41  1  0
  3 42  1  0
  6 43  1  0
  6 44  1  0
  7 45  1  1
  8 46  1  0
  8 47  1  0
  9 48  1  0
  9 49  1  0
 10 50  1  0
 10 51  1  0
 16 52  1  0
 16 53  1  0
 17 54  1  0
 17 55  1  0
 19 56  1  0
 20 57  1  0
 21 58  1  0
 22 59  1  0
 24 60  1  0
 24 61  1  0
 28 62  1  0
 28 63  1  0
 29 64  1  0
 29 65  1  0
 31 66  1  0
 32 67  1  0
 33 68  1  0
 34 69  1  0
 36 70  1  0
 36 71  1  0
 38 72  1  0
 39 73  1  0
M  END
>  <smiles>  (43) 
c1ccc(OC[C@@H]2CCCN2c2nc(N3CCc4ccccc4C3)nc(N3CCc4ccccc4C3)n2)cc1

>  <score_type>  (43) 
oracle

>  <origin>  (43) 
autodockgpu

>  <m_score__min__energy>  (43) 
-11.19

>  <m_primary>  (43) 
energy

>  <rmsd>  (43) 
11.337379237649719

>  <m_score__min__rmsd>  (43) 
11.337379237649719

>  <meeko>  (43) 
{"free_energy": -9.39, "intermolecular_energy": -11.18, "internal_energy": -2.57, "cluster_size": 7, "cluster_id": 4, "rank_in_cluster": 3}

>  <energy>  (43) 
-9.61

>  <cluster_rmsd>  (43) 
0.1

>  <cluster>  (43) 
5

$$$$

     RDKit          3D

 73 79  0  0  0  0  0  0  0  0999 V2000
  141.9320   81.5150  223.1780 C   0  0  0  0  0  0  0  0  0  0  0  0
  142.8470   80.5300  223.4450 C   0  0  0  0  0  0  0  0  0  0  0  0
  142.4950   79.2010  223.4240 C   0  0  0  0  0  0  0  0  0  0  0  0
  141.1840   78.7880  223.1280 C   0  0  0  0  0  0  0  0  0  0  0  0
  140.9520   77.4550  223.1340 O   0  0  0  0  0  0  0  0  0  0  0  0
  141.0990   76.4660  222.1750 C   0  0  0  0  0  0  0  0  0  0  0  0
  139.9210   76.3980  221.2810 C   0  0  2  0  0  0  0  0  0  0  0  0
  138.6700   77.0100  221.9330 C   0  0  0  0  0  0  0  0  0  0  0  0
  137.5850   76.4510  221.0430 C   0  0  0  0  0  0  0  0  0  0  0  0
  138.1350   75.1570  220.4380 C   0  0  0  0  0  0  0  0  0  0  0  0
  139.4040   75.0300  221.1310 N   0  0  0  0  0  0  0  0  0  0  0  0
  139.9840   73.8090  221.5580 C   0  0  0  0  0  0  0  0  0  0  0  0
  140.9760   73.3060  220.8040 N   0  0  0  0  0  0  0  0  0  0  0  0
  141.6070   72.1470  221.1090 C   0  0  0  0  0  0  0  0  0  0  0  0
  142.6570   71.6150  220.3110 N   0  0  0  0  0  0  0  0  0  0  0  0
  143.9010   72.3760  220.1840 C   0  0  0  0  0  0  0  0  0  0  0  0
  144.7460   71.8780  219.0470 C   0  0  0  0  0  0  0  0  0  0  0  0
  144.9400   70.4010  219.2080 C   0  0  0  0  0  0  0  0  0  0  0  0
  146.1770   69.8030  219.0720 C   0  0  0  0  0  0  0  0  0  0  0  0
  146.3020   68.4350  219.2310 C   0  0  0  0  0  0  0  0  0  0  0  0
  145.2020   67.6840  219.5230 C   0  0  0  0  0  0  0  0  0  0  0  0
  143.9460   68.2810  219.6620 C   0  0  0  0  0  0  0  0  0  0  0  0
  143.8210   69.6460  219.5040 C   0  0  0  0  0  0  0  0  0  0  0  0
  142.5310   70.3650  219.6340 C   0  0  0  0  0  0  0  0  0  0  0  0
  141.1920   71.5100  222.2190 N   0  0  0  0  0  0  0  0  0  0  0  0
  140.2180   71.9770  222.9880 C   0  0  0  0  0  0  0  0  0  0  0  0
  139.8290   71.2530  224.1490 N   0  0  0  0  0  0  0  0  0  0  0  0
  138.8470   70.1960  224.0100 C   0  0  0  0  0  0  0  0  0  0  0  0
  139.2860   68.8870  224.6050 C   0  0  0  0  0  0  0  0  0  0  0  0
  139.9800   69.0820  225.9000 C   0  0  0  0  0  0  0  0  0  0  0  0
  140.1260   67.9980  226.7370 C   0  0  0  0  0  0  0  0  0  0  0  0
  140.7540   68.0720  227.9590 C   0  0  0  0  0  0  0  0  0  0  0  0
  141.2490   69.3090  228.3300 C   0  0  0  0  0  0  0  0  0  0  0  0
  141.1200   70.4280  227.5080 C   0  0  0  0  0  0  0  0  0  0  0  0
  140.4810   70.3060  226.2900 C   0  0  0  0  0  0  0  0  0  0  0  0
  140.3760   71.5320  225.4620 C   0  0  0  0  0  0  0  0  0  0  0  0
  139.6170   73.1330  222.6470 N   0  0  0  0  0  0  0  0  0  0  0  0
  140.2950   79.7980  222.8660 C   0  0  0  0  0  0  0  0  0  0  0  0
  140.6430   81.1410  222.8860 C   0  0  0  0  0  0  0  0  0  0  0  0
  142.2220   82.5759  223.1970 H   0  0  0  0  0  0  0  0  0  0  0  0
  143.8846   80.8086  223.6810 H   0  0  0  0  0  0  0  0  0  0  0  0
  143.2590   78.4410  223.6445 H   0  0  0  0  0  0  0  0  0  0  0  0
  141.9932   76.6827  221.5722 H   0  0  0  0  0  0  0  0  0  0  0  0
  141.1984   75.4987  222.6892 H   0  0  0  0  0  0  0  0  0  0  0  0
  140.2874   76.8806  220.3629 H   0  0  0  0  0  0  0  0  0  0  0  0
  138.5516   76.6759  222.9743 H   0  0  0  0  0  0  0  0  0  0  0  0
  138.6827   78.1078  222.0011 H   0  0  0  0  0  0  0  0  0  0  0  0
  136.6817   76.2391  221.6339 H   0  0  0  0  0  0  0  0  0  0  0  0
  137.3093   77.1692  220.2568 H   0  0  0  0  0  0  0  0  0  0  0  0
  137.4749   74.3027  220.6486 H   0  0  0  0  0  0  0  0  0  0  0  0
  138.2227   75.1764  219.3417 H   0  0  0  0  0  0  0  0  0  0  0  0
  143.6550   73.4336  220.0081 H   0  0  0  0  0  0  0  0  0  0  0  0
  144.4737   72.2527  221.1150 H   0  0  0  0  0  0  0  0  0  0  0  0
  144.2407   72.0836  218.0918 H   0  0  0  0  0  0  0  0  0  0  0  0
  145.7206   72.3881  219.0511 H   0  0  0  0  0  0  0  0  0  0  0  0
  147.0614   70.4136  218.8376 H   0  0  0  0  0  0  0  0  0  0  0  0
  147.2854   67.9543  219.1223 H   0  0  0  0  0  0  0  0  0  0  0  0
  145.3043   66.5962  219.6506 H   0  0  0  0  0  0  0  0  0  0  0  0
  143.0636   67.6672  219.8957 H   0  0  0  0  0  0  0  0  0  0  0  0
  142.1296   70.5504  218.6268 H   0  0  0  0  0  0  0  0  0  0  0  0
  141.8594   69.7320  220.2326 H   0  0  0  0  0  0  0  0  0  0  0  0
  137.9208   70.5132  224.5116 H   0  0  0  0  0  0  0  0  0  0  0  0
  138.7020   70.0290  222.9325 H   0  0  0  0  0  0  0  0  0  0  0  0
  138.4013   68.2534  224.7659 H   0  0  0  0  0  0  0  0  0  0  0  0
  139.9889   68.4099  223.9063 H   0  0  0  0  0  0  0  0  0  0  0  0
  139.7216   67.0276  226.4134 H   0  0  0  0  0  0  0  0  0  0  0  0
  140.8573   67.1906  228.6090 H   0  0  0  0  0  0  0  0  0  0  0  0
  141.7581   69.4129  229.2995 H   0  0  0  0  0  0  0  0  0  0  0  0
  141.5240   71.4000  227.8273 H   0  0  0  0  0  0  0  0  0  0  0  0
  139.7210   72.2520  225.9744 H   0  0  0  0  0  0  0  0  0  0  0  0
  141.3884   71.9412  225.3293 H   0  0  0  0  0  0  0  0  0  0  0  0
  139.2548   79.5307  222.6283 H   0  0  0  0  0  0  0  0  0  0  0  0
  139.8851   81.9077  222.6676 H   0  0  0  0  0  0  0  0  0  0  0  0
  1  2  2  0
  2  3  1  0
  3  4  2  0
  4  5  1  0
  5  6  1  0
  6  7  1  0
  7  8  1  0
  8  9  1  0
  9 10  1  0
 10 11  1  0
 11 12  1  0
 12 13  2  0
 13 14  1  0
 14 15  1  0
 15 16  1  0
 16 17  1  0
 17 18  1  0
 18 19  2  0
 19 20  1  0
 20 21  2  0
 21 22  1  0
 22 23  2  0
 23 24  1  0
 14 25  2  0
 25 26  1  0
 26 27  1  0
 27 28  1  0
 28 29  1  0
 29 30  1  0
 30 31  2  0
 31 32  1  0
 32 33  2  0
 33 34  1  0
 34 35  2  0
 35 36  1  0
 26 37  2  0
  4 38  1  0
 38 39  2  0
 39  1  1  0
 11  7  1  0
 37 12  1  0
 24 15  1  0
 36 27  1  0
 23 18  1  0
 35 30  1  0
  1 40  1  0
  2 41  1  0
  3 42  1  0
  6 43  1  0
  6 44  1  0
  7 45  1  6
  8 46  1  0
  8 47  1  0
  9 48  1  0
  9 49  1  0
 10 50  1  0
 10 51  1  0
 16 52  1  0
 16 53  1  0
 17 54  1  0
 17 55  1  0
 19 56  1  0
 20 57  1  0
 21 58  1  0
 22 59  1  0
 24 60  1  0
 24 61  1  0
 28 62  1  0
 28 63  1  0
 29 64  1  0
 29 65  1  0
 31 66  1  0
 32 67  1  0
 33 68  1  0
 34 69  1  0
 36 70  1  0
 36 71  1  0
 38 72  1  0
 39 73  1  0
M  END
>  <smiles>  (44) 
c1ccc(OC[C@@H]2CCCN2c2nc(N3CCc4ccccc4C3)nc(N3CCc4ccccc4C3)n2)cc1

>  <score_type>  (44) 
oracle

>  <origin>  (44) 
autodockgpu

>  <m_score__min__energy>  (44) 
-11.19

>  <m_primary>  (44) 
energy

>  <rmsd>  (44) 
10.5074841243121

>  <m_score__min__rmsd>  (44) 
10.5074841243121

>  <meeko>  (44) 
{"free_energy": -10.94, "intermolecular_energy": -12.73, "internal_energy": -1.48, "cluster_size": 29, "cluster_id": 1, "rank_in_cluster": 4}

>  <energy>  (44) 
-9.58

>  <cluster_rmsd>  (44) 
0.13

>  <cluster>  (44) 
5

$$$$

     RDKit          3D

 73 79  0  0  0  0  0  0  0  0999 V2000
  140.5660   70.7070  228.3280 C   0  0  0  0  0  0  0  0  0  0  0  0
  141.0280   71.8420  227.7140 C   0  0  0  0  0  0  0  0  0  0  0  0
  141.0680   71.9490  226.3430 C   0  0  0  0  0  0  0  0  0  0  0  0
  140.6360   70.9030  225.5070 C   0  0  0  0  0  0  0  0  0  0  0  0
  140.7180   71.1200  224.1740 O   0  0  0  0  0  0  0  0  0  0  0  0
  139.9180   70.7500  223.1050 C   0  0  0  0  0  0  0  0  0  0  0  0
  138.5770   71.3700  223.1920 C   0  0  2  0  0  0  0  0  0  0  0  0
  137.5460   70.6300  222.3230 C   0  0  0  0  0  0  0  0  0  0  0  0
  136.4440   71.6600  222.2530 C   0  0  0  0  0  0  0  0  0  0  0  0
  137.1020   73.0250  222.4660 C   0  0  0  0  0  0  0  0  0  0  0  0
  138.5080   72.6660  222.5010 N   0  0  0  0  0  0  0  0  0  0  0  0
  139.5640   73.4420  221.9610 C   0  0  0  0  0  0  0  0  0  0  0  0
  139.5230   74.7670  222.1790 N   0  0  0  0  0  0  0  0  0  0  0  0
  140.4740   75.6120  221.7140 C   0  0  0  0  0  0  0  0  0  0  0  0
  140.4300   77.0150  221.9460 N   0  0  0  0  0  0  0  0  0  0  0  0
  139.2860   77.5740  222.6680 C   0  0  0  0  0  0  0  0  0  0  0  0
  139.2060   79.0660  222.5140 C   0  0  0  0  0  0  0  0  0  0  0  0
  140.5270   79.6570  222.9000 C   0  0  0  0  0  0  0  0  0  0  0  0
  140.6270   80.7530  223.7340 C   0  0  0  0  0  0  0  0  0  0  0  0
  141.8720   81.2600  224.0600 C   0  0  0  0  0  0  0  0  0  0  0  0
  142.9950   80.6730  223.5550 C   0  0  0  0  0  0  0  0  0  0  0  0
  142.9030   79.5640  222.7100 C   0  0  0  0  0  0  0  0  0  0  0  0
  141.6610   79.0580  222.3860 C   0  0  0  0  0  0  0  0  0  0  0  0
  141.4670   77.8870  221.4970 C   0  0  0  0  0  0  0  0  0  0  0  0
  141.4790   75.0590  221.0120 N   0  0  0  0  0  0  0  0  0  0  0  0
  141.5520   73.7560  220.7770 C   0  0  0  0  0  0  0  0  0  0  0  0
  142.6440   73.2370  220.0270 N   0  0  0  0  0  0  0  0  0  0  0  0
  143.8420   74.0430  219.8970 C   0  0  0  0  0  0  0  0  0  0  0  0
  145.1000   73.3130  220.2770 C   0  0  0  0  0  0  0  0  0  0  0  0
  145.0940   71.9180  219.7770 C   0  0  0  0  0  0  0  0  0  0  0  0
  146.2880   71.2340  219.7210 C   0  0  0  0  0  0  0  0  0  0  0  0
  146.3910   69.9370  219.2740 C   0  0  0  0  0  0  0  0  0  0  0  0
  145.2190   69.3240  218.8690 C   0  0  0  0  0  0  0  0  0  0  0  0
  143.9920   69.9850  218.9110 C   0  0  0  0  0  0  0  0  0  0  0  0
  143.9380   71.2880  219.3680 C   0  0  0  0  0  0  0  0  0  0  0  0
  142.6030   71.9360  219.3890 C   0  0  0  0  0  0  0  0  0  0  0  0
  140.5850   72.9520  221.2590 N   0  0  0  0  0  0  0  0  0  0  0  0
  140.1800   69.7850  226.1540 C   0  0  0  0  0  0  0  0  0  0  0  0
  140.1380   69.6690  227.5360 C   0  0  0  0  0  0  0  0  0  0  0  0
  140.5386   70.6292  229.4249 H   0  0  0  0  0  0  0  0  0  0  0  0
  141.3740   72.6849  228.3303 H   0  0  0  0  0  0  0  0  0  0  0  0
  141.4475   72.8762  225.8887 H   0  0  0  0  0  0  0  0  0  0  0  0
  140.4002   71.0706  222.1697 H   0  0  0  0  0  0  0  0  0  0  0  0
  139.7954   69.6571  223.1273 H   0  0  0  0  0  0  0  0  0  0  0  0
  138.3898   71.3884  224.2758 H   0  0  0  0  0  0  0  0  0  0  0  0
  137.9484   70.3992  221.3256 H   0  0  0  0  0  0  0  0  0  0  0  0
  137.2323   69.6535  222.7205 H   0  0  0  0  0  0  0  0  0  0  0  0
  135.9545   71.6248  221.2685 H   0  0  0  0  0  0  0  0  0  0  0  0
  135.6752   71.4686  223.0161 H   0  0  0  0  0  0  0  0  0  0  0  0
  136.8830   73.7109  221.6344 H   0  0  0  0  0  0  0  0  0  0  0  0
  136.7523   73.5564  223.3634 H   0  0  0  0  0  0  0  0  0  0  0  0
  138.3622   77.1251  222.2742 H   0  0  0  0  0  0  0  0  0  0  0  0
  139.4110   77.3462  223.7369 H   0  0  0  0  0  0  0  0  0  0  0  0
  138.9781   79.3190  221.4680 H   0  0  0  0  0  0  0  0  0  0  0  0
  138.4110   79.4686  223.1589 H   0  0  0  0  0  0  0  0  0  0  0  0
  139.7180   81.2222  224.1385 H   0  0  0  0  0  0  0  0  0  0  0  0
  141.9561   82.1331  224.7238 H   0  0  0  0  0  0  0  0  0  0  0  0
  143.9842   81.0773  223.8159 H   0  0  0  0  0  0  0  0  0  0  0  0
  143.8139   79.0979  222.3062 H   0  0  0  0  0  0  0  0  0  0  0  0
  141.2100   78.2490  220.4906 H   0  0  0  0  0  0  0  0  0  0  0  0
  142.4051   77.3126  221.4980 H   0  0  0  0  0  0  0  0  0  0  0  0
  143.9309   74.3682  218.8499 H   0  0  0  0  0  0  0  0  0  0  0  0
  143.7382   74.8910  220.5899 H   0  0  0  0  0  0  0  0  0  0  0  0
  145.9634   73.8423  219.8475 H   0  0  0  0  0  0  0  0  0  0  0  0
  145.1627   73.2845  221.3748 H   0  0  0  0  0  0  0  0  0  0  0  0
  147.2028   71.7492  220.0493 H   0  0  0  0  0  0  0  0  0  0  0  0
  147.3577   69.4132  219.2403 H   0  0  0  0  0  0  0  0  0  0  0  0
  145.2560   68.2870  218.5039 H   0  0  0  0  0  0  0  0  0  0  0  0
  143.0749   69.4737  218.5832 H   0  0  0  0  0  0  0  0  0  0  0  0
  142.2506   72.0583  218.3542 H   0  0  0  0  0  0  0  0  0  0  0  0
  141.9214   71.2942  219.9666 H   0  0  0  0  0  0  0  0  0  0  0  0
  139.8296   68.9368  225.5476 H   0  0  0  0  0  0  0  0  0  0  0  0
  139.7615   68.7446  227.9983 H   0  0  0  0  0  0  0  0  0  0  0  0
  1  2  2  0
  2  3  1  0
  3  4  2  0
  4  5  1  0
  5  6  1  0
  6  7  1  0
  7  8  1  0
  8  9  1  0
  9 10  1  0
 10 11  1  0
 11 12  1  0
 12 13  2  0
 13 14  1  0
 14 15  1  0
 15 16  1  0
 16 17  1  0
 17 18  1  0
 18 19  2  0
 19 20  1  0
 20 21  2  0
 21 22  1  0
 22 23  2  0
 23 24  1  0
 14 25  2  0
 25 26  1  0
 26 27  1  0
 27 28  1  0
 28 29  1  0
 29 30  1  0
 30 31  2  0
 31 32  1  0
 32 33  2  0
 33 34  1  0
 34 35  2  0
 35 36  1  0
 26 37  2  0
  4 38  1  0
 38 39  2  0
 39  1  1  0
 11  7  1  0
 37 12  1  0
 24 15  1  0
 36 27  1  0
 23 18  1  0
 35 30  1  0
  1 40  1  0
  2 41  1  0
  3 42  1  0
  6 43  1  0
  6 44  1  0
  7 45  1  1
  8 46  1  0
  8 47  1  0
  9 48  1  0
  9 49  1  0
 10 50  1  0
 10 51  1  0
 16 52  1  0
 16 53  1  0
 17 54  1  0
 17 55  1  0
 19 56  1  0
 20 57  1  0
 21 58  1  0
 22 59  1  0
 24 60  1  0
 24 61  1  0
 28 62  1  0
 28 63  1  0
 29 64  1  0
 29 65  1  0
 31 66  1  0
 32 67  1  0
 33 68  1  0
 34 69  1  0
 36 70  1  0
 36 71  1  0
 38 72  1  0
 39 73  1  0
M  END
>  <smiles>  (45) 
c1ccc(OC[C@@H]2CCCN2c2nc(N3CCc4ccccc4C3)nc(N3CCc4ccccc4C3)n2)cc1

>  <score_type>  (45) 
oracle

>  <origin>  (45) 
autodockgpu

>  <m_score__min__energy>  (45) 
-11.19

>  <m_primary>  (45) 
energy

>  <rmsd>  (45) 
5.601825553997287

>  <m_score__min__rmsd>  (45) 
5.601825553997287

>  <meeko>  (45) 
{"free_energy": -10.77, "intermolecular_energy": -12.56, "internal_energy": -1.65, "cluster_size": 29, "cluster_id": 1, "rank_in_cluster": 8}

>  <energy>  (45) 
-9.56

>  <cluster_rmsd>  (45) 
0.2

>  <cluster>  (45) 
5

$$$$

     RDKit          3D

 73 79  0  0  0  0  0  0  0  0999 V2000
  141.0940   77.7460  218.3630 C   0  0  0  0  0  0  0  0  0  0  0  0
  140.8270   76.4200  218.1380 C   0  0  0  0  0  0  0  0  0  0  0  0
  141.7810   75.4520  218.3470 C   0  0  0  0  0  0  0  0  0  0  0  0
  143.0730   75.7730  218.8010 C   0  0  0  0  0  0  0  0  0  0  0  0
  143.9290   74.7390  218.9740 O   0  0  0  0  0  0  0  0  0  0  0  0
  144.0340   73.7490  219.9360 C   0  0  0  0  0  0  0  0  0  0  0  0
  143.7570   72.4100  219.3680 C   0  0  2  0  0  0  0  0  0  0  0  0
  143.4030   72.4830  217.8730 C   0  0  0  0  0  0  0  0  0  0  0  0
  142.7780   71.1240  217.6640 C   0  0  0  0  0  0  0  0  0  0  0  0
  142.2380   70.6730  219.0240 C   0  0  0  0  0  0  0  0  0  0  0  0
  142.4790   71.8520  219.8360 N   0  0  0  0  0  0  0  0  0  0  0  0
  141.6240   72.3280  220.8600 C   0  0  0  0  0  0  0  0  0  0  0  0
  141.2880   73.6300  220.8210 N   0  0  0  0  0  0  0  0  0  0  0  0
  140.4780   74.2010  221.7440 C   0  0  0  0  0  0  0  0  0  0  0  0
  140.1230   75.5780  221.7020 N   0  0  0  0  0  0  0  0  0  0  0  0
  138.7070   75.9430  221.7770 C   0  0  0  0  0  0  0  0  0  0  0  0
  138.4760   77.3670  221.3600 C   0  0  0  0  0  0  0  0  0  0  0  0
  139.3850   78.2510  222.1590 C   0  0  0  0  0  0  0  0  0  0  0  0
  138.9380   79.4080  222.7660 C   0  0  0  0  0  0  0  0  0  0  0  0
  139.8180   80.1890  223.4930 C   0  0  0  0  0  0  0  0  0  0  0  0
  141.1230   79.8110  223.6070 C   0  0  0  0  0  0  0  0  0  0  0  0
  141.5840   78.6420  222.9960 C   0  0  0  0  0  0  0  0  0  0  0  0
  140.7060   77.8620  222.2710 C   0  0  0  0  0  0  0  0  0  0  0  0
  141.1050   76.6070  221.5900 C   0  0  0  0  0  0  0  0  0  0  0  0
  140.0140   73.3970  222.7180 N   0  0  0  0  0  0  0  0  0  0  0  0
  140.3240   72.1090  222.7870 C   0  0  0  0  0  0  0  0  0  0  0  0
  139.7980   71.3160  223.8440 N   0  0  0  0  0  0  0  0  0  0  0  0
  138.8350   70.2810  223.5220 C   0  0  0  0  0  0  0  0  0  0  0  0
  139.1970   68.9320  224.0780 C   0  0  0  0  0  0  0  0  0  0  0  0
  139.7330   69.0350  225.4550 C   0  0  0  0  0  0  0  0  0  0  0  0
  139.7750   67.8970  226.2310 C   0  0  0  0  0  0  0  0  0  0  0  0
  140.2540   67.8850  227.5210 C   0  0  0  0  0  0  0  0  0  0  0  0
  140.7060   69.0900  228.0280 C   0  0  0  0  0  0  0  0  0  0  0  0
  140.6790   70.2620  227.2720 C   0  0  0  0  0  0  0  0  0  0  0  0
  140.1880   70.2250  225.9810 C   0  0  0  0  0  0  0  0  0  0  0  0
  140.1860   71.5040  225.2280 C   0  0  0  0  0  0  0  0  0  0  0  0
  141.1330   71.5820  221.8490 N   0  0  0  0  0  0  0  0  0  0  0  0
  143.3060   77.1060  219.0160 C   0  0  0  0  0  0  0  0  0  0  0  0
  142.3480   78.0890  218.8070 C   0  0  0  0  0  0  0  0  0  0  0  0
  140.3252   78.5141  218.1927 H   0  0  0  0  0  0  0  0  0  0  0  0
  139.8287   76.1244  217.7829 H   0  0  0  0  0  0  0  0  0  0  0  0
  141.5272   74.3992  218.1541 H   0  0  0  0  0  0  0  0  0  0  0  0
  145.0535   73.7583  220.3489 H   0  0  0  0  0  0  0  0  0  0  0  0
  143.2917   73.9511  220.7222 H   0  0  0  0  0  0  0  0  0  0  0  0
  144.6606   71.8428  219.6357 H   0  0  0  0  0  0  0  0  0  0  0  0
  142.6888   73.2934  217.6651 H   0  0  0  0  0  0  0  0  0  0  0  0
  144.2560   72.6986  217.2128 H   0  0  0  0  0  0  0  0  0  0  0  0
  141.9577   71.1924  216.9343 H   0  0  0  0  0  0  0  0  0  0  0  0
  143.5143   70.4062  217.2733 H   0  0  0  0  0  0  0  0  0  0  0  0
  141.1657   70.4336  218.9713 H   0  0  0  0  0  0  0  0  0  0  0  0
  142.7079   69.7572  219.4120 H   0  0  0  0  0  0  0  0  0  0  0  0
  138.1326   75.2799  221.1134 H   0  0  0  0  0  0  0  0  0  0  0  0
  138.3807   75.8352  222.8219 H   0  0  0  0  0  0  0  0  0  0  0  0
  138.6966   77.4800  220.2883 H   0  0  0  0  0  0  0  0  0  0  0  0
  137.4271   77.6461  221.5384 H   0  0  0  0  0  0  0  0  0  0  0  0
  137.8839   79.7079  222.6715 H   0  0  0  0  0  0  0  0  0  0  0  0
  139.4663   81.1118  223.9775 H   0  0  0  0  0  0  0  0  0  0  0  0
  141.8208   80.4333  224.1865 H   0  0  0  0  0  0  0  0  0  0  0  0
  142.6389   78.3455  223.0921 H   0  0  0  0  0  0  0  0  0  0  0  0
  141.2673   76.8227  220.5236 H   0  0  0  0  0  0  0  0  0  0  0  0
  142.0212   76.2434  222.0783 H   0  0  0  0  0  0  0  0  0  0  0  0
  137.8573   70.5754  223.9312 H   0  0  0  0  0  0  0  0  0  0  0  0
  138.8166   70.1853  222.4263 H   0  0  0  0  0  0  0  0  0  0  0  0
  138.2978   68.2986  224.0916 H   0  0  0  0  0  0  0  0  0  0  0  0
  139.9767   68.4941  223.4375 H   0  0  0  0  0  0  0  0  0  0  0  0
  139.4085   66.9541  225.7991 H   0  0  0  0  0  0  0  0  0  0  0  0
  140.2764   66.9624  228.1196 H   0  0  0  0  0  0  0  0  0  0  0  0
  141.0974   69.1250  229.0554 H   0  0  0  0  0  0  0  0  0  0  0  0
  141.0452   71.2070  227.6997 H   0  0  0  0  0  0  0  0  0  0  0  0
  139.4769   72.1965  225.7052 H   0  0  0  0  0  0  0  0  0  0  0  0
  141.2082   71.9101  225.2433 H   0  0  0  0  0  0  0  0  0  0  0  0
  144.3008   77.4124  219.3716 H   0  0  0  0  0  0  0  0  0  0  0  0
  142.5935   79.1442  218.9973 H   0  0  0  0  0  0  0  0  0  0  0  0
  1  2  2  0
  2  3  1  0
  3  4  2  0
  4  5  1  0
  5  6  1  0
  6  7  1  0
  7  8  1  0
  8  9  1  0
  9 10  1  0
 10 11  1  0
 11 12  1  0
 12 13  2  0
 13 14  1  0
 14 15  1  0
 15 16  1  0
 16 17  1  0
 17 18  1  0
 18 19  2  0
 19 20  1  0
 20 21  2  0
 21 22  1  0
 22 23  2  0
 23 24  1  0
 14 25  2  0
 25 26  1  0
 26 27  1  0
 27 28  1  0
 28 29  1  0
 29 30  1  0
 30 31  2  0
 31 32  1  0
 32 33  2  0
 33 34  1  0
 34 35  2  0
 35 36  1  0
 26 37  2  0
  4 38  1  0
 38 39  2  0
 39  1  1  0
 11  7  1  0
 37 12  1  0
 24 15  1  0
 36 27  1  0
 23 18  1  0
 35 30  1  0
  1 40  1  0
  2 41  1  0
  3 42  1  0
  6 43  1  0
  6 44  1  0
  7 45  1  6
  8 46  1  0
  8 47  1  0
  9 48  1  0
  9 49  1  0
 10 50  1  0
 10 51  1  0
 16 52  1  0
 16 53  1  0
 17 54  1  0
 17 55  1  0
 19 56  1  0
 20 57  1  0
 21 58  1  0
 22 59  1  0
 24 60  1  0
 24 61  1  0
 28 62  1  0
 28 63  1  0
 29 64  1  0
 29 65  1  0
 31 66  1  0
 32 67  1  0
 33 68  1  0
 34 69  1  0
 36 70  1  0
 36 71  1  0
 38 72  1  0
 39 73  1  0
M  END
>  <smiles>  (46) 
c1ccc(OC[C@@H]2CCCN2c2nc(N3CCc4ccccc4C3)nc(N3CCc4ccccc4C3)n2)cc1

>  <score_type>  (46) 
oracle

>  <origin>  (46) 
autodockgpu

>  <m_score__min__energy>  (46) 
-11.19

>  <m_primary>  (46) 
energy

>  <rmsd>  (46) 
4.951418193051466

>  <m_score__min__rmsd>  (46) 
4.951418193051466

>  <meeko>  (46) 
{"free_energy": -9.36, "intermolecular_energy": -11.15, "internal_energy": -2.7, "cluster_size": 7, "cluster_id": 4, "rank_in_cluster": 5}

>  <energy>  (46) 
-9.54

>  <cluster_rmsd>  (46) 
0.21

>  <cluster>  (46) 
5

$$$$

     RDKit          3D

 73 79  0  0  0  0  0  0  0  0999 V2000
  144.8290   65.9640  218.9590 C   0  0  0  0  0  0  0  0  0  0  0  0
  145.5630   67.0210  219.4340 C   0  0  0  0  0  0  0  0  0  0  0  0
  144.9710   68.2250  219.7370 C   0  0  0  0  0  0  0  0  0  0  0  0
  143.5880   68.4300  219.5760 C   0  0  0  0  0  0  0  0  0  0  0  0
  143.1150   69.6530  219.9080 O   0  0  0  0  0  0  0  0  0  0  0  0
  142.6310   70.7150  219.1600 C   0  0  0  0  0  0  0  0  0  0  0  0
  143.6610   71.7620  218.9780 C   0  0  2  0  0  0  0  0  0  0  0  0
  145.0370   71.3100  219.4940 C   0  0  0  0  0  0  0  0  0  0  0  0
  145.7540   72.6370  219.5870 C   0  0  0  0  0  0  0  0  0  0  0  0
  144.6770   73.7090  219.7670 C   0  0  0  0  0  0  0  0  0  0  0  0
  143.4800   72.8970  219.8960 N   0  0  0  0  0  0  0  0  0  0  0  0
  142.3860   73.1830  220.7500 C   0  0  0  0  0  0  0  0  0  0  0  0
  142.0320   74.4730  220.8800 N   0  0  0  0  0  0  0  0  0  0  0  0
  141.0040   74.8710  221.6680 C   0  0  0  0  0  0  0  0  0  0  0  0
  140.6300   76.2360  221.8040 N   0  0  0  0  0  0  0  0  0  0  0  0
  139.3750   76.5580  222.4860 C   0  0  0  0  0  0  0  0  0  0  0  0
  138.9500   77.9760  222.2320 C   0  0  0  0  0  0  0  0  0  0  0  0
  140.0910   78.8840  222.5770 C   0  0  0  0  0  0  0  0  0  0  0  0
  139.9180   80.0250  223.3350 C   0  0  0  0  0  0  0  0  0  0  0  0
  141.0040   80.8310  223.6260 C   0  0  0  0  0  0  0  0  0  0  0  0
  142.2410   80.4920  223.1630 C   0  0  0  0  0  0  0  0  0  0  0  0
  142.4250   79.3390  222.3940 C   0  0  0  0  0  0  0  0  0  0  0  0
  141.3420   78.5350  222.1050 C   0  0  0  0  0  0  0  0  0  0  0  0
  141.4410   77.2950  221.2980 C   0  0  0  0  0  0  0  0  0  0  0  0
  140.3410   73.9030  222.3250 N   0  0  0  0  0  0  0  0  0  0  0  0
  140.6610   72.6200  222.2200 C   0  0  0  0  0  0  0  0  0  0  0  0
  139.9160   71.6480  222.9430 N   0  0  0  0  0  0  0  0  0  0  0  0
  139.1840   70.6410  222.2000 C   0  0  0  0  0  0  0  0  0  0  0  0
  139.4800   69.2350  222.6440 C   0  0  0  0  0  0  0  0  0  0  0  0
  139.5740   69.1370  224.1190 C   0  0  0  0  0  0  0  0  0  0  0  0
  139.4820   67.8930  224.7030 C   0  0  0  0  0  0  0  0  0  0  0  0
  139.5580   67.6930  226.0620 C   0  0  0  0  0  0  0  0  0  0  0  0
  139.7350   68.8180  226.8470 C   0  0  0  0  0  0  0  0  0  0  0  0
  139.8320   70.0940  226.2920 C   0  0  0  0  0  0  0  0  0  0  0  0
  139.7500   70.2450  224.9210 C   0  0  0  0  0  0  0  0  0  0  0  0
  139.8610   71.6270  224.3920 C   0  0  0  0  0  0  0  0  0  0  0  0
  141.6900   72.2690  221.4260 N   0  0  0  0  0  0  0  0  0  0  0  0
  142.8860   67.3540  219.1000 C   0  0  0  0  0  0  0  0  0  0  0  0
  143.4770   66.1370  218.7920 C   0  0  0  0  0  0  0  0  0  0  0  0
  145.3100   65.0044  218.7185 H   0  0  0  0  0  0  0  0  0  0  0  0
  146.6475   66.9033  219.5755 H   0  0  0  0  0  0  0  0  0  0  0  0
  145.5945   69.0487  220.1148 H   0  0  0  0  0  0  0  0  0  0  0  0
  142.3193   70.3443  218.1724 H   0  0  0  0  0  0  0  0  0  0  0  0
  141.7795   71.1573  219.6979 H   0  0  0  0  0  0  0  0  0  0  0  0
  143.5857   71.9899  217.9045 H   0  0  0  0  0  0  0  0  0  0  0  0
  144.9605   70.8214  220.4766 H   0  0  0  0  0  0  0  0  0  0  0  0
  145.5390   70.5644  218.8598 H   0  0  0  0  0  0  0  0  0  0  0  0
  146.4377   72.6385  220.4487 H   0  0  0  0  0  0  0  0  0  0  0  0
  146.3529   72.8265  218.6840 H   0  0  0  0  0  0  0  0  0  0  0  0
  144.8547   74.3095  220.6713 H   0  0  0  0  0  0  0  0  0  0  0  0
  144.6346   74.4442  218.9499 H   0  0  0  0  0  0  0  0  0  0  0  0
  138.5884   75.8801  222.1230 H   0  0  0  0  0  0  0  0  0  0  0  0
  139.5330   76.4370  223.5678 H   0  0  0  0  0  0  0  0  0  0  0  0
  138.6851   78.0996  221.1715 H   0  0  0  0  0  0  0  0  0  0  0  0
  138.0729   78.2225  222.8483 H   0  0  0  0  0  0  0  0  0  0  0  0
  138.9180   80.2927  223.7070 H   0  0  0  0  0  0  0  0  0  0  0  0
  140.8702   81.7416  224.2284 H   0  0  0  0  0  0  0  0  0  0  0  0
  143.1038   81.1329  223.3972 H   0  0  0  0  0  0  0  0  0  0  0  0
  143.4260   79.0749  222.0222 H   0  0  0  0  0  0  0  0  0  0  0  0
  141.1229   77.5196  220.2692 H   0  0  0  0  0  0  0  0  0  0  0  0
  142.4872   76.9576  221.3391 H   0  0  0  0  0  0  0  0  0  0  0  0
  138.1075   70.8274  222.3284 H   0  0  0  0  0  0  0  0  0  0  0  0
  139.4988   70.7216  221.1491 H   0  0  0  0  0  0  0  0  0  0  0  0
  138.6748   68.5729  222.2929 H   0  0  0  0  0  0  0  0  0  0  0  0
  140.4487   68.9363  222.2170 H   0  0  0  0  0  0  0  0  0  0  0  0
  139.3410   67.0177  224.0518 H   0  0  0  0  0  0  0  0  0  0  0  0
  139.4818   66.6880  226.5026 H   0  0  0  0  0  0  0  0  0  0  0  0
  139.8011   68.7032  227.9390 H   0  0  0  0  0  0  0  0  0  0  0  0
  139.9725   70.9719  226.9398 H   0  0  0  0  0  0  0  0  0  0  0  0
  138.9863   72.2060  224.7232 H   0  0  0  0  0  0  0  0  0  0  0  0
  140.7944   72.0650  224.7752 H   0  0  0  0  0  0  0  0  0  0  0  0
  141.8008   67.4601  218.9549 H   0  0  0  0  0  0  0  0  0  0  0  0
  142.8608   65.3084  218.4130 H   0  0  0  0  0  0  0  0  0  0  0  0
  1  2  2  0
  2  3  1  0
  3  4  2  0
  4  5  1  0
  5  6  1  0
  6  7  1  0
  7  8  1  0
  8  9  1  0
  9 10  1  0
 10 11  1  0
 11 12  1  0
 12 13  2  0
 13 14  1  0
 14 15  1  0
 15 16  1  0
 16 17  1  0
 17 18  1  0
 18 19  2  0
 19 20  1  0
 20 21  2  0
 21 22  1  0
 22 23  2  0
 23 24  1  0
 14 25  2  0
 25 26  1  0
 26 27  1  0
 27 28  1  0
 28 29  1  0
 29 30  1  0
 30 31  2  0
 31 32  1  0
 32 33  2  0
 33 34  1  0
 34 35  2  0
 35 36  1  0
 26 37  2  0
  4 38  1  0
 38 39  2  0
 39  1  1  0
 11  7  1  0
 37 12  1  0
 24 15  1  0
 36 27  1  0
 23 18  1  0
 35 30  1  0
  1 40  1  0
  2 41  1  0
  3 42  1  0
  6 43  1  0
  6 44  1  0
  7 45  1  6
  8 46  1  0
  8 47  1  0
  9 48  1  0
  9 49  1  0
 10 50  1  0
 10 51  1  0
 16 52  1  0
 16 53  1  0
 17 54  1  0
 17 55  1  0
 19 56  1  0
 20 57  1  0
 21 58  1  0
 22 59  1  0
 24 60  1  0
 24 61  1  0
 28 62  1  0
 28 63  1  0
 29 64  1  0
 29 65  1  0
 31 66  1  0
 32 67  1  0
 33 68  1  0
 34 69  1  0
 36 70  1  0
 36 71  1  0
 38 72  1  0
 39 73  1  0
M  END
>  <smiles>  (47) 
c1ccc(OC[C@@H]2CCCN2c2nc(N3CCc4ccccc4C3)nc(N3CCc4ccccc4C3)n2)cc1

>  <score_type>  (47) 
oracle

>  <origin>  (47) 
autodockgpu

>  <m_score__min__energy>  (47) 
-11.19

>  <m_primary>  (47) 
energy

>  <rmsd>  (47) 
5.125694803926221

>  <m_score__min__rmsd>  (47) 
5.125694803926221

>  <meeko>  (47) 
{"free_energy": -10.29, "intermolecular_energy": -12.08, "internal_energy": -1.56, "cluster_size": 29, "cluster_id": 1, "rank_in_cluster": 25}

>  <energy>  (47) 
-9.5

>  <cluster_rmsd>  (47) 
0.31

>  <cluster>  (47) 
5

$$$$

     RDKit          3D

 73 79  0  0  0  0  0  0  0  0999 V2000
  140.3540   68.3790  228.7350 C   0  0  0  0  0  0  0  0  0  0  0  0
  141.0600   67.7840  227.7220 C   0  0  0  0  0  0  0  0  0  0  0  0
  141.2560   68.4170  226.5170 C   0  0  0  0  0  0  0  0  0  0  0  0
  140.7430   69.7030  226.2660 C   0  0  0  0  0  0  0  0  0  0  0  0
  140.9980   70.2300  225.0460 O   0  0  0  0  0  0  0  0  0  0  0  0
  140.6910   71.4460  224.4580 C   0  0  0  0  0  0  0  0  0  0  0  0
  139.2830   71.4870  224.0030 C   0  0  2  0  0  0  0  0  0  0  0  0
  138.8290   70.1390  223.4180 C   0  0  0  0  0  0  0  0  0  0  0  0
  137.5820   70.5580  222.6760 C   0  0  0  0  0  0  0  0  0  0  0  0
  137.7500   72.0400  222.3330 C   0  0  0  0  0  0  0  0  0  0  0  0
  139.1080   72.2890  222.7820 N   0  0  0  0  0  0  0  0  0  0  0  0
  140.0400   73.1400  222.1380 C   0  0  0  0  0  0  0  0  0  0  0  0
  139.8640   74.4640  222.2870 N   0  0  0  0  0  0  0  0  0  0  0  0
  140.6880   75.3770  221.7200 C   0  0  0  0  0  0  0  0  0  0  0  0
  140.5020   76.7790  221.8790 N   0  0  0  0  0  0  0  0  0  0  0  0
  139.2720   77.2590  222.5120 C   0  0  0  0  0  0  0  0  0  0  0  0
  139.0630   78.7280  222.2800 C   0  0  0  0  0  0  0  0  0  0  0  0
  140.3010   79.4580  222.7030 C   0  0  0  0  0  0  0  0  0  0  0  0
  140.2520   80.5950  223.4860 C   0  0  0  0  0  0  0  0  0  0  0  0
  141.4250   81.2320  223.8490 C   0  0  0  0  0  0  0  0  0  0  0  0
  142.6230   80.7330  223.4330 C   0  0  0  0  0  0  0  0  0  0  0  0
  142.6820   79.5830  222.6400 C   0  0  0  0  0  0  0  0  0  0  0  0
  141.5120   78.9470  222.2780 C   0  0  0  0  0  0  0  0  0  0  0  0
  141.4770   77.7240  221.4410 C   0  0  0  0  0  0  0  0  0  0  0  0
  141.7080   74.8950  220.9880 N   0  0  0  0  0  0  0  0  0  0  0  0
  141.9130   73.5950  220.8190 C   0  0  0  0  0  0  0  0  0  0  0  0
  143.0120   73.1530  220.0320 N   0  0  0  0  0  0  0  0  0  0  0  0
  144.3230   73.7130  220.2950 C   0  0  0  0  0  0  0  0  0  0  0  0
  145.3890   72.6730  220.5030 C   0  0  0  0  0  0  0  0  0  0  0  0
  145.2470   71.5480  219.5490 C   0  0  0  0  0  0  0  0  0  0  0  0
  146.3200   70.7060  219.3620 C   0  0  0  0  0  0  0  0  0  0  0  0
  146.2920   69.6320  218.5010 C   0  0  0  0  0  0  0  0  0  0  0  0
  145.1130   69.4220  217.8080 C   0  0  0  0  0  0  0  0  0  0  0  0
  144.0060   70.2530  217.9730 C   0  0  0  0  0  0  0  0  0  0  0  0
  144.0810   71.3190  218.8480 C   0  0  0  0  0  0  0  0  0  0  0  0
  142.8710   72.1660  218.9790 C   0  0  0  0  0  0  0  0  0  0  0  0
  141.0690   72.7220  221.4010 N   0  0  0  0  0  0  0  0  0  0  0  0
  140.0430   70.2680  227.2990 C   0  0  0  0  0  0  0  0  0  0  0  0
  139.8410   69.6350  228.5170 C   0  0  0  0  0  0  0  0  0  0  0  0
  140.2023   67.8653  229.6958 H   0  0  0  0  0  0  0  0  0  0  0  0
  141.4788   66.7786  227.8762 H   0  0  0  0  0  0  0  0  0  0  0  0
  141.8283   67.9050  225.7294 H   0  0  0  0  0  0  0  0  0  0  0  0
  140.8533   72.2492  225.1918 H   0  0  0  0  0  0  0  0  0  0  0  0
  141.3416   71.5801  223.5813 H   0  0  0  0  0  0  0  0  0  0  0  0
  138.7509   71.8428  224.8976 H   0  0  0  0  0  0  0  0  0  0  0  0
  139.5834   69.7187  222.7367 H   0  0  0  0  0  0  0  0  0  0  0  0
  138.6698   69.3484  224.1661 H   0  0  0  0  0  0  0  0  0  0  0  0
  137.4720   69.9661  221.7554 H   0  0  0  0  0  0  0  0  0  0  0  0
  136.6834   70.3936  223.2888 H   0  0  0  0  0  0  0  0  0  0  0  0
  137.6453   72.2167  221.2523 H   0  0  0  0  0  0  0  0  0  0  0  0
  136.9974   72.6955  222.7956 H   0  0  0  0  0  0  0  0  0  0  0  0
  138.4173   76.7072  222.0937 H   0  0  0  0  0  0  0  0  0  0  0  0
  139.3573   77.0924  223.5959 H   0  0  0  0  0  0  0  0  0  0  0  0
  138.8709   78.9112  221.2125 H   0  0  0  0  0  0  0  0  0  0  0  0
  138.1997   79.0820  222.8625 H   0  0  0  0  0  0  0  0  0  0  0  0
  139.2824   80.9929  223.8201 H   0  0  0  0  0  0  0  0  0  0  0  0
  141.3909   82.1383  224.4714 H   0  0  0  0  0  0  0  0  0  0  0  0
  143.5542   81.2408  223.7245 H   0  0  0  0  0  0  0  0  0  0  0  0
  143.6534   79.1883  222.3073 H   0  0  0  0  0  0  0  0  0  0  0  0
  141.2445   78.0138  220.4056 H   0  0  0  0  0  0  0  0  0  0  0  0
  142.4626   77.2419  221.5197 H   0  0  0  0  0  0  0  0  0  0  0  0
  144.6115   74.3409  219.4391 H   0  0  0  0  0  0  0  0  0  0  0  0
  144.2471   74.2896  221.2287 H   0  0  0  0  0  0  0  0  0  0  0  0
  146.3751   73.1392  220.3609 H   0  0  0  0  0  0  0  0  0  0  0  0
  145.2863   72.2742  221.5230 H   0  0  0  0  0  0  0  0  0  0  0  0
  147.2434   70.9005  219.9272 H   0  0  0  0  0  0  0  0  0  0  0  0
  147.1636   68.9737  218.3706 H   0  0  0  0  0  0  0  0  0  0  0  0
  145.0474   68.5762  217.1077 H   0  0  0  0  0  0  0  0  0  0  0  0
  143.0801   70.0613  217.4108 H   0  0  0  0  0  0  0  0  0  0  0  0
  142.6962   72.6860  218.0256 H   0  0  0  0  0  0  0  0  0  0  0  0
  142.0243   71.5126  219.2360 H   0  0  0  0  0  0  0  0  0  0  0  0
  139.6201   71.2733  227.1558 H   0  0  0  0  0  0  0  0  0  0  0  0
  139.2691   70.1396  229.3097 H   0  0  0  0  0  0  0  0  0  0  0  0
  1  2  2  0
  2  3  1  0
  3  4  2  0
  4  5  1  0
  5  6  1  0
  6  7  1  0
  7  8  1  0
  8  9  1  0
  9 10  1  0
 10 11  1  0
 11 12  1  0
 12 13  2  0
 13 14  1  0
 14 15  1  0
 15 16  1  0
 16 17  1  0
 17 18  1  0
 18 19  2  0
 19 20  1  0
 20 21  2  0
 21 22  1  0
 22 23  2  0
 23 24  1  0
 14 25  2  0
 25 26  1  0
 26 27  1  0
 27 28  1  0
 28 29  1  0
 29 30  1  0
 30 31  2  0
 31 32  1  0
 32 33  2  0
 33 34  1  0
 34 35  2  0
 35 36  1  0
 26 37  2  0
  4 38  1  0
 38 39  2  0
 39  1  1  0
 11  7  1  0
 37 12  1  0
 24 15  1  0
 36 27  1  0
 23 18  1  0
 35 30  1  0
  1 40  1  0
  2 41  1  0
  3 42  1  0
  6 43  1  0
  6 44  1  0
  7 45  1  1
  8 46  1  0
  8 47  1  0
  9 48  1  0
  9 49  1  0
 10 50  1  0
 10 51  1  0
 16 52  1  0
 16 53  1  0
 17 54  1  0
 17 55  1  0
 19 56  1  0
 20 57  1  0
 21 58  1  0
 22 59  1  0
 24 60  1  0
 24 61  1  0
 28 62  1  0
 28 63  1  0
 29 64  1  0
 29 65  1  0
 31 66  1  0
 32 67  1  0
 33 68  1  0
 34 69  1  0
 36 70  1  0
 36 71  1  0
 38 72  1  0
 39 73  1  0
M  END
>  <smiles>  (48) 
c1ccc(OC[C@@H]2CCCN2c2nc(N3CCc4ccccc4C3)nc(N3CCc4ccccc4C3)n2)cc1

>  <score_type>  (48) 
oracle

>  <origin>  (48) 
autodockgpu

>  <m_score__min__energy>  (48) 
-11.19

>  <m_primary>  (48) 
energy

>  <rmsd>  (48) 
5.39515446411036

>  <m_score__min__rmsd>  (48) 
5.39515446411036

>  <meeko>  (48) 
{"free_energy": -10.72, "intermolecular_energy": -12.51, "internal_energy": -1.5, "cluster_size": 29, "cluster_id": 1, "rank_in_cluster": 14}

>  <energy>  (48) 
-9.38

>  <cluster_rmsd>  (48) 
0.53

>  <cluster>  (48) 
5

$$$$

     RDKit          3D

 73 79  0  0  0  0  0  0  0  0999 V2000
  140.7500   70.1240  227.9720 C   0  0  0  0  0  0  0  0  0  0  0  0
  140.3480   69.3350  226.9250 C   0  0  0  0  0  0  0  0  0  0  0  0
  140.2920   69.8240  225.6400 C   0  0  0  0  0  0  0  0  0  0  0  0
  140.6430   71.1530  225.3400 C   0  0  0  0  0  0  0  0  0  0  0  0
  140.5530   71.5250  224.0420 O   0  0  0  0  0  0  0  0  0  0  0  0
  139.4820   71.6980  223.1800 C   0  0  0  0  0  0  0  0  0  0  0  0
  139.9340   71.8760  221.7820 C   0  0  2  0  0  0  0  0  0  0  0  0
  141.4670   71.9470  221.6800 C   0  0  0  0  0  0  0  0  0  0  0  0
  141.6310   72.5330  220.2970 C   0  0  0  0  0  0  0  0  0  0  0  0
  140.3510   73.3180  219.9970 C   0  0  0  0  0  0  0  0  0  0  0  0
  139.6490   73.2220  221.2630 N   0  0  0  0  0  0  0  0  0  0  0  0
  138.8610   74.2480  221.8410 C   0  0  0  0  0  0  0  0  0  0  0  0
  139.3920   75.4820  221.8750 N   0  0  0  0  0  0  0  0  0  0  0  0
  138.7370   76.5440  222.4020 C   0  0  0  0  0  0  0  0  0  0  0  0
  139.3000   77.8490  222.4370 N   0  0  0  0  0  0  0  0  0  0  0  0
  138.5560   78.9200  223.1040 C   0  0  0  0  0  0  0  0  0  0  0  0
  139.0910   80.2770  222.7460 C   0  0  0  0  0  0  0  0  0  0  0  0
  140.5660   80.2930  223.0090 C   0  0  0  0  0  0  0  0  0  0  0  0
  141.1820   81.3310  223.6790 C   0  0  0  0  0  0  0  0  0  0  0  0
  142.5470   81.2980  223.8970 C   0  0  0  0  0  0  0  0  0  0  0  0
  143.2780   80.2370  223.4500 C   0  0  0  0  0  0  0  0  0  0  0  0
  142.6630   79.1820  222.7700 C   0  0  0  0  0  0  0  0  0  0  0  0
  141.3010   79.2150  222.5530 C   0  0  0  0  0  0  0  0  0  0  0  0
  140.5640   78.1420  221.8430 C   0  0  0  0  0  0  0  0  0  0  0  0
  137.5090   76.3070  222.8980 N   0  0  0  0  0  0  0  0  0  0  0  0
  136.9530   75.1030  222.8810 C   0  0  0  0  0  0  0  0  0  0  0  0
  135.6500   74.9230  223.4230 N   0  0  0  0  0  0  0  0  0  0  0  0
  134.9300   73.7050  223.1070 C   0  0  0  0  0  0  0  0  0  0  0  0
  134.4070   72.9860  224.3200 C   0  0  0  0  0  0  0  0  0  0  0  0
  133.8520   73.9310  225.3180 C   0  0  0  0  0  0  0  0  0  0  0  0
  133.0250   73.4370  226.3020 C   0  0  0  0  0  0  0  0  0  0  0  0
  132.4600   74.2290  227.2750 C   0  0  0  0  0  0  0  0  0  0  0  0
  132.7590   75.5790  227.2300 C   0  0  0  0  0  0  0  0  0  0  0  0
  133.5930   76.1140  226.2490 C   0  0  0  0  0  0  0  0  0  0  0  0
  134.1370   75.2800  225.2920 C   0  0  0  0  0  0  0  0  0  0  0  0
  135.0160   75.9090  224.2760 C   0  0  0  0  0  0  0  0  0  0  0  0
  137.6400   74.0760  222.3480 N   0  0  0  0  0  0  0  0  0  0  0  0
  141.0400   71.9120  226.4090 C   0  0  0  0  0  0  0  0  0  0  0  0
  141.0980   71.4260  227.7070 C   0  0  0  0  0  0  0  0  0  0  0  0
  140.7926   69.7251  228.9962 H   0  0  0  0  0  0  0  0  0  0  0  0
  140.0644   68.2895  227.1163 H   0  0  0  0  0  0  0  0  0  0  0  0
  139.9646   69.1592  224.8270 H   0  0  0  0  0  0  0  0  0  0  0  0
  138.8319   70.8124  223.2354 H   0  0  0  0  0  0  0  0  0  0  0  0
  138.9369   72.6037  223.4844 H   0  0  0  0  0  0  0  0  0  0  0  0
  139.4408   71.0420  221.2612 H   0  0  0  0  0  0  0  0  0  0  0  0
  141.8942   72.6043  222.4516 H   0  0  0  0  0  0  0  0  0  0  0  0
  141.9789   70.9851  221.8311 H   0  0  0  0  0  0  0  0  0  0  0  0
  142.5022   73.2040  220.2705 H   0  0  0  0  0  0  0  0  0  0  0  0
  141.7949   71.7429  219.5494 H   0  0  0  0  0  0  0  0  0  0  0  0
  140.5724   74.3641  219.7387 H   0  0  0  0  0  0  0  0  0  0  0  0
  139.7808   72.9346  219.1380 H   0  0  0  0  0  0  0  0  0  0  0  0
  137.5001   78.8622  222.8011 H   0  0  0  0  0  0  0  0  0  0  0  0
  138.6633   78.7857  224.1905 H   0  0  0  0  0  0  0  0  0  0  0  0
  138.9019   80.4811  221.6818 H   0  0  0  0  0  0  0  0  0  0  0  0
  138.5927   81.0492  223.3505 H   0  0  0  0  0  0  0  0  0  0  0  0
  140.5875   82.1836  224.0391 H   0  0  0  0  0  0  0  0  0  0  0  0
  143.0414   82.1243  224.4289 H   0  0  0  0  0  0  0  0  0  0  0  0
  144.3634   80.2112  223.6265 H   0  0  0  0  0  0  0  0  0  0  0  0
  143.2607   78.3315  222.4104 H   0  0  0  0  0  0  0  0  0  0  0  0
  140.3978   78.4594  220.8030 H   0  0  0  0  0  0  0  0  0  0  0  0
  141.1748   77.2289  221.9000 H   0  0  0  0  0  0  0  0  0  0  0  0
  134.0782   73.9618  222.4602 H   0  0  0  0  0  0  0  0  0  0  0  0
  135.6410   73.0280  222.6108 H   0  0  0  0  0  0  0  0  0  0  0  0
  133.6143   72.2900  224.0082 H   0  0  0  0  0  0  0  0  0  0  0  0
  135.2437   72.4453  224.7866 H   0  0  0  0  0  0  0  0  0  0  0  0
  132.8059   72.3591  226.3106 H   0  0  0  0  0  0  0  0  0  0  0  0
  131.8027   73.8093  228.0507 H   0  0  0  0  0  0  0  0  0  0  0  0
  132.3272   76.2484  227.9886 H   0  0  0  0  0  0  0  0  0  0  0  0
  133.8158   77.1911  226.2374 H   0  0  0  0  0  0  0  0  0  0  0  0
  134.4115   76.5831  223.6514 H   0  0  0  0  0  0  0  0  0  0  0  0
  135.8072   76.4605  224.8050 H   0  0  0  0  0  0  0  0  0  0  0  0
  141.3270   72.9586  226.2293 H   0  0  0  0  0  0  0  0  0  0  0  0
  141.4234   72.0847  228.5257 H   0  0  0  0  0  0  0  0  0  0  0  0
  1  2  2  0
  2  3  1  0
  3  4  2  0
  4  5  1  0
  5  6  1  0
  6  7  1  0
  7  8  1  0
  8  9  1  0
  9 10  1  0
 10 11  1  0
 11 12  1  0
 12 13  2  0
 13 14  1  0
 14 15  1  0
 15 16  1  0
 16 17  1  0
 17 18  1  0
 18 19  2  0
 19 20  1  0
 20 21  2  0
 21 22  1  0
 22 23  2  0
 23 24  1  0
 14 25  2  0
 25 26  1  0
 26 27  1  0
 27 28  1  0
 28 29  1  0
 29 30  1  0
 30 31  2  0
 31 32  1  0
 32 33  2  0
 33 34  1  0
 34 35  2  0
 35 36  1  0
 26 37  2  0
  4 38  1  0
 38 39  2  0
 39  1  1  0
 11  7  1  0
 37 12  1  0
 24 15  1  0
 36 27  1  0
 23 18  1  0
 35 30  1  0
  1 40  1  0
  2 41  1  0
  3 42  1  0
  6 43  1  0
  6 44  1  0
  7 45  1  6
  8 46  1  0
  8 47  1  0
  9 48  1  0
  9 49  1  0
 10 50  1  0
 10 51  1  0
 16 52  1  0
 16 53  1  0
 17 54  1  0
 17 55  1  0
 19 56  1  0
 20 57  1  0
 21 58  1  0
 22 59  1  0
 24 60  1  0
 24 61  1  0
 28 62  1  0
 28 63  1  0
 29 64  1  0
 29 65  1  0
 31 66  1  0
 32 67  1  0
 33 68  1  0
 34 69  1  0
 36 70  1  0
 36 71  1  0
 38 72  1  0
 39 73  1  0
M  END
>  <smiles>  (49) 
c1ccc(OC[C@@H]2CCCN2c2nc(N3CCc4ccccc4C3)nc(N3CCc4ccccc4C3)n2)cc1

>  <score_type>  (49) 
oracle

>  <origin>  (49) 
autodockgpu

>  <m_score__min__energy>  (49) 
-11.19

>  <m_primary>  (49) 
energy

>  <rmsd>  (49) 
5.919596402028162

>  <m_score__min__rmsd>  (49) 
5.919596402028162

>  <meeko>  (49) 
{"free_energy": -10.54, "intermolecular_energy": -12.33, "internal_energy": -1.55, "cluster_size": 2, "cluster_id": 2, "rank_in_cluster": 1}

>  <energy>  (49) 
-9.21

>  <cluster_rmsd>  (49) 
0.88

>  <cluster>  (49) 
5

$$$$

     RDKit          3D

 73 79  0  0  0  0  0  0  0  0999 V2000
  145.9650   72.4970  220.1100 C   0  0  0  0  0  0  0  0  0  0  0  0
  145.3350   73.1860  221.1140 C   0  0  0  0  0  0  0  0  0  0  0  0
  144.3840   74.1410  220.8400 C   0  0  0  0  0  0  0  0  0  0  0  0
  144.0120   74.4570  219.5210 C   0  0  0  0  0  0  0  0  0  0  0  0
  143.0650   75.4110  219.3700 O   0  0  0  0  0  0  0  0  0  0  0  0
  141.7150   75.3630  219.0650 C   0  0  0  0  0  0  0  0  0  0  0  0
  140.9140   76.1540  220.0260 C   0  0  2  0  0  0  0  0  0  0  0  0
  141.7660   77.2100  220.7510 C   0  0  0  0  0  0  0  0  0  0  0  0
  140.8630   77.5530  221.9120 C   0  0  0  0  0  0  0  0  0  0  0  0
  139.9700   76.3330  222.1520 C   0  0  0  0  0  0  0  0  0  0  0  0
  140.5290   75.3770  221.2140 N   0  0  0  0  0  0  0  0  0  0  0  0
  140.6570   73.9850  221.4440 C   0  0  0  0  0  0  0  0  0  0  0  0
  141.2720   73.2610  220.4930 N   0  0  0  0  0  0  0  0  0  0  0  0
  141.4540   71.9230  220.5990 C   0  0  0  0  0  0  0  0  0  0  0  0
  142.1060   71.1580  219.5920 N   0  0  0  0  0  0  0  0  0  0  0  0
  142.3050   71.7560  218.2710 C   0  0  0  0  0  0  0  0  0  0  0  0
  142.6640   70.7240  217.2410 C   0  0  0  0  0  0  0  0  0  0  0  0
  143.8340   69.9340  217.7440 C   0  0  0  0  0  0  0  0  0  0  0  0
  144.9280   69.6550  216.9500 C   0  0  0  0  0  0  0  0  0  0  0  0
  145.9830   68.9220  217.4620 C   0  0  0  0  0  0  0  0  0  0  0  0
  145.9360   68.4790  218.7510 C   0  0  0  0  0  0  0  0  0  0  0  0
  144.8320   68.7560  219.5620 C   0  0  0  0  0  0  0  0  0  0  0  0
  143.7800   69.4880  219.0510 C   0  0  0  0  0  0  0  0  0  0  0  0
  142.5690   69.8300  219.8360 C   0  0  0  0  0  0  0  0  0  0  0  0
  140.9850   71.3390  221.7160 N   0  0  0  0  0  0  0  0  0  0  0  0
  140.3740   72.0210  222.6750 C   0  0  0  0  0  0  0  0  0  0  0  0
  139.9020   71.3390  223.8320 N   0  0  0  0  0  0  0  0  0  0  0  0
  138.8440   70.3610  223.6770 C   0  0  0  0  0  0  0  0  0  0  0  0
  139.1660   69.0270  224.2920 C   0  0  0  0  0  0  0  0  0  0  0  0
  139.8420   69.1790  225.6010 C   0  0  0  0  0  0  0  0  0  0  0  0
  139.8830   68.0940  226.4500 C   0  0  0  0  0  0  0  0  0  0  0  0
  140.4870   68.1300  227.6860 C   0  0  0  0  0  0  0  0  0  0  0  0
  141.0670   69.3290  228.0600 C   0  0  0  0  0  0  0  0  0  0  0  0
  141.0460   70.4470  227.2280 C   0  0  0  0  0  0  0  0  0  0  0  0
  140.4280   70.3640  225.9950 C   0  0  0  0  0  0  0  0  0  0  0  0
  140.4380   71.5870  225.1560 C   0  0  0  0  0  0  0  0  0  0  0  0
  140.2140   73.3490  222.5290 N   0  0  0  0  0  0  0  0  0  0  0  0
  144.6610   73.7500  218.5430 C   0  0  0  0  0  0  0  0  0  0  0  0
  145.6220   72.7850  218.8120 C   0  0  0  0  0  0  0  0  0  0  0  0
  146.7243   71.7345  220.3380 H   0  0  0  0  0  0  0  0  0  0  0  0
  145.5956   72.9705  222.1607 H   0  0  0  0  0  0  0  0  0  0  0  0
  143.9017   74.6715  221.6743 H   0  0  0  0  0  0  0  0  0  0  0  0
  141.5623   75.7679  218.0537 H   0  0  0  0  0  0  0  0  0  0  0  0
  141.3853   74.3150  219.1208 H   0  0  0  0  0  0  0  0  0  0  0  0
  140.0884   76.5268  219.4020 H   0  0  0  0  0  0  0  0  0  0  0  0
  142.7242   76.7919  221.0931 H   0  0  0  0  0  0  0  0  0  0  0  0
  142.0534   78.0697  220.1279 H   0  0  0  0  0  0  0  0  0  0  0  0
  141.4633   77.7654  222.8090 H   0  0  0  0  0  0  0  0  0  0  0  0
  140.2604   78.4468  221.6931 H   0  0  0  0  0  0  0  0  0  0  0  0
  140.0507   75.9735  223.1884 H   0  0  0  0  0  0  0  0  0  0  0  0
  138.8968   76.5273  222.0087 H   0  0  0  0  0  0  0  0  0  0  0  0
  141.3757   72.2579  217.9635 H   0  0  0  0  0  0  0  0  0  0  0  0
  143.1363   72.4729  218.3415 H   0  0  0  0  0  0  0  0  0  0  0  0
  141.8081   70.0534  217.0742 H   0  0  0  0  0  0  0  0  0  0  0  0
  142.9222   71.2148  216.2910 H   0  0  0  0  0  0  0  0  0  0  0  0
  144.9606   70.0153  215.9112 H   0  0  0  0  0  0  0  0  0  0  0  0
  146.8564   68.6972  216.8322 H   0  0  0  0  0  0  0  0  0  0  0  0
  146.7766   67.8971  219.1570 H   0  0  0  0  0  0  0  0  0  0  0  0
  144.8020   68.3931  220.6000 H   0  0  0  0  0  0  0  0  0  0  0  0
  141.7678   69.1246  219.5706 H   0  0  0  0  0  0  0  0  0  0  0  0
  142.8362   69.7639  220.9010 H   0  0  0  0  0  0  0  0  0  0  0  0
  137.9340   70.7538  224.1540 H   0  0  0  0  0  0  0  0  0  0  0  0
  138.7110   70.1962  222.5976 H   0  0  0  0  0  0  0  0  0  0  0  0
  138.2312   68.4654  224.4361 H   0  0  0  0  0  0  0  0  0  0  0  0
  139.8460   68.4907  223.6138 H   0  0  0  0  0  0  0  0  0  0  0  0
  139.4108   67.1554  226.1244 H   0  0  0  0  0  0  0  0  0  0  0  0
  140.5076   67.2489  228.3442 H   0  0  0  0  0  0  0  0  0  0  0  0
  141.5585   69.4020  229.0414 H   0  0  0  0  0  0  0  0  0  0  0  0
  141.5173   71.3872  227.5502 H   0  0  0  0  0  0  0  0  0  0  0  0
  139.8289   72.3601  225.6471 H   0  0  0  0  0  0  0  0  0  0  0  0
  141.4819   71.9156  225.0450 H   0  0  0  0  0  0  0  0  0  0  0  0
  144.4080   73.9573  217.4928 H   0  0  0  0  0  0  0  0  0  0  0  0
  146.1096   72.2500  217.9837 H   0  0  0  0  0  0  0  0  0  0  0  0
  1  2  2  0
  2  3  1  0
  3  4  2  0
  4  5  1  0
  5  6  1  0
  6  7  1  0
  7  8  1  0
  8  9  1  0
  9 10  1  0
 10 11  1  0
 11 12  1  0
 12 13  2  0
 13 14  1  0
 14 15  1  0
 15 16  1  0
 16 17  1  0
 17 18  1  0
 18 19  2  0
 19 20  1  0
 20 21  2  0
 21 22  1  0
 22 23  2  0
 23 24  1  0
 14 25  2  0
 25 26  1  0
 26 27  1  0
 27 28  1  0
 28 29  1  0
 29 30  1  0
 30 31  2  0
 31 32  1  0
 32 33  2  0
 33 34  1  0
 34 35  2  0
 35 36  1  0
 26 37  2  0
  4 38  1  0
 38 39  2  0
 39  1  1  0
 11  7  1  0
 37 12  1  0
 24 15  1  0
 36 27  1  0
 23 18  1  0
 35 30  1  0
  1 40  1  0
  2 41  1  0
  3 42  1  0
  6 43  1  0
  6 44  1  0
  7 45  1  6
  8 46  1  0
  8 47  1  0
  9 48  1  0
  9 49  1  0
 10 50  1  0
 10 51  1  0
 16 52  1  0
 16 53  1  0
 17 54  1  0
 17 55  1  0
 19 56  1  0
 20 57  1  0
 21 58  1  0
 22 59  1  0
 24 60  1  0
 24 61  1  0
 28 62  1  0
 28 63  1  0
 29 64  1  0
 29 65  1  0
 31 66  1  0
 32 67  1  0
 33 68  1  0
 34 69  1  0
 36 70  1  0
 36 71  1  0
 38 72  1  0
 39 73  1  0
M  END
>  <smiles>  (50) 
c1ccc(OC[C@@H]2CCCN2c2nc(N3CCc4ccccc4C3)nc(N3CCc4ccccc4C3)n2)cc1

>  <score_type>  (50) 
oracle

>  <origin>  (50) 
autodockgpu

>  <m_score__min__energy>  (50) 
-11.19

>  <m_primary>  (50) 
energy

>  <rmsd>  (50) 
10.365274888769166

>  <m_score__min__rmsd>  (50) 
10.365274888769166

>  <meeko>  (50) 
{"free_energy": -9.34, "intermolecular_energy": -11.13, "internal_energy": -2.66, "cluster_size": 29, "cluster_id": 1, "rank_in_cluster": 27}

>  <energy>  (50) 
-9.13

>  <cluster_rmsd>  (50) 
0.99

>  <cluster>  (50) 
5

$$$$
