
 58 62  0  0  1  0  0  0  0  0999 V2000
  140.8470   71.2210  222.5990 O   0  0  0  0  0  0  0  0  0  0  0  0
  139.7410   71.2660  223.2300 C   0  0  0  0  0  0  0  0  0  0  0  0
  138.7450   72.0900  222.6560 N   0  0  0  0  0  0  0  0  0  0  0  0
  139.0890   72.8030  221.4460 C   0  0  0  0  0  0  0  0  0  0  0  0
  139.7960   74.0680  221.6740 C   0  0  0  0  0  0  0  0  0  0  0  0
  139.5850   74.7710  222.7220 O   0  0  0  0  0  0  0  0  0  0  0  0
  140.7360   74.5120  220.7030 N   0  0  0  0  0  0  0  0  0  0  0  0
  140.4270   75.1070  219.3950 C   0  0  0  0  0  0  0  0  0  0  0  0
  141.6990   75.6870  218.8770 C   0  0  0  0  0  0  0  0  0  0  0  0
  142.6850   75.6320  220.0000 C   0  0  0  0  0  0  0  0  0  0  0  0
  142.1620   74.4610  220.8340 C   0  0  2  0  0  0  0  0  0  0  0  0
  142.7910   73.1960  220.4490 C   0  0  0  0  0  0  0  0  0  0  0  0
  144.1700   73.0390  220.4800 C   0  0  0  0  0  0  0  0  0  0  0  0
  144.7970   71.8640  220.1240 C   0  0  0  0  0  0  0  0  0  0  0  0
  144.0470   70.7710  219.7130 C   0  0  0  0  0  0  0  0  0  0  0  0
  144.7570   69.5520  219.3450 C   0  0  0  0  0  0  0  0  0  0  0  0
  144.6330   68.3750  220.0760 C   0  0  0  0  0  0  0  0  0  0  0  0
  145.3300   67.2610  219.6730 C   0  0  0  0  0  0  0  0  0  0  0  0
  146.1520   67.2860  218.5570 C   0  0  0  0  0  0  0  0  0  0  0  0
  146.2870   68.4430  217.8210 C   0  0  0  0  0  0  0  0  0  0  0  0
  145.5870   69.5620  218.2250 C   0  0  0  0  0  0  0  0  0  0  0  0
  142.6790   70.8970  219.6730 C   0  0  0  0  0  0  0  0  0  0  0  0
  142.0630   72.0890  220.0350 C   0  0  0  0  0  0  0  0  0  0  0  0
  139.6460   70.4770  224.4220 C   0  0  0  0  0  0  0  0  0  0  0  0
  138.9790   69.2850  224.3020 N   0  0  0  0  0  0  0  0  0  0  0  0
  138.8380   68.4540  225.3430 C   0  0  0  0  0  0  0  0  0  0  0  0
  139.3390   68.7130  226.6050 C   0  0  0  0  0  0  0  0  0  0  0  0
  140.0210   69.9110  226.7500 C   0  0  0  0  0  0  0  0  0  0  0  0
  140.5620   70.1900  227.9850 C   0  0  0  0  0  0  0  0  0  0  0  0
  141.2800   71.3520  228.1800 C   0  0  0  0  0  0  0  0  0  0  0  0
  141.4130   72.1850  227.0860 C   0  0  0  0  0  0  0  0  0  0  0  0
  140.8700   71.9060  225.8510 C   0  0  0  0  0  0  0  0  0  0  0  0
  140.1530   70.7550  225.6560 C   0  0  0  0  0  0  0  0  0  0  0  0
  137.7840   72.1810  223.0280 H   0  0  0  0  0  0  0  0  0  0  0  0
  139.7323   72.1537  220.8340 H   0  0  0  0  0  0  0  0  0  0  0  0
  138.1415   73.0557  220.9477 H   0  0  0  0  0  0  0  0  0  0  0  0
  140.0541   74.3350  218.7059 H   0  0  0  0  0  0  0  0  0  0  0  0
  139.6482   75.8786  219.4853 H   0  0  0  0  0  0  0  0  0  0  0  0
  142.0641   75.0979  218.0228 H   0  0  0  0  0  0  0  0  0  0  0  0
  141.5506   76.7206  218.5310 H   0  0  0  0  0  0  0  0  0  0  0  0
  143.7014   75.4344  219.6287 H   0  0  0  0  0  0  0  0  0  0  0  0
  142.7650   76.5735  220.5632 H   0  0  0  0  0  0  0  0  0  0  0  0
  142.4269   74.5354  221.8990 H   0  0  0  0  0  0  0  0  0  0  0  0
  144.7892   73.8890  220.8026 H   0  0  0  0  0  0  0  0  0  0  0  0
  145.8939   71.7926  220.1658 H   0  0  0  0  0  0  0  0  0  0  0  0
  143.9858   68.3363  220.9646 H   0  0  0  0  0  0  0  0  0  0  0  0
  145.2334   66.3288  220.2489 H   0  0  0  0  0  0  0  0  0  0  0  0
  146.6982   66.3792  218.2581 H   0  0  0  0  0  0  0  0  0  0  0  0
  146.9364   68.4742  216.9337 H   0  0  0  0  0  0  0  0  0  0  0  0
  145.6873   70.4911  217.6448 H   0  0  0  0  0  0  0  0  0  0  0  0
  142.0641   70.0438  219.3505 H   0  0  0  0  0  0  0  0  0  0  0  0
  140.9660   72.1573  219.9922 H   0  0  0  0  0  0  0  0  0  0  0  0
  138.2925   67.5120  225.1846 H   0  0  0  0  0  0  0  0  0  0  0  0
  139.2048   68.0121  227.4421 H   0  0  0  0  0  0  0  0  0  0  0  0
  140.4215   69.4852  228.8178 H   0  0  0  0  0  0  0  0  0  0  0  0
  141.7232   71.6019  229.1552 H   0  0  0  0  0  0  0  0  0  0  0  0
  141.9815   73.1188  227.2072 H   0  0  0  0  0  0  0  0  0  0  0  0
  141.0127   72.6102  225.0181 H   0  0  0  0  0  0  0  0  0  0  0  0
  1  2  2  0
  2  3  1  0
  3  4  1  0
  4  5  1  0
  5  6  2  0
  5  7  1  0
  7  8  1  0
  8  9  1  0
  9 10  1  0
 10 11  1  0
 11 12  1  0
 12 13  2  0
 13 14  1  0
 14 15  2  0
 15 16  1  0
 16 17  2  0
 17 18  1  0
 18 19  2  0
 19 20  1  0
 20 21  2  0
 15 22  1  0
 22 23  2  0
  2 24  1  0
 24 25  2  0
 25 26  1  0
 26 27  2  0
 27 28  1  0
 28 29  2  0
 29 30  1  0
 30 31  2  0
 31 32  1  0
 32 33  2  0
 11  7  1  0
 23 12  1  0
 33 24  1  0
 21 16  1  0
 33 28  1  0
  3 34  1  0
  4 35  1  0
  4 36  1  0
  8 37  1  0
  8 38  1  0
  9 39  1  0
  9 40  1  0
 10 41  1  0
 10 42  1  0
 11 43  1  1
 13 44  1  0
 14 45  1  0
 17 46  1  0
 18 47  1  0
 19 48  1  0
 20 49  1  0
 21 50  1  0
 22 51  1  0
 23 52  1  0
 26 53  1  0
 27 54  1  0
 29 55  1  0
 30 56  1  0
 31 57  1  0
 32 58  1  0
M  END
