
     RDKit          3D

 58 62  0  0  0  0  0  0  0  0999 V2000
  137.8800   69.8450  221.8530 O   0  0  0  0  0  0  0  0  0  0  0  0
  138.3060   70.6640  222.6930 C   0  0  0  0  0  0  0  0  0  0  0  0
  138.2180   72.0480  222.4160 N   0  0  0  0  0  0  0  0  0  0  0  0
  137.6700   72.6270  221.2340 C   0  0  0  0  0  0  0  0  0  0  0  0
  138.6570   72.8260  220.1500 C   0  0  0  0  0  0  0  0  0  0  0  0
  138.7850   72.0480  219.1660 O   0  0  0  0  0  0  0  0  0  0  0  0
  139.5100   73.9670  220.2340 N   0  0  0  0  0  0  0  0  0  0  0  0
  139.6230   74.8450  219.0900 C   0  0  0  0  0  0  0  0  0  0  0  0
  140.9660   75.4750  218.9400 C   0  0  0  0  0  0  0  0  0  0  0  0
  142.0630   75.0030  219.8050 C   0  0  0  0  0  0  0  0  0  0  0  0
  141.7190   74.2150  221.0210 C   0  0  0  0  0  0  0  0  0  0  0  0
  140.2660   74.2840  221.4090 C   0  0  1  0  0  0  0  0  0  0  0  0
  140.0070   75.6360  221.9310 C   0  0  0  0  0  0  0  0  0  0  0  0
  138.7900   76.1920  222.2760 C   0  0  0  0  0  0  0  0  0  0  0  0
  138.9710   77.4570  222.7150 N   0  0  0  0  0  0  0  0  0  0  0  0
  140.2920   77.6990  222.6480 C   0  0  0  0  0  0  0  0  0  0  0  0
  140.9190   78.9460  223.0280 C   0  0  0  0  0  0  0  0  0  0  0  0
  140.2290   80.1370  223.1080 C   0  0  0  0  0  0  0  0  0  0  0  0
  140.8220   81.3270  223.4700 C   0  0  0  0  0  0  0  0  0  0  0  0
  142.1850   81.3680  223.7750 C   0  0  0  0  0  0  0  0  0  0  0  0
  142.8770   80.1850  223.6970 C   0  0  0  0  0  0  0  0  0  0  0  0
  142.2770   78.9950  223.3340 C   0  0  0  0  0  0  0  0  0  0  0  0
  140.9100   76.6210  222.1830 N   0  0  0  0  0  0  0  0  0  0  0  0
  138.9060   70.2360  223.9750 C   0  0  0  0  0  0  0  0  0  0  0  0
  138.8690   68.9450  224.4070 C   0  0  0  0  0  0  0  0  0  0  0  0
  139.4250   68.5240  225.6060 C   0  0  0  0  0  0  0  0  0  0  0  0
  140.0460   69.4790  226.3940 C   0  0  0  0  0  0  0  0  0  0  0  0
  140.6360   69.1930  227.6040 C   0  0  0  0  0  0  0  0  0  0  0  0
  141.2520   70.1800  228.3720 C   0  0  0  0  0  0  0  0  0  0  0  0
  141.2840   71.4930  227.9250 C   0  0  0  0  0  0  0  0  0  0  0  0
  140.6910   71.7840  226.7060 C   0  0  0  0  0  0  0  0  0  0  0  0
  140.0860   70.7890  225.9630 C   0  0  0  0  0  0  0  0  0  0  0  0
  139.5270   71.1470  224.7800 N   0  0  0  0  0  0  0  0  0  0  0  0
  138.5890   72.7200  223.1510 H   0  0  0  0  0  0  0  0  0  0  0  0
  136.8747   71.9650  220.8608 H   0  0  0  0  0  0  0  0  0  0  0  0
  137.2953   73.6234  221.5111 H   0  0  0  0  0  0  0  0  0  0  0  0
  139.4120   74.2600  218.1827 H   0  0  0  0  0  0  0  0  0  0  0  0
  138.9031   75.6624  219.2436 H   0  0  0  0  0  0  0  0  0  0  0  0
  141.2835   75.3197  217.8983 H   0  0  0  0  0  0  0  0  0  0  0  0
  140.8102   76.5197  219.2471 H   0  0  0  0  0  0  0  0  0  0  0  0
  142.7182   74.3738  219.1846 H   0  0  0  0  0  0  0  0  0  0  0  0
  142.5115   75.9265  220.2000 H   0  0  0  0  0  0  0  0  0  0  0  0
  141.9768   73.1621  220.8344 H   0  0  0  0  0  0  0  0  0  0  0  0
  142.2901   74.6519  221.8535 H   0  0  0  0  0  0  0  0  0  0  0  0
  139.9806   73.5732  222.1985 H   0  0  0  0  0  0  0  0  0  0  0  0
  137.8186   75.6810  222.2040 H   0  0  0  0  0  0  0  0  0  0  0  0
  138.2390   78.1250  223.0440 H   0  0  0  0  0  0  0  0  0  0  0  0
  139.1547   80.1373  222.8718 H   0  0  0  0  0  0  0  0  0  0  0  0
  140.2209   82.2469  223.5190 H   0  0  0  0  0  0  0  0  0  0  0  0
  142.6812   82.3061  224.0646 H   0  0  0  0  0  0  0  0  0  0  0  0
  143.9514   80.1847  223.9328 H   0  0  0  0  0  0  0  0  0  0  0  0
  142.8786   78.0753  223.2860 H   0  0  0  0  0  0  0  0  0  0  0  0
  138.3722   68.1969  223.7718 H   0  0  0  0  0  0  0  0  0  0  0  0
  139.3746   67.4708  225.9194 H   0  0  0  0  0  0  0  0  0  0  0  0
  140.6211   68.1576  227.9752 H   0  0  0  0  0  0  0  0  0  0  0  0
  141.7140   69.9170  229.3350 H   0  0  0  0  0  0  0  0  0  0  0  0
  141.7665   72.2814  228.5213 H   0  0  0  0  0  0  0  0  0  0  0  0
  140.7024   72.8166  226.3271 H   0  0  0  0  0  0  0  0  0  0  0  0
  1  2  2  0
  2  3  1  0
  3  4  1  0
  4  5  1  0
  5  6  2  0
  5  7  1  0
  7  8  1  0
  8  9  1  0
  9 10  1  0
 10 11  1  0
 11 12  1  0
 12 13  1  0
 13 14  2  0
 14 15  1  0
 15 16  1  0
 16 17  1  0
 17 18  2  0
 18 19  1  0
 19 20  2  0
 20 21  1  0
 21 22  2  0
 16 23  2  0
  2 24  1  0
 24 25  2  0
 25 26  1  0
 26 27  2  0
 27 28  1  0
 28 29  2  0
 29 30  1  0
 30 31  2  0
 31 32  1  0
 32 33  2  0
 12  7  1  0
 23 13  1  0
 33 24  1  0
 22 17  1  0
 32 27  1  0
  3 34  1  0
  4 35  1  0
  4 36  1  0
  8 37  1  0
  8 38  1  0
  9 39  1  0
  9 40  1  0
 10 41  1  0
 10 42  1  0
 11 43  1  0
 11 44  1  0
 12 45  1  1
 14 46  1  0
 15 47  1  0
 18 48  1  0
 19 49  1  0
 20 50  1  0
 21 51  1  0
 22 52  1  0
 25 53  1  0
 26 54  1  0
 28 55  1  0
 29 56  1  0
 30 57  1  0
 31 58  1  0
M  END
