
     RDKit          3D

 60 63  0  0  0  0  0  0  0  0999 V2000
  141.1750   71.9250  220.1990 C   0  0  0  0  0  0  0  0  0  0  0  0
  140.3880   73.1050  220.4990 N   0  0  0  0  0  0  0  0  0  0  0  0
  138.9920   73.1390  220.1050 C   0  0  0  0  0  0  0  0  0  0  0  0
  138.0250   73.2260  221.2430 C   0  0  0  0  0  0  0  0  0  0  0  0
  138.6060   72.6520  222.4250 N   0  0  0  0  0  0  0  0  0  0  0  0
  138.3390   71.2580  222.6630 C   0  0  0  0  0  0  0  0  0  0  0  0
  137.6170   70.6930  221.8000 O   0  0  0  0  0  0  0  0  0  0  0  0
  138.8710   70.5580  223.8250 C   0  0  0  0  0  0  0  0  0  0  0  0
  138.7310   69.1880  223.8560 C   0  0  0  0  0  0  0  0  0  0  0  0
  139.2150   68.4590  224.9320 C   0  0  0  0  0  0  0  0  0  0  0  0
  139.8240   69.1530  225.9370 C   0  0  0  0  0  0  0  0  0  0  0  0
  140.3120   68.4450  227.0150 C   0  0  0  0  0  0  0  0  0  0  0  0
  140.9230   69.1210  228.0290 C   0  0  0  0  0  0  0  0  0  0  0  0
  141.4190   68.4500  229.1150 F   0  0  0  0  0  0  0  0  0  0  0  0
  141.0640   70.4970  227.9970 C   0  0  0  0  0  0  0  0  0  0  0  0
  140.5830   71.2400  226.9250 C   0  0  0  0  0  0  0  0  0  0  0  0
  139.9710   70.5350  225.9160 C   0  0  0  0  0  0  0  0  0  0  0  0
  139.4790   71.1940  224.8410 N   0  0  0  0  0  0  0  0  0  0  0  0
  140.9180   74.2540  221.1520 C   0  0  0  0  0  0  0  0  0  0  0  0
  140.4760   74.5470  222.3300 O   0  0  0  0  0  0  0  0  0  0  0  0
  141.9330   75.1540  220.6180 C   0  0  1  0  0  0  0  0  0  0  0  0
  143.3040   74.5170  220.5010 C   0  0  0  0  0  0  0  0  0  0  0  0
  143.3280   74.1000  219.0230 C   0  0  2  0  0  0  0  0  0  0  0  0
  144.6550   73.9870  218.5930 O   0  0  0  0  0  0  0  0  0  0  0  0
  142.6510   75.2930  218.3980 C   0  0  0  0  0  0  0  0  0  0  0  0
  141.6960   75.7590  219.3560 N   0  0  0  0  0  0  0  0  0  0  0  0
  141.5800   77.4690  219.4010 S   0  0  0  0  0  0  0  0  0  0  0  0
  142.9160   78.0310  218.9690 O   0  0  0  0  0  0  0  0  0  0  0  0
  140.5530   78.0180  218.4900 O   0  0  0  0  0  0  0  0  0  0  0  0
  141.2680   78.0920  221.0060 C   0  0  0  0  0  0  0  0  0  0  0  0
  140.1140   77.8040  221.7110 C   0  0  0  0  0  0  0  0  0  0  0  0
  139.8670   78.2940  222.9770 C   0  0  0  0  0  0  0  0  0  0  0  0
  140.8070   79.1070  223.5730 C   0  0  0  0  0  0  0  0  0  0  0  0
  141.9540   79.3920  222.8680 C   0  0  0  0  0  0  0  0  0  0  0  0
  142.2160   78.9160  221.6140 C   0  0  0  0  0  0  0  0  0  0  0  0
  141.4931   71.4480  221.1378 H   0  0  0  0  0  0  0  0  0  0  0  0
  140.5673   71.2175  219.6158 H   0  0  0  0  0  0  0  0  0  0  0  0
  142.0617   72.2142  219.6158 H   0  0  0  0  0  0  0  0  0  0  0  0
  138.8396   74.0152  219.4577 H   0  0  0  0  0  0  0  0  0  0  0  0
  138.7888   72.1853  219.5958 H   0  0  0  0  0  0  0  0  0  0  0  0
  137.7797   74.2813  221.4330 H   0  0  0  0  0  0  0  0  0  0  0  0
  137.1108   72.6719  220.9838 H   0  0  0  0  0  0  0  0  0  0  0  0
  139.1980   73.1330  223.1230 H   0  0  0  0  0  0  0  0  0  0  0  0
  138.2329   68.6697  223.0234 H   0  0  0  0  0  0  0  0  0  0  0  0
  139.1121   67.3646  224.9737 H   0  0  0  0  0  0  0  0  0  0  0  0
  140.2097   67.3505  227.0562 H   0  0  0  0  0  0  0  0  0  0  0  0
  141.5638   71.0104  228.8316 H   0  0  0  0  0  0  0  0  0  0  0  0
  140.6867   72.3344  226.8862 H   0  0  0  0  0  0  0  0  0  0  0  0
  141.8804   75.9381  221.3877 H   0  0  0  0  0  0  0  0  0  0  0  0
  144.1024   75.2392  220.7270 H   0  0  0  0  0  0  0  0  0  0  0  0
  143.4719   73.6863  221.2023 H   0  0  0  0  0  0  0  0  0  0  0  0
  142.8535   73.1360  218.7870 H   0  0  0  0  0  0  0  0  0  0  0  0
  144.9590   74.8870  218.3010 H   0  0  0  0  0  0  0  0  0  0  0  0
  143.3887   76.0797  218.1816 H   0  0  0  0  0  0  0  0  0  0  0  0
  142.1665   75.0257  217.4473 H   0  0  0  0  0  0  0  0  0  0  0  0
  139.3594   77.1555  221.2418 H   0  0  0  0  0  0  0  0  0  0  0  0
  138.9346   78.0398  223.5024 H   0  0  0  0  0  0  0  0  0  0  0  0
  140.6453   79.5156  224.5814 H   0  0  0  0  0  0  0  0  0  0  0  0
  142.7046   80.0416  223.3420 H   0  0  0  0  0  0  0  0  0  0  0  0
  143.1513   79.1760  221.0966 H   0  0  0  0  0  0  0  0  0  0  0  0
  1  2  1  0
  2  3  1  0
  3  4  1  0
  4  5  1  0
  5  6  1  0
  6  7  2  0
  6  8  1  0
  8  9  2  0
  9 10  1  0
 10 11  2  0
 11 12  1  0
 12 13  2  0
 13 14  1  0
 13 15  1  0
 15 16  2  0
 16 17  1  0
 17 18  2  0
  2 19  1  0
 19 20  2  0
 19 21  1  0
 21 22  1  0
 22 23  1  0
 23 24  1  0
 23 25  1  0
 25 26  1  0
 26 27  1  0
 27 28  2  0
 27 29  2  0
 27 30  1  0
 30 31  2  0
 31 32  1  0
 32 33  2  0
 33 34  1  0
 34 35  2  0
 18  8  1  0
 26 21  1  0
 35 30  1  0
 17 11  1  0
  1 36  1  0
  1 37  1  0
  1 38  1  0
  3 39  1  0
  3 40  1  0
  4 41  1  0
  4 42  1  0
  5 43  1  0
  9 44  1  0
 10 45  1  0
 12 46  1  0
 15 47  1  0
 16 48  1  0
 21 49  1  1
 22 50  1  0
 22 51  1  0
 23 52  1  1
 24 53  1  0
 25 54  1  0
 25 55  1  0
 31 56  1  0
 32 57  1  0
 33 58  1  0
 34 59  1  0
 35 60  1  0
M  END
>  <smiles>  (1) 
CN(CCNC(=O)c1ccc2cc(F)ccc2n1)C(=O)[C@H]1C[C@H](O)CN1S(=O)(=O)c1ccccc1

>  <score_type>  (1) 
oracle

>  <origin>  (1) 
autodockgpu

>  <m_score__min__energy>  (1) 
-9.1999999999999993

>  <m_primary>  (1) 
energy

>  <rmsd>  (1) 
2.446562664497036

>  <m_score__min__rmsd>  (1) 
2.446562664497036

>  <meeko>  (1) 
{"free_energy": -8.32, "intermolecular_energy": -11.01, "internal_energy": -2.9, "cluster_size": 14, "cluster_id": 1, "rank_in_cluster": 12}

>  <energy>  (1) 
-9.2

>  <cluster_rmsd>  (1) 
0.0

>  <cluster>  (1) 
1

$$$$

     RDKit          3D

 60 63  0  0  0  0  0  0  0  0999 V2000
  136.4230   73.2790  221.1080 C   0  0  0  0  0  0  0  0  0  0  0  0
  136.1150   73.8090  222.4230 N   0  0  0  0  0  0  0  0  0  0  0  0
  135.9150   75.2370  222.5770 C   0  0  0  0  0  0  0  0  0  0  0  0
  137.1150   75.9850  223.0660 C   0  0  0  0  0  0  0  0  0  0  0  0
  138.3130   75.3690  222.5690 N   0  0  0  0  0  0  0  0  0  0  0  0
  139.2380   76.2250  221.8740 C   0  0  0  0  0  0  0  0  0  0  0  0
  138.8880   77.4300  221.7780 O   0  0  0  0  0  0  0  0  0  0  0  0
  140.4900   75.7220  221.3240 C   0  0  0  0  0  0  0  0  0  0  0  0
  141.2840   76.6180  220.6420 C   0  0  0  0  0  0  0  0  0  0  0  0
  142.4900   76.2070  220.0920 C   0  0  0  0  0  0  0  0  0  0  0  0
  142.8410   74.8980  220.2590 C   0  0  0  0  0  0  0  0  0  0  0  0
  144.0370   74.4720  219.7190 C   0  0  0  0  0  0  0  0  0  0  0  0
  144.4050   73.1680  219.8750 C   0  0  0  0  0  0  0  0  0  0  0  0
  145.5850   72.7090  219.3520 F   0  0  0  0  0  0  0  0  0  0  0  0
  143.6070   72.2700  220.5600 C   0  0  0  0  0  0  0  0  0  0  0  0
  142.3960   72.6680  221.1160 C   0  0  0  0  0  0  0  0  0  0  0  0
  142.0480   73.9870  220.9450 C   0  0  0  0  0  0  0  0  0  0  0  0
  140.8820   74.4440  221.4590 N   0  0  0  0  0  0  0  0  0  0  0  0
  136.0130   72.9980  223.5890 C   0  0  0  0  0  0  0  0  0  0  0  0
  135.1170   73.3020  224.4690 O   0  0  0  0  0  0  0  0  0  0  0  0
  136.8310   71.8320  223.8990 C   0  0  1  0  0  0  0  0  0  0  0  0
  136.0290   70.6480  224.4030 C   0  0  0  0  0  0  0  0  0  0  0  0
  135.8640   69.8160  223.1230 C   0  0  2  0  0  0  0  0  0  0  0  0
  135.6310   68.4790  223.4630 O   0  0  0  0  0  0  0  0  0  0  0  0
  137.2310   69.9940  222.5110 C   0  0  0  0  0  0  0  0  0  0  0  0
  137.6650   71.3070  222.8790 N   0  0  0  0  0  0  0  0  0  0  0  0
  139.3430   71.3780  223.2270 S   0  0  0  0  0  0  0  0  0  0  0  0
  140.0540   70.4780  222.2410 O   0  0  0  0  0  0  0  0  0  0  0  0
  139.9210   72.7310  223.0900 O   0  0  0  0  0  0  0  0  0  0  0  0
  139.7350   70.7810  224.8250 C   0  0  0  0  0  0  0  0  0  0  0  0
  139.2230   69.5990  225.3300 C   0  0  0  0  0  0  0  0  0  0  0  0
  139.5320   69.1270  226.5890 C   0  0  0  0  0  0  0  0  0  0  0  0
  140.3880   69.8580  227.3850 C   0  0  0  0  0  0  0  0  0  0  0  0
  140.8940   71.0340  226.8790 C   0  0  0  0  0  0  0  0  0  0  0  0
  140.6000   71.5170  225.6350 C   0  0  0  0  0  0  0  0  0  0  0  0
  136.9731   72.3323  221.2138 H   0  0  0  0  0  0  0  0  0  0  0  0
  135.4882   73.1001  220.5566 H   0  0  0  0  0  0  0  0  0  0  0  0
  137.0412   74.0027  220.5566 H   0  0  0  0  0  0  0  0  0  0  0  0
  135.6279   75.6506  221.5990 H   0  0  0  0  0  0  0  0  0  0  0  0
  135.1362   75.3617  223.3437 H   0  0  0  0  0  0  0  0  0  0  0  0
  137.0657   77.0250  222.7110 H   0  0  0  0  0  0  0  0  0  0  0  0
  137.1288   75.9668  224.1658 H   0  0  0  0  0  0  0  0  0  0  0  0
  138.5840   74.3750  222.6580 H   0  0  0  0  0  0  0  0  0  0  0  0
  140.9605   77.6637  220.5330 H   0  0  0  0  0  0  0  0  0  0  0  0
  143.1371   76.9074  219.5436 H   0  0  0  0  0  0  0  0  0  0  0  0
  144.6837   75.1732  219.1711 H   0  0  0  0  0  0  0  0  0  0  0  0
  143.9350   71.2255  220.6667 H   0  0  0  0  0  0  0  0  0  0  0  0
  141.7510   71.9649  221.6634 H   0  0  0  0  0  0  0  0  0  0  0  0
  137.4753   72.2826  224.6683 H   0  0  0  0  0  0  0  0  0  0  0  0
  136.5792   70.0906  225.1754 H   0  0  0  0  0  0  0  0  0  0  0  0
  135.0779   70.9242  224.8816 H   0  0  0  0  0  0  0  0  0  0  0  0
  135.0322   70.1064  222.4644 H   0  0  0  0  0  0  0  0  0  0  0  0
  134.7230   68.2340  223.1410 H   0  0  0  0  0  0  0  0  0  0  0  0
  137.9265   69.2381  222.9047 H   0  0  0  0  0  0  0  0  0  0  0  0
  137.1997   69.8737  221.4180 H   0  0  0  0  0  0  0  0  0  0  0  0
  138.5399   69.0100  224.7003 H   0  0  0  0  0  0  0  0  0  0  0  0
  139.1020   68.1819  226.9522 H   0  0  0  0  0  0  0  0  0  0  0  0
  140.6584   69.5121  228.3936 H   0  0  0  0  0  0  0  0  0  0  0  0
  141.5754   71.6196  227.5137 H   0  0  0  0  0  0  0  0  0  0  0  0
  141.0349   72.4633  225.2809 H   0  0  0  0  0  0  0  0  0  0  0  0
  1  2  1  0
  2  3  1  0
  3  4  1  0
  4  5  1  0
  5  6  1  0
  6  7  2  0
  6  8  1  0
  8  9  2  0
  9 10  1  0
 10 11  2  0
 11 12  1  0
 12 13  2  0
 13 14  1  0
 13 15  1  0
 15 16  2  0
 16 17  1  0
 17 18  2  0
  2 19  1  0
 19 20  2  0
 19 21  1  0
 21 22  1  0
 22 23  1  0
 23 24  1  0
 23 25  1  0
 25 26  1  0
 26 27  1  0
 27 28  2  0
 27 29  2  0
 27 30  1  0
 30 31  2  0
 31 32  1  0
 32 33  2  0
 33 34  1  0
 34 35  2  0
 18  8  1  0
 26 21  1  0
 35 30  1  0
 17 11  1  0
  1 36  1  0
  1 37  1  0
  1 38  1  0
  3 39  1  0
  3 40  1  0
  4 41  1  0
  4 42  1  0
  5 43  1  0
  9 44  1  0
 10 45  1  0
 12 46  1  0
 15 47  1  0
 16 48  1  0
 21 49  1  1
 22 50  1  0
 22 51  1  0
 23 52  1  6
 24 53  1  0
 25 54  1  0
 25 55  1  0
 31 56  1  0
 32 57  1  0
 33 58  1  0
 34 59  1  0
 35 60  1  0
M  END
>  <smiles>  (2) 
CN(CCNC(=O)c1ccc2cc(F)ccc2n1)C(=O)[C@H]1C[C@H](O)CN1S(=O)(=O)c1ccccc1

>  <score_type>  (2) 
oracle

>  <origin>  (2) 
autodockgpu

>  <m_score__min__energy>  (2) 
-9.1999999999999993

>  <m_primary>  (2) 
energy

>  <rmsd>  (2) 
7.838917849392387

>  <m_score__min__rmsd>  (2) 
7.838917849392387

>  <meeko>  (2) 
{"free_energy": -7.24, "intermolecular_energy": -9.93, "internal_energy": -3.45, "cluster_size": 2, "cluster_id": 8, "rank_in_cluster": 2}

>  <energy>  (2) 
-8.93

>  <cluster_rmsd>  (2) 
1.21

>  <cluster>  (2) 
1

$$$$

     RDKit          3D

 60 63  0  0  0  0  0  0  0  0999 V2000
  140.9300   72.8570  218.0360 C   0  0  0  0  0  0  0  0  0  0  0  0
  140.8980   72.5520  219.4540 N   0  0  0  0  0  0  0  0  0  0  0  0
  139.6680   72.0540  220.0390 C   0  0  0  0  0  0  0  0  0  0  0  0
  139.2410   72.7570  221.2880 C   0  0  0  0  0  0  0  0  0  0  0  0
  139.7480   72.0640  222.4390 N   0  0  0  0  0  0  0  0  0  0  0  0
  138.8920   71.0610  223.0160 C   0  0  0  0  0  0  0  0  0  0  0  0
  137.7830   70.9040  222.4420 O   0  0  0  0  0  0  0  0  0  0  0  0
  139.2900   70.2870  224.1850 C   0  0  0  0  0  0  0  0  0  0  0  0
  138.9250   68.9590  224.2170 C   0  0  0  0  0  0  0  0  0  0  0  0
  139.2710   68.1630  225.2980 C   0  0  0  0  0  0  0  0  0  0  0  0
  139.9790   68.7500  226.3070 C   0  0  0  0  0  0  0  0  0  0  0  0
  140.3320   67.9740  227.3910 C   0  0  0  0  0  0  0  0  0  0  0  0
  141.0390   68.5430  228.4100 C   0  0  0  0  0  0  0  0  0  0  0  0
  141.4070   67.8020  229.5020 F   0  0  0  0  0  0  0  0  0  0  0  0
  141.4050   69.8760  228.3770 C   0  0  0  0  0  0  0  0  0  0  0  0
  141.0640   70.6850  227.2990 C   0  0  0  0  0  0  0  0  0  0  0  0
  140.3520   70.0880  226.2860 C   0  0  0  0  0  0  0  0  0  0  0  0
  139.9860   70.8160  225.2050 N   0  0  0  0  0  0  0  0  0  0  0  0
  142.0140   72.7330  220.3190 C   0  0  0  0  0  0  0  0  0  0  0  0
  142.1400   71.9390  221.3310 O   0  0  0  0  0  0  0  0  0  0  0  0
  143.0560   73.7420  220.1770 C   0  0  1  0  0  0  0  0  0  0  0  0
  144.4600   73.1740  220.2400 C   0  0  0  0  0  0  0  0  0  0  0  0
  144.8100   73.0380  218.7510 C   0  0  2  0  0  0  0  0  0  0  0  0
  146.2000   73.0420  218.5960 O   0  0  0  0  0  0  0  0  0  0  0  0
  144.1980   74.3100  218.2180 C   0  0  0  0  0  0  0  0  0  0  0  0
  143.0410   74.5640  219.0210 N   0  0  0  0  0  0  0  0  0  0  0  0
  142.8100   76.2340  219.3410 S   0  0  0  0  0  0  0  0  0  0  0  0
  144.0310   76.7320  220.0810 O   0  0  0  0  0  0  0  0  0  0  0  0
  142.6630   77.0570  218.1220 O   0  0  0  0  0  0  0  0  0  0  0  0
  141.4330   76.5470  220.3750 C   0  0  0  0  0  0  0  0  0  0  0  0
  140.4750   77.4990  220.0800 C   0  0  0  0  0  0  0  0  0  0  0  0
  139.3880   77.7470  220.8940 C   0  0  0  0  0  0  0  0  0  0  0  0
  139.2450   77.0170  222.0550 C   0  0  0  0  0  0  0  0  0  0  0  0
  140.2010   76.0710  222.3460 C   0  0  0  0  0  0  0  0  0  0  0  0
  141.2830   75.8120  221.5520 C   0  0  0  0  0  0  0  0  0  0  0  0
  141.0438   73.9422  217.8968 H   0  0  0  0  0  0  0  0  0  0  0  0
  141.7784   72.3363  217.5680 H   0  0  0  0  0  0  0  0  0  0  0  0
  139.9920   72.5237  217.5680 H   0  0  0  0  0  0  0  0  0  0  0  0
  138.8660   72.1616  219.2939 H   0  0  0  0  0  0  0  0  0  0  0  0
  139.8591   71.0080  220.3209 H   0  0  0  0  0  0  0  0  0  0  0  0
  139.6328   73.7848  221.2797 H   0  0  0  0  0  0  0  0  0  0  0  0
  138.1421   72.7772  221.3335 H   0  0  0  0  0  0  0  0  0  0  0  0
  140.6640   72.2070  222.8970 H   0  0  0  0  0  0  0  0  0  0  0  0
  138.3559   68.5278  223.3802 H   0  0  0  0  0  0  0  0  0  0  0  0
  138.9866   67.1013  225.3410 H   0  0  0  0  0  0  0  0  0  0  0  0
  140.0479   66.9122  227.4336 H   0  0  0  0  0  0  0  0  0  0  0  0
  141.9743   70.3026  229.2160 H   0  0  0  0  0  0  0  0  0  0  0  0
  141.3489   71.7467  227.2588 H   0  0  0  0  0  0  0  0  0  0  0  0
  142.7985   74.3676  221.0443 H   0  0  0  0  0  0  0  0  0  0  0  0
  145.1482   73.8626  220.7521 H   0  0  0  0  0  0  0  0  0  0  0  0
  144.5350   72.2322  220.8034 H   0  0  0  0  0  0  0  0  0  0  0  0
  144.4567   72.1218  218.2553 H   0  0  0  0  0  0  0  0  0  0  0  0
  146.5070   73.9870  218.6120 H   0  0  0  0  0  0  0  0  0  0  0  0
  144.9122   75.1421  218.3045 H   0  0  0  0  0  0  0  0  0  0  0  0
  143.9341   74.2126  217.1546 H   0  0  0  0  0  0  0  0  0  0  0  0
  140.5837   78.0850  219.1555 H   0  0  0  0  0  0  0  0  0  0  0  0
  138.6484   78.5141  220.6210 H   0  0  0  0  0  0  0  0  0  0  0  0
  138.3919   77.1858  222.7286 H   0  0  0  0  0  0  0  0  0  0  0  0
  140.0877   75.4888  223.2724 H   0  0  0  0  0  0  0  0  0  0  0  0
  142.0175   75.0432  221.8337 H   0  0  0  0  0  0  0  0  0  0  0  0
  1  2  1  0
  2  3  1  0
  3  4  1  0
  4  5  1  0
  5  6  1  0
  6  7  2  0
  6  8  1  0
  8  9  2  0
  9 10  1  0
 10 11  2  0
 11 12  1  0
 12 13  2  0
 13 14  1  0
 13 15  1  0
 15 16  2  0
 16 17  1  0
 17 18  2  0
  2 19  1  0
 19 20  2  0
 19 21  1  0
 21 22  1  0
 22 23  1  0
 23 24  1  0
 23 25  1  0
 25 26  1  0
 26 27  1  0
 27 28  2  0
 27 29  2  0
 27 30  1  0
 30 31  2  0
 31 32  1  0
 32 33  2  0
 33 34  1  0
 34 35  2  0
 18  8  1  0
 26 21  1  0
 35 30  1  0
 17 11  1  0
  1 36  1  0
  1 37  1  0
  1 38  1  0
  3 39  1  0
  3 40  1  0
  4 41  1  0
  4 42  1  0
  5 43  1  0
  9 44  1  0
 10 45  1  0
 12 46  1  0
 15 47  1  0
 16 48  1  0
 21 49  1  1
 22 50  1  0
 22 51  1  0
 23 52  1  6
 24 53  1  0
 25 54  1  0
 25 55  1  0
 31 56  1  0
 32 57  1  0
 33 58  1  0
 34 59  1  0
 35 60  1  0
M  END
>  <smiles>  (3) 
CN(CCNC(=O)c1ccc2cc(F)ccc2n1)C(=O)[C@H]1C[C@H](O)CN1S(=O)(=O)c1ccccc1

>  <score_type>  (3) 
oracle

>  <origin>  (3) 
autodockgpu

>  <m_score__min__energy>  (3) 
-9.1999999999999993

>  <m_primary>  (3) 
energy

>  <rmsd>  (3) 
2.9750717414596863

>  <m_score__min__rmsd>  (3) 
2.9750717414596863

>  <meeko>  (3) 
{"free_energy": -7.61, "intermolecular_energy": -10.29, "internal_energy": -2.72, "cluster_size": 5, "cluster_id": 4, "rank_in_cluster": 3}

>  <energy>  (3) 
-8.91

>  <cluster_rmsd>  (3) 
1.79

>  <cluster>  (3) 
1

$$$$

     RDKit          3D

 60 63  0  0  0  0  0  0  0  0999 V2000
  138.4610   76.5050  222.6640 C   0  0  0  0  0  0  0  0  0  0  0  0
  139.0830   75.6250  221.6940 N   0  0  0  0  0  0  0  0  0  0  0  0
  138.2420   74.8840  220.7740 C   0  0  0  0  0  0  0  0  0  0  0  0
  138.5500   73.4230  220.6850 C   0  0  0  0  0  0  0  0  0  0  0  0
  138.8890   72.9140  221.9850 N   0  0  0  0  0  0  0  0  0  0  0  0
  138.8980   71.4830  222.1350 C   0  0  0  0  0  0  0  0  0  0  0  0
  138.6030   70.8310  221.0990 O   0  0  0  0  0  0  0  0  0  0  0  0
  139.2270   70.8420  223.4020 C   0  0  0  0  0  0  0  0  0  0  0  0
  138.8840   69.5160  223.5460 C   0  0  0  0  0  0  0  0  0  0  0  0
  139.1680   68.8430  224.7250 C   0  0  0  0  0  0  0  0  0  0  0  0
  139.7920   69.5480  225.7140 C   0  0  0  0  0  0  0  0  0  0  0  0
  140.0830   68.8960  226.8940 C   0  0  0  0  0  0  0  0  0  0  0  0
  140.7050   69.5830  227.8940 C   0  0  0  0  0  0  0  0  0  0  0  0
  141.0090   68.9670  229.0790 F   0  0  0  0  0  0  0  0  0  0  0  0
  141.0500   70.9150  227.7480 C   0  0  0  0  0  0  0  0  0  0  0  0
  140.7710   71.6010  226.5710 C   0  0  0  0  0  0  0  0  0  0  0  0
  140.1430   70.8860  225.5790 C   0  0  0  0  0  0  0  0  0  0  0  0
  139.8400   71.4900  224.4060 N   0  0  0  0  0  0  0  0  0  0  0  0
  140.4910   75.4310  221.6030 C   0  0  0  0  0  0  0  0  0  0  0  0
  141.0030   74.3890  222.1700 O   0  0  0  0  0  0  0  0  0  0  0  0
  141.4370   76.3050  220.9200 C   0  0  1  0  0  0  0  0  0  0  0  0
  142.6710   75.5820  220.4160 C   0  0  0  0  0  0  0  0  0  0  0  0
  142.3050   75.3300  218.9460 C   0  0  2  0  0  0  0  0  0  0  0  0
  143.4750   75.1660  218.1960 O   0  0  0  0  0  0  0  0  0  0  0  0
  141.6230   76.6340  218.6140 C   0  0  0  0  0  0  0  0  0  0  0  0
  140.9720   77.0620  219.8140 N   0  0  0  0  0  0  0  0  0  0  0  0
  141.0420   78.7610  220.0380 S   0  0  0  0  0  0  0  0  0  0  0  0
  142.0700   79.3080  219.0730 O   0  0  0  0  0  0  0  0  0  0  0  0
  139.7640   79.4490  219.7610 O   0  0  0  0  0  0  0  0  0  0  0  0
  141.5670   79.2180  221.6430 C   0  0  0  0  0  0  0  0  0  0  0  0
  141.0250   78.6730  222.7930 C   0  0  0  0  0  0  0  0  0  0  0  0
  141.4390   79.0320  224.0590 C   0  0  0  0  0  0  0  0  0  0  0  0
  142.4350   79.9750  224.1940 C   0  0  0  0  0  0  0  0  0  0  0  0
  142.9710   80.5160  223.0470 C   0  0  0  0  0  0  0  0  0  0  0  0
  142.5750   80.1730  221.7850 C   0  0  0  0  0  0  0  0  0  0  0  0
  138.7042   76.1609  223.6801 H   0  0  0  0  0  0  0  0  0  0  0  0
  138.8369   77.5292  222.5239 H   0  0  0  0  0  0  0  0  0  0  0  0
  137.3700   76.4924  222.5239 H   0  0  0  0  0  0  0  0  0  0  0  0
  137.1972   74.9948  221.0996 H   0  0  0  0  0  0  0  0  0  0  0  0
  138.4302   75.3029  219.7745 H   0  0  0  0  0  0  0  0  0  0  0  0
  137.6689   72.8873  220.3021 H   0  0  0  0  0  0  0  0  0  0  0  0
  139.4013   73.2734  220.0046 H   0  0  0  0  0  0  0  0  0  0  0  0
  139.1300   73.4670  222.8250 H   0  0  0  0  0  0  0  0  0  0  0  0
  138.3822   68.9880  222.7217 H   0  0  0  0  0  0  0  0  0  0  0  0
  138.9013   67.7841  224.8580 H   0  0  0  0  0  0  0  0  0  0  0  0
  139.8170   67.8369  227.0264 H   0  0  0  0  0  0  0  0  0  0  0  0
  141.5521   71.4387  228.5748 H   0  0  0  0  0  0  0  0  0  0  0  0
  141.0387   72.6599  226.4406 H   0  0  0  0  0  0  0  0  0  0  0  0
  141.6460   77.0012  221.7456 H   0  0  0  0  0  0  0  0  0  0  0  0
  143.5686   76.2118  220.5035 H   0  0  0  0  0  0  0  0  0  0  0  0
  142.9146   74.6687  220.9786 H   0  0  0  0  0  0  0  0  0  0  0  0
  141.6947   74.4363  218.7487 H   0  0  0  0  0  0  0  0  0  0  0  0
  144.1820   75.7350  218.6020 H   0  0  0  0  0  0  0  0  0  0  0  0
  142.3644   77.3815  218.2952 H   0  0  0  0  0  0  0  0  0  0  0  0
  140.9042   76.5116  217.7903 H   0  0  0  0  0  0  0  0  0  0  0  0
  140.2290   77.9203  222.6937 H   0  0  0  0  0  0  0  0  0  0  0  0
  140.9811   78.5725  224.9474 H   0  0  0  0  0  0  0  0  0  0  0  0
  142.7907   80.2858  225.1874 H   0  0  0  0  0  0  0  0  0  0  0  0
  143.7655   81.2694  223.1529 H   0  0  0  0  0  0  0  0  0  0  0  0
  143.0391   80.6380  220.9028 H   0  0  0  0  0  0  0  0  0  0  0  0
  1  2  1  0
  2  3  1  0
  3  4  1  0
  4  5  1  0
  5  6  1  0
  6  7  2  0
  6  8  1  0
  8  9  2  0
  9 10  1  0
 10 11  2  0
 11 12  1  0
 12 13  2  0
 13 14  1  0
 13 15  1  0
 15 16  2  0
 16 17  1  0
 17 18  2  0
  2 19  1  0
 19 20  2  0
 19 21  1  0
 21 22  1  0
 22 23  1  0
 23 24  1  0
 23 25  1  0
 25 26  1  0
 26 27  1  0
 27 28  2  0
 27 29  2  0
 27 30  1  0
 30 31  2  0
 31 32  1  0
 32 33  2  0
 33 34  1  0
 34 35  2  0
 18  8  1  0
 26 21  1  0
 35 30  1  0
 17 11  1  0
  1 36  1  0
  1 37  1  0
  1 38  1  0
  3 39  1  0
  3 40  1  0
  4 41  1  0
  4 42  1  0
  5 43  1  0
  9 44  1  0
 10 45  1  0
 12 46  1  0
 15 47  1  0
 16 48  1  0
 21 49  1  1
 22 50  1  0
 22 51  1  0
 23 52  1  1
 24 53  1  0
 25 54  1  0
 25 55  1  0
 31 56  1  0
 32 57  1  0
 33 58  1  0
 34 59  1  0
 35 60  1  0
M  END
>  <smiles>  (4) 
CN(CCNC(=O)c1ccc2cc(F)ccc2n1)C(=O)[C@H]1C[C@H](O)CN1S(=O)(=O)c1ccccc1

>  <score_type>  (4) 
oracle

>  <origin>  (4) 
autodockgpu

>  <m_score__min__energy>  (4) 
-9.1999999999999993

>  <m_primary>  (4) 
energy

>  <rmsd>  (4) 
2.3162620554378233

>  <m_score__min__rmsd>  (4) 
2.3162620554378233

>  <meeko>  (4) 
{"free_energy": -8.55, "intermolecular_energy": -11.23, "internal_energy": -2.74, "cluster_size": 10, "cluster_id": 2, "rank_in_cluster": 6}

>  <energy>  (4) 
-8.86

>  <cluster_rmsd>  (4) 
1.83

>  <cluster>  (4) 
1

$$$$

     RDKit          3D

 60 63  0  0  0  0  0  0  0  0999 V2000
  141.1420   71.6340  220.2000 C   0  0  0  0  0  0  0  0  0  0  0  0
  140.4690   72.8990  220.4250 N   0  0  0  0  0  0  0  0  0  0  0  0
  139.1270   73.0840  219.9060 C   0  0  0  0  0  0  0  0  0  0  0  0
  138.0660   73.2080  220.9530 C   0  0  0  0  0  0  0  0  0  0  0  0
  138.5500   72.6990  222.2050 N   0  0  0  0  0  0  0  0  0  0  0  0
  138.5300   71.2690  222.3720 C   0  0  0  0  0  0  0  0  0  0  0  0
  138.0840   70.6190  221.3910 O   0  0  0  0  0  0  0  0  0  0  0  0
  138.9950   70.6290  223.5950 C   0  0  0  0  0  0  0  0  0  0  0  0
  138.7920   69.2710  223.7130 C   0  0  0  0  0  0  0  0  0  0  0  0
  139.2100   68.5970  224.8510 C   0  0  0  0  0  0  0  0  0  0  0  0
  139.8210   69.3320  225.8260 C   0  0  0  0  0  0  0  0  0  0  0  0
  140.2440   68.6780  226.9640 C   0  0  0  0  0  0  0  0  0  0  0  0
  140.8560   69.3950  227.9500 C   0  0  0  0  0  0  0  0  0  0  0  0
  141.2890   68.7790  229.0940 F   0  0  0  0  0  0  0  0  0  0  0  0
  141.0590   70.7580  227.8300 C   0  0  0  0  0  0  0  0  0  0  0  0
  140.6450   71.4460  226.6960 C   0  0  0  0  0  0  0  0  0  0  0  0
  140.0310   70.7010  225.7170 C   0  0  0  0  0  0  0  0  0  0  0  0
  139.6020   71.3060  224.5850 N   0  0  0  0  0  0  0  0  0  0  0  0
  141.0640   73.9890  221.1200 C   0  0  0  0  0  0  0  0  0  0  0  0
  140.7020   74.2070  222.3410 O   0  0  0  0  0  0  0  0  0  0  0  0
  142.0640   74.9050  220.5870 C   0  0  1  0  0  0  0  0  0  0  0  0
  143.4610   74.3170  220.5460 C   0  0  0  0  0  0  0  0  0  0  0  0
  143.5580   73.8420  219.0900 C   0  0  2  0  0  0  0  0  0  0  0  0
  144.9030   73.7640  218.7130 O   0  0  0  0  0  0  0  0  0  0  0  0
  142.8610   74.9830  218.3910 C   0  0  0  0  0  0  0  0  0  0  0  0
  141.8540   75.4500  219.2940 N   0  0  0  0  0  0  0  0  0  0  0  0
  141.6730   77.1550  219.2630 S   0  0  0  0  0  0  0  0  0  0  0  0
  143.0060   77.7500  218.8640 O   0  0  0  0  0  0  0  0  0  0  0  0
  140.6670   77.6280  218.2890 O   0  0  0  0  0  0  0  0  0  0  0  0
  141.2710   77.8290  220.8280 C   0  0  0  0  0  0  0  0  0  0  0  0
  140.1230   77.4860  221.5180 C   0  0  0  0  0  0  0  0  0  0  0  0
  139.8050   78.0150  222.7520 C   0  0  0  0  0  0  0  0  0  0  0  0
  140.6630   78.9270  223.3290 C   0  0  0  0  0  0  0  0  0  0  0  0
  141.8040   79.2660  222.6380 C   0  0  0  0  0  0  0  0  0  0  0  0
  142.1360   78.7520  221.4160 C   0  0  0  0  0  0  0  0  0  0  0  0
  141.3877   71.1722  221.1677 H   0  0  0  0  0  0  0  0  0  0  0  0
  140.4814   70.9634  219.6308 H   0  0  0  0  0  0  0  0  0  0  0  0
  142.0673   71.8071  219.6308 H   0  0  0  0  0  0  0  0  0  0  0  0
  139.1177   74.0006  219.2979 H   0  0  0  0  0  0  0  0  0  0  0  0
  138.8893   72.1795  219.3269 H   0  0  0  0  0  0  0  0  0  0  0  0
  137.7930   74.2670  221.0714 H   0  0  0  0  0  0  0  0  0  0  0  0
  137.1841   72.6277  220.6439 H   0  0  0  0  0  0  0  0  0  0  0  0
  138.9140   73.2500  223.0010 H   0  0  0  0  0  0  0  0  0  0  0  0
  138.2962   68.7190  222.9009 H   0  0  0  0  0  0  0  0  0  0  0  0
  139.0554   67.5137  224.9634 H   0  0  0  0  0  0  0  0  0  0  0  0
  140.0902   67.5945  227.0750 H   0  0  0  0  0  0  0  0  0  0  0  0
  141.5557   71.3055  228.6446 H   0  0  0  0  0  0  0  0  0  0  0  0
  140.8003   72.5295  226.5872 H   0  0  0  0  0  0  0  0  0  0  0  0
  141.9523   75.7162  221.3215 H   0  0  0  0  0  0  0  0  0  0  0  0
  144.2228   75.0780  220.7708 H   0  0  0  0  0  0  0  0  0  0  0  0
  143.6320   73.5219  221.2867 H   0  0  0  0  0  0  0  0  0  0  0  0
  143.1300   72.8511  218.8781 H   0  0  0  0  0  0  0  0  0  0  0  0
  145.1180   74.5710  218.1740 H   0  0  0  0  0  0  0  0  0  0  0  0
  143.5768   75.7882  218.1688 H   0  0  0  0  0  0  0  0  0  0  0  0
  142.4230   74.6595  217.4352 H   0  0  0  0  0  0  0  0  0  0  0  0
  139.4332   76.7598  221.0634 H   0  0  0  0  0  0  0  0  0  0  0  0
  138.8811   77.7137  223.2675 H   0  0  0  0  0  0  0  0  0  0  0  0
  140.4424   79.3701  224.3114 H   0  0  0  0  0  0  0  0  0  0  0  0
  142.4894   79.9939  223.0966 H   0  0  0  0  0  0  0  0  0  0  0  0
  143.0626   79.0586  220.9086 H   0  0  0  0  0  0  0  0  0  0  0  0
  1  2  1  0
  2  3  1  0
  3  4  1  0
  4  5  1  0
  5  6  1  0
  6  7  2  0
  6  8  1  0
  8  9  2  0
  9 10  1  0
 10 11  2  0
 11 12  1  0
 12 13  2  0
 13 14  1  0
 13 15  1  0
 15 16  2  0
 16 17  1  0
 17 18  2  0
  2 19  1  0
 19 20  2  0
 19 21  1  0
 21 22  1  0
 22 23  1  0
 23 24  1  0
 23 25  1  0
 25 26  1  0
 26 27  1  0
 27 28  2  0
 27 29  2  0
 27 30  1  0
 30 31  2  0
 31 32  1  0
 32 33  2  0
 33 34  1  0
 34 35  2  0
 18  8  1  0
 26 21  1  0
 35 30  1  0
 17 11  1  0
  1 36  1  0
  1 37  1  0
  1 38  1  0
  3 39  1  0
  3 40  1  0
  4 41  1  0
  4 42  1  0
  5 43  1  0
  9 44  1  0
 10 45  1  0
 12 46  1  0
 15 47  1  0
 16 48  1  0
 21 49  1  1
 22 50  1  0
 22 51  1  0
 23 52  1  1
 24 53  1  0
 25 54  1  0
 25 55  1  0
 31 56  1  0
 32 57  1  0
 33 58  1  0
 34 59  1  0
 35 60  1  0
M  END
>  <smiles>  (5) 
CN(CCNC(=O)c1ccc2cc(F)ccc2n1)C(=O)[C@H]1C[C@H](O)CN1S(=O)(=O)c1ccccc1

>  <score_type>  (5) 
oracle

>  <origin>  (5) 
autodockgpu

>  <m_score__min__energy>  (5) 
-9.1999999999999993

>  <m_primary>  (5) 
energy

>  <rmsd>  (5) 
2.5235124173431394

>  <m_score__min__rmsd>  (5) 
2.5235124173431394

>  <meeko>  (5) 
{"free_energy": -8.25, "intermolecular_energy": -10.94, "internal_energy": -3.05, "cluster_size": 5, "cluster_id": 4, "rank_in_cluster": 1}

>  <energy>  (5) 
-8.81

>  <cluster_rmsd>  (5) 
1.26

>  <cluster>  (5) 
1

$$$$

     RDKit          3D

 60 63  0  0  0  0  0  0  0  0999 V2000
  143.1730   70.2640  219.7150 C   0  0  0  0  0  0  0  0  0  0  0  0
  142.8070   71.6410  219.4420 N   0  0  0  0  0  0  0  0  0  0  0  0
  141.7460   71.9110  218.4910 C   0  0  0  0  0  0  0  0  0  0  0  0
  140.3830   71.4930  218.9420 C   0  0  0  0  0  0  0  0  0  0  0  0
  140.3300   71.4580  220.3770 N   0  0  0  0  0  0  0  0  0  0  0  0
  139.8510   70.2410  220.9760 C   0  0  0  0  0  0  0  0  0  0  0  0
  139.5260   69.3340  220.1660 O   0  0  0  0  0  0  0  0  0  0  0  0
  139.7510   70.0790  222.4210 C   0  0  0  0  0  0  0  0  0  0  0  0
  138.9530   69.0580  222.8880 C   0  0  0  0  0  0  0  0  0  0  0  0
  138.8130   68.8460  224.2510 C   0  0  0  0  0  0  0  0  0  0  0  0
  139.4920   69.6840  225.0890 C   0  0  0  0  0  0  0  0  0  0  0  0
  139.3640   69.4890  226.4480 C   0  0  0  0  0  0  0  0  0  0  0  0
  140.0350   70.3160  227.3010 C   0  0  0  0  0  0  0  0  0  0  0  0
  139.9320   70.1510  228.6570 F   0  0  0  0  0  0  0  0  0  0  0  0
  140.8360   71.3410  226.8300 C   0  0  0  0  0  0  0  0  0  0  0  0
  140.9850   71.5640  225.4670 C   0  0  0  0  0  0  0  0  0  0  0  0
  140.2990   70.7170  224.6280 C   0  0  0  0  0  0  0  0  0  0  0  0
  140.3980   70.8760  223.2880 N   0  0  0  0  0  0  0  0  0  0  0  0
  143.4500   72.7560  220.0500 C   0  0  0  0  0  0  0  0  0  0  0  0
  144.7340   72.7180  220.1960 O   0  0  0  0  0  0  0  0  0  0  0  0
  142.7970   73.9660  220.5340 C   0  0  1  0  0  0  0  0  0  0  0  0
  143.5550   75.2360  220.2040 C   0  0  0  0  0  0  0  0  0  0  0  0
  142.8290   75.7130  218.9380 C   0  0  2  0  0  0  0  0  0  0  0  0
  143.0120   77.0910  218.7870 O   0  0  0  0  0  0  0  0  0  0  0  0
  141.4040   75.3890  219.3110 C   0  0  0  0  0  0  0  0  0  0  0  0
  141.4610   74.2160  220.1270 N   0  0  0  0  0  0  0  0  0  0  0  0
  140.3220   74.2420  221.4090 S   0  0  0  0  0  0  0  0  0  0  0  0
  139.0100   73.7200  220.8670 O   0  0  0  0  0  0  0  0  0  0  0  0
  140.6990   73.3900  222.5570 O   0  0  0  0  0  0  0  0  0  0  0  0
  140.0090   75.8550  222.0130 C   0  0  0  0  0  0  0  0  0  0  0  0
  138.7330   76.3380  222.2350 C   0  0  0  0  0  0  0  0  0  0  0  0
  138.4850   77.6090  222.7120 C   0  0  0  0  0  0  0  0  0  0  0  0
  139.5510   78.4410  222.9800 C   0  0  0  0  0  0  0  0  0  0  0  0
  140.8200   77.9570  222.7560 C   0  0  0  0  0  0  0  0  0  0  0  0
  141.0850   76.7020  222.2850 C   0  0  0  0  0  0  0  0  0  0  0  0
  143.2154   70.1046  220.8026 H   0  0  0  0  0  0  0  0  0  0  0  0
  142.4226   69.5910  219.2747 H   0  0  0  0  0  0  0  0  0  0  0  0
  144.1586   70.0524  219.2747 H   0  0  0  0  0  0  0  0  0  0  0  0
  141.7261   72.9937  218.2977 H   0  0  0  0  0  0  0  0  0  0  0  0
  141.9731   71.3160  217.5941 H   0  0  0  0  0  0  0  0  0  0  0  0
  139.6390   72.2114  218.5673 H   0  0  0  0  0  0  0  0  0  0  0  0
  140.1640   70.4897  218.5478 H   0  0  0  0  0  0  0  0  0  0  0  0
  140.6020   72.2150  221.0270 H   0  0  0  0  0  0  0  0  0  0  0  0
  138.4241   68.4075  222.1759 H   0  0  0  0  0  0  0  0  0  0  0  0
  138.1804   68.0354  224.6418 H   0  0  0  0  0  0  0  0  0  0  0  0
  138.7305   68.6790  226.8386 H   0  0  0  0  0  0  0  0  0  0  0  0
  141.3629   71.9892  227.5457 H   0  0  0  0  0  0  0  0  0  0  0  0
  141.6184   72.3754  225.0790 H   0  0  0  0  0  0  0  0  0  0  0  0
  142.7886   73.7295  221.6082 H   0  0  0  0  0  0  0  0  0  0  0  0
  143.4727   75.9742  221.0154 H   0  0  0  0  0  0  0  0  0  0  0  0
  144.6366   75.0877  220.0689 H   0  0  0  0  0  0  0  0  0  0  0  0
  143.1637   75.2617  217.9923 H   0  0  0  0  0  0  0  0  0  0  0  0
  143.6540   77.3930  219.4830 H   0  0  0  0  0  0  0  0  0  0  0  0
  140.9581   76.2229  219.8729 H   0  0  0  0  0  0  0  0  0  0  0  0
  140.7835   75.2255  218.4176 H   0  0  0  0  0  0  0  0  0  0  0  0
  137.8775   75.6802  222.0220 H   0  0  0  0  0  0  0  0  0  0  0  0
  137.4530   77.9528  222.8758 H   0  0  0  0  0  0  0  0  0  0  0  0
  139.3924   79.4606  223.3612 H   0  0  0  0  0  0  0  0  0  0  0  0
  141.6715   78.6201  222.9688 H   0  0  0  0  0  0  0  0  0  0  0  0
  142.1204   76.3673  222.1241 H   0  0  0  0  0  0  0  0  0  0  0  0
  1  2  1  0
  2  3  1  0
  3  4  1  0
  4  5  1  0
  5  6  1  0
  6  7  2  0
  6  8  1  0
  8  9  2  0
  9 10  1  0
 10 11  2  0
 11 12  1  0
 12 13  2  0
 13 14  1  0
 13 15  1  0
 15 16  2  0
 16 17  1  0
 17 18  2  0
  2 19  1  0
 19 20  2  0
 19 21  1  0
 21 22  1  0
 22 23  1  0
 23 24  1  0
 23 25  1  0
 25 26  1  0
 26 27  1  0
 27 28  2  0
 27 29  2  0
 27 30  1  0
 30 31  2  0
 31 32  1  0
 32 33  2  0
 33 34  1  0
 34 35  2  0
 18  8  1  0
 26 21  1  0
 35 30  1  0
 17 11  1  0
  1 36  1  0
  1 37  1  0
  1 38  1  0
  3 39  1  0
  3 40  1  0
  4 41  1  0
  4 42  1  0
  5 43  1  0
  9 44  1  0
 10 45  1  0
 12 46  1  0
 15 47  1  0
 16 48  1  0
 21 49  1  1
 22 50  1  0
 22 51  1  0
 23 52  1  6
 24 53  1  0
 25 54  1  0
 25 55  1  0
 31 56  1  0
 32 57  1  0
 33 58  1  0
 34 59  1  0
 35 60  1  0
M  END
>  <smiles>  (6) 
CN(CCNC(=O)c1ccc2cc(F)ccc2n1)C(=O)[C@H]1C[C@H](O)CN1S(=O)(=O)c1ccccc1

>  <score_type>  (6) 
oracle

>  <origin>  (6) 
autodockgpu

>  <m_score__min__energy>  (6) 
-9.1999999999999993

>  <m_primary>  (6) 
energy

>  <rmsd>  (6) 
3.4107169370512107

>  <m_score__min__rmsd>  (6) 
3.4107169370512107

>  <meeko>  (6) 
{"free_energy": -6.7, "intermolecular_energy": -9.38, "internal_energy": -4.28, "cluster_size": 5, "cluster_id": 4, "rank_in_cluster": 5}

>  <energy>  (6) 
-8.77

>  <cluster_rmsd>  (6) 
1.87

>  <cluster>  (6) 
1

$$$$

     RDKit          3D

 60 63  0  0  0  0  0  0  0  0999 V2000
  138.5390   76.3070  222.7470 C   0  0  0  0  0  0  0  0  0  0  0  0
  139.1240   75.5470  221.6590 N   0  0  0  0  0  0  0  0  0  0  0  0
  138.2480   74.9340  220.6790 C   0  0  0  0  0  0  0  0  0  0  0  0
  138.2330   73.4390  220.7060 C   0  0  0  0  0  0  0  0  0  0  0  0
  138.7220   72.9660  221.9710 N   0  0  0  0  0  0  0  0  0  0  0  0
  138.6410   71.5490  222.2060 C   0  0  0  0  0  0  0  0  0  0  0  0
  138.1420   70.8750  221.2660 O   0  0  0  0  0  0  0  0  0  0  0  0
  139.1050   70.9440  223.4480 C   0  0  0  0  0  0  0  0  0  0  0  0
  138.9270   69.5860  223.5940 C   0  0  0  0  0  0  0  0  0  0  0  0
  139.3460   68.9460  224.7510 C   0  0  0  0  0  0  0  0  0  0  0  0
  139.9320   69.7140  225.7150 C   0  0  0  0  0  0  0  0  0  0  0  0
  140.3540   69.0940  226.8730 C   0  0  0  0  0  0  0  0  0  0  0  0
  140.9410   69.8440  227.8490 C   0  0  0  0  0  0  0  0  0  0  0  0
  141.3730   69.2620  229.0110 F   0  0  0  0  0  0  0  0  0  0  0  0
  141.1200   71.2080  227.7000 C   0  0  0  0  0  0  0  0  0  0  0  0
  140.7050   71.8630  226.5470 C   0  0  0  0  0  0  0  0  0  0  0  0
  140.1160   71.0840  225.5780 C   0  0  0  0  0  0  0  0  0  0  0  0
  139.6870   71.6550  224.4280 N   0  0  0  0  0  0  0  0  0  0  0  0
  140.5260   75.3530  221.5050 C   0  0  0  0  0  0  0  0  0  0  0  0
  141.0520   74.2790  221.9940 O   0  0  0  0  0  0  0  0  0  0  0  0
  141.4510   76.2600  220.8370 C   0  0  1  0  0  0  0  0  0  0  0  0
  142.7160   75.5810  220.3500 C   0  0  0  0  0  0  0  0  0  0  0  0
  142.3820   75.3180  218.8750 C   0  0  2  0  0  0  0  0  0  0  0  0
  143.5670   75.1950  218.1430 O   0  0  0  0  0  0  0  0  0  0  0  0
  141.6600   76.5980  218.5340 C   0  0  0  0  0  0  0  0  0  0  0  0
  140.9780   77.0020  219.7240 N   0  0  0  0  0  0  0  0  0  0  0  0
  140.9850   78.7020  219.9500 S   0  0  0  0  0  0  0  0  0  0  0  0
  142.0000   79.2860  218.9930 O   0  0  0  0  0  0  0  0  0  0  0  0
  139.6850   79.3450  219.6660 O   0  0  0  0  0  0  0  0  0  0  0  0
  141.4830   79.1760  221.5600 C   0  0  0  0  0  0  0  0  0  0  0  0
  140.9480   78.6150  222.7050 C   0  0  0  0  0  0  0  0  0  0  0  0
  141.3400   78.9860  223.9750 C   0  0  0  0  0  0  0  0  0  0  0  0
  142.3060   79.9590  224.1170 C   0  0  0  0  0  0  0  0  0  0  0  0
  142.8350   80.5160  222.9750 C   0  0  0  0  0  0  0  0  0  0  0  0
  142.4600   80.1600  221.7100 C   0  0  0  0  0  0  0  0  0  0  0  0
  138.8656   75.8826  223.7078 H   0  0  0  0  0  0  0  0  0  0  0  0
  138.8656   77.3552  222.6792 H   0  0  0  0  0  0  0  0  0  0  0  0
  137.4421   76.2596  222.6792 H   0  0  0  0  0  0  0  0  0  0  0  0
  137.2239   75.2907  220.8635 H   0  0  0  0  0  0  0  0  0  0  0  0
  138.6346   75.2240  219.6908 H   0  0  0  0  0  0  0  0  0  0  0  0
  137.2032   73.0822  220.5570 H   0  0  0  0  0  0  0  0  0  0  0  0
  138.8800   73.0567  219.9027 H   0  0  0  0  0  0  0  0  0  0  0  0
  139.1300   73.5360  222.7320 H   0  0  0  0  0  0  0  0  0  0  0  0
  138.4505   69.0065  222.7895 H   0  0  0  0  0  0  0  0  0  0  0  0
  139.2113   67.8627  224.8862 H   0  0  0  0  0  0  0  0  0  0  0  0
  140.2190   68.0106  227.0070 H   0  0  0  0  0  0  0  0  0  0  0  0
  141.5982   71.7827  228.5069 H   0  0  0  0  0  0  0  0  0  0  0  0
  140.8402   72.9468  226.4159 H   0  0  0  0  0  0  0  0  0  0  0  0
  141.6223   76.9614  221.6669 H   0  0  0  0  0  0  0  0  0  0  0  0
  143.5898   76.2415  220.4514 H   0  0  0  0  0  0  0  0  0  0  0  0
  142.9820   74.6756  220.9152 H   0  0  0  0  0  0  0  0  0  0  0  0
  141.8066   74.4037  218.6676 H   0  0  0  0  0  0  0  0  0  0  0  0
  144.3100   75.5480  218.7010 H   0  0  0  0  0  0  0  0  0  0  0  0
  142.3795   77.3710  218.2261 H   0  0  0  0  0  0  0  0  0  0  0  0
  140.9576   76.4515  217.7002 H   0  0  0  0  0  0  0  0  0  0  0  0
  140.1759   77.8388  222.5988 H   0  0  0  0  0  0  0  0  0  0  0  0
  140.8889   78.5129  224.8597 H   0  0  0  0  0  0  0  0  0  0  0  0
  142.6439   80.2806  225.1132 H   0  0  0  0  0  0  0  0  0  0  0  0
  143.6050   81.2935  223.0871 H   0  0  0  0  0  0  0  0  0  0  0  0
  142.9177   80.6380  220.8313 H   0  0  0  0  0  0  0  0  0  0  0  0
  1  2  1  0
  2  3  1  0
  3  4  1  0
  4  5  1  0
  5  6  1  0
  6  7  2  0
  6  8  1  0
  8  9  2  0
  9 10  1  0
 10 11  2  0
 11 12  1  0
 12 13  2  0
 13 14  1  0
 13 15  1  0
 15 16  2  0
 16 17  1  0
 17 18  2  0
  2 19  1  0
 19 20  2  0
 19 21  1  0
 21 22  1  0
 22 23  1  0
 23 24  1  0
 23 25  1  0
 25 26  1  0
 26 27  1  0
 27 28  2  0
 27 29  2  0
 27 30  1  0
 30 31  2  0
 31 32  1  0
 32 33  2  0
 33 34  1  0
 34 35  2  0
 18  8  1  0
 26 21  1  0
 35 30  1  0
 17 11  1  0
  1 36  1  0
  1 37  1  0
  1 38  1  0
  3 39  1  0
  3 40  1  0
  4 41  1  0
  4 42  1  0
  5 43  1  0
  9 44  1  0
 10 45  1  0
 12 46  1  0
 15 47  1  0
 16 48  1  0
 21 49  1  1
 22 50  1  0
 22 51  1  0
 23 52  1  1
 24 53  1  0
 25 54  1  0
 25 55  1  0
 31 56  1  0
 32 57  1  0
 33 58  1  0
 34 59  1  0
 35 60  1  0
M  END
>  <smiles>  (7) 
CN(CCNC(=O)c1ccc2cc(F)ccc2n1)C(=O)[C@H]1C[C@H](O)CN1S(=O)(=O)c1ccccc1

>  <score_type>  (7) 
oracle

>  <origin>  (7) 
autodockgpu

>  <m_score__min__energy>  (7) 
-9.1999999999999993

>  <m_primary>  (7) 
energy

>  <rmsd>  (7) 
2.3423067433305187

>  <m_score__min__rmsd>  (7) 
2.3423067433305187

>  <meeko>  (7) 
{"free_energy": -8.4, "intermolecular_energy": -11.09, "internal_energy": -2.83, "cluster_size": 10, "cluster_id": 2, "rank_in_cluster": 7}

>  <energy>  (7) 
-8.75

>  <cluster_rmsd>  (7) 
1.85

>  <cluster>  (7) 
1

$$$$

     RDKit          3D

 60 63  0  0  0  0  0  0  0  0999 V2000
  135.5830   69.8080  220.1040 C   0  0  0  0  0  0  0  0  0  0  0  0
  135.0880   68.5230  220.5600 N   0  0  0  0  0  0  0  0  0  0  0  0
  135.8000   67.3190  220.1770 C   0  0  0  0  0  0  0  0  0  0  0  0
  136.5040   66.6270  221.3010 C   0  0  0  0  0  0  0  0  0  0  0  0
  136.9680   67.5930  222.2580 N   0  0  0  0  0  0  0  0  0  0  0  0
  138.3130   67.4270  222.7410 C   0  0  0  0  0  0  0  0  0  0  0  0
  138.9380   66.4420  222.2680 O   0  0  0  0  0  0  0  0  0  0  0  0
  138.9020   68.3400  223.7120 C   0  0  0  0  0  0  0  0  0  0  0  0
  139.1860   69.6180  223.2850 C   0  0  0  0  0  0  0  0  0  0  0  0
  139.7470   70.5400  224.1560 C   0  0  0  0  0  0  0  0  0  0  0  0
  139.9970   70.1240  225.4330 C   0  0  0  0  0  0  0  0  0  0  0  0
  140.5550   71.0270  226.3140 C   0  0  0  0  0  0  0  0  0  0  0  0
  140.8120   70.6300  227.5930 C   0  0  0  0  0  0  0  0  0  0  0  0
  141.3650   71.5000  228.4950 F   0  0  0  0  0  0  0  0  0  0  0  0
  140.5260   69.3460  228.0210 C   0  0  0  0  0  0  0  0  0  0  0  0
  139.9640   68.4130  227.1580 C   0  0  0  0  0  0  0  0  0  0  0  0
  139.7150   68.8370  225.8740 C   0  0  0  0  0  0  0  0  0  0  0  0
  139.1680   67.9810  224.9800 N   0  0  0  0  0  0  0  0  0  0  0  0
  133.9190   68.3740  221.3580 C   0  0  0  0  0  0  0  0  0  0  0  0
  132.9050   67.7550  220.8480 O   0  0  0  0  0  0  0  0  0  0  0  0
  133.7420   68.8550  222.7220 C   0  0  1  0  0  0  0  0  0  0  0  0
  132.3530   68.6070  223.2750 C   0  0  0  0  0  0  0  0  0  0  0  0
  132.5630   67.3160  224.0790 C   0  0  2  0  0  0  0  0  0  0  0  0
  131.5770   67.2160  225.0670 O   0  0  0  0  0  0  0  0  0  0  0  0
  133.9160   67.5960  224.6840 C   0  0  0  0  0  0  0  0  0  0  0  0
  134.6290   68.3790  223.7220 N   0  0  0  0  0  0  0  0  0  0  0  0
  135.6020   69.5930  224.4440 S   0  0  0  0  0  0  0  0  0  0  0  0
  136.6140   68.9020  225.3300 O   0  0  0  0  0  0  0  0  0  0  0  0
  136.3520   70.4110  223.4680 O   0  0  0  0  0  0  0  0  0  0  0  0
  134.6910   70.6770  225.4730 C   0  0  0  0  0  0  0  0  0  0  0  0
  134.2340   71.9100  225.0440 C   0  0  0  0  0  0  0  0  0  0  0  0
  133.5150   72.7650  225.8530 C   0  0  0  0  0  0  0  0  0  0  0  0
  133.2360   72.3820  227.1480 C   0  0  0  0  0  0  0  0  0  0  0  0
  133.6940   71.1550  227.5710 C   0  0  0  0  0  0  0  0  0  0  0  0
  134.4060   70.2940  226.7840 C   0  0  0  0  0  0  0  0  0  0  0  0
  135.8253   70.4370  220.9733 H   0  0  0  0  0  0  0  0  0  0  0  0
  136.4876   69.6579  219.4965 H   0  0  0  0  0  0  0  0  0  0  0  0
  134.8114   70.3036  219.4965 H   0  0  0  0  0  0  0  0  0  0  0  0
  135.0750   66.6156  219.7416 H   0  0  0  0  0  0  0  0  0  0  0  0
  136.5795   67.6308  219.4662 H   0  0  0  0  0  0  0  0  0  0  0  0
  135.8086   65.9313  221.7933 H   0  0  0  0  0  0  0  0  0  0  0  0
  137.3653   66.0720  220.9009 H   0  0  0  0  0  0  0  0  0  0  0  0
  136.4390   68.3970  222.6350 H   0  0  0  0  0  0  0  0  0  0  0  0
  138.9667   69.9092  222.2472 H   0  0  0  0  0  0  0  0  0  0  0  0
  139.9811   71.5647  223.8317 H   0  0  0  0  0  0  0  0  0  0  0  0
  140.7891   72.0517  225.9897 H   0  0  0  0  0  0  0  0  0  0  0  0
  140.7467   69.0593  229.0598 H   0  0  0  0  0  0  0  0  0  0  0  0
  139.7306   67.3890  227.4850 H   0  0  0  0  0  0  0  0  0  0  0  0
  133.9602   69.9194  222.5506 H   0  0  0  0  0  0  0  0  0  0  0  0
  132.0259   69.4338  223.9226 H   0  0  0  0  0  0  0  0  0  0  0  0
  131.5727   68.5302  222.5034 H   0  0  0  0  0  0  0  0  0  0  0  0
  132.5084   66.3785  223.5062 H   0  0  0  0  0  0  0  0  0  0  0  0
  131.1500   68.1080  225.1650 H   0  0  0  0  0  0  0  0  0  0  0  0
  133.8048   68.1558  225.6243 H   0  0  0  0  0  0  0  0  0  0  0  0
  134.4511   66.6639  224.9181 H   0  0  0  0  0  0  0  0  0  0  0  0
  134.4536   72.2224  224.0124 H   0  0  0  0  0  0  0  0  0  0  0  0
  133.1696   73.7371  225.4712 H   0  0  0  0  0  0  0  0  0  0  0  0
  132.6649   73.0371  227.8223 H   0  0  0  0  0  0  0  0  0  0  0  0
  133.4738   70.8490  228.6044 H   0  0  0  0  0  0  0  0  0  0  0  0
  134.7459   69.3234  227.1743 H   0  0  0  0  0  0  0  0  0  0  0  0
  1  2  1  0
  2  3  1  0
  3  4  1  0
  4  5  1  0
  5  6  1  0
  6  7  2  0
  6  8  1  0
  8  9  2  0
  9 10  1  0
 10 11  2  0
 11 12  1  0
 12 13  2  0
 13 14  1  0
 13 15  1  0
 15 16  2  0
 16 17  1  0
 17 18  2  0
  2 19  1  0
 19 20  2  0
 19 21  1  0
 21 22  1  0
 22 23  1  0
 23 24  1  0
 23 25  1  0
 25 26  1  0
 26 27  1  0
 27 28  2  0
 27 29  2  0
 27 30  1  0
 30 31  2  0
 31 32  1  0
 32 33  2  0
 33 34  1  0
 34 35  2  0
 18  8  1  0
 26 21  1  0
 35 30  1  0
 17 11  1  0
  1 36  1  0
  1 37  1  0
  1 38  1  0
  3 39  1  0
  3 40  1  0
  4 41  1  0
  4 42  1  0
  5 43  1  0
  9 44  1  0
 10 45  1  0
 12 46  1  0
 15 47  1  0
 16 48  1  0
 21 49  1  6
 22 50  1  0
 22 51  1  0
 23 52  1  6
 24 53  1  0
 25 54  1  0
 25 55  1  0
 31 56  1  0
 32 57  1  0
 33 58  1  0
 34 59  1  0
 35 60  1  0
M  END
>  <smiles>  (8) 
CN(CCNC(=O)c1ccc2cc(F)ccc2n1)C(=O)[C@H]1C[C@H](O)CN1S(=O)(=O)c1ccccc1

>  <score_type>  (8) 
oracle

>  <origin>  (8) 
autodockgpu

>  <m_score__min__energy>  (8) 
-9.1999999999999993

>  <m_primary>  (8) 
energy

>  <rmsd>  (8) 
7.503188790061993

>  <m_score__min__rmsd>  (8) 
7.503188790061993

>  <meeko>  (8) 
{"free_energy": -6.1, "intermolecular_energy": -8.79, "internal_energy": -4.48, "cluster_size": 1, "cluster_id": 15, "rank_in_cluster": 1}

>  <energy>  (8) 
-8.74

>  <cluster_rmsd>  (8) 
1.0

>  <cluster>  (8) 
1

$$$$

     RDKit          3D

 60 63  0  0  0  0  0  0  0  0999 V2000
  138.3850   76.8520  222.3650 C   0  0  0  0  0  0  0  0  0  0  0  0
  138.9840   75.7130  221.6970 N   0  0  0  0  0  0  0  0  0  0  0  0
  138.1200   74.7140  221.0980 C   0  0  0  0  0  0  0  0  0  0  0  0
  138.7520   73.3700  220.9170 C   0  0  0  0  0  0  0  0  0  0  0  0
  139.0500   72.7920  222.1970 N   0  0  0  0  0  0  0  0  0  0  0  0
  139.0310   71.3550  222.2760 C   0  0  0  0  0  0  0  0  0  0  0  0
  138.7510   70.7600  221.2030 O   0  0  0  0  0  0  0  0  0  0  0  0
  139.3170   70.6470  223.5180 C   0  0  0  0  0  0  0  0  0  0  0  0
  138.9520   69.3200  223.5860 C   0  0  0  0  0  0  0  0  0  0  0  0
  139.1950   68.5860  224.7370 C   0  0  0  0  0  0  0  0  0  0  0  0
  139.8020   69.2300  225.7760 C   0  0  0  0  0  0  0  0  0  0  0  0
  140.0510   68.5160  226.9290 C   0  0  0  0  0  0  0  0  0  0  0  0
  140.6560   69.1430  227.9780 C   0  0  0  0  0  0  0  0  0  0  0  0
  140.9200   68.4640  229.1380 F   0  0  0  0  0  0  0  0  0  0  0  0
  141.0230   70.4750  227.9080 C   0  0  0  0  0  0  0  0  0  0  0  0
  140.7850   71.2230  226.7610 C   0  0  0  0  0  0  0  0  0  0  0  0
  140.1740   70.5680  225.7180 C   0  0  0  0  0  0  0  0  0  0  0  0
  139.9120   71.2350  224.5690 N   0  0  0  0  0  0  0  0  0  0  0  0
  140.3900   75.5080  221.6080 C   0  0  0  0  0  0  0  0  0  0  0  0
  140.8930   74.4600  222.1730 O   0  0  0  0  0  0  0  0  0  0  0  0
  141.3440   76.3770  220.9300 C   0  0  1  0  0  0  0  0  0  0  0  0
  142.5770   75.6480  220.4330 C   0  0  0  0  0  0  0  0  0  0  0  0
  142.2190   75.3960  218.9610 C   0  0  2  0  0  0  0  0  0  0  0  0
  143.3920   75.2250  218.2190 O   0  0  0  0  0  0  0  0  0  0  0  0
  141.5450   76.7020  218.6240 C   0  0  0  0  0  0  0  0  0  0  0  0
  140.8900   77.1350  219.8200 N   0  0  0  0  0  0  0  0  0  0  0  0
  140.9660   78.8340  220.0420 S   0  0  0  0  0  0  0  0  0  0  0  0
  141.9780   79.3790  219.0590 O   0  0  0  0  0  0  0  0  0  0  0  0
  139.6840   79.5240  219.7890 O   0  0  0  0  0  0  0  0  0  0  0  0
  141.5210   79.2900  221.6380 C   0  0  0  0  0  0  0  0  0  0  0  0
  142.5650   80.1730  221.8450 C   0  0  0  0  0  0  0  0  0  0  0  0
  143.0030   80.5350  223.1020 C   0  0  0  0  0  0  0  0  0  0  0  0
  142.3780   79.9960  224.2070 C   0  0  0  0  0  0  0  0  0  0  0  0
  141.3400   79.1160  223.9970 C   0  0  0  0  0  0  0  0  0  0  0  0
  140.8920   78.7470  222.7600 C   0  0  0  0  0  0  0  0  0  0  0  0
  138.4559   76.7171  223.4544 H   0  0  0  0  0  0  0  0  0  0  0  0
  138.9172   77.7695  222.0737 H   0  0  0  0  0  0  0  0  0  0  0  0
  137.3274   76.9334  222.0737 H   0  0  0  0  0  0  0  0  0  0  0  0
  137.2368   74.5936  221.7426 H   0  0  0  0  0  0  0  0  0  0  0  0
  137.8730   75.0800  220.0905 H   0  0  0  0  0  0  0  0  0  0  0  0
  138.0591   72.7118  220.3724 H   0  0  0  0  0  0  0  0  0  0  0  0
  139.6851   73.4834  220.3456 H   0  0  0  0  0  0  0  0  0  0  0  0
  139.2790   73.2980  223.0700 H   0  0  0  0  0  0  0  0  0  0  0  0
  138.4657   68.8409  222.7234 H   0  0  0  0  0  0  0  0  0  0  0  0
  138.9097   67.5261  224.8098 H   0  0  0  0  0  0  0  0  0  0  0  0
  139.7658   67.4561  227.0016 H   0  0  0  0  0  0  0  0  0  0  0  0
  141.5103   70.9491  228.7728 H   0  0  0  0  0  0  0  0  0  0  0  0
  141.0704   72.2830  226.6914 H   0  0  0  0  0  0  0  0  0  0  0  0
  141.5506   77.0725  221.7568 H   0  0  0  0  0  0  0  0  0  0  0  0
  143.4769   76.2738  220.5251 H   0  0  0  0  0  0  0  0  0  0  0  0
  142.8126   74.7338  220.9976 H   0  0  0  0  0  0  0  0  0  0  0  0
  141.6058   74.5051  218.7604 H   0  0  0  0  0  0  0  0  0  0  0  0
  144.0820   75.8380  218.5890 H   0  0  0  0  0  0  0  0  0  0  0  0
  142.2914   77.4455  218.3077 H   0  0  0  0  0  0  0  0  0  0  0  0
  140.8297   76.5816  217.7971 H   0  0  0  0  0  0  0  0  0  0  0  0
  143.0686   80.6060  220.9682 H   0  0  0  0  0  0  0  0  0  0  0  0
  143.8372   81.2421  223.2211 H   0  0  0  0  0  0  0  0  0  0  0  0
  142.6990   80.2611  225.2252 H   0  0  0  0  0  0  0  0  0  0  0  0
  140.8417   78.6843  224.8775 H   0  0  0  0  0  0  0  0  0  0  0  0
  140.0566   78.0398  222.6509 H   0  0  0  0  0  0  0  0  0  0  0  0
  1  2  1  0
  2  3  1  0
  3  4  1  0
  4  5  1  0
  5  6  1  0
  6  7  2  0
  6  8  1  0
  8  9  2  0
  9 10  1  0
 10 11  2  0
 11 12  1  0
 12 13  2  0
 13 14  1  0
 13 15  1  0
 15 16  2  0
 16 17  1  0
 17 18  2  0
  2 19  1  0
 19 20  2  0
 19 21  1  0
 21 22  1  0
 22 23  1  0
 23 24  1  0
 23 25  1  0
 25 26  1  0
 26 27  1  0
 27 28  2  0
 27 29  2  0
 27 30  1  0
 30 31  2  0
 31 32  1  0
 32 33  2  0
 33 34  1  0
 34 35  2  0
 18  8  1  0
 26 21  1  0
 35 30  1  0
 17 11  1  0
  1 36  1  0
  1 37  1  0
  1 38  1  0
  3 39  1  0
  3 40  1  0
  4 41  1  0
  4 42  1  0
  5 43  1  0
  9 44  1  0
 10 45  1  0
 12 46  1  0
 15 47  1  0
 16 48  1  0
 21 49  1  1
 22 50  1  0
 22 51  1  0
 23 52  1  1
 24 53  1  0
 25 54  1  0
 25 55  1  0
 31 56  1  0
 32 57  1  0
 33 58  1  0
 34 59  1  0
 35 60  1  0
M  END
>  <smiles>  (9) 
CN(CCNC(=O)c1ccc2cc(F)ccc2n1)C(=O)[C@H]1C[C@H](O)CN1S(=O)(=O)c1ccccc1

>  <score_type>  (9) 
oracle

>  <origin>  (9) 
autodockgpu

>  <m_score__min__energy>  (9) 
-9.1999999999999993

>  <m_primary>  (9) 
energy

>  <rmsd>  (9) 
2.2811626230237194

>  <m_score__min__rmsd>  (9) 
2.2811626230237194

>  <meeko>  (9) 
{"free_energy": -8.69, "intermolecular_energy": -11.38, "internal_energy": -2.42, "cluster_size": 10, "cluster_id": 2, "rank_in_cluster": 3}

>  <energy>  (9) 
-8.73

>  <cluster_rmsd>  (9) 
1.31

>  <cluster>  (9) 
1

$$$$

     RDKit          3D

 60 63  0  0  0  0  0  0  0  0999 V2000
  139.8380   73.0350  219.1420 C   0  0  0  0  0  0  0  0  0  0  0  0
  139.3260   73.7020  220.3240 N   0  0  0  0  0  0  0  0  0  0  0  0
  137.8930   73.8760  220.4690 C   0  0  0  0  0  0  0  0  0  0  0  0
  137.1910   72.7320  221.1300 C   0  0  0  0  0  0  0  0  0  0  0  0
  137.8950   72.3450  222.3190 N   0  0  0  0  0  0  0  0  0  0  0  0
  137.8900   70.9430  222.6450 C   0  0  0  0  0  0  0  0  0  0  0  0
  137.2590   70.2060  221.8430 O   0  0  0  0  0  0  0  0  0  0  0  0
  138.5690   70.4220  223.8240 C   0  0  0  0  0  0  0  0  0  0  0  0
  138.5300   69.0600  224.0250 C   0  0  0  0  0  0  0  0  0  0  0  0
  139.1560   68.4960  225.1270 C   0  0  0  0  0  0  0  0  0  0  0  0
  139.8000   69.3420  225.9830 C   0  0  0  0  0  0  0  0  0  0  0  0
  140.4280   68.8000  227.0850 C   0  0  0  0  0  0  0  0  0  0  0  0
  141.0760   69.6290  227.9520 C   0  0  0  0  0  0  0  0  0  0  0  0
  141.7110   69.1250  229.0560 F   0  0  0  0  0  0  0  0  0  0  0  0
  141.1150   70.9970  227.7490 C   0  0  0  0  0  0  0  0  0  0  0  0
  140.4910   71.5750  226.6490 C   0  0  0  0  0  0  0  0  0  0  0  0
  139.8450   70.7180  225.7910 C   0  0  0  0  0  0  0  0  0  0  0  0
  139.2160   71.2110  224.6980 N   0  0  0  0  0  0  0  0  0  0  0  0
  140.1620   74.2170  221.3550 C   0  0  0  0  0  0  0  0  0  0  0  0
  140.4450   73.4490  222.3540 O   0  0  0  0  0  0  0  0  0  0  0  0
  140.7470   75.5510  221.4000 C   0  0  1  0  0  0  0  0  0  0  0  0
  142.1520   75.6140  220.8350 C   0  0  0  0  0  0  0  0  0  0  0  0
  141.8920   76.1060  219.4040 C   0  0  2  0  0  0  0  0  0  0  0  0
  143.0440   76.7220  218.9050 O   0  0  0  0  0  0  0  0  0  0  0  0
  140.8020   77.1150  219.6640 C   0  0  0  0  0  0  0  0  0  0  0  0
  140.0470   76.6130  220.7710 N   0  0  0  0  0  0  0  0  0  0  0  0
  139.5290   77.8520  221.8380 S   0  0  0  0  0  0  0  0  0  0  0  0
  138.5640   78.7350  221.0800 O   0  0  0  0  0  0  0  0  0  0  0  0
  138.8230   77.3480  223.0350 O   0  0  0  0  0  0  0  0  0  0  0  0
  140.8370   78.8830  222.3750 C   0  0  0  0  0  0  0  0  0  0  0  0
  141.5130   79.7400  221.5260 C   0  0  0  0  0  0  0  0  0  0  0  0
  142.5440   80.5540  221.9480 C   0  0  0  0  0  0  0  0  0  0  0  0
  142.9240   80.5180  223.2730 C   0  0  0  0  0  0  0  0  0  0  0  0
  142.2490   79.6620  224.1140 C   0  0  0  0  0  0  0  0  0  0  0  0
  141.2260   78.8490  223.7150 C   0  0  0  0  0  0  0  0  0  0  0  0
  140.4820   72.1961  219.4444 H   0  0  0  0  0  0  0  0  0  0  0  0
  138.9977   72.6547  218.5426 H   0  0  0  0  0  0  0  0  0  0  0  0
  140.4226   73.7485  218.5426 H   0  0  0  0  0  0  0  0  0  0  0  0
  137.7161   74.7804  221.0696 H   0  0  0  0  0  0  0  0  0  0  0  0
  137.4828   73.9475  219.4509 H   0  0  0  0  0  0  0  0  0  0  0  0
  136.1679   73.0368  221.3954 H   0  0  0  0  0  0  0  0  0  0  0  0
  137.1581   71.8791  220.4361 H   0  0  0  0  0  0  0  0  0  0  0  0
  138.4100   72.9660  222.9670 H   0  0  0  0  0  0  0  0  0  0  0  0
  137.9997   68.4161  223.3079 H   0  0  0  0  0  0  0  0  0  0  0  0
  139.1343   67.4105  225.3039 H   0  0  0  0  0  0  0  0  0  0  0  0
  140.4063   67.7145  227.2618 H   0  0  0  0  0  0  0  0  0  0  0  0
  141.6474   71.6367  228.4682 H   0  0  0  0  0  0  0  0  0  0  0  0
  140.5133   72.6609  226.4749 H   0  0  0  0  0  0  0  0  0  0  0  0
  140.7056   75.7120  222.4874 H   0  0  0  0  0  0  0  0  0  0  0  0
  142.7778   76.3242  221.3954 H   0  0  0  0  0  0  0  0  0  0  0  0
  142.6965   74.6596  220.8864 H   0  0  0  0  0  0  0  0  0  0  0  0
  141.6266   75.3310  218.6699 H   0  0  0  0  0  0  0  0  0  0  0  0
  143.3280   77.4150  219.5590 H   0  0  0  0  0  0  0  0  0  0  0  0
  141.2396   78.0929  219.9134 H   0  0  0  0  0  0  0  0  0  0  0  0
  140.1667   77.2553  218.7770 H   0  0  0  0  0  0  0  0  0  0  0  0
  141.2156   79.7743  220.4675 H   0  0  0  0  0  0  0  0  0  0  0  0
  143.0549   81.2214  221.2384 H   0  0  0  0  0  0  0  0  0  0  0  0
  143.7408   81.1532  223.6464 H   0  0  0  0  0  0  0  0  0  0  0  0
  142.5516   79.6308  225.1711 H   0  0  0  0  0  0  0  0  0  0  0  0
  140.7216   78.1843  224.4318 H   0  0  0  0  0  0  0  0  0  0  0  0
  1  2  1  0
  2  3  1  0
  3  4  1  0
  4  5  1  0
  5  6  1  0
  6  7  2  0
  6  8  1  0
  8  9  2  0
  9 10  1  0
 10 11  2  0
 11 12  1  0
 12 13  2  0
 13 14  1  0
 13 15  1  0
 15 16  2  0
 16 17  1  0
 17 18  2  0
  2 19  1  0
 19 20  2  0
 19 21  1  0
 21 22  1  0
 22 23  1  0
 23 24  1  0
 23 25  1  0
 25 26  1  0
 26 27  1  0
 27 28  2  0
 27 29  2  0
 27 30  1  0
 30 31  2  0
 31 32  1  0
 32 33  2  0
 33 34  1  0
 34 35  2  0
 18  8  1  0
 26 21  1  0
 35 30  1  0
 17 11  1  0
  1 36  1  0
  1 37  1  0
  1 38  1  0
  3 39  1  0
  3 40  1  0
  4 41  1  0
  4 42  1  0
  5 43  1  0
  9 44  1  0
 10 45  1  0
 12 46  1  0
 15 47  1  0
 16 48  1  0
 21 49  1  1
 22 50  1  0
 22 51  1  0
 23 52  1  6
 24 53  1  0
 25 54  1  0
 25 55  1  0
 31 56  1  0
 32 57  1  0
 33 58  1  0
 34 59  1  0
 35 60  1  0
M  END
>  <smiles>  (10) 
CN(CCNC(=O)c1ccc2cc(F)ccc2n1)C(=O)[C@H]1C[C@H](O)CN1S(=O)(=O)c1ccccc1

>  <score_type>  (10) 
oracle

>  <origin>  (10) 
autodockgpu

>  <m_score__min__energy>  (10) 
-9.1999999999999993

>  <m_primary>  (10) 
energy

>  <rmsd>  (10) 
2.268209621653372

>  <m_score__min__rmsd>  (10) 
2.268209621653372

>  <meeko>  (10) 
{"free_energy": -8.48, "intermolecular_energy": -11.17, "internal_energy": -2.87, "cluster_size": 14, "cluster_id": 1, "rank_in_cluster": 11}

>  <energy>  (10) 
-8.56

>  <cluster_rmsd>  (10) 
1.11

>  <cluster>  (10) 
1

$$$$

     RDKit          3D

 60 63  0  0  0  0  0  0  0  0999 V2000
  142.2590   72.3170  220.8720 C   0  0  0  0  0  0  0  0  0  0  0  0
  141.6520   73.3700  220.0800 N   0  0  0  0  0  0  0  0  0  0  0  0
  140.2370   73.2900  219.7680 C   0  0  0  0  0  0  0  0  0  0  0  0
  139.3380   73.9030  220.7940 C   0  0  0  0  0  0  0  0  0  0  0  0
  139.5710   73.2980  222.0760 N   0  0  0  0  0  0  0  0  0  0  0  0
  139.2920   71.8900  222.1850 C   0  0  0  0  0  0  0  0  0  0  0  0
  138.8680   71.3420  221.1350 O   0  0  0  0  0  0  0  0  0  0  0  0
  139.4880   71.1600  223.4310 C   0  0  0  0  0  0  0  0  0  0  0  0
  139.0440   69.8570  223.4750 C   0  0  0  0  0  0  0  0  0  0  0  0
  139.2000   69.1020  224.6280 C   0  0  0  0  0  0  0  0  0  0  0  0
  139.8040   69.7050  225.6940 C   0  0  0  0  0  0  0  0  0  0  0  0
  139.9670   68.9700  226.8500 C   0  0  0  0  0  0  0  0  0  0  0  0
  140.5670   69.5540  227.9260 C   0  0  0  0  0  0  0  0  0  0  0  0
  140.7460   68.8550  229.0900 F   0  0  0  0  0  0  0  0  0  0  0  0
  141.0130   70.8630  227.8810 C   0  0  0  0  0  0  0  0  0  0  0  0
  140.8640   71.6300  226.7310 C   0  0  0  0  0  0  0  0  0  0  0  0
  140.2550   71.0180  225.6610 C   0  0  0  0  0  0  0  0  0  0  0  0
  140.0760   71.7060  224.5090 N   0  0  0  0  0  0  0  0  0  0  0  0
  142.3790   74.4830  219.5700 C   0  0  0  0  0  0  0  0  0  0  0  0
  143.1610   74.2920  218.5600 O   0  0  0  0  0  0  0  0  0  0  0  0
  142.3290   75.8480  220.0800 C   0  0  1  0  0  0  0  0  0  0  0  0
  143.3370   76.7730  219.4260 C   0  0  0  0  0  0  0  0  0  0  0  0
  142.4790   77.4630  218.3560 C   0  0  2  0  0  0  0  0  0  0  0  0
  143.0560   78.6910  218.0160 O   0  0  0  0  0  0  0  0  0  0  0  0
  141.1970   77.6570  219.1270 C   0  0  0  0  0  0  0  0  0  0  0  0
  141.0940   76.5430  220.0190 N   0  0  0  0  0  0  0  0  0  0  0  0
  140.4460   76.9730  221.5470 S   0  0  0  0  0  0  0  0  0  0  0  0
  139.0100   77.3970  221.3320 O   0  0  0  0  0  0  0  0  0  0  0  0
  140.4400   75.8630  222.5230 O   0  0  0  0  0  0  0  0  0  0  0  0
  141.2670   78.3340  222.2800 C   0  0  0  0  0  0  0  0  0  0  0  0
  141.6980   79.4290  221.5530 C   0  0  0  0  0  0  0  0  0  0  0  0
  142.3450   80.5030  222.1300 C   0  0  0  0  0  0  0  0  0  0  0  0
  142.5760   80.4920  223.4890 C   0  0  0  0  0  0  0  0  0  0  0  0
  142.1460   79.4000  224.2080 C   0  0  0  0  0  0  0  0  0  0  0  0
  141.5040   78.3280  223.6550 C   0  0  0  0  0  0  0  0  0  0  0  0
  142.1297   72.5414  221.9411 H   0  0  0  0  0  0  0  0  0  0  0  0
  141.7757   71.3570  220.6377 H   0  0  0  0  0  0  0  0  0  0  0  0
  143.3319   72.2541  220.6377 H   0  0  0  0  0  0  0  0  0  0  0  0
  140.0669   73.8051  218.8110 H   0  0  0  0  0  0  0  0  0  0  0  0
  139.9855   72.2197  219.7324 H   0  0  0  0  0  0  0  0  0  0  0  0
  139.5411   74.9822  220.8582 H   0  0  0  0  0  0  0  0  0  0  0  0
  138.2906   73.7372  220.5016 H   0  0  0  0  0  0  0  0  0  0  0  0
  139.9210   73.7660  222.9290 H   0  0  0  0  0  0  0  0  0  0  0  0
  138.5631   69.4127  222.5910 H   0  0  0  0  0  0  0  0  0  0  0  0
  138.8514   68.0601  224.6816 H   0  0  0  0  0  0  0  0  0  0  0  0
  139.6180   67.9282  226.9029 H   0  0  0  0  0  0  0  0  0  0  0  0
  141.4924   71.3032  228.7678 H   0  0  0  0  0  0  0  0  0  0  0  0
  141.2148   72.6713  226.6799 H   0  0  0  0  0  0  0  0  0  0  0  0
  142.5492   75.6379  221.1371 H   0  0  0  0  0  0  0  0  0  0  0  0
  143.7404   77.4998  220.1464 H   0  0  0  0  0  0  0  0  0  0  0  0
  144.2214   76.2568  219.0242 H   0  0  0  0  0  0  0  0  0  0  0  0
  142.3598   76.9162  217.4090 H   0  0  0  0  0  0  0  0  0  0  0  0
  143.5700   78.5650  217.1740 H   0  0  0  0  0  0  0  0  0  0  0  0
  141.2327   78.5982  219.6952 H   0  0  0  0  0  0  0  0  0  0  0  0
  140.3291   77.7122  218.4534 H   0  0  0  0  0  0  0  0  0  0  0  0
  141.5173   79.4445  220.4681 H   0  0  0  0  0  0  0  0  0  0  0  0
  142.6713   81.3546  221.5149 H   0  0  0  0  0  0  0  0  0  0  0  0
  143.0883   81.3303  223.9837 H   0  0  0  0  0  0  0  0  0  0  0  0
  142.3301   79.3896  225.2924 H   0  0  0  0  0  0  0  0  0  0  0  0
  141.1819   77.4810  224.2786 H   0  0  0  0  0  0  0  0  0  0  0  0
  1  2  1  0
  2  3  1  0
  3  4  1  0
  4  5  1  0
  5  6  1  0
  6  7  2  0
  6  8  1  0
  8  9  2  0
  9 10  1  0
 10 11  2  0
 11 12  1  0
 12 13  2  0
 13 14  1  0
 13 15  1  0
 15 16  2  0
 16 17  1  0
 17 18  2  0
  2 19  1  0
 19 20  2  0
 19 21  1  0
 21 22  1  0
 22 23  1  0
 23 24  1  0
 23 25  1  0
 25 26  1  0
 26 27  1  0
 27 28  2  0
 27 29  2  0
 27 30  1  0
 30 31  2  0
 31 32  1  0
 32 33  2  0
 33 34  1  0
 34 35  2  0
 18  8  1  0
 26 21  1  0
 35 30  1  0
 17 11  1  0
  1 36  1  0
  1 37  1  0
  1 38  1  0
  3 39  1  0
  3 40  1  0
  4 41  1  0
  4 42  1  0
  5 43  1  0
  9 44  1  0
 10 45  1  0
 12 46  1  0
 15 47  1  0
 16 48  1  0
 21 49  1  1
 22 50  1  0
 22 51  1  0
 23 52  1  6
 24 53  1  0
 25 54  1  0
 25 55  1  0
 31 56  1  0
 32 57  1  0
 33 58  1  0
 34 59  1  0
 35 60  1  0
M  END
>  <smiles>  (11) 
CN(CCNC(=O)c1ccc2cc(F)ccc2n1)C(=O)[C@H]1C[C@H](O)CN1S(=O)(=O)c1ccccc1

>  <score_type>  (11) 
oracle

>  <origin>  (11) 
autodockgpu

>  <m_score__min__energy>  (11) 
-9.1999999999999993

>  <m_primary>  (11) 
energy

>  <rmsd>  (11) 
2.4609439324651348

>  <m_score__min__rmsd>  (11) 
2.4609439324651348

>  <meeko>  (11) 
{"free_energy": -8.73, "intermolecular_energy": -11.42, "internal_energy": -2.78, "cluster_size": 14, "cluster_id": 1, "rank_in_cluster": 9}

>  <energy>  (11) 
-8.48

>  <cluster_rmsd>  (11) 
1.99

>  <cluster>  (11) 
1

$$$$

     RDKit          3D

 60 63  0  0  0  0  0  0  0  0999 V2000
  139.5280   66.5090  221.5940 C   0  0  0  0  0  0  0  0  0  0  0  0
  138.6460   67.6220  221.2970 N   0  0  0  0  0  0  0  0  0  0  0  0
  137.2820   67.3500  220.8900 C   0  0  0  0  0  0  0  0  0  0  0  0
  136.2880   67.3390  222.0080 C   0  0  0  0  0  0  0  0  0  0  0  0
  136.1600   68.6570  222.5630 N   0  0  0  0  0  0  0  0  0  0  0  0
  135.1210   68.8480  223.5410 C   0  0  0  0  0  0  0  0  0  0  0  0
  134.4330   67.8270  223.8010 O   0  0  0  0  0  0  0  0  0  0  0  0
  134.8900   70.1370  224.1800 C   0  0  0  0  0  0  0  0  0  0  0  0
  134.1260   70.1460  225.3260 C   0  0  0  0  0  0  0  0  0  0  0  0
  133.8670   71.3380  225.9860 C   0  0  0  0  0  0  0  0  0  0  0  0
  134.3970   72.4770  225.4530 C   0  0  0  0  0  0  0  0  0  0  0  0
  134.1490   73.6720  226.0960 C   0  0  0  0  0  0  0  0  0  0  0  0
  134.6700   74.8220  225.5780 C   0  0  0  0  0  0  0  0  0  0  0  0
  134.4450   76.0270  226.1900 F   0  0  0  0  0  0  0  0  0  0  0  0
  135.4370   74.8120  224.4270 C   0  0  0  0  0  0  0  0  0  0  0  0
  135.7050   73.6250  223.7560 C   0  0  0  0  0  0  0  0  0  0  0  0
  135.1690   72.4800  224.2970 C   0  0  0  0  0  0  0  0  0  0  0  0
  135.3880   71.2880  223.6960 N   0  0  0  0  0  0  0  0  0  0  0  0
  139.0550   68.9840  221.3680 C   0  0  0  0  0  0  0  0  0  0  0  0
  139.0610   69.6790  220.2790 O   0  0  0  0  0  0  0  0  0  0  0  0
  139.4750   69.6940  222.5700 C   0  0  1  0  0  0  0  0  0  0  0  0
  140.2270   70.9790  222.2810 C   0  0  0  0  0  0  0  0  0  0  0  0
  139.1150   72.0280  222.4150 C   0  0  2  0  0  0  0  0  0  0  0  0
  139.6810   73.2730  222.7090 O   0  0  0  0  0  0  0  0  0  0  0  0
  138.3680   71.4740  223.6030 C   0  0  0  0  0  0  0  0  0  0  0  0
  138.4840   70.0510  223.5200 N   0  0  0  0  0  0  0  0  0  0  0  0
  138.6730   69.3090  225.0550 S   0  0  0  0  0  0  0  0  0  0  0  0
  137.3090   69.2520  225.7060 O   0  0  0  0  0  0  0  0  0  0  0  0
  139.1910   67.9270  224.9870 O   0  0  0  0  0  0  0  0  0  0  0  0
  139.7060   70.2220  226.1330 C   0  0  0  0  0  0  0  0  0  0  0  0
  140.6090   71.1680  225.6830 C   0  0  0  0  0  0  0  0  0  0  0  0
  141.4240   71.8890  226.5320 C   0  0  0  0  0  0  0  0  0  0  0  0
  141.3400   71.6620  227.8900 C   0  0  0  0  0  0  0  0  0  0  0  0
  140.4410   70.7200  228.3330 C   0  0  0  0  0  0  0  0  0  0  0  0
  139.6260   69.9970  227.5080 C   0  0  0  0  0  0  0  0  0  0  0  0
  139.6190   66.3941  222.6842 H   0  0  0  0  0  0  0  0  0  0  0  0
  139.1129   65.5867  221.1615 H   0  0  0  0  0  0  0  0  0  0  0  0
  140.5208   66.7023  221.1615 H   0  0  0  0  0  0  0  0  0  0  0  0
  136.9786   68.1233  220.1690 H   0  0  0  0  0  0  0  0  0  0  0  0
  137.2809   66.3365  220.4624 H   0  0  0  0  0  0  0  0  0  0  0  0
  135.3115   67.0087  221.6242 H   0  0  0  0  0  0  0  0  0  0  0  0
  136.6331   66.6486  222.7918 H   0  0  0  0  0  0  0  0  0  0  0  0
  136.7370   69.4860  222.3370 H   0  0  0  0  0  0  0  0  0  0  0  0
  133.7192   69.2029  225.7198 H   0  0  0  0  0  0  0  0  0  0  0  0
  133.2588   71.3642  226.9022 H   0  0  0  0  0  0  0  0  0  0  0  0
  133.5407   73.6975  227.0121 H   0  0  0  0  0  0  0  0  0  0  0  0
  135.8409   75.7579  224.0369 H   0  0  0  0  0  0  0  0  0  0  0  0
  136.3139   73.6025  222.8402 H   0  0  0  0  0  0  0  0  0  0  0  0
  140.1050   68.9087  223.0132 H   0  0  0  0  0  0  0  0  0  0  0  0
  141.0284   71.1483  223.0153 H   0  0  0  0  0  0  0  0  0  0  0  0
  140.7348   70.9891  221.3053 H   0  0  0  0  0  0  0  0  0  0  0  0
  138.4927   72.1858  221.5217 H   0  0  0  0  0  0  0  0  0  0  0  0
  138.9700   73.8500  223.0960 H   0  0  0  0  0  0  0  0  0  0  0  0
  138.8160   71.8390  224.5390 H   0  0  0  0  0  0  0  0  0  0  0  0
  137.3147   71.7910  223.5972 H   0  0  0  0  0  0  0  0  0  0  0  0
  140.6808   71.3539  224.6012 H   0  0  0  0  0  0  0  0  0  0  0  0
  142.1291   72.6326  226.1322 H   0  0  0  0  0  0  0  0  0  0  0  0
  141.9730   72.2177  228.5975 H   0  0  0  0  0  0  0  0  0  0  0  0
  140.3740   70.5378  229.4157 H   0  0  0  0  0  0  0  0  0  0  0  0
  138.9241   69.2558  227.9177 H   0  0  0  0  0  0  0  0  0  0  0  0
  1  2  1  0
  2  3  1  0
  3  4  1  0
  4  5  1  0
  5  6  1  0
  6  7  2  0
  6  8  1  0
  8  9  2  0
  9 10  1  0
 10 11  2  0
 11 12  1  0
 12 13  2  0
 13 14  1  0
 13 15  1  0
 15 16  2  0
 16 17  1  0
 17 18  2  0
  2 19  1  0
 19 20  2  0
 19 21  1  0
 21 22  1  0
 22 23  1  0
 23 24  1  0
 23 25  1  0
 25 26  1  0
 26 27  1  0
 27 28  2  0
 27 29  2  0
 27 30  1  0
 30 31  2  0
 31 32  1  0
 32 33  2  0
 33 34  1  0
 34 35  2  0
 18  8  1  0
 26 21  1  0
 35 30  1  0
 17 11  1  0
  1 36  1  0
  1 37  1  0
  1 38  1  0
  3 39  1  0
  3 40  1  0
  4 41  1  0
  4 42  1  0
  5 43  1  0
  9 44  1  0
 10 45  1  0
 12 46  1  0
 15 47  1  0
 16 48  1  0
 21 49  1  1
 22 50  1  0
 22 51  1  0
 23 52  1  6
 24 53  1  0
 25 54  1  0
 25 55  1  0
 31 56  1  0
 32 57  1  0
 33 58  1  0
 34 59  1  0
 35 60  1  0
M  END
>  <smiles>  (12) 
CN(CCNC(=O)c1ccc2cc(F)ccc2n1)C(=O)[C@H]1C[C@H](O)CN1S(=O)(=O)c1ccccc1

>  <score_type>  (12) 
oracle

>  <origin>  (12) 
autodockgpu

>  <m_score__min__energy>  (12) 
-9.1999999999999993

>  <m_primary>  (12) 
energy

>  <rmsd>  (12) 
7.329927405657121

>  <m_score__min__rmsd>  (12) 
7.329927405657121

>  <meeko>  (12) 
{"free_energy": -7.89, "intermolecular_energy": -10.58, "internal_energy": -4.02, "cluster_size": 6, "cluster_id": 5, "rank_in_cluster": 1}

>  <energy>  (12) 
-8.32

>  <cluster_rmsd>  (12) 
1.99

>  <cluster>  (12) 
1

$$$$

     RDKit          3D

 60 63  0  0  0  0  0  0  0  0999 V2000
  139.9380   73.2200  218.6130 C   0  0  0  0  0  0  0  0  0  0  0  0
  140.6180   74.1560  219.4880 N   0  0  0  0  0  0  0  0  0  0  0  0
  140.6100   73.9160  220.9190 C   0  0  0  0  0  0  0  0  0  0  0  0
  139.3180   73.3850  221.4540 C   0  0  0  0  0  0  0  0  0  0  0  0
  139.5430   72.7130  222.7030 N   0  0  0  0  0  0  0  0  0  0  0  0
  139.3540   71.2870  222.7110 C   0  0  0  0  0  0  0  0  0  0  0  0
  139.0080   70.7830  221.6110 O   0  0  0  0  0  0  0  0  0  0  0  0
  139.5530   70.4890  223.9150 C   0  0  0  0  0  0  0  0  0  0  0  0
  139.1200   69.1820  223.8840 C   0  0  0  0  0  0  0  0  0  0  0  0
  139.2780   68.3660  224.9950 C   0  0  0  0  0  0  0  0  0  0  0  0
  139.8720   68.9130  226.0950 C   0  0  0  0  0  0  0  0  0  0  0  0
  140.0370   68.1160  227.2090 C   0  0  0  0  0  0  0  0  0  0  0  0
  140.6270   68.6460  228.3190 C   0  0  0  0  0  0  0  0  0  0  0  0
  140.8080   67.8840  229.4430 F   0  0  0  0  0  0  0  0  0  0  0  0
  141.0610   69.9590  228.3480 C   0  0  0  0  0  0  0  0  0  0  0  0
  140.9090   70.7870  227.2430 C   0  0  0  0  0  0  0  0  0  0  0  0
  140.3110   70.2310  226.1370 C   0  0  0  0  0  0  0  0  0  0  0  0
  140.1310   70.9800  225.0240 N   0  0  0  0  0  0  0  0  0  0  0  0
  141.2890   75.3200  219.0180 C   0  0  0  0  0  0  0  0  0  0  0  0
  141.5450   75.4100  217.7540 O   0  0  0  0  0  0  0  0  0  0  0  0
  141.7250   76.4480  219.8310 C   0  0  1  0  0  0  0  0  0  0  0  0
  142.8310   77.2630  219.1900 C   0  0  0  0  0  0  0  0  0  0  0  0
  142.0410   78.4160  218.5540 C   0  0  2  0  0  0  0  0  0  0  0  0
  142.8820   79.5200  218.3840 O   0  0  0  0  0  0  0  0  0  0  0  0
  141.0220   78.6680  219.6370 C   0  0  0  0  0  0  0  0  0  0  0  0
  140.7540   77.3980  220.2380 N   0  0  0  0  0  0  0  0  0  0  0  0
  140.5280   77.5000  221.9350 S   0  0  0  0  0  0  0  0  0  0  0  0
  139.0390   77.5360  222.1980 O   0  0  0  0  0  0  0  0  0  0  0  0
  141.0820   76.3490  222.6780 O   0  0  0  0  0  0  0  0  0  0  0  0
  141.1960   78.9630  222.6260 C   0  0  0  0  0  0  0  0  0  0  0  0
  140.4120   79.9430  223.2080 C   0  0  0  0  0  0  0  0  0  0  0  0
  140.9370   81.0960  223.7540 C   0  0  0  0  0  0  0  0  0  0  0  0
  142.3010   81.2890  223.7220 C   0  0  0  0  0  0  0  0  0  0  0  0
  143.0780   80.3120  223.1420 C   0  0  0  0  0  0  0  0  0  0  0  0
  142.5770   79.1630  222.5960 C   0  0  0  0  0  0  0  0  0  0  0  0
  139.3984   72.4773  219.2190 H   0  0  0  0  0  0  0  0  0  0  0  0
  139.2233   73.7644  217.9782 H   0  0  0  0  0  0  0  0  0  0  0  0
  140.6766   72.7086  217.9782 H   0  0  0  0  0  0  0  0  0  0  0  0
  141.4018   73.1880  221.1492 H   0  0  0  0  0  0  0  0  0  0  0  0
  140.7688   74.8925  221.3998 H   0  0  0  0  0  0  0  0  0  0  0  0
  138.6180   74.2191  221.6100 H   0  0  0  0  0  0  0  0  0  0  0  0
  138.8937   72.6721  220.7316 H   0  0  0  0  0  0  0  0  0  0  0  0
  139.8290   73.1450  223.5980 H   0  0  0  0  0  0  0  0  0  0  0  0
  138.6468   68.7833  222.9745 H   0  0  0  0  0  0  0  0  0  0  0  0
  138.9380   67.3199  224.9893 H   0  0  0  0  0  0  0  0  0  0  0  0
  139.6981   67.0695  227.2023 H   0  0  0  0  0  0  0  0  0  0  0  0
  141.5336   70.3534  229.2597 H   0  0  0  0  0  0  0  0  0  0  0  0
  141.2494   71.8330  227.2525 H   0  0  0  0  0  0  0  0  0  0  0  0
  142.0517   75.8914  220.7218 H   0  0  0  0  0  0  0  0  0  0  0  0
  143.5439   77.6324  219.9419 H   0  0  0  0  0  0  0  0  0  0  0  0
  143.4461   76.6962  218.4756 H   0  0  0  0  0  0  0  0  0  0  0  0
  141.6091   78.2141  217.5627 H   0  0  0  0  0  0  0  0  0  0  0  0
  143.3330   79.4290  217.5020 H   0  0  0  0  0  0  0  0  0  0  0  0
  141.4258   79.3660  220.3851 H   0  0  0  0  0  0  0  0  0  0  0  0
  140.1058   79.1183  219.2275 H   0  0  0  0  0  0  0  0  0  0  0  0
  139.3222   79.7965  223.2367 H   0  0  0  0  0  0  0  0  0  0  0  0
  140.2769   81.8498  224.2080 H   0  0  0  0  0  0  0  0  0  0  0  0
  142.7551   82.1963  224.1470 H   0  0  0  0  0  0  0  0  0  0  0  0
  144.1670   80.4648  223.1162 H   0  0  0  0  0  0  0  0  0  0  0  0
  143.2454   78.4151  222.1445 H   0  0  0  0  0  0  0  0  0  0  0  0
  1  2  1  0
  2  3  1  0
  3  4  1  0
  4  5  1  0
  5  6  1  0
  6  7  2  0
  6  8  1  0
  8  9  2  0
  9 10  1  0
 10 11  2  0
 11 12  1  0
 12 13  2  0
 13 14  1  0
 13 15  1  0
 15 16  2  0
 16 17  1  0
 17 18  2  0
  2 19  1  0
 19 20  2  0
 19 21  1  0
 21 22  1  0
 22 23  1  0
 23 24  1  0
 23 25  1  0
 25 26  1  0
 26 27  1  0
 27 28  2  0
 27 29  2  0
 27 30  1  0
 30 31  2  0
 31 32  1  0
 32 33  2  0
 33 34  1  0
 34 35  2  0
 18  8  1  0
 26 21  1  0
 35 30  1  0
 17 11  1  0
  1 36  1  0
  1 37  1  0
  1 38  1  0
  3 39  1  0
  3 40  1  0
  4 41  1  0
  4 42  1  0
  5 43  1  0
  9 44  1  0
 10 45  1  0
 12 46  1  0
 15 47  1  0
 16 48  1  0
 21 49  1  1
 22 50  1  0
 22 51  1  0
 23 52  1  6
 24 53  1  0
 25 54  1  0
 25 55  1  0
 31 56  1  0
 32 57  1  0
 33 58  1  0
 34 59  1  0
 35 60  1  0
M  END
>  <smiles>  (13) 
CN(CCNC(=O)c1ccc2cc(F)ccc2n1)C(=O)[C@H]1C[C@H](O)CN1S(=O)(=O)c1ccccc1

>  <score_type>  (13) 
oracle

>  <origin>  (13) 
autodockgpu

>  <m_score__min__energy>  (13) 
-9.1999999999999993

>  <m_primary>  (13) 
energy

>  <rmsd>  (13) 
2.072220995751533

>  <m_score__min__rmsd>  (13) 
2.072220995751533

>  <meeko>  (13) 
{"free_energy": -8.93, "intermolecular_energy": -11.61, "internal_energy": -2.02, "cluster_size": 14, "cluster_id": 1, "rank_in_cluster": 2}

>  <energy>  (13) 
-7.89

>  <cluster_rmsd>  (13) 
1.55

>  <cluster>  (13) 
1

$$$$

     RDKit          3D

 60 63  0  0  0  0  0  0  0  0999 V2000
  138.6460   77.6220  216.8160 C   0  0  0  0  0  0  0  0  0  0  0  0
  139.6270   76.6030  217.1340 N   0  0  0  0  0  0  0  0  0  0  0  0
  140.7290   76.3760  216.2190 C   0  0  0  0  0  0  0  0  0  0  0  0
  141.7920   77.4270  216.2510 C   0  0  0  0  0  0  0  0  0  0  0  0
  141.9180   77.9570  217.5790 N   0  0  0  0  0  0  0  0  0  0  0  0
  141.5380   79.3330  217.7640 C   0  0  0  0  0  0  0  0  0  0  0  0
  141.1350   79.9230  216.7280 O   0  0  0  0  0  0  0  0  0  0  0  0
  141.6180   79.9870  219.0630 C   0  0  0  0  0  0  0  0  0  0  0  0
  141.3840   81.3440  219.1020 C   0  0  0  0  0  0  0  0  0  0  0  0
  141.4430   82.0310  220.3050 C   0  0  0  0  0  0  0  0  0  0  0  0
  141.7380   81.3090  221.4250 C   0  0  0  0  0  0  0  0  0  0  0  0
  141.8010   81.9760  222.6310 C   0  0  0  0  0  0  0  0  0  0  0  0
  142.0950   81.2720  223.7610 C   0  0  0  0  0  0  0  0  0  0  0  0
  142.1660   81.9010  224.9760 F   0  0  0  0  0  0  0  0  0  0  0  0
  142.3300   79.9090  223.7220 C   0  0  0  0  0  0  0  0  0  0  0  0
  142.2740   79.2080  222.5230 C   0  0  0  0  0  0  0  0  0  0  0  0
  141.9760   79.9410  221.3980 C   0  0  0  0  0  0  0  0  0  0  0  0
  141.9050   79.3230  220.1960 N   0  0  0  0  0  0  0  0  0  0  0  0
  139.5610   75.7900  218.3020 C   0  0  0  0  0  0  0  0  0  0  0  0
  138.5640   74.9770  218.4250 O   0  0  0  0  0  0  0  0  0  0  0  0
  140.5220   75.7790  219.3970 C   0  0  1  0  0  0  0  0  0  0  0  0
  139.8790   75.6620  220.7650 C   0  0  0  0  0  0  0  0  0  0  0  0
  140.0030   74.1560  221.0400 C   0  0  2  0  0  0  0  0  0  0  0  0
  139.9620   73.9300  222.4200 O   0  0  0  0  0  0  0  0  0  0  0  0
  141.3810   73.8970  220.4850 C   0  0  0  0  0  0  0  0  0  0  0  0
  141.5440   74.7940  219.3820 N   0  0  0  0  0  0  0  0  0  0  0  0
  143.1350   75.4240  219.2680 S   0  0  0  0  0  0  0  0  0  0  0  0
  143.3940   75.7500  217.8140 O   0  0  0  0  0  0  0  0  0  0  0  0
  143.3400   76.6650  220.0440 O   0  0  0  0  0  0  0  0  0  0  0  0
  144.3620   74.2740  219.7510 C   0  0  0  0  0  0  0  0  0  0  0  0
  145.2440   74.5100  220.7900 C   0  0  0  0  0  0  0  0  0  0  0  0
  146.2110   73.6040  221.1730 C   0  0  0  0  0  0  0  0  0  0  0  0
  146.3110   72.4080  220.4940 C   0  0  0  0  0  0  0  0  0  0  0  0
  145.4320   72.1770  219.4600 C   0  0  0  0  0  0  0  0  0  0  0  0
  144.4680   73.0620  219.0670 C   0  0  0  0  0  0  0  0  0  0  0  0
  138.2401   78.0436  217.7474 H   0  0  0  0  0  0  0  0  0  0  0  0
  139.1238   78.4207  216.2296 H   0  0  0  0  0  0  0  0  0  0  0  0
  137.8297   77.1749  216.2296 H   0  0  0  0  0  0  0  0  0  0  0  0
  141.1926   75.4114  216.4731 H   0  0  0  0  0  0  0  0  0  0  0  0
  140.3016   76.3960  215.2056 H   0  0  0  0  0  0  0  0  0  0  0  0
  142.7509   76.9849  215.9427 H   0  0  0  0  0  0  0  0  0  0  0  0
  141.5175   78.2396  215.5623 H   0  0  0  0  0  0  0  0  0  0  0  0
  142.2520   77.4550  218.4200 H   0  0  0  0  0  0  0  0  0  0  0  0
  141.1491   81.8855  218.1738 H   0  0  0  0  0  0  0  0  0  0  0  0
  141.2594   83.1144  220.3547 H   0  0  0  0  0  0  0  0  0  0  0  0
  141.6168   83.0594  222.6802 H   0  0  0  0  0  0  0  0  0  0  0  0
  142.5645   79.3725  224.6532 H   0  0  0  0  0  0  0  0  0  0  0  0
  142.4582   78.1245  222.4764 H   0  0  0  0  0  0  0  0  0  0  0  0
  140.9887   76.7587  219.2171 H   0  0  0  0  0  0  0  0  0  0  0  0
  140.4239   76.2529  221.5160 H   0  0  0  0  0  0  0  0  0  0  0  0
  138.8468   76.0399  220.8069 H   0  0  0  0  0  0  0  0  0  0  0  0
  139.2147   73.5212  220.6091 H   0  0  0  0  0  0  0  0  0  0  0  0
  139.0480   74.1520  222.7400 H   0  0  0  0  0  0  0  0  0  0  0  0
  142.1441   74.0941  221.2524 H   0  0  0  0  0  0  0  0  0  0  0  0
  141.4948   72.8495  220.1691 H   0  0  0  0  0  0  0  0  0  0  0  0
  145.1710   75.4626  221.3351 H   0  0  0  0  0  0  0  0  0  0  0  0
  146.8914   73.8319  222.0067 H   0  0  0  0  0  0  0  0  0  0  0  0
  147.0700   71.6612  220.7702 H   0  0  0  0  0  0  0  0  0  0  0  0
  145.5104   71.2231  218.9179 H   0  0  0  0  0  0  0  0  0  0  0  0
  143.7921   72.8251  218.2321 H   0  0  0  0  0  0  0  0  0  0  0  0
  1  2  1  0
  2  3  1  0
  3  4  1  0
  4  5  1  0
  5  6  1  0
  6  7  2  0
  6  8  1  0
  8  9  2  0
  9 10  1  0
 10 11  2  0
 11 12  1  0
 12 13  2  0
 13 14  1  0
 13 15  1  0
 15 16  2  0
 16 17  1  0
 17 18  2  0
  2 19  1  0
 19 20  2  0
 19 21  1  0
 21 22  1  0
 22 23  1  0
 23 24  1  0
 23 25  1  0
 25 26  1  0
 26 27  1  0
 27 28  2  0
 27 29  2  0
 27 30  1  0
 30 31  2  0
 31 32  1  0
 32 33  2  0
 33 34  1  0
 34 35  2  0
 18  8  1  0
 26 21  1  0
 35 30  1  0
 17 11  1  0
  1 36  1  0
  1 37  1  0
  1 38  1  0
  3 39  1  0
  3 40  1  0
  4 41  1  0
  4 42  1  0
  5 43  1  0
  9 44  1  0
 10 45  1  0
 12 46  1  0
 15 47  1  0
 16 48  1  0
 21 49  1  1
 22 50  1  0
 22 51  1  0
 23 52  1  6
 24 53  1  0
 25 54  1  0
 25 55  1  0
 31 56  1  0
 32 57  1  0
 33 58  1  0
 34 59  1  0
 35 60  1  0
M  END
>  <smiles>  (14) 
CN(CCNC(=O)c1ccc2cc(F)ccc2n1)C(=O)[C@H]1C[C@H](O)CN1S(=O)(=O)c1ccccc1

>  <score_type>  (14) 
oracle

>  <origin>  (14) 
autodockgpu

>  <m_score__min__energy>  (14) 
-9.1999999999999993

>  <m_primary>  (14) 
energy

>  <rmsd>  (14) 
9.41893231255647

>  <m_score__min__rmsd>  (14) 
9.41893231255647

>  <meeko>  (14) 
{"free_energy": -6.59, "intermolecular_energy": -9.28, "internal_energy": -4.17, "cluster_size": 1, "cluster_id": 12, "rank_in_cluster": 1}

>  <energy>  (14) 
-7.5

>  <cluster_rmsd>  (14) 
1.84

>  <cluster>  (14) 
1

$$$$

     RDKit          3D

 60 63  0  0  0  0  0  0  0  0999 V2000
  136.9720   81.3780  223.4180 C   0  0  0  0  0  0  0  0  0  0  0  0
  137.6390   80.0940  223.3170 N   0  0  0  0  0  0  0  0  0  0  0  0
  136.8380   78.8960  223.1510 C   0  0  0  0  0  0  0  0  0  0  0  0
  136.7490   78.3960  221.7430 C   0  0  0  0  0  0  0  0  0  0  0  0
  137.9930   77.7910  221.3580 N   0  0  0  0  0  0  0  0  0  0  0  0
  138.2700   76.4850  221.8950 C   0  0  0  0  0  0  0  0  0  0  0  0
  137.3820   76.0160  222.6530 O   0  0  0  0  0  0  0  0  0  0  0  0
  139.4970   75.7650  221.5790 C   0  0  0  0  0  0  0  0  0  0  0  0
  139.5700   74.4450  221.9650 C   0  0  0  0  0  0  0  0  0  0  0  0
  140.7080   73.6990  221.6950 C   0  0  0  0  0  0  0  0  0  0  0  0
  141.7290   74.3270  221.0410 C   0  0  0  0  0  0  0  0  0  0  0  0
  142.8690   73.6010  220.7650 C   0  0  0  0  0  0  0  0  0  0  0  0
  143.9000   74.2120  220.1140 C   0  0  0  0  0  0  0  0  0  0  0  0
  145.0470   73.5210  219.8220 F   0  0  0  0  0  0  0  0  0  0  0  0
  143.8250   75.5380  219.7270 C   0  0  0  0  0  0  0  0  0  0  0  0
  142.6900   76.2960  219.9910 C   0  0  0  0  0  0  0  0  0  0  0  0
  141.6650   75.6590  220.6480 C   0  0  0  0  0  0  0  0  0  0  0  0
  140.5300   76.3360  220.9380 N   0  0  0  0  0  0  0  0  0  0  0  0
  139.0520   79.9390  223.3890 C   0  0  0  0  0  0  0  0  0  0  0  0
  139.5580   79.4230  224.4610 O   0  0  0  0  0  0  0  0  0  0  0  0
  140.0110   80.3080  222.3550 C   0  0  1  0  0  0  0  0  0  0  0  0
  141.2850   80.9200  222.9030 C   0  0  0  0  0  0  0  0  0  0  0  0
  142.2300   79.7100  222.9230 C   0  0  2  0  0  0  0  0  0  0  0  0
  143.5560   80.1520  222.8850 O   0  0  0  0  0  0  0  0  0  0  0  0
  141.8380   79.0460  221.6260 C   0  0  0  0  0  0  0  0  0  0  0  0
  140.4420   79.3040  221.4500 N   0  0  0  0  0  0  0  0  0  0  0  0
  140.0220   79.5960  219.8130 S   0  0  0  0  0  0  0  0  0  0  0  0
  140.1510   78.2870  219.0670 O   0  0  0  0  0  0  0  0  0  0  0  0
  138.6350   80.0750  219.6320 O   0  0  0  0  0  0  0  0  0  0  0  0
  141.0950   80.7310  219.0240 C   0  0  0  0  0  0  0  0  0  0  0  0
  142.1330   80.3340  218.2010 C   0  0  0  0  0  0  0  0  0  0  0  0
  142.9790   81.2290  217.5780 C   0  0  0  0  0  0  0  0  0  0  0  0
  142.7880   82.5790  217.7790 C   0  0  0  0  0  0  0  0  0  0  0  0
  141.7540   82.9700  218.6000 C   0  0  0  0  0  0  0  0  0  0  0  0
  140.9060   82.1000  219.2250 C   0  0  0  0  0  0  0  0  0  0  0  0
  136.8367   81.6385  224.4781 H   0  0  0  0  0  0  0  0  0  0  0  0
  137.5838   82.1487  222.9262 H   0  0  0  0  0  0  0  0  0  0  0  0
  135.9897   81.3206  222.9262 H   0  0  0  0  0  0  0  0  0  0  0  0
  137.2780   78.1005  223.7704 H   0  0  0  0  0  0  0  0  0  0  0  0
  135.8141   79.1614  223.4529 H   0  0  0  0  0  0  0  0  0  0  0  0
  135.9435   77.6503  221.6713 H   0  0  0  0  0  0  0  0  0  0  0  0
  136.5352   79.2411  221.0722 H   0  0  0  0  0  0  0  0  0  0  0  0
  138.7120   78.1930  220.7320 H   0  0  0  0  0  0  0  0  0  0  0  0
  138.7223   73.9802  222.4897 H   0  0  0  0  0  0  0  0  0  0  0  0
  140.7848   72.6437  221.9958 H   0  0  0  0  0  0  0  0  0  0  0  0
  142.9453   72.5456  221.0653 H   0  0  0  0  0  0  0  0  0  0  0  0
  144.6753   75.9990  219.2031 H   0  0  0  0  0  0  0  0  0  0  0  0
  142.6163   77.3513  219.6895 H   0  0  0  0  0  0  0  0  0  0  0  0
  139.3867   81.0231  221.7993 H   0  0  0  0  0  0  0  0  0  0  0  0
  141.6644   81.7139  222.2428 H   0  0  0  0  0  0  0  0  0  0  0  0
  141.1612   81.4053  223.8824 H   0  0  0  0  0  0  0  0  0  0  0  0
  142.1583   79.0582  223.8062 H   0  0  0  0  0  0  0  0  0  0  0  0
  144.0530   79.5760  222.2450 H   0  0  0  0  0  0  0  0  0  0  0  0
  142.4126   79.4725  220.7906 H   0  0  0  0  0  0  0  0  0  0  0  0
  142.0455   77.9660  221.6505 H   0  0  0  0  0  0  0  0  0  0  0  0
  142.2913   79.2581  218.0357 H   0  0  0  0  0  0  0  0  0  0  0  0
  143.7931   80.8703  216.9310 H   0  0  0  0  0  0  0  0  0  0  0  0
  143.4417   83.3216  217.2982 H   0  0  0  0  0  0  0  0  0  0  0  0
  141.6016   84.0472  218.7624 H   0  0  0  0  0  0  0  0  0  0  0  0
  140.0949   82.4685  219.8702 H   0  0  0  0  0  0  0  0  0  0  0  0
  1  2  1  0
  2  3  1  0
  3  4  1  0
  4  5  1  0
  5  6  1  0
  6  7  2  0
  6  8  1  0
  8  9  2  0
  9 10  1  0
 10 11  2  0
 11 12  1  0
 12 13  2  0
 13 14  1  0
 13 15  1  0
 15 16  2  0
 16 17  1  0
 17 18  2  0
  2 19  1  0
 19 20  2  0
 19 21  1  0
 21 22  1  0
 22 23  1  0
 23 24  1  0
 23 25  1  0
 25 26  1  0
 26 27  1  0
 27 28  2  0
 27 29  2  0
 27 30  1  0
 30 31  2  0
 31 32  1  0
 32 33  2  0
 33 34  1  0
 34 35  2  0
 18  8  1  0
 26 21  1  0
 35 30  1  0
 17 11  1  0
  1 36  1  0
  1 37  1  0
  1 38  1  0
  3 39  1  0
  3 40  1  0
  4 41  1  0
  4 42  1  0
  5 43  1  0
  9 44  1  0
 10 45  1  0
 12 46  1  0
 15 47  1  0
 16 48  1  0
 21 49  1  6
 22 50  1  0
 22 51  1  0
 23 52  1  1
 24 53  1  0
 25 54  1  0
 25 55  1  0
 31 56  1  0
 32 57  1  0
 33 58  1  0
 34 59  1  0
 35 60  1  0
M  END
>  <smiles>  (15) 
CN(CCNC(=O)c1ccc2cc(F)ccc2n1)C(=O)[C@H]1C[C@H](O)CN1S(=O)(=O)c1ccccc1

>  <score_type>  (15) 
oracle

>  <origin>  (15) 
autodockgpu

>  <m_score__min__energy>  (15) 
-9.1999999999999993

>  <m_primary>  (15) 
energy

>  <rmsd>  (15) 
7.3356256188531415

>  <m_score__min__rmsd>  (15) 
7.3356256188531415

>  <meeko>  (15) 
{"free_energy": -5.84, "intermolecular_energy": -8.53, "internal_energy": -5.15, "cluster_size": 1, "cluster_id": 16, "rank_in_cluster": 1}

>  <energy>  (15) 
-8.86

>  <cluster_rmsd>  (15) 
0.0

>  <cluster>  (15) 
2

$$$$

     RDKit          3D

 60 63  0  0  0  0  0  0  0  0999 V2000
  138.7910   71.6760  218.6460 C   0  0  0  0  0  0  0  0  0  0  0  0
  139.3380   72.8170  219.3560 N   0  0  0  0  0  0  0  0  0  0  0  0
  138.4430   73.8730  219.7880 C   0  0  0  0  0  0  0  0  0  0  0  0
  137.4940   73.4790  220.8750 C   0  0  0  0  0  0  0  0  0  0  0  0
  138.2260   73.0890  222.0470 N   0  0  0  0  0  0  0  0  0  0  0  0
  138.3230   71.6770  222.3070 C   0  0  0  0  0  0  0  0  0  0  0  0
  137.7470   70.9350  221.4690 O   0  0  0  0  0  0  0  0  0  0  0  0
  139.0390   71.1520  223.4630 C   0  0  0  0  0  0  0  0  0  0  0  0
  140.1100   71.8840  223.9260 C   0  0  0  0  0  0  0  0  0  0  0  0
  140.8360   71.4430  225.0230 C   0  0  0  0  0  0  0  0  0  0  0  0
  140.4430   70.2730  225.6070 C   0  0  0  0  0  0  0  0  0  0  0  0
  141.1540   69.8200  226.6980 C   0  0  0  0  0  0  0  0  0  0  0  0
  140.7770   68.6530  227.2940 C   0  0  0  0  0  0  0  0  0  0  0  0
  141.4590   68.1720  228.3810 F   0  0  0  0  0  0  0  0  0  0  0  0
  139.7010   67.9190  226.8280 C   0  0  0  0  0  0  0  0  0  0  0  0
  138.9640   68.3490  225.7300 C   0  0  0  0  0  0  0  0  0  0  0  0
  139.3650   69.5270  225.1470 C   0  0  0  0  0  0  0  0  0  0  0  0
  138.6930   70.0060  224.0730 N   0  0  0  0  0  0  0  0  0  0  0  0
  140.7250   72.9690  219.6410 C   0  0  0  0  0  0  0  0  0  0  0  0
  141.5640   72.2010  219.0260 O   0  0  0  0  0  0  0  0  0  0  0  0
  141.3110   73.9220  220.5740 C   0  0  1  0  0  0  0  0  0  0  0  0
  142.7810   73.6720  220.8500 C   0  0  0  0  0  0  0  0  0  0  0  0
  143.4520   74.6610  219.8870 C   0  0  2  0  0  0  0  0  0  0  0  0
  144.7370   74.9640  220.3500 O   0  0  0  0  0  0  0  0  0  0  0  0
  142.5270   75.8430  220.0320 C   0  0  0  0  0  0  0  0  0  0  0  0
  141.2230   75.3040  220.2650 N   0  0  0  0  0  0  0  0  0  0  0  0
  140.3140   76.2260  221.3910 S   0  0  0  0  0  0  0  0  0  0  0  0
  139.0300   76.6440  220.7100 O   0  0  0  0  0  0  0  0  0  0  0  0
  139.9470   75.4780  222.6120 O   0  0  0  0  0  0  0  0  0  0  0  0
  141.1250   77.6980  221.8820 C   0  0  0  0  0  0  0  0  0  0  0  0
  141.4710   78.6960  220.9890 C   0  0  0  0  0  0  0  0  0  0  0  0
  142.1090   79.8570  221.3740 C   0  0  0  0  0  0  0  0  0  0  0  0
  142.4200   80.0370  222.7050 C   0  0  0  0  0  0  0  0  0  0  0  0
  142.0750   79.0410  223.5900 C   0  0  0  0  0  0  0  0  0  0  0  0
  141.4420   77.8850  223.2280 C   0  0  0  0  0  0  0  0  0  0  0  0
  138.4334   70.9300  219.3710 H   0  0  0  0  0  0  0  0  0  0  0  0
  137.9526   72.0047  218.0143 H   0  0  0  0  0  0  0  0  0  0  0  0
  139.5723   71.2282  218.0143 H   0  0  0  0  0  0  0  0  0  0  0  0
  139.0534   74.7122  220.1529 H   0  0  0  0  0  0  0  0  0  0  0  0
  137.8263   74.1353  218.9157 H   0  0  0  0  0  0  0  0  0  0  0  0
  136.8440   74.3324  221.1184 H   0  0  0  0  0  0  0  0  0  0  0  0
  136.8829   72.6313  220.5317 H   0  0  0  0  0  0  0  0  0  0  0  0
  138.6940   73.7150  222.7250 H   0  0  0  0  0  0  0  0  0  0  0  0
  140.3908   72.8217  223.4241 H   0  0  0  0  0  0  0  0  0  0  0  0
  141.6945   72.0135  225.4072 H   0  0  0  0  0  0  0  0  0  0  0  0
  142.0122   70.3912  227.0817 H   0  0  0  0  0  0  0  0  0  0  0  0
  139.4245   66.9818  227.3332 H   0  0  0  0  0  0  0  0  0  0  0  0
  138.1057   67.7766  225.3484 H   0  0  0  0  0  0  0  0  0  0  0  0
  140.6636   73.7234  221.4408 H   0  0  0  0  0  0  0  0  0  0  0  0
  143.0361   73.8958  221.8964 H   0  0  0  0  0  0  0  0  0  0  0  0
  143.0910   72.6268  220.7036 H   0  0  0  0  0  0  0  0  0  0  0  0
  143.5817   74.3116  218.8521 H   0  0  0  0  0  0  0  0  0  0  0  0
  145.3690   74.8630  219.5890 H   0  0  0  0  0  0  0  0  0  0  0  0
  142.8382   76.4686  220.8816 H   0  0  0  0  0  0  0  0  0  0  0  0
  142.5435   76.4771  219.1333 H   0  0  0  0  0  0  0  0  0  0  0  0
  141.2268   78.5579  219.9254 H   0  0  0  0  0  0  0  0  0  0  0  0
  142.3654   80.6266  220.6311 H   0  0  0  0  0  0  0  0  0  0  0  0
  142.9287   80.9495  223.0494 H   0  0  0  0  0  0  0  0  0  0  0  0
  142.3235   79.1839  224.6520 H   0  0  0  0  0  0  0  0  0  0  0  0
  141.1889   77.1216  223.9785 H   0  0  0  0  0  0  0  0  0  0  0  0
  1  2  1  0
  2  3  1  0
  3  4  1  0
  4  5  1  0
  5  6  1  0
  6  7  2  0
  6  8  1  0
  8  9  2  0
  9 10  1  0
 10 11  2  0
 11 12  1  0
 12 13  2  0
 13 14  1  0
 13 15  1  0
 15 16  2  0
 16 17  1  0
 17 18  2  0
  2 19  1  0
 19 20  2  0
 19 21  1  0
 21 22  1  0
 22 23  1  0
 23 24  1  0
 23 25  1  0
 25 26  1  0
 26 27  1  0
 27 28  2  0
 27 29  2  0
 27 30  1  0
 30 31  2  0
 31 32  1  0
 32 33  2  0
 33 34  1  0
 34 35  2  0
 18  8  1  0
 26 21  1  0
 35 30  1  0
 17 11  1  0
  1 36  1  0
  1 37  1  0
  1 38  1  0
  3 39  1  0
  3 40  1  0
  4 41  1  0
  4 42  1  0
  5 43  1  0
  9 44  1  0
 10 45  1  0
 12 46  1  0
 15 47  1  0
 16 48  1  0
 21 49  1  1
 22 50  1  0
 22 51  1  0
 23 52  1  6
 24 53  1  0
 25 54  1  0
 25 55  1  0
 31 56  1  0
 32 57  1  0
 33 58  1  0
 34 59  1  0
 35 60  1  0
M  END
>  <smiles>  (16) 
CN(CCNC(=O)c1ccc2cc(F)ccc2n1)C(=O)[C@H]1C[C@H](O)CN1S(=O)(=O)c1ccccc1

>  <score_type>  (16) 
oracle

>  <origin>  (16) 
autodockgpu

>  <m_score__min__energy>  (16) 
-9.1999999999999993

>  <m_primary>  (16) 
energy

>  <rmsd>  (16) 
3.406981215482376

>  <m_score__min__rmsd>  (16) 
3.406981215482376

>  <meeko>  (16) 
{"free_energy": -7.97, "intermolecular_energy": -10.65, "internal_energy": -3.06, "cluster_size": 5, "cluster_id": 4, "rank_in_cluster": 2}

>  <energy>  (16) 
-8.8

>  <cluster_rmsd>  (16) 
0.22

>  <cluster>  (16) 
2

$$$$

     RDKit          3D

 60 63  0  0  0  0  0  0  0  0999 V2000
  139.6560   66.8340  220.2500 C   0  0  0  0  0  0  0  0  0  0  0  0
  138.8500   67.5900  221.1890 N   0  0  0  0  0  0  0  0  0  0  0  0
  137.8680   66.8920  221.9960 C   0  0  0  0  0  0  0  0  0  0  0  0
  136.4600   67.3610  221.8110 C   0  0  0  0  0  0  0  0  0  0  0  0
  136.2980   68.6670  222.3850 N   0  0  0  0  0  0  0  0  0  0  0  0
  135.2600   68.8150  223.3710 C   0  0  0  0  0  0  0  0  0  0  0  0
  134.6020   67.7710  223.6200 O   0  0  0  0  0  0  0  0  0  0  0  0
  134.9970   70.0880  224.0290 C   0  0  0  0  0  0  0  0  0  0  0  0
  134.2800   70.0540  225.2060 C   0  0  0  0  0  0  0  0  0  0  0  0
  133.9940   71.2280  225.8850 C   0  0  0  0  0  0  0  0  0  0  0  0
  134.4490   72.3950  225.3410 C   0  0  0  0  0  0  0  0  0  0  0  0
  134.1730   73.5730  226.0030 C   0  0  0  0  0  0  0  0  0  0  0  0
  134.6190   74.7480  225.4740 C   0  0  0  0  0  0  0  0  0  0  0  0
  134.3640   75.9380  226.1050 F   0  0  0  0  0  0  0  0  0  0  0  0
  135.3380   74.7810  224.2930 C   0  0  0  0  0  0  0  0  0  0  0  0
  135.6320   73.6120  223.6020 C   0  0  0  0  0  0  0  0  0  0  0  0
  135.1720   72.4410  224.1550 C   0  0  0  0  0  0  0  0  0  0  0  0
  135.4210   71.2630  223.5350 N   0  0  0  0  0  0  0  0  0  0  0  0
  138.9570   69.0000  221.3530 C   0  0  0  0  0  0  0  0  0  0  0  0
  138.6260   69.7590  220.3610 O   0  0  0  0  0  0  0  0  0  0  0  0
  139.4100   69.6940  222.5520 C   0  0  1  0  0  0  0  0  0  0  0  0
  140.1900   70.9610  222.2590 C   0  0  0  0  0  0  0  0  0  0  0  0
  139.1060   72.0370  222.4120 C   0  0  2  0  0  0  0  0  0  0  0  0
  139.7060   73.2660  222.7040 O   0  0  0  0  0  0  0  0  0  0  0  0
  138.3610   71.4960  223.6070 C   0  0  0  0  0  0  0  0  0  0  0  0
  138.4410   70.0710  223.5160 N   0  0  0  0  0  0  0  0  0  0  0  0
  138.6300   69.3180  225.0460 S   0  0  0  0  0  0  0  0  0  0  0  0
  137.2660   69.2480  225.6940 O   0  0  0  0  0  0  0  0  0  0  0  0
  139.1560   67.9380  224.9670 O   0  0  0  0  0  0  0  0  0  0  0  0
  139.6570   70.2270  226.1330 C   0  0  0  0  0  0  0  0  0  0  0  0
  140.5490   71.1890  225.6930 C   0  0  0  0  0  0  0  0  0  0  0  0
  141.3580   71.9070  226.5490 C   0  0  0  0  0  0  0  0  0  0  0  0
  141.2820   71.6610  227.9040 C   0  0  0  0  0  0  0  0  0  0  0  0
  140.3940   70.7030  228.3370 C   0  0  0  0  0  0  0  0  0  0  0  0
  139.5840   69.9820  227.5050 C   0  0  0  0  0  0  0  0  0  0  0  0
  140.3496   66.1834  220.8029 H   0  0  0  0  0  0  0  0  0  0  0  0
  139.0005   66.2175  219.6174 H   0  0  0  0  0  0  0  0  0  0  0  0
  140.2293   67.5276  219.6174 H   0  0  0  0  0  0  0  0  0  0  0  0
  137.9099   65.8234  221.7384 H   0  0  0  0  0  0  0  0  0  0  0  0
  138.1276   67.0946  223.0455 H   0  0  0  0  0  0  0  0  0  0  0  0
  136.2286   67.4041  220.7365 H   0  0  0  0  0  0  0  0  0  0  0  0
  135.7769   66.6592  222.3119 H   0  0  0  0  0  0  0  0  0  0  0  0
  136.8510   69.5150  222.1680 H   0  0  0  0  0  0  0  0  0  0  0  0
  133.9333   69.0906  225.6081 H   0  0  0  0  0  0  0  0  0  0  0  0
  133.4230   71.2200  226.8251 H   0  0  0  0  0  0  0  0  0  0  0  0
  133.6020   73.5648  226.9431 H   0  0  0  0  0  0  0  0  0  0  0  0
  135.6821   75.7470  223.8949 H   0  0  0  0  0  0  0  0  0  0  0  0
  136.2029   73.6232  222.6618 H   0  0  0  0  0  0  0  0  0  0  0  0
  140.0261   68.8912  222.9833 H   0  0  0  0  0  0  0  0  0  0  0  0
  141.0047   71.1068  222.9836 H   0  0  0  0  0  0  0  0  0  0  0  0
  140.6853   70.9630  221.2768 H   0  0  0  0  0  0  0  0  0  0  0  0
  138.4766   72.2144  221.5275 H   0  0  0  0  0  0  0  0  0  0  0  0
  139.0110   73.8630  223.0890 H   0  0  0  0  0  0  0  0  0  0  0  0
  138.8298   71.8454  224.5387 H   0  0  0  0  0  0  0  0  0  0  0  0
  137.3158   71.8388  223.6164 H   0  0  0  0  0  0  0  0  0  0  0  0
  140.6159   71.3899  224.6136 H   0  0  0  0  0  0  0  0  0  0  0  0
  142.0531   72.6641  226.1570 H   0  0  0  0  0  0  0  0  0  0  0  0
  141.9119   72.2136  228.6167 H   0  0  0  0  0  0  0  0  0  0  0  0
  140.3324   70.5057  229.4174 H   0  0  0  0  0  0  0  0  0  0  0  0
  138.8918   69.2274  227.9068 H   0  0  0  0  0  0  0  0  0  0  0  0
  1  2  1  0
  2  3  1  0
  3  4  1  0
  4  5  1  0
  5  6  1  0
  6  7  2  0
  6  8  1  0
  8  9  2  0
  9 10  1  0
 10 11  2  0
 11 12  1  0
 12 13  2  0
 13 14  1  0
 13 15  1  0
 15 16  2  0
 16 17  1  0
 17 18  2  0
  2 19  1  0
 19 20  2  0
 19 21  1  0
 21 22  1  0
 22 23  1  0
 23 24  1  0
 23 25  1  0
 25 26  1  0
 26 27  1  0
 27 28  2  0
 27 29  2  0
 27 30  1  0
 30 31  2  0
 31 32  1  0
 32 33  2  0
 33 34  1  0
 34 35  2  0
 18  8  1  0
 26 21  1  0
 35 30  1  0
 17 11  1  0
  1 36  1  0
  1 37  1  0
  1 38  1  0
  3 39  1  0
  3 40  1  0
  4 41  1  0
  4 42  1  0
  5 43  1  0
  9 44  1  0
 10 45  1  0
 12 46  1  0
 15 47  1  0
 16 48  1  0
 21 49  1  1
 22 50  1  0
 22 51  1  0
 23 52  1  6
 24 53  1  0
 25 54  1  0
 25 55  1  0
 31 56  1  0
 32 57  1  0
 33 58  1  0
 34 59  1  0
 35 60  1  0
M  END
>  <smiles>  (17) 
CN(CCNC(=O)c1ccc2cc(F)ccc2n1)C(=O)[C@H]1C[C@H](O)CN1S(=O)(=O)c1ccccc1

>  <score_type>  (17) 
oracle

>  <origin>  (17) 
autodockgpu

>  <m_score__min__energy>  (17) 
-9.1999999999999993

>  <m_primary>  (17) 
energy

>  <rmsd>  (17) 
7.220067473258607

>  <m_score__min__rmsd>  (17) 
7.220067473258607

>  <meeko>  (17) 
{"free_energy": -7.83, "intermolecular_energy": -10.51, "internal_energy": -4.14, "cluster_size": 6, "cluster_id": 5, "rank_in_cluster": 2}

>  <energy>  (17) 
-8.69

>  <cluster_rmsd>  (17) 
1.29

>  <cluster>  (17) 
2

$$$$

     RDKit          3D

 60 63  0  0  0  0  0  0  0  0999 V2000
  143.4680   76.3750  219.7340 C   0  0  0  0  0  0  0  0  0  0  0  0
  142.6910   75.1650  219.5430 N   0  0  0  0  0  0  0  0  0  0  0  0
  141.5160   74.9450  220.3640 C   0  0  0  0  0  0  0  0  0  0  0  0
  140.6320   73.8300  219.9030 C   0  0  0  0  0  0  0  0  0  0  0  0
  140.7060   72.7320  220.8250 N   0  0  0  0  0  0  0  0  0  0  0  0
  140.1300   72.9420  222.1260 C   0  0  0  0  0  0  0  0  0  0  0  0
  139.6220   74.0790  222.3130 O   0  0  0  0  0  0  0  0  0  0  0  0
  140.1390   71.9060  223.1510 C   0  0  0  0  0  0  0  0  0  0  0  0
  139.6370   70.6710  222.8030 C   0  0  0  0  0  0  0  0  0  0  0  0
  139.6150   69.6380  223.7290 C   0  0  0  0  0  0  0  0  0  0  0  0
  140.1070   69.9020  224.9740 C   0  0  0  0  0  0  0  0  0  0  0  0
  140.0940   68.8870  225.9080 C   0  0  0  0  0  0  0  0  0  0  0  0
  140.5810   69.1320  227.1580 C   0  0  0  0  0  0  0  0  0  0  0  0
  140.5840   68.1480  228.1110 F   0  0  0  0  0  0  0  0  0  0  0  0
  141.0850   70.3730  227.5060 C   0  0  0  0  0  0  0  0  0  0  0  0
  141.1120   71.4160  226.5880 C   0  0  0  0  0  0  0  0  0  0  0  0
  140.6160   71.1440  225.3360 C   0  0  0  0  0  0  0  0  0  0  0  0
  140.6110   72.1140  224.3910 N   0  0  0  0  0  0  0  0  0  0  0  0
  143.0300   74.1600  218.5930 C   0  0  0  0  0  0  0  0  0  0  0  0
  142.7050   74.3510  217.3570 O   0  0  0  0  0  0  0  0  0  0  0  0
  143.7250   72.9100  218.8760 C   0  0  1  0  0  0  0  0  0  0  0  0
  145.1760   73.1020  219.2730 C   0  0  0  0  0  0  0  0  0  0  0  0
  145.0900   73.0500  220.8050 C   0  0  2  0  0  0  0  0  0  0  0  0
  146.3330   72.6800  221.3290 O   0  0  0  0  0  0  0  0  0  0  0  0
  144.0750   71.9480  220.9770 C   0  0  0  0  0  0  0  0  0  0  0  0
  143.1820   72.0490  219.8630 N   0  0  0  0  0  0  0  0  0  0  0  0
  142.6810   70.5190  219.2720 S   0  0  0  0  0  0  0  0  0  0  0  0
  141.6160   69.9920  220.2090 O   0  0  0  0  0  0  0  0  0  0  0  0
  142.0950   70.5680  217.9170 O   0  0  0  0  0  0  0  0  0  0  0  0
  143.9700   69.3350  219.2620 C   0  0  0  0  0  0  0  0  0  0  0  0
  145.3010   69.6760  219.1000 C   0  0  0  0  0  0  0  0  0  0  0  0
  146.3180   68.7440  219.0930 C   0  0  0  0  0  0  0  0  0  0  0  0
  146.0030   67.4110  219.2520 C   0  0  0  0  0  0  0  0  0  0  0  0
  144.6780   67.0750  219.4120 C   0  0  0  0  0  0  0  0  0  0  0  0
  143.6570   67.9840  219.4230 C   0  0  0  0  0  0  0  0  0  0  0  0
  143.5906   76.5659  220.8103 H   0  0  0  0  0  0  0  0  0  0  0  0
  144.4570   76.2530  219.2682 H   0  0  0  0  0  0  0  0  0  0  0  0
  142.9456   77.2236  219.2682 H   0  0  0  0  0  0  0  0  0  0  0  0
  141.8504   74.7168  221.3868 H   0  0  0  0  0  0  0  0  0  0  0  0
  140.9156   75.8645  220.3003 H   0  0  0  0  0  0  0  0  0  0  0  0
  139.5936   74.1883  219.8456 H   0  0  0  0  0  0  0  0  0  0  0  0
  140.9650   73.4916  218.9107 H   0  0  0  0  0  0  0  0  0  0  0  0
  141.1270   71.8030  220.6520 H   0  0  0  0  0  0  0  0  0  0  0  0
  139.2519   70.5032  221.7864 H   0  0  0  0  0  0  0  0  0  0  0  0
  139.2169   68.6459  223.4698 H   0  0  0  0  0  0  0  0  0  0  0  0
  139.6967   67.8947  225.6484 H   0  0  0  0  0  0  0  0  0  0  0  0
  141.4697   70.5361  228.5236 H   0  0  0  0  0  0  0  0  0  0  0  0
  141.5097   72.4075  226.8501 H   0  0  0  0  0  0  0  0  0  0  0  0
  143.6004   72.4266  217.8958 H   0  0  0  0  0  0  0  0  0  0  0  0
  145.8096   72.2935  218.8794 H   0  0  0  0  0  0  0  0  0  0  0  0
  145.6269   74.0263  218.8825 H   0  0  0  0  0  0  0  0  0  0  0  0
  144.8236   73.9931  221.3045 H   0  0  0  0  0  0  0  0  0  0  0  0
  146.1870   71.9270  221.9620 H   0  0  0  0  0  0  0  0  0  0  0  0
  144.5735   70.9674  220.9782 H   0  0  0  0  0  0  0  0  0  0  0  0
  143.5370   72.0445  221.9316 H   0  0  0  0  0  0  0  0  0  0  0  0
  145.5598   70.7373  218.9711 H   0  0  0  0  0  0  0  0  0  0  0  0
  147.3638   69.0592  218.9626 H   0  0  0  0  0  0  0  0  0  0  0  0
  146.7871   66.6395  219.2510 H   0  0  0  0  0  0  0  0  0  0  0  0
  144.4255   66.0119  219.5386 H   0  0  0  0  0  0  0  0  0  0  0  0
  142.6145   67.6590  219.5555 H   0  0  0  0  0  0  0  0  0  0  0  0
  1  2  1  0
  2  3  1  0
  3  4  1  0
  4  5  1  0
  5  6  1  0
  6  7  2  0
  6  8  1  0
  8  9  2  0
  9 10  1  0
 10 11  2  0
 11 12  1  0
 12 13  2  0
 13 14  1  0
 13 15  1  0
 15 16  2  0
 16 17  1  0
 17 18  2  0
  2 19  1  0
 19 20  2  0
 19 21  1  0
 21 22  1  0
 22 23  1  0
 23 24  1  0
 23 25  1  0
 25 26  1  0
 26 27  1  0
 27 28  2  0
 27 29  2  0
 27 30  1  0
 30 31  2  0
 31 32  1  0
 32 33  2  0
 33 34  1  0
 34 35  2  0
 18  8  1  0
 26 21  1  0
 35 30  1  0
 17 11  1  0
  1 36  1  0
  1 37  1  0
  1 38  1  0
  3 39  1  0
  3 40  1  0
  4 41  1  0
  4 42  1  0
  5 43  1  0
  9 44  1  0
 10 45  1  0
 12 46  1  0
 15 47  1  0
 16 48  1  0
 21 49  1  6
 22 50  1  0
 22 51  1  0
 23 52  1  1
 24 53  1  0
 25 54  1  0
 25 55  1  0
 31 56  1  0
 32 57  1  0
 33 58  1  0
 34 59  1  0
 35 60  1  0
M  END
>  <smiles>  (18) 
CN(CCNC(=O)c1ccc2cc(F)ccc2n1)C(=O)[C@H]1C[C@H](O)CN1S(=O)(=O)c1ccccc1

>  <score_type>  (18) 
oracle

>  <origin>  (18) 
autodockgpu

>  <m_score__min__energy>  (18) 
-9.1999999999999993

>  <m_primary>  (18) 
energy

>  <rmsd>  (18) 
3.817963409586881

>  <m_score__min__rmsd>  (18) 
3.817963409586881

>  <meeko>  (18) 
{"free_energy": -7.76, "intermolecular_energy": -10.45, "internal_energy": -3.66, "cluster_size": 1, "cluster_id": 7, "rank_in_cluster": 1}

>  <energy>  (18) 
-8.64

>  <cluster_rmsd>  (18) 
1.19

>  <cluster>  (18) 
2

$$$$

     RDKit          3D

 60 63  0  0  0  0  0  0  0  0999 V2000
  137.6540   75.0120  219.7550 C   0  0  0  0  0  0  0  0  0  0  0  0
  137.5270   74.2940  221.0090 N   0  0  0  0  0  0  0  0  0  0  0  0
  136.2060   74.0810  221.5670 C   0  0  0  0  0  0  0  0  0  0  0  0
  135.8530   74.9920  222.7000 C   0  0  0  0  0  0  0  0  0  0  0  0
  136.9740   75.8300  223.0230 N   0  0  0  0  0  0  0  0  0  0  0  0
  136.8650   77.2200  222.6680 C   0  0  0  0  0  0  0  0  0  0  0  0
  135.7880   77.5490  222.1060 O   0  0  0  0  0  0  0  0  0  0  0  0
  137.9330   78.1730  222.9430 C   0  0  0  0  0  0  0  0  0  0  0  0
  137.5620   79.4600  223.2630 C   0  0  0  0  0  0  0  0  0  0  0  0
  138.5270   80.4190  223.5370 C   0  0  0  0  0  0  0  0  0  0  0  0
  139.8340   80.0280  223.4760 C   0  0  0  0  0  0  0  0  0  0  0  0
  140.8070   80.9680  223.7450 C   0  0  0  0  0  0  0  0  0  0  0  0
  142.1180   80.5970  223.6880 C   0  0  0  0  0  0  0  0  0  0  0  0
  143.1110   81.5040  223.9500 F   0  0  0  0  0  0  0  0  0  0  0  0
  142.4880   79.3040  223.3670 C   0  0  0  0  0  0  0  0  0  0  0  0
  141.5320   78.3340  223.0900 C   0  0  0  0  0  0  0  0  0  0  0  0
  140.2180   78.7320  223.1540 C   0  0  0  0  0  0  0  0  0  0  0  0
  139.2340   77.8400  222.8960 N   0  0  0  0  0  0  0  0  0  0  0  0
  138.6420   73.7940  221.7400 C   0  0  0  0  0  0  0  0  0  0  0  0
  139.3820   74.6390  222.3790 O   0  0  0  0  0  0  0  0  0  0  0  0
  139.0430   72.3970  221.8480 C   0  0  1  0  0  0  0  0  0  0  0  0
  139.7650   71.8800  220.6190 C   0  0  0  0  0  0  0  0  0  0  0  0
  141.2350   72.0200  221.0390 C   0  0  2  0  0  0  0  0  0  0  0  0
  142.0190   71.1330  220.2940 O   0  0  0  0  0  0  0  0  0  0  0  0
  141.1420   71.5890  222.4810 C   0  0  0  0  0  0  0  0  0  0  0  0
  139.8580   72.0160  222.9440 N   0  0  0  0  0  0  0  0  0  0  0  0
  139.1290   70.8880  224.0110 S   0  0  0  0  0  0  0  0  0  0  0  0
  137.6970   71.3240  224.2290 O   0  0  0  0  0  0  0  0  0  0  0  0
  139.0970   69.5070  223.4850 O   0  0  0  0  0  0  0  0  0  0  0  0
  139.8870   70.8500  225.5880 C   0  0  0  0  0  0  0  0  0  0  0  0
  140.7210   71.8550  226.0430 C   0  0  0  0  0  0  0  0  0  0  0  0
  141.3200   71.8270  227.2860 C   0  0  0  0  0  0  0  0  0  0  0  0
  141.0810   70.7530  228.1170 C   0  0  0  0  0  0  0  0  0  0  0  0
  140.2520   69.7540  227.6600 C   0  0  0  0  0  0  0  0  0  0  0  0
  139.6500   69.7650  226.4330 C   0  0  0  0  0  0  0  0  0  0  0  0
  137.8423   76.0763  219.9593 H   0  0  0  0  0  0  0  0  0  0  0  0
  138.4924   74.5956  219.1774 H   0  0  0  0  0  0  0  0  0  0  0  0
  136.7236   74.9085  219.1774 H   0  0  0  0  0  0  0  0  0  0  0  0
  135.4673   74.2286  220.7654 H   0  0  0  0  0  0  0  0  0  0  0  0
  136.2017   73.0598  221.9758 H   0  0  0  0  0  0  0  0  0  0  0  0
  134.9992   75.6216  222.4090 H   0  0  0  0  0  0  0  0  0  0  0  0
  135.5877   74.3880  223.5803 H   0  0  0  0  0  0  0  0  0  0  0  0
  137.8530   75.5400  223.4860 H   0  0  0  0  0  0  0  0  0  0  0  0
  136.4961   79.7291  223.3016 H   0  0  0  0  0  0  0  0  0  0  0  0
  138.2502   81.4524  223.7930 H   0  0  0  0  0  0  0  0  0  0  0  0
  140.5297   82.0011  224.0016 H   0  0  0  0  0  0  0  0  0  0  0  0
  143.5550   79.0391  223.3303 H   0  0  0  0  0  0  0  0  0  0  0  0
  141.8123   77.3018  222.8330 H   0  0  0  0  0  0  0  0  0  0  0  0
  138.0483   71.9497  221.9912 H   0  0  0  0  0  0  0  0  0  0  0  0
  139.5051   70.8312  220.4129 H   0  0  0  0  0  0  0  0  0  0  0  0
  139.5121   72.4180  219.6935 H   0  0  0  0  0  0  0  0  0  0  0  0
  141.6853   73.0127  220.8916 H   0  0  0  0  0  0  0  0  0  0  0  0
  142.3550   71.6190  219.4940 H   0  0  0  0  0  0  0  0  0  0  0  0
  141.2307   70.4953  222.5584 H   0  0  0  0  0  0  0  0  0  0  0  0
  141.9511   72.0280  223.0831 H   0  0  0  0  0  0  0  0  0  0  0  0
  140.9155   72.7148  225.3850 H   0  0  0  0  0  0  0  0  0  0  0  0
  141.9773   72.6480  227.6085 H   0  0  0  0  0  0  0  0  0  0  0  0
  141.5392   70.6963  229.1154 H   0  0  0  0  0  0  0  0  0  0  0  0
  140.0627   68.8958  228.3215 H   0  0  0  0  0  0  0  0  0  0  0  0
  138.9948   68.9390  226.1193 H   0  0  0  0  0  0  0  0  0  0  0  0
  1  2  1  0
  2  3  1  0
  3  4  1  0
  4  5  1  0
  5  6  1  0
  6  7  2  0
  6  8  1  0
  8  9  2  0
  9 10  1  0
 10 11  2  0
 11 12  1  0
 12 13  2  0
 13 14  1  0
 13 15  1  0
 15 16  2  0
 16 17  1  0
 17 18  2  0
  2 19  1  0
 19 20  2  0
 19 21  1  0
 21 22  1  0
 22 23  1  0
 23 24  1  0
 23 25  1  0
 25 26  1  0
 26 27  1  0
 27 28  2  0
 27 29  2  0
 27 30  1  0
 30 31  2  0
 31 32  1  0
 32 33  2  0
 33 34  1  0
 34 35  2  0
 18  8  1  0
 26 21  1  0
 35 30  1  0
 17 11  1  0
  1 36  1  0
  1 37  1  0
  1 38  1  0
  3 39  1  0
  3 40  1  0
  4 41  1  0
  4 42  1  0
  5 43  1  0
  9 44  1  0
 10 45  1  0
 12 46  1  0
 15 47  1  0
 16 48  1  0
 21 49  1  1
 22 50  1  0
 22 51  1  0
 23 52  1  1
 24 53  1  0
 25 54  1  0
 25 55  1  0
 31 56  1  0
 32 57  1  0
 33 58  1  0
 34 59  1  0
 35 60  1  0
M  END
>  <smiles>  (19) 
CN(CCNC(=O)c1ccc2cc(F)ccc2n1)C(=O)[C@H]1C[C@H](O)CN1S(=O)(=O)c1ccccc1

>  <score_type>  (19) 
oracle

>  <origin>  (19) 
autodockgpu

>  <m_score__min__energy>  (19) 
-9.1999999999999993

>  <m_primary>  (19) 
energy

>  <rmsd>  (19) 
8.110248191189596

>  <m_score__min__rmsd>  (19) 
8.110248191189596

>  <meeko>  (19) 
{"free_energy": -7.78, "intermolecular_energy": -10.46, "internal_energy": -2.74, "cluster_size": 3, "cluster_id": 3, "rank_in_cluster": 3}

>  <energy>  (19) 
-8.59

>  <cluster_rmsd>  (19) 
0.57

>  <cluster>  (19) 
2

$$$$

     RDKit          3D

 60 63  0  0  0  0  0  0  0  0999 V2000
  137.2110   75.2850  222.4560 C   0  0  0  0  0  0  0  0  0  0  0  0
  138.2710   74.8990  221.5430 N   0  0  0  0  0  0  0  0  0  0  0  0
  137.9460   74.0720  220.3970 C   0  0  0  0  0  0  0  0  0  0  0  0
  137.9840   72.6000  220.6600 C   0  0  0  0  0  0  0  0  0  0  0  0
  138.7280   72.3350  221.8600 N   0  0  0  0  0  0  0  0  0  0  0  0
  138.3670   71.1520  222.5960 C   0  0  0  0  0  0  0  0  0  0  0  0
  137.4290   70.4760  222.1000 O   0  0  0  0  0  0  0  0  0  0  0  0
  139.0470   70.7730  223.8280 C   0  0  0  0  0  0  0  0  0  0  0  0
  139.9450   71.6730  224.3560 C   0  0  0  0  0  0  0  0  0  0  0  0
  140.6260   71.3770  225.5270 C   0  0  0  0  0  0  0  0  0  0  0  0
  140.3670   70.1730  226.1170 C   0  0  0  0  0  0  0  0  0  0  0  0
  141.0350   69.8610  227.2820 C   0  0  0  0  0  0  0  0  0  0  0  0
  140.7890   68.6630  227.8850 C   0  0  0  0  0  0  0  0  0  0  0  0
  141.4350   68.3200  229.0440 F   0  0  0  0  0  0  0  0  0  0  0  0
  139.8870   67.7600  227.3530 C   0  0  0  0  0  0  0  0  0  0  0  0
  139.1970   68.0440  226.1800 C   0  0  0  0  0  0  0  0  0  0  0  0
  139.4630   69.2570  225.5920 C   0  0  0  0  0  0  0  0  0  0  0  0
  138.8270   69.6010  224.4470 N   0  0  0  0  0  0  0  0  0  0  0  0
  139.6320   75.2790  221.7190 C   0  0  0  0  0  0  0  0  0  0  0  0
  140.4900   74.3590  222.0170 O   0  0  0  0  0  0  0  0  0  0  0  0
  140.1710   76.6270  221.5950 C   0  0  1  0  0  0  0  0  0  0  0  0
  141.4870   76.6840  220.8430 C   0  0  0  0  0  0  0  0  0  0  0  0
  141.0220   77.0640  219.4300 C   0  0  2  0  0  0  0  0  0  0  0  0
  142.0760   77.6720  218.7400 O   0  0  0  0  0  0  0  0  0  0  0  0
  139.9420   78.0620  219.7640 C   0  0  0  0  0  0  0  0  0  0  0  0
  139.3580   77.6220  220.9940 N   0  0  0  0  0  0  0  0  0  0  0  0
  138.9430   78.9210  222.0340 S   0  0  0  0  0  0  0  0  0  0  0  0
  138.2370   79.9680  221.2010 O   0  0  0  0  0  0  0  0  0  0  0  0
  138.0290   78.5360  223.1300 O   0  0  0  0  0  0  0  0  0  0  0  0
  140.3390   79.7020  222.7440 C   0  0  0  0  0  0  0  0  0  0  0  0
  140.7070   81.0010  222.4400 C   0  0  0  0  0  0  0  0  0  0  0  0
  141.8070   81.6180  223.0000 C   0  0  0  0  0  0  0  0  0  0  0  0
  142.5790   80.9160  223.9010 C   0  0  0  0  0  0  0  0  0  0  0  0
  142.2110   79.6240  224.2000 C   0  0  0  0  0  0  0  0  0  0  0  0
  141.1250   78.9970  223.6570 C   0  0  0  0  0  0  0  0  0  0  0  0
  137.5562   75.1593  223.4928 H   0  0  0  0  0  0  0  0  0  0  0  0
  136.9440   76.3381  222.2836 H   0  0  0  0  0  0  0  0  0  0  0  0
  136.3293   74.6502  222.2836 H   0  0  0  0  0  0  0  0  0  0  0  0
  136.9319   74.3344  220.0612 H   0  0  0  0  0  0  0  0  0  0  0  0
  138.7173   74.2730  219.6389 H   0  0  0  0  0  0  0  0  0  0  0  0
  136.9569   72.2242  220.7776 H   0  0  0  0  0  0  0  0  0  0  0  0
  138.4714   72.0941  219.8135 H   0  0  0  0  0  0  0  0  0  0  0  0
  139.4980   72.9040  222.2520 H   0  0  0  0  0  0  0  0  0  0  0  0
  140.1231   72.6315  223.8465 H   0  0  0  0  0  0  0  0  0  0  0  0
  141.3466   72.0842  225.9636 H   0  0  0  0  0  0  0  0  0  0  0  0
  141.7558   70.5680  227.7186 H   0  0  0  0  0  0  0  0  0  0  0  0
  139.7128   66.8025  227.8657 H   0  0  0  0  0  0  0  0  0  0  0  0
  138.4765   67.3353  225.7457 H   0  0  0  0  0  0  0  0  0  0  0  0
  140.2677   76.8656  222.6645 H   0  0  0  0  0  0  0  0  0  0  0  0
  142.1565   77.4485  221.2639 H   0  0  0  0  0  0  0  0  0  0  0  0
  142.0667   75.7502  220.8862 H   0  0  0  0  0  0  0  0  0  0  0  0
  140.6883   76.2311  218.7937 H   0  0  0  0  0  0  0  0  0  0  0  0
  141.9080   77.5630  217.7660 H   0  0  0  0  0  0  0  0  0  0  0  0
  140.3749   79.0660  219.8851 H   0  0  0  0  0  0  0  0  0  0  0  0
  139.1907   78.1226  218.9628 H   0  0  0  0  0  0  0  0  0  0  0  0
  140.0961   81.5662  221.7207 H   0  0  0  0  0  0  0  0  0  0  0  0
  142.0638   82.6534  222.7318 H   0  0  0  0  0  0  0  0  0  0  0  0
  143.4632   81.3751  224.3673 H   0  0  0  0  0  0  0  0  0  0  0  0
  142.8272   79.0632  224.9182 H   0  0  0  0  0  0  0  0  0  0  0  0
  140.8762   77.9616  223.9328 H   0  0  0  0  0  0  0  0  0  0  0  0
  1  2  1  0
  2  3  1  0
  3  4  1  0
  4  5  1  0
  5  6  1  0
  6  7  2  0
  6  8  1  0
  8  9  2  0
  9 10  1  0
 10 11  2  0
 11 12  1  0
 12 13  2  0
 13 14  1  0
 13 15  1  0
 15 16  2  0
 16 17  1  0
 17 18  2  0
  2 19  1  0
 19 20  2  0
 19 21  1  0
 21 22  1  0
 22 23  1  0
 23 24  1  0
 23 25  1  0
 25 26  1  0
 26 27  1  0
 27 28  2  0
 27 29  2  0
 27 30  1  0
 30 31  2  0
 31 32  1  0
 32 33  2  0
 33 34  1  0
 34 35  2  0
 18  8  1  0
 26 21  1  0
 35 30  1  0
 17 11  1  0
  1 36  1  0
  1 37  1  0
  1 38  1  0
  3 39  1  0
  3 40  1  0
  4 41  1  0
  4 42  1  0
  5 43  1  0
  9 44  1  0
 10 45  1  0
 12 46  1  0
 15 47  1  0
 16 48  1  0
 21 49  1  1
 22 50  1  0
 22 51  1  0
 23 52  1  6
 24 53  1  0
 25 54  1  0
 25 55  1  0
 31 56  1  0
 32 57  1  0
 33 58  1  0
 34 59  1  0
 35 60  1  0
M  END
>  <smiles>  (20) 
CN(CCNC(=O)c1ccc2cc(F)ccc2n1)C(=O)[C@H]1C[C@H](O)CN1S(=O)(=O)c1ccccc1

>  <score_type>  (20) 
oracle

>  <origin>  (20) 
autodockgpu

>  <m_score__min__energy>  (20) 
-9.1999999999999993

>  <m_primary>  (20) 
energy

>  <rmsd>  (20) 
3.2369631051223626

>  <m_score__min__rmsd>  (20) 
3.2369631051223626

>  <meeko>  (20) 
{"free_energy": -7.8, "intermolecular_energy": -10.49, "internal_energy": -2.68, "cluster_size": 10, "cluster_id": 2, "rank_in_cluster": 10}

>  <energy>  (20) 
-8.55

>  <cluster_rmsd>  (20) 
1.35

>  <cluster>  (20) 
2

$$$$

     RDKit          3D

 60 63  0  0  0  0  0  0  0  0999 V2000
  144.0360   72.8980  215.3320 C   0  0  0  0  0  0  0  0  0  0  0  0
  144.4420   73.8140  216.3810 N   0  0  0  0  0  0  0  0  0  0  0  0
  144.3100   75.2410  216.1580 C   0  0  0  0  0  0  0  0  0  0  0  0
  142.9090   75.7580  216.2410 C   0  0  0  0  0  0  0  0  0  0  0  0
  142.7120   76.4430  217.4880 N   0  0  0  0  0  0  0  0  0  0  0  0
  142.4640   77.8590  217.4140 C   0  0  0  0  0  0  0  0  0  0  0  0
  142.4490   78.3430  216.2520 O   0  0  0  0  0  0  0  0  0  0  0  0
  142.2460   78.6670  218.6070 C   0  0  0  0  0  0  0  0  0  0  0  0
  142.2720   80.0360  218.4550 C   0  0  0  0  0  0  0  0  0  0  0  0
  142.0720   80.8660  219.5480 C   0  0  0  0  0  0  0  0  0  0  0  0
  141.8520   80.2690  220.7560 C   0  0  0  0  0  0  0  0  0  0  0  0
  141.6520   81.0790  221.8550 C   0  0  0  0  0  0  0  0  0  0  0  0
  141.4310   80.5010  223.0700 C   0  0  0  0  0  0  0  0  0  0  0  0
  141.2270   81.2740  224.1830 F   0  0  0  0  0  0  0  0  0  0  0  0
  141.4050   79.1260  223.2220 C   0  0  0  0  0  0  0  0  0  0  0  0
  141.6040   78.2830  222.1340 C   0  0  0  0  0  0  0  0  0  0  0  0
  141.8240   78.8890  220.9210 C   0  0  0  0  0  0  0  0  0  0  0  0
  142.0260   78.1300  219.8190 N   0  0  0  0  0  0  0  0  0  0  0  0
  144.9850   73.3870  217.6260 C   0  0  0  0  0  0  0  0  0  0  0  0
  146.2550   73.1570  217.6920 O   0  0  0  0  0  0  0  0  0  0  0  0
  144.2420   73.1800  218.8620 C   0  0  1  0  0  0  0  0  0  0  0  0
  145.0120   72.3950  219.9060 C   0  0  0  0  0  0  0  0  0  0  0  0
  145.5760   73.5180  220.7880 C   0  0  2  0  0  0  0  0  0  0  0  0
  145.8540   73.0150  222.0630 O   0  0  0  0  0  0  0  0  0  0  0  0
  144.3940   74.4540  220.8160 C   0  0  0  0  0  0  0  0  0  0  0  0
  143.7470   74.3200  219.5470 N   0  0  0  0  0  0  0  0  0  0  0  0
  142.0380   74.3930  219.6610 S   0  0  0  0  0  0  0  0  0  0  0  0
  141.6780   75.7060  220.3200 O   0  0  0  0  0  0  0  0  0  0  0  0
  141.3530   74.3520  218.3520 O   0  0  0  0  0  0  0  0  0  0  0  0
  141.3650   73.1270  220.6650 C   0  0  0  0  0  0  0  0  0  0  0  0
  140.8860   73.3570  221.9410 C   0  0  0  0  0  0  0  0  0  0  0  0
  140.3550   72.3600  222.7330 C   0  0  0  0  0  0  0  0  0  0  0  0
  140.2950   71.0750  222.2380 C   0  0  0  0  0  0  0  0  0  0  0  0
  140.7740   70.8500  220.9670 C   0  0  0  0  0  0  0  0  0  0  0  0
  141.3020   71.8240  220.1680 C   0  0  0  0  0  0  0  0  0  0  0  0
  143.6295   71.9808  215.7832 H   0  0  0  0  0  0  0  0  0  0  0  0
  143.2642   73.3732  214.7087 H   0  0  0  0  0  0  0  0  0  0  0  0
  144.9064   72.6453  214.7087 H   0  0  0  0  0  0  0  0  0  0  0  0
  144.9138   75.7636  216.9145 H   0  0  0  0  0  0  0  0  0  0  0  0
  144.6505   75.4282  215.1289 H   0  0  0  0  0  0  0  0  0  0  0  0
  142.7280   76.4552  215.4097 H   0  0  0  0  0  0  0  0  0  0  0  0
  142.2076   74.9130  216.1781 H   0  0  0  0  0  0  0  0  0  0  0  0
  142.7270   76.0270  218.4350 H   0  0  0  0  0  0  0  0  0  0  0  0
  142.4523   80.4730  217.4618 H   0  0  0  0  0  0  0  0  0  0  0  0
  142.0899   81.9611  219.4458 H   0  0  0  0  0  0  0  0  0  0  0  0
  141.6705   82.1741  221.7525 H   0  0  0  0  0  0  0  0  0  0  0  0
  141.2244   78.6937  224.2172 H   0  0  0  0  0  0  0  0  0  0  0  0
  141.5862   77.1882  222.2392 H   0  0  0  0  0  0  0  0  0  0  0  0
  143.3835   72.6311  218.4477 H   0  0  0  0  0  0  0  0  0  0  0  0
  144.3478   71.7309  220.4786 H   0  0  0  0  0  0  0  0  0  0  0  0
  145.7802   71.7288  219.4864 H   0  0  0  0  0  0  0  0  0  0  0  0
  146.5112   73.9799  220.4387 H   0  0  0  0  0  0  0  0  0  0  0  0
  145.8770   72.0230  222.0020 H   0  0  0  0  0  0  0  0  0  0  0  0
  143.7051   74.1738  221.6265 H   0  0  0  0  0  0  0  0  0  0  0  0
  144.7096   75.4921  220.9967 H   0  0  0  0  0  0  0  0  0  0  0  0
  140.9301   74.3801  222.3427 H   0  0  0  0  0  0  0  0  0  0  0  0
  139.9852   72.5870  223.7438 H   0  0  0  0  0  0  0  0  0  0  0  0
  139.8773   70.2545  222.8399 H   0  0  0  0  0  0  0  0  0  0  0  0
  140.7288   69.8246  220.5713 H   0  0  0  0  0  0  0  0  0  0  0  0
  141.6684   71.5875  219.1581 H   0  0  0  0  0  0  0  0  0  0  0  0
  1  2  1  0
  2  3  1  0
  3  4  1  0
  4  5  1  0
  5  6  1  0
  6  7  2  0
  6  8  1  0
  8  9  2  0
  9 10  1  0
 10 11  2  0
 11 12  1  0
 12 13  2  0
 13 14  1  0
 13 15  1  0
 15 16  2  0
 16 17  1  0
 17 18  2  0
  2 19  1  0
 19 20  2  0
 19 21  1  0
 21 22  1  0
 22 23  1  0
 23 24  1  0
 23 25  1  0
 25 26  1  0
 26 27  1  0
 27 28  2  0
 27 29  2  0
 27 30  1  0
 30 31  2  0
 31 32  1  0
 32 33  2  0
 33 34  1  0
 34 35  2  0
 18  8  1  0
 26 21  1  0
 35 30  1  0
 17 11  1  0
  1 36  1  0
  1 37  1  0
  1 38  1  0
  3 39  1  0
  3 40  1  0
  4 41  1  0
  4 42  1  0
  5 43  1  0
  9 44  1  0
 10 45  1  0
 12 46  1  0
 15 47  1  0
 16 48  1  0
 21 49  1  6
 22 50  1  0
 22 51  1  0
 23 52  1  6
 24 53  1  0
 25 54  1  0
 25 55  1  0
 31 56  1  0
 32 57  1  0
 33 58  1  0
 34 59  1  0
 35 60  1  0
M  END
>  <smiles>  (21) 
CN(CCNC(=O)c1ccc2cc(F)ccc2n1)C(=O)[C@H]1C[C@H](O)CN1S(=O)(=O)c1ccccc1

>  <score_type>  (21) 
oracle

>  <origin>  (21) 
autodockgpu

>  <m_score__min__energy>  (21) 
-9.1999999999999993

>  <m_primary>  (21) 
energy

>  <rmsd>  (21) 
9.403882849014916

>  <m_score__min__rmsd>  (21) 
9.403882849014916

>  <meeko>  (21) 
{"free_energy": -6.24, "intermolecular_energy": -8.92, "internal_energy": -4.32, "cluster_size": 1, "cluster_id": 14, "rank_in_cluster": 1}

>  <energy>  (21) 
-8.4

>  <cluster_rmsd>  (21) 
1.41

>  <cluster>  (21) 
2

$$$$

     RDKit          3D

 60 63  0  0  0  0  0  0  0  0999 V2000
  140.3330   66.9690  220.5510 C   0  0  0  0  0  0  0  0  0  0  0  0
  139.1280   67.7710  220.6360 N   0  0  0  0  0  0  0  0  0  0  0  0
  137.8450   67.1420  220.3840 C   0  0  0  0  0  0  0  0  0  0  0  0
  137.1570   66.6170  221.6030 C   0  0  0  0  0  0  0  0  0  0  0  0
  136.8440   67.6990  222.4940 N   0  0  0  0  0  0  0  0  0  0  0  0
  135.5540   68.3160  222.3320 C   0  0  0  0  0  0  0  0  0  0  0  0
  134.8390   67.8340  221.4160 O   0  0  0  0  0  0  0  0  0  0  0  0
  135.1170   69.4220  223.1740 C   0  0  0  0  0  0  0  0  0  0  0  0
  135.0910   70.6760  222.6050 C   0  0  0  0  0  0  0  0  0  0  0  0
  134.6850   71.7740  223.3490 C   0  0  0  0  0  0  0  0  0  0  0  0
  134.3180   71.5520  224.6450 C   0  0  0  0  0  0  0  0  0  0  0  0
  133.9120   72.6330  225.4000 C   0  0  0  0  0  0  0  0  0  0  0  0
  133.5420   72.4310  226.6980 C   0  0  0  0  0  0  0  0  0  0  0  0
  133.1320   73.4800  227.4770 F   0  0  0  0  0  0  0  0  0  0  0  0
  133.5680   71.1710  227.2680 C   0  0  0  0  0  0  0  0  0  0  0  0
  133.9730   70.0620  226.5340 C   0  0  0  0  0  0  0  0  0  0  0  0
  134.3410   70.2910  225.2290 C   0  0  0  0  0  0  0  0  0  0  0  0
  134.7460   69.2580  224.4550 N   0  0  0  0  0  0  0  0  0  0  0  0
  139.1330   69.1610  220.9420 C   0  0  0  0  0  0  0  0  0  0  0  0
  138.7790   69.9920  220.0180 O   0  0  0  0  0  0  0  0  0  0  0  0
  139.5040   69.7590  222.2190 C   0  0  1  0  0  0  0  0  0  0  0  0
  140.2360   71.0790  222.0770 C   0  0  0  0  0  0  0  0  0  0  0  0
  139.0980   72.0900  222.2780 C   0  0  2  0  0  0  0  0  0  0  0  0
  139.6290   73.3110  222.7060 O   0  0  0  0  0  0  0  0  0  0  0  0
  138.3300   71.4110  223.3830 C   0  0  0  0  0  0  0  0  0  0  0  0
  138.4790   70.0040  223.1680 N   0  0  0  0  0  0  0  0  0  0  0  0
  138.6390   69.1210  224.6290 S   0  0  0  0  0  0  0  0  0  0  0  0
  137.2540   68.9390  225.2090 O   0  0  0  0  0  0  0  0  0  0  0  0
  139.2250   67.7760  224.4500 O   0  0  0  0  0  0  0  0  0  0  0  0
  139.5820   69.9660  225.8380 C   0  0  0  0  0  0  0  0  0  0  0  0
  140.4860   70.9640  225.5210 C   0  0  0  0  0  0  0  0  0  0  0  0
  141.2290   71.6310  226.4730 C   0  0  0  0  0  0  0  0  0  0  0  0
  141.0710   71.2930  227.8000 C   0  0  0  0  0  0  0  0  0  0  0  0
  140.1720   70.2990  228.1110 C   0  0  0  0  0  0  0  0  0  0  0  0
  139.4260   69.6280  227.1830 C   0  0  0  0  0  0  0  0  0  0  0  0
  140.6883   66.7325  221.5648 H   0  0  0  0  0  0  0  0  0  0  0  0
  140.1148   66.0354  220.0118 H   0  0  0  0  0  0  0  0  0  0  0  0
  141.1100   67.5307  220.0118 H   0  0  0  0  0  0  0  0  0  0  0  0
  137.1858   67.8852  219.9117 H   0  0  0  0  0  0  0  0  0  0  0  0
  138.0461   66.2720  219.7416 H   0  0  0  0  0  0  0  0  0  0  0  0
  136.2276   66.1087  221.3064 H   0  0  0  0  0  0  0  0  0  0  0  0
  137.8226   65.9073  222.1162 H   0  0  0  0  0  0  0  0  0  0  0  0
  137.4470   68.0810  223.2430 H   0  0  0  0  0  0  0  0  0  0  0  0
  135.3936   70.8074  221.5556 H   0  0  0  0  0  0  0  0  0  0  0  0
  134.6598   72.7832  222.9122 H   0  0  0  0  0  0  0  0  0  0  0  0
  133.8869   73.6420  224.9626 H   0  0  0  0  0  0  0  0  0  0  0  0
  133.2637   71.0446  228.3175 H   0  0  0  0  0  0  0  0  0  0  0  0
  133.9978   69.0542  226.9741 H   0  0  0  0  0  0  0  0  0  0  0  0
  140.1380   68.9468  222.6041 H   0  0  0  0  0  0  0  0  0  0  0  0
  141.0129   71.1915  222.8476 H   0  0  0  0  0  0  0  0  0  0  0  0
  140.7703   71.1925  221.1222 H   0  0  0  0  0  0  0  0  0  0  0  0
  138.4976   72.3217  221.3859 H   0  0  0  0  0  0  0  0  0  0  0  0
  138.8840   73.8570  223.0740 H   0  0  0  0  0  0  0  0  0  0  0  0
  138.7429   71.6927  224.3629 H   0  0  0  0  0  0  0  0  0  0  0  0
  137.2707   71.7073  223.3750 H   0  0  0  0  0  0  0  0  0  0  0  0
  140.6181   71.2377  224.4638 H   0  0  0  0  0  0  0  0  0  0  0  0
  141.9363   72.4200  226.1778 H   0  0  0  0  0  0  0  0  0  0  0  0
  141.6465   71.8027  228.5868 H   0  0  0  0  0  0  0  0  0  0  0  0
  140.0461   70.0282  229.1697 H   0  0  0  0  0  0  0  0  0  0  0  0
  138.7204   68.8414  227.4885 H   0  0  0  0  0  0  0  0  0  0  0  0
  1  2  1  0
  2  3  1  0
  3  4  1  0
  4  5  1  0
  5  6  1  0
  6  7  2  0
  6  8  1  0
  8  9  2  0
  9 10  1  0
 10 11  2  0
 11 12  1  0
 12 13  2  0
 13 14  1  0
 13 15  1  0
 15 16  2  0
 16 17  1  0
 17 18  2  0
  2 19  1  0
 19 20  2  0
 19 21  1  0
 21 22  1  0
 22 23  1  0
 23 24  1  0
 23 25  1  0
 25 26  1  0
 26 27  1  0
 27 28  2  0
 27 29  2  0
 27 30  1  0
 30 31  2  0
 31 32  1  0
 32 33  2  0
 33 34  1  0
 34 35  2  0
 18  8  1  0
 26 21  1  0
 35 30  1  0
 17 11  1  0
  1 36  1  0
  1 37  1  0
  1 38  1  0
  3 39  1  0
  3 40  1  0
  4 41  1  0
  4 42  1  0
  5 43  1  0
  9 44  1  0
 10 45  1  0
 12 46  1  0
 15 47  1  0
 16 48  1  0
 21 49  1  1
 22 50  1  0
 22 51  1  0
 23 52  1  6
 24 53  1  0
 25 54  1  0
 25 55  1  0
 31 56  1  0
 32 57  1  0
 33 58  1  0
 34 59  1  0
 35 60  1  0
M  END
>  <smiles>  (22) 
CN(CCNC(=O)c1ccc2cc(F)ccc2n1)C(=O)[C@H]1C[C@H](O)CN1S(=O)(=O)c1ccccc1

>  <score_type>  (22) 
oracle

>  <origin>  (22) 
autodockgpu

>  <m_score__min__energy>  (22) 
-9.1999999999999993

>  <m_primary>  (22) 
energy

>  <rmsd>  (22) 
7.159893902937493

>  <m_score__min__rmsd>  (22) 
7.159893902937493

>  <meeko>  (22) 
{"free_energy": -6.96, "intermolecular_energy": -9.64, "internal_energy": -4.96, "cluster_size": 6, "cluster_id": 5, "rank_in_cluster": 5}

>  <energy>  (22) 
-8.18

>  <cluster_rmsd>  (22) 
1.82

>  <cluster>  (22) 
2

$$$$

     RDKit          3D

 60 63  0  0  0  0  0  0  0  0999 V2000
  136.9680   75.4990  222.6760 C   0  0  0  0  0  0  0  0  0  0  0  0
  137.9930   74.9530  221.8080 N   0  0  0  0  0  0  0  0  0  0  0  0
  137.5980   74.0940  220.7070 C   0  0  0  0  0  0  0  0  0  0  0  0
  137.2030   72.7090  221.1080 C   0  0  0  0  0  0  0  0  0  0  0  0
  137.9410   72.3050  222.2730 N   0  0  0  0  0  0  0  0  0  0  0  0
  137.8230   70.9260  222.6660 C   0  0  0  0  0  0  0  0  0  0  0  0
  137.0770   70.2210  221.9380 O   0  0  0  0  0  0  0  0  0  0  0  0
  138.5220   70.3930  223.8280 C   0  0  0  0  0  0  0  0  0  0  0  0
  138.5210   69.0250  223.9920 C   0  0  0  0  0  0  0  0  0  0  0  0
  139.1680   68.4500  225.0760 C   0  0  0  0  0  0  0  0  0  0  0  0
  139.7920   69.2900  225.9520 C   0  0  0  0  0  0  0  0  0  0  0  0
  140.4400   68.7350  227.0360 C   0  0  0  0  0  0  0  0  0  0  0  0
  141.0690   69.5590  227.9220 C   0  0  0  0  0  0  0  0  0  0  0  0
  141.7230   69.0430  229.0100 F   0  0  0  0  0  0  0  0  0  0  0  0
  141.0690   70.9320  227.7560 C   0  0  0  0  0  0  0  0  0  0  0  0
  140.4250   71.5220  226.6750 C   0  0  0  0  0  0  0  0  0  0  0  0
  139.7990   70.6710  225.7960 C   0  0  0  0  0  0  0  0  0  0  0  0
  139.1510   71.1760  224.7200 N   0  0  0  0  0  0  0  0  0  0  0  0
  139.3830   75.2010  221.9870 C   0  0  0  0  0  0  0  0  0  0  0  0
  140.1490   74.2030  222.2840 O   0  0  0  0  0  0  0  0  0  0  0  0
  140.0480   76.4920  221.8650 C   0  0  1  0  0  0  0  0  0  0  0  0
  141.4450   76.3990  221.2830 C   0  0  0  0  0  0  0  0  0  0  0  0
  141.1900   76.7310  219.8060 C   0  0  2  0  0  0  0  0  0  0  0  0
  142.3690   77.2100  219.2260 O   0  0  0  0  0  0  0  0  0  0  0  0
  140.1680   77.8300  219.9530 C   0  0  0  0  0  0  0  0  0  0  0  0
  139.4030   77.5110  221.1200 N   0  0  0  0  0  0  0  0  0  0  0  0
  138.9790   78.8990  222.0350 S   0  0  0  0  0  0  0  0  0  0  0  0
  138.3310   79.8880  221.0920 O   0  0  0  0  0  0  0  0  0  0  0  0
  138.0140   78.6220  223.1200 O   0  0  0  0  0  0  0  0  0  0  0  0
  140.3650   79.7060  222.7350 C   0  0  0  0  0  0  0  0  0  0  0  0
  141.2080   79.0940  223.6450 C   0  0  0  0  0  0  0  0  0  0  0  0
  142.3020   79.7290  224.1980 C   0  0  0  0  0  0  0  0  0  0  0  0
  142.5730   81.0310  223.8320 C   0  0  0  0  0  0  0  0  0  0  0  0
  141.7310   81.6360  222.9270 C   0  0  0  0  0  0  0  0  0  0  0  0
  140.6440   81.0240  222.3690 C   0  0  0  0  0  0  0  0  0  0  0  0
  137.2568   75.3452  223.7262 H   0  0  0  0  0  0  0  0  0  0  0  0
  136.8571   76.5757  222.4802 H   0  0  0  0  0  0  0  0  0  0  0  0
  136.0125   74.9903  222.4802 H   0  0  0  0  0  0  0  0  0  0  0  0
  136.7420   74.5609  220.1978 H   0  0  0  0  0  0  0  0  0  0  0  0
  138.4816   73.9908  220.0600 H   0  0  0  0  0  0  0  0  0  0  0  0
  136.1265   72.6881  221.3334 H   0  0  0  0  0  0  0  0  0  0  0  0
  137.4249   72.0170  220.2822 H   0  0  0  0  0  0  0  0  0  0  0  0
  138.5500   72.9010  222.8590 H   0  0  0  0  0  0  0  0  0  0  0  0
  138.0049   68.3861  223.2603 H   0  0  0  0  0  0  0  0  0  0  0  0
  139.1777   67.3600  225.2237 H   0  0  0  0  0  0  0  0  0  0  0  0
  140.4492   67.6450  227.1834 H   0  0  0  0  0  0  0  0  0  0  0  0
  141.5865   71.5665  228.4906 H   0  0  0  0  0  0  0  0  0  0  0  0
  140.4168   72.6124  226.5306 H   0  0  0  0  0  0  0  0  0  0  0  0
  140.0351   76.7852  222.9251 H   0  0  0  0  0  0  0  0  0  0  0  0
  142.1223   77.1309  221.7473 H   0  0  0  0  0  0  0  0  0  0  0  0
  141.9319   75.4259  221.4442 H   0  0  0  0  0  0  0  0  0  0  0  0
  140.8648   75.8920  219.1732 H   0  0  0  0  0  0  0  0  0  0  0  0
  142.9220   77.6160  219.9450 H   0  0  0  0  0  0  0  0  0  0  0  0
  140.6683   78.8015  220.0789 H   0  0  0  0  0  0  0  0  0  0  0  0
  139.5275   77.9033  219.0617 H   0  0  0  0  0  0  0  0  0  0  0  0
  140.9974   78.0557  223.9411 H   0  0  0  0  0  0  0  0  0  0  0  0
  142.9471   79.2052  224.9188 H   0  0  0  0  0  0  0  0  0  0  0  0
  143.4360   81.5694  224.2508 H   0  0  0  0  0  0  0  0  0  0  0  0
  141.9459   82.6746  222.6353 H   0  0  0  0  0  0  0  0  0  0  0  0
  140.0048   81.5566  221.6494 H   0  0  0  0  0  0  0  0  0  0  0  0
  1  2  1  0
  2  3  1  0
  3  4  1  0
  4  5  1  0
  5  6  1  0
  6  7  2  0
  6  8  1  0
  8  9  2  0
  9 10  1  0
 10 11  2  0
 11 12  1  0
 12 13  2  0
 13 14  1  0
 13 15  1  0
 15 16  2  0
 16 17  1  0
 17 18  2  0
  2 19  1  0
 19 20  2  0
 19 21  1  0
 21 22  1  0
 22 23  1  0
 23 24  1  0
 23 25  1  0
 25 26  1  0
 26 27  1  0
 27 28  2  0
 27 29  2  0
 27 30  1  0
 30 31  2  0
 31 32  1  0
 32 33  2  0
 33 34  1  0
 34 35  2  0
 18  8  1  0
 26 21  1  0
 35 30  1  0
 17 11  1  0
  1 36  1  0
  1 37  1  0
  1 38  1  0
  3 39  1  0
  3 40  1  0
  4 41  1  0
  4 42  1  0
  5 43  1  0
  9 44  1  0
 10 45  1  0
 12 46  1  0
 15 47  1  0
 16 48  1  0
 21 49  1  1
 22 50  1  0
 22 51  1  0
 23 52  1  6
 24 53  1  0
 25 54  1  0
 25 55  1  0
 31 56  1  0
 32 57  1  0
 33 58  1  0
 34 59  1  0
 35 60  1  0
M  END
>  <smiles>  (23) 
CN(CCNC(=O)c1ccc2cc(F)ccc2n1)C(=O)[C@H]1C[C@H](O)CN1S(=O)(=O)c1ccccc1

>  <score_type>  (23) 
oracle

>  <origin>  (23) 
autodockgpu

>  <m_score__min__energy>  (23) 
-9.1999999999999993

>  <m_primary>  (23) 
energy

>  <rmsd>  (23) 
2.7201664044481624

>  <m_score__min__rmsd>  (23) 
2.7201664044481624

>  <meeko>  (23) 
{"free_energy": -8.59, "intermolecular_energy": -11.27, "internal_energy": -2.81, "cluster_size": 10, "cluster_id": 2, "rank_in_cluster": 5}

>  <energy>  (23) 
-7.95

>  <cluster_rmsd>  (23) 
1.49

>  <cluster>  (23) 
2

$$$$

     RDKit          3D

 60 63  0  0  0  0  0  0  0  0999 V2000
  141.5480   72.7360  220.5760 C   0  0  0  0  0  0  0  0  0  0  0  0
  140.6340   73.8610  220.6050 N   0  0  0  0  0  0  0  0  0  0  0  0
  139.3180   73.7150  220.0140 C   0  0  0  0  0  0  0  0  0  0  0  0
  138.2500   73.2880  220.9690 C   0  0  0  0  0  0  0  0  0  0  0  0
  138.8320   72.9480  222.2370 N   0  0  0  0  0  0  0  0  0  0  0  0
  138.8530   71.5520  222.5850 C   0  0  0  0  0  0  0  0  0  0  0  0
  138.3500   70.7770  221.7300 O   0  0  0  0  0  0  0  0  0  0  0  0
  139.4180   71.0780  223.8410 C   0  0  0  0  0  0  0  0  0  0  0  0
  140.3410   71.8890  224.4640 C   0  0  0  0  0  0  0  0  0  0  0  0
  140.9190   71.5000  225.6630 C   0  0  0  0  0  0  0  0  0  0  0  0
  140.5320   70.2990  226.1850 C   0  0  0  0  0  0  0  0  0  0  0  0
  141.0960   69.8960  227.3780 C   0  0  0  0  0  0  0  0  0  0  0  0
  140.7230   68.6990  227.9140 C   0  0  0  0  0  0  0  0  0  0  0  0
  141.2620   68.2660  229.0970 F   0  0  0  0  0  0  0  0  0  0  0  0
  139.7950   67.8860  227.2880 C   0  0  0  0  0  0  0  0  0  0  0  0
  139.2090   68.2630  226.0860 C   0  0  0  0  0  0  0  0  0  0  0  0
  139.6020   69.4730  225.5660 C   0  0  0  0  0  0  0  0  0  0  0  0
  139.0720   69.9040  224.3970 N   0  0  0  0  0  0  0  0  0  0  0  0
  140.9660   75.1240  221.1730 C   0  0  0  0  0  0  0  0  0  0  0  0
  140.4880   75.4150  222.3380 O   0  0  0  0  0  0  0  0  0  0  0  0
  141.8110   76.1440  220.5660 C   0  0  1  0  0  0  0  0  0  0  0  0
  143.1420   75.6110  220.0720 C   0  0  0  0  0  0  0  0  0  0  0  0
  142.8550   75.3900  218.5800 C   0  0  2  0  0  0  0  0  0  0  0  0
  144.0580   75.4140  217.8660 O   0  0  0  0  0  0  0  0  0  0  0  0
  142.0210   76.6120  218.2860 C   0  0  0  0  0  0  0  0  0  0  0  0
  141.2860   76.8920  219.4810 N   0  0  0  0  0  0  0  0  0  0  0  0
  141.1300   78.5720  219.7860 S   0  0  0  0  0  0  0  0  0  0  0  0
  142.1050   79.2940  218.8830 O   0  0  0  0  0  0  0  0  0  0  0  0
  139.7820   79.1050  219.5000 O   0  0  0  0  0  0  0  0  0  0  0  0
  141.5480   79.0100  221.4290 C   0  0  0  0  0  0  0  0  0  0  0  0
  141.1070   78.2990  222.5290 C   0  0  0  0  0  0  0  0  0  0  0  0
  141.4360   78.6430  223.8240 C   0  0  0  0  0  0  0  0  0  0  0  0
  142.2390   79.7430  224.0390 C   0  0  0  0  0  0  0  0  0  0  0  0
  142.6760   80.4480  222.9410 C   0  0  0  0  0  0  0  0  0  0  0  0
  142.3610   80.1230  221.6520 C   0  0  0  0  0  0  0  0  0  0  0  0
  141.7922   72.4354  221.6056 H   0  0  0  0  0  0  0  0  0  0  0  0
  141.0755   71.8932  220.0502 H   0  0  0  0  0  0  0  0  0  0  0  0
  142.4697   73.0259  220.0502 H   0  0  0  0  0  0  0  0  0  0  0  0
  139.0258   74.6843  219.5838 H   0  0  0  0  0  0  0  0  0  0  0  0
  139.4011   72.9162  219.2623 H   0  0  0  0  0  0  0  0  0  0  0  0
  137.5336   74.1114  221.1061 H   0  0  0  0  0  0  0  0  0  0  0  0
  137.7325   72.4070  220.5615 H   0  0  0  0  0  0  0  0  0  0  0  0
  139.2420   73.6000  222.9280 H   0  0  0  0  0  0  0  0  0  0  0  0
  140.6210   72.8501  224.0080 H   0  0  0  0  0  0  0  0  0  0  0  0
  141.6596   72.1335  226.1731 H   0  0  0  0  0  0  0  0  0  0  0  0
  141.8351   70.5306  227.8888 H   0  0  0  0  0  0  0  0  0  0  0  0
  139.5169   66.9267  227.7489 H   0  0  0  0  0  0  0  0  0  0  0  0
  138.4697   67.6268  225.5775 H   0  0  0  0  0  0  0  0  0  0  0  0
  141.9039   76.8169  221.4312 H   0  0  0  0  0  0  0  0  0  0  0  0
  143.9478   76.3448  220.2208 H   0  0  0  0  0  0  0  0  0  0  0  0
  143.4847   74.7084  220.5991 H   0  0  0  0  0  0  0  0  0  0  0  0
  142.3707   74.4376  218.3186 H   0  0  0  0  0  0  0  0  0  0  0  0
  144.4900   76.2950  218.0230 H   0  0  0  0  0  0  0  0  0  0  0  0
  142.6690   77.4629  218.0290 H   0  0  0  0  0  0  0  0  0  0  0  0
  141.3480   76.4416  217.4327 H   0  0  0  0  0  0  0  0  0  0  0  0
  140.4657   77.4205  222.3649 H   0  0  0  0  0  0  0  0  0  0  0  0
  141.0635   78.0490  224.6716 H   0  0  0  0  0  0  0  0  0  0  0  0
  142.5218   80.0478  225.0574 H   0  0  0  0  0  0  0  0  0  0  0  0
  143.3171   81.3255  223.1113 H   0  0  0  0  0  0  0  0  0  0  0  0
  142.7384   80.7231  220.8109 H   0  0  0  0  0  0  0  0  0  0  0  0
  1  2  1  0
  2  3  1  0
  3  4  1  0
  4  5  1  0
  5  6  1  0
  6  7  2  0
  6  8  1  0
  8  9  2  0
  9 10  1  0
 10 11  2  0
 11 12  1  0
 12 13  2  0
 13 14  1  0
 13 15  1  0
 15 16  2  0
 16 17  1  0
 17 18  2  0
  2 19  1  0
 19 20  2  0
 19 21  1  0
 21 22  1  0
 22 23  1  0
 23 24  1  0
 23 25  1  0
 25 26  1  0
 26 27  1  0
 27 28  2  0
 27 29  2  0
 27 30  1  0
 30 31  2  0
 31 32  1  0
 32 33  2  0
 33 34  1  0
 34 35  2  0
 18  8  1  0
 26 21  1  0
 35 30  1  0
 17 11  1  0
  1 36  1  0
  1 37  1  0
  1 38  1  0
  3 39  1  0
  3 40  1  0
  4 41  1  0
  4 42  1  0
  5 43  1  0
  9 44  1  0
 10 45  1  0
 12 46  1  0
 15 47  1  0
 16 48  1  0
 21 49  1  1
 22 50  1  0
 22 51  1  0
 23 52  1  1
 24 53  1  0
 25 54  1  0
 25 55  1  0
 31 56  1  0
 32 57  1  0
 33 58  1  0
 34 59  1  0
 35 60  1  0
M  END
>  <smiles>  (24) 
CN(CCNC(=O)c1ccc2cc(F)ccc2n1)C(=O)[C@H]1C[C@H](O)CN1S(=O)(=O)c1ccccc1

>  <score_type>  (24) 
oracle

>  <origin>  (24) 
autodockgpu

>  <m_score__min__energy>  (24) 
-9.1999999999999993

>  <m_primary>  (24) 
energy

>  <rmsd>  (24) 
3.070593005649291

>  <m_score__min__rmsd>  (24) 
3.070593005649291

>  <meeko>  (24) 
{"free_energy": -8.86, "intermolecular_energy": -11.55, "internal_energy": -2.48, "cluster_size": 14, "cluster_id": 1, "rank_in_cluster": 4}

>  <energy>  (24) 
-7.8

>  <cluster_rmsd>  (24) 
0.81

>  <cluster>  (24) 
2

$$$$

     RDKit          3D

 60 63  0  0  0  0  0  0  0  0999 V2000
  139.8420   75.8200  221.8560 C   0  0  0  0  0  0  0  0  0  0  0  0
  140.7150   75.1560  220.9070 N   0  0  0  0  0  0  0  0  0  0  0  0
  140.3230   73.8660  220.3740 C   0  0  0  0  0  0  0  0  0  0  0  0
  139.0890   73.2850  220.9890 C   0  0  0  0  0  0  0  0  0  0  0  0
  139.3500   72.9120  222.3510 N   0  0  0  0  0  0  0  0  0  0  0  0
  139.7380   71.5460  222.5830 C   0  0  0  0  0  0  0  0  0  0  0  0
  139.8040   70.8230  221.5550 O   0  0  0  0  0  0  0  0  0  0  0  0
  140.0310   71.0430  223.9190 C   0  0  0  0  0  0  0  0  0  0  0  0
  140.7030   71.8850  224.7770 C   0  0  0  0  0  0  0  0  0  0  0  0
  141.0140   71.4720  226.0640 C   0  0  0  0  0  0  0  0  0  0  0  0
  140.6270   70.2140  226.4290 C   0  0  0  0  0  0  0  0  0  0  0  0
  140.9280   69.7860  227.7050 C   0  0  0  0  0  0  0  0  0  0  0  0
  140.5500   68.5330  228.0880 C   0  0  0  0  0  0  0  0  0  0  0  0
  140.8310   68.0740  229.3470 F   0  0  0  0  0  0  0  0  0  0  0  0
  139.8740   67.6880  227.2250 C   0  0  0  0  0  0  0  0  0  0  0  0
  139.5570   68.0890  225.9330 C   0  0  0  0  0  0  0  0  0  0  0  0
  139.9490   69.3560  225.5710 C   0  0  0  0  0  0  0  0  0  0  0  0
  139.6720   69.8140  224.3280 N   0  0  0  0  0  0  0  0  0  0  0  0
  141.9590   75.6990  220.4760 C   0  0  0  0  0  0  0  0  0  0  0  0
  143.0170   74.9660  220.5880 O   0  0  0  0  0  0  0  0  0  0  0  0
  142.1670   77.0250  219.9080 C   0  0  1  0  0  0  0  0  0  0  0  0
  143.3270   77.0880  218.9330 C   0  0  0  0  0  0  0  0  0  0  0  0
  142.6070   76.9530  217.5830 C   0  0  2  0  0  0  0  0  0  0  0  0
  143.4010   77.5070  216.5740 O   0  0  0  0  0  0  0  0  0  0  0  0
  141.3880   77.8020  217.8460 C   0  0  0  0  0  0  0  0  0  0  0  0
  141.0830   77.6450  219.2350 N   0  0  0  0  0  0  0  0  0  0  0  0
  140.5340   79.0970  219.9630 S   0  0  0  0  0  0  0  0  0  0  0  0
  140.9010   80.2390  219.0410 O   0  0  0  0  0  0  0  0  0  0  0  0
  139.0710   79.1430  220.1660 O   0  0  0  0  0  0  0  0  0  0  0  0
  141.3050   79.4260  221.5000 C   0  0  0  0  0  0  0  0  0  0  0  0
  141.0640   78.6740  222.6350 C   0  0  0  0  0  0  0  0  0  0  0  0
  141.6710   78.9310  223.8470 C   0  0  0  0  0  0  0  0  0  0  0  0
  142.5580   79.9830  223.9390 C   0  0  0  0  0  0  0  0  0  0  0  0
  142.7940   80.7290  222.8080 C   0  0  0  0  0  0  0  0  0  0  0  0
  142.2030   80.4890  221.5990 C   0  0  0  0  0  0  0  0  0  0  0  0
  140.1614   75.5771  222.8802 H   0  0  0  0  0  0  0  0  0  0  0  0
  139.8950   76.9081  221.7038 H   0  0  0  0  0  0  0  0  0  0  0  0
  138.8075   75.4784  221.7038 H   0  0  0  0  0  0  0  0  0  0  0  0
  140.1466   73.9805  219.2943 H   0  0  0  0  0  0  0  0  0  0  0  0
  141.1433   73.1710  220.6068 H   0  0  0  0  0  0  0  0  0  0  0  0
  138.2824   74.0325  220.9639 H   0  0  0  0  0  0  0  0  0  0  0  0
  138.7873   72.3927  220.4209 H   0  0  0  0  0  0  0  0  0  0  0  0
  139.2900   73.5210  223.1850 H   0  0  0  0  0  0  0  0  0  0  0  0
  140.9947   72.8906  224.4397 H   0  0  0  0  0  0  0  0  0  0  0  0
  141.5506   72.1309  226.7625 H   0  0  0  0  0  0  0  0  0  0  0  0
  141.4647   70.4452  228.4031 H   0  0  0  0  0  0  0  0  0  0  0  0
  139.5833   66.6838  227.5672 H   0  0  0  0  0  0  0  0  0  0  0  0
  139.0207   67.4276  225.2366 H   0  0  0  0  0  0  0  0  0  0  0  0
  142.3492   77.5781  220.8412 H   0  0  0  0  0  0  0  0  0  0  0  0
  143.8622   78.0461  219.0079 H   0  0  0  0  0  0  0  0  0  0  0  0
  144.0979   76.3227  219.1063 H   0  0  0  0  0  0  0  0  0  0  0  0
  142.3829   75.9264  217.2577 H   0  0  0  0  0  0  0  0  0  0  0  0
  143.7080   78.4020  216.8820 H   0  0  0  0  0  0  0  0  0  0  0  0
  141.6022   78.8569  217.6197 H   0  0  0  0  0  0  0  0  0  0  0  0
  140.5422   77.4951  217.2132 H   0  0  0  0  0  0  0  0  0  0  0  0
  140.3571   77.8338  222.5687 H   0  0  0  0  0  0  0  0  0  0  0  0
  141.4511   78.3069  224.7257 H   0  0  0  0  0  0  0  0  0  0  0  0
  143.0615   80.2183  224.8883 H   0  0  0  0  0  0  0  0  0  0  0  0
  143.5005   81.5690  222.8806 H   0  0  0  0  0  0  0  0  0  0  0  0
  142.4299   81.1184  220.7259 H   0  0  0  0  0  0  0  0  0  0  0  0
  1  2  1  0
  2  3  1  0
  3  4  1  0
  4  5  1  0
  5  6  1  0
  6  7  2  0
  6  8  1  0
  8  9  2  0
  9 10  1  0
 10 11  2  0
 11 12  1  0
 12 13  2  0
 13 14  1  0
 13 15  1  0
 15 16  2  0
 16 17  1  0
 17 18  2  0
  2 19  1  0
 19 20  2  0
 19 21  1  0
 21 22  1  0
 22 23  1  0
 23 24  1  0
 23 25  1  0
 25 26  1  0
 26 27  1  0
 27 28  2  0
 27 29  2  0
 27 30  1  0
 30 31  2  0
 31 32  1  0
 32 33  2  0
 33 34  1  0
 34 35  2  0
 18  8  1  0
 26 21  1  0
 35 30  1  0
 17 11  1  0
  1 36  1  0
  1 37  1  0
  1 38  1  0
  3 39  1  0
  3 40  1  0
  4 41  1  0
  4 42  1  0
  5 43  1  0
  9 44  1  0
 10 45  1  0
 12 46  1  0
 15 47  1  0
 16 48  1  0
 21 49  1  1
 22 50  1  0
 22 51  1  0
 23 52  1  6
 24 53  1  0
 25 54  1  0
 25 55  1  0
 31 56  1  0
 32 57  1  0
 33 58  1  0
 34 59  1  0
 35 60  1  0
M  END
>  <smiles>  (25) 
CN(CCNC(=O)c1ccc2cc(F)ccc2n1)C(=O)[C@H]1C[C@H](O)CN1S(=O)(=O)c1ccccc1

>  <score_type>  (25) 
oracle

>  <origin>  (25) 
autodockgpu

>  <m_score__min__energy>  (25) 
-9.1999999999999993

>  <m_primary>  (25) 
energy

>  <rmsd>  (25) 
3.0570950859520476

>  <m_score__min__rmsd>  (25) 
3.0570950859520476

>  <meeko>  (25) 
{"free_energy": -8.91, "intermolecular_energy": -11.6, "internal_energy": -1.85, "cluster_size": 14, "cluster_id": 1, "rank_in_cluster": 3}

>  <energy>  (25) 
-8.44

>  <cluster_rmsd>  (25) 
0.0

>  <cluster>  (25) 
3

$$$$

     RDKit          3D

 60 63  0  0  0  0  0  0  0  0999 V2000
  136.8000   75.8620  219.6020 C   0  0  0  0  0  0  0  0  0  0  0  0
  137.1730   75.1640  220.8180 N   0  0  0  0  0  0  0  0  0  0  0  0
  137.2450   73.7160  220.8040 C   0  0  0  0  0  0  0  0  0  0  0  0
  138.6310   73.1600  220.8890 C   0  0  0  0  0  0  0  0  0  0  0  0
  138.9310   72.7940  222.2450 N   0  0  0  0  0  0  0  0  0  0  0  0
  139.5870   71.5290  222.4420 C   0  0  0  0  0  0  0  0  0  0  0  0
  139.8250   70.8760  221.3920 O   0  0  0  0  0  0  0  0  0  0  0  0
  139.9470   71.0440  223.7680 C   0  0  0  0  0  0  0  0  0  0  0  0
  140.6850   71.8870  224.5690 C   0  0  0  0  0  0  0  0  0  0  0  0
  141.0610   71.4900  225.8440 C   0  0  0  0  0  0  0  0  0  0  0  0
  140.6700   70.2490  226.2550 C   0  0  0  0  0  0  0  0  0  0  0  0
  141.0350   69.8370  227.5200 C   0  0  0  0  0  0  0  0  0  0  0  0
  140.6540   68.6000  227.9490 C   0  0  0  0  0  0  0  0  0  0  0  0
  140.9980   68.1580  229.1990 F   0  0  0  0  0  0  0  0  0  0  0  0
  139.9120   67.7540  227.1430 C   0  0  0  0  0  0  0  0  0  0  0  0
  139.5290   68.1390  225.8640 C   0  0  0  0  0  0  0  0  0  0  0  0
  139.9250   69.3900  225.4550 C   0  0  0  0  0  0  0  0  0  0  0  0
  139.5870   69.8310  224.2210 N   0  0  0  0  0  0  0  0  0  0  0  0
  137.4600   75.8290  222.0440 C   0  0  0  0  0  0  0  0  0  0  0  0
  136.6360   75.6790  223.0280 O   0  0  0  0  0  0  0  0  0  0  0  0
  138.6140   76.6780  222.3120 C   0  0  1  0  0  0  0  0  0  0  0  0
  139.9320   75.9300  222.2930 C   0  0  0  0  0  0  0  0  0  0  0  0
  140.4320   76.2150  220.8690 C   0  0  2  0  0  0  0  0  0  0  0  0
  141.8230   76.0750  220.8270 O   0  0  0  0  0  0  0  0  0  0  0  0
  140.0250   77.6610  220.7290 C   0  0  0  0  0  0  0  0  0  0  0  0
  138.8190   77.8120  221.4840 N   0  0  0  0  0  0  0  0  0  0  0  0
  138.7330   79.3150  222.3040 S   0  0  0  0  0  0  0  0  0  0  0  0
  138.1930   80.3380  221.3300 O   0  0  0  0  0  0  0  0  0  0  0  0
  137.8330   79.3010  223.4770 O   0  0  0  0  0  0  0  0  0  0  0  0
  140.2980   79.8980  222.8290 C   0  0  0  0  0  0  0  0  0  0  0  0
  141.2600   79.0710  223.3790 C   0  0  0  0  0  0  0  0  0  0  0  0
  142.4940   79.5290  223.7920 C   0  0  0  0  0  0  0  0  0  0  0  0
  142.7890   80.8690  223.6550 C   0  0  0  0  0  0  0  0  0  0  0  0
  141.8280   81.6890  223.1080 C   0  0  0  0  0  0  0  0  0  0  0  0
  140.6010   81.2540  222.6930 C   0  0  0  0  0  0  0  0  0  0  0  0
  136.2961   76.8050  219.8604 H   0  0  0  0  0  0  0  0  0  0  0  0
  137.7027   76.0784  219.0118 H   0  0  0  0  0  0  0  0  0  0  0  0
  136.1184   75.2318  219.0118 H   0  0  0  0  0  0  0  0  0  0  0  0
  136.6697   73.3357  221.6610 H   0  0  0  0  0  0  0  0  0  0  0  0
  136.8389   73.3933  219.8340 H   0  0  0  0  0  0  0  0  0  0  0  0
  138.7067   72.2705  220.2463 H   0  0  0  0  0  0  0  0  0  0  0  0
  139.3478   73.9242  220.5542 H   0  0  0  0  0  0  0  0  0  0  0  0
  138.7280   73.3450  223.0970 H   0  0  0  0  0  0  0  0  0  0  0  0
  140.9776   72.8796  224.1961 H   0  0  0  0  0  0  0  0  0  0  0  0
  141.6509   72.1494  226.4976 H   0  0  0  0  0  0  0  0  0  0  0  0
  141.6249   70.4969  228.1732 H   0  0  0  0  0  0  0  0  0  0  0  0
  139.6213   66.7625  227.5205 H   0  0  0  0  0  0  0  0  0  0  0  0
  138.9395   67.4770  225.2127 H   0  0  0  0  0  0  0  0  0  0  0  0
  138.3286   77.0334  223.3131 H   0  0  0  0  0  0  0  0  0  0  0  0
  140.6276   76.3242  223.0485 H   0  0  0  0  0  0  0  0  0  0  0  0
  139.8409   74.8593  222.5281 H   0  0  0  0  0  0  0  0  0  0  0  0
  140.0406   75.5554  220.0805 H   0  0  0  0  0  0  0  0  0  0  0  0
  142.2110   76.6420  221.5460 H   0  0  0  0  0  0  0  0  0  0  0  0
  140.8105   78.3186  221.1298 H   0  0  0  0  0  0  0  0  0  0  0  0
  139.8740   77.9342  219.6742 H   0  0  0  0  0  0  0  0  0  0  0  0
  141.0313   78.0010  223.4922 H   0  0  0  0  0  0  0  0  0  0  0  0
  143.2311   78.8361  224.2239 H   0  0  0  0  0  0  0  0  0  0  0  0
  143.7625   81.2705  223.9731 H   0  0  0  0  0  0  0  0  0  0  0  0
  142.0619   82.7583  222.9985 H   0  0  0  0  0  0  0  0  0  0  0  0
  139.8703   81.9546  222.2626 H   0  0  0  0  0  0  0  0  0  0  0  0
  1  2  1  0
  2  3  1  0
  3  4  1  0
  4  5  1  0
  5  6  1  0
  6  7  2  0
  6  8  1  0
  8  9  2  0
  9 10  1  0
 10 11  2  0
 11 12  1  0
 12 13  2  0
 13 14  1  0
 13 15  1  0
 15 16  2  0
 16 17  1  0
 17 18  2  0
  2 19  1  0
 19 20  2  0
 19 21  1  0
 21 22  1  0
 22 23  1  0
 23 24  1  0
 23 25  1  0
 25 26  1  0
 26 27  1  0
 27 28  2  0
 27 29  2  0
 27 30  1  0
 30 31  2  0
 31 32  1  0
 32 33  2  0
 33 34  1  0
 34 35  2  0
 18  8  1  0
 26 21  1  0
 35 30  1  0
 17 11  1  0
  1 36  1  0
  1 37  1  0
  1 38  1  0
  3 39  1  0
  3 40  1  0
  4 41  1  0
  4 42  1  0
  5 43  1  0
  9 44  1  0
 10 45  1  0
 12 46  1  0
 15 47  1  0
 16 48  1  0
 21 49  1  1
 22 50  1  0
 22 51  1  0
 23 52  1  6
 24 53  1  0
 25 54  1  0
 25 55  1  0
 31 56  1  0
 32 57  1  0
 33 58  1  0
 34 59  1  0
 35 60  1  0
M  END
>  <smiles>  (26) 
CN(CCNC(=O)c1ccc2cc(F)ccc2n1)C(=O)[C@H]1C[C@H](O)CN1S(=O)(=O)c1ccccc1

>  <score_type>  (26) 
oracle

>  <origin>  (26) 
autodockgpu

>  <m_score__min__energy>  (26) 
-9.1999999999999993

>  <m_primary>  (26) 
energy

>  <rmsd>  (26) 
3.5161621280474047

>  <m_score__min__rmsd>  (26) 
3.5161621280474047

>  <meeko>  (26) 
{"free_energy": -8.64, "intermolecular_energy": -11.33, "internal_energy": -1.95, "cluster_size": 10, "cluster_id": 2, "rank_in_cluster": 4}

>  <energy>  (26) 
-8.26

>  <cluster_rmsd>  (26) 
0.92

>  <cluster>  (26) 
3

$$$$

     RDKit          3D

 60 63  0  0  0  0  0  0  0  0999 V2000
  137.0210   69.5230  220.1200 C   0  0  0  0  0  0  0  0  0  0  0  0
  137.8560   68.6430  220.9160 N   0  0  0  0  0  0  0  0  0  0  0  0
  137.3240   67.3630  221.3420 C   0  0  0  0  0  0  0  0  0  0  0  0
  136.2100   67.4510  222.3360 C   0  0  0  0  0  0  0  0  0  0  0  0
  136.0810   68.8010  222.8100 N   0  0  0  0  0  0  0  0  0  0  0  0
  135.0770   69.0390  223.8140 C   0  0  0  0  0  0  0  0  0  0  0  0
  134.4180   68.0270  224.1660 O   0  0  0  0  0  0  0  0  0  0  0  0
  134.8480   70.3630  224.3760 C   0  0  0  0  0  0  0  0  0  0  0  0
  134.0700   70.4410  225.5110 C   0  0  0  0  0  0  0  0  0  0  0  0
  133.8120   71.6700  226.0990 C   0  0  0  0  0  0  0  0  0  0  0  0
  134.3570   72.7740  225.5110 C   0  0  0  0  0  0  0  0  0  0  0  0
  134.1110   74.0050  226.0820 C   0  0  0  0  0  0  0  0  0  0  0  0
  134.6470   75.1200  225.5080 C   0  0  0  0  0  0  0  0  0  0  0  0
  134.4230   76.3590  226.0490 F   0  0  0  0  0  0  0  0  0  0  0  0
  135.4280   75.0410  224.3700 C   0  0  0  0  0  0  0  0  0  0  0  0
  135.6950   73.8160  223.7690 C   0  0  0  0  0  0  0  0  0  0  0  0
  135.1430   72.7070  224.3670 C   0  0  0  0  0  0  0  0  0  0  0  0
  135.3610   71.4810  223.8360 N   0  0  0  0  0  0  0  0  0  0  0  0
  139.1800   68.9770  221.3210 C   0  0  0  0  0  0  0  0  0  0  0  0
  140.1620   68.6120  220.5640 O   0  0  0  0  0  0  0  0  0  0  0  0
  139.5510   69.7050  222.5280 C   0  0  1  0  0  0  0  0  0  0  0  0
  140.2950   70.9970  222.2490 C   0  0  0  0  0  0  0  0  0  0  0  0
  139.1640   72.0320  222.3350 C   0  0  2  0  0  0  0  0  0  0  0  0
  139.7040   73.2880  222.6320 O   0  0  0  0  0  0  0  0  0  0  0  0
  138.3870   71.4810  223.5040 C   0  0  0  0  0  0  0  0  0  0  0  0
  138.5250   70.0590  223.4410 N   0  0  0  0  0  0  0  0  0  0  0  0
  138.6730   69.3370  224.9900 S   0  0  0  0  0  0  0  0  0  0  0  0
  137.2930   69.2880  225.6070 O   0  0  0  0  0  0  0  0  0  0  0  0
  139.1910   67.9530  224.9520 O   0  0  0  0  0  0  0  0  0  0  0  0
  139.6800   70.2620  226.0820 C   0  0  0  0  0  0  0  0  0  0  0  0
  139.6150   70.1270  227.4570 C   0  0  0  0  0  0  0  0  0  0  0  0
  140.4080   70.8560  228.3190 C   0  0  0  0  0  0  0  0  0  0  0  0
  141.3070   71.7610  227.7960 C   0  0  0  0  0  0  0  0  0  0  0  0
  141.3670   71.8930  226.4270 C   0  0  0  0  0  0  0  0  0  0  0  0
  140.5900   71.1800  225.5570 C   0  0  0  0  0  0  0  0  0  0  0  0
  136.4184   70.1581  220.7859 H   0  0  0  0  0  0  0  0  0  0  0  0
  137.6573   70.1572  219.4853 H   0  0  0  0  0  0  0  0  0  0  0  0
  136.3543   68.9208  219.4853 H   0  0  0  0  0  0  0  0  0  0  0  0
  136.9496   66.8342  220.4531 H   0  0  0  0  0  0  0  0  0  0  0  0
  138.1481   66.8345  221.8436 H   0  0  0  0  0  0  0  0  0  0  0  0
  135.2692   67.1413  221.8574 H   0  0  0  0  0  0  0  0  0  0  0  0
  136.4311   66.7890  223.1862 H   0  0  0  0  0  0  0  0  0  0  0  0
  136.6340   69.6210  222.5080 H   0  0  0  0  0  0  0  0  0  0  0  0
  133.6519   69.5243  225.9523 H   0  0  0  0  0  0  0  0  0  0  0  0
  133.1922   71.7517  227.0041 H   0  0  0  0  0  0  0  0  0  0  0  0
  133.4914   74.0864  226.9873 H   0  0  0  0  0  0  0  0  0  0  0  0
  135.8443   75.9609  223.9336 H   0  0  0  0  0  0  0  0  0  0  0  0
  136.3147   73.7378  222.8635 H   0  0  0  0  0  0  0  0  0  0  0  0
  140.1762   68.9330  223.0004 H   0  0  0  0  0  0  0  0  0  0  0  0
  141.0696   71.1855  223.0070 H   0  0  0  0  0  0  0  0  0  0  0  0
  140.8345   71.0036  221.2904 H   0  0  0  0  0  0  0  0  0  0  0  0
  138.5681   72.1710  221.4209 H   0  0  0  0  0  0  0  0  0  0  0  0
  139.2670   73.6210  223.4610 H   0  0  0  0  0  0  0  0  0  0  0  0
  138.7995   71.8625  224.4497 H   0  0  0  0  0  0  0  0  0  0  0  0
  137.3302   71.7832  223.4607 H   0  0  0  0  0  0  0  0  0  0  0  0
  138.8999   69.4071  227.8817 H   0  0  0  0  0  0  0  0  0  0  0  0
  140.3243   70.7173  229.4070 H   0  0  0  0  0  0  0  0  0  0  0  0
  141.9563   72.3591  228.4523 H   0  0  0  0  0  0  0  0  0  0  0  0
  142.0830   72.6154  226.0081 H   0  0  0  0  0  0  0  0  0  0  0  0
  140.6800   71.3264  224.4705 H   0  0  0  0  0  0  0  0  0  0  0  0
  1  2  1  0
  2  3  1  0
  3  4  1  0
  4  5  1  0
  5  6  1  0
  6  7  2  0
  6  8  1  0
  8  9  2  0
  9 10  1  0
 10 11  2  0
 11 12  1  0
 12 13  2  0
 13 14  1  0
 13 15  1  0
 15 16  2  0
 16 17  1  0
 17 18  2  0
  2 19  1  0
 19 20  2  0
 19 21  1  0
 21 22  1  0
 22 23  1  0
 23 24  1  0
 23 25  1  0
 25 26  1  0
 26 27  1  0
 27 28  2  0
 27 29  2  0
 27 30  1  0
 30 31  2  0
 31 32  1  0
 32 33  2  0
 33 34  1  0
 34 35  2  0
 18  8  1  0
 26 21  1  0
 35 30  1  0
 17 11  1  0
  1 36  1  0
  1 37  1  0
  1 38  1  0
  3 39  1  0
  3 40  1  0
  4 41  1  0
  4 42  1  0
  5 43  1  0
  9 44  1  0
 10 45  1  0
 12 46  1  0
 15 47  1  0
 16 48  1  0
 21 49  1  1
 22 50  1  0
 22 51  1  0
 23 52  1  6
 24 53  1  0
 25 54  1  0
 25 55  1  0
 31 56  1  0
 32 57  1  0
 33 58  1  0
 34 59  1  0
 35 60  1  0
M  END
>  <smiles>  (27) 
CN(CCNC(=O)c1ccc2cc(F)ccc2n1)C(=O)[C@H]1C[C@H](O)CN1S(=O)(=O)c1ccccc1

>  <score_type>  (27) 
oracle

>  <origin>  (27) 
autodockgpu

>  <m_score__min__energy>  (27) 
-9.1999999999999993

>  <m_primary>  (27) 
energy

>  <rmsd>  (27) 
7.075900114143907

>  <m_score__min__rmsd>  (27) 
7.075900114143907

>  <meeko>  (27) 
{"free_energy": -7.71, "intermolecular_energy": -10.4, "internal_energy": -3.91, "cluster_size": 6, "cluster_id": 5, "rank_in_cluster": 3}

>  <energy>  (27) 
-7.78

>  <cluster_rmsd>  (27) 
1.67

>  <cluster>  (27) 
3

$$$$

     RDKit          3D

 60 63  0  0  0  0  0  0  0  0999 V2000
  138.2580   72.6490  219.9950 C   0  0  0  0  0  0  0  0  0  0  0  0
  137.6170   72.4040  221.2730 N   0  0  0  0  0  0  0  0  0  0  0  0
  136.2740   72.9030  221.4940 C   0  0  0  0  0  0  0  0  0  0  0  0
  136.1750   73.9960  222.5100 C   0  0  0  0  0  0  0  0  0  0  0  0
  137.4430   74.6570  222.6450 N   0  0  0  0  0  0  0  0  0  0  0  0
  137.4440   76.0880  222.4930 C   0  0  0  0  0  0  0  0  0  0  0  0
  136.3220   76.6050  222.2530 O   0  0  0  0  0  0  0  0  0  0  0  0
  138.6650   76.8750  222.6080 C   0  0  0  0  0  0  0  0  0  0  0  0
  139.8490   76.2550  222.2740 C   0  0  0  0  0  0  0  0  0  0  0  0
  141.0490   76.9450  222.3600 C   0  0  0  0  0  0  0  0  0  0  0  0
  140.9980   78.2420  222.7830 C   0  0  0  0  0  0  0  0  0  0  0  0
  142.1820   78.9440  222.8750 C   0  0  0  0  0  0  0  0  0  0  0  0
  142.1510   80.2410  223.2960 C   0  0  0  0  0  0  0  0  0  0  0  0
  143.3070   80.9680  223.3990 F   0  0  0  0  0  0  0  0  0  0  0  0
  140.9610   80.8620  223.6310 C   0  0  0  0  0  0  0  0  0  0  0  0
  139.7510   80.1820  223.5500 C   0  0  0  0  0  0  0  0  0  0  0  0
  139.8090   78.8770  223.1230 C   0  0  0  0  0  0  0  0  0  0  0  0
  138.6700   78.1540  223.0200 N   0  0  0  0  0  0  0  0  0  0  0  0
  138.2470   71.7060  222.3420 C   0  0  0  0  0  0  0  0  0  0  0  0
  139.2030   72.2970  222.9800 O   0  0  0  0  0  0  0  0  0  0  0  0
  137.9170   70.3640  222.8040 C   0  0  1  0  0  0  0  0  0  0  0  0
  137.2700   69.5000  221.7400 C   0  0  0  0  0  0  0  0  0  0  0  0
  138.4710   68.6980  221.2170 C   0  0  2  0  0  0  0  0  0  0  0  0
  138.0190   67.5100  220.6330 O   0  0  0  0  0  0  0  0  0  0  0  0
  139.1950   68.4290  222.5120 C   0  0  0  0  0  0  0  0  0  0  0  0
  138.9570   69.5660  223.3470 N   0  0  0  0  0  0  0  0  0  0  0  0
  138.7430   69.1460  224.9960 S   0  0  0  0  0  0  0  0  0  0  0  0
  137.2920   69.3900  225.3460 O   0  0  0  0  0  0  0  0  0  0  0  0
  139.0370   67.7270  225.2900 O   0  0  0  0  0  0  0  0  0  0  0  0
  139.6950   70.1330  226.0830 C   0  0  0  0  0  0  0  0  0  0  0  0
  139.6810   69.9650  227.4550 C   0  0  0  0  0  0  0  0  0  0  0  0
  140.4320   70.7420  228.3130 C   0  0  0  0  0  0  0  0  0  0  0  0
  141.2330   71.7330  227.7870 C   0  0  0  0  0  0  0  0  0  0  0  0
  141.2440   71.8980  226.4210 C   0  0  0  0  0  0  0  0  0  0  0  0
  140.5080   71.1380  225.5550 C   0  0  0  0  0  0  0  0  0  0  0  0
  139.2735   73.0372  220.1626 H   0  0  0  0  0  0  0  0  0  0  0  0
  138.3139   71.7089  219.4266 H   0  0  0  0  0  0  0  0  0  0  0  0
  137.6726   73.3868  219.4266 H   0  0  0  0  0  0  0  0  0  0  0  0
  135.8892   73.2875  220.5379 H   0  0  0  0  0  0  0  0  0  0  0  0
  135.6885   72.0586  221.8866 H   0  0  0  0  0  0  0  0  0  0  0  0
  135.4166   74.7249  222.1883 H   0  0  0  0  0  0  0  0  0  0  0  0
  135.8883   73.5630  223.4797 H   0  0  0  0  0  0  0  0  0  0  0  0
  138.3560   74.2140  222.8430 H   0  0  0  0  0  0  0  0  0  0  0  0
  139.8426   75.2077  221.9375 H   0  0  0  0  0  0  0  0  0  0  0  0
  142.0040   76.4662  222.0978 H   0  0  0  0  0  0  0  0  0  0  0  0
  143.1368   78.4649  222.6127 H   0  0  0  0  0  0  0  0  0  0  0  0
  140.9723   81.9095  223.9665 H   0  0  0  0  0  0  0  0  0  0  0  0
  138.7976   80.6631  223.8138 H   0  0  0  0  0  0  0  0  0  0  0  0
  137.2329   70.6357  223.6215 H   0  0  0  0  0  0  0  0  0  0  0  0
  136.5038   68.8391  222.1715 H   0  0  0  0  0  0  0  0  0  0  0  0
  136.7414   70.0706  220.9622 H   0  0  0  0  0  0  0  0  0  0  0  0
  139.0840   69.1939  220.4500 H   0  0  0  0  0  0  0  0  0  0  0  0
  138.8150   66.9880  220.3460 H   0  0  0  0  0  0  0  0  0  0  0  0
  138.8012   67.5183  222.9868 H   0  0  0  0  0  0  0  0  0  0  0  0
  140.2710   68.2735  222.3444 H   0  0  0  0  0  0  0  0  0  0  0  0
  139.0429   69.1770  227.8816 H   0  0  0  0  0  0  0  0  0  0  0  0
  140.3922   70.5734  229.3993 H   0  0  0  0  0  0  0  0  0  0  0  0
  141.8451   72.3727  228.4398 H   0  0  0  0  0  0  0  0  0  0  0  0
  141.8831   72.6885  226.0007 H   0  0  0  0  0  0  0  0  0  0  0  0
  140.5551   71.3137  224.4701 H   0  0  0  0  0  0  0  0  0  0  0  0
  1  2  1  0
  2  3  1  0
  3  4  1  0
  4  5  1  0
  5  6  1  0
  6  7  2  0
  6  8  1  0
  8  9  2  0
  9 10  1  0
 10 11  2  0
 11 12  1  0
 12 13  2  0
 13 14  1  0
 13 15  1  0
 15 16  2  0
 16 17  1  0
 17 18  2  0
  2 19  1  0
 19 20  2  0
 19 21  1  0
 21 22  1  0
 22 23  1  0
 23 24  1  0
 23 25  1  0
 25 26  1  0
 26 27  1  0
 27 28  2  0
 27 29  2  0
 27 30  1  0
 30 31  2  0
 31 32  1  0
 32 33  2  0
 33 34  1  0
 34 35  2  0
 18  8  1  0
 26 21  1  0
 35 30  1  0
 17 11  1  0
  1 36  1  0
  1 37  1  0
  1 38  1  0
  3 39  1  0
  3 40  1  0
  4 41  1  0
  4 42  1  0
  5 43  1  0
  9 44  1  0
 10 45  1  0
 12 46  1  0
 15 47  1  0
 16 48  1  0
 21 49  1  1
 22 50  1  0
 22 51  1  0
 23 52  1  6
 24 53  1  0
 25 54  1  0
 25 55  1  0
 31 56  1  0
 32 57  1  0
 33 58  1  0
 34 59  1  0
 35 60  1  0
M  END
>  <smiles>  (28) 
CN(CCNC(=O)c1ccc2cc(F)ccc2n1)C(=O)[C@H]1C[C@H](O)CN1S(=O)(=O)c1ccccc1

>  <score_type>  (28) 
oracle

>  <origin>  (28) 
autodockgpu

>  <m_score__min__energy>  (28) 
-9.1999999999999993

>  <m_primary>  (28) 
energy

>  <rmsd>  (28) 
8.113330690446205

>  <m_score__min__rmsd>  (28) 
8.113330690446205

>  <meeko>  (28) 
{"free_energy": -8.26, "intermolecular_energy": -10.95, "internal_energy": -2.59, "cluster_size": 3, "cluster_id": 3, "rank_in_cluster": 2}

>  <energy>  (28) 
-8.25

>  <cluster_rmsd>  (28) 
0.0

>  <cluster>  (28) 
4

$$$$

     RDKit          3D

 60 63  0  0  0  0  0  0  0  0999 V2000
  142.5080   73.2010  220.5180 C   0  0  0  0  0  0  0  0  0  0  0  0
  141.1670   73.7510  220.4690 N   0  0  0  0  0  0  0  0  0  0  0  0
  140.2390   73.2560  219.4700 C   0  0  0  0  0  0  0  0  0  0  0  0
  139.1810   72.3410  220.0000 C   0  0  0  0  0  0  0  0  0  0  0  0
  139.4750   71.9890  221.3610 N   0  0  0  0  0  0  0  0  0  0  0  0
  139.1230   70.6550  221.7730 C   0  0  0  0  0  0  0  0  0  0  0  0
  138.5900   69.9410  220.8840 O   0  0  0  0  0  0  0  0  0  0  0  0
  139.3700   70.1750  223.1260 C   0  0  0  0  0  0  0  0  0  0  0  0
  138.9420   68.9020  223.4320 C   0  0  0  0  0  0  0  0  0  0  0  0
  139.1450   68.3820  224.7020 C   0  0  0  0  0  0  0  0  0  0  0  0
  139.7780   69.1780  225.6120 C   0  0  0  0  0  0  0  0  0  0  0  0
  139.9890   68.6770  226.8800 C   0  0  0  0  0  0  0  0  0  0  0  0
  140.6190   69.4580  227.8030 C   0  0  0  0  0  0  0  0  0  0  0  0
  140.8450   68.9930  229.0720 F   0  0  0  0  0  0  0  0  0  0  0  0
  141.0480   70.7360  227.4950 C   0  0  0  0  0  0  0  0  0  0  0  0
  140.8510   71.2700  226.2270 C   0  0  0  0  0  0  0  0  0  0  0  0
  140.2140   70.4640  225.3140 C   0  0  0  0  0  0  0  0  0  0  0  0
  139.9880   70.9190  224.0600 N   0  0  0  0  0  0  0  0  0  0  0  0
  140.7090   74.7740  221.3470 C   0  0  0  0  0  0  0  0  0  0  0  0
  139.9500   74.4360  222.3370 O   0  0  0  0  0  0  0  0  0  0  0  0
  141.0150   76.1950  221.2430 C   0  0  1  0  0  0  0  0  0  0  0  0
  142.2890   76.4840  220.4740 C   0  0  0  0  0  0  0  0  0  0  0  0
  141.7430   76.8090  219.0770 C   0  0  2  0  0  0  0  0  0  0  0  0
  142.6690   77.5970  218.3850 O   0  0  0  0  0  0  0  0  0  0  0  0
  140.5180   77.6070  219.4480 C   0  0  0  0  0  0  0  0  0  0  0  0
  140.0380   77.0530  220.6770 N   0  0  0  0  0  0  0  0  0  0  0  0
  139.4310   78.2450  221.7510 S   0  0  0  0  0  0  0  0  0  0  0  0
  138.5240   79.1580  220.9570 O   0  0  0  0  0  0  0  0  0  0  0  0
  138.6360   77.6900  222.8660 O   0  0  0  0  0  0  0  0  0  0  0  0
  140.6880   79.2540  222.4320 C   0  0  0  0  0  0  0  0  0  0  0  0
  141.2960   78.9800  223.6440 C   0  0  0  0  0  0  0  0  0  0  0  0
  142.2870   79.7750  224.1820 C   0  0  0  0  0  0  0  0  0  0  0  0
  142.6960   80.8930  223.4870 C   0  0  0  0  0  0  0  0  0  0  0  0
  142.0880   81.1630  222.2820 C   0  0  0  0  0  0  0  0  0  0  0  0
  141.1060   80.3880  221.7340 C   0  0  0  0  0  0  0  0  0  0  0  0
  142.8146   73.0752  221.5669 H   0  0  0  0  0  0  0  0  0  0  0  0
  142.5224   72.2243  220.0121 H   0  0  0  0  0  0  0  0  0  0  0  0
  143.2041   73.8863  220.0121 H   0  0  0  0  0  0  0  0  0  0  0  0
  139.7429   74.1205  219.0047 H   0  0  0  0  0  0  0  0  0  0  0  0
  140.8340   72.6645  218.7586 H   0  0  0  0  0  0  0  0  0  0  0  0
  138.2057   72.8479  219.9571 H   0  0  0  0  0  0  0  0  0  0  0  0
  139.1530   71.4274  219.3880 H   0  0  0  0  0  0  0  0  0  0  0  0
  139.9150   72.5910  222.0780 H   0  0  0  0  0  0  0  0  0  0  0  0
  138.4371   68.2951  222.6660 H   0  0  0  0  0  0  0  0  0  0  0  0
  138.8090   67.3682  224.9651 H   0  0  0  0  0  0  0  0  0  0  0  0
  139.6540   67.6627  227.1424 H   0  0  0  0  0  0  0  0  0  0  0  0
  141.5525   71.3387  228.2646 H   0  0  0  0  0  0  0  0  0  0  0  0
  141.1873   72.2847  225.9677 H   0  0  0  0  0  0  0  0  0  0  0  0
  141.0902   76.4255  222.3159 H   0  0  0  0  0  0  0  0  0  0  0  0
  142.8301   77.3406  220.9022 H   0  0  0  0  0  0  0  0  0  0  0  0
  143.0158   75.6585  220.4882 H   0  0  0  0  0  0  0  0  0  0  0  0
  141.5412   75.9445  218.4274 H   0  0  0  0  0  0  0  0  0  0  0  0
  143.3360   77.9330  219.0410 H   0  0  0  0  0  0  0  0  0  0  0  0
  140.7799   78.6667  219.5839 H   0  0  0  0  0  0  0  0  0  0  0  0
  139.7527   77.5565  218.6595 H   0  0  0  0  0  0  0  0  0  0  0  0
  140.9752   78.0889  224.2035 H   0  0  0  0  0  0  0  0  0  0  0  0
  142.7434   79.5208  225.1500 H   0  0  0  0  0  0  0  0  0  0  0  0
  143.4845   81.5496  223.8834 H   0  0  0  0  0  0  0  0  0  0  0  0
  142.4123   82.0560  221.7275 H   0  0  0  0  0  0  0  0  0  0  0  0
  140.6553   80.6512  220.7657 H   0  0  0  0  0  0  0  0  0  0  0  0
  1  2  1  0
  2  3  1  0
  3  4  1  0
  4  5  1  0
  5  6  1  0
  6  7  2  0
  6  8  1  0
  8  9  2  0
  9 10  1  0
 10 11  2  0
 11 12  1  0
 12 13  2  0
 13 14  1  0
 13 15  1  0
 15 16  2  0
 16 17  1  0
 17 18  2  0
  2 19  1  0
 19 20  2  0
 19 21  1  0
 21 22  1  0
 22 23  1  0
 23 24  1  0
 23 25  1  0
 25 26  1  0
 26 27  1  0
 27 28  2  0
 27 29  2  0
 27 30  1  0
 30 31  2  0
 31 32  1  0
 32 33  2  0
 33 34  1  0
 34 35  2  0
 18  8  1  0
 26 21  1  0
 35 30  1  0
 17 11  1  0
  1 36  1  0
  1 37  1  0
  1 38  1  0
  3 39  1  0
  3 40  1  0
  4 41  1  0
  4 42  1  0
  5 43  1  0
  9 44  1  0
 10 45  1  0
 12 46  1  0
 15 47  1  0
 16 48  1  0
 21 49  1  1
 22 50  1  0
 22 51  1  0
 23 52  1  6
 24 53  1  0
 25 54  1  0
 25 55  1  0
 31 56  1  0
 32 57  1  0
 33 58  1  0
 34 59  1  0
 35 60  1  0
M  END
>  <smiles>  (29) 
CN(CCNC(=O)c1ccc2cc(F)ccc2n1)C(=O)[C@H]1C[C@H](O)CN1S(=O)(=O)c1ccccc1

>  <score_type>  (29) 
oracle

>  <origin>  (29) 
autodockgpu

>  <m_score__min__energy>  (29) 
-9.1999999999999993

>  <m_primary>  (29) 
energy

>  <rmsd>  (29) 
2.457179214599851

>  <m_score__min__rmsd>  (29) 
2.457179214599851

>  <meeko>  (29) 
{"free_energy": -7.89, "intermolecular_energy": -10.57, "internal_energy": -2.78, "cluster_size": 14, "cluster_id": 1, "rank_in_cluster": 13}

>  <energy>  (29) 
-7.97

>  <cluster_rmsd>  (29) 
1.42

>  <cluster>  (29) 
4

$$$$

     RDKit          3D

 60 63  0  0  0  0  0  0  0  0999 V2000
  142.2180   72.8710  219.9730 C   0  0  0  0  0  0  0  0  0  0  0  0
  141.2310   73.7560  219.3850 N   0  0  0  0  0  0  0  0  0  0  0  0
  139.8570   73.3030  219.2740 C   0  0  0  0  0  0  0  0  0  0  0  0
  138.9680   73.7290  220.3980 C   0  0  0  0  0  0  0  0  0  0  0  0
  138.8890   72.6880  221.3840 N   0  0  0  0  0  0  0  0  0  0  0  0
  139.8890   72.7010  222.4180 C   0  0  0  0  0  0  0  0  0  0  0  0
  140.7310   73.6330  222.3410 O   0  0  0  0  0  0  0  0  0  0  0  0
  139.9180   71.7000  223.4770 C   0  0  0  0  0  0  0  0  0  0  0  0
  139.3570   70.4720  223.1990 C   0  0  0  0  0  0  0  0  0  0  0  0
  139.3510   69.4720  224.1600 C   0  0  0  0  0  0  0  0  0  0  0  0
  139.9160   69.7610  225.3690 C   0  0  0  0  0  0  0  0  0  0  0  0
  139.9180   68.7780  226.3380 C   0  0  0  0  0  0  0  0  0  0  0  0
  140.4770   69.0480  227.5520 C   0  0  0  0  0  0  0  0  0  0  0  0
  140.4970   68.0960  228.5370 F   0  0  0  0  0  0  0  0  0  0  0  0
  141.0400   70.2810  227.8290 C   0  0  0  0  0  0  0  0  0  0  0  0
  141.0530   71.2920  226.8750 C   0  0  0  0  0  0  0  0  0  0  0  0
  140.4830   70.9960  225.6600 C   0  0  0  0  0  0  0  0  0  0  0  0
  140.4610   71.9330  224.6830 N   0  0  0  0  0  0  0  0  0  0  0  0
  141.5400   75.0540  218.8900 C   0  0  0  0  0  0  0  0  0  0  0  0
  141.5350   75.2380  217.6110 O   0  0  0  0  0  0  0  0  0  0  0  0
  141.8680   76.2250  219.6940 C   0  0  1  0  0  0  0  0  0  0  0  0
  142.9680   77.0800  219.0950 C   0  0  0  0  0  0  0  0  0  0  0  0
  142.1600   78.1720  218.3790 C   0  0  2  0  0  0  0  0  0  0  0  0
  142.9530   79.3140  218.2260 O   0  0  0  0  0  0  0  0  0  0  0  0
  141.0650   78.3990  219.3910 C   0  0  0  0  0  0  0  0  0  0  0  0
  140.8250   77.1330  220.0120 N   0  0  0  0  0  0  0  0  0  0  0  0
  140.4910   77.2690  221.6890 S   0  0  0  0  0  0  0  0  0  0  0  0
  138.9910   77.1870  221.8650 O   0  0  0  0  0  0  0  0  0  0  0  0
  141.0930   76.1930  222.5040 O   0  0  0  0  0  0  0  0  0  0  0  0
  140.9930   78.8040  222.3640 C   0  0  0  0  0  0  0  0  0  0  0  0
  140.2880   79.9770  222.1630 C   0  0  0  0  0  0  0  0  0  0  0  0
  140.6820   81.1880  222.6950 C   0  0  0  0  0  0  0  0  0  0  0  0
  141.8270   81.2390  223.4610 C   0  0  0  0  0  0  0  0  0  0  0  0
  142.5260   80.0700  223.6580 C   0  0  0  0  0  0  0  0  0  0  0  0
  142.1520   78.8620  223.1400 C   0  0  0  0  0  0  0  0  0  0  0  0
  142.1545   72.9280  221.0697 H   0  0  0  0  0  0  0  0  0  0  0  0
  142.0245   71.8382  219.6477 H   0  0  0  0  0  0  0  0  0  0  0  0
  143.2237   73.1756  219.6477 H   0  0  0  0  0  0  0  0  0  0  0  0
  139.4395   73.7002  218.3370 H   0  0  0  0  0  0  0  0  0  0  0  0
  139.8882   72.2038  219.3009 H   0  0  0  0  0  0  0  0  0  0  0  0
  139.3772   74.6390  220.8611 H   0  0  0  0  0  0  0  0  0  0  0  0
  137.9607   73.9308  220.0048 H   0  0  0  0  0  0  0  0  0  0  0  0
  138.1880   71.9290  221.4310 H   0  0  0  0  0  0  0  0  0  0  0  0
  138.9121   70.2843  222.2106 H   0  0  0  0  0  0  0  0  0  0  0  0
  138.9088   68.4856  223.9564 H   0  0  0  0  0  0  0  0  0  0  0  0
  139.4754   67.7919  226.1340 H   0  0  0  0  0  0  0  0  0  0  0  0
  141.4839   70.4640  228.8187 H   0  0  0  0  0  0  0  0  0  0  0  0
  141.4963   72.2773  227.0817 H   0  0  0  0  0  0  0  0  0  0  0  0
  142.1687   75.7120  220.6194 H   0  0  0  0  0  0  0  0  0  0  0  0
  143.6142   77.5068  219.8762 H   0  0  0  0  0  0  0  0  0  0  0  0
  143.6534   76.5274  218.4356 H   0  0  0  0  0  0  0  0  0  0  0  0
  141.7998   77.9210  217.3704 H   0  0  0  0  0  0  0  0  0  0  0  0
  143.4030   79.2580  217.3420 H   0  0  0  0  0  0  0  0  0  0  0  0
  141.3863   79.1366  220.1411 H   0  0  0  0  0  0  0  0  0  0  0  0
  140.1541   78.7901  218.9142 H   0  0  0  0  0  0  0  0  0  0  0  0
  139.3735   79.9431  221.5526 H   0  0  0  0  0  0  0  0  0  0  0  0
  140.0919   82.0979  222.5108 H   0  0  0  0  0  0  0  0  0  0  0  0
  142.1717   82.1861  223.9017 H   0  0  0  0  0  0  0  0  0  0  0  0
  143.4400   80.1104  224.2687 H   0  0  0  0  0  0  0  0  0  0  0  0
  142.7492   77.9580  223.3297 H   0  0  0  0  0  0  0  0  0  0  0  0
  1  2  1  0
  2  3  1  0
  3  4  1  0
  4  5  1  0
  5  6  1  0
  6  7  2  0
  6  8  1  0
  8  9  2  0
  9 10  1  0
 10 11  2  0
 11 12  1  0
 12 13  2  0
 13 14  1  0
 13 15  1  0
 15 16  2  0
 16 17  1  0
 17 18  2  0
  2 19  1  0
 19 20  2  0
 19 21  1  0
 21 22  1  0
 22 23  1  0
 23 24  1  0
 23 25  1  0
 25 26  1  0
 26 27  1  0
 27 28  2  0
 27 29  2  0
 27 30  1  0
 30 31  2  0
 31 32  1  0
 32 33  2  0
 33 34  1  0
 34 35  2  0
 18  8  1  0
 26 21  1  0
 35 30  1  0
 17 11  1  0
  1 36  1  0
  1 37  1  0
  1 38  1  0
  3 39  1  0
  3 40  1  0
  4 41  1  0
  4 42  1  0
  5 43  1  0
  9 44  1  0
 10 45  1  0
 12 46  1  0
 15 47  1  0
 16 48  1  0
 21 49  1  1
 22 50  1  0
 22 51  1  0
 23 52  1  6
 24 53  1  0
 25 54  1  0
 25 55  1  0
 31 56  1  0
 32 57  1  0
 33 58  1  0
 34 59  1  0
 35 60  1  0
M  END
>  <smiles>  (30) 
CN(CCNC(=O)c1ccc2cc(F)ccc2n1)C(=O)[C@H]1C[C@H](O)CN1S(=O)(=O)c1ccccc1

>  <score_type>  (30) 
oracle

>  <origin>  (30) 
autodockgpu

>  <m_score__min__energy>  (30) 
-9.1999999999999993

>  <m_primary>  (30) 
energy

>  <rmsd>  (30) 
2.4609403241310996

>  <m_score__min__rmsd>  (30) 
2.4609403241310996

>  <meeko>  (30) 
{"free_energy": -8.74, "intermolecular_energy": -11.42, "internal_energy": -2.1, "cluster_size": 14, "cluster_id": 1, "rank_in_cluster": 8}

>  <energy>  (30) 
-7.61

>  <cluster_rmsd>  (30) 
1.36

>  <cluster>  (30) 
4

$$$$

     RDKit          3D

 60 63  0  0  0  0  0  0  0  0999 V2000
  135.4270   74.7400  224.4700 C   0  0  0  0  0  0  0  0  0  0  0  0
  136.0240   74.2790  223.2310 N   0  0  0  0  0  0  0  0  0  0  0  0
  136.5530   75.2560  222.2990 C   0  0  0  0  0  0  0  0  0  0  0  0
  137.7500   76.0050  222.7930 C   0  0  0  0  0  0  0  0  0  0  0  0
  138.9510   75.3070  222.4280 N   0  0  0  0  0  0  0  0  0  0  0  0
  139.8340   75.9770  221.5110 C   0  0  0  0  0  0  0  0  0  0  0  0
  139.4490   77.1120  221.1250 O   0  0  0  0  0  0  0  0  0  0  0  0
  141.0840   75.3760  221.0640 C   0  0  0  0  0  0  0  0  0  0  0  0
  141.9840   76.1960  220.4200 C   0  0  0  0  0  0  0  0  0  0  0  0
  143.1940   75.6900  219.9690 C   0  0  0  0  0  0  0  0  0  0  0  0
  143.4420   74.3660  220.1930 C   0  0  0  0  0  0  0  0  0  0  0  0
  144.6400   73.8450  219.7510 C   0  0  0  0  0  0  0  0  0  0  0  0
  144.9060   72.5250  219.9650 C   0  0  0  0  0  0  0  0  0  0  0  0
  146.0860   71.9730  219.5400 F   0  0  0  0  0  0  0  0  0  0  0  0
  144.0020   71.7020  220.6120 C   0  0  0  0  0  0  0  0  0  0  0  0
  142.7860   72.1970  221.0690 C   0  0  0  0  0  0  0  0  0  0  0  0
  142.5410   73.5300  220.8410 C   0  0  0  0  0  0  0  0  0  0  0  0
  141.3770   74.0790  221.2590 N   0  0  0  0  0  0  0  0  0  0  0  0
  136.1070   72.9050  222.8670 C   0  0  0  0  0  0  0  0  0  0  0  0
  135.4280   72.5020  221.8440 O   0  0  0  0  0  0  0  0  0  0  0  0
  136.8980   71.8840  223.5410 C   0  0  1  0  0  0  0  0  0  0  0  0
  136.0580   70.8600  224.2810 C   0  0  0  0  0  0  0  0  0  0  0  0
  135.9980   69.7120  223.2630 C   0  0  2  0  0  0  0  0  0  0  0  0
  135.7390   68.5100  223.9300 O   0  0  0  0  0  0  0  0  0  0  0  0
  137.4100   69.7510  222.7340 C   0  0  0  0  0  0  0  0  0  0  0  0
  137.8120   71.1230  222.7680 N   0  0  0  0  0  0  0  0  0  0  0  0
  139.4560   71.3220  223.2150 S   0  0  0  0  0  0  0  0  0  0  0  0
  140.2890   70.4600  222.2920 O   0  0  0  0  0  0  0  0  0  0  0  0
  139.9430   72.7120  223.0840 O   0  0  0  0  0  0  0  0  0  0  0  0
  139.7920   70.7830  224.8460 C   0  0  0  0  0  0  0  0  0  0  0  0
  140.5590   71.5140  225.7340 C   0  0  0  0  0  0  0  0  0  0  0  0
  140.8240   71.0900  227.0200 C   0  0  0  0  0  0  0  0  0  0  0  0
  140.3050   69.8860  227.4460 C   0  0  0  0  0  0  0  0  0  0  0  0
  139.5430   69.1610  226.5580 C   0  0  0  0  0  0  0  0  0  0  0  0
  139.2700   69.5640  225.2820 C   0  0  0  0  0  0  0  0  0  0  0  0
  135.9772   74.3151  225.3225 H   0  0  0  0  0  0  0  0  0  0  0  0
  135.4745   75.8381  224.5136 H   0  0  0  0  0  0  0  0  0  0  0  0
  134.3766   74.4164  224.5136 H   0  0  0  0  0  0  0  0  0  0  0  0
  136.8347   74.7306  221.3746 H   0  0  0  0  0  0  0  0  0  0  0  0
  135.7596   76.0026  222.1469 H   0  0  0  0  0  0  0  0  0  0  0  0
  137.7618   77.0094  222.3447 H   0  0  0  0  0  0  0  0  0  0  0  0
  137.6983   76.0863  223.8888 H   0  0  0  0  0  0  0  0  0  0  0  0
  139.2510   74.3730  222.7570 H   0  0  0  0  0  0  0  0  0  0  0  0
  141.7419   77.2574  220.2626 H   0  0  0  0  0  0  0  0  0  0  0  0
  143.9244   76.3294  219.4517 H   0  0  0  0  0  0  0  0  0  0  0  0
  145.3700   74.4848  219.2336 H   0  0  0  0  0  0  0  0  0  0  0  0
  144.2486   70.6413  220.7671 H   0  0  0  0  0  0  0  0  0  0  0  0
  142.0577   71.5551  221.5862 H   0  0  0  0  0  0  0  0  0  0  0  0
  137.4781   72.5389  224.2078 H   0  0  0  0  0  0  0  0  0  0  0  0
  136.5441   70.5424  225.2153 H   0  0  0  0  0  0  0  0  0  0  0  0
  135.0710   71.2329  224.5920 H   0  0  0  0  0  0  0  0  0  0  0  0
  135.2220   69.7963  222.4879 H   0  0  0  0  0  0  0  0  0  0  0  0
  134.7540   68.4110  224.0120 H   0  0  0  0  0  0  0  0  0  0  0  0
  138.0719   69.1440  223.3692 H   0  0  0  0  0  0  0  0  0  0  0  0
  137.4671   69.3421  221.7144 H   0  0  0  0  0  0  0  0  0  0  0  0
  140.9763   72.4757  225.4008 H   0  0  0  0  0  0  0  0  0  0  0  0
  141.4397   71.7030  227.6947 H   0  0  0  0  0  0  0  0  0  0  0  0
  140.4940   69.5159  228.4645 H   0  0  0  0  0  0  0  0  0  0  0  0
  139.1292   68.1996  226.8964 H   0  0  0  0  0  0  0  0  0  0  0  0
  138.6541   68.9435  224.6145 H   0  0  0  0  0  0  0  0  0  0  0  0
  1  2  1  0
  2  3  1  0
  3  4  1  0
  4  5  1  0
  5  6  1  0
  6  7  2  0
  6  8  1  0
  8  9  2  0
  9 10  1  0
 10 11  2  0
 11 12  1  0
 12 13  2  0
 13 14  1  0
 13 15  1  0
 15 16  2  0
 16 17  1  0
 17 18  2  0
  2 19  1  0
 19 20  2  0
 19 21  1  0
 21 22  1  0
 22 23  1  0
 23 24  1  0
 23 25  1  0
 25 26  1  0
 26 27  1  0
 27 28  2  0
 27 29  2  0
 27 30  1  0
 30 31  2  0
 31 32  1  0
 32 33  2  0
 33 34  1  0
 34 35  2  0
 18  8  1  0
 26 21  1  0
 35 30  1  0
 17 11  1  0
  1 36  1  0
  1 37  1  0
  1 38  1  0
  3 39  1  0
  3 40  1  0
  4 41  1  0
  4 42  1  0
  5 43  1  0
  9 44  1  0
 10 45  1  0
 12 46  1  0
 15 47  1  0
 16 48  1  0
 21 49  1  1
 22 50  1  0
 22 51  1  0
 23 52  1  6
 24 53  1  0
 25 54  1  0
 25 55  1  0
 31 56  1  0
 32 57  1  0
 33 58  1  0
 34 59  1  0
 35 60  1  0
M  END
>  <smiles>  (31) 
CN(CCNC(=O)c1ccc2cc(F)ccc2n1)C(=O)[C@H]1C[C@H](O)CN1S(=O)(=O)c1ccccc1

>  <score_type>  (31) 
oracle

>  <origin>  (31) 
autodockgpu

>  <m_score__min__energy>  (31) 
-9.1999999999999993

>  <m_primary>  (31) 
energy

>  <rmsd>  (31) 
7.952889917263816

>  <m_score__min__rmsd>  (31) 
7.952889917263816

>  <meeko>  (31) 
{"free_energy": -7.43, "intermolecular_energy": -10.12, "internal_energy": -3.25, "cluster_size": 2, "cluster_id": 8, "rank_in_cluster": 1}

>  <energy>  (31) 
-7.16

>  <cluster_rmsd>  (31) 
1.76

>  <cluster>  (31) 
4

$$$$

     RDKit          3D

 60 63  0  0  0  0  0  0  0  0999 V2000
  141.0350   77.1010  222.7250 C   0  0  0  0  0  0  0  0  0  0  0  0
  140.8330   76.4690  221.4360 N   0  0  0  0  0  0  0  0  0  0  0  0
  139.5880   75.7710  221.1820 C   0  0  0  0  0  0  0  0  0  0  0  0
  139.7380   74.3100  220.9000 C   0  0  0  0  0  0  0  0  0  0  0  0
  139.5060   73.5520  222.0980 N   0  0  0  0  0  0  0  0  0  0  0  0
  140.3620   72.4170  222.3190 C   0  0  0  0  0  0  0  0  0  0  0  0
  141.2260   72.2120  221.4270 O   0  0  0  0  0  0  0  0  0  0  0  0
  140.2290   71.5690  223.4970 C   0  0  0  0  0  0  0  0  0  0  0  0
  139.5810   70.3640  223.3370 C   0  0  0  0  0  0  0  0  0  0  0  0
  139.4200   69.5070  224.4160 C   0  0  0  0  0  0  0  0  0  0  0  0
  139.9260   69.9110  225.6180 C   0  0  0  0  0  0  0  0  0  0  0  0
  139.7750   69.0720  226.7020 C   0  0  0  0  0  0  0  0  0  0  0  0
  140.2730   69.4580  227.9120 C   0  0  0  0  0  0  0  0  0  0  0  0
  140.1420   68.6500  229.0100 F   0  0  0  0  0  0  0  0  0  0  0  0
  140.9240   70.6680  228.0710 C   0  0  0  0  0  0  0  0  0  0  0  0
  141.0920   71.5360  226.9980 C   0  0  0  0  0  0  0  0  0  0  0  0
  140.5810   71.1240  225.7900 C   0  0  0  0  0  0  0  0  0  0  0  0
  140.7090   71.9190  224.7020 N   0  0  0  0  0  0  0  0  0  0  0  0
  141.8080   76.4800  220.3980 C   0  0  0  0  0  0  0  0  0  0  0  0
  142.3850   75.3650  220.0890 O   0  0  0  0  0  0  0  0  0  0  0  0
  142.2320   77.6430  219.6290 C   0  0  1  0  0  0  0  0  0  0  0  0
  143.2130   77.3110  218.5220 C   0  0  0  0  0  0  0  0  0  0  0  0
  142.2870   77.2180  217.3010 C   0  0  2  0  0  0  0  0  0  0  0  0
  143.0270   77.4450  216.1360 O   0  0  0  0  0  0  0  0  0  0  0  0
  141.3530   78.3670  217.5880 C   0  0  0  0  0  0  0  0  0  0  0  0
  141.2330   78.4390  219.0120 N   0  0  0  0  0  0  0  0  0  0  0  0
  141.1540   80.0520  219.5900 S   0  0  0  0  0  0  0  0  0  0  0  0
  142.3200   80.8090  218.9960 O   0  0  0  0  0  0  0  0  0  0  0  0
  139.9180   80.7620  219.2000 O   0  0  0  0  0  0  0  0  0  0  0  0
  141.3160   80.1630  221.3300 C   0  0  0  0  0  0  0  0  0  0  0  0
  140.2300   80.2730  222.1780 C   0  0  0  0  0  0  0  0  0  0  0  0
  140.3560   80.3600  223.5490 C   0  0  0  0  0  0  0  0  0  0  0  0
  141.6170   80.3380  224.1060 C   0  0  0  0  0  0  0  0  0  0  0  0
  142.6960   80.2290  223.2580 C   0  0  0  0  0  0  0  0  0  0  0  0
  142.5900   80.1420  221.8980 C   0  0  0  0  0  0  0  0  0  0  0  0
  140.8053   76.3825  223.5257 H   0  0  0  0  0  0  0  0  0  0  0  0
  142.0820   77.4266  222.8137 H   0  0  0  0  0  0  0  0  0  0  0  0
  140.3710   77.9735  222.8137 H   0  0  0  0  0  0  0  0  0  0  0  0
  138.9444   75.8851  222.0667 H   0  0  0  0  0  0  0  0  0  0  0  0
  139.1589   76.2206  220.2744 H   0  0  0  0  0  0  0  0  0  0  0  0
  139.0092   74.0104  220.1325 H   0  0  0  0  0  0  0  0  0  0  0  0
  140.7593   74.1145  220.5411 H   0  0  0  0  0  0  0  0  0  0  0  0
  138.7900   73.7370  222.8210 H   0  0  0  0  0  0  0  0  0  0  0  0
  139.1894   70.0800  222.3491 H   0  0  0  0  0  0  0  0  0  0  0  0
  138.9054   68.5409  224.3075 H   0  0  0  0  0  0  0  0  0  0  0  0
  139.2606   68.1058  226.5926 H   0  0  0  0  0  0  0  0  0  0  0  0
  141.3144   70.9476  229.0607 H   0  0  0  0  0  0  0  0  0  0  0  0
  141.6067   72.5017  227.1097 H   0  0  0  0  0  0  0  0  0  0  0  0
  142.6784   78.2278  220.4467 H   0  0  0  0  0  0  0  0  0  0  0  0
  143.9614   78.1075  218.3976 H   0  0  0  0  0  0  0  0  0  0  0  0
  143.8013   76.3999  218.7059 H   0  0  0  0  0  0  0  0  0  0  0  0
  141.7835   76.2515  217.1511 H   0  0  0  0  0  0  0  0  0  0  0  0
  143.5620   78.2720  216.2700 H   0  0  0  0  0  0  0  0  0  0  0  0
  141.7700   79.3050  217.1927 H   0  0  0  0  0  0  0  0  0  0  0  0
  140.3735   78.2157  217.1107 H   0  0  0  0  0  0  0  0  0  0  0  0
  139.2210   80.2920  221.7404 H   0  0  0  0  0  0  0  0  0  0  0  0
  139.4645   80.4456  224.1877 H   0  0  0  0  0  0  0  0  0  0  0  0
  141.7567   80.4055  225.1950 H   0  0  0  0  0  0  0  0  0  0  0  0
  143.7027   80.2108  223.7009 H   0  0  0  0  0  0  0  0  0  0  0  0
  143.4871   80.0575  221.2670 H   0  0  0  0  0  0  0  0  0  0  0  0
  1  2  1  0
  2  3  1  0
  3  4  1  0
  4  5  1  0
  5  6  1  0
  6  7  2  0
  6  8  1  0
  8  9  2  0
  9 10  1  0
 10 11  2  0
 11 12  1  0
 12 13  2  0
 13 14  1  0
 13 15  1  0
 15 16  2  0
 16 17  1  0
 17 18  2  0
  2 19  1  0
 19 20  2  0
 19 21  1  0
 21 22  1  0
 22 23  1  0
 23 24  1  0
 23 25  1  0
 25 26  1  0
 26 27  1  0
 27 28  2  0
 27 29  2  0
 27 30  1  0
 30 31  2  0
 31 32  1  0
 32 33  2  0
 33 34  1  0
 34 35  2  0
 18  8  1  0
 26 21  1  0
 35 30  1  0
 17 11  1  0
  1 36  1  0
  1 37  1  0
  1 38  1  0
  3 39  1  0
  3 40  1  0
  4 41  1  0
  4 42  1  0
  5 43  1  0
  9 44  1  0
 10 45  1  0
 12 46  1  0
 15 47  1  0
 16 48  1  0
 21 49  1  1
 22 50  1  0
 22 51  1  0
 23 52  1  6
 24 53  1  0
 25 54  1  0
 25 55  1  0
 31 56  1  0
 32 57  1  0
 33 58  1  0
 34 59  1  0
 35 60  1  0
M  END
>  <smiles>  (32) 
CN(CCNC(=O)c1ccc2cc(F)ccc2n1)C(=O)[C@H]1C[C@H](O)CN1S(=O)(=O)c1ccccc1

>  <score_type>  (32) 
oracle

>  <origin>  (32) 
autodockgpu

>  <m_score__min__energy>  (32) 
-9.1999999999999993

>  <m_primary>  (32) 
energy

>  <rmsd>  (32) 
2.4645534294367217

>  <m_score__min__rmsd>  (32) 
2.4645534294367217

>  <meeko>  (32) 
{"free_energy": -8.75, "intermolecular_energy": -11.43, "internal_energy": -1.99, "cluster_size": 14, "cluster_id": 1, "rank_in_cluster": 7}

>  <energy>  (32) 
-6.7

>  <cluster_rmsd>  (32) 
1.74

>  <cluster>  (32) 
4

$$$$

     RDKit          3D

 60 63  0  0  0  0  0  0  0  0999 V2000
  133.7650   71.5050  222.3480 C   0  0  0  0  0  0  0  0  0  0  0  0
  134.6300   72.5810  222.7910 N   0  0  0  0  0  0  0  0  0  0  0  0
  135.3150   73.3880  221.7990 C   0  0  0  0  0  0  0  0  0  0  0  0
  136.7750   73.0960  221.6580 C   0  0  0  0  0  0  0  0  0  0  0  0
  137.2780   72.5110  222.8690 N   0  0  0  0  0  0  0  0  0  0  0  0
  137.9780   71.2600  222.7400 C   0  0  0  0  0  0  0  0  0  0  0  0
  138.0690   70.8130  221.5680 O   0  0  0  0  0  0  0  0  0  0  0  0
  138.5370   70.5670  223.8940 C   0  0  0  0  0  0  0  0  0  0  0  0
  138.3010   69.2130  223.9910 C   0  0  0  0  0  0  0  0  0  0  0  0
  138.8050   68.4900  225.0620 C   0  0  0  0  0  0  0  0  0  0  0  0
  139.5300   69.1750  225.9950 C   0  0  0  0  0  0  0  0  0  0  0  0
  140.0380   68.4720  227.0680 C   0  0  0  0  0  0  0  0  0  0  0  0
  140.7650   69.1380  228.0100 C   0  0  0  0  0  0  0  0  0  0  0  0
  141.2860   68.4730  229.0880 F   0  0  0  0  0  0  0  0  0  0  0  0
  141.0010   70.4980  227.9100 C   0  0  0  0  0  0  0  0  0  0  0  0
  140.5030   71.2340  226.8420 C   0  0  0  0  0  0  0  0  0  0  0  0
  139.7730   70.5400  225.9060 C   0  0  0  0  0  0  0  0  0  0  0  0
  139.2570   71.1930  224.8390 N   0  0  0  0  0  0  0  0  0  0  0  0
  134.8620   72.8830  224.1630 C   0  0  0  0  0  0  0  0  0  0  0  0
  135.4070   74.0180  224.4560 O   0  0  0  0  0  0  0  0  0  0  0  0
  134.5400   72.0270  225.2980 C   0  0  1  0  0  0  0  0  0  0  0  0
  133.9490   72.7800  226.4740 C   0  0  0  0  0  0  0  0  0  0  0  0
  132.4450   72.5560  226.2630 C   0  0  2  0  0  0  0  0  0  0  0  0
  131.7760   72.7030  227.4830 O   0  0  0  0  0  0  0  0  0  0  0  0
  132.4510   71.1160  225.8140 C   0  0  0  0  0  0  0  0  0  0  0  0
  133.6670   70.9300  225.0840 N   0  0  0  0  0  0  0  0  0  0  0  0
  134.3780   69.3930  225.3590 S   0  0  0  0  0  0  0  0  0  0  0  0
  135.8250   69.6190  225.7340 O   0  0  0  0  0  0  0  0  0  0  0  0
  133.7460   68.6350  226.4600 O   0  0  0  0  0  0  0  0  0  0  0  0
  134.3810   68.3770  223.9340 C   0  0  0  0  0  0  0  0  0  0  0  0
  135.2640   68.5600  222.8850 C   0  0  0  0  0  0  0  0  0  0  0  0
  135.2690   67.7590  221.7620 C   0  0  0  0  0  0  0  0  0  0  0  0
  134.3560   66.7300  221.6720 C   0  0  0  0  0  0  0  0  0  0  0  0
  133.4780   66.5520  222.7170 C   0  0  0  0  0  0  0  0  0  0  0  0
  133.4590   67.3340  223.8380 C   0  0  0  0  0  0  0  0  0  0  0  0
  133.3477   70.9859  223.2235 H   0  0  0  0  0  0  0  0  0  0  0  0
  132.9455   71.9191  221.7422 H   0  0  0  0  0  0  0  0  0  0  0  0
  134.3455   70.7936  221.7422 H   0  0  0  0  0  0  0  0  0  0  0  0
  134.8349   73.2143  220.8247 H   0  0  0  0  0  0  0  0  0  0  0  0
  135.2375   74.4313  222.1388 H   0  0  0  0  0  0  0  0  0  0  0  0
  136.9274   72.3950  220.8241 H   0  0  0  0  0  0  0  0  0  0  0  0
  137.3134   74.0345  221.4596 H   0  0  0  0  0  0  0  0  0  0  0  0
  137.1930   72.8950  223.8260 H   0  0  0  0  0  0  0  0  0  0  0  0
  137.7103   68.7032  223.2157 H   0  0  0  0  0  0  0  0  0  0  0  0
  138.6279   67.4084  225.1562 H   0  0  0  0  0  0  0  0  0  0  0  0
  139.8593   67.3907  227.1621 H   0  0  0  0  0  0  0  0  0  0  0  0
  141.5918   71.0039  228.6878 H   0  0  0  0  0  0  0  0  0  0  0  0
  140.6833   72.3152  226.7500 H   0  0  0  0  0  0  0  0  0  0  0  0
  135.5462   71.6289  225.4956 H   0  0  0  0  0  0  0  0  0  0  0  0
  134.2869   72.3571  227.4316 H   0  0  0  0  0  0  0  0  0  0  0  0
  134.2408   73.8397  226.5178 H   0  0  0  0  0  0  0  0  0  0  0  0
  131.9491   73.2463  225.5648 H   0  0  0  0  0  0  0  0  0  0  0  0
  132.4530   72.6590  228.2110 H   0  0  0  0  0  0  0  0  0  0  0  0
  132.4229   70.4449  226.6851 H   0  0  0  0  0  0  0  0  0  0  0  0
  131.5722   70.8862  225.1936 H   0  0  0  0  0  0  0  0  0  0  0  0
  135.9942   69.3802  222.9492 H   0  0  0  0  0  0  0  0  0  0  0  0
  135.9902   67.9385  220.9510 H   0  0  0  0  0  0  0  0  0  0  0  0
  134.3300   66.0711  220.7916 H   0  0  0  0  0  0  0  0  0  0  0  0
  132.7484   65.7319  222.6458 H   0  0  0  0  0  0  0  0  0  0  0  0
  132.7349   67.1458  224.6444 H   0  0  0  0  0  0  0  0  0  0  0  0
  1  2  1  0
  2  3  1  0
  3  4  1  0
  4  5  1  0
  5  6  1  0
  6  7  2  0
  6  8  1  0
  8  9  2  0
  9 10  1  0
 10 11  2  0
 11 12  1  0
 12 13  2  0
 13 14  1  0
 13 15  1  0
 15 16  2  0
 16 17  1  0
 17 18  2  0
  2 19  1  0
 19 20  2  0
 19 21  1  0
 21 22  1  0
 22 23  1  0
 23 24  1  0
 23 25  1  0
 25 26  1  0
 26 27  1  0
 27 28  2  0
 27 29  2  0
 27 30  1  0
 30 31  2  0
 31 32  1  0
 32 33  2  0
 33 34  1  0
 34 35  2  0
 18  8  1  0
 26 21  1  0
 35 30  1  0
 17 11  1  0
  1 36  1  0
  1 37  1  0
  1 38  1  0
  3 39  1  0
  3 40  1  0
  4 41  1  0
  4 42  1  0
  5 43  1  0
  9 44  1  0
 10 45  1  0
 12 46  1  0
 15 47  1  0
 16 48  1  0
 21 49  1  1
 22 50  1  0
 22 51  1  0
 23 52  1  6
 24 53  1  0
 25 54  1  0
 25 55  1  0
 31 56  1  0
 32 57  1  0
 33 58  1  0
 34 59  1  0
 35 60  1  0
M  END
>  <smiles>  (33) 
CN(CCNC(=O)c1ccc2cc(F)ccc2n1)C(=O)[C@H]1C[C@H](O)CN1S(=O)(=O)c1ccccc1

>  <score_type>  (33) 
oracle

>  <origin>  (33) 
autodockgpu

>  <m_score__min__energy>  (33) 
-9.1999999999999993

>  <m_primary>  (33) 
energy

>  <rmsd>  (33) 
6.471288997942338

>  <m_score__min__rmsd>  (33) 
6.471288997942338

>  <meeko>  (33) 
{"free_energy": -6.77, "intermolecular_energy": -9.46, "internal_energy": -3.54, "cluster_size": 1, "cluster_id": 11, "rank_in_cluster": 1}

>  <energy>  (33) 
-7.89

>  <cluster_rmsd>  (33) 
0.0

>  <cluster>  (33) 
5

$$$$

     RDKit          3D

 60 63  0  0  0  0  0  0  0  0999 V2000
  143.1300   73.7820  217.5940 C   0  0  0  0  0  0  0  0  0  0  0  0
  142.3890   73.6670  218.8360 N   0  0  0  0  0  0  0  0  0  0  0  0
  141.2970   72.7170  218.9190 C   0  0  0  0  0  0  0  0  0  0  0  0
  140.1920   73.1160  219.8450 C   0  0  0  0  0  0  0  0  0  0  0  0
  140.0270   72.1210  220.8680 N   0  0  0  0  0  0  0  0  0  0  0  0
  140.3420   72.5220  222.2140 C   0  0  0  0  0  0  0  0  0  0  0  0
  140.7320   73.7110  222.3450 O   0  0  0  0  0  0  0  0  0  0  0  0
  140.2140   71.6070  223.3410 C   0  0  0  0  0  0  0  0  0  0  0  0
  139.5820   70.4050  223.1090 C   0  0  0  0  0  0  0  0  0  0  0  0
  139.4270   69.4860  224.1370 C   0  0  0  0  0  0  0  0  0  0  0  0
  139.9220   69.8260  225.3630 C   0  0  0  0  0  0  0  0  0  0  0  0
  139.7770   68.9250  226.3970 C   0  0  0  0  0  0  0  0  0  0  0  0
  140.2640   69.2480  227.6290 C   0  0  0  0  0  0  0  0  0  0  0  0
  140.1380   68.3770  228.6790 F   0  0  0  0  0  0  0  0  0  0  0  0
  140.8990   70.4550  227.8600 C   0  0  0  0  0  0  0  0  0  0  0  0
  141.0610   71.3850  226.8390 C   0  0  0  0  0  0  0  0  0  0  0  0
  140.5610   71.0360  225.6070 C   0  0  0  0  0  0  0  0  0  0  0  0
  140.6830   71.8930  224.5670 N   0  0  0  0  0  0  0  0  0  0  0  0
  142.6660   74.4570  219.9870 C   0  0  0  0  0  0  0  0  0  0  0  0
  143.2330   73.8860  220.9990 O   0  0  0  0  0  0  0  0  0  0  0  0
  142.3730   75.8760  220.1470 C   0  0  1  0  0  0  0  0  0  0  0  0
  143.2870   76.7760  219.3390 C   0  0  0  0  0  0  0  0  0  0  0  0
  142.4330   77.0490  218.0930 C   0  0  2  0  0  0  0  0  0  0  0  0
  142.8510   78.2420  217.4930 O   0  0  0  0  0  0  0  0  0  0  0  0
  141.0750   77.2050  218.7290 C   0  0  0  0  0  0  0  0  0  0  0  0
  141.0590   76.3260  219.8580 N   0  0  0  0  0  0  0  0  0  0  0  0
  140.2240   76.9880  221.2030 S   0  0  0  0  0  0  0  0  0  0  0  0
  138.9310   77.5820  220.6910 O   0  0  0  0  0  0  0  0  0  0  0  0
  139.8760   75.9890  222.2350 O   0  0  0  0  0  0  0  0  0  0  0  0
  141.1010   78.2880  221.9800 C   0  0  0  0  0  0  0  0  0  0  0  0
  141.3950   78.2900  223.3320 C   0  0  0  0  0  0  0  0  0  0  0  0
  142.0870   79.3140  223.9460 C   0  0  0  0  0  0  0  0  0  0  0  0
  142.5070   80.3850  223.1870 C   0  0  0  0  0  0  0  0  0  0  0  0
  142.2120   80.3790  221.8420 C   0  0  0  0  0  0  0  0  0  0  0  0
  141.5280   79.3740  221.2170 C   0  0  0  0  0  0  0  0  0  0  0  0
  144.1946   73.9472  217.8161 H   0  0  0  0  0  0  0  0  0  0  0  0
  143.0164   72.8555  217.0121 H   0  0  0  0  0  0  0  0  0  0  0  0
  142.7409   74.6305  217.0121 H   0  0  0  0  0  0  0  0  0  0  0  0
  140.8725   72.5937  217.9117 H   0  0  0  0  0  0  0  0  0  0  0  0
  141.7231   71.7877  219.3251 H   0  0  0  0  0  0  0  0  0  0  0  0
  140.4380   74.0813  220.3116 H   0  0  0  0  0  0  0  0  0  0  0  0
  139.2562   73.2063  219.2739 H   0  0  0  0  0  0  0  0  0  0  0  0
  139.7030   71.1470  220.7420 H   0  0  0  0  0  0  0  0  0  0  0  0
  139.1986   70.1728  222.1045 H   0  0  0  0  0  0  0  0  0  0  0  0
  138.9250   68.5215  223.9706 H   0  0  0  0  0  0  0  0  0  0  0  0
  139.2759   67.9601  226.2303 H   0  0  0  0  0  0  0  0  0  0  0  0
  141.2814   70.6825  228.8660 H   0  0  0  0  0  0  0  0  0  0  0  0
  141.5628   72.3491  227.0083 H   0  0  0  0  0  0  0  0  0  0  0  0
  142.5299   75.9562  221.2328 H   0  0  0  0  0  0  0  0  0  0  0  0
  143.5150   77.7060  219.8805 H   0  0  0  0  0  0  0  0  0  0  0  0
  144.2693   76.3327  219.1187 H   0  0  0  0  0  0  0  0  0  0  0  0
  142.4778   76.2850  217.3029 H   0  0  0  0  0  0  0  0  0  0  0  0
  143.6240   78.0340  216.9040 H   0  0  0  0  0  0  0  0  0  0  0  0
  140.9232   78.2450  219.0534 H   0  0  0  0  0  0  0  0  0  0  0  0
  140.2701   76.9611  218.0200 H   0  0  0  0  0  0  0  0  0  0  0  0
  141.0628   77.4385  223.9440 H   0  0  0  0  0  0  0  0  0  0  0  0
  142.3001   79.2760  225.0245 H   0  0  0  0  0  0  0  0  0  0  0  0
  143.0611   81.2193  223.6419 H   0  0  0  0  0  0  0  0  0  0  0  0
  142.5464   81.2331  221.2348 H   0  0  0  0  0  0  0  0  0  0  0  0
  141.3195   79.4209  220.1380 H   0  0  0  0  0  0  0  0  0  0  0  0
  1  2  1  0
  2  3  1  0
  3  4  1  0
  4  5  1  0
  5  6  1  0
  6  7  2  0
  6  8  1  0
  8  9  2  0
  9 10  1  0
 10 11  2  0
 11 12  1  0
 12 13  2  0
 13 14  1  0
 13 15  1  0
 15 16  2  0
 16 17  1  0
 17 18  2  0
  2 19  1  0
 19 20  2  0
 19 21  1  0
 21 22  1  0
 22 23  1  0
 23 24  1  0
 23 25  1  0
 25 26  1  0
 26 27  1  0
 27 28  2  0
 27 29  2  0
 27 30  1  0
 30 31  2  0
 31 32  1  0
 32 33  2  0
 33 34  1  0
 34 35  2  0
 18  8  1  0
 26 21  1  0
 35 30  1  0
 17 11  1  0
  1 36  1  0
  1 37  1  0
  1 38  1  0
  3 39  1  0
  3 40  1  0
  4 41  1  0
  4 42  1  0
  5 43  1  0
  9 44  1  0
 10 45  1  0
 12 46  1  0
 15 47  1  0
 16 48  1  0
 21 49  1  1
 22 50  1  0
 22 51  1  0
 23 52  1  6
 24 53  1  0
 25 54  1  0
 25 55  1  0
 31 56  1  0
 32 57  1  0
 33 58  1  0
 34 59  1  0
 35 60  1  0
M  END
>  <smiles>  (34) 
CN(CCNC(=O)c1ccc2cc(F)ccc2n1)C(=O)[C@H]1C[C@H](O)CN1S(=O)(=O)c1ccccc1

>  <score_type>  (34) 
oracle

>  <origin>  (34) 
autodockgpu

>  <m_score__min__energy>  (34) 
-9.1999999999999993

>  <m_primary>  (34) 
energy

>  <rmsd>  (34) 
2.655200525315424

>  <m_score__min__rmsd>  (34) 
2.655200525315424

>  <meeko>  (34) 
{"free_energy": -8.56, "intermolecular_energy": -11.25, "internal_energy": -2.19, "cluster_size": 14, "cluster_id": 1, "rank_in_cluster": 10}

>  <energy>  (34) 
-7.83

>  <cluster_rmsd>  (34) 
0.35

>  <cluster>  (34) 
5

$$$$

     RDKit          3D

 60 63  0  0  0  0  0  0  0  0999 V2000
  136.6580   75.1120  219.0840 C   0  0  0  0  0  0  0  0  0  0  0  0
  137.0990   75.4920  220.4120 N   0  0  0  0  0  0  0  0  0  0  0  0
  136.6070   74.7500  221.5560 C   0  0  0  0  0  0  0  0  0  0  0  0
  136.7040   73.2630  221.4230 C   0  0  0  0  0  0  0  0  0  0  0  0
  137.1840   72.6910  222.6500 N   0  0  0  0  0  0  0  0  0  0  0  0
  138.0840   71.5740  222.5320 C   0  0  0  0  0  0  0  0  0  0  0  0
  138.3500   71.2190  221.3540 O   0  0  0  0  0  0  0  0  0  0  0  0
  138.6420   70.9070  223.7000 C   0  0  0  0  0  0  0  0  0  0  0  0
  138.3780   69.5620  223.8460 C   0  0  0  0  0  0  0  0  0  0  0  0
  138.8790   68.8640  224.9340 C   0  0  0  0  0  0  0  0  0  0  0  0
  139.6310   69.5620  225.8340 C   0  0  0  0  0  0  0  0  0  0  0  0
  140.1380   68.8840  226.9240 C   0  0  0  0  0  0  0  0  0  0  0  0
  140.8910   69.5640  227.8340 C   0  0  0  0  0  0  0  0  0  0  0  0
  141.4100   68.9230  228.9280 F   0  0  0  0  0  0  0  0  0  0  0  0
  141.1560   70.9140  227.6870 C   0  0  0  0  0  0  0  0  0  0  0  0
  140.6600   71.6260  226.6010 C   0  0  0  0  0  0  0  0  0  0  0  0
  139.9040   70.9180  225.6980 C   0  0  0  0  0  0  0  0  0  0  0  0
  139.3890   71.5470  224.6160 N   0  0  0  0  0  0  0  0  0  0  0  0
  137.9860   76.5780  220.6610 C   0  0  0  0  0  0  0  0  0  0  0  0
  137.5760   77.7750  220.4010 O   0  0  0  0  0  0  0  0  0  0  0  0
  139.3400   76.4770  221.1920 C   0  0  1  0  0  0  0  0  0  0  0  0
  139.4670   75.4920  222.3370 C   0  0  0  0  0  0  0  0  0  0  0  0
  139.9810   74.2380  221.6150 C   0  0  2  0  0  0  0  0  0  0  0  0
  140.6500   73.4160  222.5280 O   0  0  0  0  0  0  0  0  0  0  0  0
  140.9430   74.8680  220.6400 C   0  0  0  0  0  0  0  0  0  0  0  0
  140.3890   76.1420  220.2970 N   0  0  0  0  0  0  0  0  0  0  0  0
  141.5830   77.3590  220.1170 S   0  0  0  0  0  0  0  0  0  0  0  0
  142.9290   76.6730  220.0430 O   0  0  0  0  0  0  0  0  0  0  0  0
  141.4280   78.1650  218.8870 O   0  0  0  0  0  0  0  0  0  0  0  0
  141.6520   78.4570  221.4780 C   0  0  0  0  0  0  0  0  0  0  0  0
  141.4460   78.0460  222.7830 C   0  0  0  0  0  0  0  0  0  0  0  0
  141.5010   78.9100  223.8570 C   0  0  0  0  0  0  0  0  0  0  0  0
  141.7720   80.2430  223.6290 C   0  0  0  0  0  0  0  0  0  0  0  0
  141.9760   80.6470  222.3300 C   0  0  0  0  0  0  0  0  0  0  0  0
  141.9260   79.8060  221.2530 C   0  0  0  0  0  0  0  0  0  0  0  0
  135.8269   74.3959  219.1645 H   0  0  0  0  0  0  0  0  0  0  0  0
  136.3200   76.0063  218.5400 H   0  0  0  0  0  0  0  0  0  0  0  0
  137.4925   74.6455  218.5400 H   0  0  0  0  0  0  0  0  0  0  0  0
  137.1892   75.0542  222.4383 H   0  0  0  0  0  0  0  0  0  0  0  0
  135.5361   74.9858  221.6431 H   0  0  0  0  0  0  0  0  0  0  0  0
  135.7097   72.8520  221.1938 H   0  0  0  0  0  0  0  0  0  0  0  0
  137.4048   73.0177  220.6114 H   0  0  0  0  0  0  0  0  0  0  0  0
  136.9540   72.9980  223.6100 H   0  0  0  0  0  0  0  0  0  0  0  0
  137.7666   69.0398  223.0953 H   0  0  0  0  0  0  0  0  0  0  0  0
  138.6784   67.7906  225.0666 H   0  0  0  0  0  0  0  0  0  0  0  0
  139.9373   67.8106  227.0563 H   0  0  0  0  0  0  0  0  0  0  0  0
  141.7681   71.4314  228.4404 H   0  0  0  0  0  0  0  0  0  0  0  0
  140.8620   72.6995  226.4713 H   0  0  0  0  0  0  0  0  0  0  0  0
  139.4756   77.5245  221.4992 H   0  0  0  0  0  0  0  0  0  0  0  0
  140.1869   75.8440  223.0905 H   0  0  0  0  0  0  0  0  0  0  0  0
  138.5323   75.3338  222.8950 H   0  0  0  0  0  0  0  0  0  0  0  0
  139.2139   73.6031  221.1477 H   0  0  0  0  0  0  0  0  0  0  0  0
  139.9710   73.0050  223.1260 H   0  0  0  0  0  0  0  0  0  0  0  0
  141.9306   74.9953  221.1074 H   0  0  0  0  0  0  0  0  0  0  0  0
  141.0795   74.2379  219.7487 H   0  0  0  0  0  0  0  0  0  0  0  0
  141.2290   76.9844  222.9723 H   0  0  0  0  0  0  0  0  0  0  0  0
  141.3314   78.5415  224.8795 H   0  0  0  0  0  0  0  0  0  0  0  0
  141.8234   80.9612  224.4606 H   0  0  0  0  0  0  0  0  0  0  0  0
  142.1922   81.7099  222.1467 H   0  0  0  0  0  0  0  0  0  0  0  0
  142.0976   80.1840  220.2343 H   0  0  0  0  0  0  0  0  0  0  0  0
  1  2  1  0
  2  3  1  0
  3  4  1  0
  4  5  1  0
  5  6  1  0
  6  7  2  0
  6  8  1  0
  8  9  2  0
  9 10  1  0
 10 11  2  0
 11 12  1  0
 12 13  2  0
 13 14  1  0
 13 15  1  0
 15 16  2  0
 16 17  1  0
 17 18  2  0
  2 19  1  0
 19 20  2  0
 19 21  1  0
 21 22  1  0
 22 23  1  0
 23 24  1  0
 23 25  1  0
 25 26  1  0
 26 27  1  0
 27 28  2  0
 27 29  2  0
 27 30  1  0
 30 31  2  0
 31 32  1  0
 32 33  2  0
 33 34  1  0
 34 35  2  0
 18  8  1  0
 26 21  1  0
 35 30  1  0
 17 11  1  0
  1 36  1  0
  1 37  1  0
  1 38  1  0
  3 39  1  0
  3 40  1  0
  4 41  1  0
  4 42  1  0
  5 43  1  0
  9 44  1  0
 10 45  1  0
 12 46  1  0
 15 47  1  0
 16 48  1  0
 21 49  1  1
 22 50  1  0
 22 51  1  0
 23 52  1  6
 24 53  1  0
 25 54  1  0
 25 55  1  0
 31 56  1  0
 32 57  1  0
 33 58  1  0
 34 59  1  0
 35 60  1  0
M  END
>  <smiles>  (35) 
CN(CCNC(=O)c1ccc2cc(F)ccc2n1)C(=O)[C@H]1C[C@H](O)CN1S(=O)(=O)c1ccccc1

>  <score_type>  (35) 
oracle

>  <origin>  (35) 
autodockgpu

>  <m_score__min__energy>  (35) 
-9.1999999999999993

>  <m_primary>  (35) 
energy

>  <rmsd>  (35) 
2.929742511762047

>  <m_score__min__rmsd>  (35) 
2.929742511762047

>  <meeko>  (35) 
{"free_energy": -7.95, "intermolecular_energy": -10.64, "internal_energy": -2.72, "cluster_size": 10, "cluster_id": 2, "rank_in_cluster": 9}

>  <energy>  (35) 
-7.71

>  <cluster_rmsd>  (35) 
0.57

>  <cluster>  (35) 
5

$$$$

     RDKit          3D

 60 63  0  0  0  0  0  0  0  0999 V2000
  140.2390   75.0180  218.4810 C   0  0  0  0  0  0  0  0  0  0  0  0
  141.0390   74.9020  219.6860 N   0  0  0  0  0  0  0  0  0  0  0  0
  141.4110   73.5820  220.1590 C   0  0  0  0  0  0  0  0  0  0  0  0
  140.3510   72.5390  219.9950 C   0  0  0  0  0  0  0  0  0  0  0  0
  140.3830   71.6290  221.1050 N   0  0  0  0  0  0  0  0  0  0  0  0
  140.0640   72.1760  222.3980 C   0  0  0  0  0  0  0  0  0  0  0  0
  139.7920   73.4040  222.4100 O   0  0  0  0  0  0  0  0  0  0  0  0
  140.0600   71.3560  223.6020 C   0  0  0  0  0  0  0  0  0  0  0  0
  139.4940   70.1030  223.5110 C   0  0  0  0  0  0  0  0  0  0  0  0
  139.4560   69.2690  224.6190 C   0  0  0  0  0  0  0  0  0  0  0  0
  139.9980   69.7430  225.7790 C   0  0  0  0  0  0  0  0  0  0  0  0
  139.9700   68.9280  226.8910 C   0  0  0  0  0  0  0  0  0  0  0  0
  140.5050   69.3840  228.0590 C   0  0  0  0  0  0  0  0  0  0  0  0
  140.4950   68.6020  229.1840 F   0  0  0  0  0  0  0  0  0  0  0  0
  141.0740   70.6420  228.1500 C   0  0  0  0  0  0  0  0  0  0  0  0
  141.1180   71.4880  227.0470 C   0  0  0  0  0  0  0  0  0  0  0  0
  140.5710   71.0050  225.8820 C   0  0  0  0  0  0  0  0  0  0  0  0
  140.5790   71.7750  224.7690 N   0  0  0  0  0  0  0  0  0  0  0  0
  141.4710   76.0230  220.4490 C   0  0  0  0  0  0  0  0  0  0  0  0
  141.3140   75.9880  221.7310 O   0  0  0  0  0  0  0  0  0  0  0  0
  142.0880   77.2340  219.9230 C   0  0  1  0  0  0  0  0  0  0  0  0
  143.3010   76.9650  219.0530 C   0  0  0  0  0  0  0  0  0  0  0  0
  142.6940   77.0250  217.6440 C   0  0  2  0  0  0  0  0  0  0  0  0
  143.6970   77.3280  216.7170 O   0  0  0  0  0  0  0  0  0  0  0  0
  141.7400   78.1800  217.8140 C   0  0  0  0  0  0  0  0  0  0  0  0
  141.2820   78.1250  219.1690 N   0  0  0  0  0  0  0  0  0  0  0  0
  141.0960   79.6790  219.8700 S   0  0  0  0  0  0  0  0  0  0  0  0
  142.0170   80.6270  219.1350 O   0  0  0  0  0  0  0  0  0  0  0  0
  139.7240   80.2190  219.7610 O   0  0  0  0  0  0  0  0  0  0  0  0
  141.5650   79.7290  221.5560 C   0  0  0  0  0  0  0  0  0  0  0  0
  140.9450   78.9670  222.5290 C   0  0  0  0  0  0  0  0  0  0  0  0
  141.3140   79.0050  223.8580 C   0  0  0  0  0  0  0  0  0  0  0  0
  142.3440   79.8370  224.2410 C   0  0  0  0  0  0  0  0  0  0  0  0
  142.9580   80.5940  223.2700 C   0  0  0  0  0  0  0  0  0  0  0  0
  142.6070   80.5700  221.9490 C   0  0  0  0  0  0  0  0  0  0  0  0
  139.1845   75.1709  218.7543 H   0  0  0  0  0  0  0  0  0  0  0  0
  140.5919   75.8744  217.8876 H   0  0  0  0  0  0  0  0  0  0  0  0
  140.3341   74.0967  217.8876 H   0  0  0  0  0  0  0  0  0  0  0  0
  142.3016   73.2564  219.6016 H   0  0  0  0  0  0  0  0  0  0  0  0
  141.5891   73.6775  221.2403 H   0  0  0  0  0  0  0  0  0  0  0  0
  139.3652   73.0251  219.9505 H   0  0  0  0  0  0  0  0  0  0  0  0
  140.5336   71.9811  219.0647 H   0  0  0  0  0  0  0  0  0  0  0  0
  140.6080   70.6200  221.0750 H   0  0  0  0  0  0  0  0  0  0  0  0
  139.0701   69.7622  222.5549 H   0  0  0  0  0  0  0  0  0  0  0  0
  139.0072   68.2662  224.5651 H   0  0  0  0  0  0  0  0  0  0  0  0
  139.5225   67.9246  226.8364 H   0  0  0  0  0  0  0  0  0  0  0  0
  141.4975   70.9776  229.1081 H   0  0  0  0  0  0  0  0  0  0  0  0
  141.5668   72.4907  227.1038 H   0  0  0  0  0  0  0  0  0  0  0  0
  142.3342   77.7217  220.8778 H   0  0  0  0  0  0  0  0  0  0  0  0
  144.0721   77.7373  219.1905 H   0  0  0  0  0  0  0  0  0  0  0  0
  143.8109   76.0169  219.2792 H   0  0  0  0  0  0  0  0  0  0  0  0
  142.2233   76.0987  217.2829 H   0  0  0  0  0  0  0  0  0  0  0  0
  143.8080   78.3160  216.6980 H   0  0  0  0  0  0  0  0  0  0  0  0
  142.2570   79.1323  217.6248 H   0  0  0  0  0  0  0  0  0  0  0  0
  140.9015   78.1144  217.1050 H   0  0  0  0  0  0  0  0  0  0  0  0
  140.1216   78.3014  222.2306 H   0  0  0  0  0  0  0  0  0  0  0  0
  140.7944   78.3811  224.6001 H   0  0  0  0  0  0  0  0  0  0  0  0
  142.6654   79.8940  225.2914 H   0  0  0  0  0  0  0  0  0  0  0  0
  143.7803   81.2581  223.5748 H   0  0  0  0  0  0  0  0  0  0  0  0
  143.1326   81.1977  221.2144 H   0  0  0  0  0  0  0  0  0  0  0  0
  1  2  1  0
  2  3  1  0
  3  4  1  0
  4  5  1  0
  5  6  1  0
  6  7  2  0
  6  8  1  0
  8  9  2  0
  9 10  1  0
 10 11  2  0
 11 12  1  0
 12 13  2  0
 13 14  1  0
 13 15  1  0
 15 16  2  0
 16 17  1  0
 17 18  2  0
  2 19  1  0
 19 20  2  0
 19 21  1  0
 21 22  1  0
 22 23  1  0
 23 24  1  0
 23 25  1  0
 25 26  1  0
 26 27  1  0
 27 28  2  0
 27 29  2  0
 27 30  1  0
 30 31  2  0
 31 32  1  0
 32 33  2  0
 33 34  1  0
 34 35  2  0
 18  8  1  0
 26 21  1  0
 35 30  1  0
 17 11  1  0
  1 36  1  0
  1 37  1  0
  1 38  1  0
  3 39  1  0
  3 40  1  0
  4 41  1  0
  4 42  1  0
  5 43  1  0
  9 44  1  0
 10 45  1  0
 12 46  1  0
 15 47  1  0
 16 48  1  0
 21 49  1  1
 22 50  1  0
 22 51  1  0
 23 52  1  6
 24 53  1  0
 25 54  1  0
 25 55  1  0
 31 56  1  0
 32 57  1  0
 33 58  1  0
 34 59  1  0
 35 60  1  0
M  END
>  <smiles>  (36) 
CN(CCNC(=O)c1ccc2cc(F)ccc2n1)C(=O)[C@H]1C[C@H](O)CN1S(=O)(=O)c1ccccc1

>  <score_type>  (36) 
oracle

>  <origin>  (36) 
autodockgpu

>  <m_score__min__energy>  (36) 
-9.1999999999999993

>  <m_primary>  (36) 
energy

>  <rmsd>  (36) 
2.156297543145361

>  <m_score__min__rmsd>  (36) 
2.156297543145361

>  <meeko>  (36) 
{"free_energy": -8.81, "intermolecular_energy": -11.49, "internal_energy": -1.74, "cluster_size": 14, "cluster_id": 1, "rank_in_cluster": 5}

>  <energy>  (36) 
-7.19

>  <cluster_rmsd>  (36) 
1.16

>  <cluster>  (36) 
5

$$$$

     RDKit          3D

 60 63  0  0  0  0  0  0  0  0999 V2000
  141.7980   74.0130  221.0420 C   0  0  0  0  0  0  0  0  0  0  0  0
  140.8010   75.0650  221.0190 N   0  0  0  0  0  0  0  0  0  0  0  0
  139.4320   74.7320  220.6730 C   0  0  0  0  0  0  0  0  0  0  0  0
  139.0550   73.3070  220.9270 C   0  0  0  0  0  0  0  0  0  0  0  0
  139.3750   72.9480  222.2800 N   0  0  0  0  0  0  0  0  0  0  0  0
  139.6470   71.5580  222.5320 C   0  0  0  0  0  0  0  0  0  0  0  0
  139.5720   70.8040  221.5270 O   0  0  0  0  0  0  0  0  0  0  0  0
  139.9850   71.0670  223.8620 C   0  0  0  0  0  0  0  0  0  0  0  0
  140.6920   71.9140  224.6860 C   0  0  0  0  0  0  0  0  0  0  0  0
  141.0460   71.5120  225.9660 C   0  0  0  0  0  0  0  0  0  0  0  0
  140.6660   70.2600  226.3570 C   0  0  0  0  0  0  0  0  0  0  0  0
  141.0100   69.8430  227.6260 C   0  0  0  0  0  0  0  0  0  0  0  0
  140.6390   68.5960  228.0350 C   0  0  0  0  0  0  0  0  0  0  0  0
  140.9630   68.1480  229.2880 F   0  0  0  0  0  0  0  0  0  0  0  0
  139.9290   67.7460  227.2060 C   0  0  0  0  0  0  0  0  0  0  0  0
  139.5680   68.1360  225.9220 C   0  0  0  0  0  0  0  0  0  0  0  0
  139.9530   69.3980  225.5330 C   0  0  0  0  0  0  0  0  0  0  0  0
  139.6350   69.8440  224.2960 N   0  0  0  0  0  0  0  0  0  0  0  0
  141.0960   76.4290  221.3060 C   0  0  0  0  0  0  0  0  0  0  0  0
  140.6120   76.9450  222.3870 O   0  0  0  0  0  0  0  0  0  0  0  0
  141.9080   77.3220  220.4890 C   0  0  1  0  0  0  0  0  0  0  0  0
  143.0940   76.6360  219.8400 C   0  0  0  0  0  0  0  0  0  0  0  0
  142.5520   76.3350  218.4360 C   0  0  2  0  0  0  0  0  0  0  0  0
  143.6200   76.1980  217.5430 O   0  0  0  0  0  0  0  0  0  0  0  0
  141.7790   77.6030  218.1720 C   0  0  0  0  0  0  0  0  0  0  0  0
  141.2730   78.0340  219.4390 N   0  0  0  0  0  0  0  0  0  0  0  0
  141.3010   79.7390  219.6210 S   0  0  0  0  0  0  0  0  0  0  0  0
  142.5490   80.2520  218.9380 O   0  0  0  0  0  0  0  0  0  0  0  0
  140.1440   80.4210  219.0020 O   0  0  0  0  0  0  0  0  0  0  0  0
  141.3980   80.2480  221.2930 C   0  0  0  0  0  0  0  0  0  0  0  0
  140.3450   80.8530  221.9540 C   0  0  0  0  0  0  0  0  0  0  0  0
  140.4200   81.2540  223.2730 C   0  0  0  0  0  0  0  0  0  0  0  0
  141.5920   81.0450  223.9680 C   0  0  0  0  0  0  0  0  0  0  0  0
  142.6380   80.4420  223.3060 C   0  0  0  0  0  0  0  0  0  0  0  0
  142.5820   80.0390  222.0010 C   0  0  0  0  0  0  0  0  0  0  0  0
  142.0389   73.7589  222.0848 H   0  0  0  0  0  0  0  0  0  0  0  0
  141.4040   73.1231  220.5293 H   0  0  0  0  0  0  0  0  0  0  0  0
  142.7078   74.3587  220.5293 H   0  0  0  0  0  0  0  0  0  0  0  0
  138.7627   75.3746  221.2638 H   0  0  0  0  0  0  0  0  0  0  0  0
  139.3367   74.8914  219.5888 H   0  0  0  0  0  0  0  0  0  0  0  0
  137.9747   73.1811  220.7625 H   0  0  0  0  0  0  0  0  0  0  0  0
  139.6153   72.6571  220.2388 H   0  0  0  0  0  0  0  0  0  0  0  0
  139.4320   73.5840  223.0940 H   0  0  0  0  0  0  0  0  0  0  0  0
  140.9775   72.9141  224.3278 H   0  0  0  0  0  0  0  0  0  0  0  0
  141.6099   72.1750  226.6386 H   0  0  0  0  0  0  0  0  0  0  0  0
  141.5749   70.5061  228.2978 H   0  0  0  0  0  0  0  0  0  0  0  0
  139.6461   66.7467  227.5685 H   0  0  0  0  0  0  0  0  0  0  0  0
  139.0040   67.4705  225.2519 H   0  0  0  0  0  0  0  0  0  0  0  0
  142.1932   78.0443  221.2681 H   0  0  0  0  0  0  0  0  0  0  0  0
  143.9683   77.3022  219.7976 H   0  0  0  0  0  0  0  0  0  0  0  0
  143.4457   75.7459  220.3823 H   0  0  0  0  0  0  0  0  0  0  0  0
  141.9592   75.4138  218.3365 H   0  0  0  0  0  0  0  0  0  0  0  0
  144.4200   75.9180  218.0630 H   0  0  0  0  0  0  0  0  0  0  0  0
  142.4407   78.3708  217.7446 H   0  0  0  0  0  0  0  0  0  0  0  0
  140.9647   77.4332  217.4522 H   0  0  0  0  0  0  0  0  0  0  0  0
  139.4068   81.0222  221.4052 H   0  0  0  0  0  0  0  0  0  0  0  0
  139.5584   81.7326  223.7614 H   0  0  0  0  0  0  0  0  0  0  0  0
  141.6887   81.3509  225.0202 H   0  0  0  0  0  0  0  0  0  0  0  0
  143.5736   80.2748  223.8598 H   0  0  0  0  0  0  0  0  0  0  0  0
  143.4490   79.5617  221.5209 H   0  0  0  0  0  0  0  0  0  0  0  0
  1  2  1  0
  2  3  1  0
  3  4  1  0
  4  5  1  0
  5  6  1  0
  6  7  2  0
  6  8  1  0
  8  9  2  0
  9 10  1  0
 10 11  2  0
 11 12  1  0
 12 13  2  0
 13 14  1  0
 13 15  1  0
 15 16  2  0
 16 17  1  0
 17 18  2  0
  2 19  1  0
 19 20  2  0
 19 21  1  0
 21 22  1  0
 22 23  1  0
 23 24  1  0
 23 25  1  0
 25 26  1  0
 26 27  1  0
 27 28  2  0
 27 29  2  0
 27 30  1  0
 30 31  2  0
 31 32  1  0
 32 33  2  0
 33 34  1  0
 34 35  2  0
 18  8  1  0
 26 21  1  0
 35 30  1  0
 17 11  1  0
  1 36  1  0
  1 37  1  0
  1 38  1  0
  3 39  1  0
  3 40  1  0
  4 41  1  0
  4 42  1  0
  5 43  1  0
  9 44  1  0
 10 45  1  0
 12 46  1  0
 15 47  1  0
 16 48  1  0
 21 49  1  1
 22 50  1  0
 22 51  1  0
 23 52  1  1
 24 53  1  0
 25 54  1  0
 25 55  1  0
 31 56  1  0
 32 57  1  0
 33 58  1  0
 34 59  1  0
 35 60  1  0
M  END
>  <smiles>  (37) 
CN(CCNC(=O)c1ccc2cc(F)ccc2n1)C(=O)[C@H]1C[C@H](O)CN1S(=O)(=O)c1ccccc1

>  <score_type>  (37) 
oracle

>  <origin>  (37) 
autodockgpu

>  <m_score__min__energy>  (37) 
-9.1999999999999993

>  <m_primary>  (37) 
energy

>  <rmsd>  (37) 
3.079956605604731

>  <m_score__min__rmsd>  (37) 
3.079956605604731

>  <meeko>  (37) 
{"free_energy": -8.77, "intermolecular_energy": -11.45, "internal_energy": -1.75, "cluster_size": 14, "cluster_id": 1, "rank_in_cluster": 6}

>  <energy>  (37) 
-6.96

>  <cluster_rmsd>  (37) 
1.13

>  <cluster>  (37) 
5

$$$$

     RDKit          3D

 60 63  0  0  0  0  0  0  0  0999 V2000
  143.6990   73.8020  217.7400 C   0  0  0  0  0  0  0  0  0  0  0  0
  142.7130   74.1240  218.7530 N   0  0  0  0  0  0  0  0  0  0  0  0
  142.5240   73.2150  219.8670 C   0  0  0  0  0  0  0  0  0  0  0  0
  141.0960   72.8920  220.1730 C   0  0  0  0  0  0  0  0  0  0  0  0
  141.0270   71.9510  221.2560 N   0  0  0  0  0  0  0  0  0  0  0  0
  140.3620   72.3930  222.4530 C   0  0  0  0  0  0  0  0  0  0  0  0
  139.9120   73.5680  222.4170 O   0  0  0  0  0  0  0  0  0  0  0  0
  140.2240   71.5330  223.6220 C   0  0  0  0  0  0  0  0  0  0  0  0
  139.5700   70.3330  223.4480 C   0  0  0  0  0  0  0  0  0  0  0  0
  139.4040   69.4650  224.5170 C   0  0  0  0  0  0  0  0  0  0  0  0
  139.9110   69.8530  225.7240 C   0  0  0  0  0  0  0  0  0  0  0  0
  139.7550   69.0030  226.7990 C   0  0  0  0  0  0  0  0  0  0  0  0
  140.2550   69.3730  228.0130 C   0  0  0  0  0  0  0  0  0  0  0  0
  140.1180   68.5540  229.1020 F   0  0  0  0  0  0  0  0  0  0  0  0
  140.9110   70.5780  228.1860 C   0  0  0  0  0  0  0  0  0  0  0  0
  141.0840   71.4570  227.1230 C   0  0  0  0  0  0  0  0  0  0  0  0
  140.5720   71.0610  225.9100 C   0  0  0  0  0  0  0  0  0  0  0  0
  140.7040   71.8680  224.8310 N   0  0  0  0  0  0  0  0  0  0  0  0
  141.8970   75.2900  218.7070 C   0  0  0  0  0  0  0  0  0  0  0  0
  140.9150   75.3170  217.8670 O   0  0  0  0  0  0  0  0  0  0  0  0
  142.0550   76.4830  219.5290 C   0  0  1  0  0  0  0  0  0  0  0  0
  142.9840   77.5160  218.9220 C   0  0  0  0  0  0  0  0  0  0  0  0
  141.9890   78.4760  218.2540 C   0  0  2  0  0  0  0  0  0  0  0  0
  142.5820   79.7340  218.1060 O   0  0  0  0  0  0  0  0  0  0  0  0
  140.9030   78.5040  219.2990 C   0  0  0  0  0  0  0  0  0  0  0  0
  140.8900   77.2040  219.8970 N   0  0  0  0  0  0  0  0  0  0  0  0
  140.5890   77.2520  221.5850 S   0  0  0  0  0  0  0  0  0  0  0  0
  139.0900   77.2650  221.7830 O   0  0  0  0  0  0  0  0  0  0  0  0
  141.1230   76.0840  222.3170 O   0  0  0  0  0  0  0  0  0  0  0  0
  141.2090   78.7000  222.3490 C   0  0  0  0  0  0  0  0  0  0  0  0
  142.5340   79.0860  222.2580 C   0  0  0  0  0  0  0  0  0  0  0  0
  143.0240   80.2280  222.8590 C   0  0  0  0  0  0  0  0  0  0  0  0
  142.1620   81.0230  223.5840 C   0  0  0  0  0  0  0  0  0  0  0  0
  140.8450   80.6340  223.6720 C   0  0  0  0  0  0  0  0  0  0  0  0
  140.3410   79.5080  223.0840 C   0  0  0  0  0  0  0  0  0  0  0  0
  144.6372   73.4956  218.2258 H   0  0  0  0  0  0  0  0  0  0  0  0
  143.3251   72.9793  217.1128 H   0  0  0  0  0  0  0  0  0  0  0  0
  143.8828   74.6868  217.1128 H   0  0  0  0  0  0  0  0  0  0  0  0
  143.0461   72.2750  219.6349 H   0  0  0  0  0  0  0  0  0  0  0  0
  142.9254   73.7240  220.7557 H   0  0  0  0  0  0  0  0  0  0  0  0
  140.5667   73.8136  220.4567 H   0  0  0  0  0  0  0  0  0  0  0  0
  140.6260   72.4517  219.2812 H   0  0  0  0  0  0  0  0  0  0  0  0
  141.4030   70.9880  221.2670 H   0  0  0  0  0  0  0  0  0  0  0  0
  139.1777   70.0620  222.4567 H   0  0  0  0  0  0  0  0  0  0  0  0
  138.8848   68.5027  224.3973 H   0  0  0  0  0  0  0  0  0  0  0  0
  139.2351   68.0410  226.6791 H   0  0  0  0  0  0  0  0  0  0  0  0
  141.3016   70.8449  229.1791 H   0  0  0  0  0  0  0  0  0  0  0  0
  141.6033   72.4189  227.2459 H   0  0  0  0  0  0  0  0  0  0  0  0
  142.4615   76.0070  220.4335 H   0  0  0  0  0  0  0  0  0  0  0  0
  143.5759   78.0267  219.6958 H   0  0  0  0  0  0  0  0  0  0  0  0
  143.7298   77.0948  218.2318 H   0  0  0  0  0  0  0  0  0  0  0  0
  141.6438   78.1884  217.2499 H   0  0  0  0  0  0  0  0  0  0  0  0
  143.3290   79.6470  217.4560 H   0  0  0  0  0  0  0  0  0  0  0  0
  141.1230   79.2701  220.0570 H   0  0  0  0  0  0  0  0  0  0  0  0
  139.9269   78.7509  218.8559 H   0  0  0  0  0  0  0  0  0  0  0  0
  143.2273   78.4557  221.6818 H   0  0  0  0  0  0  0  0  0  0  0  0
  144.0855   80.4994  222.7610 H   0  0  0  0  0  0  0  0  0  0  0  0
  142.5162   81.9403  224.0771 H   0  0  0  0  0  0  0  0  0  0  0  0
  140.1565   81.2675  224.2504 H   0  0  0  0  0  0  0  0  0  0  0  0
  139.2779   79.2454  223.1876 H   0  0  0  0  0  0  0  0  0  0  0  0
  1  2  1  0
  2  3  1  0
  3  4  1  0
  4  5  1  0
  5  6  1  0
  6  7  2  0
  6  8  1  0
  8  9  2  0
  9 10  1  0
 10 11  2  0
 11 12  1  0
 12 13  2  0
 13 14  1  0
 13 15  1  0
 15 16  2  0
 16 17  1  0
 17 18  2  0
  2 19  1  0
 19 20  2  0
 19 21  1  0
 21 22  1  0
 22 23  1  0
 23 24  1  0
 23 25  1  0
 25 26  1  0
 26 27  1  0
 27 28  2  0
 27 29  2  0
 27 30  1  0
 30 31  2  0
 31 32  1  0
 32 33  2  0
 33 34  1  0
 34 35  2  0
 18  8  1  0
 26 21  1  0
 35 30  1  0
 17 11  1  0
  1 36  1  0
  1 37  1  0
  1 38  1  0
  3 39  1  0
  3 40  1  0
  4 41  1  0
  4 42  1  0
  5 43  1  0
  9 44  1  0
 10 45  1  0
 12 46  1  0
 15 47  1  0
 16 48  1  0
 21 49  1  1
 22 50  1  0
 22 51  1  0
 23 52  1  6
 24 53  1  0
 25 54  1  0
 25 55  1  0
 31 56  1  0
 32 57  1  0
 33 58  1  0
 34 59  1  0
 35 60  1  0
M  END
>  <smiles>  (38) 
CN(CCNC(=O)c1ccc2cc(F)ccc2n1)C(=O)[C@H]1C[C@H](O)CN1S(=O)(=O)c1ccccc1

>  <score_type>  (38) 
oracle

>  <origin>  (38) 
autodockgpu

>  <m_score__min__energy>  (38) 
-9.1999999999999993

>  <m_primary>  (38) 
energy

>  <rmsd>  (38) 
2.901340584164259

>  <m_score__min__rmsd>  (38) 
2.901340584164259

>  <meeko>  (38) 
{"free_energy": -9.2, "intermolecular_energy": -11.89, "internal_energy": -1.9, "cluster_size": 14, "cluster_id": 1, "rank_in_cluster": 1}

>  <energy>  (38) 
-6.94

>  <cluster_rmsd>  (38) 
1.13

>  <cluster>  (38) 
5

$$$$

     RDKit          3D

 60 63  0  0  0  0  0  0  0  0999 V2000
  139.3550   75.8760  221.1590 C   0  0  0  0  0  0  0  0  0  0  0  0
  139.5880   74.4580  220.9590 N   0  0  0  0  0  0  0  0  0  0  0  0
  138.6330   73.6920  220.1810 C   0  0  0  0  0  0  0  0  0  0  0  0
  137.5900   72.9910  220.9910 C   0  0  0  0  0  0  0  0  0  0  0  0
  138.1540   72.5380  222.2320 N   0  0  0  0  0  0  0  0  0  0  0  0
  138.2820   71.1140  222.4010 C   0  0  0  0  0  0  0  0  0  0  0  0
  137.8800   70.4190  221.4320 O   0  0  0  0  0  0  0  0  0  0  0  0
  138.8410   70.5290  223.6130 C   0  0  0  0  0  0  0  0  0  0  0  0
  138.7200   69.1650  223.7680 C   0  0  0  0  0  0  0  0  0  0  0  0
  139.2290   68.5420  224.8980 C   0  0  0  0  0  0  0  0  0  0  0  0
  139.8430   69.3310  225.8270 C   0  0  0  0  0  0  0  0  0  0  0  0
  140.3550   68.7280  226.9570 C   0  0  0  0  0  0  0  0  0  0  0  0
  140.9720   69.5010  227.8970 C   0  0  0  0  0  0  0  0  0  0  0  0
  141.4930   68.9360  229.0310 F   0  0  0  0  0  0  0  0  0  0  0  0
  141.0930   70.8700  227.7390 C   0  0  0  0  0  0  0  0  0  0  0  0
  140.5870   71.5070  226.6120 C   0  0  0  0  0  0  0  0  0  0  0  0
  139.9700   70.7070  225.6800 C   0  0  0  0  0  0  0  0  0  0  0  0
  139.4540   71.2610  224.5580 N   0  0  0  0  0  0  0  0  0  0  0  0
  140.7060   73.7650  221.5030 C   0  0  0  0  0  0  0  0  0  0  0  0
  140.6270   73.3370  222.7200 O   0  0  0  0  0  0  0  0  0  0  0  0
  141.9580   73.4780  220.8130 C   0  0  1  0  0  0  0  0  0  0  0  0
  142.3170   72.0050  220.8020 C   0  0  0  0  0  0  0  0  0  0  0  0
  141.8070   71.5710  219.4200 C   0  0  2  0  0  0  0  0  0  0  0  0
  142.4960   70.4250  219.0090 O   0  0  0  0  0  0  0  0  0  0  0  0
  142.2060   72.7710  218.6000 C   0  0  0  0  0  0  0  0  0  0  0  0
  142.0950   73.9040  219.4670 N   0  0  0  0  0  0  0  0  0  0  0  0
  143.3360   75.0600  219.2120 S   0  0  0  0  0  0  0  0  0  0  0  0
  144.3420   74.9060  220.3300 O   0  0  0  0  0  0  0  0  0  0  0  0
  144.0600   74.8820  217.9360 O   0  0  0  0  0  0  0  0  0  0  0  0
  142.7570   76.7100  219.2800 C   0  0  0  0  0  0  0  0  0  0  0  0
  142.1610   77.2490  220.4060 C   0  0  0  0  0  0  0  0  0  0  0  0
  141.7050   78.5500  220.4620 C   0  0  0  0  0  0  0  0  0  0  0  0
  141.8450   79.3550  219.3510 C   0  0  0  0  0  0  0  0  0  0  0  0
  142.4370   78.8140  218.2320 C   0  0  0  0  0  0  0  0  0  0  0  0
  142.8950   77.5290  218.1590 C   0  0  0  0  0  0  0  0  0  0  0  0
  139.3193   76.0933  222.2367 H   0  0  0  0  0  0  0  0  0  0  0  0
  140.1708   76.4505  220.6959 H   0  0  0  0  0  0  0  0  0  0  0  0
  138.3983   76.1593  220.6959 H   0  0  0  0  0  0  0  0  0  0  0  0
  138.1250   74.3791  219.4883 H   0  0  0  0  0  0  0  0  0  0  0  0
  139.2076   72.9076  219.6667 H   0  0  0  0  0  0  0  0  0  0  0  0
  136.7626   73.6854  221.1989 H   0  0  0  0  0  0  0  0  0  0  0  0
  137.2165   72.1240  220.4263 H   0  0  0  0  0  0  0  0  0  0  0  0
  138.4800   73.1260  223.0180 H   0  0  0  0  0  0  0  0  0  0  0  0
  138.2178   68.5679  222.9926 H   0  0  0  0  0  0  0  0  0  0  0  0
  139.1412   67.4547  225.0397 H   0  0  0  0  0  0  0  0  0  0  0  0
  140.2672   67.6406  227.0982 H   0  0  0  0  0  0  0  0  0  0  0  0
  141.5969   71.4630  228.5165 H   0  0  0  0  0  0  0  0  0  0  0  0
  140.6757   72.5946  226.4732 H   0  0  0  0  0  0  0  0  0  0  0  0
  142.6323   74.0870  221.4330 H   0  0  0  0  0  0  0  0  0  0  0  0
  143.4030   71.8562  220.8936 H   0  0  0  0  0  0  0  0  0  0  0  0
  141.8853   71.4338  221.6371 H   0  0  0  0  0  0  0  0  0  0  0  0
  140.7386   71.3164  219.3591 H   0  0  0  0  0  0  0  0  0  0  0  0
  142.0860   70.1090  218.1600 H   0  0  0  0  0  0  0  0  0  0  0  0
  143.2416   72.6628  218.2452 H   0  0  0  0  0  0  0  0  0  0  0  0
  141.5641   72.8812  217.7135 H   0  0  0  0  0  0  0  0  0  0  0  0
  142.0456   76.6125  221.2957 H   0  0  0  0  0  0  0  0  0  0  0  0
  141.2372   78.9390  221.3784 H   0  0  0  0  0  0  0  0  0  0  0  0
  141.4943   80.3976  219.3587 H   0  0  0  0  0  0  0  0  0  0  0  0
  142.5478   79.4542  217.3443 H   0  0  0  0  0  0  0  0  0  0  0  0
  143.3616   77.1490  217.2381 H   0  0  0  0  0  0  0  0  0  0  0  0
  1  2  1  0
  2  3  1  0
  3  4  1  0
  4  5  1  0
  5  6  1  0
  6  7  2  0
  6  8  1  0
  8  9  2  0
  9 10  1  0
 10 11  2  0
 11 12  1  0
 12 13  2  0
 13 14  1  0
 13 15  1  0
 15 16  2  0
 16 17  1  0
 17 18  2  0
  2 19  1  0
 19 20  2  0
 19 21  1  0
 21 22  1  0
 22 23  1  0
 23 24  1  0
 23 25  1  0
 25 26  1  0
 26 27  1  0
 27 28  2  0
 27 29  2  0
 27 30  1  0
 30 31  2  0
 31 32  1  0
 32 33  2  0
 33 34  1  0
 34 35  2  0
 18  8  1  0
 26 21  1  0
 35 30  1  0
 17 11  1  0
  1 36  1  0
  1 37  1  0
  1 38  1  0
  3 39  1  0
  3 40  1  0
  4 41  1  0
  4 42  1  0
  5 43  1  0
  9 44  1  0
 10 45  1  0
 12 46  1  0
 15 47  1  0
 16 48  1  0
 21 49  1  1
 22 50  1  0
 22 51  1  0
 23 52  1  1
 24 53  1  0
 25 54  1  0
 25 55  1  0
 31 56  1  0
 32 57  1  0
 33 58  1  0
 34 59  1  0
 35 60  1  0
M  END
>  <smiles>  (39) 
CN(CCNC(=O)c1ccc2cc(F)ccc2n1)C(=O)[C@H]1C[C@H](O)CN1S(=O)(=O)c1ccccc1

>  <score_type>  (39) 
oracle

>  <origin>  (39) 
autodockgpu

>  <m_score__min__energy>  (39) 
-9.1999999999999993

>  <m_primary>  (39) 
energy

>  <rmsd>  (39) 
2.8471833657963566

>  <m_score__min__rmsd>  (39) 
2.8471833657963566

>  <meeko>  (39) 
{"free_energy": -7.16, "intermolecular_energy": -9.85, "internal_energy": -3.1, "cluster_size": 5, "cluster_id": 4, "rank_in_cluster": 4}

>  <energy>  (39) 
-7.8

>  <cluster_rmsd>  (39) 
0.0

>  <cluster>  (39) 
6

$$$$

     RDKit          3D

 60 63  0  0  0  0  0  0  0  0999 V2000
  137.2940   76.0650  222.8720 C   0  0  0  0  0  0  0  0  0  0  0  0
  138.4910   76.1300  222.0560 N   0  0  0  0  0  0  0  0  0  0  0  0
  138.5010   75.4670  220.7670 C   0  0  0  0  0  0  0  0  0  0  0  0
  139.4090   74.2810  220.6830 C   0  0  0  0  0  0  0  0  0  0  0  0
  139.5440   73.6730  221.9770 N   0  0  0  0  0  0  0  0  0  0  0  0
  139.6220   72.2370  222.0110 C   0  0  0  0  0  0  0  0  0  0  0  0
  139.5620   71.6680  220.8900 O   0  0  0  0  0  0  0  0  0  0  0  0
  139.7610   71.5010  223.2610 C   0  0  0  0  0  0  0  0  0  0  0  0
  139.2360   70.2280  223.3060 C   0  0  0  0  0  0  0  0  0  0  0  0
  139.3330   69.4710  224.4640 C   0  0  0  0  0  0  0  0  0  0  0  0
  139.9640   70.0390  225.5330 C   0  0  0  0  0  0  0  0  0  0  0  0
  140.0700   69.3010  226.6930 C   0  0  0  0  0  0  0  0  0  0  0  0
  140.6960   69.8520  227.7730 C   0  0  0  0  0  0  0  0  0  0  0  0
  140.8200   69.1470  228.9410 F   0  0  0  0  0  0  0  0  0  0  0  0
  141.2230   71.1300  227.7260 C   0  0  0  0  0  0  0  0  0  0  0  0
  141.1330   71.8990  226.5720 C   0  0  0  0  0  0  0  0  0  0  0  0
  140.4970   71.3220  225.4990 C   0  0  0  0  0  0  0  0  0  0  0  0
  140.3720   72.0140  224.3420 N   0  0  0  0  0  0  0  0  0  0  0  0
  139.6780   76.8030  222.4620 C   0  0  0  0  0  0  0  0  0  0  0  0
  140.7270   76.0930  222.7200 O   0  0  0  0  0  0  0  0  0  0  0  0
  139.8390   78.2430  222.6180 C   0  0  1  0  0  0  0  0  0  0  0  0
  141.0940   78.6330  223.3750 C   0  0  0  0  0  0  0  0  0  0  0  0
  142.0630   78.9530  222.2280 C   0  0  2  0  0  0  0  0  0  0  0  0
  143.0630   79.8150  222.6900 O   0  0  0  0  0  0  0  0  0  0  0  0
  141.1280   79.6610  221.2800 C   0  0  0  0  0  0  0  0  0  0  0  0
  139.8470   79.0480  221.4500 N   0  0  0  0  0  0  0  0  0  0  0  0
  138.5550   80.1730  221.3550 S   0  0  0  0  0  0  0  0  0  0  0  0
  139.1320   81.4950  220.9000 O   0  0  0  0  0  0  0  0  0  0  0  0
  137.5040   79.7910  220.3890 O   0  0  0  0  0  0  0  0  0  0  0  0
  137.7890   80.4660  222.9010 C   0  0  0  0  0  0  0  0  0  0  0  0
  138.4540   81.0350  223.9720 C   0  0  0  0  0  0  0  0  0  0  0  0
  137.8500   81.2670  225.1910 C   0  0  0  0  0  0  0  0  0  0  0  0
  136.5270   80.9180  225.3570 C   0  0  0  0  0  0  0  0  0  0  0  0
  135.8690   80.3520  224.2900 C   0  0  0  0  0  0  0  0  0  0  0  0
  136.4490   80.1150  223.0750 C   0  0  0  0  0  0  0  0  0  0  0  0
  137.5741   76.0802  223.9356 H   0  0  0  0  0  0  0  0  0  0  0  0
  136.6513   76.9296  222.6497 H   0  0  0  0  0  0  0  0  0  0  0  0
  136.7487   75.1359  222.6497 H   0  0  0  0  0  0  0  0  0  0  0  0
  137.4770   75.1313  220.5460 H   0  0  0  0  0  0  0  0  0  0  0  0
  138.8806   76.2018  220.0417 H   0  0  0  0  0  0  0  0  0  0  0  0
  138.9875   73.5487  219.9787 H   0  0  0  0  0  0  0  0  0  0  0  0
  140.3991   74.6084  220.3329 H   0  0  0  0  0  0  0  0  0  0  0  0
  139.5920   74.1590  222.8890 H   0  0  0  0  0  0  0  0  0  0  0  0
  138.7374   69.8100  222.4191 H   0  0  0  0  0  0  0  0  0  0  0  0
  138.9181   68.4537  224.5189 H   0  0  0  0  0  0  0  0  0  0  0  0
  139.6561   68.2833  226.7469 H   0  0  0  0  0  0  0  0  0  0  0  0
  141.7208   71.5438  228.6154 H   0  0  0  0  0  0  0  0  0  0  0  0
  141.5489   72.9160  226.5201 H   0  0  0  0  0  0  0  0  0  0  0  0
  138.9118   78.4527  223.1714 H   0  0  0  0  0  0  0  0  0  0  0  0
  140.9211   79.5135  224.0112 H   0  0  0  0  0  0  0  0  0  0  0  0
  141.4588   77.8572  224.0642 H   0  0  0  0  0  0  0  0  0  0  0  0
  142.5888   78.0928  221.7880 H   0  0  0  0  0  0  0  0  0  0  0  0
  143.9360   79.4840  222.3460 H   0  0  0  0  0  0  0  0  0  0  0  0
  141.0740   80.7317  221.5265 H   0  0  0  0  0  0  0  0  0  0  0  0
  141.4758   79.5804  220.2395 H   0  0  0  0  0  0  0  0  0  0  0  0
  139.5104   81.3148  223.8467 H   0  0  0  0  0  0  0  0  0  0  0  0
  138.4154   81.7232  226.0169 H   0  0  0  0  0  0  0  0  0  0  0  0
  136.0126   81.0871  226.3145 H   0  0  0  0  0  0  0  0  0  0  0  0
  134.8131   80.0734  224.4222 H   0  0  0  0  0  0  0  0  0  0  0  0
  135.8744   79.6592  222.2551 H   0  0  0  0  0  0  0  0  0  0  0  0
  1  2  1  0
  2  3  1  0
  3  4  1  0
  4  5  1  0
  5  6  1  0
  6  7  2  0
  6  8  1  0
  8  9  2  0
  9 10  1  0
 10 11  2  0
 11 12  1  0
 12 13  2  0
 13 14  1  0
 13 15  1  0
 15 16  2  0
 16 17  1  0
 17 18  2  0
  2 19  1  0
 19 20  2  0
 19 21  1  0
 21 22  1  0
 22 23  1  0
 23 24  1  0
 23 25  1  0
 25 26  1  0
 26 27  1  0
 27 28  2  0
 27 29  2  0
 27 30  1  0
 30 31  2  0
 31 32  1  0
 32 33  2  0
 33 34  1  0
 34 35  2  0
 18  8  1  0
 26 21  1  0
 35 30  1  0
 17 11  1  0
  1 36  1  0
  1 37  1  0
  1 38  1  0
  3 39  1  0
  3 40  1  0
  4 41  1  0
  4 42  1  0
  5 43  1  0
  9 44  1  0
 10 45  1  0
 12 46  1  0
 15 47  1  0
 16 48  1  0
 21 49  1  1
 22 50  1  0
 22 51  1  0
 23 52  1  6
 24 53  1  0
 25 54  1  0
 25 55  1  0
 31 56  1  0
 32 57  1  0
 33 58  1  0
 34 59  1  0
 35 60  1  0
M  END
>  <smiles>  (40) 
CN(CCNC(=O)c1ccc2cc(F)ccc2n1)C(=O)[C@H]1C[C@H](O)CN1S(=O)(=O)c1ccccc1

>  <score_type>  (40) 
oracle

>  <origin>  (40) 
autodockgpu

>  <m_score__min__energy>  (40) 
-9.1999999999999993

>  <m_primary>  (40) 
energy

>  <rmsd>  (40) 
3.6023319838672783

>  <m_score__min__rmsd>  (40) 
3.6023319838672783

>  <meeko>  (40) 
{"free_energy": -7.8, "intermolecular_energy": -10.48, "internal_energy": -2.72, "cluster_size": 1, "cluster_id": 6, "rank_in_cluster": 1}

>  <energy>  (40) 
-7.76

>  <cluster_rmsd>  (40) 
0.0

>  <cluster>  (40) 
7

$$$$

     RDKit          3D

 60 63  0  0  0  0  0  0  0  0999 V2000
  137.4360   70.3480  217.5390 C   0  0  0  0  0  0  0  0  0  0  0  0
  137.6010   70.2550  218.9770 N   0  0  0  0  0  0  0  0  0  0  0  0
  137.5220   68.9540  219.6120 C   0  0  0  0  0  0  0  0  0  0  0  0
  138.8460   68.3470  219.9550 C   0  0  0  0  0  0  0  0  0  0  0  0
  139.3430   68.9130  221.1770 N   0  0  0  0  0  0  0  0  0  0  0  0
  138.7930   68.3930  222.4010 C   0  0  0  0  0  0  0  0  0  0  0  0
  137.9260   67.4910  222.2600 O   0  0  0  0  0  0  0  0  0  0  0  0
  139.2160   68.8830  223.7070 C   0  0  0  0  0  0  0  0  0  0  0  0
  138.8500   68.1400  224.8080 C   0  0  0  0  0  0  0  0  0  0  0  0
  139.2190   68.5470  226.0810 C   0  0  0  0  0  0  0  0  0  0  0  0
  139.9480   69.6970  226.1850 C   0  0  0  0  0  0  0  0  0  0  0  0
  140.3240   70.1180  227.4430 C   0  0  0  0  0  0  0  0  0  0  0  0
  141.0520   71.2640  227.5670 C   0  0  0  0  0  0  0  0  0  0  0  0
  141.4430   71.7120  228.8020 F   0  0  0  0  0  0  0  0  0  0  0  0
  141.4190   72.0090  226.4610 C   0  0  0  0  0  0  0  0  0  0  0  0
  141.0550   71.6120  225.1790 C   0  0  0  0  0  0  0  0  0  0  0  0
  140.3220   70.4540  225.0810 C   0  0  0  0  0  0  0  0  0  0  0  0
  139.9330   70.0070  223.8630 N   0  0  0  0  0  0  0  0  0  0  0  0
  137.8220   71.3860  219.8130 C   0  0  0  0  0  0  0  0  0  0  0  0
  136.8520   71.7900  220.5650 O   0  0  0  0  0  0  0  0  0  0  0  0
  139.0580   72.1520  219.9130 C   0  0  1  0  0  0  0  0  0  0  0  0
  138.8550   73.5600  220.4390 C   0  0  0  0  0  0  0  0  0  0  0  0
  139.1950   73.3890  221.9260 C   0  0  2  0  0  0  0  0  0  0  0  0
  139.5800   74.6230  222.4620 O   0  0  0  0  0  0  0  0  0  0  0  0
  140.3700   72.4490  221.8250 C   0  0  0  0  0  0  0  0  0  0  0  0
  140.1190   71.6170  220.6880 N   0  0  0  0  0  0  0  0  0  0  0  0
  141.5410   71.2640  219.7960 S   0  0  0  0  0  0  0  0  0  0  0  0
  141.9850   69.8690  220.1760 O   0  0  0  0  0  0  0  0  0  0  0  0
  141.3430   71.2830  218.3310 O   0  0  0  0  0  0  0  0  0  0  0  0
  142.8710   72.3360  220.1770 C   0  0  0  0  0  0  0  0  0  0  0  0
  144.0650   71.8890  220.7120 C   0  0  0  0  0  0  0  0  0  0  0  0
  145.1140   72.7330  221.0120 C   0  0  0  0  0  0  0  0  0  0  0  0
  144.9740   74.0830  220.7720 C   0  0  0  0  0  0  0  0  0  0  0  0
  143.7840   74.5250  220.2400 C   0  0  0  0  0  0  0  0  0  0  0  0
  142.7340   73.7040  219.9360 C   0  0  0  0  0  0  0  0  0  0  0  0
  136.4986   70.8764  217.3109 H   0  0  0  0  0  0  0  0  0  0  0  0
  138.2832   70.9015  217.1078 H   0  0  0  0  0  0  0  0  0  0  0  0
  137.4011   69.3367  217.1078 H   0  0  0  0  0  0  0  0  0  0  0  0
  136.9423   69.0601  220.5408 H   0  0  0  0  0  0  0  0  0  0  0  0
  137.0492   68.2794  218.8830 H   0  0  0  0  0  0  0  0  0  0  0  0
  138.7277   67.2604  220.0784 H   0  0  0  0  0  0  0  0  0  0  0  0
  139.5597   68.5546  219.1441 H   0  0  0  0  0  0  0  0  0  0  0  0
  140.0580   69.6550  221.2730 H   0  0  0  0  0  0  0  0  0  0  0  0
  138.2623   67.2195  224.6764 H   0  0  0  0  0  0  0  0  0  0  0  0
  138.9358   67.9667  226.9716 H   0  0  0  0  0  0  0  0  0  0  0  0
  140.0407   69.5377  228.3335 H   0  0  0  0  0  0  0  0  0  0  0  0
  142.0071   72.9285  226.5974 H   0  0  0  0  0  0  0  0  0  0  0  0
  141.3389   72.1944  224.2901 H   0  0  0  0  0  0  0  0  0  0  0  0
  139.3581   72.1191  218.8552 H   0  0  0  0  0  0  0  0  0  0  0  0
  139.5366   74.2724  219.9512 H   0  0  0  0  0  0  0  0  0  0  0  0
  137.8489   73.9646  220.2548 H   0  0  0  0  0  0  0  0  0  0  0  0
  138.3778   73.0260  222.5666 H   0  0  0  0  0  0  0  0  0  0  0  0
  138.8730   74.9150  223.0970 H   0  0  0  0  0  0  0  0  0  0  0  0
  141.3015   73.0168  221.6839 H   0  0  0  0  0  0  0  0  0  0  0  0
  140.4853   71.8515  222.7413 H   0  0  0  0  0  0  0  0  0  0  0  0
  144.1836   70.8129  220.9070 H   0  0  0  0  0  0  0  0  0  0  0  0
  146.0476   72.3349  221.4361 H   0  0  0  0  0  0  0  0  0  0  0  0
  145.7889   74.7862  220.9989 H   0  0  0  0  0  0  0  0  0  0  0  0
  143.6712   75.6023  220.0482 H   0  0  0  0  0  0  0  0  0  0  0  0
  141.8043   74.1114  219.5120 H   0  0  0  0  0  0  0  0  0  0  0  0
  1  2  1  0
  2  3  1  0
  3  4  1  0
  4  5  1  0
  5  6  1  0
  6  7  2  0
  6  8  1  0
  8  9  2  0
  9 10  1  0
 10 11  2  0
 11 12  1  0
 12 13  2  0
 13 14  1  0
 13 15  1  0
 15 16  2  0
 16 17  1  0
 17 18  2  0
  2 19  1  0
 19 20  2  0
 19 21  1  0
 21 22  1  0
 22 23  1  0
 23 24  1  0
 23 25  1  0
 25 26  1  0
 26 27  1  0
 27 28  2  0
 27 29  2  0
 27 30  1  0
 30 31  2  0
 31 32  1  0
 32 33  2  0
 33 34  1  0
 34 35  2  0
 18  8  1  0
 26 21  1  0
 35 30  1  0
 17 11  1  0
  1 36  1  0
  1 37  1  0
  1 38  1  0
  3 39  1  0
  3 40  1  0
  4 41  1  0
  4 42  1  0
  5 43  1  0
  9 44  1  0
 10 45  1  0
 12 46  1  0
 15 47  1  0
 16 48  1  0
 21 49  1  6
 22 50  1  0
 22 51  1  0
 23 52  1  1
 24 53  1  0
 25 54  1  0
 25 55  1  0
 31 56  1  0
 32 57  1  0
 33 58  1  0
 34 59  1  0
 35 60  1  0
M  END
>  <smiles>  (41) 
CN(CCNC(=O)c1ccc2cc(F)ccc2n1)C(=O)[C@H]1C[C@H](O)CN1S(=O)(=O)c1ccccc1

>  <score_type>  (41) 
oracle

>  <origin>  (41) 
autodockgpu

>  <m_score__min__energy>  (41) 
-9.1999999999999993

>  <m_primary>  (41) 
energy

>  <rmsd>  (41) 
4.2343381436447105

>  <m_score__min__rmsd>  (41) 
4.2343381436447105

>  <meeko>  (41) 
{"free_energy": -6.4, "intermolecular_energy": -9.08, "internal_energy": -4.32, "cluster_size": 1, "cluster_id": 13, "rank_in_cluster": 1}

>  <energy>  (41) 
-7.43

>  <cluster_rmsd>  (41) 
0.0

>  <cluster>  (41) 
8

$$$$

     RDKit          3D

 60 63  0  0  0  0  0  0  0  0999 V2000
  137.0590   75.8950  223.0850 C   0  0  0  0  0  0  0  0  0  0  0  0
  137.9340   75.3190  222.0820 N   0  0  0  0  0  0  0  0  0  0  0  0
  137.3590   74.5000  221.0320 C   0  0  0  0  0  0  0  0  0  0  0  0
  137.9830   73.1490  220.8820 C   0  0  0  0  0  0  0  0  0  0  0  0
  138.3930   72.6530  222.1660 N   0  0  0  0  0  0  0  0  0  0  0  0
  138.6480   71.2400  222.2600 C   0  0  0  0  0  0  0  0  0  0  0  0
  138.4790   70.5900  221.1960 O   0  0  0  0  0  0  0  0  0  0  0  0
  139.0710   70.6140  223.5060 C   0  0  0  0  0  0  0  0  0  0  0  0
  138.8360   69.2640  223.6460 C   0  0  0  0  0  0  0  0  0  0  0  0
  139.2140   68.6040  224.8060 C   0  0  0  0  0  0  0  0  0  0  0  0
  139.8180   69.3450  225.7810 C   0  0  0  0  0  0  0  0  0  0  0  0
  140.2000   68.7060  226.9410 C   0  0  0  0  0  0  0  0  0  0  0  0
  140.8050   69.4290  227.9270 C   0  0  0  0  0  0  0  0  0  0  0  0
  141.1980   68.8270  229.0930 F   0  0  0  0  0  0  0  0  0  0  0  0
  141.0410   70.7850  227.7850 C   0  0  0  0  0  0  0  0  0  0  0  0
  140.6670   71.4590  226.6280 C   0  0  0  0  0  0  0  0  0  0  0  0
  140.0600   70.7080  225.6500 C   0  0  0  0  0  0  0  0  0  0  0  0
  139.6690   71.2980  224.4970 N   0  0  0  0  0  0  0  0  0  0  0  0
  139.3460   75.5000  222.0790 C   0  0  0  0  0  0  0  0  0  0  0  0
  140.0970   74.4580  222.2200 O   0  0  0  0  0  0  0  0  0  0  0  0
  140.0500   76.7680  221.9280 C   0  0  1  0  0  0  0  0  0  0  0  0
  141.4430   76.6200  221.3470 C   0  0  0  0  0  0  0  0  0  0  0  0
  141.1960   76.9260  219.8630 C   0  0  2  0  0  0  0  0  0  0  0  0
  142.3880   77.3570  219.2720 O   0  0  0  0  0  0  0  0  0  0  0  0
  140.2070   78.0580  219.9860 C   0  0  0  0  0  0  0  0  0  0  0  0
  139.4350   77.7890  221.1600 N   0  0  0  0  0  0  0  0  0  0  0  0
  139.0530   79.2090  222.0440 S   0  0  0  0  0  0  0  0  0  0  0  0
  138.4710   80.2100  221.0720 O   0  0  0  0  0  0  0  0  0  0  0  0
  138.0540   78.9930  223.1110 O   0  0  0  0  0  0  0  0  0  0  0  0
  140.4580   79.9650  222.7620 C   0  0  0  0  0  0  0  0  0  0  0  0
  141.3350   79.2860  223.5880 C   0  0  0  0  0  0  0  0  0  0  0  0
  142.4440   79.8810  224.1550 C   0  0  0  0  0  0  0  0  0  0  0  0
  142.6950   81.2110  223.8920 C   0  0  0  0  0  0  0  0  0  0  0  0
  141.8200   81.8830  223.0700 C   0  0  0  0  0  0  0  0  0  0  0  0
  140.7170   81.3110  222.5000 C   0  0  0  0  0  0  0  0  0  0  0  0
  137.4369   75.6463  224.0877 H   0  0  0  0  0  0  0  0  0  0  0  0
  137.0321   76.9880  222.9640 H   0  0  0  0  0  0  0  0  0  0  0  0
  136.0444   75.4876  222.9640 H   0  0  0  0  0  0  0  0  0  0  0  0
  136.2901   74.3614  221.2518 H   0  0  0  0  0  0  0  0  0  0  0  0
  137.5404   75.0331  220.0871 H   0  0  0  0  0  0  0  0  0  0  0  0
  137.2512   72.4565  220.4405 H   0  0  0  0  0  0  0  0  0  0  0  0
  138.8633   73.2281  220.2271 H   0  0  0  0  0  0  0  0  0  0  0  0
  138.5270   73.2040  223.0310 H   0  0  0  0  0  0  0  0  0  0  0  0
  138.3462   68.7066  222.8340 H   0  0  0  0  0  0  0  0  0  0  0  0
  139.0343   67.5265  224.9353 H   0  0  0  0  0  0  0  0  0  0  0  0
  140.0196   67.6286  227.0698 H   0  0  0  0  0  0  0  0  0  0  0  0
  141.5318   71.3379  228.5996 H   0  0  0  0  0  0  0  0  0  0  0  0
  140.8474   72.5368  226.5019 H   0  0  0  0  0  0  0  0  0  0  0  0
  140.0474   77.0850  222.9813 H   0  0  0  0  0  0  0  0  0  0  0  0
  142.1426   77.3416  221.7941 H   0  0  0  0  0  0  0  0  0  0  0  0
  141.9006   75.6366  221.5298 H   0  0  0  0  0  0  0  0  0  0  0  0
  140.8454   76.0831  219.2494 H   0  0  0  0  0  0  0  0  0  0  0  0
  142.9520   77.7660  219.9810 H   0  0  0  0  0  0  0  0  0  0  0  0
  140.7361   79.0169  220.0892 H   0  0  0  0  0  0  0  0  0  0  0  0
  139.5674   78.1297  219.0939 H   0  0  0  0  0  0  0  0  0  0  0  0
  141.1402   78.2249  223.8027 H   0  0  0  0  0  0  0  0  0  0  0  0
  143.1166   79.3034  224.8061 H   0  0  0  0  0  0  0  0  0  0  0  0
  143.5685   81.7194  224.3263 H   0  0  0  0  0  0  0  0  0  0  0  0
  142.0199   82.9439  222.8589 H   0  0  0  0  0  0  0  0  0  0  0  0
  140.0500   81.8973  221.8508 H   0  0  0  0  0  0  0  0  0  0  0  0
  1  2  1  0
  2  3  1  0
  3  4  1  0
  4  5  1  0
  5  6  1  0
  6  7  2  0
  6  8  1  0
  8  9  2  0
  9 10  1  0
 10 11  2  0
 11 12  1  0
 12 13  2  0
 13 14  1  0
 13 15  1  0
 15 16  2  0
 16 17  1  0
 17 18  2  0
  2 19  1  0
 19 20  2  0
 19 21  1  0
 21 22  1  0
 22 23  1  0
 23 24  1  0
 23 25  1  0
 25 26  1  0
 26 27  1  0
 27 28  2  0
 27 29  2  0
 27 30  1  0
 30 31  2  0
 31 32  1  0
 32 33  2  0
 33 34  1  0
 34 35  2  0
 18  8  1  0
 26 21  1  0
 35 30  1  0
 17 11  1  0
  1 36  1  0
  1 37  1  0
  1 38  1  0
  3 39  1  0
  3 40  1  0
  4 41  1  0
  4 42  1  0
  5 43  1  0
  9 44  1  0
 10 45  1  0
 12 46  1  0
 15 47  1  0
 16 48  1  0
 21 49  1  1
 22 50  1  0
 22 51  1  0
 23 52  1  6
 24 53  1  0
 25 54  1  0
 25 55  1  0
 31 56  1  0
 32 57  1  0
 33 58  1  0
 34 59  1  0
 35 60  1  0
M  END
>  <smiles>  (42) 
CN(CCNC(=O)c1ccc2cc(F)ccc2n1)C(=O)[C@H]1C[C@H](O)CN1S(=O)(=O)c1ccccc1

>  <score_type>  (42) 
oracle

>  <origin>  (42) 
autodockgpu

>  <m_score__min__energy>  (42) 
-9.1999999999999993

>  <m_primary>  (42) 
energy

>  <rmsd>  (42) 
2.701309431087601

>  <m_score__min__rmsd>  (42) 
2.701309431087601

>  <meeko>  (42) 
{"free_energy": -8.8, "intermolecular_energy": -11.48, "internal_energy": -2.52, "cluster_size": 10, "cluster_id": 2, "rank_in_cluster": 2}

>  <energy>  (42) 
-7.24

>  <cluster_rmsd>  (42) 
0.79

>  <cluster>  (42) 
8

$$$$

     RDKit          3D

 60 63  0  0  0  0  0  0  0  0999 V2000
  138.4050   76.4090  222.5610 C   0  0  0  0  0  0  0  0  0  0  0  0
  138.7980   75.3620  221.6370 N   0  0  0  0  0  0  0  0  0  0  0  0
  137.7780   74.7030  220.8450 C   0  0  0  0  0  0  0  0  0  0  0  0
  137.6320   73.2390  221.1110 C   0  0  0  0  0  0  0  0  0  0  0  0
  138.2980   72.8930  222.3360 N   0  0  0  0  0  0  0  0  0  0  0  0
  138.5000   71.4910  222.5870 C   0  0  0  0  0  0  0  0  0  0  0  0
  138.0640   70.7160  221.6970 O   0  0  0  0  0  0  0  0  0  0  0  0
  139.1650   71.0120  223.7920 C   0  0  0  0  0  0  0  0  0  0  0  0
  140.1120   71.8350  224.3610 C   0  0  0  0  0  0  0  0  0  0  0  0
  140.7830   71.4410  225.5090 C   0  0  0  0  0  0  0  0  0  0  0  0
  140.4620   70.2240  226.0370 C   0  0  0  0  0  0  0  0  0  0  0  0
  141.1190   69.8160  227.1790 C   0  0  0  0  0  0  0  0  0  0  0  0
  140.8130   68.6020  227.7200 C   0  0  0  0  0  0  0  0  0  0  0  0
  141.4450   68.1650  228.8540 F   0  0  0  0  0  0  0  0  0  0  0  0
  139.8610   67.7770  227.1490 C   0  0  0  0  0  0  0  0  0  0  0  0
  139.1820   68.1590  225.9980 C   0  0  0  0  0  0  0  0  0  0  0  0
  139.5080   69.3860  225.4720 C   0  0  0  0  0  0  0  0  0  0  0  0
  138.8860   69.8220  224.3510 N   0  0  0  0  0  0  0  0  0  0  0  0
  140.1440   74.9280  221.4750 C   0  0  0  0  0  0  0  0  0  0  0  0
  140.6300   74.1020  222.3420 O   0  0  0  0  0  0  0  0  0  0  0  0
  141.0530   75.3260  220.4060 C   0  0  1  0  0  0  0  0  0  0  0  0
  141.2530   74.2540  219.3530 C   0  0  0  0  0  0  0  0  0  0  0  0
  140.2630   74.6960  218.2660 C   0  0  2  0  0  0  0  0  0  0  0  0
  140.6630   74.1730  217.0320 O   0  0  0  0  0  0  0  0  0  0  0  0
  140.4610   76.1900  218.3170 C   0  0  0  0  0  0  0  0  0  0  0  0
  140.7570   76.5080  219.6800 N   0  0  0  0  0  0  0  0  0  0  0  0
  141.9320   77.7480  219.8330 S   0  0  0  0  0  0  0  0  0  0  0  0
  143.2960   77.0950  219.7770 O   0  0  0  0  0  0  0  0  0  0  0  0
  141.8780   78.7550  218.7520 O   0  0  0  0  0  0  0  0  0  0  0  0
  141.8420   78.5910  221.3640 C   0  0  0  0  0  0  0  0  0  0  0  0
  141.4460   77.9750  222.5370 C   0  0  0  0  0  0  0  0  0  0  0  0
  141.3750   78.6380  223.7440 C   0  0  0  0  0  0  0  0  0  0  0  0
  141.7100   79.9750  223.7920 C   0  0  0  0  0  0  0  0  0  0  0  0
  142.1020   80.5850  222.6230 C   0  0  0  0  0  0  0  0  0  0  0  0
  142.1790   79.9440  221.4180 C   0  0  0  0  0  0  0  0  0  0  0  0
  138.5378   76.0552  223.5940 H   0  0  0  0  0  0  0  0  0  0  0  0
  139.0305   77.2985  222.3948 H   0  0  0  0  0  0  0  0  0  0  0  0
  137.3487   76.6672  222.3948 H   0  0  0  0  0  0  0  0  0  0  0  0
  136.8134   75.1878  221.0560 H   0  0  0  0  0  0  0  0  0  0  0  0
  138.0889   74.7993  219.7942 H   0  0  0  0  0  0  0  0  0  0  0  0
  136.5641   72.9886  221.1937 H   0  0  0  0  0  0  0  0  0  0  0  0
  138.0846   72.6747  220.2823 H   0  0  0  0  0  0  0  0  0  0  0  0
  138.6510   73.5460  223.0560 H   0  0  0  0  0  0  0  0  0  0  0  0
  140.3370   72.8093  223.9026 H   0  0  0  0  0  0  0  0  0  0  0  0
  141.5439   72.0839  225.9756 H   0  0  0  0  0  0  0  0  0  0  0  0
  141.8784   70.4601  227.6464 H   0  0  0  0  0  0  0  0  0  0  0  0
  139.6380   66.8046  227.6125 H   0  0  0  0  0  0  0  0  0  0  0  0
  138.4233   67.5129  225.5324 H   0  0  0  0  0  0  0  0  0  0  0  0
  141.9506   75.5141  221.0133 H   0  0  0  0  0  0  0  0  0  0  0  0
  142.2865   74.2500  218.9763 H   0  0  0  0  0  0  0  0  0  0  0  0
  141.0851   73.2308  219.7202 H   0  0  0  0  0  0  0  0  0  0  0  0
  139.2205   74.3731  218.4038 H   0  0  0  0  0  0  0  0  0  0  0  0
  141.0860   74.9070  216.5110 H   0  0  0  0  0  0  0  0  0  0  0  0
  141.2970   76.4861  217.6663 H   0  0  0  0  0  0  0  0  0  0  0  0
  139.5660   76.7248  217.9663 H   0  0  0  0  0  0  0  0  0  0  0  0
  141.1757   76.9092  222.5059 H   0  0  0  0  0  0  0  0  0  0  0  0
  141.0562   78.1089  224.6542 H   0  0  0  0  0  0  0  0  0  0  0  0
  141.6651   80.5367  224.7367 H   0  0  0  0  0  0  0  0  0  0  0  0
  142.3693   81.6514  222.6600 H   0  0  0  0  0  0  0  0  0  0  0  0
  142.4988   80.4816  220.5132 H   0  0  0  0  0  0  0  0  0  0  0  0
  1  2  1  0
  2  3  1  0
  3  4  1  0
  4  5  1  0
  5  6  1  0
  6  7  2  0
  6  8  1  0
  8  9  2  0
  9 10  1  0
 10 11  2  0
 11 12  1  0
 12 13  2  0
 13 14  1  0
 13 15  1  0
 15 16  2  0
 16 17  1  0
 17 18  2  0
  2 19  1  0
 19 20  2  0
 19 21  1  0
 21 22  1  0
 22 23  1  0
 23 24  1  0
 23 25  1  0
 25 26  1  0
 26 27  1  0
 27 28  2  0
 27 29  2  0
 27 30  1  0
 30 31  2  0
 31 32  1  0
 32 33  2  0
 33 34  1  0
 34 35  2  0
 18  8  1  0
 26 21  1  0
 35 30  1  0
 17 11  1  0
  1 36  1  0
  1 37  1  0
  1 38  1  0
  3 39  1  0
  3 40  1  0
  4 41  1  0
  4 42  1  0
  5 43  1  0
  9 44  1  0
 10 45  1  0
 12 46  1  0
 15 47  1  0
 16 48  1  0
 21 49  1  1
 22 50  1  0
 22 51  1  0
 23 52  1  1
 24 53  1  0
 25 54  1  0
 25 55  1  0
 31 56  1  0
 32 57  1  0
 33 58  1  0
 34 59  1  0
 35 60  1  0
M  END
>  <smiles>  (43) 
CN(CCNC(=O)c1ccc2cc(F)ccc2n1)C(=O)[C@H]1C[C@H](O)CN1S(=O)(=O)c1ccccc1

>  <score_type>  (43) 
oracle

>  <origin>  (43) 
autodockgpu

>  <m_score__min__energy>  (43) 
-9.1999999999999993

>  <m_primary>  (43) 
energy

>  <rmsd>  (43) 
2.9909897905948033

>  <m_score__min__rmsd>  (43) 
2.9909897905948033

>  <meeko>  (43) 
{"free_energy": -8.18, "intermolecular_energy": -10.86, "internal_energy": -2.72, "cluster_size": 10, "cluster_id": 2, "rank_in_cluster": 8}

>  <energy>  (43) 
-7.41

>  <cluster_rmsd>  (43) 
0.0

>  <cluster>  (43) 
9

$$$$

     RDKit          3D

 60 63  0  0  0  0  0  0  0  0999 V2000
  139.4880   73.8470  220.4110 C   0  0  0  0  0  0  0  0  0  0  0  0
  138.5720   73.1810  221.3180 N   0  0  0  0  0  0  0  0  0  0  0  0
  137.1540   73.4670  221.2210 C   0  0  0  0  0  0  0  0  0  0  0  0
  136.6280   74.3800  222.2830 C   0  0  0  0  0  0  0  0  0  0  0  0
  137.6290   75.3470  222.6380 N   0  0  0  0  0  0  0  0  0  0  0  0
  137.2920   76.7300  222.4290 C   0  0  0  0  0  0  0  0  0  0  0  0
  136.1470   76.9390  221.9510 O   0  0  0  0  0  0  0  0  0  0  0  0
  138.2200   77.8070  222.7500 C   0  0  0  0  0  0  0  0  0  0  0  0
  137.6800   79.0420  223.0330 C   0  0  0  0  0  0  0  0  0  0  0  0
  138.5050   80.1120  223.3470 C   0  0  0  0  0  0  0  0  0  0  0  0
  139.8510   79.8820  223.3630 C   0  0  0  0  0  0  0  0  0  0  0  0
  140.6870   80.9350  223.6730 C   0  0  0  0  0  0  0  0  0  0  0  0
  142.0340   80.7250  223.6930 C   0  0  0  0  0  0  0  0  0  0  0  0
  142.8940   81.7470  223.9980 F   0  0  0  0  0  0  0  0  0  0  0  0
  142.5750   79.4840  223.4090 C   0  0  0  0  0  0  0  0  0  0  0  0
  141.7600   78.4040  223.0920 C   0  0  0  0  0  0  0  0  0  0  0  0
  140.4060   78.6410  223.0790 C   0  0  0  0  0  0  0  0  0  0  0  0
  139.5520   77.6340  222.7780 N   0  0  0  0  0  0  0  0  0  0  0  0
  138.9950   72.2640  222.3210 C   0  0  0  0  0  0  0  0  0  0  0  0
  139.9280   72.6340  223.1340 O   0  0  0  0  0  0  0  0  0  0  0  0
  138.4700   70.9210  222.5330 C   0  0  1  0  0  0  0  0  0  0  0  0
  137.8390   70.3160  221.2940 C   0  0  0  0  0  0  0  0  0  0  0  0
  138.9870   69.4550  220.7480 C   0  0  2  0  0  0  0  0  0  0  0  0
  138.4650   68.4350  219.9460 O   0  0  0  0  0  0  0  0  0  0  0  0
  139.5430   68.9050  222.0380 C   0  0  0  0  0  0  0  0  0  0  0  0
  139.3530   69.9250  223.0230 N   0  0  0  0  0  0  0  0  0  0  0  0
  138.9280   69.2930  224.5590 S   0  0  0  0  0  0  0  0  0  0  0  0
  137.4430   69.5090  224.7490 O   0  0  0  0  0  0  0  0  0  0  0  0
  139.1870   67.8440  224.6980 O   0  0  0  0  0  0  0  0  0  0  0  0
  139.7280   70.1150  225.8820 C   0  0  0  0  0  0  0  0  0  0  0  0
  139.6390   69.6860  227.1940 C   0  0  0  0  0  0  0  0  0  0  0  0
  140.2700   70.3330  228.2370 C   0  0  0  0  0  0  0  0  0  0  0  0
  141.0220   71.4560  227.9680 C   0  0  0  0  0  0  0  0  0  0  0  0
  141.1070   71.8800  226.6620 C   0  0  0  0  0  0  0  0  0  0  0  0
  140.4900   71.2530  225.6160 C   0  0  0  0  0  0  0  0  0  0  0  0
  140.2438   74.3965  220.9913 H   0  0  0  0  0  0  0  0  0  0  0  0
  139.9855   73.0983  219.7770 H   0  0  0  0  0  0  0  0  0  0  0  0
  138.9291   74.5511  219.7770 H   0  0  0  0  0  0  0  0  0  0  0  0
  136.9643   73.9334  220.2430 H   0  0  0  0  0  0  0  0  0  0  0  0
  136.6331   72.5068  221.3498 H   0  0  0  0  0  0  0  0  0  0  0  0
  135.7353   74.9009  221.9065 H   0  0  0  0  0  0  0  0  0  0  0  0
  136.3663   73.7875  223.1721 H   0  0  0  0  0  0  0  0  0  0  0  0
  138.5660   75.1550  223.0310 H   0  0  0  0  0  0  0  0  0  0  0  0
  136.5890   79.1805  223.0099 H   0  0  0  0  0  0  0  0  0  0  0  0
  138.0917   81.1058  223.5740 H   0  0  0  0  0  0  0  0  0  0  0  0
  140.2732   81.9285  223.9005 H   0  0  0  0  0  0  0  0  0  0  0  0
  143.6665   79.3500  223.4345 H   0  0  0  0  0  0  0  0  0  0  0  0
  142.1764   77.4118  222.8635 H   0  0  0  0  0  0  0  0  0  0  0  0
  137.7426   71.1517  223.3252 H   0  0  0  0  0  0  0  0  0  0  0  0
  136.9633   69.7012  221.5495 H   0  0  0  0  0  0  0  0  0  0  0  0
  137.4594   71.0598  220.5780 H   0  0  0  0  0  0  0  0  0  0  0  0
  139.7253   69.9782  220.1226 H   0  0  0  0  0  0  0  0  0  0  0  0
  138.2020   67.6820  220.5400 H   0  0  0  0  0  0  0  0  0  0  0  0
  139.0031   67.9911  222.3267 H   0  0  0  0  0  0  0  0  0  0  0  0
  140.6058   68.6407  221.9353 H   0  0  0  0  0  0  0  0  0  0  0  0
  139.0396   68.7907  227.4155 H   0  0  0  0  0  0  0  0  0  0  0  0
  140.1742   69.9582  229.2667 H   0  0  0  0  0  0  0  0  0  0  0  0
  141.5391   71.9975  228.7738 H   0  0  0  0  0  0  0  0  0  0  0  0
  141.7069   72.7766  226.4469 H   0  0  0  0  0  0  0  0  0  0  0  0
  140.5917   71.6361  224.5899 H   0  0  0  0  0  0  0  0  0  0  0  0
  1  2  1  0
  2  3  1  0
  3  4  1  0
  4  5  1  0
  5  6  1  0
  6  7  2  0
  6  8  1  0
  8  9  2  0
  9 10  1  0
 10 11  2  0
 11 12  1  0
 12 13  2  0
 13 14  1  0
 13 15  1  0
 15 16  2  0
 16 17  1  0
 17 18  2  0
  2 19  1  0
 19 20  2  0
 19 21  1  0
 21 22  1  0
 22 23  1  0
 23 24  1  0
 23 25  1  0
 25 26  1  0
 26 27  1  0
 27 28  2  0
 27 29  2  0
 27 30  1  0
 30 31  2  0
 31 32  1  0
 32 33  2  0
 33 34  1  0
 34 35  2  0
 18  8  1  0
 26 21  1  0
 35 30  1  0
 17 11  1  0
  1 36  1  0
  1 37  1  0
  1 38  1  0
  3 39  1  0
  3 40  1  0
  4 41  1  0
  4 42  1  0
  5 43  1  0
  9 44  1  0
 10 45  1  0
 12 46  1  0
 15 47  1  0
 16 48  1  0
 21 49  1  1
 22 50  1  0
 22 51  1  0
 23 52  1  6
 24 53  1  0
 25 54  1  0
 25 55  1  0
 31 56  1  0
 32 57  1  0
 33 58  1  0
 34 59  1  0
 35 60  1  0
M  END
>  <smiles>  (44) 
CN(CCNC(=O)c1ccc2cc(F)ccc2n1)C(=O)[C@H]1C[C@H](O)CN1S(=O)(=O)c1ccccc1

>  <score_type>  (44) 
oracle

>  <origin>  (44) 
autodockgpu

>  <m_score__min__energy>  (44) 
-9.1999999999999993

>  <m_primary>  (44) 
energy

>  <rmsd>  (44) 
8.391279465584164

>  <m_score__min__rmsd>  (44) 
8.391279465584164

>  <meeko>  (44) 
{"free_energy": -8.44, "intermolecular_energy": -11.12, "internal_energy": -2.08, "cluster_size": 3, "cluster_id": 3, "rank_in_cluster": 1}

>  <energy>  (44) 
-7.38

>  <cluster_rmsd>  (44) 
0.0

>  <cluster>  (44) 
10

$$$$

     RDKit          3D

 60 63  0  0  0  0  0  0  0  0999 V2000
  136.7160   77.3980  221.4500 C   0  0  0  0  0  0  0  0  0  0  0  0
  137.1740   76.0880  221.0290 N   0  0  0  0  0  0  0  0  0  0  0  0
  136.6110   74.9090  221.6580 C   0  0  0  0  0  0  0  0  0  0  0  0
  137.1840   73.6130  221.1800 C   0  0  0  0  0  0  0  0  0  0  0  0
  137.9320   72.9890  222.2350 N   0  0  0  0  0  0  0  0  0  0  0  0
  137.5680   71.6390  222.5730 C   0  0  0  0  0  0  0  0  0  0  0  0
  136.6230   71.1520  221.9000 O   0  0  0  0  0  0  0  0  0  0  0  0
  138.2510   70.8950  223.6240 C   0  0  0  0  0  0  0  0  0  0  0  0
  138.0680   69.5300  223.6520 C   0  0  0  0  0  0  0  0  0  0  0  0
  138.6880   68.7600  224.6250 C   0  0  0  0  0  0  0  0  0  0  0  0
  139.4730   69.4110  225.5330 C   0  0  0  0  0  0  0  0  0  0  0  0
  140.0980   68.6620  226.5080 C   0  0  0  0  0  0  0  0  0  0  0  0
  140.8860   69.2940  227.4240 C   0  0  0  0  0  0  0  0  0  0  0  0
  141.5230   68.5820  228.4060 F   0  0  0  0  0  0  0  0  0  0  0  0
  141.0700   70.6650  227.3940 C   0  0  0  0  0  0  0  0  0  0  0  0
  140.4530   71.4480  226.4250 C   0  0  0  0  0  0  0  0  0  0  0  0
  139.6640   70.7870  225.5140 C   0  0  0  0  0  0  0  0  0  0  0  0
  139.0340   71.4870  224.5420 N   0  0  0  0  0  0  0  0  0  0  0  0
  138.1720   75.8920  220.0320 C   0  0  0  0  0  0  0  0  0  0  0  0
  137.8110   75.9270  218.7910 O   0  0  0  0  0  0  0  0  0  0  0  0
  139.5890   75.6520  220.2700 C   0  0  1  0  0  0  0  0  0  0  0  0
  140.4440   76.8970  220.1330 C   0  0  0  0  0  0  0  0  0  0  0  0
  140.5830   77.3420  221.5970 C   0  0  2  0  0  0  0  0  0  0  0  0
  141.7310   78.1270  221.7380 O   0  0  0  0  0  0  0  0  0  0  0  0
  140.7520   76.0010  222.2670 C   0  0  0  0  0  0  0  0  0  0  0  0
  139.9740   75.0730  221.5060 N   0  0  0  0  0  0  0  0  0  0  0  0
  140.7230   73.5360  221.3670 S   0  0  0  0  0  0  0  0  0  0  0  0
  140.7200   72.8990  222.7380 O   0  0  0  0  0  0  0  0  0  0  0  0
  140.0220   72.6140  220.4480 O   0  0  0  0  0  0  0  0  0  0  0  0
  142.3960   73.6340  220.8620 C   0  0  0  0  0  0  0  0  0  0  0  0
  143.2470   72.5440  220.8700 C   0  0  0  0  0  0  0  0  0  0  0  0
  144.5650   72.6200  220.4720 C   0  0  0  0  0  0  0  0  0  0  0  0
  145.0650   73.8320  220.0460 C   0  0  0  0  0  0  0  0  0  0  0  0
  144.2160   74.9150  220.0400 C   0  0  0  0  0  0  0  0  0  0  0  0
  142.9070   74.8590  220.4300 C   0  0  0  0  0  0  0  0  0  0  0  0
  136.6996   77.4450  222.5489 H   0  0  0  0  0  0  0  0  0  0  0  0
  137.3984   78.1677  221.0602 H   0  0  0  0  0  0  0  0  0  0  0  0
  135.7027   77.5749  221.0602 H   0  0  0  0  0  0  0  0  0  0  0  0
  136.7855   74.9821  222.7416 H   0  0  0  0  0  0  0  0  0  0  0  0
  135.5437   74.8942  221.3922 H   0  0  0  0  0  0  0  0  0  0  0  0
  136.3667   72.9458  220.8688 H   0  0  0  0  0  0  0  0  0  0  0  0
  137.8525   73.8057  220.3280 H   0  0  0  0  0  0  0  0  0  0  0  0
  138.7080   73.4060  222.7780 H   0  0  0  0  0  0  0  0  0  0  0  0
  137.4270   69.0482  222.8990 H   0  0  0  0  0  0  0  0  0  0  0  0
  138.5528   67.6690  224.6636 H   0  0  0  0  0  0  0  0  0  0  0  0
  139.9628   67.5710  226.5461 H   0  0  0  0  0  0  0  0  0  0  0  0
  141.7137   71.1422  228.1476 H   0  0  0  0  0  0  0  0  0  0  0  0
  140.5890   72.5390  226.3892 H   0  0  0  0  0  0  0  0  0  0  0  0
  139.7655   74.9106  219.4768 H   0  0  0  0  0  0  0  0  0  0  0  0
  141.4235   76.6640  219.6900 H   0  0  0  0  0  0  0  0  0  0  0  0
  140.0136   77.6638  219.4721 H   0  0  0  0  0  0  0  0  0  0  0  0
  139.7562   77.9473  221.9971 H   0  0  0  0  0  0  0  0  0  0  0  0
  142.5220   77.5310  221.6530 H   0  0  0  0  0  0  0  0  0  0  0  0
  141.8111   75.7037  222.2632 H   0  0  0  0  0  0  0  0  0  0  0  0
  140.4234   76.0333  223.3163 H   0  0  0  0  0  0  0  0  0  0  0  0
  142.8552   71.5736  221.2088 H   0  0  0  0  0  0  0  0  0  0  0  0
  145.2075   71.7274  220.4941 H   0  0  0  0  0  0  0  0  0  0  0  0
  146.1112   73.9304  219.7207 H   0  0  0  0  0  0  0  0  0  0  0  0
  144.6142   75.8829  219.7014 H   0  0  0  0  0  0  0  0  0  0  0  0
  142.2722   75.7570  220.4040 H   0  0  0  0  0  0  0  0  0  0  0  0
  1  2  1  0
  2  3  1  0
  3  4  1  0
  4  5  1  0
  5  6  1  0
  6  7  2  0
  6  8  1  0
  8  9  2  0
  9 10  1  0
 10 11  2  0
 11 12  1  0
 12 13  2  0
 13 14  1  0
 13 15  1  0
 15 16  2  0
 16 17  1  0
 17 18  2  0
  2 19  1  0
 19 20  2  0
 19 21  1  0
 21 22  1  0
 22 23  1  0
 23 24  1  0
 23 25  1  0
 25 26  1  0
 26 27  1  0
 27 28  2  0
 27 29  2  0
 27 30  1  0
 30 31  2  0
 31 32  1  0
 32 33  2  0
 33 34  1  0
 34 35  2  0
 18  8  1  0
 26 21  1  0
 35 30  1  0
 17 11  1  0
  1 36  1  0
  1 37  1  0
  1 38  1  0
  3 39  1  0
  3 40  1  0
  4 41  1  0
  4 42  1  0
  5 43  1  0
  9 44  1  0
 10 45  1  0
 12 46  1  0
 15 47  1  0
 16 48  1  0
 21 49  1  6
 22 50  1  0
 22 51  1  0
 23 52  1  1
 24 53  1  0
 25 54  1  0
 25 55  1  0
 31 56  1  0
 32 57  1  0
 33 58  1  0
 34 59  1  0
 35 60  1  0
M  END
>  <smiles>  (45) 
CN(CCNC(=O)c1ccc2cc(F)ccc2n1)C(=O)[C@H]1C[C@H](O)CN1S(=O)(=O)c1ccccc1

>  <score_type>  (45) 
oracle

>  <origin>  (45) 
autodockgpu

>  <m_score__min__energy>  (45) 
-9.1999999999999993

>  <m_primary>  (45) 
energy

>  <rmsd>  (45) 
2.771388792691253

>  <m_score__min__rmsd>  (45) 
2.771388792691253

>  <meeko>  (45) 
{"free_energy": -7.38, "intermolecular_energy": -10.06, "internal_energy": -3.6, "cluster_size": 1, "cluster_id": 10, "rank_in_cluster": 1}

>  <energy>  (45) 
-6.77

>  <cluster_rmsd>  (45) 
0.0

>  <cluster>  (45) 
11

$$$$

     RDKit          3D

 60 63  0  0  0  0  0  0  0  0999 V2000
  140.5600   67.2310  219.9570 C   0  0  0  0  0  0  0  0  0  0  0  0
  139.5960   67.6840  220.9420 N   0  0  0  0  0  0  0  0  0  0  0  0
  138.8370   66.7000  221.6890 C   0  0  0  0  0  0  0  0  0  0  0  0
  137.3540   66.8860  221.6370 C   0  0  0  0  0  0  0  0  0  0  0  0
  136.9520   67.8860  222.5870 N   0  0  0  0  0  0  0  0  0  0  0  0
  135.7740   68.6470  222.2640 C   0  0  0  0  0  0  0  0  0  0  0  0
  135.2240   68.3490  221.1720 O   0  0  0  0  0  0  0  0  0  0  0  0
  135.2630   69.6890  223.1450 C   0  0  0  0  0  0  0  0  0  0  0  0
  135.1750   70.9640  222.6310 C   0  0  0  0  0  0  0  0  0  0  0  0
  134.6970   72.0030  223.4150 C   0  0  0  0  0  0  0  0  0  0  0  0
  134.3240   71.7040  224.6930 C   0  0  0  0  0  0  0  0  0  0  0  0
  133.8460   72.7260  225.4880 C   0  0  0  0  0  0  0  0  0  0  0  0
  133.4690   72.4470  226.7680 C   0  0  0  0  0  0  0  0  0  0  0  0
  132.9890   73.4360  227.5850 F   0  0  0  0  0  0  0  0  0  0  0  0
  133.5570   71.1660  227.2830 C   0  0  0  0  0  0  0  0  0  0  0  0
  134.0350   70.1150  226.5090 C   0  0  0  0  0  0  0  0  0  0  0  0
  134.4090   70.4220  225.2220 C   0  0  0  0  0  0  0  0  0  0  0  0
  134.8830   69.4480  224.4110 N   0  0  0  0  0  0  0  0  0  0  0  0
  139.3380   69.0590  221.2090 C   0  0  0  0  0  0  0  0  0  0  0  0
  138.8220   69.7780  220.2680 O   0  0  0  0  0  0  0  0  0  0  0  0
  139.6000   69.7540  222.4630 C   0  0  1  0  0  0  0  0  0  0  0  0
  140.2750   71.0990  222.2780 C   0  0  0  0  0  0  0  0  0  0  0  0
  139.0800   72.0600  222.3440 C   0  0  2  0  0  0  0  0  0  0  0  0
  139.5240   73.3320  222.7210 O   0  0  0  0  0  0  0  0  0  0  0  0
  138.2780   71.4130  223.4450 C   0  0  0  0  0  0  0  0  0  0  0  0
  138.5070   70.0050  223.3320 N   0  0  0  0  0  0  0  0  0  0  0  0
  138.6190   69.2260  224.8560 S   0  0  0  0  0  0  0  0  0  0  0  0
  137.2210   69.1310  225.4250 O   0  0  0  0  0  0  0  0  0  0  0  0
  139.1620   67.8530  224.7820 O   0  0  0  0  0  0  0  0  0  0  0  0
  139.5730   70.1250  226.0150 C   0  0  0  0  0  0  0  0  0  0  0  0
  140.4310   71.1460  225.6490 C   0  0  0  0  0  0  0  0  0  0  0  0
  141.1830   71.8560  226.5620 C   0  0  0  0  0  0  0  0  0  0  0  0
  141.0810   71.5400  227.9000 C   0  0  0  0  0  0  0  0  0  0  0  0
  140.2270   70.5230  228.2600 C   0  0  0  0  0  0  0  0  0  0  0  0
  139.4740   69.8090  227.3710 C   0  0  0  0  0  0  0  0  0  0  0  0
  141.4409   66.8171  220.4695 H   0  0  0  0  0  0  0  0  0  0  0  0
  140.1030   66.4534  219.3273 H   0  0  0  0  0  0  0  0  0  0  0  0
  140.8670   68.0791  219.3273 H   0  0  0  0  0  0  0  0  0  0  0  0
  139.0723   65.7051  221.2831 H   0  0  0  0  0  0  0  0  0  0  0  0
  139.1287   66.8164  222.7432 H   0  0  0  0  0  0  0  0  0  0  0  0
  137.0619   67.2055  220.6258 H   0  0  0  0  0  0  0  0  0  0  0  0
  136.8612   65.9340  221.8836 H   0  0  0  0  0  0  0  0  0  0  0  0
  137.4180   68.1160  223.4820 H   0  0  0  0  0  0  0  0  0  0  0  0
  135.4854   71.1588  221.5938 H   0  0  0  0  0  0  0  0  0  0  0  0
  134.6215   73.0277  223.0222 H   0  0  0  0  0  0  0  0  0  0  0  0
  133.7704   73.7505  225.0946 H   0  0  0  0  0  0  0  0  0  0  0  0
  133.2441   70.9764  228.3204 H   0  0  0  0  0  0  0  0  0  0  0  0
  134.1101   69.0916  226.9053 H   0  0  0  0  0  0  0  0  0  0  0  0
  140.2472   69.0015  222.9371 H   0  0  0  0  0  0  0  0  0  0  0  0
  140.9958   71.2999  223.0842 H   0  0  0  0  0  0  0  0  0  0  0  0
  140.8617   71.1799  221.3511 H   0  0  0  0  0  0  0  0  0  0  0  0
  138.5260   72.2033  221.4045 H   0  0  0  0  0  0  0  0  0  0  0  0
  138.7430   73.8380  223.0710 H   0  0  0  0  0  0  0  0  0  0  0  0
  138.6157   71.7766  224.4267 H   0  0  0  0  0  0  0  0  0  0  0  0
  137.2083   71.6533  223.3557 H   0  0  0  0  0  0  0  0  0  0  0  0
  140.5176   71.4033  224.5830 H   0  0  0  0  0  0  0  0  0  0  0  0
  141.8534   72.6615  226.2277 H   0  0  0  0  0  0  0  0  0  0  0  0
  141.6647   72.0844  228.6569 H   0  0  0  0  0  0  0  0  0  0  0  0
  140.1456   70.2696  229.3273 H   0  0  0  0  0  0  0  0  0  0  0  0
  138.8065   69.0053  227.7153 H   0  0  0  0  0  0  0  0  0  0  0  0
  1  2  1  0
  2  3  1  0
  3  4  1  0
  4  5  1  0
  5  6  1  0
  6  7  2  0
  6  8  1  0
  8  9  2  0
  9 10  1  0
 10 11  2  0
 11 12  1  0
 12 13  2  0
 13 14  1  0
 13 15  1  0
 15 16  2  0
 16 17  1  0
 17 18  2  0
  2 19  1  0
 19 20  2  0
 19 21  1  0
 21 22  1  0
 22 23  1  0
 23 24  1  0
 23 25  1  0
 25 26  1  0
 26 27  1  0
 27 28  2  0
 27 29  2  0
 27 30  1  0
 30 31  2  0
 31 32  1  0
 32 33  2  0
 33 34  1  0
 34 35  2  0
 18  8  1  0
 26 21  1  0
 35 30  1  0
 17 11  1  0
  1 36  1  0
  1 37  1  0
  1 38  1  0
  3 39  1  0
  3 40  1  0
  4 41  1  0
  4 42  1  0
  5 43  1  0
  9 44  1  0
 10 45  1  0
 12 46  1  0
 15 47  1  0
 16 48  1  0
 21 49  1  1
 22 50  1  0
 22 51  1  0
 23 52  1  6
 24 53  1  0
 25 54  1  0
 25 55  1  0
 31 56  1  0
 32 57  1  0
 33 58  1  0
 34 59  1  0
 35 60  1  0
M  END
>  <smiles>  (46) 
CN(CCNC(=O)c1ccc2cc(F)ccc2n1)C(=O)[C@H]1C[C@H](O)CN1S(=O)(=O)c1ccccc1

>  <score_type>  (46) 
oracle

>  <origin>  (46) 
autodockgpu

>  <m_score__min__energy>  (46) 
-9.1999999999999993

>  <m_primary>  (46) 
energy

>  <rmsd>  (46) 
7.095838375232058

>  <m_score__min__rmsd>  (46) 
7.095838375232058

>  <meeko>  (46) 
{"free_energy": -7.19, "intermolecular_energy": -9.88, "internal_energy": -4.87, "cluster_size": 6, "cluster_id": 5, "rank_in_cluster": 4}

>  <energy>  (46) 
-6.59

>  <cluster_rmsd>  (46) 
0.0

>  <cluster>  (46) 
12

$$$$

     RDKit          3D

 60 63  0  0  0  0  0  0  0  0999 V2000
  137.1360   75.9820  222.9980 C   0  0  0  0  0  0  0  0  0  0  0  0
  138.0270   75.3040  222.0770 N   0  0  0  0  0  0  0  0  0  0  0  0
  137.4790   74.3200  221.1630 C   0  0  0  0  0  0  0  0  0  0  0  0
  138.3320   73.1070  220.9680 C   0  0  0  0  0  0  0  0  0  0  0  0
  138.7090   72.5620  222.2420 N   0  0  0  0  0  0  0  0  0  0  0  0
  138.7950   71.1290  222.3310 C   0  0  0  0  0  0  0  0  0  0  0  0
  138.5250   70.5060  221.2710 O   0  0  0  0  0  0  0  0  0  0  0  0
  139.1680   70.4530  223.5670 C   0  0  0  0  0  0  0  0  0  0  0  0
  138.8810   69.1090  223.6630 C   0  0  0  0  0  0  0  0  0  0  0  0
  139.2090   68.4040  224.8120 C   0  0  0  0  0  0  0  0  0  0  0  0
  139.8190   69.0950  225.8190 C   0  0  0  0  0  0  0  0  0  0  0  0
  140.1530   68.4090  226.9690 C   0  0  0  0  0  0  0  0  0  0  0  0
  140.7620   69.0820  227.9860 C   0  0  0  0  0  0  0  0  0  0  0  0
  141.1080   68.4340  229.1420 F   0  0  0  0  0  0  0  0  0  0  0  0
  141.0500   70.4320  227.8880 C   0  0  0  0  0  0  0  0  0  0  0  0
  140.7260   71.1510  226.7430 C   0  0  0  0  0  0  0  0  0  0  0  0
  140.1130   70.4500  225.7320 C   0  0  0  0  0  0  0  0  0  0  0  0
  139.7690   71.0860  224.5880 N   0  0  0  0  0  0  0  0  0  0  0  0
  139.4300   75.5410  222.0290 C   0  0  0  0  0  0  0  0  0  0  0  0
  140.2250   74.5290  222.1450 O   0  0  0  0  0  0  0  0  0  0  0  0
  140.0780   76.8350  221.8560 C   0  0  1  0  0  0  0  0  0  0  0  0
  141.4530   76.7420  221.2240 C   0  0  0  0  0  0  0  0  0  0  0  0
  141.1410   77.0400  219.7510 C   0  0  2  0  0  0  0  0  0  0  0  0
  142.2930   77.5180  219.1170 O   0  0  0  0  0  0  0  0  0  0  0  0
  140.1140   78.1330  219.9120 C   0  0  0  0  0  0  0  0  0  0  0  0
  139.3960   77.8330  221.1130 N   0  0  0  0  0  0  0  0  0  0  0  0
  138.9920   79.2350  222.0140 S   0  0  0  0  0  0  0  0  0  0  0  0
  138.3680   80.2280  221.0590 O   0  0  0  0  0  0  0  0  0  0  0  0
  138.0160   78.9860  223.0950 O   0  0  0  0  0  0  0  0  0  0  0  0
  140.3890   80.0230  222.7160 C   0  0  0  0  0  0  0  0  0  0  0  0
  140.7140   81.3420  222.4570 C   0  0  0  0  0  0  0  0  0  0  0  0
  141.8140   81.9640  223.0100 C   0  0  0  0  0  0  0  0  0  0  0  0
  142.6300   81.2470  223.8580 C   0  0  0  0  0  0  0  0  0  0  0  0
  142.3040   79.9350  224.1130 C   0  0  0  0  0  0  0  0  0  0  0  0
  141.2180   79.3010  223.5750 C   0  0  0  0  0  0  0  0  0  0  0  0
  137.4350   75.7545  224.0319 H   0  0  0  0  0  0  0  0  0  0  0  0
  137.1924   77.0677  222.8305 H   0  0  0  0  0  0  0  0  0  0  0  0
  136.1046   75.6382  222.8305 H   0  0  0  0  0  0  0  0  0  0  0  0
  136.5039   73.9942  221.5541 H   0  0  0  0  0  0  0  0  0  0  0  0
  137.4083   74.8119  220.1817 H   0  0  0  0  0  0  0  0  0  0  0  0
  137.7675   72.3519  220.4014 H   0  0  0  0  0  0  0  0  0  0  0  0
  139.2390   73.3887  220.4130 H   0  0  0  0  0  0  0  0  0  0  0  0
  138.9290   73.0910  223.1040 H   0  0  0  0  0  0  0  0  0  0  0  0
  138.3897   68.5927  222.8251 H   0  0  0  0  0  0  0  0  0  0  0  0
  138.9864   67.3310  224.9078 H   0  0  0  0  0  0  0  0  0  0  0  0
  139.9312   67.3357  227.0634 H   0  0  0  0  0  0  0  0  0  0  0  0
  141.5424   70.9436  228.7281 H   0  0  0  0  0  0  0  0  0  0  0  0
  140.9485   72.2243  226.6510 H   0  0  0  0  0  0  0  0  0  0  0  0
  140.1016   77.1501  222.9096 H   0  0  0  0  0  0  0  0  0  0  0  0
  142.1400   77.4896  221.6473 H   0  0  0  0  0  0  0  0  0  0  0  0
  141.9544   75.7766  221.3871 H   0  0  0  0  0  0  0  0  0  0  0  0
  140.8016   76.1841  219.1491 H   0  0  0  0  0  0  0  0  0  0  0  0
  142.9120   77.8540  219.8190 H   0  0  0  0  0  0  0  0  0  0  0  0
  140.6090   79.1116  219.9981 H   0  0  0  0  0  0  0  0  0  0  0  0
  139.4403   78.1808  219.0438 H   0  0  0  0  0  0  0  0  0  0  0  0
  140.0673   81.9202  221.7807 H   0  0  0  0  0  0  0  0  0  0  0  0
  142.0364   83.0159  222.7777 H   0  0  0  0  0  0  0  0  0  0  0  0
  143.5158   81.7100  224.3174 H   0  0  0  0  0  0  0  0  0  0  0  0
  142.9552   79.3620  224.7895 H   0  0  0  0  0  0  0  0  0  0  0  0
  141.0037   78.2488  223.8135 H   0  0  0  0  0  0  0  0  0  0  0  0
  1  2  1  0
  2  3  1  0
  3  4  1  0
  4  5  1  0
  5  6  1  0
  6  7  2  0
  6  8  1  0
  8  9  2  0
  9 10  1  0
 10 11  2  0
 11 12  1  0
 12 13  2  0
 13 14  1  0
 13 15  1  0
 15 16  2  0
 16 17  1  0
 17 18  2  0
  2 19  1  0
 19 20  2  0
 19 21  1  0
 21 22  1  0
 22 23  1  0
 23 24  1  0
 23 25  1  0
 25 26  1  0
 26 27  1  0
 27 28  2  0
 27 29  2  0
 27 30  1  0
 30 31  2  0
 31 32  1  0
 32 33  2  0
 33 34  1  0
 34 35  2  0
 18  8  1  0
 26 21  1  0
 35 30  1  0
 17 11  1  0
  1 36  1  0
  1 37  1  0
  1 38  1  0
  3 39  1  0
  3 40  1  0
  4 41  1  0
  4 42  1  0
  5 43  1  0
  9 44  1  0
 10 45  1  0
 12 46  1  0
 15 47  1  0
 16 48  1  0
 21 49  1  1
 22 50  1  0
 22 51  1  0
 23 52  1  6
 24 53  1  0
 25 54  1  0
 25 55  1  0
 31 56  1  0
 32 57  1  0
 33 58  1  0
 34 59  1  0
 35 60  1  0
M  END
>  <smiles>  (47) 
CN(CCNC(=O)c1ccc2cc(F)ccc2n1)C(=O)[C@H]1C[C@H](O)CN1S(=O)(=O)c1ccccc1

>  <score_type>  (47) 
oracle

>  <origin>  (47) 
autodockgpu

>  <m_score__min__energy>  (47) 
-9.1999999999999993

>  <m_primary>  (47) 
energy

>  <rmsd>  (47) 
2.6528076811031074

>  <m_score__min__rmsd>  (47) 
2.6528076811031074

>  <meeko>  (47) 
{"free_energy": -8.86, "intermolecular_energy": -11.54, "internal_energy": -2.36, "cluster_size": 10, "cluster_id": 2, "rank_in_cluster": 1}

>  <energy>  (47) 
-6.4

>  <cluster_rmsd>  (47) 
0.0

>  <cluster>  (47) 
13

$$$$

     RDKit          3D

 60 63  0  0  0  0  0  0  0  0999 V2000
  136.8480   68.9320  221.2360 C   0  0  0  0  0  0  0  0  0  0  0  0
  138.0990   69.0030  220.5050 N   0  0  0  0  0  0  0  0  0  0  0  0
  138.0730   68.9230  219.0570 C   0  0  0  0  0  0  0  0  0  0  0  0
  138.4450   70.1910  218.3560 C   0  0  0  0  0  0  0  0  0  0  0  0
  139.7570   70.6100  218.7640 N   0  0  0  0  0  0  0  0  0  0  0  0
  139.9310   72.0120  219.0350 C   0  0  0  0  0  0  0  0  0  0  0  0
  138.9040   72.7220  218.8800 O   0  0  0  0  0  0  0  0  0  0  0  0
  141.2130   72.5630  219.4570 C   0  0  0  0  0  0  0  0  0  0  0  0
  141.2170   73.8530  219.9400 C   0  0  0  0  0  0  0  0  0  0  0  0
  142.4020   74.4390  220.3610 C   0  0  0  0  0  0  0  0  0  0  0  0
  143.5380   73.6880  220.2740 C   0  0  0  0  0  0  0  0  0  0  0  0
  144.7260   74.2550  220.6870 C   0  0  0  0  0  0  0  0  0  0  0  0
  145.8720   73.5200  220.6080 C   0  0  0  0  0  0  0  0  0  0  0  0
  147.0700   74.0510  221.0100 F   0  0  0  0  0  0  0  0  0  0  0  0
  145.8670   72.2250  220.1230 C   0  0  0  0  0  0  0  0  0  0  0  0
  144.6870   71.6250  219.6980 C   0  0  0  0  0  0  0  0  0  0  0  0
  143.5450   72.3860  219.7880 C   0  0  0  0  0  0  0  0  0  0  0  0
  142.3600   71.8660  219.3930 N   0  0  0  0  0  0  0  0  0  0  0  0
  139.3680   69.1300  221.1370 C   0  0  0  0  0  0  0  0  0  0  0  0
  140.3970   68.6090  220.5540 O   0  0  0  0  0  0  0  0  0  0  0  0
  139.6350   69.8050  222.4010 C   0  0  1  0  0  0  0  0  0  0  0  0
  140.3360   71.1400  222.2370 C   0  0  0  0  0  0  0  0  0  0  0  0
  139.1580   72.1220  222.3070 C   0  0  2  0  0  0  0  0  0  0  0  0
  139.6230   73.3800  222.7030 O   0  0  0  0  0  0  0  0  0  0  0  0
  138.3380   71.4760  223.3960 C   0  0  0  0  0  0  0  0  0  0  0  0
  138.5420   70.0650  223.2660 N   0  0  0  0  0  0  0  0  0  0  0  0
  138.6300   69.2650  224.7810 S   0  0  0  0  0  0  0  0  0  0  0  0
  137.2280   69.1960  225.3440 O   0  0  0  0  0  0  0  0  0  0  0  0
  139.1420   67.8810  224.6920 O   0  0  0  0  0  0  0  0  0  0  0  0
  139.6000   70.1280  225.9540 C   0  0  0  0  0  0  0  0  0  0  0  0
  140.4140   71.1940  225.6160 C   0  0  0  0  0  0  0  0  0  0  0  0
  141.1790   71.8750  226.5400 C   0  0  0  0  0  0  0  0  0  0  0  0
  141.1370   71.4820  227.8610 C   0  0  0  0  0  0  0  0  0  0  0  0
  140.3270   70.4210  228.1930 C   0  0  0  0  0  0  0  0  0  0  0  0
  139.5620   69.7340  227.2930 C   0  0  0  0  0  0  0  0  0  0  0  0
  137.0536   68.9437  222.3166 H   0  0  0  0  0  0  0  0  0  0  0  0
  136.2200   69.7959  220.9729 H   0  0  0  0  0  0  0  0  0  0  0  0
  136.3218   68.0025  220.9729 H   0  0  0  0  0  0  0  0  0  0  0  0
  138.7778   68.1386  218.7441 H   0  0  0  0  0  0  0  0  0  0  0  0
  137.0321   68.7053  218.7757 H   0  0  0  0  0  0  0  0  0  0  0  0
  138.4379   70.0221  217.2691 H   0  0  0  0  0  0  0  0  0  0  0  0
  137.7181   70.9745  218.6160 H   0  0  0  0  0  0  0  0  0  0  0  0
  140.5910   70.0100  218.8860 H   0  0  0  0  0  0  0  0  0  0  0  0
  140.2765   74.4211  219.9922 H   0  0  0  0  0  0  0  0  0  0  0  0
  142.4249   75.4679  220.7494 H   0  0  0  0  0  0  0  0  0  0  0  0
  144.7485   75.2844  221.0741 H   0  0  0  0  0  0  0  0  0  0  0  0
  146.8103   71.6614  220.0727 H   0  0  0  0  0  0  0  0  0  0  0  0
  144.6678   70.5958  219.3102 H   0  0  0  0  0  0  0  0  0  0  0  0
  140.2657   69.0350  222.8694 H   0  0  0  0  0  0  0  0  0  0  0  0
  141.0549   71.3178  223.0504 H   0  0  0  0  0  0  0  0  0  0  0  0
  140.9305   71.2214  221.3151 H   0  0  0  0  0  0  0  0  0  0  0  0
  138.6125   72.2870  221.3661 H   0  0  0  0  0  0  0  0  0  0  0  0
  138.8580   73.8800  223.0950 H   0  0  0  0  0  0  0  0  0  0  0  0
  138.6770   71.8208  224.3840 H   0  0  0  0  0  0  0  0  0  0  0  0
  137.2734   71.7371  223.3044 H   0  0  0  0  0  0  0  0  0  0  0  0
  140.4530   71.5128  224.5639 H   0  0  0  0  0  0  0  0  0  0  0  0
  141.8126   72.7183  226.2279 H   0  0  0  0  0  0  0  0  0  0  0  0
  141.7330   72.0011  228.6260 H   0  0  0  0  0  0  0  0  0  0  0  0
  140.2930   70.1066  229.2466 H   0  0  0  0  0  0  0  0  0  0  0  0
  138.9321   68.8918  227.6153 H   0  0  0  0  0  0  0  0  0  0  0  0
  1  2  1  0
  2  3  1  0
  3  4  1  0
  4  5  1  0
  5  6  1  0
  6  7  2  0
  6  8  1  0
  8  9  2  0
  9 10  1  0
 10 11  2  0
 11 12  1  0
 12 13  2  0
 13 14  1  0
 13 15  1  0
 15 16  2  0
 16 17  1  0
 17 18  2  0
  2 19  1  0
 19 20  2  0
 19 21  1  0
 21 22  1  0
 22 23  1  0
 23 24  1  0
 23 25  1  0
 25 26  1  0
 26 27  1  0
 27 28  2  0
 27 29  2  0
 27 30  1  0
 30 31  2  0
 31 32  1  0
 32 33  2  0
 33 34  1  0
 34 35  2  0
 18  8  1  0
 26 21  1  0
 35 30  1  0
 17 11  1  0
  1 36  1  0
  1 37  1  0
  1 38  1  0
  3 39  1  0
  3 40  1  0
  4 41  1  0
  4 42  1  0
  5 43  1  0
  9 44  1  0
 10 45  1  0
 12 46  1  0
 15 47  1  0
 16 48  1  0
 21 49  1  1
 22 50  1  0
 22 51  1  0
 23 52  1  6
 24 53  1  0
 25 54  1  0
 25 55  1  0
 31 56  1  0
 32 57  1  0
 33 58  1  0
 34 59  1  0
 35 60  1  0
M  END
>  <smiles>  (48) 
CN(CCNC(=O)c1ccc2cc(F)ccc2n1)C(=O)[C@H]1C[C@H](O)CN1S(=O)(=O)c1ccccc1

>  <score_type>  (48) 
oracle

>  <origin>  (48) 
autodockgpu

>  <m_score__min__energy>  (48) 
-9.1999999999999993

>  <m_primary>  (48) 
energy

>  <rmsd>  (48) 
7.441548774693188

>  <m_score__min__rmsd>  (48) 
7.441548774693188

>  <meeko>  (48) 
{"free_energy": -7.41, "intermolecular_energy": -10.1, "internal_energy": -3.32, "cluster_size": 1, "cluster_id": 9, "rank_in_cluster": 1}

>  <energy>  (48) 
-6.24

>  <cluster_rmsd>  (48) 
0.0

>  <cluster>  (48) 
14

$$$$

     RDKit          3D

 60 63  0  0  0  0  0  0  0  0999 V2000
  140.2960   67.1080  219.9120 C   0  0  0  0  0  0  0  0  0  0  0  0
  139.5030   67.6860  220.9800 N   0  0  0  0  0  0  0  0  0  0  0  0
  138.7750   66.8040  221.8730 C   0  0  0  0  0  0  0  0  0  0  0  0
  137.2890   66.9620  221.8300 C   0  0  0  0  0  0  0  0  0  0  0  0
  136.8780   67.9910  222.7440 N   0  0  0  0  0  0  0  0  0  0  0  0
  135.6900   68.7260  222.3970 C   0  0  0  0  0  0  0  0  0  0  0  0
  135.1400   68.3820  221.3180 O   0  0  0  0  0  0  0  0  0  0  0  0
  135.1700   69.7940  223.2410 C   0  0  0  0  0  0  0  0  0  0  0  0
  135.0310   71.0400  222.6700 C   0  0  0  0  0  0  0  0  0  0  0  0
  134.5400   72.1010  223.4150 C   0  0  0  0  0  0  0  0  0  0  0  0
  134.2090   71.8530  224.7160 C   0  0  0  0  0  0  0  0  0  0  0  0
  133.7190   72.8970  225.4730 C   0  0  0  0  0  0  0  0  0  0  0  0
  133.3830   72.6690  226.7750 C   0  0  0  0  0  0  0  0  0  0  0  0
  132.8940   73.6820  227.5570 F   0  0  0  0  0  0  0  0  0  0  0  0
  133.5230   71.4180  227.3480 C   0  0  0  0  0  0  0  0  0  0  0  0
  134.0130   70.3450  226.6120 C   0  0  0  0  0  0  0  0  0  0  0  0
  134.3450   70.6010  225.3030 C   0  0  0  0  0  0  0  0  0  0  0  0
  134.8290   69.6030  224.5270 N   0  0  0  0  0  0  0  0  0  0  0  0
  139.3840   69.0880  221.1950 C   0  0  0  0  0  0  0  0  0  0  0  0
  139.0030   69.8280  220.2060 O   0  0  0  0  0  0  0  0  0  0  0  0
  139.6500   69.7920  222.4430 C   0  0  1  0  0  0  0  0  0  0  0  0
  140.3310   71.1330  222.2460 C   0  0  0  0  0  0  0  0  0  0  0  0
  139.1390   72.0990  222.3070 C   0  0  2  0  0  0  0  0  0  0  0  0
  139.5890   73.3720  222.6740 O   0  0  0  0  0  0  0  0  0  0  0  0
  138.3370   71.4640  223.4140 C   0  0  0  0  0  0  0  0  0  0  0  0
  138.5600   70.0540  223.3120 N   0  0  0  0  0  0  0  0  0  0  0  0
  138.6720   69.2860  224.8410 S   0  0  0  0  0  0  0  0  0  0  0  0
  137.2770   69.2220  225.4240 O   0  0  0  0  0  0  0  0  0  0  0  0
  139.1890   67.9030  224.7750 O   0  0  0  0  0  0  0  0  0  0  0  0
  139.6530   70.1780  225.9840 C   0  0  0  0  0  0  0  0  0  0  0  0
  139.5890   69.9690  227.3500 C   0  0  0  0  0  0  0  0  0  0  0  0
  140.3620   70.6700  228.2520 C   0  0  0  0  0  0  0  0  0  0  0  0
  141.2400   71.6230  227.7790 C   0  0  0  0  0  0  0  0  0  0  0  0
  141.3000   71.8280  226.4190 C   0  0  0  0  0  0  0  0  0  0  0  0
  140.5420   71.1430  225.5110 C   0  0  0  0  0  0  0  0  0  0  0  0
  141.1136   66.5121  220.3437 H   0  0  0  0  0  0  0  0  0  0  0  0
  139.6589   66.4610  219.2912 H   0  0  0  0  0  0  0  0  0  0  0  0
  140.7169   67.9126  219.2912 H   0  0  0  0  0  0  0  0  0  0  0  0
  139.0175   65.7657  221.6024 H   0  0  0  0  0  0  0  0  0  0  0  0
  139.0868   67.0683  222.8942 H   0  0  0  0  0  0  0  0  0  0  0  0
  136.9811   67.2363  220.8102 H   0  0  0  0  0  0  0  0  0  0  0  0
  136.8162   66.0119  222.1194 H   0  0  0  0  0  0  0  0  0  0  0  0
  137.3440   68.2600  223.6270 H   0  0  0  0  0  0  0  0  0  0  0  0
  135.3111   71.1938  221.6174 H   0  0  0  0  0  0  0  0  0  0  0  0
  134.4218   73.1024  222.9755 H   0  0  0  0  0  0  0  0  0  0  0  0
  133.6011   73.8983  225.0331 H   0  0  0  0  0  0  0  0  0  0  0  0
  133.2426   71.2698  228.4013 H   0  0  0  0  0  0  0  0  0  0  0  0
  134.1288   69.3443  227.0538 H   0  0  0  0  0  0  0  0  0  0  0  0
  140.2943   69.0403  222.9224 H   0  0  0  0  0  0  0  0  0  0  0  0
  141.0543   71.3373  223.0492 H   0  0  0  0  0  0  0  0  0  0  0  0
  140.9167   71.2044  221.3177 H   0  0  0  0  0  0  0  0  0  0  0  0
  138.5836   72.2370  221.3676 H   0  0  0  0  0  0  0  0  0  0  0  0
  139.6220   73.4110  223.6670 H   0  0  0  0  0  0  0  0  0  0  0  0
  138.6780   71.8340  224.3922 H   0  0  0  0  0  0  0  0  0  0  0  0
  137.2681   71.7078  223.3245 H   0  0  0  0  0  0  0  0  0  0  0  0
  138.8909   69.2104  227.7337 H   0  0  0  0  0  0  0  0  0  0  0  0
  140.2797   70.4723  229.3310 H   0  0  0  0  0  0  0  0  0  0  0  0
  141.8731   72.2017  228.4677 H   0  0  0  0  0  0  0  0  0  0  0  0
  141.9994   72.5881  226.0407 H   0  0  0  0  0  0  0  0  0  0  0  0
  140.6309   71.3477  224.4339 H   0  0  0  0  0  0  0  0  0  0  0  0
  1  2  1  0
  2  3  1  0
  3  4  1  0
  4  5  1  0
  5  6  1  0
  6  7  2  0
  6  8  1  0
  8  9  2  0
  9 10  1  0
 10 11  2  0
 11 12  1  0
 12 13  2  0
 13 14  1  0
 13 15  1  0
 15 16  2  0
 16 17  1  0
 17 18  2  0
  2 19  1  0
 19 20  2  0
 19 21  1  0
 21 22  1  0
 22 23  1  0
 23 24  1  0
 23 25  1  0
 25 26  1  0
 26 27  1  0
 27 28  2  0
 27 29  2  0
 27 30  1  0
 30 31  2  0
 31 32  1  0
 32 33  2  0
 33 34  1  0
 34 35  2  0
 18  8  1  0
 26 21  1  0
 35 30  1  0
 17 11  1  0
  1 36  1  0
  1 37  1  0
  1 38  1  0
  3 39  1  0
  3 40  1  0
  4 41  1  0
  4 42  1  0
  5 43  1  0
  9 44  1  0
 10 45  1  0
 12 46  1  0
 15 47  1  0
 16 48  1  0
 21 49  1  1
 22 50  1  0
 22 51  1  0
 23 52  1  6
 24 53  1  0
 25 54  1  0
 25 55  1  0
 31 56  1  0
 32 57  1  0
 33 58  1  0
 34 59  1  0
 35 60  1  0
M  END
>  <smiles>  (49) 
CN(CCNC(=O)c1ccc2cc(F)ccc2n1)C(=O)[C@H]1C[C@H](O)CN1S(=O)(=O)c1ccccc1

>  <score_type>  (49) 
oracle

>  <origin>  (49) 
autodockgpu

>  <m_score__min__energy>  (49) 
-9.1999999999999993

>  <m_primary>  (49) 
energy

>  <rmsd>  (49) 
7.144758986790235

>  <m_score__min__rmsd>  (49) 
7.144758986790235

>  <meeko>  (49) 
{"free_energy": -6.94, "intermolecular_energy": -9.62, "internal_energy": -4.76, "cluster_size": 6, "cluster_id": 5, "rank_in_cluster": 6}

>  <energy>  (49) 
-6.1

>  <cluster_rmsd>  (49) 
0.0

>  <cluster>  (49) 
15

$$$$

     RDKit          3D

 60 63  0  0  0  0  0  0  0  0999 V2000
  141.0260   73.1110  217.5310 C   0  0  0  0  0  0  0  0  0  0  0  0
  140.6700   72.6440  218.8580 N   0  0  0  0  0  0  0  0  0  0  0  0
  139.4140   71.9440  219.0440 C   0  0  0  0  0  0  0  0  0  0  0  0
  138.7060   72.2640  220.3230 C   0  0  0  0  0  0  0  0  0  0  0  0
  139.4000   71.6690  221.4300 N   0  0  0  0  0  0  0  0  0  0  0  0
  138.7270   71.6940  222.7020 C   0  0  0  0  0  0  0  0  0  0  0  0
  137.5940   72.2420  222.7010 O   0  0  0  0  0  0  0  0  0  0  0  0
  139.3250   71.1220  223.9020 C   0  0  0  0  0  0  0  0  0  0  0  0
  140.3260   71.8450  224.5140 C   0  0  0  0  0  0  0  0  0  0  0  0
  140.9380   71.3600  225.6600 C   0  0  0  0  0  0  0  0  0  0  0  0
  140.5070   70.1580  226.1410 C   0  0  0  0  0  0  0  0  0  0  0  0
  141.1040   69.6600  227.2800 C   0  0  0  0  0  0  0  0  0  0  0  0
  140.6870   68.4600  227.7750 C   0  0  0  0  0  0  0  0  0  0  0  0
  141.2580   67.9350  228.9050 F   0  0  0  0  0  0  0  0  0  0  0  0
  139.6820   67.7350  227.1600 C   0  0  0  0  0  0  0  0  0  0  0  0
  139.0600   68.2090  226.0100 C   0  0  0  0  0  0  0  0  0  0  0  0
  139.4980   69.4210  225.5310 C   0  0  0  0  0  0  0  0  0  0  0  0
  138.9380   69.9430  224.4160 N   0  0  0  0  0  0  0  0  0  0  0  0
  141.4880   72.8510  220.0050 C   0  0  0  0  0  0  0  0  0  0  0  0
  142.1740   71.8530  220.4560 O   0  0  0  0  0  0  0  0  0  0  0  0
  141.6370   74.1010  220.7400 C   0  0  1  0  0  0  0  0  0  0  0  0
  143.0580   74.6310  220.7460 C   0  0  0  0  0  0  0  0  0  0  0  0
  143.0130   75.6580  219.6060 C   0  0  2  0  0  0  0  0  0  0  0  0
  144.0230   76.6070  219.7920 O   0  0  0  0  0  0  0  0  0  0  0  0
  141.6500   76.2590  219.8420 C   0  0  0  0  0  0  0  0  0  0  0  0
  140.8320   75.2040  220.3580 N   0  0  0  0  0  0  0  0  0  0  0  0
  139.7430   75.7400  221.5690 S   0  0  0  0  0  0  0  0  0  0  0  0
  138.3940   75.9420  220.9160 O   0  0  0  0  0  0  0  0  0  0  0  0
  139.5610   74.7750  222.6740 O   0  0  0  0  0  0  0  0  0  0  0  0
  140.1990   77.2800  222.2660 C   0  0  0  0  0  0  0  0  0  0  0  0
  139.4280   78.4210  222.1320 C   0  0  0  0  0  0  0  0  0  0  0  0
  139.7860   79.6350  222.6810 C   0  0  0  0  0  0  0  0  0  0  0  0
  140.9620   79.7240  223.3950 C   0  0  0  0  0  0  0  0  0  0  0  0
  141.7270   78.5870  223.5240 C   0  0  0  0  0  0  0  0  0  0  0  0
  141.3880   77.3760  222.9880 C   0  0  0  0  0  0  0  0  0  0  0  0
  141.6909   73.9832  217.6154 H   0  0  0  0  0  0  0  0  0  0  0  0
  141.5427   72.3074  216.9859 H   0  0  0  0  0  0  0  0  0  0  0  0
  140.1142   73.3964  216.9859 H   0  0  0  0  0  0  0  0  0  0  0  0
  138.7482   72.2059  218.2085 H   0  0  0  0  0  0  0  0  0  0  0  0
  139.6572   70.8719  219.0821 H   0  0  0  0  0  0  0  0  0  0  0  0
  138.6727   73.3552  220.4579 H   0  0  0  0  0  0  0  0  0  0  0  0
  137.6829   71.8622  220.2799 H   0  0  0  0  0  0  0  0  0  0  0  0
  140.3330   71.2220  221.4110 H   0  0  0  0  0  0  0  0  0  0  0  0
  140.6408   72.8107  224.0918 H   0  0  0  0  0  0  0  0  0  0  0  0
  141.7395   71.9222  226.1616 H   0  0  0  0  0  0  0  0  0  0  0  0
  141.9050   70.2227  227.7818 H   0  0  0  0  0  0  0  0  0  0  0  0
  139.3705   66.7701  227.5866 H   0  0  0  0  0  0  0  0  0  0  0  0
  138.2596   67.6439  225.5099 H   0  0  0  0  0  0  0  0  0  0  0  0
  141.2947   73.7551  221.7265 H   0  0  0  0  0  0  0  0  0  0  0  0
  143.3037   75.1084  221.7061 H   0  0  0  0  0  0  0  0  0  0  0  0
  143.8248   73.8532  220.6158 H   0  0  0  0  0  0  0  0  0  0  0  0
  143.1624   75.2573  218.5925 H   0  0  0  0  0  0  0  0  0  0  0  0
  143.6130   77.4160  220.1980 H   0  0  0  0  0  0  0  0  0  0  0  0
  141.7165   77.0808  220.5702 H   0  0  0  0  0  0  0  0  0  0  0  0
  141.2295   76.6751  218.9146 H   0  0  0  0  0  0  0  0  0  0  0  0
  138.4887   78.3574  221.5630 H   0  0  0  0  0  0  0  0  0  0  0  0
  139.1432   80.5181  222.5511 H   0  0  0  0  0  0  0  0  0  0  0  0
  141.2794   80.6749  223.8479 H   0  0  0  0  0  0  0  0  0  0  0  0
  142.6665   78.6569  224.0919 H   0  0  0  0  0  0  0  0  0  0  0  0
  142.0375   76.4985  223.1230 H   0  0  0  0  0  0  0  0  0  0  0  0
  1  2  1  0
  2  3  1  0
  3  4  1  0
  4  5  1  0
  5  6  1  0
  6  7  2  0
  6  8  1  0
  8  9  2  0
  9 10  1  0
 10 11  2  0
 11 12  1  0
 12 13  2  0
 13 14  1  0
 13 15  1  0
 15 16  2  0
 16 17  1  0
 17 18  2  0
  2 19  1  0
 19 20  2  0
 19 21  1  0
 21 22  1  0
 22 23  1  0
 23 24  1  0
 23 25  1  0
 25 26  1  0
 26 27  1  0
 27 28  2  0
 27 29  2  0
 27 30  1  0
 30 31  2  0
 31 32  1  0
 32 33  2  0
 33 34  1  0
 34 35  2  0
 18  8  1  0
 26 21  1  0
 35 30  1  0
 17 11  1  0
  1 36  1  0
  1 37  1  0
  1 38  1  0
  3 39  1  0
  3 40  1  0
  4 41  1  0
  4 42  1  0
  5 43  1  0
  9 44  1  0
 10 45  1  0
 12 46  1  0
 15 47  1  0
 16 48  1  0
 21 49  1  1
 22 50  1  0
 22 51  1  0
 23 52  1  6
 24 53  1  0
 25 54  1  0
 25 55  1  0
 31 56  1  0
 32 57  1  0
 33 58  1  0
 34 59  1  0
 35 60  1  0
M  END
>  <smiles>  (50) 
CN(CCNC(=O)c1ccc2cc(F)ccc2n1)C(=O)[C@H]1C[C@H](O)CN1S(=O)(=O)c1ccccc1

>  <score_type>  (50) 
oracle

>  <origin>  (50) 
autodockgpu

>  <m_score__min__energy>  (50) 
-9.1999999999999993

>  <m_primary>  (50) 
energy

>  <rmsd>  (50) 
3.476449269100359

>  <m_score__min__rmsd>  (50) 
3.476449269100359

>  <meeko>  (50) 
{"free_energy": -7.5, "intermolecular_energy": -10.19, "internal_energy": -3.0, "cluster_size": 14, "cluster_id": 1, "rank_in_cluster": 14}

>  <energy>  (50) 
-5.84

>  <cluster_rmsd>  (50) 
0.0

>  <cluster>  (50) 
16

$$$$
