@<TRIPOS>MOLECULE
*****
 61 65 0 0 0
SMALL
GASTEIGER

@<TRIPOS>ATOM
      1 N         140.7820   78.1500  218.8710 N.1     1  UNL1       -0.1909
      2 C         141.0670   78.4450  219.9520 C.1     1  UNL1        0.0998
      3 C         141.4180   78.8310  221.2750 C.ar    1  UNL1        0.0595
      4 C         142.1700   79.9940  221.4100 C.ar    1  UNL1       -0.0438
      5 C         142.5560   80.4370  222.6570 C.ar    1  UNL1       -0.0605
      6 C         142.1780   79.7010  223.7700 C.ar    1  UNL1       -0.0611
      7 C         141.4220   78.5320  223.6400 C.ar    1  UNL1       -0.0528
      8 C         141.0370   78.0920  222.3750 C.ar    1  UNL1       -0.0005
      9 C         140.2360   76.8600  222.2230 C.ar    1  UNL1       -0.0161
     10 C         138.8690   76.9690  222.1990 C.ar    1  UNL1       -0.0540
     11 C         138.1410   75.8100  222.0550 C.ar    1  UNL1       -0.0606
     12 C         138.7890   74.6020  221.9430 C.ar    1  UNL1       -0.0546
     13 C         140.1740   74.4790  221.9660 C.ar    1  UNL1       -0.0243
     14 C         140.7930   73.1400  221.8380 C.2     1  UNL1       -0.0511
     15 C         140.2250   72.0370  222.1760 C.2     1  UNL1       -0.0185
     16 C         140.0150   71.3830  223.4290 C.ar    1  UNL1        0.1369
     17 N         140.7010   71.9140  224.4870 N.ar    1  UNL1       -0.2294
     18 C         140.6780   71.4640  225.7280 C.ar    1  UNL1        0.0785
     19 C         141.4250   72.1150  226.6800 C.ar    1  UNL1       -0.0355
     20 C         141.3570   71.5910  227.9680 C.ar    1  UNL1       -0.0597
     21 C         140.5890   70.4870  228.2780 C.ar    1  UNL1       -0.0609
     22 C         139.8580   69.8670  227.2930 C.ar    1  UNL1       -0.0474
     23 C         139.9130   70.3720  226.0170 C.ar    1  UNL1        0.0649
     24 C         139.2110   69.8110  224.9790 C.ar    1  UNL1        0.2620
     25 O         138.5130   68.8000  225.2580 O.2     1  UNL1       -0.2669
     26 N         139.2680   70.3180  223.7030 N.ar    1  UNL1       -0.2925
     27 C         138.4690   69.6080  222.7430 C.3     1  UNL1        0.0309
     28 C         137.0290   69.9900  222.6760 C.3     1  UNL1       -0.0229
     29 C         136.6600   71.3090  223.2630 C.3     1  UNL1       -0.0486
     30 C         135.2150   71.6090  222.8310 C.3     1  UNL1       -0.0528
     31 C         134.2920   70.5650  223.3500 C.3     1  UNL1       -0.0530
     32 C         134.7570   69.1600  223.0190 C.3     1  UNL1       -0.0528
     33 C         136.1790   68.9310  223.4090 C.3     1  UNL1       -0.0486
     34 C         140.8930   75.6310  222.1080 C.ar    1  UNL1       -0.0468
     35 H         142.4587   80.5643  220.5148 H       1  UNL1        0.0631
     36 H         143.1515   81.3553  222.7670 H       1  UNL1        0.0618
     37 H         142.4779   80.0426  224.7717 H       1  UNL1        0.0618
     38 H         141.1318   77.9609  224.5342 H       1  UNL1        0.0624
     39 H         138.3730   77.9465  222.2914 H       1  UNL1        0.0624
     40 H         137.0420   75.8497  222.0295 H       1  UNL1        0.0618
     41 H         138.1835   73.6907  221.8299 H       1  UNL1        0.0623
     42 H         141.8108   73.0849  221.4245 H       1  UNL1        0.0625
     43 H         139.8146   71.4799  221.3209 H       1  UNL1        0.0654
     44 H         142.0387   72.9956  226.4393 H       1  UNL1        0.0639
     45 H         141.9367   72.0747  228.7680 H       1  UNL1        0.0618
     46 H         140.5621   70.1049  229.3091 H       1  UNL1        0.0618
     47 H         139.2419   68.9849  227.5218 H       1  UNL1        0.0626
     48 H         138.9082   69.7780  221.7489 H       1  UNL1        0.0496
     49 H         138.4808   68.5574  223.0686 H       1  UNL1        0.0496
     50 H         136.8315   70.0577  221.5960 H       1  UNL1        0.0318
     51 H         136.7241   71.2647  224.3602 H       1  UNL1        0.0268
     52 H         137.3439   72.0971  222.9149 H       1  UNL1        0.0268
     53 H         134.9138   72.5894  223.2287 H       1  UNL1        0.0265
     54 H         135.1649   71.6156  221.7322 H       1  UNL1        0.0265
     55 H         134.2250   70.6657  224.4433 H       1  UNL1        0.0265
     56 H         133.3144   70.7149  222.8686 H       1  UNL1        0.0265
     57 H         134.1218   68.4406  223.5567 H       1  UNL1        0.0265
     58 H         134.6795   69.0261  221.9299 H       1  UNL1        0.0265
     59 H         136.2941   69.0426  224.4973 H       1  UNL1        0.0268
     60 H         136.5002   67.9150  223.1359 H       1  UNL1        0.0268
     61 H         141.9921   75.5922  222.1320 H       1  UNL1        0.0629
@<TRIPOS>BOND
     1     1     2    3
     2     2     3    1
     3     3     4   ar
     4     4     5   ar
     5     5     6   ar
     6     6     7   ar
     7     7     8   ar
     8     8     9    1
     9     9    10   ar
    10    10    11   ar
    11    11    12   ar
    12    12    13   ar
    13    13    14    1
    14    14    15    2
    15    15    16    1
    16    16    17   ar
    17    17    18   ar
    18    18    19   ar
    19    19    20   ar
    20    20    21   ar
    21    21    22   ar
    22    22    23   ar
    23    23    24   ar
    24    24    25    2
    25    24    26   ar
    26    26    27    1
    27    27    28    1
    28    28    29    1
    29    29    30    1
    30    30    31    1
    31    31    32    1
    32    32    33    1
    33    13    34   ar
    34     8     3   ar
    35    34     9   ar
    36    26    16   ar
    37    33    28    1
    38    23    18   ar
    39     4    35    1
    40     5    36    1
    41     6    37    1
    42     7    38    1
    43    10    39    1
    44    11    40    1
    45    12    41    1
    46    14    42    1
    47    15    43    1
    48    19    44    1
    49    20    45    1
    50    21    46    1
    51    22    47    1
    52    27    48    1
    53    27    49    1
    54    28    50    1
    55    29    51    1
    56    29    52    1
    57    30    53    1
    58    30    54    1
    59    31    55    1
    60    31    56    1
    61    32    57    1
    62    32    58    1
    63    33    59    1
    64    33    60    1
    65    34    61    1
