
 76 82  0  0  0  0  0  0  0  0999 V2000
  136.7270   69.8390  224.5900 O   0  0  0  0  0  0  0  0  0  0  0  0
  137.9240   69.7950  224.2330 C   0  0  0  0  0  0  0  0  0  0  0  0
  138.7420   68.6320  224.6580 C   0  0  0  0  0  0  0  0  0  0  0  0
  139.5330   68.8980  225.8640 C   0  0  0  0  0  0  0  0  0  0  0  0
  139.9600   67.8490  226.6750 C   0  0  0  0  0  0  0  0  0  0  0  0
  140.6990   68.1520  227.7930 C   0  0  0  0  0  0  0  0  0  0  0  0
  141.0330   69.4520  228.1440 C   0  0  0  0  0  0  0  0  0  0  0  0
  140.6040   70.4410  227.3380 N   0  0  0  0  0  0  0  0  0  0  0  0
  139.8830   70.1790  226.2420 C   0  0  0  0  0  0  0  0  0  0  0  0
  138.5580   70.7900  223.4430 N   0  0  0  0  0  0  0  0  0  0  0  0
  139.9490   70.7210  223.0390 C   0  0  0  0  0  0  0  0  0  0  0  0
  140.5680   72.1030  223.1900 C   0  0  0  0  0  0  0  0  0  0  0  0
  139.8390   73.0020  222.3240 N   0  0  0  0  0  0  0  0  0  0  0  0
  140.3950   74.2410  221.9130 C   0  0  0  0  0  0  0  0  0  0  0  0
  141.4120   74.3320  220.9680 C   0  0  0  0  0  0  0  0  0  0  0  0
  141.9490   75.5340  220.5710 C   0  0  0  0  0  0  0  0  0  0  0  0
  142.9880   75.6600  219.6120 N   0  0  0  0  0  0  0  0  0  0  0  0
  143.0480   76.6430  218.5780 C   0  0  0  0  0  0  0  0  0  0  0  0
  143.2440   76.0220  217.1950 C   0  0  0  0  0  0  0  0  0  0  0  0
  144.0310   74.7780  217.2380 C   0  0  0  0  0  0  0  0  0  0  0  0
  144.3750   74.2080  216.0200 C   0  0  0  0  0  0  0  0  0  0  0  0
  145.1120   73.0430  215.9860 C   0  0  0  0  0  0  0  0  0  0  0  0
  145.5230   72.4170  217.1340 C   0  0  0  0  0  0  0  0  0  0  0  0
  145.1910   72.9670  218.3530 C   0  0  0  0  0  0  0  0  0  0  0  0
  144.4480   74.1430  218.3670 C   0  0  0  0  0  0  0  0  0  0  0  0
  144.1090   74.7080  219.6780 C   0  0  0  0  0  0  0  0  0  0  0  0
  141.4340   76.6410  221.1510 N   0  0  0  0  0  0  0  0  0  0  0  0
  140.4510   76.6060  222.0690 C   0  0  0  0  0  0  0  0  0  0  0  0
  139.9470   77.8020  222.6460 N   0  0  0  0  0  0  0  0  0  0  0  0
  138.5950   78.2440  222.4540 C   0  0  0  0  0  0  0  0  0  0  0  0
  138.3470   79.6370  222.9410 C   0  0  0  0  0  0  0  0  0  0  0  0
  139.5120   80.4780  222.5510 C   0  0  0  0  0  0  0  0  0  0  0  0
  139.3840   81.7080  221.9520 C   0  0  0  0  0  0  0  0  0  0  0  0
  140.5460   82.4050  221.6320 C   0  0  0  0  0  0  0  0  0  0  0  0
  141.7950   81.9070  221.8940 C   0  0  0  0  0  0  0  0  0  0  0  0
  141.9340   80.6720  222.4960 C   0  0  0  0  0  0  0  0  0  0  0  0
  140.7820   79.9850  222.8110 C   0  0  0  0  0  0  0  0  0  0  0  0
  140.8180   78.6290  223.4670 C   0  0  0  0  0  0  0  0  0  0  0  0
  139.9590   75.4060  222.4250 N   0  0  0  0  0  0  0  0  0  0  0  0
  138.5150   72.6540  221.8550 C   0  0  0  0  0  0  0  0  0  0  0  0
  137.7810   71.9510  223.0030 C   0  0  0  0  0  0  0  0  0  0  0  0
  138.0694   67.7853  224.8596 H   0  0  0  0  0  0  0  0  0  0  0  0
  139.4477   68.4109  223.8437 H   0  0  0  0  0  0  0  0  0  0  0  0
  139.7123   66.8063  226.4271 H   0  0  0  0  0  0  0  0  0  0  0  0
  141.0405   67.3285  228.4374 H   0  0  0  0  0  0  0  0  0  0  0  0
  141.6253   69.6662  229.0458 H   0  0  0  0  0  0  0  0  0  0  0  0
  139.5547   71.0208  225.6147 H   0  0  0  0  0  0  0  0  0  0  0  0
  140.4850   70.0032  223.6773 H   0  0  0  0  0  0  0  0  0  0  0  0
  140.0202   70.3898  221.9925 H   0  0  0  0  0  0  0  0  0  0  0  0
  140.4867   72.4390  224.2343 H   0  0  0  0  0  0  0  0  0  0  0  0
  141.6337   72.0822  222.9184 H   0  0  0  0  0  0  0  0  0  0  0  0
  141.8019   73.4058  220.5207 H   0  0  0  0  0  0  0  0  0  0  0  0
  142.1081   77.2145  218.5788 H   0  0  0  0  0  0  0  0  0  0  0  0
  143.9135   77.2909  218.7807 H   0  0  0  0  0  0  0  0  0  0  0  0
  142.2560   75.7989  216.7660 H   0  0  0  0  0  0  0  0  0  0  0  0
  143.7995   76.7461  216.5809 H   0  0  0  0  0  0  0  0  0  0  0  0
  144.0594   74.6861  215.0810 H   0  0  0  0  0  0  0  0  0  0  0  0
  145.3769   72.6048  215.0125 H   0  0  0  0  0  0  0  0  0  0  0  0
  146.1099   71.4881  217.0829 H   0  0  0  0  0  0  0  0  0  0  0  0
  145.5057   72.4880  219.2919 H   0  0  0  0  0  0  0  0  0  0  0  0
  143.8336   73.8861  220.3552 H   0  0  0  0  0  0  0  0  0  0  0  0
  144.9903   75.2562  220.0423 H   0  0  0  0  0  0  0  0  0  0  0  0
  138.3654   78.2051  221.3789 H   0  0  0  0  0  0  0  0  0  0  0  0
  137.9497   77.5758  223.0432 H   0  0  0  0  0  0  0  0  0  0  0  0
  137.4299   80.0347  222.4819 H   0  0  0  0  0  0  0  0  0  0  0  0
  138.2225   79.6419  224.0339 H   0  0  0  0  0  0  0  0  0  0  0  0
  138.3922   82.1298  221.7317 H   0  0  0  0  0  0  0  0  0  0  0  0
  140.4580   83.3907  221.1517 H   0  0  0  0  0  0  0  0  0  0  0  0
  142.6874   82.4910  221.6248 H   0  0  0  0  0  0  0  0  0  0  0  0
  142.9269   80.2526  222.7157 H   0  0  0  0  0  0  0  0  0  0  0  0
  141.8421   78.2276  223.4733 H   0  0  0  0  0  0  0  0  0  0  0  0
  140.4921   78.6643  224.5170 H   0  0  0  0  0  0  0  0  0  0  0  0
  137.9699   73.5640  221.5640 H   0  0  0  0  0  0  0  0  0  0  0  0
  138.5794   71.9930  220.9781 H   0  0  0  0  0  0  0  0  0  0  0  0
  137.6598   72.6505  223.8432 H   0  0  0  0  0  0  0  0  0  0  0  0
  136.7915   71.6189  222.6558 H   0  0  0  0  0  0  0  0  0  0  0  0
  1  2  2  0
  2  3  1  0
  3  4  1  0
  4  5  2  0
  5  6  1  0
  6  7  2  0
  7  8  1  0
  8  9  2  0
  2 10  1  0
 10 11  1  0
 11 12  1  0
 12 13  1  0
 13 14  1  0
 14 15  2  0
 15 16  1  0
 16 17  1  0
 17 18  1  0
 18 19  1  0
 19 20  1  0
 20 21  2  0
 21 22  1  0
 22 23  2  0
 23 24  1  0
 24 25  2  0
 25 26  1  0
 16 27  2  0
 27 28  1  0
 28 29  1  0
 29 30  1  0
 30 31  1  0
 31 32  1  0
 32 33  2  0
 33 34  1  0
 34 35  2  0
 35 36  1  0
 36 37  2  0
 37 38  1  0
 28 39  2  0
 13 40  1  0
 40 41  1  0
  9  4  1  0
 41 10  1  0
 39 14  1  0
 26 17  1  0
 38 29  1  0
 25 20  1  0
 37 32  1  0
  3 42  1  0
  3 43  1  0
  5 44  1  0
  6 45  1  0
  7 46  1  0
  9 47  1  0
 11 48  1  0
 11 49  1  0
 12 50  1  0
 12 51  1  0
 15 52  1  0
 18 53  1  0
 18 54  1  0
 19 55  1  0
 19 56  1  0
 21 57  1  0
 22 58  1  0
 23 59  1  0
 24 60  1  0
 26 61  1  0
 26 62  1  0
 30 63  1  0
 30 64  1  0
 31 65  1  0
 31 66  1  0
 33 67  1  0
 34 68  1  0
 35 69  1  0
 36 70  1  0
 38 71  1  0
 38 72  1  0
 40 73  1  0
 40 74  1  0
 41 75  1  0
 41 76  1  0
M  END
