
     RDKit          3D

 54 58  0  0  0  0  0  0  0  0999 V2000
  141.2330   71.8590  222.0320 O   0  0  0  0  0  0  0  0  0  0  0  0
  140.2050   71.8160  222.7760 C   0  0  0  0  0  0  0  0  0  0  0  0
  139.1770   72.7680  222.4670 N   0  0  0  0  0  0  0  0  0  0  0  0
  139.2540   73.7190  221.4090 C   0  0  0  0  0  0  0  0  0  0  0  0
  140.3360   74.6510  221.3080 C   0  0  0  0  0  0  0  0  0  0  0  0
  140.3590   75.5540  222.2770 O   0  0  0  0  0  0  0  0  0  0  0  0
  141.3950   74.8390  220.4060 N   0  0  0  0  0  0  0  0  0  0  0  0
  141.2020   74.4210  218.9790 C   0  0  0  0  0  0  0  0  0  0  0  0
  142.1140   75.2800  218.1750 C   0  0  0  0  0  0  0  0  0  0  0  0
  142.8190   76.1820  219.1660 C   0  0  0  0  0  0  0  0  0  0  0  0
  142.7270   75.3120  220.4380 C   0  0  2  0  0  0  0  0  0  0  0  0
  143.7250   74.1870  220.2330 C   0  0  0  0  0  0  0  0  0  0  0  0
  143.4860   72.8940  220.0270 N   0  0  0  0  0  0  0  0  0  0  0  0
  144.6500   72.2130  219.8900 C   0  0  0  0  0  0  0  0  0  0  0  0
  144.8490   70.7870  219.6540 C   0  0  0  0  0  0  0  0  0  0  0  0
  146.0650   70.3230  219.1960 C   0  0  0  0  0  0  0  0  0  0  0  0
  146.2930   68.9850  218.9620 C   0  0  0  0  0  0  0  0  0  0  0  0
  145.2600   68.1040  219.1970 C   0  0  0  0  0  0  0  0  0  0  0  0
  144.0550   68.5760  219.6510 C   0  0  0  0  0  0  0  0  0  0  0  0
  143.8070   69.9150  219.8940 C   0  0  0  0  0  0  0  0  0  0  0  0
  145.6310   73.1770  220.0260 C   0  0  0  0  0  0  0  0  0  0  0  0
  145.0300   74.3260  220.2260 O   0  0  0  0  0  0  0  0  0  0  0  0
  140.0790   70.8740  223.8560 C   0  0  0  0  0  0  0  0  0  0  0  0
  139.3930   69.7010  223.6310 C   0  0  0  0  0  0  0  0  0  0  0  0
  139.2370   68.7480  224.6340 C   0  0  0  0  0  0  0  0  0  0  0  0
  139.8060   69.0410  225.8700 C   0  0  0  0  0  0  0  0  0  0  0  0
  139.7130   68.1690  226.9390 C   0  0  0  0  0  0  0  0  0  0  0  0
  140.2960   68.5010  228.1530 C   0  0  0  0  0  0  0  0  0  0  0  0
  140.9780   69.6890  228.3430 C   0  0  0  0  0  0  0  0  0  0  0  0
  141.0690   70.5580  227.2750 C   0  0  0  0  0  0  0  0  0  0  0  0
  140.4860   70.2250  226.0580 C   0  0  0  0  0  0  0  0  0  0  0  0
  140.6310   71.1450  225.0710 N   0  0  0  0  0  0  0  0  0  0  0  0
  138.3340   72.7020  223.1070 H   0  0  0  0  0  0  0  0  0  0  0  0
  139.2568   73.1403  220.4735 H   0  0  0  0  0  0  0  0  0  0  0  0
  138.3996   74.3772  221.6254 H   0  0  0  0  0  0  0  0  0  0  0  0
  141.4647   73.3604  218.8522 H   0  0  0  0  0  0  0  0  0  0  0  0
  140.1549   74.5368  218.6625 H   0  0  0  0  0  0  0  0  0  0  0  0
  142.8450   74.6606  217.6347 H   0  0  0  0  0  0  0  0  0  0  0  0
  141.5608   75.8620  217.4231 H   0  0  0  0  0  0  0  0  0  0  0  0
  143.8631   76.3698  218.8752 H   0  0  0  0  0  0  0  0  0  0  0  0
  142.3871   77.1890  219.2627 H   0  0  0  0  0  0  0  0  0  0  0  0
  142.9460   75.8107  221.3937 H   0  0  0  0  0  0  0  0  0  0  0  0
  146.8762   71.0429  219.0123 H   0  0  0  0  0  0  0  0  0  0  0  0
  147.2691   68.6309  218.5989 H   0  0  0  0  0  0  0  0  0  0  0  0
  145.4011   67.0273  219.0213 H   0  0  0  0  0  0  0  0  0  0  0  0
  143.2452   67.8536  219.8309 H   0  0  0  0  0  0  0  0  0  0  0  0
  142.8306   70.2661  220.2593 H   0  0  0  0  0  0  0  0  0  0  0  0
  146.7173   73.0112  219.9757 H   0  0  0  0  0  0  0  0  0  0  0  0
  138.9592   69.5131  222.6378 H   0  0  0  0  0  0  0  0  0  0  0  0
  138.6908   67.8095  224.4582 H   0  0  0  0  0  0  0  0  0  0  0  0
  139.1780   67.2144  226.8270 H   0  0  0  0  0  0  0  0  0  0  0  0
  140.2131   67.7956  228.9929 H   0  0  0  0  0  0  0  0  0  0  0  0
  141.4332   69.9333  229.3141 H   0  0  0  0  0  0  0  0  0  0  0  0
  141.6025   71.5135  227.3867 H   0  0  0  0  0  0  0  0  0  0  0  0
  1  2  2  0
  2  3  1  0
  3  4  1  0
  4  5  1  0
  5  6  2  0
  5  7  1  0
  7  8  1  0
  8  9  1  0
  9 10  1  0
 10 11  1  0
 11 12  1  0
 12 13  2  0
 13 14  1  0
 14 15  1  0
 15 16  2  0
 16 17  1  0
 17 18  2  0
 18 19  1  0
 19 20  2  0
 14 21  2  0
 21 22  1  0
  2 23  1  0
 23 24  2  0
 24 25  1  0
 25 26  2  0
 26 27  1  0
 27 28  2  0
 28 29  1  0
 29 30  2  0
 30 31  1  0
 31 32  2  0
 11  7  1  0
 22 12  1  0
 32 23  1  0
 20 15  1  0
 31 26  1  0
  3 33  1  0
  4 34  1  0
  4 35  1  0
  8 36  1  0
  8 37  1  0
  9 38  1  0
  9 39  1  0
 10 40  1  0
 10 41  1  0
 11 42  1  1
 16 43  1  0
 17 44  1  0
 18 45  1  0
 19 46  1  0
 20 47  1  0
 21 48  1  0
 24 49  1  0
 25 50  1  0
 27 51  1  0
 28 52  1  0
 29 53  1  0
 30 54  1  0
M  END
>  <smiles>  (1) 
O=C(NCC(=O)N1CCC[C@@H]1c1nc(-c2ccccc2)co1)c1ccc2ccccc2n1

>  <score_type>  (1) 
oracle

>  <origin>  (1) 
autodockgpu

>  <m_score__min__energy>  (1) 
-9.6699999999999999

>  <m_primary>  (1) 
energy

>  <rmsd>  (1) 
6.637137471603903

>  <m_score__min__rmsd>  (1) 
6.637137471603903

>  <meeko>  (1) 
{"free_energy": -8.68, "intermolecular_energy": -10.47, "internal_energy": -1.79, "cluster_size": 3, "cluster_id": 3, "rank_in_cluster": 2}

>  <energy>  (1) 
-9.67

>  <cluster_rmsd>  (1) 
0.0

>  <cluster>  (1) 
1

$$$$

     RDKit          3D

 54 58  0  0  0  0  0  0  0  0999 V2000
  140.7630   72.5530  222.4540 O   0  0  0  0  0  0  0  0  0  0  0  0
  140.1830   71.5110  222.8900 C   0  0  0  0  0  0  0  0  0  0  0  0
  139.3850   70.8000  221.9330 N   0  0  0  0  0  0  0  0  0  0  0  0
  139.2200   71.1920  220.5740 C   0  0  0  0  0  0  0  0  0  0  0  0
  138.4590   72.3490  220.2080 C   0  0  0  0  0  0  0  0  0  0  0  0
  137.7670   72.2040  219.0890 O   0  0  0  0  0  0  0  0  0  0  0  0
  138.2750   73.6240  220.7640 N   0  0  0  0  0  0  0  0  0  0  0  0
  137.6340   74.6870  219.9200 C   0  0  0  0  0  0  0  0  0  0  0  0
  136.9890   75.6310  220.8740 C   0  0  0  0  0  0  0  0  0  0  0  0
  137.2760   75.0870  222.2580 C   0  0  0  0  0  0  0  0  0  0  0  0
  138.5690   74.2930  221.9750 C   0  0  2  0  0  0  0  0  0  0  0  0
  139.6540   75.3370  221.7900 C   0  0  0  0  0  0  0  0  0  0  0  0
  139.8140   76.4900  222.4360 N   0  0  0  0  0  0  0  0  0  0  0  0
  140.9110   77.1410  221.9770 C   0  0  0  0  0  0  0  0  0  0  0  0
  141.4500   78.4280  222.4020 C   0  0  0  0  0  0  0  0  0  0  0  0
  141.7140   78.6630  223.7360 C   0  0  0  0  0  0  0  0  0  0  0  0
  142.2240   79.8650  224.1760 C   0  0  0  0  0  0  0  0  0  0  0  0
  142.4680   80.8440  223.2390 C   0  0  0  0  0  0  0  0  0  0  0  0
  142.2020   80.6000  221.9160 C   0  0  0  0  0  0  0  0  0  0  0  0
  141.6910   79.4010  221.4540 C   0  0  0  0  0  0  0  0  0  0  0  0
  141.4210   76.3090  220.9980 C   0  0  0  0  0  0  0  0  0  0  0  0
  140.6410   75.2570  220.9290 O   0  0  0  0  0  0  0  0  0  0  0  0
  140.3180   71.0730  224.2540 C   0  0  0  0  0  0  0  0  0  0  0  0
  140.9230   71.9160  225.1600 C   0  0  0  0  0  0  0  0  0  0  0  0
  141.0840   71.5520  226.4940 C   0  0  0  0  0  0  0  0  0  0  0  0
  140.6050   70.2980  226.8630 C   0  0  0  0  0  0  0  0  0  0  0  0
  140.7110   69.8320  228.1600 C   0  0  0  0  0  0  0  0  0  0  0  0
  140.2190   68.5760  228.4840 C   0  0  0  0  0  0  0  0  0  0  0  0
  139.6170   67.7560  227.5480 C   0  0  0  0  0  0  0  0  0  0  0  0
  139.5120   68.2230  226.2530 C   0  0  0  0  0  0  0  0  0  0  0  0
  140.0050   69.4820  225.9290 C   0  0  0  0  0  0  0  0  0  0  0  0
  139.8540   69.8500  224.6310 N   0  0  0  0  0  0  0  0  0  0  0  0
  138.9170   69.9350  222.3330 H   0  0  0  0  0  0  0  0  0  0  0  0
  140.2322   71.3489  220.1730 H   0  0  0  0  0  0  0  0  0  0  0  0
  138.6077   70.3731  220.1685 H   0  0  0  0  0  0  0  0  0  0  0  0
  138.3938   75.2090  219.3198 H   0  0  0  0  0  0  0  0  0  0  0  0
  136.9029   74.2594  219.2180 H   0  0  0  0  0  0  0  0  0  0  0  0
  137.4168   76.6383  220.7630 H   0  0  0  0  0  0  0  0  0  0  0  0
  135.9077   75.7137  220.6899 H   0  0  0  0  0  0  0  0  0  0  0  0
  137.4443   75.8939  222.9864 H   0  0  0  0  0  0  0  0  0  0  0  0
  136.4597   74.4978  222.7012 H   0  0  0  0  0  0  0  0  0  0  0  0
  138.8911   73.5817  222.7498 H   0  0  0  0  0  0  0  0  0  0  0  0
  141.5115   77.8681  224.4689 H   0  0  0  0  0  0  0  0  0  0  0  0
  142.4298   80.0372  225.2428 H   0  0  0  0  0  0  0  0  0  0  0  0
  142.8745   81.8176  223.5503 H   0  0  0  0  0  0  0  0  0  0  0  0
  142.4052   81.3975  221.1862 H   0  0  0  0  0  0  0  0  0  0  0  0
  141.4873   79.2318  220.3863 H   0  0  0  0  0  0  0  0  0  0  0  0
  142.3174   76.4953  220.3882 H   0  0  0  0  0  0  0  0  0  0  0  0
  141.2866   72.8977  224.8222 H   0  0  0  0  0  0  0  0  0  0  0  0
  141.5660   72.2223  227.2209 H   0  0  0  0  0  0  0  0  0  0  0  0
  141.1841   70.4553  228.9331 H   0  0  0  0  0  0  0  0  0  0  0  0
  140.3110   68.2205  229.5209 H   0  0  0  0  0  0  0  0  0  0  0  0
  139.2339   66.7631  227.8261 H   0  0  0  0  0  0  0  0  0  0  0  0
  139.0393   67.6003  225.4792 H   0  0  0  0  0  0  0  0  0  0  0  0
  1  2  2  0
  2  3  1  0
  3  4  1  0
  4  5  1  0
  5  6  2  0
  5  7  1  0
  7  8  1  0
  8  9  1  0
  9 10  1  0
 10 11  1  0
 11 12  1  0
 12 13  2  0
 13 14  1  0
 14 15  1  0
 15 16  2  0
 16 17  1  0
 17 18  2  0
 18 19  1  0
 19 20  2  0
 14 21  2  0
 21 22  1  0
  2 23  1  0
 23 24  2  0
 24 25  1  0
 25 26  2  0
 26 27  1  0
 27 28  2  0
 28 29  1  0
 29 30  2  0
 30 31  1  0
 31 32  2  0
 11  7  1  0
 22 12  1  0
 32 23  1  0
 20 15  1  0
 31 26  1  0
  3 33  1  0
  4 34  1  0
  4 35  1  0
  8 36  1  0
  8 37  1  0
  9 38  1  0
  9 39  1  0
 10 40  1  0
 10 41  1  0
 11 42  1  1
 16 43  1  0
 17 44  1  0
 18 45  1  0
 19 46  1  0
 20 47  1  0
 21 48  1  0
 24 49  1  0
 25 50  1  0
 27 51  1  0
 28 52  1  0
 29 53  1  0
 30 54  1  0
M  END
>  <smiles>  (2) 
O=C(NCC(=O)N1CCC[C@@H]1c1nc(-c2ccccc2)co1)c1ccc2ccccc2n1

>  <score_type>  (2) 
oracle

>  <origin>  (2) 
autodockgpu

>  <m_score__min__energy>  (2) 
-9.6699999999999999

>  <m_primary>  (2) 
energy

>  <rmsd>  (2) 
3.798260941541898

>  <m_score__min__rmsd>  (2) 
3.798260941541898

>  <meeko>  (2) 
{"free_energy": -8.48, "intermolecular_energy": -10.27, "internal_energy": -2.13, "cluster_size": 25, "cluster_id": 1, "rank_in_cluster": 24}

>  <energy>  (2) 
-9.62

>  <cluster_rmsd>  (2) 
0.28

>  <cluster>  (2) 
1

$$$$

     RDKit          3D

 54 58  0  0  0  0  0  0  0  0999 V2000
  140.7230   73.0230  222.7200 O   0  0  0  0  0  0  0  0  0  0  0  0
  140.3140   71.8340  222.8930 C   0  0  0  0  0  0  0  0  0  0  0  0
  139.8210   71.1730  221.7180 N   0  0  0  0  0  0  0  0  0  0  0  0
  139.7710   71.7640  220.4240 C   0  0  0  0  0  0  0  0  0  0  0  0
  140.9350   72.3230  219.8040 C   0  0  0  0  0  0  0  0  0  0  0  0
  141.5570   71.4900  218.9830 O   0  0  0  0  0  0  0  0  0  0  0  0
  141.5850   73.5650  219.8660 N   0  0  0  0  0  0  0  0  0  0  0  0
  142.9200   73.6400  220.5480 C   0  0  0  0  0  0  0  0  0  0  0  0
  143.6310   74.7910  219.9250 C   0  0  0  0  0  0  0  0  0  0  0  0
  142.6820   75.3570  218.8890 C   0  0  0  0  0  0  0  0  0  0  0  0
  141.3310   74.9020  219.4810 C   0  0  2  0  0  0  0  0  0  0  0  0
  141.0930   75.7950  220.6850 C   0  0  0  0  0  0  0  0  0  0  0  0
  141.5120   77.0420  220.8870 N   0  0  0  0  0  0  0  0  0  0  0  0
  141.0880   77.4940  222.0920 C   0  0  0  0  0  0  0  0  0  0  0  0
  141.3190   78.7950  222.7100 C   0  0  0  0  0  0  0  0  0  0  0  0
  140.2550   79.5390  223.1800 C   0  0  0  0  0  0  0  0  0  0  0  0
  140.4320   80.7710  223.7700 C   0  0  0  0  0  0  0  0  0  0  0  0
  141.7170   81.2540  223.8810 C   0  0  0  0  0  0  0  0  0  0  0  0
  142.7660   80.5080  223.4100 C   0  0  0  0  0  0  0  0  0  0  0  0
  142.6100   79.2690  222.8160 C   0  0  0  0  0  0  0  0  0  0  0  0
  140.3750   76.4370  222.6250 C   0  0  0  0  0  0  0  0  0  0  0  0
  140.4090   75.4580  221.7520 O   0  0  0  0  0  0  0  0  0  0  0  0
  140.3430   71.1920  224.1800 C   0  0  0  0  0  0  0  0  0  0  0  0
  140.7910   71.9120  225.2650 C   0  0  0  0  0  0  0  0  0  0  0  0
  140.8440   71.3490  226.5370 C   0  0  0  0  0  0  0  0  0  0  0  0
  140.4230   70.0280  226.6550 C   0  0  0  0  0  0  0  0  0  0  0  0
  140.4320   69.3670  227.8700 C   0  0  0  0  0  0  0  0  0  0  0  0
  140.0030   68.0490  227.9410 C   0  0  0  0  0  0  0  0  0  0  0  0
  139.5590   67.3580  226.8300 C   0  0  0  0  0  0  0  0  0  0  0  0
  139.5510   68.0190  225.6180 C   0  0  0  0  0  0  0  0  0  0  0  0
  139.9800   69.3380  225.5470 C   0  0  0  0  0  0  0  0  0  0  0  0
  139.9340   69.9000  224.3120 N   0  0  0  0  0  0  0  0  0  0  0  0
  139.4890   70.1810  221.9000 H   0  0  0  0  0  0  0  0  0  0  0  0
  139.4025   70.9836  219.7420 H   0  0  0  0  0  0  0  0  0  0  0  0
  139.1493   72.6546  220.5983 H   0  0  0  0  0  0  0  0  0  0  0  0
  142.7897   73.8091  221.6271 H   0  0  0  0  0  0  0  0  0  0  0  0
  143.4864   72.7041  220.4323 H   0  0  0  0  0  0  0  0  0  0  0  0
  143.8657   75.5515  220.6843 H   0  0  0  0  0  0  0  0  0  0  0  0
  144.5830   74.4785  219.4711 H   0  0  0  0  0  0  0  0  0  0  0  0
  142.7518   76.4531  218.8278 H   0  0  0  0  0  0  0  0  0  0  0  0
  142.8707   75.0229  217.8581 H   0  0  0  0  0  0  0  0  0  0  0  0
  140.4563   74.9626  218.8168 H   0  0  0  0  0  0  0  0  0  0  0  0
  139.2363   79.1361  223.0803 H   0  0  0  0  0  0  0  0  0  0  0  0
  139.5740   81.3509  224.1409 H   0  0  0  0  0  0  0  0  0  0  0  0
  141.9006   82.2340  224.3455 H   0  0  0  0  0  0  0  0  0  0  0  0
  143.7830   80.9153  223.5095 H   0  0  0  0  0  0  0  0  0  0  0  0
  143.4706   78.6916  222.4472 H   0  0  0  0  0  0  0  0  0  0  0  0
  139.8710   76.4195  223.6026 H   0  0  0  0  0  0  0  0  0  0  0  0
  141.1138   72.9540  225.1236 H   0  0  0  0  0  0  0  0  0  0  0  0
  141.2012   71.9205  227.4064 H   0  0  0  0  0  0  0  0  0  0  0  0
  140.7781   69.8843  228.7770 H   0  0  0  0  0  0  0  0  0  0  0  0
  140.0170   67.5373  228.9146 H   0  0  0  0  0  0  0  0  0  0  0  0
  139.2224   66.3137  226.9087 H   0  0  0  0  0  0  0  0  0  0  0  0
  139.2056   67.5021  224.7105 H   0  0  0  0  0  0  0  0  0  0  0  0
  1  2  2  0
  2  3  1  0
  3  4  1  0
  4  5  1  0
  5  6  2  0
  5  7  1  0
  7  8  1  0
  8  9  1  0
  9 10  1  0
 10 11  1  0
 11 12  1  0
 12 13  2  0
 13 14  1  0
 14 15  1  0
 15 16  2  0
 16 17  1  0
 17 18  2  0
 18 19  1  0
 19 20  2  0
 14 21  2  0
 21 22  1  0
  2 23  1  0
 23 24  2  0
 24 25  1  0
 25 26  2  0
 26 27  1  0
 27 28  2  0
 28 29  1  0
 29 30  2  0
 30 31  1  0
 31 32  2  0
 11  7  1  0
 22 12  1  0
 32 23  1  0
 20 15  1  0
 31 26  1  0
  3 33  1  0
  4 34  1  0
  4 35  1  0
  8 36  1  0
  8 37  1  0
  9 38  1  0
  9 39  1  0
 10 40  1  0
 10 41  1  0
 11 42  1  6
 16 43  1  0
 17 44  1  0
 18 45  1  0
 19 46  1  0
 20 47  1  0
 21 48  1  0
 24 49  1  0
 25 50  1  0
 27 51  1  0
 28 52  1  0
 29 53  1  0
 30 54  1  0
M  END
>  <smiles>  (3) 
O=C(NCC(=O)N1CCC[C@@H]1c1nc(-c2ccccc2)co1)c1ccc2ccccc2n1

>  <score_type>  (3) 
oracle

>  <origin>  (3) 
autodockgpu

>  <m_score__min__energy>  (3) 
-9.6699999999999999

>  <m_primary>  (3) 
energy

>  <rmsd>  (3) 
3.5615780242223143

>  <m_score__min__rmsd>  (3) 
3.5615780242223143

>  <meeko>  (3) 
{"free_energy": -9.35, "intermolecular_energy": -11.14, "internal_energy": -2.12, "cluster_size": 25, "cluster_id": 1, "rank_in_cluster": 9}

>  <energy>  (3) 
-9.55

>  <cluster_rmsd>  (3) 
0.4

>  <cluster>  (3) 
1

$$$$

     RDKit          3D

 54 58  0  0  0  0  0  0  0  0999 V2000
  140.5410   72.8650  222.6810 O   0  0  0  0  0  0  0  0  0  0  0  0
  139.9640   71.7820  223.0090 C   0  0  0  0  0  0  0  0  0  0  0  0
  139.1130   71.2060  222.0070 N   0  0  0  0  0  0  0  0  0  0  0  0
  138.8930   71.7700  220.7180 C   0  0  0  0  0  0  0  0  0  0  0  0
  137.9000   72.7760  220.4920 C   0  0  0  0  0  0  0  0  0  0  0  0
  136.8940   72.3750  219.7310 O   0  0  0  0  0  0  0  0  0  0  0  0
  137.7420   74.1120  220.8910 N   0  0  0  0  0  0  0  0  0  0  0  0
  137.5780   75.1610  219.8310 C   0  0  0  0  0  0  0  0  0  0  0  0
  136.8100   76.2670  220.4660 C   0  0  0  0  0  0  0  0  0  0  0  0
  136.5460   75.8270  221.8910 C   0  0  0  0  0  0  0  0  0  0  0  0
  137.7250   74.8520  222.0960 C   0  0  2  0  0  0  0  0  0  0  0  0
  138.9570   75.7270  222.2340 C   0  0  0  0  0  0  0  0  0  0  0  0
  139.0330   76.9950  222.6320 N   0  0  0  0  0  0  0  0  0  0  0  0
  140.3200   77.4190  222.6190 C   0  0  0  0  0  0  0  0  0  0  0  0
  140.8510   78.7290  222.9780 C   0  0  0  0  0  0  0  0  0  0  0  0
  142.1930   79.0040  222.8070 C   0  0  0  0  0  0  0  0  0  0  0  0
  142.7330   80.2290  223.1330 C   0  0  0  0  0  0  0  0  0  0  0  0
  141.8880   81.1900  223.6440 C   0  0  0  0  0  0  0  0  0  0  0  0
  140.5570   80.9060  223.8100 C   0  0  0  0  0  0  0  0  0  0  0  0
  139.9960   79.6840  223.4880 C   0  0  0  0  0  0  0  0  0  0  0  0
  141.0390   76.3220  222.1820 C   0  0  0  0  0  0  0  0  0  0  0  0
  140.1850   75.3500  221.9700 O   0  0  0  0  0  0  0  0  0  0  0  0
  140.1540   71.1720  224.2980 C   0  0  0  0  0  0  0  0  0  0  0  0
  140.7990   71.8920  225.2790 C   0  0  0  0  0  0  0  0  0  0  0  0
  141.0130   71.3600  226.5470 C   0  0  0  0  0  0  0  0  0  0  0  0
  140.5440   70.0690  226.7720 C   0  0  0  0  0  0  0  0  0  0  0  0
  140.7010   69.4400  227.9930 C   0  0  0  0  0  0  0  0  0  0  0  0
  140.2170   68.1520  228.1730 C   0  0  0  0  0  0  0  0  0  0  0  0
  139.5740   67.4590  227.1650 C   0  0  0  0  0  0  0  0  0  0  0  0
  139.4180   68.0890  225.9460 C   0  0  0  0  0  0  0  0  0  0  0  0
  139.9020   69.3790  225.7660 C   0  0  0  0  0  0  0  0  0  0  0  0
  139.7000   69.9100  224.5340 N   0  0  0  0  0  0  0  0  0  0  0  0
  138.6500   70.3020  222.3150 H   0  0  0  0  0  0  0  0  0  0  0  0
  139.8524   72.2079  220.4051 H   0  0  0  0  0  0  0  0  0  0  0  0
  138.4890   70.9148  220.1564 H   0  0  0  0  0  0  0  0  0  0  0  0
  138.5612   75.5219  219.4947 H   0  0  0  0  0  0  0  0  0  0  0  0
  137.0575   74.7637  218.9471 H   0  0  0  0  0  0  0  0  0  0  0  0
  137.3986   77.1962  220.4557 H   0  0  0  0  0  0  0  0  0  0  0  0
  135.8729   76.4687  219.9263 H   0  0  0  0  0  0  0  0  0  0  0  0
  136.5891   76.6724  222.5935 H   0  0  0  0  0  0  0  0  0  0  0  0
  135.5507   75.3917  222.0636 H   0  0  0  0  0  0  0  0  0  0  0  0
  137.6664   74.1839  222.9679 H   0  0  0  0  0  0  0  0  0  0  0  0
  142.8504   78.2223  222.3986 H   0  0  0  0  0  0  0  0  0  0  0  0
  143.8044   80.4332  222.9899 H   0  0  0  0  0  0  0  0  0  0  0  0
  142.2796   82.1808  223.9176 H   0  0  0  0  0  0  0  0  0  0  0  0
  139.9027   81.6895  224.2199 H   0  0  0  0  0  0  0  0  0  0  0  0
  138.9239   79.4837  223.6310 H   0  0  0  0  0  0  0  0  0  0  0  0
  142.1285   76.2735  222.0384 H   0  0  0  0  0  0  0  0  0  0  0  0
  141.1526   72.9094  225.0555 H   0  0  0  0  0  0  0  0  0  0  0  0
  141.5277   71.9319  227.3331 H   0  0  0  0  0  0  0  0  0  0  0  0
  141.2082   69.9591  228.8196 H   0  0  0  0  0  0  0  0  0  0  0  0
  140.3496   67.6663  229.1510 H   0  0  0  0  0  0  0  0  0  0  0  0
  139.1984   66.4381  227.3284 H   0  0  0  0  0  0  0  0  0  0  0  0
  138.9113   67.5704  225.1188 H   0  0  0  0  0  0  0  0  0  0  0  0
  1  2  2  0
  2  3  1  0
  3  4  1  0
  4  5  1  0
  5  6  2  0
  5  7  1  0
  7  8  1  0
  8  9  1  0
  9 10  1  0
 10 11  1  0
 11 12  1  0
 12 13  2  0
 13 14  1  0
 14 15  1  0
 15 16  2  0
 16 17  1  0
 17 18  2  0
 18 19  1  0
 19 20  2  0
 14 21  2  0
 21 22  1  0
  2 23  1  0
 23 24  2  0
 24 25  1  0
 25 26  2  0
 26 27  1  0
 27 28  2  0
 28 29  1  0
 29 30  2  0
 30 31  1  0
 31 32  2  0
 11  7  1  0
 22 12  1  0
 32 23  1  0
 20 15  1  0
 31 26  1  0
  3 33  1  0
  4 34  1  0
  4 35  1  0
  8 36  1  0
  8 37  1  0
  9 38  1  0
  9 39  1  0
 10 40  1  0
 10 41  1  0
 11 42  1  1
 16 43  1  0
 17 44  1  0
 18 45  1  0
 19 46  1  0
 20 47  1  0
 21 48  1  0
 24 49  1  0
 25 50  1  0
 27 51  1  0
 28 52  1  0
 29 53  1  0
 30 54  1  0
M  END
>  <smiles>  (4) 
O=C(NCC(=O)N1CCC[C@@H]1c1nc(-c2ccccc2)co1)c1ccc2ccccc2n1

>  <score_type>  (4) 
oracle

>  <origin>  (4) 
autodockgpu

>  <m_score__min__energy>  (4) 
-9.6699999999999999

>  <m_primary>  (4) 
energy

>  <rmsd>  (4) 
3.900694034469864

>  <m_score__min__rmsd>  (4) 
3.900694034469864

>  <meeko>  (4) 
{"free_energy": -9.06, "intermolecular_energy": -10.85, "internal_energy": -2.08, "cluster_size": 21, "cluster_id": 2, "rank_in_cluster": 4}

>  <energy>  (4) 
-9.47

>  <cluster_rmsd>  (4) 
0.85

>  <cluster>  (4) 
1

$$$$

     RDKit          3D

 54 58  0  0  0  0  0  0  0  0999 V2000
  140.4810   72.7530  222.2150 O   0  0  0  0  0  0  0  0  0  0  0  0
  139.8170   71.7520  222.6270 C   0  0  0  0  0  0  0  0  0  0  0  0
  138.8350   71.2430  221.7130 N   0  0  0  0  0  0  0  0  0  0  0  0
  138.5810   71.7850  220.4210 C   0  0  0  0  0  0  0  0  0  0  0  0
  137.8000   72.9720  220.2400 C   0  0  0  0  0  0  0  0  0  0  0  0
  137.0160   72.9400  219.1740 O   0  0  0  0  0  0  0  0  0  0  0  0
  137.6730   74.1840  220.9350 N   0  0  0  0  0  0  0  0  0  0  0  0
  137.2380   75.4030  220.1760 C   0  0  0  0  0  0  0  0  0  0  0  0
  136.5770   76.2900  221.1730 C   0  0  0  0  0  0  0  0  0  0  0  0
  136.6460   75.5560  222.4960 C   0  0  0  0  0  0  0  0  0  0  0  0
  137.8840   74.6670  222.2480 C   0  0  2  0  0  0  0  0  0  0  0  0
  139.0760   75.6030  222.3150 C   0  0  0  0  0  0  0  0  0  0  0  0
  139.1030   76.8880  222.6630 N   0  0  0  0  0  0  0  0  0  0  0  0
  140.3680   77.3700  222.5950 C   0  0  0  0  0  0  0  0  0  0  0  0
  140.8470   78.7170  222.8880 C   0  0  0  0  0  0  0  0  0  0  0  0
  142.1220   79.0950  222.5200 C   0  0  0  0  0  0  0  0  0  0  0  0
  142.6100   80.3570  222.7780 C   0  0  0  0  0  0  0  0  0  0  0  0
  141.7830   81.2490  223.4250 C   0  0  0  0  0  0  0  0  0  0  0  0
  140.5180   80.8620  223.7860 C   0  0  0  0  0  0  0  0  0  0  0  0
  140.0090   79.6010  223.5360 C   0  0  0  0  0  0  0  0  0  0  0  0
  141.1260   76.2910  222.1800 C   0  0  0  0  0  0  0  0  0  0  0  0
  140.3130   75.2730  222.0300 O   0  0  0  0  0  0  0  0  0  0  0  0
  140.0360   71.1670  223.9230 C   0  0  0  0  0  0  0  0  0  0  0  0
  140.6790   71.9160  224.8840 C   0  0  0  0  0  0  0  0  0  0  0  0
  140.9210   71.4080  226.1570 C   0  0  0  0  0  0  0  0  0  0  0  0
  140.4820   70.1120  226.4080 C   0  0  0  0  0  0  0  0  0  0  0  0
  140.6670   69.5050  227.6370 C   0  0  0  0  0  0  0  0  0  0  0  0
  140.2130   68.2110  227.8430 C   0  0  0  0  0  0  0  0  0  0  0  0
  139.5710   67.4890  226.8550 C   0  0  0  0  0  0  0  0  0  0  0  0
  139.3870   68.0950  225.6290 C   0  0  0  0  0  0  0  0  0  0  0  0
  139.8410   69.3920  225.4220 C   0  0  0  0  0  0  0  0  0  0  0  0
  139.6120   69.9000  224.1850 N   0  0  0  0  0  0  0  0  0  0  0  0
  138.3010   70.4070  222.0900 H   0  0  0  0  0  0  0  0  0  0  0  0
  139.5646   71.9915  219.9740 H   0  0  0  0  0  0  0  0  0  0  0  0
  137.9414   71.0140  219.9667 H   0  0  0  0  0  0  0  0  0  0  0  0
  138.1085   75.9082  219.7321 H   0  0  0  0  0  0  0  0  0  0  0  0
  136.5572   75.1440  219.3517 H   0  0  0  0  0  0  0  0  0  0  0  0
  137.1081   77.2509  221.2410 H   0  0  0  0  0  0  0  0  0  0  0  0
  135.5376   76.5110  220.8888 H   0  0  0  0  0  0  0  0  0  0  0  0
  136.8019   76.2466  223.3379 H   0  0  0  0  0  0  0  0  0  0  0  0
  135.7315   75.0093  222.7697 H   0  0  0  0  0  0  0  0  0  0  0  0
  138.0449   73.8377  222.9525 H   0  0  0  0  0  0  0  0  0  0  0  0
  142.7673   78.3676  222.0058 H   0  0  0  0  0  0  0  0  0  0  0  0
  143.6284   80.6437  222.4768 H   0  0  0  0  0  0  0  0  0  0  0  0
  142.1356   82.2662  223.6508 H   0  0  0  0  0  0  0  0  0  0  0  0
  139.8756   81.5918  224.3006 H   0  0  0  0  0  0  0  0  0  0  0  0
  138.9899   79.3176  223.8378 H   0  0  0  0  0  0  0  0  0  0  0  0
  142.2123   76.2870  222.0072 H   0  0  0  0  0  0  0  0  0  0  0  0
  141.0080   72.9369  224.6401 H   0  0  0  0  0  0  0  0  0  0  0  0
  141.4344   72.0023  226.9272 H   0  0  0  0  0  0  0  0  0  0  0  0
  141.1731   70.0475  228.4491 H   0  0  0  0  0  0  0  0  0  0  0  0
  140.3692   67.7434  228.8263 H   0  0  0  0  0  0  0  0  0  0  0  0
  139.2179   66.4638  227.0400 H   0  0  0  0  0  0  0  0  0  0  0  0
  138.8816   67.5522  224.8166 H   0  0  0  0  0  0  0  0  0  0  0  0
  1  2  2  0
  2  3  1  0
  3  4  1  0
  4  5  1  0
  5  6  2  0
  5  7  1  0
  7  8  1  0
  8  9  1  0
  9 10  1  0
 10 11  1  0
 11 12  1  0
 12 13  2  0
 13 14  1  0
 14 15  1  0
 15 16  2  0
 16 17  1  0
 17 18  2  0
 18 19  1  0
 19 20  2  0
 14 21  2  0
 21 22  1  0
  2 23  1  0
 23 24  2  0
 24 25  1  0
 25 26  2  0
 26 27  1  0
 27 28  2  0
 28 29  1  0
 29 30  2  0
 30 31  1  0
 31 32  2  0
 11  7  1  0
 22 12  1  0
 32 23  1  0
 20 15  1  0
 31 26  1  0
  3 33  1  0
  4 34  1  0
  4 35  1  0
  8 36  1  0
  8 37  1  0
  9 38  1  0
  9 39  1  0
 10 40  1  0
 10 41  1  0
 11 42  1  1
 16 43  1  0
 17 44  1  0
 18 45  1  0
 19 46  1  0
 20 47  1  0
 21 48  1  0
 24 49  1  0
 25 50  1  0
 27 51  1  0
 28 52  1  0
 29 53  1  0
 30 54  1  0
M  END
>  <smiles>  (5) 
O=C(NCC(=O)N1CCC[C@@H]1c1nc(-c2ccccc2)co1)c1ccc2ccccc2n1

>  <score_type>  (5) 
oracle

>  <origin>  (5) 
autodockgpu

>  <m_score__min__energy>  (5) 
-9.6699999999999999

>  <m_primary>  (5) 
energy

>  <rmsd>  (5) 
3.9461623661649425

>  <m_score__min__rmsd>  (5) 
3.9461623661649425

>  <meeko>  (5) 
{"free_energy": -8.72, "intermolecular_energy": -10.5, "internal_energy": -2.06, "cluster_size": 21, "cluster_id": 2, "rank_in_cluster": 18}

>  <energy>  (5) 
-9.44

>  <cluster_rmsd>  (5) 
0.48

>  <cluster>  (5) 
1

$$$$

     RDKit          3D

 54 58  0  0  0  0  0  0  0  0999 V2000
  139.9530   74.7190  222.3360 O   0  0  0  0  0  0  0  0  0  0  0  0
  139.7710   75.7810  221.6640 C   0  0  0  0  0  0  0  0  0  0  0  0
  139.3420   75.5890  220.3080 N   0  0  0  0  0  0  0  0  0  0  0  0
  139.1200   74.3170  219.7070 C   0  0  0  0  0  0  0  0  0  0  0  0
  138.0200   73.4830  220.0880 C   0  0  0  0  0  0  0  0  0  0  0  0
  137.0620   73.4110  219.1770 O   0  0  0  0  0  0  0  0  0  0  0  0
  137.7110   72.7140  221.2210 N   0  0  0  0  0  0  0  0  0  0  0  0
  136.9780   73.3710  222.3530 C   0  0  0  0  0  0  0  0  0  0  0  0
  136.2380   72.2810  223.0470 C   0  0  0  0  0  0  0  0  0  0  0  0
  136.5640   71.0100  222.2930 C   0  0  0  0  0  0  0  0  0  0  0  0
  137.9290   71.3960  221.6850 C   0  0  2  0  0  0  0  0  0  0  0  0
  138.9120   71.3660  222.8420 C   0  0  0  0  0  0  0  0  0  0  0  0
  138.9010   70.5830  223.9180 N   0  0  0  0  0  0  0  0  0  0  0  0
  139.9560   70.8670  224.7200 C   0  0  0  0  0  0  0  0  0  0  0  0
  140.3250   70.2540  225.9920 C   0  0  0  0  0  0  0  0  0  0  0  0
  140.6960   71.0440  227.0610 C   0  0  0  0  0  0  0  0  0  0  0  0
  141.0510   70.5040  228.2770 C   0  0  0  0  0  0  0  0  0  0  0  0
  141.0270   69.1320  228.4050 C   0  0  0  0  0  0  0  0  0  0  0  0
  140.6560   68.3570  227.3370 C   0  0  0  0  0  0  0  0  0  0  0  0
  140.2960   68.8800  226.1080 C   0  0  0  0  0  0  0  0  0  0  0  0
  140.6240   71.8840  224.0640 C   0  0  0  0  0  0  0  0  0  0  0  0
  139.9640   72.1400  222.9590 O   0  0  0  0  0  0  0  0  0  0  0  0
  139.9800   77.0890  222.2250 C   0  0  0  0  0  0  0  0  0  0  0  0
  138.8930   77.7760  222.7180 C   0  0  0  0  0  0  0  0  0  0  0  0
  139.0280   79.0450  223.2740 C   0  0  0  0  0  0  0  0  0  0  0  0
  140.3110   79.5810  223.3050 C   0  0  0  0  0  0  0  0  0  0  0  0
  140.5640   80.8340  223.8340 C   0  0  0  0  0  0  0  0  0  0  0  0
  141.8600   81.3290  223.8450 C   0  0  0  0  0  0  0  0  0  0  0  0
  142.9280   80.6110  223.3410 C   0  0  0  0  0  0  0  0  0  0  0  0
  142.6740   79.3610  222.8130 C   0  0  0  0  0  0  0  0  0  0  0  0
  141.3760   78.8650  222.8020 C   0  0  0  0  0  0  0  0  0  0  0  0
  141.2300   77.6280  222.2630 N   0  0  0  0  0  0  0  0  0  0  0  0
  139.1980   76.4970  219.7780 H   0  0  0  0  0  0  0  0  0  0  0  0
  139.0090   74.5005  218.6281 H   0  0  0  0  0  0  0  0  0  0  0  0
  139.9851   73.7377  220.0621 H   0  0  0  0  0  0  0  0  0  0  0  0
  137.6888   73.8501  223.0423 H   0  0  0  0  0  0  0  0  0  0  0  0
  136.2967   74.1555  221.9918 H   0  0  0  0  0  0  0  0  0  0  0  0
  136.5686   72.2004  224.0930 H   0  0  0  0  0  0  0  0  0  0  0  0
  135.1553   72.4746  223.0613 H   0  0  0  0  0  0  0  0  0  0  0  0
  136.6485   70.1459  222.9684 H   0  0  0  0  0  0  0  0  0  0  0  0
  135.8038   70.6998  221.5610 H   0  0  0  0  0  0  0  0  0  0  0  0
  138.3099   70.7514  220.8791 H   0  0  0  0  0  0  0  0  0  0  0  0
  140.7085   72.1370  226.9381 H   0  0  0  0  0  0  0  0  0  0  0  0
  141.3445   71.1474  229.1196 H   0  0  0  0  0  0  0  0  0  0  0  0
  141.3042   68.6611  229.3597 H   0  0  0  0  0  0  0  0  0  0  0  0
  140.6440   67.2644  227.4636 H   0  0  0  0  0  0  0  0  0  0  0  0
  140.0021   68.2341  225.2675 H   0  0  0  0  0  0  0  0  0  0  0  0
  141.5409   72.3866  224.4056 H   0  0  0  0  0  0  0  0  0  0  0  0
  137.8967   77.3120  222.6714 H   0  0  0  0  0  0  0  0  0  0  0  0
  138.1624   79.5968  223.6694 H   0  0  0  0  0  0  0  0  0  0  0  0
  139.7400   81.4360  224.2447 H   0  0  0  0  0  0  0  0  0  0  0  0
  142.0438   82.3271  224.2694 H   0  0  0  0  0  0  0  0  0  0  0  0
  143.9480   81.0225  223.3600 H   0  0  0  0  0  0  0  0  0  0  0  0
  143.4975   78.7588  222.4018 H   0  0  0  0  0  0  0  0  0  0  0  0
  1  2  2  0
  2  3  1  0
  3  4  1  0
  4  5  1  0
  5  6  2  0
  5  7  1  0
  7  8  1  0
  8  9  1  0
  9 10  1  0
 10 11  1  0
 11 12  1  0
 12 13  2  0
 13 14  1  0
 14 15  1  0
 15 16  2  0
 16 17  1  0
 17 18  2  0
 18 19  1  0
 19 20  2  0
 14 21  2  0
 21 22  1  0
  2 23  1  0
 23 24  2  0
 24 25  1  0
 25 26  2  0
 26 27  1  0
 27 28  2  0
 28 29  1  0
 29 30  2  0
 30 31  1  0
 31 32  2  0
 11  7  1  0
 22 12  1  0
 32 23  1  0
 20 15  1  0
 31 26  1  0
  3 33  1  0
  4 34  1  0
  4 35  1  0
  8 36  1  0
  8 37  1  0
  9 38  1  0
  9 39  1  0
 10 40  1  0
 10 41  1  0
 11 42  1  6
 16 43  1  0
 17 44  1  0
 18 45  1  0
 19 46  1  0
 20 47  1  0
 21 48  1  0
 24 49  1  0
 25 50  1  0
 27 51  1  0
 28 52  1  0
 29 53  1  0
 30 54  1  0
M  END
>  <smiles>  (6) 
O=C(NCC(=O)N1CCC[C@@H]1c1nc(-c2ccccc2)co1)c1ccc2ccccc2n1

>  <score_type>  (6) 
oracle

>  <origin>  (6) 
autodockgpu

>  <m_score__min__energy>  (6) 
-9.6699999999999999

>  <m_primary>  (6) 
energy

>  <rmsd>  (6) 
9.530085574593084

>  <m_score__min__rmsd>  (6) 
9.530085574593084

>  <meeko>  (6) 
{"free_energy": -8.87, "intermolecular_energy": -10.66, "internal_energy": -1.8, "cluster_size": 21, "cluster_id": 2, "rank_in_cluster": 11}

>  <energy>  (6) 
-9.44

>  <cluster_rmsd>  (6) 
0.83

>  <cluster>  (6) 
1

$$$$

     RDKit          3D

 54 58  0  0  0  0  0  0  0  0999 V2000
  140.6650   72.9900  222.6650 O   0  0  0  0  0  0  0  0  0  0  0  0
  140.3150   71.7830  222.8460 C   0  0  0  0  0  0  0  0  0  0  0  0
  139.9100   71.0720  221.6680 N   0  0  0  0  0  0  0  0  0  0  0  0
  139.8820   71.6340  220.3590 C   0  0  0  0  0  0  0  0  0  0  0  0
  139.4570   72.9810  220.1250 C   0  0  0  0  0  0  0  0  0  0  0  0
  140.0990   73.5810  219.1340 O   0  0  0  0  0  0  0  0  0  0  0  0
  138.5070   73.8310  220.7100 N   0  0  0  0  0  0  0  0  0  0  0  0
  137.6220   74.6430  219.8100 C   0  0  0  0  0  0  0  0  0  0  0  0
  136.3750   74.8950  220.5840 C   0  0  0  0  0  0  0  0  0  0  0  0
  136.5710   74.2180  221.9240 C   0  0  0  0  0  0  0  0  0  0  0  0
  138.1120   74.2260  222.0090 C   0  0  2  0  0  0  0  0  0  0  0  0
  138.4950   75.6660  222.2980 C   0  0  0  0  0  0  0  0  0  0  0  0
  139.6970   76.2330  222.2290 N   0  0  0  0  0  0  0  0  0  0  0  0
  139.6220   77.5440  222.5650 C   0  0  0  0  0  0  0  0  0  0  0  0
  140.6930   78.5330  222.6230 C   0  0  0  0  0  0  0  0  0  0  0  0
  141.2420   78.8900  223.8380 C   0  0  0  0  0  0  0  0  0  0  0  0
  142.2550   79.8190  223.9340 C   0  0  0  0  0  0  0  0  0  0  0  0
  142.7140   80.3950  222.7700 C   0  0  0  0  0  0  0  0  0  0  0  0
  142.1610   80.0330  221.5690 C   0  0  0  0  0  0  0  0  0  0  0  0
  141.1450   79.1030  221.4510 C   0  0  0  0  0  0  0  0  0  0  0  0
  138.2850   77.7500  222.8480 C   0  0  0  0  0  0  0  0  0  0  0  0
  137.6640   76.6080  222.6740 O   0  0  0  0  0  0  0  0  0  0  0  0
  140.3270   71.1690  224.1470 C   0  0  0  0  0  0  0  0  0  0  0  0
  140.7530   71.9140  225.2240 C   0  0  0  0  0  0  0  0  0  0  0  0
  140.7870   71.3790  226.5090 C   0  0  0  0  0  0  0  0  0  0  0  0
  140.3710   70.0590  226.6480 C   0  0  0  0  0  0  0  0  0  0  0  0
  140.3620   69.4240  227.8770 C   0  0  0  0  0  0  0  0  0  0  0  0
  139.9380   68.1060  227.9700 C   0  0  0  0  0  0  0  0  0  0  0  0
  139.5160   67.3880  226.8670 C   0  0  0  0  0  0  0  0  0  0  0  0
  139.5250   68.0230  225.6410 C   0  0  0  0  0  0  0  0  0  0  0  0
  139.9490   69.3430  225.5480 C   0  0  0  0  0  0  0  0  0  0  0  0
  139.9210   69.8780  224.3010 N   0  0  0  0  0  0  0  0  0  0  0  0
  139.6270   70.0670  221.8570 H   0  0  0  0  0  0  0  0  0  0  0  0
  140.9084   71.5620  219.9700 H   0  0  0  0  0  0  0  0  0  0  0  0
  139.0866   71.0508  219.8719 H   0  0  0  0  0  0  0  0  0  0  0  0
  138.1099   75.5940  219.5500 H   0  0  0  0  0  0  0  0  0  0  0  0
  137.4129   74.1168  218.8669 H   0  0  0  0  0  0  0  0  0  0  0  0
  136.2219   75.9757  220.7206 H   0  0  0  0  0  0  0  0  0  0  0  0
  135.4902   74.5036  220.0607 H   0  0  0  0  0  0  0  0  0  0  0  0
  136.1145   74.7940  222.7424 H   0  0  0  0  0  0  0  0  0  0  0  0
  136.1085   73.2238  222.0115 H   0  0  0  0  0  0  0  0  0  0  0  0
  138.5672   73.5784  222.7728 H   0  0  0  0  0  0  0  0  0  0  0  0
  140.8599   78.4194  224.7559 H   0  0  0  0  0  0  0  0  0  0  0  0
  142.6837   80.0921  224.9095 H   0  0  0  0  0  0  0  0  0  0  0  0
  143.5207   81.1421  222.8040 H   0  0  0  0  0  0  0  0  0  0  0  0
  142.5449   80.5063  220.6533 H   0  0  0  0  0  0  0  0  0  0  0  0
  140.7193   78.8317  220.4737 H   0  0  0  0  0  0  0  0  0  0  0  0
  137.8255   78.6988  223.1620 H   0  0  0  0  0  0  0  0  0  0  0  0
  141.0734   72.9543  225.0656 H   0  0  0  0  0  0  0  0  0  0  0  0
  141.1261   71.9711  227.3718 H   0  0  0  0  0  0  0  0  0  0  0  0
  140.6901   69.9625  228.7783 H   0  0  0  0  0  0  0  0  0  0  0  0
  139.9378   67.6161  228.9549 H   0  0  0  0  0  0  0  0  0  0  0  0
  139.1835   66.3438  226.9628 H   0  0  0  0  0  0  0  0  0  0  0  0
  139.1971   67.4849  224.7394 H   0  0  0  0  0  0  0  0  0  0  0  0
  1  2  2  0
  2  3  1  0
  3  4  1  0
  4  5  1  0
  5  6  2  0
  5  7  1  0
  7  8  1  0
  8  9  1  0
  9 10  1  0
 10 11  1  0
 11 12  1  0
 12 13  2  0
 13 14  1  0
 14 15  1  0
 15 16  2  0
 16 17  1  0
 17 18  2  0
 18 19  1  0
 19 20  2  0
 14 21  2  0
 21 22  1  0
  2 23  1  0
 23 24  2  0
 24 25  1  0
 25 26  2  0
 26 27  1  0
 27 28  2  0
 28 29  1  0
 29 30  2  0
 30 31  1  0
 31 32  2  0
 11  7  1  0
 22 12  1  0
 32 23  1  0
 20 15  1  0
 31 26  1  0
  3 33  1  0
  4 34  1  0
  4 35  1  0
  8 36  1  0
  8 37  1  0
  9 38  1  0
  9 39  1  0
 10 40  1  0
 10 41  1  0
 11 42  1  1
 16 43  1  0
 17 44  1  0
 18 45  1  0
 19 46  1  0
 20 47  1  0
 21 48  1  0
 24 49  1  0
 25 50  1  0
 27 51  1  0
 28 52  1  0
 29 53  1  0
 30 54  1  0
M  END
>  <smiles>  (7) 
O=C(NCC(=O)N1CCC[C@@H]1c1nc(-c2ccccc2)co1)c1ccc2ccccc2n1

>  <score_type>  (7) 
oracle

>  <origin>  (7) 
autodockgpu

>  <m_score__min__energy>  (7) 
-9.6699999999999999

>  <m_primary>  (7) 
energy

>  <rmsd>  (7) 
3.893291215843959

>  <m_score__min__rmsd>  (7) 
3.893291215843959

>  <meeko>  (7) 
{"free_energy": -8.37, "intermolecular_energy": -10.16, "internal_energy": -2.05, "cluster_size": 21, "cluster_id": 2, "rank_in_cluster": 21}

>  <energy>  (7) 
-9.38

>  <cluster_rmsd>  (7) 
0.91

>  <cluster>  (7) 
1

$$$$

     RDKit          3D

 54 58  0  0  0  0  0  0  0  0999 V2000
  140.5790   72.8770  222.4460 O   0  0  0  0  0  0  0  0  0  0  0  0
  140.3320   71.6490  222.6570 C   0  0  0  0  0  0  0  0  0  0  0  0
  140.0640   70.8620  221.4870 N   0  0  0  0  0  0  0  0  0  0  0  0
  140.0620   71.3720  220.1580 C   0  0  0  0  0  0  0  0  0  0  0  0
  139.4730   72.6370  219.8340 C   0  0  0  0  0  0  0  0  0  0  0  0
  138.1530   72.6010  219.7250 O   0  0  0  0  0  0  0  0  0  0  0  0
  139.9730   73.9260  219.5970 N   0  0  0  0  0  0  0  0  0  0  0  0
  141.4210   74.0770  219.2360 C   0  0  0  0  0  0  0  0  0  0  0  0
  141.5140   75.3310  218.4390 C   0  0  0  0  0  0  0  0  0  0  0  0
  140.1050   75.8790  218.3570 C   0  0  0  0  0  0  0  0  0  0  0  0
  139.4980   75.2580  219.6330 C   0  0  2  0  0  0  0  0  0  0  0  0
  140.0980   76.0360  220.7890 C   0  0  0  0  0  0  0  0  0  0  0  0
  140.2980   77.3480  220.8900 N   0  0  0  0  0  0  0  0  0  0  0  0
  140.8590   77.6500  222.0860 C   0  0  0  0  0  0  0  0  0  0  0  0
  141.2440   78.9570  222.6080 C   0  0  0  0  0  0  0  0  0  0  0  0
  142.5780   79.2890  222.7310 C   0  0  0  0  0  0  0  0  0  0  0  0
  142.9820   80.5130  223.2180 C   0  0  0  0  0  0  0  0  0  0  0  0
  142.0070   81.4130  223.5880 C   0  0  0  0  0  0  0  0  0  0  0  0
  140.6850   81.0720  223.4620 C   0  0  0  0  0  0  0  0  0  0  0  0
  140.2590   79.8500  222.9750 C   0  0  0  0  0  0  0  0  0  0  0  0
  140.9940   76.4300  222.7220 C   0  0  0  0  0  0  0  0  0  0  0  0
  140.5280   75.5100  221.9110 O   0  0  0  0  0  0  0  0  0  0  0  0
  140.3220   71.0860  223.9800 C   0  0  0  0  0  0  0  0  0  0  0  0
  140.7010   71.8820  225.0380 C   0  0  0  0  0  0  0  0  0  0  0  0
  140.7130   71.3970  226.3430 C   0  0  0  0  0  0  0  0  0  0  0  0
  140.3240   70.0740  226.5230 C   0  0  0  0  0  0  0  0  0  0  0  0
  140.2970   69.4860  227.7740 C   0  0  0  0  0  0  0  0  0  0  0  0
  139.9020   68.1630  227.9070 C   0  0  0  0  0  0  0  0  0  0  0  0
  139.5270   67.3930  226.8220 C   0  0  0  0  0  0  0  0  0  0  0  0
  139.5550   67.9810  225.5730 C   0  0  0  0  0  0  0  0  0  0  0  0
  139.9500   69.3070  225.4400 C   0  0  0  0  0  0  0  0  0  0  0  0
  139.9430   69.7930  224.1730 N   0  0  0  0  0  0  0  0  0  0  0  0
  139.8630   69.8430  221.7020 H   0  0  0  0  0  0  0  0  0  0  0  0
  141.1161   71.4346  219.8500 H   0  0  0  0  0  0  0  0  0  0  0  0
  139.3964   70.6663  219.6394 H   0  0  0  0  0  0  0  0  0  0  0  0
  142.0359   74.1547  220.1448 H   0  0  0  0  0  0  0  0  0  0  0  0
  141.7884   73.2094  218.6683 H   0  0  0  0  0  0  0  0  0  0  0  0
  142.1765   76.0532  218.9386 H   0  0  0  0  0  0  0  0  0  0  0  0
  141.9319   75.1427  217.4390 H   0  0  0  0  0  0  0  0  0  0  0  0
  140.0923   76.9783  218.3928 H   0  0  0  0  0  0  0  0  0  0  0  0
  139.5693   75.6395  217.4266 H   0  0  0  0  0  0  0  0  0  0  0  0
  138.4018   75.2838  219.7209 H   0  0  0  0  0  0  0  0  0  0  0  0
  143.3408   78.5552  222.4316 H   0  0  0  0  0  0  0  0  0  0  0  0
  144.0493   80.7635  223.3085 H   0  0  0  0  0  0  0  0  0  0  0  0
  142.2877   82.4006  223.9827 H   0  0  0  0  0  0  0  0  0  0  0  0
  139.9249   81.8077  223.7636 H   0  0  0  0  0  0  0  0  0  0  0  0
  139.1909   79.6031  222.8850 H   0  0  0  0  0  0  0  0  0  0  0  0
  141.4149   76.2615  223.7242 H   0  0  0  0  0  0  0  0  0  0  0  0
  141.0006   72.9232  224.8479 H   0  0  0  0  0  0  0  0  0  0  0  0
  141.0155   72.0296  227.1906 H   0  0  0  0  0  0  0  0  0  0  0  0
  140.5882   70.0662  228.6621 H   0  0  0  0  0  0  0  0  0  0  0  0
  139.8866   67.7113  228.9099 H   0  0  0  0  0  0  0  0  0  0  0  0
  139.2163   66.3455  226.9495 H   0  0  0  0  0  0  0  0  0  0  0  0
  139.2651   67.4009  224.6845 H   0  0  0  0  0  0  0  0  0  0  0  0
  1  2  2  0
  2  3  1  0
  3  4  1  0
  4  5  1  0
  5  6  2  0
  5  7  1  0
  7  8  1  0
  8  9  1  0
  9 10  1  0
 10 11  1  0
 11 12  1  0
 12 13  2  0
 13 14  1  0
 14 15  1  0
 15 16  2  0
 16 17  1  0
 17 18  2  0
 18 19  1  0
 19 20  2  0
 14 21  2  0
 21 22  1  0
  2 23  1  0
 23 24  2  0
 24 25  1  0
 25 26  2  0
 26 27  1  0
 27 28  2  0
 28 29  1  0
 29 30  2  0
 30 31  1  0
 31 32  2  0
 11  7  1  0
 22 12  1  0
 32 23  1  0
 20 15  1  0
 31 26  1  0
  3 33  1  0
  4 34  1  0
  4 35  1  0
  8 36  1  0
  8 37  1  0
  9 38  1  0
  9 39  1  0
 10 40  1  0
 10 41  1  0
 11 42  1  6
 16 43  1  0
 17 44  1  0
 18 45  1  0
 19 46  1  0
 20 47  1  0
 21 48  1  0
 24 49  1  0
 25 50  1  0
 27 51  1  0
 28 52  1  0
 29 53  1  0
 30 54  1  0
M  END
>  <smiles>  (8) 
O=C(NCC(=O)N1CCC[C@@H]1c1nc(-c2ccccc2)co1)c1ccc2ccccc2n1

>  <score_type>  (8) 
oracle

>  <origin>  (8) 
autodockgpu

>  <m_score__min__energy>  (8) 
-9.6699999999999999

>  <m_primary>  (8) 
energy

>  <rmsd>  (8) 
3.4194446750263126

>  <m_score__min__rmsd>  (8) 
3.4194446750263126

>  <meeko>  (8) 
{"free_energy": -8.43, "intermolecular_energy": -10.22, "internal_energy": -2.02, "cluster_size": 25, "cluster_id": 1, "rank_in_cluster": 25}

>  <energy>  (8) 
-9.36

>  <cluster_rmsd>  (8) 
0.53

>  <cluster>  (8) 
1

$$$$

     RDKit          3D

 54 58  0  0  0  0  0  0  0  0999 V2000
  139.9700   73.5450  222.5670 O   0  0  0  0  0  0  0  0  0  0  0  0
  140.3530   72.3350  222.5830 C   0  0  0  0  0  0  0  0  0  0  0  0
  140.9590   71.8610  221.3720 N   0  0  0  0  0  0  0  0  0  0  0  0
  141.1430   72.6520  220.2020 C   0  0  0  0  0  0  0  0  0  0  0  0
  141.9620   73.8270  220.2050 C   0  0  0  0  0  0  0  0  0  0  0  0
  142.8260   73.8740  221.2070 O   0  0  0  0  0  0  0  0  0  0  0  0
  142.0630   74.9610  219.3850 N   0  0  0  0  0  0  0  0  0  0  0  0
  143.4160   75.5730  219.1730 C   0  0  0  0  0  0  0  0  0  0  0  0
  143.3520   76.2570  217.8520 C   0  0  0  0  0  0  0  0  0  0  0  0
  141.9510   76.0220  217.3280 C   0  0  0  0  0  0  0  0  0  0  0  0
  141.1960   75.8090  218.6570 C   0  0  2  0  0  0  0  0  0  0  0  0
  141.0950   77.1840  219.2920 C   0  0  0  0  0  0  0  0  0  0  0  0
  141.6220   77.6080  220.4380 N   0  0  0  0  0  0  0  0  0  0  0  0
  141.3020   78.9080  220.6540 C   0  0  0  0  0  0  0  0  0  0  0  0
  141.6680   79.7620  221.7780 C   0  0  0  0  0  0  0  0  0  0  0  0
  141.4470   81.1230  221.7170 C   0  0  0  0  0  0  0  0  0  0  0  0
  141.7780   81.9620  222.7580 C   0  0  0  0  0  0  0  0  0  0  0  0
  142.3460   81.4030  223.8810 C   0  0  0  0  0  0  0  0  0  0  0  0
  142.5620   80.0500  223.9320 C   0  0  0  0  0  0  0  0  0  0  0  0
  142.2360   79.1900  222.8980 C   0  0  0  0  0  0  0  0  0  0  0  0
  140.5370   79.2600  219.5580 C   0  0  0  0  0  0  0  0  0  0  0  0
  140.4470   78.2050  218.7840 O   0  0  0  0  0  0  0  0  0  0  0  0
  140.1920   71.4950  223.7400 C   0  0  0  0  0  0  0  0  0  0  0  0
  139.5310   70.2950  223.5960 C   0  0  0  0  0  0  0  0  0  0  0  0
  139.3420   69.4370  224.6760 C   0  0  0  0  0  0  0  0  0  0  0  0
  139.8520   69.8530  225.9020 C   0  0  0  0  0  0  0  0  0  0  0  0
  139.7230   69.0820  227.0430 C   0  0  0  0  0  0  0  0  0  0  0  0
  140.2480   69.5350  228.2450 C   0  0  0  0  0  0  0  0  0  0  0  0
  140.9050   70.7460  228.3520 C   0  0  0  0  0  0  0  0  0  0  0  0
  141.0330   71.5140  227.2130 C   0  0  0  0  0  0  0  0  0  0  0  0
  140.5080   71.0600  226.0090 C   0  0  0  0  0  0  0  0  0  0  0  0
  140.6860   71.8870  224.9470 N   0  0  0  0  0  0  0  0  0  0  0  0
  141.2680   70.8470  221.4230 H   0  0  0  0  0  0  0  0  0  0  0  0
  141.5676   71.9818  219.4400 H   0  0  0  0  0  0  0  0  0  0  0  0
  140.1378   73.0696  220.0432 H   0  0  0  0  0  0  0  0  0  0  0  0
  143.6366   76.2989  219.9695 H   0  0  0  0  0  0  0  0  0  0  0  0
  144.2111   74.8132  219.1963 H   0  0  0  0  0  0  0  0  0  0  0  0
  143.5403   77.3343  217.9699 H   0  0  0  0  0  0  0  0  0  0  0  0
  144.1121   75.8671  217.1591 H   0  0  0  0  0  0  0  0  0  0  0  0
  141.5697   76.8950  216.7780 H   0  0  0  0  0  0  0  0  0  0  0  0
  141.8599   75.1959  216.6074 H   0  0  0  0  0  0  0  0  0  0  0  0
  140.1872   75.3761  218.5870 H   0  0  0  0  0  0  0  0  0  0  0  0
  140.9933   81.5502  220.8105 H   0  0  0  0  0  0  0  0  0  0  0  0
  141.5944   83.0447  222.6943 H   0  0  0  0  0  0  0  0  0  0  0  0
  142.6253   82.0394  224.7337 H   0  0  0  0  0  0  0  0  0  0  0  0
  143.0170   79.6271  224.8399 H   0  0  0  0  0  0  0  0  0  0  0  0
  142.4199   78.1076  222.9653 H   0  0  0  0  0  0  0  0  0  0  0  0
  140.0859   80.2453  219.3693 H   0  0  0  0  0  0  0  0  0  0  0  0
  139.1444   70.0086  222.6068 H   0  0  0  0  0  0  0  0  0  0  0  0
  138.8154   68.4775  224.5656 H   0  0  0  0  0  0  0  0  0  0  0  0
  139.2056   68.1123  226.9978 H   0  0  0  0  0  0  0  0  0  0  0  0
  140.1375   68.9091  229.1428 H   0  0  0  0  0  0  0  0  0  0  0  0
  141.3131   71.0869  229.3149 H   0  0  0  0  0  0  0  0  0  0  0  0
  141.5497   72.4840  227.2578 H   0  0  0  0  0  0  0  0  0  0  0  0
  1  2  2  0
  2  3  1  0
  3  4  1  0
  4  5  1  0
  5  6  2  0
  5  7  1  0
  7  8  1  0
  8  9  1  0
  9 10  1  0
 10 11  1  0
 11 12  1  0
 12 13  2  0
 13 14  1  0
 14 15  1  0
 15 16  2  0
 16 17  1  0
 17 18  2  0
 18 19  1  0
 19 20  2  0
 14 21  2  0
 21 22  1  0
  2 23  1  0
 23 24  2  0
 24 25  1  0
 25 26  2  0
 26 27  1  0
 27 28  2  0
 28 29  1  0
 29 30  2  0
 30 31  1  0
 31 32  2  0
 11  7  1  0
 22 12  1  0
 32 23  1  0
 20 15  1  0
 31 26  1  0
  3 33  1  0
  4 34  1  0
  4 35  1  0
  8 36  1  0
  8 37  1  0
  9 38  1  0
  9 39  1  0
 10 40  1  0
 10 41  1  0
 11 42  1  6
 16 43  1  0
 17 44  1  0
 18 45  1  0
 19 46  1  0
 20 47  1  0
 21 48  1  0
 24 49  1  0
 25 50  1  0
 27 51  1  0
 28 52  1  0
 29 53  1  0
 30 54  1  0
M  END
>  <smiles>  (9) 
O=C(NCC(=O)N1CCC[C@@H]1c1nc(-c2ccccc2)co1)c1ccc2ccccc2n1

>  <score_type>  (9) 
oracle

>  <origin>  (9) 
autodockgpu

>  <m_score__min__energy>  (9) 
-9.6699999999999999

>  <m_primary>  (9) 
energy

>  <rmsd>  (9) 
2.996465534567975

>  <m_score__min__rmsd>  (9) 
2.996465534567975

>  <meeko>  (9) 
{"free_energy": -8.83, "intermolecular_energy": -10.62, "internal_energy": -1.47, "cluster_size": 25, "cluster_id": 1, "rank_in_cluster": 17}

>  <energy>  (9) 
-9.35

>  <cluster_rmsd>  (9) 
0.87

>  <cluster>  (9) 
1

$$$$

     RDKit          3D

 54 58  0  0  0  0  0  0  0  0999 V2000
  140.4070   73.0700  222.7190 O   0  0  0  0  0  0  0  0  0  0  0  0
  140.2570   71.8180  222.8700 C   0  0  0  0  0  0  0  0  0  0  0  0
  140.0470   71.0710  221.6630 N   0  0  0  0  0  0  0  0  0  0  0  0
  140.0010   71.6430  220.3600 C   0  0  0  0  0  0  0  0  0  0  0  0
  141.1560   72.2370  219.7540 C   0  0  0  0  0  0  0  0  0  0  0  0
  141.7590   71.4560  218.8720 O   0  0  0  0  0  0  0  0  0  0  0  0
  141.8120   73.4700  219.8820 N   0  0  0  0  0  0  0  0  0  0  0  0
  143.0500   73.5390  220.7260 C   0  0  0  0  0  0  0  0  0  0  0  0
  143.8520   74.6700  220.1830 C   0  0  0  0  0  0  0  0  0  0  0  0
  143.0500   75.2340  219.0290 C   0  0  0  0  0  0  0  0  0  0  0  0
  141.6290   74.8050  219.4510 C   0  0  2  0  0  0  0  0  0  0  0  0
  141.2540   75.7190  220.6020 C   0  0  0  0  0  0  0  0  0  0  0  0
  141.7000   76.9460  220.8660 N   0  0  0  0  0  0  0  0  0  0  0  0
  141.1180   77.4290  221.9910 C   0  0  0  0  0  0  0  0  0  0  0  0
  141.3170   78.7220  222.6360 C   0  0  0  0  0  0  0  0  0  0  0  0
  142.5760   79.2870  222.6840 C   0  0  0  0  0  0  0  0  0  0  0  0
  142.8040   80.5060  223.2830 C   0  0  0  0  0  0  0  0  0  0  0  0
  141.7300   81.1600  223.8460 C   0  0  0  0  0  0  0  0  0  0  0  0
  140.4840   80.5890  223.7930 C   0  0  0  0  0  0  0  0  0  0  0  0
  140.2340   79.3670  223.1950 C   0  0  0  0  0  0  0  0  0  0  0  0
  140.2790   76.4130  222.4080 C   0  0  0  0  0  0  0  0  0  0  0  0
  140.3970   75.4270  221.5510 O   0  0  0  0  0  0  0  0  0  0  0  0
  140.2960   71.1910  224.1640 C   0  0  0  0  0  0  0  0  0  0  0  0
  140.7530   71.9230  225.2370 C   0  0  0  0  0  0  0  0  0  0  0  0
  140.8150   71.3750  226.5150 C   0  0  0  0  0  0  0  0  0  0  0  0
  140.3930   70.0560  226.6520 C   0  0  0  0  0  0  0  0  0  0  0  0
  140.4100   69.4100  227.8740 C   0  0  0  0  0  0  0  0  0  0  0  0
  139.9800   68.0940  227.9650 C   0  0  0  0  0  0  0  0  0  0  0  0
  139.5270   67.3900  226.8650 C   0  0  0  0  0  0  0  0  0  0  0  0
  139.5110   68.0360  225.6460 C   0  0  0  0  0  0  0  0  0  0  0  0
  139.9410   69.3550  225.5550 C   0  0  0  0  0  0  0  0  0  0  0  0
  139.8860   69.9020  224.3150 N   0  0  0  0  0  0  0  0  0  0  0  0
  139.9280   70.0290  221.8270 H   0  0  0  0  0  0  0  0  0  0  0  0
  139.6748   70.8406  219.6819 H   0  0  0  0  0  0  0  0  0  0  0  0
  139.3440   72.5123  220.5105 H   0  0  0  0  0  0  0  0  0  0  0  0
  142.7863   73.7270  221.7772 H   0  0  0  0  0  0  0  0  0  0  0  0
  143.6124   72.5941  220.6957 H   0  0  0  0  0  0  0  0  0  0  0  0
  144.0017   75.4382  220.9560 H   0  0  0  0  0  0  0  0  0  0  0  0
  144.8484   74.3373  219.8567 H   0  0  0  0  0  0  0  0  0  0  0  0
  143.1431   76.3281  218.9640 H   0  0  0  0  0  0  0  0  0  0  0  0
  143.3623   74.8834  218.0343 H   0  0  0  0  0  0  0  0  0  0  0  0
  140.8461   74.8665  218.6807 H   0  0  0  0  0  0  0  0  0  0  0  0
  143.4211   78.7480  222.2308 H   0  0  0  0  0  0  0  0  0  0  0  0
  143.8126   80.9440  223.3111 H   0  0  0  0  0  0  0  0  0  0  0  0
  141.8710   82.1350  224.3354 H   0  0  0  0  0  0  0  0  0  0  0  0
  139.6415   81.1298  224.2488 H   0  0  0  0  0  0  0  0  0  0  0  0
  139.2239   78.9324  223.1669 H   0  0  0  0  0  0  0  0  0  0  0  0
  139.6306   76.4284  223.2965 H   0  0  0  0  0  0  0  0  0  0  0  0
  141.0759   72.9629  225.0809 H   0  0  0  0  0  0  0  0  0  0  0  0
  141.1798   71.9562  227.3748 H   0  0  0  0  0  0  0  0  0  0  0  0
  140.7635   69.9379  228.7719 H   0  0  0  0  0  0  0  0  0  0  0  0
  140.0002   67.5944  228.9448 H   0  0  0  0  0  0  0  0  0  0  0  0
  139.1897   66.3472  226.9586 H   0  0  0  0  0  0  0  0  0  0  0  0
  139.1586   67.5083  224.7475 H   0  0  0  0  0  0  0  0  0  0  0  0
  1  2  2  0
  2  3  1  0
  3  4  1  0
  4  5  1  0
  5  6  2  0
  5  7  1  0
  7  8  1  0
  8  9  1  0
  9 10  1  0
 10 11  1  0
 11 12  1  0
 12 13  2  0
 13 14  1  0
 14 15  1  0
 15 16  2  0
 16 17  1  0
 17 18  2  0
 18 19  1  0
 19 20  2  0
 14 21  2  0
 21 22  1  0
  2 23  1  0
 23 24  2  0
 24 25  1  0
 25 26  2  0
 26 27  1  0
 27 28  2  0
 28 29  1  0
 29 30  2  0
 30 31  1  0
 31 32  2  0
 11  7  1  0
 22 12  1  0
 32 23  1  0
 20 15  1  0
 31 26  1  0
  3 33  1  0
  4 34  1  0
  4 35  1  0
  8 36  1  0
  8 37  1  0
  9 38  1  0
  9 39  1  0
 10 40  1  0
 10 41  1  0
 11 42  1  6
 16 43  1  0
 17 44  1  0
 18 45  1  0
 19 46  1  0
 20 47  1  0
 21 48  1  0
 24 49  1  0
 25 50  1  0
 27 51  1  0
 28 52  1  0
 29 53  1  0
 30 54  1  0
M  END
>  <smiles>  (10) 
O=C(NCC(=O)N1CCC[C@@H]1c1nc(-c2ccccc2)co1)c1ccc2ccccc2n1

>  <score_type>  (10) 
oracle

>  <origin>  (10) 
autodockgpu

>  <m_score__min__energy>  (10) 
-9.6699999999999999

>  <m_primary>  (10) 
energy

>  <rmsd>  (10) 
3.8059599631148955

>  <m_score__min__rmsd>  (10) 
3.8059599631148955

>  <meeko>  (10) 
{"free_energy": -9.47, "intermolecular_energy": -11.26, "internal_energy": -2.1, "cluster_size": 25, "cluster_id": 1, "rank_in_cluster": 4}

>  <energy>  (10) 
-9.22

>  <cluster_rmsd>  (10) 
0.98

>  <cluster>  (10) 
1

$$$$

     RDKit          3D

 54 58  0  0  0  0  0  0  0  0999 V2000
  139.8980   72.9950  222.6340 O   0  0  0  0  0  0  0  0  0  0  0  0
  139.3060   71.9640  223.0820 C   0  0  0  0  0  0  0  0  0  0  0  0
  138.1240   71.5710  222.3700 N   0  0  0  0  0  0  0  0  0  0  0  0
  137.6060   72.2530  221.2330 C   0  0  0  0  0  0  0  0  0  0  0  0
  136.7690   73.4080  221.3620 C   0  0  0  0  0  0  0  0  0  0  0  0
  135.4770   73.1260  221.4430 O   0  0  0  0  0  0  0  0  0  0  0  0
  136.9970   74.7910  221.4180 N   0  0  0  0  0  0  0  0  0  0  0  0
  137.1650   75.5420  220.1300 C   0  0  0  0  0  0  0  0  0  0  0  0
  136.7390   76.9400  220.4140 C   0  0  0  0  0  0  0  0  0  0  0  0
  136.3320   76.9640  221.8720 C   0  0  0  0  0  0  0  0  0  0  0  0
  137.1730   75.7850  222.4080 C   0  0  2  0  0  0  0  0  0  0  0  0
  138.6030   76.2910  222.4460 C   0  0  0  0  0  0  0  0  0  0  0  0
  139.0390   77.5260  222.6820 N   0  0  0  0  0  0  0  0  0  0  0  0
  140.3930   77.5680  222.6290 C   0  0  0  0  0  0  0  0  0  0  0  0
  141.2780   78.7120  222.8240 C   0  0  0  0  0  0  0  0  0  0  0  0
  141.6890   79.4640  221.7420 C   0  0  0  0  0  0  0  0  0  0  0  0
  142.5230   80.5510  221.8860 C   0  0  0  0  0  0  0  0  0  0  0  0
  142.9470   80.8750  223.1560 C   0  0  0  0  0  0  0  0  0  0  0  0
  142.5320   80.1210  224.2240 C   0  0  0  0  0  0  0  0  0  0  0  0
  141.6950   79.0270  224.1010 C   0  0  0  0  0  0  0  0  0  0  0  0
  140.7670   76.2690  222.3420 C   0  0  0  0  0  0  0  0  0  0  0  0
  139.6700   75.5550  222.2450 O   0  0  0  0  0  0  0  0  0  0  0  0
  139.7900   71.2400  224.2270 C   0  0  0  0  0  0  0  0  0  0  0  0
  140.7010   71.8530  225.0580 C   0  0  0  0  0  0  0  0  0  0  0  0
  141.2070   71.2060  226.1820 C   0  0  0  0  0  0  0  0  0  0  0  0
  140.7480   69.9150  226.4210 C   0  0  0  0  0  0  0  0  0  0  0  0
  141.1820   69.1770  227.5080 C   0  0  0  0  0  0  0  0  0  0  0  0
  140.6970   67.8930  227.7080 C   0  0  0  0  0  0  0  0  0  0  0  0
  139.7820   67.3090  226.8520 C   0  0  0  0  0  0  0  0  0  0  0  0
  139.3500   68.0460  225.7680 C   0  0  0  0  0  0  0  0  0  0  0  0
  139.8350   69.3330  225.5680 C   0  0  0  0  0  0  0  0  0  0  0  0
  139.3500   69.9760  224.4750 N   0  0  0  0  0  0  0  0  0  0  0  0
  137.6580   70.7060  222.7710 H   0  0  0  0  0  0  0  0  0  0  0  0
  138.4764   72.5673  220.6383 H   0  0  0  0  0  0  0  0  0  0  0  0
  136.9138   71.5096  220.8107 H   0  0  0  0  0  0  0  0  0  0  0  0
  138.2169   75.5203  219.8089 H   0  0  0  0  0  0  0  0  0  0  0  0
  136.5688   75.0947  219.3211 H   0  0  0  0  0  0  0  0  0  0  0  0
  137.5720   77.6366  220.2382 H   0  0  0  0  0  0  0  0  0  0  0  0
  135.9111   77.2499  219.7594 H   0  0  0  0  0  0  0  0  0  0  0  0
  136.6055   77.9131  222.3561 H   0  0  0  0  0  0  0  0  0  0  0  0
  135.2500   76.8789  222.0512 H   0  0  0  0  0  0  0  0  0  0  0  0
  136.9067   75.4012  223.4039 H   0  0  0  0  0  0  0  0  0  0  0  0
  141.3406   79.1874  220.7359 H   0  0  0  0  0  0  0  0  0  0  0  0
  142.8404   81.1418  221.0141 H   0  0  0  0  0  0  0  0  0  0  0  0
  143.6154   81.7345  223.3129 H   0  0  0  0  0  0  0  0  0  0  0  0
  142.8824   80.4005  225.2285 H   0  0  0  0  0  0  0  0  0  0  0  0
  141.3784   78.4390  224.9751 H   0  0  0  0  0  0  0  0  0  0  0  0
  141.7960   75.9007  222.2176 H   0  0  0  0  0  0  0  0  0  0  0  0
  141.0360   72.8754  224.8288 H   0  0  0  0  0  0  0  0  0  0  0  0
  141.9344   71.6922  226.8487 H   0  0  0  0  0  0  0  0  0  0  0  0
  141.9097   69.6074  228.2117 H   0  0  0  0  0  0  0  0  0  0  0  0
  141.0525   67.3200  228.5771 H   0  0  0  0  0  0  0  0  0  0  0  0
  139.4100   66.2891  227.0292 H   0  0  0  0  0  0  0  0  0  0  0  0
  138.6231   67.6155  225.0636 H   0  0  0  0  0  0  0  0  0  0  0  0
  1  2  2  0
  2  3  1  0
  3  4  1  0
  4  5  1  0
  5  6  2  0
  5  7  1  0
  7  8  1  0
  8  9  1  0
  9 10  1  0
 10 11  1  0
 11 12  1  0
 12 13  2  0
 13 14  1  0
 14 15  1  0
 15 16  2  0
 16 17  1  0
 17 18  2  0
 18 19  1  0
 19 20  2  0
 14 21  2  0
 21 22  1  0
  2 23  1  0
 23 24  2  0
 24 25  1  0
 25 26  2  0
 26 27  1  0
 27 28  2  0
 28 29  1  0
 29 30  2  0
 30 31  1  0
 31 32  2  0
 11  7  1  0
 22 12  1  0
 32 23  1  0
 20 15  1  0
 31 26  1  0
  3 33  1  0
  4 34  1  0
  4 35  1  0
  8 36  1  0
  8 37  1  0
  9 38  1  0
  9 39  1  0
 10 40  1  0
 10 41  1  0
 11 42  1  1
 16 43  1  0
 17 44  1  0
 18 45  1  0
 19 46  1  0
 20 47  1  0
 21 48  1  0
 24 49  1  0
 25 50  1  0
 27 51  1  0
 28 52  1  0
 29 53  1  0
 30 54  1  0
M  END
>  <smiles>  (11) 
O=C(NCC(=O)N1CCC[C@@H]1c1nc(-c2ccccc2)co1)c1ccc2ccccc2n1

>  <score_type>  (11) 
oracle

>  <origin>  (11) 
autodockgpu

>  <m_score__min__energy>  (11) 
-9.6699999999999999

>  <m_primary>  (11) 
energy

>  <rmsd>  (11) 
3.990325451586136

>  <m_score__min__rmsd>  (11) 
3.990325451586136

>  <meeko>  (11) 
{"free_energy": -8.79, "intermolecular_energy": -10.58, "internal_energy": -2.02, "cluster_size": 21, "cluster_id": 2, "rank_in_cluster": 15}

>  <energy>  (11) 
-9.15

>  <cluster_rmsd>  (11) 
1.4

>  <cluster>  (11) 
1

$$$$

     RDKit          3D

 54 58  0  0  0  0  0  0  0  0999 V2000
  141.5240   76.0350  218.6070 O   0  0  0  0  0  0  0  0  0  0  0  0
  141.9550   76.3740  219.7520 C   0  0  0  0  0  0  0  0  0  0  0  0
  142.5000   75.3110  220.5480 N   0  0  0  0  0  0  0  0  0  0  0  0
  142.5770   73.9520  220.1300 C   0  0  0  0  0  0  0  0  0  0  0  0
  141.8560   72.9130  220.8020 C   0  0  0  0  0  0  0  0  0  0  0  0
  142.5960   71.8580  221.1070 O   0  0  0  0  0  0  0  0  0  0  0  0
  140.5270   72.7450  221.2170 N   0  0  0  0  0  0  0  0  0  0  0  0
  139.8400   73.8900  221.9020 C   0  0  0  0  0  0  0  0  0  0  0  0
  138.3860   73.7110  221.6340 C   0  0  0  0  0  0  0  0  0  0  0  0
  138.2660   72.4570  220.7950 C   0  0  0  0  0  0  0  0  0  0  0  0
  139.5520   71.7190  221.2240 C   0  0  2  0  0  0  0  0  0  0  0  0
  139.2810   71.2150  222.6290 C   0  0  0  0  0  0  0  0  0  0  0  0
  140.1570   70.9110  223.5850 N   0  0  0  0  0  0  0  0  0  0  0  0
  139.5130   70.4950  224.7020 C   0  0  0  0  0  0  0  0  0  0  0  0
  140.0810   70.0670  225.9760 C   0  0  0  0  0  0  0  0  0  0  0  0
  140.1980   68.7230  226.2670 C   0  0  0  0  0  0  0  0  0  0  0  0
  140.7310   68.2800  227.4580 C   0  0  0  0  0  0  0  0  0  0  0  0
  141.1490   69.2250  228.3680 C   0  0  0  0  0  0  0  0  0  0  0  0
  141.0280   70.5580  228.0690 C   0  0  0  0  0  0  0  0  0  0  0  0
  140.4980   71.0230  226.8800 C   0  0  0  0  0  0  0  0  0  0  0  0
  138.1720   70.5610  224.3720 C   0  0  0  0  0  0  0  0  0  0  0  0
  138.0910   70.9930  223.1360 O   0  0  0  0  0  0  0  0  0  0  0  0
  141.9000   77.7330  220.2200 C   0  0  0  0  0  0  0  0  0  0  0  0
  141.8640   78.7490  219.2910 C   0  0  0  0  0  0  0  0  0  0  0  0
  141.8100   80.0850  219.6790 C   0  0  0  0  0  0  0  0  0  0  0  0
  141.7960   80.3400  221.0470 C   0  0  0  0  0  0  0  0  0  0  0  0
  141.7430   81.6280  221.5470 C   0  0  0  0  0  0  0  0  0  0  0  0
  141.7300   81.8360  222.9180 C   0  0  0  0  0  0  0  0  0  0  0  0
  141.7670   80.7910  223.8220 C   0  0  0  0  0  0  0  0  0  0  0  0
  141.8200   79.5050  223.3220 C   0  0  0  0  0  0  0  0  0  0  0  0
  141.8320   79.2970  221.9480 C   0  0  0  0  0  0  0  0  0  0  0  0
  141.8840   77.9990  221.5560 N   0  0  0  0  0  0  0  0  0  0  0  0
  142.8510   75.6320  221.4970 H   0  0  0  0  0  0  0  0  0  0  0  0
  142.2426   73.9319  219.0823 H   0  0  0  0  0  0  0  0  0  0  0  0
  143.6219   73.6966  220.3601 H   0  0  0  0  0  0  0  0  0  0  0  0
  140.0362   73.8622  222.9840 H   0  0  0  0  0  0  0  0  0  0  0  0
  140.2032   74.8599  221.5312 H   0  0  0  0  0  0  0  0  0  0  0  0
  137.8353   73.5925  222.5788 H   0  0  0  0  0  0  0  0  0  0  0  0
  137.9621   74.5838  221.1158 H   0  0  0  0  0  0  0  0  0  0  0  0
  137.3627   71.8824  221.0477 H   0  0  0  0  0  0  0  0  0  0  0  0
  138.1730   72.6322  219.7130 H   0  0  0  0  0  0  0  0  0  0  0  0
  139.8664   70.8711  220.5977 H   0  0  0  0  0  0  0  0  0  0  0  0
  139.8560   67.9844  225.5271 H   0  0  0  0  0  0  0  0  0  0  0  0
  140.8198   67.2053  227.6749 H   0  0  0  0  0  0  0  0  0  0  0  0
  141.5784   68.9120  229.3312 H   0  0  0  0  0  0  0  0  0  0  0  0
  141.3696   71.2935  228.8121 H   0  0  0  0  0  0  0  0  0  0  0  0
  140.4130   72.0985  226.6656 H   0  0  0  0  0  0  0  0  0  0  0  0
  137.3274   70.2991  225.0263 H   0  0  0  0  0  0  0  0  0  0  0  0
  141.8782   78.4997  218.2197 H   0  0  0  0  0  0  0  0  0  0  0  0
  141.7799   80.8994  218.9402 H   0  0  0  0  0  0  0  0  0  0  0  0
  141.7112   82.4856  220.8589 H   0  0  0  0  0  0  0  0  0  0  0  0
  141.6889   82.8671  223.2989 H   0  0  0  0  0  0  0  0  0  0  0  0
  141.7546   80.9780  224.9059 H   0  0  0  0  0  0  0  0  0  0  0  0
  141.8527   78.6471  224.0097 H   0  0  0  0  0  0  0  0  0  0  0  0
  1  2  2  0
  2  3  1  0
  3  4  1  0
  4  5  1  0
  5  6  2  0
  5  7  1  0
  7  8  1  0
  8  9  1  0
  9 10  1  0
 10 11  1  0
 11 12  1  0
 12 13  2  0
 13 14  1  0
 14 15  1  0
 15 16  2  0
 16 17  1  0
 17 18  2  0
 18 19  1  0
 19 20  2  0
 14 21  2  0
 21 22  1  0
  2 23  1  0
 23 24  2  0
 24 25  1  0
 25 26  2  0
 26 27  1  0
 27 28  2  0
 28 29  1  0
 29 30  2  0
 30 31  1  0
 31 32  2  0
 11  7  1  0
 22 12  1  0
 32 23  1  0
 20 15  1  0
 31 26  1  0
  3 33  1  0
  4 34  1  0
  4 35  1  0
  8 36  1  0
  8 37  1  0
  9 38  1  0
  9 39  1  0
 10 40  1  0
 10 41  1  0
 11 42  1  6
 16 43  1  0
 17 44  1  0
 18 45  1  0
 19 46  1  0
 20 47  1  0
 21 48  1  0
 24 49  1  0
 25 50  1  0
 27 51  1  0
 28 52  1  0
 29 53  1  0
 30 54  1  0
M  END
>  <smiles>  (12) 
O=C(NCC(=O)N1CCC[C@@H]1c1nc(-c2ccccc2)co1)c1ccc2ccccc2n1

>  <score_type>  (12) 
oracle

>  <origin>  (12) 
autodockgpu

>  <m_score__min__energy>  (12) 
-9.6699999999999999

>  <m_primary>  (12) 
energy

>  <rmsd>  (12) 
9.824166195559325

>  <m_score__min__rmsd>  (12) 
9.824166195559325

>  <meeko>  (12) 
{"free_energy": -8.53, "intermolecular_energy": -10.32, "internal_energy": -1.83, "cluster_size": 25, "cluster_id": 1, "rank_in_cluster": 23}

>  <energy>  (12) 
-8.95

>  <cluster_rmsd>  (12) 
0.81

>  <cluster>  (12) 
1

$$$$

     RDKit          3D

 54 58  0  0  0  0  0  0  0  0999 V2000
  140.3590   72.8060  222.5650 O   0  0  0  0  0  0  0  0  0  0  0  0
  139.7340   71.7780  222.9720 C   0  0  0  0  0  0  0  0  0  0  0  0
  138.7460   71.2580  222.0710 N   0  0  0  0  0  0  0  0  0  0  0  0
  138.4470   71.8160  220.7950 C   0  0  0  0  0  0  0  0  0  0  0  0
  137.5470   72.9200  220.6450 C   0  0  0  0  0  0  0  0  0  0  0  0
  136.5080   72.6620  219.8670 O   0  0  0  0  0  0  0  0  0  0  0  0
  137.5090   74.2350  221.1340 N   0  0  0  0  0  0  0  0  0  0  0  0
  137.2150   75.3480  220.1720 C   0  0  0  0  0  0  0  0  0  0  0  0
  136.6060   76.4380  220.9830 C   0  0  0  0  0  0  0  0  0  0  0  0
  136.5630   75.9240  222.4070 C   0  0  0  0  0  0  0  0  0  0  0  0
  137.7200   74.9040  222.3620 C   0  0  2  0  0  0  0  0  0  0  0  0
  138.9920   75.7320  222.3380 C   0  0  0  0  0  0  0  0  0  0  0  0
  139.1490   77.0180  222.6430 N   0  0  0  0  0  0  0  0  0  0  0  0
  140.4460   77.3840  222.4950 C   0  0  0  0  0  0  0  0  0  0  0  0
  141.0550   78.6910  222.7200 C   0  0  0  0  0  0  0  0  0  0  0  0
  140.8380   79.7200  221.8270 C   0  0  0  0  0  0  0  0  0  0  0  0
  141.3940   80.9680  222.0040 C   0  0  0  0  0  0  0  0  0  0  0  0
  142.1880   81.1680  223.1120 C   0  0  0  0  0  0  0  0  0  0  0  0
  142.3970   80.1380  223.9930 C   0  0  0  0  0  0  0  0  0  0  0  0
  141.8470   78.8790  223.8330 C   0  0  0  0  0  0  0  0  0  0  0  0
  141.0830   76.2320  222.0740 C   0  0  0  0  0  0  0  0  0  0  0  0
  140.1780   75.2860  221.9990 O   0  0  0  0  0  0  0  0  0  0  0  0
  139.9980   71.1770  224.2510 C   0  0  0  0  0  0  0  0  0  0  0  0
  140.7260   71.8910  225.1770 C   0  0  0  0  0  0  0  0  0  0  0  0
  141.0160   71.3650  226.4340 C   0  0  0  0  0  0  0  0  0  0  0  0
  140.5360   70.0880  226.7040 C   0  0  0  0  0  0  0  0  0  0  0  0
  140.7630   69.4670  227.9180 C   0  0  0  0  0  0  0  0  0  0  0  0
  140.2640   68.1920  228.1450 C   0  0  0  0  0  0  0  0  0  0  0  0
  139.5370   67.5050  227.1920 C   0  0  0  0  0  0  0  0  0  0  0  0
  139.3110   68.1260  225.9800 C   0  0  0  0  0  0  0  0  0  0  0  0
  139.8100   69.4030  225.7530 C   0  0  0  0  0  0  0  0  0  0  0  0
  139.5340   69.9280  224.5320 N   0  0  0  0  0  0  0  0  0  0  0  0
  138.2440   70.4000  222.4430 H   0  0  0  0  0  0  0  0  0  0  0  0
  139.4072   72.1403  220.3673 H   0  0  0  0  0  0  0  0  0  0  0  0
  137.8958   70.9986  220.3071 H   0  0  0  0  0  0  0  0  0  0  0  0
  138.1431   75.6978  219.6963 H   0  0  0  0  0  0  0  0  0  0  0  0
  136.5414   75.0188  219.3671 H   0  0  0  0  0  0  0  0  0  0  0  0
  137.2210   77.3481  220.9235 H   0  0  0  0  0  0  0  0  0  0  0  0
  135.6016   76.6989  220.6181 H   0  0  0  0  0  0  0  0  0  0  0  0
  136.7542   76.7255  223.1357 H   0  0  0  0  0  0  0  0  0  0  0  0
  135.5933   75.5094  222.7196 H   0  0  0  0  0  0  0  0  0  0  0  0
  137.7795   74.1888  223.1957 H   0  0  0  0  0  0  0  0  0  0  0  0
  140.2023   79.5386  220.9478 H   0  0  0  0  0  0  0  0  0  0  0  0
  141.2099   81.7788  221.2838 H   0  0  0  0  0  0  0  0  0  0  0  0
  142.6522   82.1494  223.2892 H   0  0  0  0  0  0  0  0  0  0  0  0
  143.0339   80.3223  224.8707 H   0  0  0  0  0  0  0  0  0  0  0  0
  142.0317   78.0704  224.5555 H   0  0  0  0  0  0  0  0  0  0  0  0
  142.1536   76.1277  221.8439 H   0  0  0  0  0  0  0  0  0  0  0  0
  141.0860   72.8978  224.9185 H   0  0  0  0  0  0  0  0  0  0  0  0
  141.5963   71.9321  227.1767 H   0  0  0  0  0  0  0  0  0  0  0  0
  141.3376   69.9820  228.7020 H   0  0  0  0  0  0  0  0  0  0  0  0
  140.4538   67.7122  229.1165 H   0  0  0  0  0  0  0  0  0  0  0  0
  139.1504   66.4949  227.3927 H   0  0  0  0  0  0  0  0  0  0  0  0
  138.7371   67.6111  225.1955 H   0  0  0  0  0  0  0  0  0  0  0  0
  1  2  2  0
  2  3  1  0
  3  4  1  0
  4  5  1  0
  5  6  2  0
  5  7  1  0
  7  8  1  0
  8  9  1  0
  9 10  1  0
 10 11  1  0
 11 12  1  0
 12 13  2  0
 13 14  1  0
 14 15  1  0
 15 16  2  0
 16 17  1  0
 17 18  2  0
 18 19  1  0
 19 20  2  0
 14 21  2  0
 21 22  1  0
  2 23  1  0
 23 24  2  0
 24 25  1  0
 25 26  2  0
 26 27  1  0
 27 28  2  0
 28 29  1  0
 29 30  2  0
 30 31  1  0
 31 32  2  0
 11  7  1  0
 22 12  1  0
 32 23  1  0
 20 15  1  0
 31 26  1  0
  3 33  1  0
  4 34  1  0
  4 35  1  0
  8 36  1  0
  8 37  1  0
  9 38  1  0
  9 39  1  0
 10 40  1  0
 10 41  1  0
 11 42  1  1
 16 43  1  0
 17 44  1  0
 18 45  1  0
 19 46  1  0
 20 47  1  0
 21 48  1  0
 24 49  1  0
 25 50  1  0
 27 51  1  0
 28 52  1  0
 29 53  1  0
 30 54  1  0
M  END
>  <smiles>  (13) 
O=C(NCC(=O)N1CCC[C@@H]1c1nc(-c2ccccc2)co1)c1ccc2ccccc2n1

>  <score_type>  (13) 
oracle

>  <origin>  (13) 
autodockgpu

>  <m_score__min__energy>  (13) 
-9.6699999999999999

>  <m_primary>  (13) 
energy

>  <rmsd>  (13) 
3.9232825997997

>  <m_score__min__rmsd>  (13) 
3.9232825997997

>  <meeko>  (13) 
{"free_energy": -8.95, "intermolecular_energy": -10.74, "internal_energy": -2.05, "cluster_size": 21, "cluster_id": 2, "rank_in_cluster": 8}

>  <energy>  (13) 
-8.88

>  <cluster_rmsd>  (13) 
1.1

>  <cluster>  (13) 
1

$$$$

     RDKit          3D

 54 58  0  0  0  0  0  0  0  0999 V2000
  139.0130   69.9280  221.2870 O   0  0  0  0  0  0  0  0  0  0  0  0
  139.6390   70.6840  222.0930 C   0  0  0  0  0  0  0  0  0  0  0  0
  140.2560   71.8380  221.5050 N   0  0  0  0  0  0  0  0  0  0  0  0
  140.2020   72.1620  220.1200 C   0  0  0  0  0  0  0  0  0  0  0  0
  141.2930   72.8030  219.4500 C   0  0  0  0  0  0  0  0  0  0  0  0
  141.7700   72.1150  218.4240 O   0  0  0  0  0  0  0  0  0  0  0  0
  141.9920   74.0060  219.6310 N   0  0  0  0  0  0  0  0  0  0  0  0
  143.2460   73.9890  220.4540 C   0  0  0  0  0  0  0  0  0  0  0  0
  144.0750   75.1220  219.9570 C   0  0  0  0  0  0  0  0  0  0  0  0
  143.2720   75.7730  218.8510 C   0  0  0  0  0  0  0  0  0  0  0  0
  141.8450   75.3670  219.2760 C   0  0  2  0  0  0  0  0  0  0  0  0
  141.5210   76.2290  220.4830 C   0  0  0  0  0  0  0  0  0  0  0  0
  141.9400   77.4620  220.7580 N   0  0  0  0  0  0  0  0  0  0  0  0
  141.4240   77.8860  221.9370 C   0  0  0  0  0  0  0  0  0  0  0  0
  141.6220   79.1640  222.6120 C   0  0  0  0  0  0  0  0  0  0  0  0
  140.5490   80.0030  222.8370 C   0  0  0  0  0  0  0  0  0  0  0  0
  140.6950   81.2170  223.4710 C   0  0  0  0  0  0  0  0  0  0  0  0
  141.9590   81.5830  223.8810 C   0  0  0  0  0  0  0  0  0  0  0  0
  143.0170   80.7420  223.6520 C   0  0  0  0  0  0  0  0  0  0  0  0
  142.8920   79.5190  223.0180 C   0  0  0  0  0  0  0  0  0  0  0  0
  140.6530   76.8260  222.3760 C   0  0  0  0  0  0  0  0  0  0  0  0
  140.7450   75.8730  221.4790 O   0  0  0  0  0  0  0  0  0  0  0  0
  139.7230   70.4010  223.5010 C   0  0  0  0  0  0  0  0  0  0  0  0
  139.1600   69.2370  223.9740 C   0  0  0  0  0  0  0  0  0  0  0  0
  139.2070   68.9050  225.3250 C   0  0  0  0  0  0  0  0  0  0  0  0
  139.8490   69.8050  226.1690 C   0  0  0  0  0  0  0  0  0  0  0  0
  139.9570   69.5790  227.5290 C   0  0  0  0  0  0  0  0  0  0  0  0
  140.6070   70.5040  228.3330 C   0  0  0  0  0  0  0  0  0  0  0  0
  141.1610   71.6630  227.8230 C   0  0  0  0  0  0  0  0  0  0  0  0
  141.0530   71.8880  226.4650 C   0  0  0  0  0  0  0  0  0  0  0  0
  140.4030   70.9610  225.6600 C   0  0  0  0  0  0  0  0  0  0  0  0
  140.3490   71.2720  224.3400 N   0  0  0  0  0  0  0  0  0  0  0  0
  140.7690   72.4460  222.2080 H   0  0  0  0  0  0  0  0  0  0  0  0
  140.0271   71.2151  219.5883 H   0  0  0  0  0  0  0  0  0  0  0  0
  139.4243   72.9395  220.0936 H   0  0  0  0  0  0  0  0  0  0  0  0
  143.0070   74.1278  221.5187 H   0  0  0  0  0  0  0  0  0  0  0  0
  143.7764   73.0296  220.3626 H   0  0  0  0  0  0  0  0  0  0  0  0
  144.2634   75.8419  220.7671 H   0  0  0  0  0  0  0  0  0  0  0  0
  145.0540   74.7760  219.5940 H   0  0  0  0  0  0  0  0  0  0  0  0
  143.3997   76.8655  218.8434 H   0  0  0  0  0  0  0  0  0  0  0  0
  143.5554   75.4672  217.8331 H   0  0  0  0  0  0  0  0  0  0  0  0
  141.0511   75.4951  218.5254 H   0  0  0  0  0  0  0  0  0  0  0  0
  139.5487   79.6931  222.5003 H   0  0  0  0  0  0  0  0  0  0  0  0
  139.8299   81.8739  223.6447 H   0  0  0  0  0  0  0  0  0  0  0  0
  142.1180   82.5453  224.3895 H   0  0  0  0  0  0  0  0  0  0  0  0
  144.0159   81.0556  223.9895 H   0  0  0  0  0  0  0  0  0  0  0  0
  143.7591   78.8642  222.8466 H   0  0  0  0  0  0  0  0  0  0  0  0
  140.0690   76.7884  223.3074 H   0  0  0  0  0  0  0  0  0  0  0  0
  138.6624   68.5547  223.2691 H   0  0  0  0  0  0  0  0  0  0  0  0
  138.7582   67.9760  225.7066 H   0  0  0  0  0  0  0  0  0  0  0  0
  139.5285   68.6680  227.9722 H   0  0  0  0  0  0  0  0  0  0  0  0
  140.6841   70.3085  229.4127 H   0  0  0  0  0  0  0  0  0  0  0  0
  141.6720   72.3836  228.4785 H   0  0  0  0  0  0  0  0  0  0  0  0
  141.4807   72.7993  226.0215 H   0  0  0  0  0  0  0  0  0  0  0  0
  1  2  2  0
  2  3  1  0
  3  4  1  0
  4  5  1  0
  5  6  2  0
  5  7  1  0
  7  8  1  0
  8  9  1  0
  9 10  1  0
 10 11  1  0
 11 12  1  0
 12 13  2  0
 13 14  1  0
 14 15  1  0
 15 16  2  0
 16 17  1  0
 17 18  2  0
 18 19  1  0
 19 20  2  0
 14 21  2  0
 21 22  1  0
  2 23  1  0
 23 24  2  0
 24 25  1  0
 25 26  2  0
 26 27  1  0
 27 28  2  0
 28 29  1  0
 29 30  2  0
 30 31  1  0
 31 32  2  0
 11  7  1  0
 22 12  1  0
 32 23  1  0
 20 15  1  0
 31 26  1  0
  3 33  1  0
  4 34  1  0
  4 35  1  0
  8 36  1  0
  8 37  1  0
  9 38  1  0
  9 39  1  0
 10 40  1  0
 10 41  1  0
 11 42  1  6
 16 43  1  0
 17 44  1  0
 18 45  1  0
 19 46  1  0
 20 47  1  0
 21 48  1  0
 24 49  1  0
 25 50  1  0
 27 51  1  0
 28 52  1  0
 29 53  1  0
 30 54  1  0
M  END
>  <smiles>  (14) 
O=C(NCC(=O)N1CCC[C@@H]1c1nc(-c2ccccc2)co1)c1ccc2ccccc2n1

>  <score_type>  (14) 
oracle

>  <origin>  (14) 
autodockgpu

>  <m_score__min__energy>  (14) 
-9.6699999999999999

>  <m_primary>  (14) 
energy

>  <rmsd>  (14) 
2.984307962589245

>  <m_score__min__rmsd>  (14) 
2.984307962589245

>  <meeko>  (14) 
{"free_energy": -8.87, "intermolecular_energy": -10.66, "internal_energy": -1.84, "cluster_size": 25, "cluster_id": 1, "rank_in_cluster": 14}

>  <energy>  (14) 
-8.87

>  <cluster_rmsd>  (14) 
0.91

>  <cluster>  (14) 
1

$$$$

     RDKit          3D

 54 58  0  0  0  0  0  0  0  0999 V2000
  139.8500   73.2740  222.4610 O   0  0  0  0  0  0  0  0  0  0  0  0
  139.7670   72.0080  222.5150 C   0  0  0  0  0  0  0  0  0  0  0  0
  139.4860   71.3530  221.2700 N   0  0  0  0  0  0  0  0  0  0  0  0
  139.3020   72.0280  220.0300 C   0  0  0  0  0  0  0  0  0  0  0  0
  140.3800   72.7040  219.3710 C   0  0  0  0  0  0  0  0  0  0  0  0
  140.5490   72.3410  218.1090 O   0  0  0  0  0  0  0  0  0  0  0  0
  141.3170   73.6740  219.7560 N   0  0  0  0  0  0  0  0  0  0  0  0
  142.3020   73.3300  220.8350 C   0  0  0  0  0  0  0  0  0  0  0  0
  143.4950   74.1850  220.5850 C   0  0  0  0  0  0  0  0  0  0  0  0
  143.1690   75.0100  219.3590 C   0  0  0  0  0  0  0  0  0  0  0  0
  141.6280   75.0170  219.4390 C   0  0  2  0  0  0  0  0  0  0  0  0
  141.2850   75.9560  220.5800 C   0  0  0  0  0  0  0  0  0  0  0  0
  141.8290   77.1340  220.8770 N   0  0  0  0  0  0  0  0  0  0  0  0
  141.2420   77.6630  221.9780 C   0  0  0  0  0  0  0  0  0  0  0  0
  141.5290   78.9290  222.6440 C   0  0  0  0  0  0  0  0  0  0  0  0
  140.4990   79.6920  223.1560 C   0  0  0  0  0  0  0  0  0  0  0  0
  140.7300   80.8920  223.7920 C   0  0  0  0  0  0  0  0  0  0  0  0
  142.0340   81.3210  223.9070 C   0  0  0  0  0  0  0  0  0  0  0  0
  143.0490   80.5550  223.3950 C   0  0  0  0  0  0  0  0  0  0  0  0
  142.8390   79.3480  222.7540 C   0  0  0  0  0  0  0  0  0  0  0  0
  140.2930   76.7280  222.3450 C   0  0  0  0  0  0  0  0  0  0  0  0
  140.3600   75.7400  221.4850 O   0  0  0  0  0  0  0  0  0  0  0  0
  139.9450   71.2800  223.7430 C   0  0  0  0  0  0  0  0  0  0  0  0
  139.5960   69.9480  223.7760 C   0  0  0  0  0  0  0  0  0  0  0  0
  139.7440   69.1880  224.9330 C   0  0  0  0  0  0  0  0  0  0  0  0
  140.2600   69.8400  226.0480 C   0  0  0  0  0  0  0  0  0  0  0  0
  140.4510   69.1840  227.2510 C   0  0  0  0  0  0  0  0  0  0  0  0
  140.9680   69.8730  228.3380 C   0  0  0  0  0  0  0  0  0  0  0  0
  141.3080   71.2110  228.2690 C   0  0  0  0  0  0  0  0  0  0  0  0
  141.1170   71.8640  227.0680 C   0  0  0  0  0  0  0  0  0  0  0  0
  140.5990   71.1740  225.9790 C   0  0  0  0  0  0  0  0  0  0  0  0
  140.4500   71.9030  224.8440 N   0  0  0  0  0  0  0  0  0  0  0  0
  139.4250   70.2970  221.3530 H   0  0  0  0  0  0  0  0  0  0  0  0
  138.9302   71.2743  219.3203 H   0  0  0  0  0  0  0  0  0  0  0  0
  138.6429   72.8617  220.3139 H   0  0  0  0  0  0  0  0  0  0  0  0
  141.8761   73.5474  221.8256 H   0  0  0  0  0  0  0  0  0  0  0  0
  142.5606   72.2609  220.8203 H   0  0  0  0  0  0  0  0  0  0  0  0
  143.6825   74.8409  221.4480 H   0  0  0  0  0  0  0  0  0  0  0  0
  144.4000   73.5785  220.4329 H   0  0  0  0  0  0  0  0  0  0  0  0
  143.5855   76.0257  219.4285 H   0  0  0  0  0  0  0  0  0  0  0  0
  143.5811   74.6201  218.4166 H   0  0  0  0  0  0  0  0  0  0  0  0
  141.0890   75.3437  218.5375 H   0  0  0  0  0  0  0  0  0  0  0  0
  139.4647   79.3318  223.0533 H   0  0  0  0  0  0  0  0  0  0  0  0
  139.8989   81.4891  224.1955 H   0  0  0  0  0  0  0  0  0  0  0  0
  142.2598   82.2741  224.4075 H   0  0  0  0  0  0  0  0  0  0  0  0
  144.0819   80.9186  223.4993 H   0  0  0  0  0  0  0  0  0  0  0  0
  143.6727   78.7530  222.3528 H   0  0  0  0  0  0  0  0  0  0  0  0
  139.6068   76.7993  223.2018 H   0  0  0  0  0  0  0  0  0  0  0  0
  139.1918   69.4747  222.8690 H   0  0  0  0  0  0  0  0  0  0  0  0
  139.4665   68.1240  224.9639 H   0  0  0  0  0  0  0  0  0  0  0  0
  140.1935   68.1187  227.3451 H   0  0  0  0  0  0  0  0  0  0  0  0
  141.1124   69.3364  229.2873 H   0  0  0  0  0  0  0  0  0  0  0  0
  141.7176   71.7384  229.1431 H   0  0  0  0  0  0  0  0  0  0  0  0
  141.3746   72.9292  226.9732 H   0  0  0  0  0  0  0  0  0  0  0  0
  1  2  2  0
  2  3  1  0
  3  4  1  0
  4  5  1  0
  5  6  2  0
  5  7  1  0
  7  8  1  0
  8  9  1  0
  9 10  1  0
 10 11  1  0
 11 12  1  0
 12 13  2  0
 13 14  1  0
 14 15  1  0
 15 16  2  0
 16 17  1  0
 17 18  2  0
 18 19  1  0
 19 20  2  0
 14 21  2  0
 21 22  1  0
  2 23  1  0
 23 24  2  0
 24 25  1  0
 25 26  2  0
 26 27  1  0
 27 28  2  0
 28 29  1  0
 29 30  2  0
 30 31  1  0
 31 32  2  0
 11  7  1  0
 22 12  1  0
 32 23  1  0
 20 15  1  0
 31 26  1  0
  3 33  1  0
  4 34  1  0
  4 35  1  0
  8 36  1  0
  8 37  1  0
  9 38  1  0
  9 39  1  0
 10 40  1  0
 10 41  1  0
 11 42  1  6
 16 43  1  0
 17 44  1  0
 18 45  1  0
 19 46  1  0
 20 47  1  0
 21 48  1  0
 24 49  1  0
 25 50  1  0
 27 51  1  0
 28 52  1  0
 29 53  1  0
 30 54  1  0
M  END
>  <smiles>  (15) 
O=C(NCC(=O)N1CCC[C@@H]1c1nc(-c2ccccc2)co1)c1ccc2ccccc2n1

>  <score_type>  (15) 
oracle

>  <origin>  (15) 
autodockgpu

>  <m_score__min__energy>  (15) 
-9.6699999999999999

>  <m_primary>  (15) 
energy

>  <rmsd>  (15) 
3.014009224078271

>  <m_score__min__rmsd>  (15) 
3.014009224078271

>  <meeko>  (15) 
{"free_energy": -9.36, "intermolecular_energy": -11.15, "internal_energy": -1.77, "cluster_size": 25, "cluster_id": 1, "rank_in_cluster": 8}

>  <energy>  (15) 
-8.85

>  <cluster_rmsd>  (15) 
1.6

>  <cluster>  (15) 
1

$$$$

     RDKit          3D

 54 58  0  0  0  0  0  0  0  0999 V2000
  140.3220   72.9010  222.4880 O   0  0  0  0  0  0  0  0  0  0  0  0
  139.6780   71.8710  222.8560 C   0  0  0  0  0  0  0  0  0  0  0  0
  138.6640   71.4180  221.9470 N   0  0  0  0  0  0  0  0  0  0  0  0
  138.3590   72.0440  220.7050 C   0  0  0  0  0  0  0  0  0  0  0  0
  137.4150   73.1170  220.6110 C   0  0  0  0  0  0  0  0  0  0  0  0
  136.3120   72.8040  219.9490 O   0  0  0  0  0  0  0  0  0  0  0  0
  137.3840   74.4460  221.0600 N   0  0  0  0  0  0  0  0  0  0  0  0
  137.2370   75.5410  220.0450 C   0  0  0  0  0  0  0  0  0  0  0  0
  136.5960   76.6780  220.7620 C   0  0  0  0  0  0  0  0  0  0  0  0
  136.3880   76.2090  222.1870 C   0  0  0  0  0  0  0  0  0  0  0  0
  137.4980   75.1420  222.2860 C   0  0  2  0  0  0  0  0  0  0  0  0
  138.8000   75.9170  222.3710 C   0  0  0  0  0  0  0  0  0  0  0  0
  138.9830   77.1980  222.6820 N   0  0  0  0  0  0  0  0  0  0  0  0
  140.3020   77.5100  222.6470 C   0  0  0  0  0  0  0  0  0  0  0  0
  140.9420   78.7920  222.9180 C   0  0  0  0  0  0  0  0  0  0  0  0
  142.2430   79.0170  222.5160 C   0  0  0  0  0  0  0  0  0  0  0  0
  142.8830   80.2140  222.7530 C   0  0  0  0  0  0  0  0  0  0  0  0
  142.1820   81.1990  223.4130 C   0  0  0  0  0  0  0  0  0  0  0  0
  140.8900   80.9660  223.8080 C   0  0  0  0  0  0  0  0  0  0  0  0
  140.2300   79.7720  223.5790 C   0  0  0  0  0  0  0  0  0  0  0  0
  140.9260   76.3290  222.2930 C   0  0  0  0  0  0  0  0  0  0  0  0
  139.9920   75.4190  222.1420 O   0  0  0  0  0  0  0  0  0  0  0  0
  139.9480   71.2020  224.1000 C   0  0  0  0  0  0  0  0  0  0  0  0
  140.6750   71.8670  225.0620 C   0  0  0  0  0  0  0  0  0  0  0  0
  140.9700   71.2760  226.2870 C   0  0  0  0  0  0  0  0  0  0  0  0
  140.4950   69.9840  226.4890 C   0  0  0  0  0  0  0  0  0  0  0  0
  140.7270   69.2980  227.6670 C   0  0  0  0  0  0  0  0  0  0  0  0
  140.2340   68.0110  227.8260 C   0  0  0  0  0  0  0  0  0  0  0  0
  139.5080   67.3740  226.8380 C   0  0  0  0  0  0  0  0  0  0  0  0
  139.2760   68.0590  225.6620 C   0  0  0  0  0  0  0  0  0  0  0  0
  139.7700   69.3480  225.5040 C   0  0  0  0  0  0  0  0  0  0  0  0
  139.4890   69.9370  224.3140 N   0  0  0  0  0  0  0  0  0  0  0  0
  138.1480   70.5550  222.2860 H   0  0  0  0  0  0  0  0  0  0  0  0
  139.3102   72.4348  220.3146 H   0  0  0  0  0  0  0  0  0  0  0  0
  137.8497   71.2376  220.1571 H   0  0  0  0  0  0  0  0  0  0  0  0
  138.2227   75.8393  219.6583 H   0  0  0  0  0  0  0  0  0  0  0  0
  136.6351   75.2155  219.1837 H   0  0  0  0  0  0  0  0  0  0  0  0
  137.2518   77.5609  220.7421 H   0  0  0  0  0  0  0  0  0  0  0  0
  135.6453   76.9672  220.2902 H   0  0  0  0  0  0  0  0  0  0  0  0
  136.5397   77.0235  222.9106 H   0  0  0  0  0  0  0  0  0  0  0  0
  135.3747   75.8437  222.4100 H   0  0  0  0  0  0  0  0  0  0  0  0
  137.4416   74.4497  223.1389 H   0  0  0  0  0  0  0  0  0  0  0  0
  142.7851   78.2169  221.9908 H   0  0  0  0  0  0  0  0  0  0  0  0
  143.9203   80.3777  222.4257 H   0  0  0  0  0  0  0  0  0  0  0  0
  142.6570   82.1688  223.6223 H   0  0  0  0  0  0  0  0  0  0  0  0
  140.3513   81.7685  224.3332 H   0  0  0  0  0  0  0  0  0  0  0  0
  139.1921   79.6122  223.9066 H   0  0  0  0  0  0  0  0  0  0  0  0
  142.0078   76.1788  222.1617 H   0  0  0  0  0  0  0  0  0  0  0  0
  141.0304   72.8878  224.8578 H   0  0  0  0  0  0  0  0  0  0  0  0
  141.5503   71.8045  227.0577 H   0  0  0  0  0  0  0  0  0  0  0  0
  141.3015   69.7719  228.4766 H   0  0  0  0  0  0  0  0  0  0  0  0
  140.4275   67.4802  228.7698 H   0  0  0  0  0  0  0  0  0  0  0  0
  139.1266   66.3526  226.9839 H   0  0  0  0  0  0  0  0  0  0  0  0
  138.7015   67.5855  224.8522 H   0  0  0  0  0  0  0  0  0  0  0  0
  1  2  2  0
  2  3  1  0
  3  4  1  0
  4  5  1  0
  5  6  2  0
  5  7  1  0
  7  8  1  0
  8  9  1  0
  9 10  1  0
 10 11  1  0
 11 12  1  0
 12 13  2  0
 13 14  1  0
 14 15  1  0
 15 16  2  0
 16 17  1  0
 17 18  2  0
 18 19  1  0
 19 20  2  0
 14 21  2  0
 21 22  1  0
  2 23  1  0
 23 24  2  0
 24 25  1  0
 25 26  2  0
 26 27  1  0
 27 28  2  0
 28 29  1  0
 29 30  2  0
 30 31  1  0
 31 32  2  0
 11  7  1  0
 22 12  1  0
 32 23  1  0
 20 15  1  0
 31 26  1  0
  3 33  1  0
  4 34  1  0
  4 35  1  0
  8 36  1  0
  8 37  1  0
  9 38  1  0
  9 39  1  0
 10 40  1  0
 10 41  1  0
 11 42  1  1
 16 43  1  0
 17 44  1  0
 18 45  1  0
 19 46  1  0
 20 47  1  0
 21 48  1  0
 24 49  1  0
 25 50  1  0
 27 51  1  0
 28 52  1  0
 29 53  1  0
 30 54  1  0
M  END
>  <smiles>  (16) 
O=C(NCC(=O)N1CCC[C@@H]1c1nc(-c2ccccc2)co1)c1ccc2ccccc2n1

>  <score_type>  (16) 
oracle

>  <origin>  (16) 
autodockgpu

>  <m_score__min__energy>  (16) 
-9.6699999999999999

>  <m_primary>  (16) 
energy

>  <rmsd>  (16) 
3.942724988910823

>  <m_score__min__rmsd>  (16) 
3.942724988910823

>  <meeko>  (16) 
{"free_energy": -9.06, "intermolecular_energy": -10.85, "internal_energy": -2.02, "cluster_size": 21, "cluster_id": 2, "rank_in_cluster": 5}

>  <energy>  (16) 
-8.84

>  <cluster_rmsd>  (16) 
1.1

>  <cluster>  (16) 
1

$$$$

     RDKit          3D

 54 58  0  0  0  0  0  0  0  0999 V2000
  140.2380   73.0480  222.3620 O   0  0  0  0  0  0  0  0  0  0  0  0
  139.5900   71.9860  222.6170 C   0  0  0  0  0  0  0  0  0  0  0  0
  138.6450   71.5820  221.6150 N   0  0  0  0  0  0  0  0  0  0  0  0
  138.4090   72.2880  220.4010 C   0  0  0  0  0  0  0  0  0  0  0  0
  137.5370   73.4220  220.3440 C   0  0  0  0  0  0  0  0  0  0  0  0
  136.5340   73.2840  219.4900 O   0  0  0  0  0  0  0  0  0  0  0  0
  137.4970   74.6690  220.9860 N   0  0  0  0  0  0  0  0  0  0  0  0
  137.2070   75.8900  220.1630 C   0  0  0  0  0  0  0  0  0  0  0  0
  136.5940   76.8740  221.0970 C   0  0  0  0  0  0  0  0  0  0  0  0
  136.5440   76.1940  222.4480 C   0  0  0  0  0  0  0  0  0  0  0  0
  137.7010   75.1850  222.2870 C   0  0  2  0  0  0  0  0  0  0  0  0
  138.9730   76.0090  222.3690 C   0  0  0  0  0  0  0  0  0  0  0  0
  139.1190   77.2700  222.7690 N   0  0  0  0  0  0  0  0  0  0  0  0
  140.4200   77.6420  222.6960 C   0  0  0  0  0  0  0  0  0  0  0  0
  141.0210   78.9280  223.0340 C   0  0  0  0  0  0  0  0  0  0  0  0
  142.3930   79.0530  223.1130 C   0  0  0  0  0  0  0  0  0  0  0  0
  142.9980   80.2500  223.4290 C   0  0  0  0  0  0  0  0  0  0  0  0
  142.1880   81.3380  223.6700 C   0  0  0  0  0  0  0  0  0  0  0  0
  140.8260   81.2020  223.5890 C   0  0  0  0  0  0  0  0  0  0  0  0
  140.1990   80.0110  223.2730 C   0  0  0  0  0  0  0  0  0  0  0  0
  141.0720   76.5200  222.2200 C   0  0  0  0  0  0  0  0  0  0  0  0
  140.1710   75.5840  222.0450 O   0  0  0  0  0  0  0  0  0  0  0  0
  139.7930   71.2370  223.8280 C   0  0  0  0  0  0  0  0  0  0  0  0
  139.4260   69.9090  223.8510 C   0  0  0  0  0  0  0  0  0  0  0  0
  139.5960   69.1290  224.9910 C   0  0  0  0  0  0  0  0  0  0  0  0
  140.1520   69.7570  226.1020 C   0  0  0  0  0  0  0  0  0  0  0  0
  140.3670   69.0810  227.2890 C   0  0  0  0  0  0  0  0  0  0  0  0
  140.9240   69.7460  228.3710 C   0  0  0  0  0  0  0  0  0  0  0  0
  141.2800   71.0810  228.3120 C   0  0  0  0  0  0  0  0  0  0  0  0
  141.0650   71.7540  227.1260 C   0  0  0  0  0  0  0  0  0  0  0  0
  140.5070   71.0880  226.0420 C   0  0  0  0  0  0  0  0  0  0  0  0
  140.3360   71.8360  224.9230 N   0  0  0  0  0  0  0  0  0  0  0  0
  138.1240   70.6910  221.8610 H   0  0  0  0  0  0  0  0  0  0  0  0
  139.3917   72.6364  220.0505 H   0  0  0  0  0  0  0  0  0  0  0  0
  137.8631   71.5444  219.8018 H   0  0  0  0  0  0  0  0  0  0  0  0
  138.1371   76.2944  219.7372 H   0  0  0  0  0  0  0  0  0  0  0  0
  136.5375   75.6604  219.3209 H   0  0  0  0  0  0  0  0  0  0  0  0
  137.2090   77.7845  221.1502 H   0  0  0  0  0  0  0  0  0  0  0  0
  135.5910   77.1763  220.7614 H   0  0  0  0  0  0  0  0  0  0  0  0
  136.7321   76.9024  223.2682 H   0  0  0  0  0  0  0  0  0  0  0  0
  135.5726   75.7460  222.7041 H   0  0  0  0  0  0  0  0  0  0  0  0
  137.7553   74.3747  223.0289 H   0  0  0  0  0  0  0  0  0  0  0  0
  143.0218   78.1717  222.9181 H   0  0  0  0  0  0  0  0  0  0  0  0
  144.0932   80.3342  223.4870 H   0  0  0  0  0  0  0  0  0  0  0  0
  142.6318   82.3113  223.9262 H   0  0  0  0  0  0  0  0  0  0  0  0
  140.2005   82.0853  223.7854 H   0  0  0  0  0  0  0  0  0  0  0  0
  139.1035   79.9307  223.2151 H   0  0  0  0  0  0  0  0  0  0  0  0
  142.1505   76.4291  222.0238 H   0  0  0  0  0  0  0  0  0  0  0  0
  138.9893   69.4556  222.9489 H   0  0  0  0  0  0  0  0  0  0  0  0
  139.3053   68.0683  225.0130 H   0  0  0  0  0  0  0  0  0  0  0  0
  140.0968   68.0182  227.3748 H   0  0  0  0  0  0  0  0  0  0  0  0
  141.0881   69.1930  229.3076 H   0  0  0  0  0  0  0  0  0  0  0  0
  141.7203   71.5902  229.1820 H   0  0  0  0  0  0  0  0  0  0  0  0
  141.3353   72.8167  227.0394 H   0  0  0  0  0  0  0  0  0  0  0  0
  1  2  2  0
  2  3  1  0
  3  4  1  0
  4  5  1  0
  5  6  2  0
  5  7  1  0
  7  8  1  0
  8  9  1  0
  9 10  1  0
 10 11  1  0
 11 12  1  0
 12 13  2  0
 13 14  1  0
 14 15  1  0
 15 16  2  0
 16 17  1  0
 17 18  2  0
 18 19  1  0
 19 20  2  0
 14 21  2  0
 21 22  1  0
  2 23  1  0
 23 24  2  0
 24 25  1  0
 25 26  2  0
 26 27  1  0
 27 28  2  0
 28 29  1  0
 29 30  2  0
 30 31  1  0
 31 32  2  0
 11  7  1  0
 22 12  1  0
 32 23  1  0
 20 15  1  0
 31 26  1  0
  3 33  1  0
  4 34  1  0
  4 35  1  0
  8 36  1  0
  8 37  1  0
  9 38  1  0
  9 39  1  0
 10 40  1  0
 10 41  1  0
 11 42  1  1
 16 43  1  0
 17 44  1  0
 18 45  1  0
 19 46  1  0
 20 47  1  0
 21 48  1  0
 24 49  1  0
 25 50  1  0
 27 51  1  0
 28 52  1  0
 29 53  1  0
 30 54  1  0
M  END
>  <smiles>  (17) 
O=C(NCC(=O)N1CCC[C@@H]1c1nc(-c2ccccc2)co1)c1ccc2ccccc2n1

>  <score_type>  (17) 
oracle

>  <origin>  (17) 
autodockgpu

>  <m_score__min__energy>  (17) 
-9.6699999999999999

>  <m_primary>  (17) 
energy

>  <rmsd>  (17) 
3.424692853793768

>  <m_score__min__rmsd>  (17) 
3.424692853793768

>  <meeko>  (17) 
{"free_energy": -9.21, "intermolecular_energy": -11.0, "internal_energy": -1.71, "cluster_size": 21, "cluster_id": 2, "rank_in_cluster": 1}

>  <energy>  (17) 
-8.83

>  <cluster_rmsd>  (17) 
1.3

>  <cluster>  (17) 
1

$$$$

     RDKit          3D

 54 58  0  0  0  0  0  0  0  0999 V2000
  138.7700   72.6430  222.5960 O   0  0  0  0  0  0  0  0  0  0  0  0
  139.6750   71.7640  222.7370 C   0  0  0  0  0  0  0  0  0  0  0  0
  140.3960   71.4210  221.5450 N   0  0  0  0  0  0  0  0  0  0  0  0
  140.1550   71.9980  220.2650 C   0  0  0  0  0  0  0  0  0  0  0  0
  141.1820   72.6820  219.5390 C   0  0  0  0  0  0  0  0  0  0  0  0
  141.5520   72.0670  218.4260 O   0  0  0  0  0  0  0  0  0  0  0  0
  141.9050   73.8680  219.7350 N   0  0  0  0  0  0  0  0  0  0  0  0
  143.1480   73.8180  220.5740 C   0  0  0  0  0  0  0  0  0  0  0  0
  144.0090   74.9340  220.0930 C   0  0  0  0  0  0  0  0  0  0  0  0
  143.2360   75.6080  218.9790 C   0  0  0  0  0  0  0  0  0  0  0  0
  141.7950   75.2340  219.3840 C   0  0  2  0  0  0  0  0  0  0  0  0
  141.4740   76.0970  220.5900 C   0  0  0  0  0  0  0  0  0  0  0  0
  141.8360   77.3560  220.8280 N   0  0  0  0  0  0  0  0  0  0  0  0
  141.3470   77.7710  222.0220 C   0  0  0  0  0  0  0  0  0  0  0  0
  141.5020   79.0700  222.6680 C   0  0  0  0  0  0  0  0  0  0  0  0
  142.7460   79.4880  223.0950 C   0  0  0  0  0  0  0  0  0  0  0  0
  142.9340   80.7070  223.7090 C   0  0  0  0  0  0  0  0  0  0  0  0
  141.8330   81.5130  223.8910 C   0  0  0  0  0  0  0  0  0  0  0  0
  140.6010   81.0880  223.4640 C   0  0  0  0  0  0  0  0  0  0  0  0
  140.3920   79.8690  222.8450 C   0  0  0  0  0  0  0  0  0  0  0  0
  140.6540   76.6790  222.5090 C   0  0  0  0  0  0  0  0  0  0  0  0
  140.7610   75.7170  221.6240 O   0  0  0  0  0  0  0  0  0  0  0  0
  139.9580   71.1520  224.0080 C   0  0  0  0  0  0  0  0  0  0  0  0
  140.6740   71.8700  224.9400 C   0  0  0  0  0  0  0  0  0  0  0  0
  140.9800   71.3360  226.1880 C   0  0  0  0  0  0  0  0  0  0  0  0
  140.5280   70.0450  226.4450 C   0  0  0  0  0  0  0  0  0  0  0  0
  140.7730   69.4140  227.6510 C   0  0  0  0  0  0  0  0  0  0  0  0
  140.3020   68.1260  227.8640 C   0  0  0  0  0  0  0  0  0  0  0  0
  139.5860   67.4360  226.9050 C   0  0  0  0  0  0  0  0  0  0  0  0
  139.3420   68.0670  225.7010 C   0  0  0  0  0  0  0  0  0  0  0  0
  139.8130   69.3570  225.4880 C   0  0  0  0  0  0  0  0  0  0  0  0
  139.5210   69.8900  224.2750 N   0  0  0  0  0  0  0  0  0  0  0  0
  141.1440   70.6850  221.7010 H   0  0  0  0  0  0  0  0  0  0  0  0
  139.8124   71.1782  219.6165 H   0  0  0  0  0  0  0  0  0  0  0  0
  139.4574   72.8138  220.5053 H   0  0  0  0  0  0  0  0  0  0  0  0
  142.8987   73.9573  221.6363 H   0  0  0  0  0  0  0  0  0  0  0  0
  143.6572   72.8471  220.4847 H   0  0  0  0  0  0  0  0  0  0  0  0
  144.2028   75.6460  220.9088 H   0  0  0  0  0  0  0  0  0  0  0  0
  144.9846   74.5671  219.7414 H   0  0  0  0  0  0  0  0  0  0  0  0
  143.3894   76.6973  218.9774 H   0  0  0  0  0  0  0  0  0  0  0  0
  143.5254   75.2996  217.9635 H   0  0  0  0  0  0  0  0  0  0  0  0
  141.0149   75.3845  218.6232 H   0  0  0  0  0  0  0  0  0  0  0  0
  143.6128   78.8286  222.9406 H   0  0  0  0  0  0  0  0  0  0  0  0
  143.9323   81.0261  224.0432 H   0  0  0  0  0  0  0  0  0  0  0  0
  141.9409   82.4939  224.3769 H   0  0  0  0  0  0  0  0  0  0  0  0
  139.7363   81.7494  223.6216 H   0  0  0  0  0  0  0  0  0  0  0  0
  139.3925   79.5533  222.5113 H   0  0  0  0  0  0  0  0  0  0  0  0
  140.1116   76.6263  223.4645 H   0  0  0  0  0  0  0  0  0  0  0  0
  141.0112   72.8874  224.6925 H   0  0  0  0  0  0  0  0  0  0  0  0
  141.5513   71.9065  226.9351 H   0  0  0  0  0  0  0  0  0  0  0  0
  141.3396   69.9315  228.4392 H   0  0  0  0  0  0  0  0  0  0  0  0
  140.5056   67.6382  228.8287 H   0  0  0  0  0  0  0  0  0  0  0  0
  139.2215   66.4156  227.0945 H   0  0  0  0  0  0  0  0  0  0  0  0
  138.7760   67.5496  224.9123 H   0  0  0  0  0  0  0  0  0  0  0  0
  1  2  2  0
  2  3  1  0
  3  4  1  0
  4  5  1  0
  5  6  2  0
  5  7  1  0
  7  8  1  0
  8  9  1  0
  9 10  1  0
 10 11  1  0
 11 12  1  0
 12 13  2  0
 13 14  1  0
 14 15  1  0
 15 16  2  0
 16 17  1  0
 17 18  2  0
 18 19  1  0
 19 20  2  0
 14 21  2  0
 21 22  1  0
  2 23  1  0
 23 24  2  0
 24 25  1  0
 25 26  2  0
 26 27  1  0
 27 28  2  0
 28 29  1  0
 29 30  2  0
 30 31  1  0
 31 32  2  0
 11  7  1  0
 22 12  1  0
 32 23  1  0
 20 15  1  0
 31 26  1  0
  3 33  1  0
  4 34  1  0
  4 35  1  0
  8 36  1  0
  8 37  1  0
  9 38  1  0
  9 39  1  0
 10 40  1  0
 10 41  1  0
 11 42  1  6
 16 43  1  0
 17 44  1  0
 18 45  1  0
 19 46  1  0
 20 47  1  0
 21 48  1  0
 24 49  1  0
 25 50  1  0
 27 51  1  0
 28 52  1  0
 29 53  1  0
 30 54  1  0
M  END
>  <smiles>  (18) 
O=C(NCC(=O)N1CCC[C@@H]1c1nc(-c2ccccc2)co1)c1ccc2ccccc2n1

>  <score_type>  (18) 
oracle

>  <origin>  (18) 
autodockgpu

>  <m_score__min__energy>  (18) 
-9.6699999999999999

>  <m_primary>  (18) 
energy

>  <rmsd>  (18) 
3.672700594693206

>  <m_score__min__rmsd>  (18) 
3.672700594693206

>  <meeko>  (18) 
{"free_energy": -8.95, "intermolecular_energy": -10.74, "internal_energy": -1.68, "cluster_size": 25, "cluster_id": 1, "rank_in_cluster": 12}

>  <energy>  (18) 
-8.8

>  <cluster_rmsd>  (18) 
0.75

>  <cluster>  (18) 
1

$$$$

     RDKit          3D

 54 58  0  0  0  0  0  0  0  0999 V2000
  140.3730   73.0820  222.7060 O   0  0  0  0  0  0  0  0  0  0  0  0
  140.3160   71.8210  222.8440 C   0  0  0  0  0  0  0  0  0  0  0  0
  140.2500   71.0680  221.6250 N   0  0  0  0  0  0  0  0  0  0  0  0
  140.2470   71.6430  220.3220 C   0  0  0  0  0  0  0  0  0  0  0  0
  141.4150   72.2560  219.7650 C   0  0  0  0  0  0  0  0  0  0  0  0
  142.1520   71.4360  219.0320 O   0  0  0  0  0  0  0  0  0  0  0  0
  141.9740   73.5420  219.8160 N   0  0  0  0  0  0  0  0  0  0  0  0
  143.2640   73.7330  220.5580 C   0  0  0  0  0  0  0  0  0  0  0  0
  143.9240   74.9110  219.9320 C   0  0  0  0  0  0  0  0  0  0  0  0
  142.9910   75.3780  218.8340 C   0  0  0  0  0  0  0  0  0  0  0  0
  141.6470   74.8460  219.3760 C   0  0  2  0  0  0  0  0  0  0  0  0
  141.2880   75.7560  220.5360 C   0  0  0  0  0  0  0  0  0  0  0  0
  141.6760   77.0100  220.7570 N   0  0  0  0  0  0  0  0  0  0  0  0
  141.1340   77.4770  221.9080 C   0  0  0  0  0  0  0  0  0  0  0  0
  141.2950   78.7890  222.5240 C   0  0  0  0  0  0  0  0  0  0  0  0
  140.1860   79.5190  222.9020 C   0  0  0  0  0  0  0  0  0  0  0  0
  140.2950   80.7610  223.4860 C   0  0  0  0  0  0  0  0  0  0  0  0
  141.5600   81.2700  223.6870 C   0  0  0  0  0  0  0  0  0  0  0  0
  142.6550   80.5370  223.3080 C   0  0  0  0  0  0  0  0  0  0  0  0
  142.5660   79.2880  222.7210 C   0  0  0  0  0  0  0  0  0  0  0  0
  140.3820   76.4210  222.3880 C   0  0  0  0  0  0  0  0  0  0  0  0
  140.5070   75.4290  221.5380 O   0  0  0  0  0  0  0  0  0  0  0  0
  140.3170   71.1910  224.1370 C   0  0  0  0  0  0  0  0  0  0  0  0
  140.7400   71.9220  225.2260 C   0  0  0  0  0  0  0  0  0  0  0  0
  140.7650   71.3710  226.5040 C   0  0  0  0  0  0  0  0  0  0  0  0
  140.3430   70.0500  226.6240 C   0  0  0  0  0  0  0  0  0  0  0  0
  140.3250   69.4010  227.8450 C   0  0  0  0  0  0  0  0  0  0  0  0
  139.8960   68.0830  227.9190 C   0  0  0  0  0  0  0  0  0  0  0  0
  139.4770   67.3810  226.8050 C   0  0  0  0  0  0  0  0  0  0  0  0
  139.4960   68.0310  225.5870 C   0  0  0  0  0  0  0  0  0  0  0  0
  139.9250   69.3500  225.5130 C   0  0  0  0  0  0  0  0  0  0  0  0
  139.9060   69.9000  224.2720 N   0  0  0  0  0  0  0  0  0  0  0  0
  140.2050   70.0180  221.7790 H   0  0  0  0  0  0  0  0  0  0  0  0
  139.9609   70.8375  219.6296 H   0  0  0  0  0  0  0  0  0  0  0  0
  139.5706   72.5014  220.4476 H   0  0  0  0  0  0  0  0  0  0  0  0
  143.0679   73.9255  221.6231 H   0  0  0  0  0  0  0  0  0  0  0  0
  143.8991   72.8367  220.5012 H   0  0  0  0  0  0  0  0  0  0  0  0
  144.0681   75.7084  220.6759 H   0  0  0  0  0  0  0  0  0  0  0  0
  144.9165   74.6526  219.5344 H   0  0  0  0  0  0  0  0  0  0  0  0
  142.9878   76.4740  218.7404 H   0  0  0  0  0  0  0  0  0  0  0  0
  143.2534   75.0282  217.8246 H   0  0  0  0  0  0  0  0  0  0  0  0
  140.8038   74.8241  218.6700 H   0  0  0  0  0  0  0  0  0  0  0  0
  139.1852   79.0956  222.7315 H   0  0  0  0  0  0  0  0  0  0  0  0
  139.4010   81.3290  223.7827 H   0  0  0  0  0  0  0  0  0  0  0  0
  141.6905   82.2596  224.1493 H   0  0  0  0  0  0  0  0  0  0  0  0
  143.6542   80.9638  223.4794 H   0  0  0  0  0  0  0  0  0  0  0  0
  143.4620   78.7219  222.4265 H   0  0  0  0  0  0  0  0  0  0  0  0
  139.7874   76.4136  223.3134 H   0  0  0  0  0  0  0  0  0  0  0  0
  141.0648   72.9631  225.0822 H   0  0  0  0  0  0  0  0  0  0  0  0
  141.1016   71.9509  227.3760 H   0  0  0  0  0  0  0  0  0  0  0  0
  140.6496   69.9275  228.7546 H   0  0  0  0  0  0  0  0  0  0  0  0
  139.8893   67.5804  228.8974 H   0  0  0  0  0  0  0  0  0  0  0  0
  139.1390   66.3373  226.8860 H   0  0  0  0  0  0  0  0  0  0  0  0
  139.1719   67.5052  224.6768 H   0  0  0  0  0  0  0  0  0  0  0  0
  1  2  2  0
  2  3  1  0
  3  4  1  0
  4  5  1  0
  5  6  2  0
  5  7  1  0
  7  8  1  0
  8  9  1  0
  9 10  1  0
 10 11  1  0
 11 12  1  0
 12 13  2  0
 13 14  1  0
 14 15  1  0
 15 16  2  0
 16 17  1  0
 17 18  2  0
 18 19  1  0
 19 20  2  0
 14 21  2  0
 21 22  1  0
  2 23  1  0
 23 24  2  0
 24 25  1  0
 25 26  2  0
 26 27  1  0
 27 28  2  0
 28 29  1  0
 29 30  2  0
 30 31  1  0
 31 32  2  0
 11  7  1  0
 22 12  1  0
 32 23  1  0
 20 15  1  0
 31 26  1  0
  3 33  1  0
  4 34  1  0
  4 35  1  0
  8 36  1  0
  8 37  1  0
  9 38  1  0
  9 39  1  0
 10 40  1  0
 10 41  1  0
 11 42  1  6
 16 43  1  0
 17 44  1  0
 18 45  1  0
 19 46  1  0
 20 47  1  0
 21 48  1  0
 24 49  1  0
 25 50  1  0
 27 51  1  0
 28 52  1  0
 29 53  1  0
 30 54  1  0
M  END
>  <smiles>  (19) 
O=C(NCC(=O)N1CCC[C@@H]1c1nc(-c2ccccc2)co1)c1ccc2ccccc2n1

>  <score_type>  (19) 
oracle

>  <origin>  (19) 
autodockgpu

>  <m_score__min__energy>  (19) 
-9.6699999999999999

>  <m_primary>  (19) 
energy

>  <rmsd>  (19) 
3.62451883171123

>  <m_score__min__rmsd>  (19) 
3.62451883171123

>  <meeko>  (19) 
{"free_energy": -9.44, "intermolecular_energy": -11.23, "internal_energy": -2.05, "cluster_size": 25, "cluster_id": 1, "rank_in_cluster": 6}

>  <energy>  (19) 
-8.75

>  <cluster_rmsd>  (19) 
1.98

>  <cluster>  (19) 
1

$$$$

     RDKit          3D

 54 58  0  0  0  0  0  0  0  0999 V2000
  140.3130   73.0500  222.6700 O   0  0  0  0  0  0  0  0  0  0  0  0
  140.1200   71.8050  222.8280 C   0  0  0  0  0  0  0  0  0  0  0  0
  139.7750   71.0770  221.6410 N   0  0  0  0  0  0  0  0  0  0  0  0
  139.6440   71.6610  220.3490 C   0  0  0  0  0  0  0  0  0  0  0  0
  140.7710   72.1900  219.6410 C   0  0  0  0  0  0  0  0  0  0  0  0
  141.0910   71.5030  218.5550 O   0  0  0  0  0  0  0  0  0  0  0  0
  141.6330   73.2800  219.8330 N   0  0  0  0  0  0  0  0  0  0  0  0
  142.7640   73.1350  220.8090 C   0  0  0  0  0  0  0  0  0  0  0  0
  143.8200   74.0790  220.3510 C   0  0  0  0  0  0  0  0  0  0  0  0
  143.2700   74.7530  219.1120 C   0  0  0  0  0  0  0  0  0  0  0  0
  141.7560   74.6130  219.3770 C   0  0  2  0  0  0  0  0  0  0  0  0
  141.4410   75.6120  220.4750 C   0  0  0  0  0  0  0  0  0  0  0  0
  141.8420   76.8760  220.5840 N   0  0  0  0  0  0  0  0  0  0  0  0
  141.3430   77.4350  221.7140 C   0  0  0  0  0  0  0  0  0  0  0  0
  141.5310   78.7900  222.2200 C   0  0  0  0  0  0  0  0  0  0  0  0
  141.2020   79.8760  221.4340 C   0  0  0  0  0  0  0  0  0  0  0  0
  141.3640   81.1700  221.8760 C   0  0  0  0  0  0  0  0  0  0  0  0
  141.8720   81.3610  223.1420 C   0  0  0  0  0  0  0  0  0  0  0  0
  142.1950   80.2750  223.9150 C   0  0  0  0  0  0  0  0  0  0  0  0
  142.0400   78.9680  223.4900 C   0  0  0  0  0  0  0  0  0  0  0  0
  140.6030   76.4240  222.3000 C   0  0  0  0  0  0  0  0  0  0  0  0
  140.6940   75.3690  221.5260 O   0  0  0  0  0  0  0  0  0  0  0  0
  140.2410   71.1670  224.1120 C   0  0  0  0  0  0  0  0  0  0  0  0
  140.7580   71.8930  225.1620 C   0  0  0  0  0  0  0  0  0  0  0  0
  140.9010   71.3350  226.4300 C   0  0  0  0  0  0  0  0  0  0  0  0
  140.4960   70.0120  226.5800 C   0  0  0  0  0  0  0  0  0  0  0  0
  140.5910   69.3550  227.7930 C   0  0  0  0  0  0  0  0  0  0  0  0
  140.1760   68.0360  227.8980 C   0  0  0  0  0  0  0  0  0  0  0  0
  139.6610   67.3380  226.8210 C   0  0  0  0  0  0  0  0  0  0  0  0
  139.5670   67.9950  225.6110 C   0  0  0  0  0  0  0  0  0  0  0  0
  139.9830   69.3170  225.5060 C   0  0  0  0  0  0  0  0  0  0  0  0
  139.8490   69.8740  224.2760 N   0  0  0  0  0  0  0  0  0  0  0  0
  139.6230   70.0400  221.8110 H   0  0  0  0  0  0  0  0  0  0  0  0
  139.2097   70.8846  219.7020 H   0  0  0  0  0  0  0  0  0  0  0  0
  139.0568   72.5666  220.5615 H   0  0  0  0  0  0  0  0  0  0  0  0
  142.4300   73.3972  221.8237 H   0  0  0  0  0  0  0  0  0  0  0  0
  143.1353   72.1003  220.8469 H   0  0  0  0  0  0  0  0  0  0  0  0
  144.0293   74.8258  221.1311 H   0  0  0  0  0  0  0  0  0  0  0  0
  144.7636   73.5551  220.1388 H   0  0  0  0  0  0  0  0  0  0  0  0
  143.5775   75.8074  219.0508 H   0  0  0  0  0  0  0  0  0  0  0  0
  143.6144   74.3225  218.1601 H   0  0  0  0  0  0  0  0  0  0  0  0
  141.0868   74.8017  218.5246 H   0  0  0  0  0  0  0  0  0  0  0  0
  140.7987   79.7027  220.4254 H   0  0  0  0  0  0  0  0  0  0  0  0
  141.0960   82.0249  221.2377 H   0  0  0  0  0  0  0  0  0  0  0  0
  142.0179   82.3795  223.5312 H   0  0  0  0  0  0  0  0  0  0  0  0
  142.5974   80.4524  224.9233 H   0  0  0  0  0  0  0  0  0  0  0  0
  142.3084   78.1152  224.1309 H   0  0  0  0  0  0  0  0  0  0  0  0
  140.0408   76.4923  223.2430 H   0  0  0  0  0  0  0  0  0  0  0  0
  141.0646   72.9362  224.9955 H   0  0  0  0  0  0  0  0  0  0  0  0
  141.3136   71.9114  227.2712 H   0  0  0  0  0  0  0  0  0  0  0  0
  140.9949   69.8775  228.6727 H   0  0  0  0  0  0  0  0  0  0  0  0
  140.2592   67.5281  228.8702 H   0  0  0  0  0  0  0  0  0  0  0  0
  139.3365   66.2921  226.9255 H   0  0  0  0  0  0  0  0  0  0  0  0
  139.1634   67.4731  224.7308 H   0  0  0  0  0  0  0  0  0  0  0  0
  1  2  2  0
  2  3  1  0
  3  4  1  0
  4  5  1  0
  5  6  2  0
  5  7  1  0
  7  8  1  0
  8  9  1  0
  9 10  1  0
 10 11  1  0
 11 12  1  0
 12 13  2  0
 13 14  1  0
 14 15  1  0
 15 16  2  0
 16 17  1  0
 17 18  2  0
 18 19  1  0
 19 20  2  0
 14 21  2  0
 21 22  1  0
  2 23  1  0
 23 24  2  0
 24 25  1  0
 25 26  2  0
 26 27  1  0
 27 28  2  0
 28 29  1  0
 29 30  2  0
 30 31  1  0
 31 32  2  0
 11  7  1  0
 22 12  1  0
 32 23  1  0
 20 15  1  0
 31 26  1  0
  3 33  1  0
  4 34  1  0
  4 35  1  0
  8 36  1  0
  8 37  1  0
  9 38  1  0
  9 39  1  0
 10 40  1  0
 10 41  1  0
 11 42  1  6
 16 43  1  0
 17 44  1  0
 18 45  1  0
 19 46  1  0
 20 47  1  0
 21 48  1  0
 24 49  1  0
 25 50  1  0
 27 51  1  0
 28 52  1  0
 29 53  1  0
 30 54  1  0
M  END
>  <smiles>  (20) 
O=C(NCC(=O)N1CCC[C@@H]1c1nc(-c2ccccc2)co1)c1ccc2ccccc2n1

>  <score_type>  (20) 
oracle

>  <origin>  (20) 
autodockgpu

>  <m_score__min__energy>  (20) 
-9.6699999999999999

>  <m_primary>  (20) 
energy

>  <rmsd>  (20) 
3.743373354217578

>  <m_score__min__rmsd>  (20) 
3.743373354217578

>  <meeko>  (20) 
{"free_energy": -9.22, "intermolecular_energy": -11.01, "internal_energy": -2.1, "cluster_size": 25, "cluster_id": 1, "rank_in_cluster": 10}

>  <energy>  (20) 
-8.62

>  <cluster_rmsd>  (20) 
1.59

>  <cluster>  (20) 
1

$$$$

     RDKit          3D

 54 58  0  0  0  0  0  0  0  0999 V2000
  140.2560   72.0070  221.8730 O   0  0  0  0  0  0  0  0  0  0  0  0
  139.5360   71.2870  222.6320 C   0  0  0  0  0  0  0  0  0  0  0  0
  138.3090   70.8160  222.0570 N   0  0  0  0  0  0  0  0  0  0  0  0
  137.8790   71.1060  220.7300 C   0  0  0  0  0  0  0  0  0  0  0  0
  137.9500   72.4280  220.1850 C   0  0  0  0  0  0  0  0  0  0  0  0
  138.1300   72.4570  218.8730 O   0  0  0  0  0  0  0  0  0  0  0  0
  137.8770   73.7220  220.7230 N   0  0  0  0  0  0  0  0  0  0  0  0
  137.5980   74.8680  219.7950 C   0  0  0  0  0  0  0  0  0  0  0  0
  136.9470   75.9160  220.6280 C   0  0  0  0  0  0  0  0  0  0  0  0
  136.8650   75.3470  222.0280 C   0  0  0  0  0  0  0  0  0  0  0  0
  138.0380   74.3440  221.9830 C   0  0  2  0  0  0  0  0  0  0  0  0
  139.2970   75.1890  222.0330 C   0  0  0  0  0  0  0  0  0  0  0  0
  139.4120   76.4900  222.2900 N   0  0  0  0  0  0  0  0  0  0  0  0
  140.7130   76.8690  222.2400 C   0  0  0  0  0  0  0  0  0  0  0  0
  141.2850   78.1930  222.4570 C   0  0  0  0  0  0  0  0  0  0  0  0
  141.4670   79.0530  221.3920 C   0  0  0  0  0  0  0  0  0  0  0  0
  142.0030   80.3110  221.5550 C   0  0  0  0  0  0  0  0  0  0  0  0
  142.3620   80.6990  222.8270 C   0  0  0  0  0  0  0  0  0  0  0  0
  142.1780   79.8370  223.8780 C   0  0  0  0  0  0  0  0  0  0  0  0
  141.6400   78.5710  223.7350 C   0  0  0  0  0  0  0  0  0  0  0  0
  141.3980   75.7080  221.9330 C   0  0  0  0  0  0  0  0  0  0  0  0
  140.5130   74.7460  221.8220 O   0  0  0  0  0  0  0  0  0  0  0  0
  139.9250   70.9660  223.9790 C   0  0  0  0  0  0  0  0  0  0  0  0
  140.6670   71.8850  224.6880 C   0  0  0  0  0  0  0  0  0  0  0  0
  141.0750   71.6350  225.9950 C   0  0  0  0  0  0  0  0  0  0  0  0
  140.6980   70.4140  226.5450 C   0  0  0  0  0  0  0  0  0  0  0  0
  141.0470   70.0580  227.8360 C   0  0  0  0  0  0  0  0  0  0  0  0
  140.6490   68.8300  228.3440 C   0  0  0  0  0  0  0  0  0  0  0  0
  139.9050   67.9310  227.6030 C   0  0  0  0  0  0  0  0  0  0  0  0
  139.5570   68.2880  226.3160 C   0  0  0  0  0  0  0  0  0  0  0  0
  139.9550   69.5180  225.8060 C   0  0  0  0  0  0  0  0  0  0  0  0
  139.5640   69.7750  224.5330 N   0  0  0  0  0  0  0  0  0  0  0  0
  137.7340   70.2170  222.7190 H   0  0  0  0  0  0  0  0  0  0  0  0
  138.4767   70.4654  220.0649 H   0  0  0  0  0  0  0  0  0  0  0  0
  136.7937   70.9392  220.7954 H   0  0  0  0  0  0  0  0  0  0  0  0
  138.5357   75.2489  219.3642 H   0  0  0  0  0  0  0  0  0  0  0  0
  136.9564   74.5619  218.9556 H   0  0  0  0  0  0  0  0  0  0  0  0
  137.5500   76.8360  220.6244 H   0  0  0  0  0  0  0  0  0  0  0  0
  135.9510   76.1766  220.2407 H   0  0  0  0  0  0  0  0  0  0  0  0
  137.0206   76.1222  222.7928 H   0  0  0  0  0  0  0  0  0  0  0  0
  135.8916   74.9078  222.2918 H   0  0  0  0  0  0  0  0  0  0  0  0
  138.0805   73.5975  222.7898 H   0  0  0  0  0  0  0  0  0  0  0  0
  141.1752   78.7235  220.3839 H   0  0  0  0  0  0  0  0  0  0  0  0
  142.1402   80.9848  220.6964 H   0  0  0  0  0  0  0  0  0  0  0  0
  142.7943   81.6957  222.9992 H   0  0  0  0  0  0  0  0  0  0  0  0
  142.4729   80.1691  224.8843 H   0  0  0  0  0  0  0  0  0  0  0  0
  141.5024   77.9003  224.5959 H   0  0  0  0  0  0  0  0  0  0  0  0
  142.4860   75.6090  221.8052 H   0  0  0  0  0  0  0  0  0  0  0  0
  140.9430   72.8369  224.2109 H   0  0  0  0  0  0  0  0  0  0  0  0
  141.6664   72.3667  226.5650 H   0  0  0  0  0  0  0  0  0  0  0  0
  141.6382   70.7467  228.4575 H   0  0  0  0  0  0  0  0  0  0  0  0
  140.9353   68.5625  229.3718 H   0  0  0  0  0  0  0  0  0  0  0  0
  139.6001   66.9622  228.0255 H   0  0  0  0  0  0  0  0  0  0  0  0
  138.9653   67.5997  225.6946 H   0  0  0  0  0  0  0  0  0  0  0  0
  1  2  2  0
  2  3  1  0
  3  4  1  0
  4  5  1  0
  5  6  2  0
  5  7  1  0
  7  8  1  0
  8  9  1  0
  9 10  1  0
 10 11  1  0
 11 12  1  0
 12 13  2  0
 13 14  1  0
 14 15  1  0
 15 16  2  0
 16 17  1  0
 17 18  2  0
 18 19  1  0
 19 20  2  0
 14 21  2  0
 21 22  1  0
  2 23  1  0
 23 24  2  0
 24 25  1  0
 25 26  2  0
 26 27  1  0
 27 28  2  0
 28 29  1  0
 29 30  2  0
 30 31  1  0
 31 32  2  0
 11  7  1  0
 22 12  1  0
 32 23  1  0
 20 15  1  0
 31 26  1  0
  3 33  1  0
  4 34  1  0
  4 35  1  0
  8 36  1  0
  8 37  1  0
  9 38  1  0
  9 39  1  0
 10 40  1  0
 10 41  1  0
 11 42  1  1
 16 43  1  0
 17 44  1  0
 18 45  1  0
 19 46  1  0
 20 47  1  0
 21 48  1  0
 24 49  1  0
 25 50  1  0
 27 51  1  0
 28 52  1  0
 29 53  1  0
 30 54  1  0
M  END
>  <smiles>  (21) 
O=C(NCC(=O)N1CCC[C@@H]1c1nc(-c2ccccc2)co1)c1ccc2ccccc2n1

>  <score_type>  (21) 
oracle

>  <origin>  (21) 
autodockgpu

>  <m_score__min__energy>  (21) 
-9.6699999999999999

>  <m_primary>  (21) 
energy

>  <rmsd>  (21) 
3.9111338405907676

>  <m_score__min__rmsd>  (21) 
3.9111338405907676

>  <meeko>  (21) 
{"free_energy": -8.51, "intermolecular_energy": -10.3, "internal_energy": -2.1, "cluster_size": 21, "cluster_id": 2, "rank_in_cluster": 20}

>  <energy>  (21) 
-8.58

>  <cluster_rmsd>  (21) 
1.89

>  <cluster>  (21) 
1

$$$$

     RDKit          3D

 54 58  0  0  0  0  0  0  0  0999 V2000
  140.2980   73.0380  222.6590 O   0  0  0  0  0  0  0  0  0  0  0  0
  140.1120   71.7920  222.8220 C   0  0  0  0  0  0  0  0  0  0  0  0
  139.7770   71.0560  221.6360 N   0  0  0  0  0  0  0  0  0  0  0  0
  139.6500   71.6330  220.3410 C   0  0  0  0  0  0  0  0  0  0  0  0
  140.7630   72.2310  219.6670 C   0  0  0  0  0  0  0  0  0  0  0  0
  141.1560   71.5680  218.5900 O   0  0  0  0  0  0  0  0  0  0  0  0
  141.5530   73.3700  219.8860 N   0  0  0  0  0  0  0  0  0  0  0  0
  142.6990   73.2720  220.8490 C   0  0  0  0  0  0  0  0  0  0  0  0
  143.6860   74.2970  220.4130 C   0  0  0  0  0  0  0  0  0  0  0  0
  143.0820   74.9690  219.1970 C   0  0  0  0  0  0  0  0  0  0  0  0
  141.5830   74.7210  219.4670 C   0  0  2  0  0  0  0  0  0  0  0  0
  141.2120   75.6650  220.5960 C   0  0  0  0  0  0  0  0  0  0  0  0
  141.6740   76.8900  220.8380 N   0  0  0  0  0  0  0  0  0  0  0  0
  141.0900   77.4050  221.9480 C   0  0  0  0  0  0  0  0  0  0  0  0
  141.3030   78.7080  222.5670 C   0  0  0  0  0  0  0  0  0  0  0  0
  140.2560   79.3610  223.1870 C   0  0  0  0  0  0  0  0  0  0  0  0
  140.4170   80.5920  223.7840 C   0  0  0  0  0  0  0  0  0  0  0  0
  141.6680   81.1680  223.7460 C   0  0  0  0  0  0  0  0  0  0  0  0
  142.7000   80.5110  223.1280 C   0  0  0  0  0  0  0  0  0  0  0  0
  142.5600   79.2750  222.5240 C   0  0  0  0  0  0  0  0  0  0  0  0
  140.2320   76.4100  222.3780 C   0  0  0  0  0  0  0  0  0  0  0  0
  140.3430   75.4050  221.5440 O   0  0  0  0  0  0  0  0  0  0  0  0
  140.2300   71.1610  224.1090 C   0  0  0  0  0  0  0  0  0  0  0  0
  140.7600   71.8870  225.1530 C   0  0  0  0  0  0  0  0  0  0  0  0
  140.9010   71.3350  226.4230 C   0  0  0  0  0  0  0  0  0  0  0  0
  140.4800   70.0190  226.5830 C   0  0  0  0  0  0  0  0  0  0  0  0
  140.5720   69.3680  227.8000 C   0  0  0  0  0  0  0  0  0  0  0  0
  140.1400   68.0550  227.9150 C   0  0  0  0  0  0  0  0  0  0  0  0
  139.6120   67.3570  226.8450 C   0  0  0  0  0  0  0  0  0  0  0  0
  139.5210   68.0070  225.6310 C   0  0  0  0  0  0  0  0  0  0  0  0
  139.9530   69.3230  225.5160 C   0  0  0  0  0  0  0  0  0  0  0  0
  139.8220   69.8740  224.2830 N   0  0  0  0  0  0  0  0  0  0  0  0
  139.6310   70.0200  221.8100 H   0  0  0  0  0  0  0  0  0  0  0  0
  139.2836   70.8327  219.6813 H   0  0  0  0  0  0  0  0  0  0  0  0
  139.0029   72.5009  220.5359 H   0  0  0  0  0  0  0  0  0  0  0  0
  142.3571   73.4812  221.8734 H   0  0  0  0  0  0  0  0  0  0  0  0
  143.1385   72.2636  220.8529 H   0  0  0  0  0  0  0  0  0  0  0  0
  143.8514   75.0330  221.2136 H   0  0  0  0  0  0  0  0  0  0  0  0
  144.6607   73.8437  220.1798 H   0  0  0  0  0  0  0  0  0  0  0  0
  143.3184   76.0428  219.1651 H   0  0  0  0  0  0  0  0  0  0  0  0
  143.4465   74.5902  218.2308 H   0  0  0  0  0  0  0  0  0  0  0  0
  140.8958   74.8887  218.6246 H   0  0  0  0  0  0  0  0  0  0  0  0
  139.2648   78.8844  223.2047 H   0  0  0  0  0  0  0  0  0  0  0  0
  139.5735   81.0990  224.2754 H   0  0  0  0  0  0  0  0  0  0  0  0
  141.8378   82.1509  224.2097 H   0  0  0  0  0  0  0  0  0  0  0  0
  143.6895   80.9912  223.1117 H   0  0  0  0  0  0  0  0  0  0  0  0
  143.4063   78.7704  222.0350 H   0  0  0  0  0  0  0  0  0  0  0  0
  139.5756   76.4538  223.2596 H   0  0  0  0  0  0  0  0  0  0  0  0
  141.0786   72.9254  224.9792 H   0  0  0  0  0  0  0  0  0  0  0  0
  141.3245   71.9111  227.2589 H   0  0  0  0  0  0  0  0  0  0  0  0
  140.9869   69.8904  228.6746 H   0  0  0  0  0  0  0  0  0  0  0  0
  140.2202   67.5524  228.8902 H   0  0  0  0  0  0  0  0  0  0  0  0
  139.2749   66.3160  226.9577 H   0  0  0  0  0  0  0  0  0  0  0  0
  139.1073   67.4845  224.7559 H   0  0  0  0  0  0  0  0  0  0  0  0
  1  2  2  0
  2  3  1  0
  3  4  1  0
  4  5  1  0
  5  6  2  0
  5  7  1  0
  7  8  1  0
  8  9  1  0
  9 10  1  0
 10 11  1  0
 11 12  1  0
 12 13  2  0
 13 14  1  0
 14 15  1  0
 15 16  2  0
 16 17  1  0
 17 18  2  0
 18 19  1  0
 19 20  2  0
 14 21  2  0
 21 22  1  0
  2 23  1  0
 23 24  2  0
 24 25  1  0
 25 26  2  0
 26 27  1  0
 27 28  2  0
 28 29  1  0
 29 30  2  0
 30 31  1  0
 31 32  2  0
 11  7  1  0
 22 12  1  0
 32 23  1  0
 20 15  1  0
 31 26  1  0
  3 33  1  0
  4 34  1  0
  4 35  1  0
  8 36  1  0
  8 37  1  0
  9 38  1  0
  9 39  1  0
 10 40  1  0
 10 41  1  0
 11 42  1  6
 16 43  1  0
 17 44  1  0
 18 45  1  0
 19 46  1  0
 20 47  1  0
 21 48  1  0
 24 49  1  0
 25 50  1  0
 27 51  1  0
 28 52  1  0
 29 53  1  0
 30 54  1  0
M  END
>  <smiles>  (22) 
O=C(NCC(=O)N1CCC[C@@H]1c1nc(-c2ccccc2)co1)c1ccc2ccccc2n1

>  <score_type>  (22) 
oracle

>  <origin>  (22) 
autodockgpu

>  <m_score__min__energy>  (22) 
-9.6699999999999999

>  <m_primary>  (22) 
energy

>  <rmsd>  (22) 
3.615082635667144

>  <m_score__min__rmsd>  (22) 
3.615082635667144

>  <meeko>  (22) 
{"free_energy": -9.38, "intermolecular_energy": -11.17, "internal_energy": -2.13, "cluster_size": 25, "cluster_id": 1, "rank_in_cluster": 7}

>  <energy>  (22) 
-8.56

>  <cluster_rmsd>  (22) 
1.95

>  <cluster>  (22) 
1

$$$$

     RDKit          3D

 54 58  0  0  0  0  0  0  0  0999 V2000
  137.8650   69.7130  222.0120 O   0  0  0  0  0  0  0  0  0  0  0  0
  138.2960   70.5960  222.8160 C   0  0  0  0  0  0  0  0  0  0  0  0
  138.1070   71.9560  222.4000 N   0  0  0  0  0  0  0  0  0  0  0  0
  137.4860   72.3450  221.1780 C   0  0  0  0  0  0  0  0  0  0  0  0
  136.7240   73.5530  221.0690 C   0  0  0  0  0  0  0  0  0  0  0  0
  135.5370   73.3880  220.5060 O   0  0  0  0  0  0  0  0  0  0  0  0
  136.9460   74.8930  221.4190 N   0  0  0  0  0  0  0  0  0  0  0  0
  136.8710   75.9360  220.3430 C   0  0  0  0  0  0  0  0  0  0  0  0
  136.4890   77.2010  221.0280 C   0  0  0  0  0  0  0  0  0  0  0  0
  136.3510   76.8570  222.4960 C   0  0  0  0  0  0  0  0  0  0  0  0
  137.2870   75.6320  222.5760 C   0  0  2  0  0  0  0  0  0  0  0  0
  138.6950   76.1900  222.4890 C   0  0  0  0  0  0  0  0  0  0  0  0
  139.1130   77.4300  222.7360 N   0  0  0  0  0  0  0  0  0  0  0  0
  140.4510   77.5260  222.5430 C   0  0  0  0  0  0  0  0  0  0  0  0
  141.3120   78.6930  222.6990 C   0  0  0  0  0  0  0  0  0  0  0  0
  141.7400   79.0770  223.9540 C   0  0  0  0  0  0  0  0  0  0  0  0
  142.5540   80.1720  224.1420 C   0  0  0  0  0  0  0  0  0  0  0  0
  142.9380   80.8890  223.0300 C   0  0  0  0  0  0  0  0  0  0  0  0
  142.5070   80.4990  221.7880 C   0  0  0  0  0  0  0  0  0  0  0  0
  141.6900   79.4030  221.5780 C   0  0  0  0  0  0  0  0  0  0  0  0
  140.8350   76.2550  222.1580 C   0  0  0  0  0  0  0  0  0  0  0  0
  139.7590   75.5050  222.1430 O   0  0  0  0  0  0  0  0  0  0  0  0
  138.9290   70.2560  224.0620 C   0  0  0  0  0  0  0  0  0  0  0  0
  138.9170   68.9400  224.4700 C   0  0  0  0  0  0  0  0  0  0  0  0
  139.5130   68.5450  225.6640 C   0  0  0  0  0  0  0  0  0  0  0  0
  140.1180   69.5430  226.4220 C   0  0  0  0  0  0  0  0  0  0  0  0
  140.7410   69.2670  227.6250 C   0  0  0  0  0  0  0  0  0  0  0  0
  141.3320   70.2930  228.3480 C   0  0  0  0  0  0  0  0  0  0  0  0
  141.3250   71.6030  227.9070 C   0  0  0  0  0  0  0  0  0  0  0  0
  140.7030   71.8780  226.7060 C   0  0  0  0  0  0  0  0  0  0  0  0
  140.1110   70.8500  225.9820 C   0  0  0  0  0  0  0  0  0  0  0  0
  139.5270   71.2200  224.8150 N   0  0  0  0  0  0  0  0  0  0  0  0
  138.4770   72.6660  223.0960 H   0  0  0  0  0  0  0  0  0  0  0  0
  138.2914   72.4197  220.4325 H   0  0  0  0  0  0  0  0  0  0  0  0
  136.7146   71.5710  221.0521 H   0  0  0  0  0  0  0  0  0  0  0  0
  137.8477   76.0478  219.8496 H   0  0  0  0  0  0  0  0  0  0  0  0
  136.1435   75.6622  219.5647 H   0  0  0  0  0  0  0  0  0  0  0  0
  137.2695   77.9630  220.8860 H   0  0  0  0  0  0  0  0  0  0  0  0
  135.5532   77.6120  220.6214 H   0  0  0  0  0  0  0  0  0  0  0  0
  136.6972   77.6777  223.1415 H   0  0  0  0  0  0  0  0  0  0  0  0
  135.3200   76.6740  222.8331 H   0  0  0  0  0  0  0  0  0  0  0  0
  137.2083   75.0094  223.4794 H   0  0  0  0  0  0  0  0  0  0  0  0
  141.4217   78.4915  224.8292 H   0  0  0  0  0  0  0  0  0  0  0  0
  142.8871   80.4649  225.1486 H   0  0  0  0  0  0  0  0  0  0  0  0
  143.5874   81.7703  223.1380 H   0  0  0  0  0  0  0  0  0  0  0  0
  142.8270   81.0872  220.9153 H   0  0  0  0  0  0  0  0  0  0  0  0
  141.3589   79.1126  220.5700 H   0  0  0  0  0  0  0  0  0  0  0  0
  141.8566   75.9316  221.9096 H   0  0  0  0  0  0  0  0  0  0  0  0
  138.4257   68.1853  223.8383 H   0  0  0  0  0  0  0  0  0  0  0  0
  139.5062   67.4952  225.9925 H   0  0  0  0  0  0  0  0  0  0  0  0
  140.7680   68.2362  228.0080 H   0  0  0  0  0  0  0  0  0  0  0  0
  141.8224   70.0562  229.3038 H   0  0  0  0  0  0  0  0  0  0  0  0
  141.8005   72.4017  228.4951 H   0  0  0  0  0  0  0  0  0  0  0  0
  140.6759   72.9087  226.3226 H   0  0  0  0  0  0  0  0  0  0  0  0
  1  2  2  0
  2  3  1  0
  3  4  1  0
  4  5  1  0
  5  6  2  0
  5  7  1  0
  7  8  1  0
  8  9  1  0
  9 10  1  0
 10 11  1  0
 11 12  1  0
 12 13  2  0
 13 14  1  0
 14 15  1  0
 15 16  2  0
 16 17  1  0
 17 18  2  0
 18 19  1  0
 19 20  2  0
 14 21  2  0
 21 22  1  0
  2 23  1  0
 23 24  2  0
 24 25  1  0
 25 26  2  0
 26 27  1  0
 27 28  2  0
 28 29  1  0
 29 30  2  0
 30 31  1  0
 31 32  2  0
 11  7  1  0
 22 12  1  0
 32 23  1  0
 20 15  1  0
 31 26  1  0
  3 33  1  0
  4 34  1  0
  4 35  1  0
  8 36  1  0
  8 37  1  0
  9 38  1  0
  9 39  1  0
 10 40  1  0
 10 41  1  0
 11 42  1  1
 16 43  1  0
 17 44  1  0
 18 45  1  0
 19 46  1  0
 20 47  1  0
 21 48  1  0
 24 49  1  0
 25 50  1  0
 27 51  1  0
 28 52  1  0
 29 53  1  0
 30 54  1  0
M  END
>  <smiles>  (23) 
O=C(NCC(=O)N1CCC[C@@H]1c1nc(-c2ccccc2)co1)c1ccc2ccccc2n1

>  <score_type>  (23) 
oracle

>  <origin>  (23) 
autodockgpu

>  <m_score__min__energy>  (23) 
-9.6699999999999999

>  <m_primary>  (23) 
energy

>  <rmsd>  (23) 
3.3995462128457006

>  <m_score__min__rmsd>  (23) 
3.3995462128457006

>  <meeko>  (23) 
{"free_energy": -8.87, "intermolecular_energy": -10.66, "internal_energy": -1.86, "cluster_size": 21, "cluster_id": 2, "rank_in_cluster": 10}

>  <energy>  (23) 
-8.53

>  <cluster_rmsd>  (23) 
1.98

>  <cluster>  (23) 
1

$$$$

     RDKit          3D

 54 58  0  0  0  0  0  0  0  0999 V2000
  138.9160   72.5740  221.9330 O   0  0  0  0  0  0  0  0  0  0  0  0
  139.6490   71.5710  222.1960 C   0  0  0  0  0  0  0  0  0  0  0  0
  140.2810   70.9530  221.0650 N   0  0  0  0  0  0  0  0  0  0  0  0
  140.1300   71.3940  219.7190 C   0  0  0  0  0  0  0  0  0  0  0  0
  140.3940   72.7480  219.3340 C   0  0  0  0  0  0  0  0  0  0  0  0
  139.5740   73.2090  218.4030 O   0  0  0  0  0  0  0  0  0  0  0  0
  141.3380   73.7150  219.7130 N   0  0  0  0  0  0  0  0  0  0  0  0
  142.3730   73.3440  220.7330 C   0  0  0  0  0  0  0  0  0  0  0  0
  143.5440   74.2220  220.4630 C   0  0  0  0  0  0  0  0  0  0  0  0
  143.1550   75.0870  219.2840 C   0  0  0  0  0  0  0  0  0  0  0  0
  141.6180   75.0720  219.4320 C   0  0  2  0  0  0  0  0  0  0  0  0
  141.3160   75.9640  220.6210 C   0  0  0  0  0  0  0  0  0  0  0  0
  141.7380   77.2050  220.8550 N   0  0  0  0  0  0  0  0  0  0  0  0
  141.2440   77.6590  222.0330 C   0  0  0  0  0  0  0  0  0  0  0  0
  141.4520   78.9550  222.6700 C   0  0  0  0  0  0  0  0  0  0  0  0
  142.7300   79.4460  222.8410 C   0  0  0  0  0  0  0  0  0  0  0  0
  142.9680   80.6650  223.4370 C   0  0  0  0  0  0  0  0  0  0  0  0
  141.8820   81.3950  223.8670 C   0  0  0  0  0  0  0  0  0  0  0  0
  140.6160   80.8980  223.6920 C   0  0  0  0  0  0  0  0  0  0  0  0
  140.3560   79.6770  223.0960 C   0  0  0  0  0  0  0  0  0  0  0  0
  140.4840   76.6090  222.5150 C   0  0  0  0  0  0  0  0  0  0  0  0
  140.5610   75.6330  221.6420 O   0  0  0  0  0  0  0  0  0  0  0  0
  139.8340   71.0880  223.5380 C   0  0  0  0  0  0  0  0  0  0  0  0
  139.4020   69.8170  223.8460 C   0  0  0  0  0  0  0  0  0  0  0  0
  139.5530   69.2900  225.1260 C   0  0  0  0  0  0  0  0  0  0  0  0
  140.1590   70.1090  226.0730 C   0  0  0  0  0  0  0  0  0  0  0  0
  140.3610   69.6910  227.3760 C   0  0  0  0  0  0  0  0  0  0  0  0
  140.9700   70.5410  228.2870 C   0  0  0  0  0  0  0  0  0  0  0  0
  141.3910   71.8110  227.9420 C   0  0  0  0  0  0  0  0  0  0  0  0
  141.1890   72.2280  226.6410 C   0  0  0  0  0  0  0  0  0  0  0  0
  140.5800   71.3760  225.7280 C   0  0  0  0  0  0  0  0  0  0  0  0
  140.4270   71.8770  224.4760 N   0  0  0  0  0  0  0  0  0  0  0  0
  140.8860   70.1200  221.3230 H   0  0  0  0  0  0  0  0  0  0  0  0
  140.7966   70.7646  219.1112 H   0  0  0  0  0  0  0  0  0  0  0  0
  139.0430   71.3169  219.5691 H   0  0  0  0  0  0  0  0  0  0  0  0
  141.9893   73.5194  221.7489 H   0  0  0  0  0  0  0  0  0  0  0  0
  142.6423   72.2795  220.6668 H   0  0  0  0  0  0  0  0  0  0  0  0
  143.7624   74.8482  221.3406 H   0  0  0  0  0  0  0  0  0  0  0  0
  144.4480   73.6328  220.2490 H   0  0  0  0  0  0  0  0  0  0  0  0
  143.5632   76.1046  219.3726 H   0  0  0  0  0  0  0  0  0  0  0  0
  143.5290   74.7369  218.3106 H   0  0  0  0  0  0  0  0  0  0  0  0
  141.0353   75.4246  218.5682 H   0  0  0  0  0  0  0  0  0  0  0  0
  143.5836   78.8467  222.4913 H   0  0  0  0  0  0  0  0  0  0  0  0
  143.9929   81.0434  223.5654 H   0  0  0  0  0  0  0  0  0  0  0  0
  142.0297   82.3727  224.3489 H   0  0  0  0  0  0  0  0  0  0  0  0
  139.7649   81.5001  224.0430 H   0  0  0  0  0  0  0  0  0  0  0  0
  139.3299   79.3016  222.9684 H   0  0  0  0  0  0  0  0  0  0  0  0
  139.9182   76.5949  223.4582 H   0  0  0  0  0  0  0  0  0  0  0  0
  138.9277   69.2053  223.0644 H   0  0  0  0  0  0  0  0  0  0  0  0
  139.2097   68.2753  225.3761 H   0  0  0  0  0  0  0  0  0  0  0  0
  140.0393   68.6867  227.6889 H   0  0  0  0  0  0  0  0  0  0  0  0
  141.1230   70.1924  229.3190 H   0  0  0  0  0  0  0  0  0  0  0  0
  141.8720   72.4693  228.6804 H   0  0  0  0  0  0  0  0  0  0  0  0
  141.5096   73.2327  226.3282 H   0  0  0  0  0  0  0  0  0  0  0  0
  1  2  2  0
  2  3  1  0
  3  4  1  0
  4  5  1  0
  5  6  2  0
  5  7  1  0
  7  8  1  0
  8  9  1  0
  9 10  1  0
 10 11  1  0
 11 12  1  0
 12 13  2  0
 13 14  1  0
 14 15  1  0
 15 16  2  0
 16 17  1  0
 17 18  2  0
 18 19  1  0
 19 20  2  0
 14 21  2  0
 21 22  1  0
  2 23  1  0
 23 24  2  0
 24 25  1  0
 25 26  2  0
 26 27  1  0
 27 28  2  0
 28 29  1  0
 29 30  2  0
 30 31  1  0
 31 32  2  0
 11  7  1  0
 22 12  1  0
 32 23  1  0
 20 15  1  0
 31 26  1  0
  3 33  1  0
  4 34  1  0
  4 35  1  0
  8 36  1  0
  8 37  1  0
  9 38  1  0
  9 39  1  0
 10 40  1  0
 10 41  1  0
 11 42  1  6
 16 43  1  0
 17 44  1  0
 18 45  1  0
 19 46  1  0
 20 47  1  0
 21 48  1  0
 24 49  1  0
 25 50  1  0
 27 51  1  0
 28 52  1  0
 29 53  1  0
 30 54  1  0
M  END
>  <smiles>  (24) 
O=C(NCC(=O)N1CCC[C@@H]1c1nc(-c2ccccc2)co1)c1ccc2ccccc2n1

>  <score_type>  (24) 
oracle

>  <origin>  (24) 
autodockgpu

>  <m_score__min__energy>  (24) 
-9.6699999999999999

>  <m_primary>  (24) 
energy

>  <rmsd>  (24) 
3.2353080591538927

>  <m_score__min__rmsd>  (24) 
3.2353080591538927

>  <meeko>  (24) 
{"free_energy": -8.8, "intermolecular_energy": -10.59, "internal_energy": -1.78, "cluster_size": 25, "cluster_id": 1, "rank_in_cluster": 18}

>  <energy>  (24) 
-8.48

>  <cluster_rmsd>  (24) 
1.96

>  <cluster>  (24) 
1

$$$$

     RDKit          3D

 54 58  0  0  0  0  0  0  0  0999 V2000
  140.1100   74.6430  222.3420 O   0  0  0  0  0  0  0  0  0  0  0  0
  140.0650   75.6880  221.6210 C   0  0  0  0  0  0  0  0  0  0  0  0
  139.8750   75.4630  220.2170 N   0  0  0  0  0  0  0  0  0  0  0  0
  139.7400   74.1770  219.6190 C   0  0  0  0  0  0  0  0  0  0  0  0
  138.6130   73.3350  219.8850 C   0  0  0  0  0  0  0  0  0  0  0  0
  137.8000   73.1860  218.8510 O   0  0  0  0  0  0  0  0  0  0  0  0
  138.1580   72.6210  221.0030 N   0  0  0  0  0  0  0  0  0  0  0  0
  137.3470   73.3480  222.0360 C   0  0  0  0  0  0  0  0  0  0  0  0
  136.4930   72.3160  222.6840 C   0  0  0  0  0  0  0  0  0  0  0  0
  136.8320   71.0050  222.0060 C   0  0  0  0  0  0  0  0  0  0  0  0
  138.2680   71.3120  221.5280 C   0  0  2  0  0  0  0  0  0  0  0  0
  139.1270   71.2800  222.7780 C   0  0  0  0  0  0  0  0  0  0  0  0
  139.0720   70.4290  223.8000 N   0  0  0  0  0  0  0  0  0  0  0  0
  140.0150   70.7380  224.7240 C   0  0  0  0  0  0  0  0  0  0  0  0
  140.3020   70.0730  225.9900 C   0  0  0  0  0  0  0  0  0  0  0  0
  140.7370   70.8060  227.0760 C   0  0  0  0  0  0  0  0  0  0  0  0
  141.0190   70.2140  228.2880 C   0  0  0  0  0  0  0  0  0  0  0  0
  140.8540   68.8510  228.3940 C   0  0  0  0  0  0  0  0  0  0  0  0
  140.4210   68.1320  227.3090 C   0  0  0  0  0  0  0  0  0  0  0  0
  140.1330   68.7070  226.0840 C   0  0  0  0  0  0  0  0  0  0  0  0
  140.6600   71.8430  224.2010 C   0  0  0  0  0  0  0  0  0  0  0  0
  140.0970   72.1210  223.0500 O   0  0  0  0  0  0  0  0  0  0  0  0
  140.1940   77.0080  222.1770 C   0  0  0  0  0  0  0  0  0  0  0  0
  139.0560   77.6600  222.5990 C   0  0  0  0  0  0  0  0  0  0  0  0
  139.1140   78.9390  223.1460 C   0  0  0  0  0  0  0  0  0  0  0  0
  140.3740   79.5220  223.2430 C   0  0  0  0  0  0  0  0  0  0  0  0
  140.5510   80.7880  223.7700 C   0  0  0  0  0  0  0  0  0  0  0  0
  141.8250   81.3310  223.8490 C   0  0  0  0  0  0  0  0  0  0  0  0
  142.9450   80.6470  223.4160 C   0  0  0  0  0  0  0  0  0  0  0  0
  142.7670   79.3830  222.8900 C   0  0  0  0  0  0  0  0  0  0  0  0
  141.4900   78.8390  222.8110 C   0  0  0  0  0  0  0  0  0  0  0  0
  141.4200   77.5920  222.2800 N   0  0  0  0  0  0  0  0  0  0  0  0
  139.8400   76.3570  219.6470 H   0  0  0  0  0  0  0  0  0  0  0  0
  139.7541   74.3394  218.5311 H   0  0  0  0  0  0  0  0  0  0  0  0
  140.5643   73.6164  220.0841 H   0  0  0  0  0  0  0  0  0  0  0  0
  138.0074   73.8196  222.7786 H   0  0  0  0  0  0  0  0  0  0  0  0
  136.7418   74.1481  221.5848 H   0  0  0  0  0  0  0  0  0  0  0  0
  136.7143   72.2579  223.7599 H   0  0  0  0  0  0  0  0  0  0  0  0
  135.4245   72.5567  222.5825 H   0  0  0  0  0  0  0  0  0  0  0  0
  136.8086   70.1623  222.7126 H   0  0  0  0  0  0  0  0  0  0  0  0
  136.1348   70.7012  221.2113 H   0  0  0  0  0  0  0  0  0  0  0  0
  138.6982   70.6244  220.7849 H   0  0  0  0  0  0  0  0  0  0  0  0
  140.8621   71.8938  226.9708 H   0  0  0  0  0  0  0  0  0  0  0  0
  141.3651   70.8116  229.1442 H   0  0  0  0  0  0  0  0  0  0  0  0
  141.0685   68.3409  229.3447 H   0  0  0  0  0  0  0  0  0  0  0  0
  140.2966   67.0445  227.4183 H   0  0  0  0  0  0  0  0  0  0  0  0
  139.7873   68.1064  225.2297 H   0  0  0  0  0  0  0  0  0  0  0  0
  141.4938   72.3896  224.6658 H   0  0  0  0  0  0  0  0  0  0  0  0
  138.0813   77.1596  222.5017 H   0  0  0  0  0  0  0  0  0  0  0  0
  138.2082   79.4631  223.4849 H   0  0  0  0  0  0  0  0  0  0  0  0
  139.6835   81.3632  224.1258 H   0  0  0  0  0  0  0  0  0  0  0  0
  141.9479   82.3397  224.2703 H   0  0  0  0  0  0  0  0  0  0  0  0
  143.9468   81.0955  223.4882 H   0  0  0  0  0  0  0  0  0  0  0  0
  143.6341   78.8073  222.5340 H   0  0  0  0  0  0  0  0  0  0  0  0
  1  2  2  0
  2  3  1  0
  3  4  1  0
  4  5  1  0
  5  6  2  0
  5  7  1  0
  7  8  1  0
  8  9  1  0
  9 10  1  0
 10 11  1  0
 11 12  1  0
 12 13  2  0
 13 14  1  0
 14 15  1  0
 15 16  2  0
 16 17  1  0
 17 18  2  0
 18 19  1  0
 19 20  2  0
 14 21  2  0
 21 22  1  0
  2 23  1  0
 23 24  2  0
 24 25  1  0
 25 26  2  0
 26 27  1  0
 27 28  2  0
 28 29  1  0
 29 30  2  0
 30 31  1  0
 31 32  2  0
 11  7  1  0
 22 12  1  0
 32 23  1  0
 20 15  1  0
 31 26  1  0
  3 33  1  0
  4 34  1  0
  4 35  1  0
  8 36  1  0
  8 37  1  0
  9 38  1  0
  9 39  1  0
 10 40  1  0
 10 41  1  0
 11 42  1  6
 16 43  1  0
 17 44  1  0
 18 45  1  0
 19 46  1  0
 20 47  1  0
 21 48  1  0
 24 49  1  0
 25 50  1  0
 27 51  1  0
 28 52  1  0
 29 53  1  0
 30 54  1  0
M  END
>  <smiles>  (25) 
O=C(NCC(=O)N1CCC[C@@H]1c1nc(-c2ccccc2)co1)c1ccc2ccccc2n1

>  <score_type>  (25) 
oracle

>  <origin>  (25) 
autodockgpu

>  <m_score__min__energy>  (25) 
-9.6699999999999999

>  <m_primary>  (25) 
energy

>  <rmsd>  (25) 
9.53620474895343

>  <m_score__min__rmsd>  (25) 
9.53620474895343

>  <meeko>  (25) 
{"free_energy": -8.85, "intermolecular_energy": -10.64, "internal_energy": -1.8, "cluster_size": 21, "cluster_id": 2, "rank_in_cluster": 12}

>  <energy>  (25) 
-8.43

>  <cluster_rmsd>  (25) 
1.29

>  <cluster>  (25) 
1

$$$$

     RDKit          3D

 54 58  0  0  0  0  0  0  0  0999 V2000
  140.3500   72.6010  221.8570 O   0  0  0  0  0  0  0  0  0  0  0  0
  139.5380   71.7380  222.3120 C   0  0  0  0  0  0  0  0  0  0  0  0
  138.4690   71.3680  221.4290 N   0  0  0  0  0  0  0  0  0  0  0  0
  138.2840   71.9020  220.1220 C   0  0  0  0  0  0  0  0  0  0  0  0
  137.7730   73.2240  219.9110 C   0  0  0  0  0  0  0  0  0  0  0  0
  137.3170   73.4320  218.6860 O   0  0  0  0  0  0  0  0  0  0  0  0
  137.6440   74.3700  220.7100 N   0  0  0  0  0  0  0  0  0  0  0  0
  137.2360   75.6570  220.0540 C   0  0  0  0  0  0  0  0  0  0  0  0
  136.5650   76.4590  221.1140 C   0  0  0  0  0  0  0  0  0  0  0  0
  136.6010   75.6100  222.3670 C   0  0  0  0  0  0  0  0  0  0  0  0
  137.8340   74.7320  222.0640 C   0  0  2  0  0  0  0  0  0  0  0  0
  139.0350   75.6440  222.2360 C   0  0  0  0  0  0  0  0  0  0  0  0
  139.0590   76.9190  222.6200 N   0  0  0  0  0  0  0  0  0  0  0  0
  140.3330   77.3800  222.6500 C   0  0  0  0  0  0  0  0  0  0  0  0
  140.8130   78.7090  223.0100 C   0  0  0  0  0  0  0  0  0  0  0  0
  142.1450   79.0340  222.8490 C   0  0  0  0  0  0  0  0  0  0  0  0
  142.6360   80.2780  223.1770 C   0  0  0  0  0  0  0  0  0  0  0  0
  141.7530   81.2080  223.6800 C   0  0  0  0  0  0  0  0  0  0  0  0
  140.4320   80.8750  223.8370 C   0  0  0  0  0  0  0  0  0  0  0  0
  139.9190   79.6320  223.5130 C   0  0  0  0  0  0  0  0  0  0  0  0
  141.1000   76.2980  222.2570 C   0  0  0  0  0  0  0  0  0  0  0  0
  140.2820   75.2990  222.0260 O   0  0  0  0  0  0  0  0  0  0  0  0
  139.6810   71.1670  223.6250 C   0  0  0  0  0  0  0  0  0  0  0  0
  139.1690   69.9100  223.8570 C   0  0  0  0  0  0  0  0  0  0  0  0
  139.2750   69.3020  225.1050 C   0  0  0  0  0  0  0  0  0  0  0  0
  139.9220   70.0270  226.1010 C   0  0  0  0  0  0  0  0  0  0  0  0
  140.0860   69.5230  227.3780 C   0  0  0  0  0  0  0  0  0  0  0  0
  140.7380   70.2800  228.3410 C   0  0  0  0  0  0  0  0  0  0  0  0
  141.2390   71.5400  228.0720 C   0  0  0  0  0  0  0  0  0  0  0  0
  141.0750   72.0420  226.7970 C   0  0  0  0  0  0  0  0  0  0  0  0
  140.4230   71.2830  225.8330 C   0  0  0  0  0  0  0  0  0  0  0  0
  140.3120   71.8630  224.6110 N   0  0  0  0  0  0  0  0  0  0  0  0
  137.8110   70.6440  221.8420 H   0  0  0  0  0  0  0  0  0  0  0  0
  139.2689   71.8701  219.6332 H   0  0  0  0  0  0  0  0  0  0  0  0
  137.4729   71.2731  219.7262 H   0  0  0  0  0  0  0  0  0  0  0  0
  138.1199   76.1895  219.6729 H   0  0  0  0  0  0  0  0  0  0  0  0
  136.5690   75.4805  219.1973 H   0  0  0  0  0  0  0  0  0  0  0  0
  137.1042   77.4038  221.2771 H   0  0  0  0  0  0  0  0  0  0  0  0
  135.5334   76.7162  220.8317 H   0  0  0  0  0  0  0  0  0  0  0  0
  136.7476   76.2213  223.2697 H   0  0  0  0  0  0  0  0  0  0  0  0
  135.6759   75.0521  222.5741 H   0  0  0  0  0  0  0  0  0  0  0  0
  137.9722   73.8417  222.6951 H   0  0  0  0  0  0  0  0  0  0  0  0
  142.8344   78.2770  222.4469 H   0  0  0  0  0  0  0  0  0  0  0  0
  143.7001   80.5215  223.0416 H   0  0  0  0  0  0  0  0  0  0  0  0
  142.1059   82.2131  223.9544 H   0  0  0  0  0  0  0  0  0  0  0  0
  139.7461   81.6343  224.2408 H   0  0  0  0  0  0  0  0  0  0  0  0
  138.8542   79.3918  223.6492 H   0  0  0  0  0  0  0  0  0  0  0  0
  142.1952   76.2789  222.1566 H   0  0  0  0  0  0  0  0  0  0  0  0
  138.6654   69.3746  223.0386 H   0  0  0  0  0  0  0  0  0  0  0  0
  138.8674   68.2980  225.2943 H   0  0  0  0  0  0  0  0  0  0  0  0
  139.7004   68.5241  227.6300 H   0  0  0  0  0  0  0  0  0  0  0  0
  140.8602   69.8637  229.3518 H   0  0  0  0  0  0  0  0  0  0  0  0
  141.7523   72.1242  228.8499 H   0  0  0  0  0  0  0  0  0  0  0  0
  141.4597   73.0411  226.5444 H   0  0  0  0  0  0  0  0  0  0  0  0
  1  2  2  0
  2  3  1  0
  3  4  1  0
  4  5  1  0
  5  6  2  0
  5  7  1  0
  7  8  1  0
  8  9  1  0
  9 10  1  0
 10 11  1  0
 11 12  1  0
 12 13  2  0
 13 14  1  0
 14 15  1  0
 15 16  2  0
 16 17  1  0
 17 18  2  0
 18 19  1  0
 19 20  2  0
 14 21  2  0
 21 22  1  0
  2 23  1  0
 23 24  2  0
 24 25  1  0
 25 26  2  0
 26 27  1  0
 27 28  2  0
 28 29  1  0
 29 30  2  0
 30 31  1  0
 31 32  2  0
 11  7  1  0
 22 12  1  0
 32 23  1  0
 20 15  1  0
 31 26  1  0
  3 33  1  0
  4 34  1  0
  4 35  1  0
  8 36  1  0
  8 37  1  0
  9 38  1  0
  9 39  1  0
 10 40  1  0
 10 41  1  0
 11 42  1  1
 16 43  1  0
 17 44  1  0
 18 45  1  0
 19 46  1  0
 20 47  1  0
 21 48  1  0
 24 49  1  0
 25 50  1  0
 27 51  1  0
 28 52  1  0
 29 53  1  0
 30 54  1  0
M  END
>  <smiles>  (26) 
O=C(NCC(=O)N1CCC[C@@H]1c1nc(-c2ccccc2)co1)c1ccc2ccccc2n1

>  <score_type>  (26) 
oracle

>  <origin>  (26) 
autodockgpu

>  <m_score__min__energy>  (26) 
-9.6699999999999999

>  <m_primary>  (26) 
energy

>  <rmsd>  (26) 
3.458951482404443

>  <m_score__min__rmsd>  (26) 
3.458951482404443

>  <meeko>  (26) 
{"free_energy": -8.73, "intermolecular_energy": -10.52, "internal_energy": -1.81, "cluster_size": 21, "cluster_id": 2, "rank_in_cluster": 16}

>  <energy>  (26) 
-9.21

>  <cluster_rmsd>  (26) 
0.0

>  <cluster>  (26) 
2

$$$$

     RDKit          3D

 54 58  0  0  0  0  0  0  0  0999 V2000
  139.1550   70.9060  221.3820 O   0  0  0  0  0  0  0  0  0  0  0  0
  139.3750   71.5830  222.4340 C   0  0  0  0  0  0  0  0  0  0  0  0
  139.3540   73.0080  222.2680 N   0  0  0  0  0  0  0  0  0  0  0  0
  139.1080   73.6710  221.0320 C   0  0  0  0  0  0  0  0  0  0  0  0
  137.8700   74.3410  220.7680 C   0  0  0  0  0  0  0  0  0  0  0  0
  137.2000   73.8430  219.7400 O   0  0  0  0  0  0  0  0  0  0  0  0
  137.1910   75.4230  221.3480 N   0  0  0  0  0  0  0  0  0  0  0  0
  136.4840   76.3920  220.4460 C   0  0  0  0  0  0  0  0  0  0  0  0
  135.3820   76.9750  221.2600 C   0  0  0  0  0  0  0  0  0  0  0  0
  135.4800   76.3260  222.6230 C   0  0  0  0  0  0  0  0  0  0  0  0
  136.9780   75.9560  222.6410 C   0  0  2  0  0  0  0  0  0  0  0  0
  137.7180   77.2660  222.8360 C   0  0  0  0  0  0  0  0  0  0  0  0
  139.0310   77.4760  222.8980 N   0  0  0  0  0  0  0  0  0  0  0  0
  139.2920   78.7930  223.0810 C   0  0  0  0  0  0  0  0  0  0  0  0
  140.5850   79.4570  223.2040 C   0  0  0  0  0  0  0  0  0  0  0  0
  140.6520   80.7750  223.6100 C   0  0  0  0  0  0  0  0  0  0  0  0
  141.8530   81.4370  223.7390 C   0  0  0  0  0  0  0  0  0  0  0  0
  143.0060   80.7420  223.4470 C   0  0  0  0  0  0  0  0  0  0  0  0
  142.9280   79.4340  223.0440 C   0  0  0  0  0  0  0  0  0  0  0  0
  141.7330   78.7510  222.9100 C   0  0  0  0  0  0  0  0  0  0  0  0
  138.0450   79.3880  223.1280 C   0  0  0  0  0  0  0  0  0  0  0  0
  137.1500   78.4400  222.9780 O   0  0  0  0  0  0  0  0  0  0  0  0
  139.6290   70.9620  223.7060 C   0  0  0  0  0  0  0  0  0  0  0  0
  139.3460   69.6220  223.8530 C   0  0  0  0  0  0  0  0  0  0  0  0
  139.5690   68.9610  225.0580 C   0  0  0  0  0  0  0  0  0  0  0  0
  140.0880   69.7210  226.1020 C   0  0  0  0  0  0  0  0  0  0  0  0
  140.3500   69.1700  227.3430 C   0  0  0  0  0  0  0  0  0  0  0  0
  140.8680   69.9650  228.3550 C   0  0  0  0  0  0  0  0  0  0  0  0
  141.1400   71.3080  228.1710 C   0  0  0  0  0  0  0  0  0  0  0  0
  140.8780   71.8560  226.9320 C   0  0  0  0  0  0  0  0  0  0  0  0
  140.3590   71.0600  225.9180 C   0  0  0  0  0  0  0  0  0  0  0  0
  140.1380   71.6910  224.7370 N   0  0  0  0  0  0  0  0  0  0  0  0
  139.5410   73.5410  223.1670 H   0  0  0  0  0  0  0  0  0  0  0  0
  139.8981   74.4289  220.9255 H   0  0  0  0  0  0  0  0  0  0  0  0
  139.0757   72.8328  220.3204 H   0  0  0  0  0  0  0  0  0  0  0  0
  137.1749   77.1815  220.1155 H   0  0  0  0  0  0  0  0  0  0  0  0
  136.1007   75.8970  219.5415 H   0  0  0  0  0  0  0  0  0  0  0  0
  135.5059   78.0646  221.3460 H   0  0  0  0  0  0  0  0  0  0  0  0
  134.4007   76.7932  220.7975 H   0  0  0  0  0  0  0  0  0  0  0  0
  135.2243   77.0297  223.4288 H   0  0  0  0  0  0  0  0  0  0  0  0
  134.7937   75.4813  222.7827 H   0  0  0  0  0  0  0  0  0  0  0  0
  137.3020   75.2479  223.4180 H   0  0  0  0  0  0  0  0  0  0  0  0
  139.7192   81.3119  223.8370 H   0  0  0  0  0  0  0  0  0  0  0  0
  141.8902   82.4870  224.0647 H   0  0  0  0  0  0  0  0  0  0  0  0
  143.9854   81.2346  223.5369 H   0  0  0  0  0  0  0  0  0  0  0  0
  143.8628   78.9010  222.8158 H   0  0  0  0  0  0  0  0  0  0  0  0
  141.6997   77.7003  222.5861 H   0  0  0  0  0  0  0  0  0  0  0  0
  137.8404   80.4600  223.2659 H   0  0  0  0  0  0  0  0  0  0  0  0
  138.9350   69.0620  223.0001 H   0  0  0  0  0  0  0  0  0  0  0  0
  139.3459   67.8907  225.1789 H   0  0  0  0  0  0  0  0  0  0  0  0
  140.1483   68.1045  227.5272 H   0  0  0  0  0  0  0  0  0  0  0  0
  141.0691   69.5116  229.3368 H   0  0  0  0  0  0  0  0  0  0  0  0
  141.5522   71.9203  228.9866 H   0  0  0  0  0  0  0  0  0  0  0  0
  141.0797   72.9214  226.7472 H   0  0  0  0  0  0  0  0  0  0  0  0
  1  2  2  0
  2  3  1  0
  3  4  1  0
  4  5  1  0
  5  6  2  0
  5  7  1  0
  7  8  1  0
  8  9  1  0
  9 10  1  0
 10 11  1  0
 11 12  1  0
 12 13  2  0
 13 14  1  0
 14 15  1  0
 15 16  2  0
 16 17  1  0
 17 18  2  0
 18 19  1  0
 19 20  2  0
 14 21  2  0
 21 22  1  0
  2 23  1  0
 23 24  2  0
 24 25  1  0
 25 26  2  0
 26 27  1  0
 27 28  2  0
 28 29  1  0
 29 30  2  0
 30 31  1  0
 31 32  2  0
 11  7  1  0
 22 12  1  0
 32 23  1  0
 20 15  1  0
 31 26  1  0
  3 33  1  0
  4 34  1  0
  4 35  1  0
  8 36  1  0
  8 37  1  0
  9 38  1  0
  9 39  1  0
 10 40  1  0
 10 41  1  0
 11 42  1  1
 16 43  1  0
 17 44  1  0
 18 45  1  0
 19 46  1  0
 20 47  1  0
 21 48  1  0
 24 49  1  0
 25 50  1  0
 27 51  1  0
 28 52  1  0
 29 53  1  0
 30 54  1  0
M  END
>  <smiles>  (27) 
O=C(NCC(=O)N1CCC[C@@H]1c1nc(-c2ccccc2)co1)c1ccc2ccccc2n1

>  <score_type>  (27) 
oracle

>  <origin>  (27) 
autodockgpu

>  <m_score__min__energy>  (27) 
-9.6699999999999999

>  <m_primary>  (27) 
energy

>  <rmsd>  (27) 
3.593534893027439

>  <m_score__min__rmsd>  (27) 
3.593534893027439

>  <meeko>  (27) 
{"free_energy": -8.68, "intermolecular_energy": -10.47, "internal_energy": -1.71, "cluster_size": 21, "cluster_id": 2, "rank_in_cluster": 19}

>  <energy>  (27) 
-9.11

>  <cluster_rmsd>  (27) 
0.76

>  <cluster>  (27) 
2

$$$$

     RDKit          3D

 54 58  0  0  0  0  0  0  0  0999 V2000
  139.3620   75.5170  220.9040 O   0  0  0  0  0  0  0  0  0  0  0  0
  140.4580   76.0590  221.2450 C   0  0  0  0  0  0  0  0  0  0  0  0
  141.6430   75.3160  220.9220 N   0  0  0  0  0  0  0  0  0  0  0  0
  141.6460   74.0530  220.2650 C   0  0  0  0  0  0  0  0  0  0  0  0
  141.2940   72.8450  220.9480 C   0  0  0  0  0  0  0  0  0  0  0  0
  142.3290   72.0730  221.2410 O   0  0  0  0  0  0  0  0  0  0  0  0
  140.0890   72.2740  221.3840 N   0  0  0  0  0  0  0  0  0  0  0  0
  139.2240   73.0590  222.3260 C   0  0  0  0  0  0  0  0  0  0  0  0
  137.8330   72.5770  222.1000 C   0  0  0  0  0  0  0  0  0  0  0  0
  137.9280   71.5160  221.0240 C   0  0  0  0  0  0  0  0  0  0  0  0
  139.3880   71.0550  221.2260 C   0  0  2  0  0  0  0  0  0  0  0  0
  139.3830   70.2410  222.5060 C   0  0  0  0  0  0  0  0  0  0  0  0
  139.9780   70.5160  223.6650 N   0  0  0  0  0  0  0  0  0  0  0  0
  139.7320   69.5340  224.5670 C   0  0  0  0  0  0  0  0  0  0  0  0
  140.1880   69.4320  225.9490 C   0  0  0  0  0  0  0  0  0  0  0  0
  140.5430   70.5680  226.6480 C   0  0  0  0  0  0  0  0  0  0  0  0
  140.9770   70.5140  227.9540 C   0  0  0  0  0  0  0  0  0  0  0  0
  141.0520   69.2780  228.5580 C   0  0  0  0  0  0  0  0  0  0  0  0
  140.6970   68.1550  227.8540 C   0  0  0  0  0  0  0  0  0  0  0  0
  140.2580   68.1890  226.5430 C   0  0  0  0  0  0  0  0  0  0  0  0
  138.9420   68.6290  223.8840 C   0  0  0  0  0  0  0  0  0  0  0  0
  138.7660   69.0960  222.6710 O   0  0  0  0  0  0  0  0  0  0  0  0
  140.5090   77.3330  221.9100 C   0  0  0  0  0  0  0  0  0  0  0  0
  139.3230   77.9420  222.2590 C   0  0  0  0  0  0  0  0  0  0  0  0
  139.3040   79.1750  222.9050 C   0  0  0  0  0  0  0  0  0  0  0  0
  140.5370   79.7580  223.1790 C   0  0  0  0  0  0  0  0  0  0  0  0
  140.6390   80.9810  223.8170 C   0  0  0  0  0  0  0  0  0  0  0  0
  141.8890   81.5250  224.0710 C   0  0  0  0  0  0  0  0  0  0  0  0
  143.0590   80.8850  223.7070 C   0  0  0  0  0  0  0  0  0  0  0  0
  142.9560   79.6640  223.0700 C   0  0  0  0  0  0  0  0  0  0  0  0
  141.7030   79.1190  222.8160 C   0  0  0  0  0  0  0  0  0  0  0  0
  141.7080   77.9160  222.1870 N   0  0  0  0  0  0  0  0  0  0  0  0
  142.5390   75.8000  221.2210 H   0  0  0  0  0  0  0  0  0  0  0  0
  140.9487   74.1436  219.4191 H   0  0  0  0  0  0  0  0  0  0  0  0
  142.7158   73.9005  220.0594 H   0  0  0  0  0  0  0  0  0  0  0  0
  139.5280   72.8760  223.3672 H   0  0  0  0  0  0  0  0  0  0  0  0
  139.3107   74.1410  222.1476 H   0  0  0  0  0  0  0  0  0  0  0  0
  137.4225   72.1470  223.0255 H   0  0  0  0  0  0  0  0  0  0  0  0
  137.1663   73.3982  221.7980 H   0  0  0  0  0  0  0  0  0  0  0  0
  137.2143   70.6966  221.1951 H   0  0  0  0  0  0  0  0  0  0  0  0
  137.6898   71.8650  220.0084 H   0  0  0  0  0  0  0  0  0  0  0  0
  139.8297   70.4475  220.4223 H   0  0  0  0  0  0  0  0  0  0  0  0
  140.4774   71.5452  226.1473 H   0  0  0  0  0  0  0  0  0  0  0  0
  141.2550   71.4289  228.4977 H   0  0  0  0  0  0  0  0  0  0  0  0
  141.3948   69.1918  229.5997 H   0  0  0  0  0  0  0  0  0  0  0  0
  140.7650   67.1793  228.3574 H   0  0  0  0  0  0  0  0  0  0  0  0
  139.9792   67.2726  226.0021 H   0  0  0  0  0  0  0  0  0  0  0  0
  138.5351   67.6887  224.2844 H   0  0  0  0  0  0  0  0  0  0  0  0
  138.3715   77.4434  222.0222 H   0  0  0  0  0  0  0  0  0  0  0  0
  138.3597   79.6646  223.1852 H   0  0  0  0  0  0  0  0  0  0  0  0
  139.7305   81.5209  224.1222 H   0  0  0  0  0  0  0  0  0  0  0  0
  141.9517   82.4985  224.5792 H   0  0  0  0  0  0  0  0  0  0  0  0
  144.0408   81.3340  223.9180 H   0  0  0  0  0  0  0  0  0  0  0  0
  143.8641   79.1238  222.7642 H   0  0  0  0  0  0  0  0  0  0  0  0
  1  2  2  0
  2  3  1  0
  3  4  1  0
  4  5  1  0
  5  6  2  0
  5  7  1  0
  7  8  1  0
  8  9  1  0
  9 10  1  0
 10 11  1  0
 11 12  1  0
 12 13  2  0
 13 14  1  0
 14 15  1  0
 15 16  2  0
 16 17  1  0
 17 18  2  0
 18 19  1  0
 19 20  2  0
 14 21  2  0
 21 22  1  0
  2 23  1  0
 23 24  2  0
 24 25  1  0
 25 26  2  0
 26 27  1  0
 27 28  2  0
 28 29  1  0
 29 30  2  0
 30 31  1  0
 31 32  2  0
 11  7  1  0
 22 12  1  0
 32 23  1  0
 20 15  1  0
 31 26  1  0
  3 33  1  0
  4 34  1  0
  4 35  1  0
  8 36  1  0
  8 37  1  0
  9 38  1  0
  9 39  1  0
 10 40  1  0
 10 41  1  0
 11 42  1  6
 16 43  1  0
 17 44  1  0
 18 45  1  0
 19 46  1  0
 20 47  1  0
 21 48  1  0
 24 49  1  0
 25 50  1  0
 27 51  1  0
 28 52  1  0
 29 53  1  0
 30 54  1  0
M  END
>  <smiles>  (28) 
O=C(NCC(=O)N1CCC[C@@H]1c1nc(-c2ccccc2)co1)c1ccc2ccccc2n1

>  <score_type>  (28) 
oracle

>  <origin>  (28) 
autodockgpu

>  <m_score__min__energy>  (28) 
-9.6699999999999999

>  <m_primary>  (28) 
energy

>  <rmsd>  (28) 
9.802613479499971

>  <m_score__min__rmsd>  (28) 
9.802613479499971

>  <meeko>  (28) 
{"free_energy": -8.58, "intermolecular_energy": -10.37, "internal_energy": -1.93, "cluster_size": 25, "cluster_id": 1, "rank_in_cluster": 21}

>  <energy>  (28) 
-9.07

>  <cluster_rmsd>  (28) 
0.73

>  <cluster>  (28) 
2

$$$$

     RDKit          3D

 54 58  0  0  0  0  0  0  0  0999 V2000
  140.0140   73.4190  222.5000 O   0  0  0  0  0  0  0  0  0  0  0  0
  140.0020   72.1490  222.4990 C   0  0  0  0  0  0  0  0  0  0  0  0
  140.0010   71.5310  221.2040 N   0  0  0  0  0  0  0  0  0  0  0  0
  140.0110   72.2460  219.9720 C   0  0  0  0  0  0  0  0  0  0  0  0
  141.2180   72.7910  219.4250 C   0  0  0  0  0  0  0  0  0  0  0  0
  141.7890   72.0190  218.5140 O   0  0  0  0  0  0  0  0  0  0  0  0
  141.9520   73.9680  219.6350 N   0  0  0  0  0  0  0  0  0  0  0  0
  143.1870   73.8990  220.4840 C   0  0  0  0  0  0  0  0  0  0  0  0
  144.0640   75.0090  220.0180 C   0  0  0  0  0  0  0  0  0  0  0  0
  143.3070   75.6990  218.9020 C   0  0  0  0  0  0  0  0  0  0  0  0
  141.8580   75.3370  219.2930 C   0  0  2  0  0  0  0  0  0  0  0  0
  141.5380   76.1960  220.5020 C   0  0  0  0  0  0  0  0  0  0  0  0
  141.9170   77.4460  220.7550 N   0  0  0  0  0  0  0  0  0  0  0  0
  141.4200   77.8600  221.9460 C   0  0  0  0  0  0  0  0  0  0  0  0
  141.5890   79.1510  222.6050 C   0  0  0  0  0  0  0  0  0  0  0  0
  140.5200   80.0170  222.7180 C   0  0  0  0  0  0  0  0  0  0  0  0
  140.6390   81.2430  223.3340 C   0  0  0  0  0  0  0  0  0  0  0  0
  141.8710   81.5940  223.8410 C   0  0  0  0  0  0  0  0  0  0  0  0
  142.9260   80.7260  223.7230 C   0  0  0  0  0  0  0  0  0  0  0  0
  142.8270   79.4900  223.1100 C   0  0  0  0  0  0  0  0  0  0  0  0
  140.7040   76.7750  222.4160 C   0  0  0  0  0  0  0  0  0  0  0  0
  140.8060   75.8190  221.5240 O   0  0  0  0  0  0  0  0  0  0  0  0
  139.9920   71.3820  223.7160 C   0  0  0  0  0  0  0  0  0  0  0  0
  139.4350   70.1230  223.6960 C   0  0  0  0  0  0  0  0  0  0  0  0
  139.3940   69.3290  224.8400 C   0  0  0  0  0  0  0  0  0  0  0  0
  139.9430   69.8720  225.9980 C   0  0  0  0  0  0  0  0  0  0  0  0
  139.9580   69.1740  227.1920 C   0  0  0  0  0  0  0  0  0  0  0  0
  140.5160   69.7540  228.3220 C   0  0  0  0  0  0  0  0  0  0  0  0
  141.0680   71.0210  228.3050 C   0  0  0  0  0  0  0  0  0  0  0  0
  141.0520   71.7160  227.1120 C   0  0  0  0  0  0  0  0  0  0  0  0
  140.4930   71.1350  225.9800 C   0  0  0  0  0  0  0  0  0  0  0  0
  140.5260   71.8980  224.8570 N   0  0  0  0  0  0  0  0  0  0  0  0
  139.9920   70.4710  221.2420 H   0  0  0  0  0  0  0  0  0  0  0  0
  139.6107   71.5583  219.2125 H   0  0  0  0  0  0  0  0  0  0  0  0
  139.4393   73.1515  220.2234 H   0  0  0  0  0  0  0  0  0  0  0  0
  142.9301   74.0338  221.5451 H   0  0  0  0  0  0  0  0  0  0  0  0
  143.6866   72.9233  220.3923 H   0  0  0  0  0  0  0  0  0  0  0  0
  144.2585   75.7133  220.8403 H   0  0  0  0  0  0  0  0  0  0  0  0
  145.0386   74.6343  219.6720 H   0  0  0  0  0  0  0  0  0  0  0  0
  143.4717   76.7866  218.9093 H   0  0  0  0  0  0  0  0  0  0  0  0
  143.6015   75.3947  217.8868 H   0  0  0  0  0  0  0  0  0  0  0  0
  141.0846   75.5000  218.5280 H   0  0  0  0  0  0  0  0  0  0  0  0
  139.5452   79.7194  222.3042 H   0  0  0  0  0  0  0  0  0  0  0  0
  139.7770   81.9211  223.4186 H   0  0  0  0  0  0  0  0  0  0  0  0
  142.0077   82.5658  224.3380 H   0  0  0  0  0  0  0  0  0  0  0  0
  143.8996   81.0277  224.1365 H   0  0  0  0  0  0  0  0  0  0  0  0
  143.6902   78.8130  223.0295 H   0  0  0  0  0  0  0  0  0  0  0  0
  140.1499   76.7229  223.3648 H   0  0  0  0  0  0  0  0  0  0  0  0
  139.0134   69.7358  222.7567 H   0  0  0  0  0  0  0  0  0  0  0  0
  138.9497   68.3228  224.8286 H   0  0  0  0  0  0  0  0  0  0  0  0
  139.5290   68.1625  227.2454 H   0  0  0  0  0  0  0  0  0  0  0  0
  140.5193   69.1859  229.2640 H   0  0  0  0  0  0  0  0  0  0  0  0
  141.5060   71.4616  229.2128 H   0  0  0  0  0  0  0  0  0  0  0  0
  141.4808   72.7275  227.0577 H   0  0  0  0  0  0  0  0  0  0  0  0
  1  2  2  0
  2  3  1  0
  3  4  1  0
  4  5  1  0
  5  6  2  0
  5  7  1  0
  7  8  1  0
  8  9  1  0
  9 10  1  0
 10 11  1  0
 11 12  1  0
 12 13  2  0
 13 14  1  0
 14 15  1  0
 15 16  2  0
 16 17  1  0
 17 18  2  0
 18 19  1  0
 19 20  2  0
 14 21  2  0
 21 22  1  0
  2 23  1  0
 23 24  2  0
 24 25  1  0
 25 26  2  0
 26 27  1  0
 27 28  2  0
 28 29  1  0
 29 30  2  0
 30 31  1  0
 31 32  2  0
 11  7  1  0
 22 12  1  0
 32 23  1  0
 20 15  1  0
 31 26  1  0
  3 33  1  0
  4 34  1  0
  4 35  1  0
  8 36  1  0
  8 37  1  0
  9 38  1  0
  9 39  1  0
 10 40  1  0
 10 41  1  0
 11 42  1  6
 16 43  1  0
 17 44  1  0
 18 45  1  0
 19 46  1  0
 20 47  1  0
 21 48  1  0
 24 49  1  0
 25 50  1  0
 27 51  1  0
 28 52  1  0
 29 53  1  0
 30 54  1  0
M  END
>  <smiles>  (29) 
O=C(NCC(=O)N1CCC[C@@H]1c1nc(-c2ccccc2)co1)c1ccc2ccccc2n1

>  <score_type>  (29) 
oracle

>  <origin>  (29) 
autodockgpu

>  <m_score__min__energy>  (29) 
-9.6699999999999999

>  <m_primary>  (29) 
energy

>  <rmsd>  (29) 
3.0174652568008233

>  <m_score__min__rmsd>  (29) 
3.0174652568008233

>  <meeko>  (29) 
{"free_energy": -9.67, "intermolecular_energy": -11.46, "internal_energy": -1.72, "cluster_size": 25, "cluster_id": 1, "rank_in_cluster": 1}

>  <energy>  (29) 
-9.06

>  <cluster_rmsd>  (29) 
0.82

>  <cluster>  (29) 
2

$$$$

     RDKit          3D

 54 58  0  0  0  0  0  0  0  0999 V2000
  139.0150   70.0660  221.6250 O   0  0  0  0  0  0  0  0  0  0  0  0
  139.5820   70.6220  222.6160 C   0  0  0  0  0  0  0  0  0  0  0  0
  140.0930   71.9410  222.3750 N   0  0  0  0  0  0  0  0  0  0  0  0
  139.9980   72.6260  221.1300 C   0  0  0  0  0  0  0  0  0  0  0  0
  140.3110   74.0180  221.0080 C   0  0  0  0  0  0  0  0  0  0  0  0
  139.7350   74.7790  221.9260 O   0  0  0  0  0  0  0  0  0  0  0  0
  141.0940   74.7800  220.1270 N   0  0  0  0  0  0  0  0  0  0  0  0
  142.5880   74.6790  220.2270 C   0  0  0  0  0  0  0  0  0  0  0  0
  143.1100   75.0070  218.8720 C   0  0  0  0  0  0  0  0  0  0  0  0
  141.8950   75.2920  218.0140 C   0  0  0  0  0  0  0  0  0  0  0  0
  140.8920   75.7320  219.1010 C   0  0  2  0  0  0  0  0  0  0  0  0
  141.3390   77.1180  219.5280 C   0  0  0  0  0  0  0  0  0  0  0  0
  141.3350   77.6510  220.7480 N   0  0  0  0  0  0  0  0  0  0  0  0
  141.8150   78.9180  220.7130 C   0  0  0  0  0  0  0  0  0  0  0  0
  141.9830   79.8600  221.8140 C   0  0  0  0  0  0  0  0  0  0  0  0
  142.5760   79.4520  222.9910 C   0  0  0  0  0  0  0  0  0  0  0  0
  142.7530   80.3110  224.0540 C   0  0  0  0  0  0  0  0  0  0  0  0
  142.3160   81.6090  223.9130 C   0  0  0  0  0  0  0  0  0  0  0  0
  141.7280   82.0040  222.7390 C   0  0  0  0  0  0  0  0  0  0  0  0
  141.5410   81.1580  221.6610 C   0  0  0  0  0  0  0  0  0  0  0  0
  142.1180   79.1340  219.3810 C   0  0  0  0  0  0  0  0  0  0  0  0
  141.8180   78.0390  218.7260 O   0  0  0  0  0  0  0  0  0  0  0  0
  139.7020   69.9740  223.8940 C   0  0  0  0  0  0  0  0  0  0  0  0
  139.1450   68.7240  224.0540 C   0  0  0  0  0  0  0  0  0  0  0  0
  139.2270   68.0430  225.2650 C   0  0  0  0  0  0  0  0  0  0  0  0
  139.8970   68.6860  226.3010 C   0  0  0  0  0  0  0  0  0  0  0  0
  140.0410   68.1050  227.5470 C   0  0  0  0  0  0  0  0  0  0  0  0
  140.7180   68.7820  228.5510 C   0  0  0  0  0  0  0  0  0  0  0  0
  141.2650   70.0360  228.3540 C   0  0  0  0  0  0  0  0  0  0  0  0
  141.1210   70.6150  227.1100 C   0  0  0  0  0  0  0  0  0  0  0  0
  140.4430   69.9370  226.1040 C   0  0  0  0  0  0  0  0  0  0  0  0
  140.3560   70.5890  224.9170 N   0  0  0  0  0  0  0  0  0  0  0  0
  140.5580   72.3750  223.2250 H   0  0  0  0  0  0  0  0  0  0  0  0
  140.6667   72.0972  220.4349 H   0  0  0  0  0  0  0  0  0  0  0  0
  138.9147   72.6135  220.9395 H   0  0  0  0  0  0  0  0  0  0  0  0
  142.9713   75.3954  220.9686 H   0  0  0  0  0  0  0  0  0  0  0  0
  142.9046   73.6764  220.5503 H   0  0  0  0  0  0  0  0  0  0  0  0
  143.7618   75.8919  218.9175 H   0  0  0  0  0  0  0  0  0  0  0  0
  143.7091   74.1813  218.4604 H   0  0  0  0  0  0  0  0  0  0  0  0
  142.0880   76.0956  217.2881 H   0  0  0  0  0  0  0  0  0  0  0  0
  141.5611   74.4489  217.3914 H   0  0  0  0  0  0  0  0  0  0  0  0
  139.8331   75.7759  218.8064 H   0  0  0  0  0  0  0  0  0  0  0  0
  142.9175   78.4105  223.0837 H   0  0  0  0  0  0  0  0  0  0  0  0
  143.2284   79.9704  224.9857 H   0  0  0  0  0  0  0  0  0  0  0  0
  142.4380   82.3258  224.7384 H   0  0  0  0  0  0  0  0  0  0  0  0
  141.3879   83.0463  222.6501 H   0  0  0  0  0  0  0  0  0  0  0  0
  141.0650   81.5018  220.7308 H   0  0  0  0  0  0  0  0  0  0  0  0
  142.5347   80.0563  218.9500 H   0  0  0  0  0  0  0  0  0  0  0  0
  138.6244   68.2542  223.2065 H   0  0  0  0  0  0  0  0  0  0  0  0
  138.7837   67.0449  225.3966 H   0  0  0  0  0  0  0  0  0  0  0  0
  139.6196   67.1078  227.7421 H   0  0  0  0  0  0  0  0  0  0  0  0
  140.8230   68.3050  229.5366 H   0  0  0  0  0  0  0  0  0  0  0  0
  141.7983   70.5559  229.1635 H   0  0  0  0  0  0  0  0  0  0  0  0
  141.5424   71.6121  226.9146 H   0  0  0  0  0  0  0  0  0  0  0  0
  1  2  2  0
  2  3  1  0
  3  4  1  0
  4  5  1  0
  5  6  2  0
  5  7  1  0
  7  8  1  0
  8  9  1  0
  9 10  1  0
 10 11  1  0
 11 12  1  0
 12 13  2  0
 13 14  1  0
 14 15  1  0
 15 16  2  0
 16 17  1  0
 17 18  2  0
 18 19  1  0
 19 20  2  0
 14 21  2  0
 21 22  1  0
  2 23  1  0
 23 24  2  0
 24 25  1  0
 25 26  2  0
 26 27  1  0
 27 28  2  0
 28 29  1  0
 29 30  2  0
 30 31  1  0
 31 32  2  0
 11  7  1  0
 22 12  1  0
 32 23  1  0
 20 15  1  0
 31 26  1  0
  3 33  1  0
  4 34  1  0
  4 35  1  0
  8 36  1  0
  8 37  1  0
  9 38  1  0
  9 39  1  0
 10 40  1  0
 10 41  1  0
 11 42  1  6
 16 43  1  0
 17 44  1  0
 18 45  1  0
 19 46  1  0
 20 47  1  0
 21 48  1  0
 24 49  1  0
 25 50  1  0
 27 51  1  0
 28 52  1  0
 29 53  1  0
 30 54  1  0
M  END
>  <smiles>  (30) 
O=C(NCC(=O)N1CCC[C@@H]1c1nc(-c2ccccc2)co1)c1ccc2ccccc2n1

>  <score_type>  (30) 
oracle

>  <origin>  (30) 
autodockgpu

>  <m_score__min__energy>  (30) 
-9.6699999999999999

>  <m_primary>  (30) 
energy

>  <rmsd>  (30) 
2.665179761993957

>  <m_score__min__rmsd>  (30) 
2.665179761993957

>  <meeko>  (30) 
{"free_energy": -8.62, "intermolecular_energy": -10.41, "internal_energy": -1.8, "cluster_size": 25, "cluster_id": 1, "rank_in_cluster": 20}

>  <energy>  (30) 
-9.06

>  <cluster_rmsd>  (30) 
0.74

>  <cluster>  (30) 
2

$$$$

     RDKit          3D

 54 58  0  0  0  0  0  0  0  0999 V2000
  139.8450   70.5900  221.4350 O   0  0  0  0  0  0  0  0  0  0  0  0
  139.8550   71.1270  222.5860 C   0  0  0  0  0  0  0  0  0  0  0  0
  139.8840   72.5610  222.5990 N   0  0  0  0  0  0  0  0  0  0  0  0
  139.9000   73.3760  221.4310 C   0  0  0  0  0  0  0  0  0  0  0  0
  140.9090   74.3710  221.2190 C   0  0  0  0  0  0  0  0  0  0  0  0
  140.7850   75.4340  221.9980 O   0  0  0  0  0  0  0  0  0  0  0  0
  142.0130   74.4880  220.3610 N   0  0  0  0  0  0  0  0  0  0  0  0
  141.7940   74.3300  218.8850 C   0  0  0  0  0  0  0  0  0  0  0  0
  142.8760   75.1110  218.2260 C   0  0  0  0  0  0  0  0  0  0  0  0
  143.7020   75.7080  219.3460 C   0  0  0  0  0  0  0  0  0  0  0  0
  143.4080   74.6920  220.4700 C   0  0  2  0  0  0  0  0  0  0  0  0
  144.1870   73.4420  220.1020 C   0  0  0  0  0  0  0  0  0  0  0  0
  143.7540   72.1850  220.0360 N   0  0  0  0  0  0  0  0  0  0  0  0
  144.7620   71.3570  219.6690 C   0  0  0  0  0  0  0  0  0  0  0  0
  144.7280   69.9110  219.4770 C   0  0  0  0  0  0  0  0  0  0  0  0
  145.9010   69.2100  219.2800 C   0  0  0  0  0  0  0  0  0  0  0  0
  145.9110   67.8450  219.0960 C   0  0  0  0  0  0  0  0  0  0  0  0
  144.7030   67.1830  219.1120 C   0  0  0  0  0  0  0  0  0  0  0  0
  143.5440   67.8890  219.3090 C   0  0  0  0  0  0  0  0  0  0  0  0
  143.5130   69.2590  219.4960 C   0  0  0  0  0  0  0  0  0  0  0  0
  145.8530   72.1900  219.5110 C   0  0  0  0  0  0  0  0  0  0  0  0
  145.4580   73.4120  219.7790 O   0  0  0  0  0  0  0  0  0  0  0  0
  139.8380   70.3480  223.7950 C   0  0  0  0  0  0  0  0  0  0  0  0
  139.2140   69.1210  223.7800 C   0  0  0  0  0  0  0  0  0  0  0  0
  139.1630   68.3180  224.9160 C   0  0  0  0  0  0  0  0  0  0  0  0
  139.7720   68.8180  226.0630 C   0  0  0  0  0  0  0  0  0  0  0  0
  139.7840   68.1080  227.2500 C   0  0  0  0  0  0  0  0  0  0  0  0
  140.4040   68.6440  228.3690 C   0  0  0  0  0  0  0  0  0  0  0  0
  141.0220   69.8800  228.3470 C   0  0  0  0  0  0  0  0  0  0  0  0
  141.0090   70.5880  227.1620 C   0  0  0  0  0  0  0  0  0  0  0  0
  140.3890   70.0510  226.0410 C   0  0  0  0  0  0  0  0  0  0  0  0
  140.4310   70.8220  224.9250 N   0  0  0  0  0  0  0  0  0  0  0  0
  139.8900   72.9740  223.5770 H   0  0  0  0  0  0  0  0  0  0  0  0
  139.9599   72.6879  220.5749 H   0  0  0  0  0  0  0  0  0  0  0  0
  138.9939   73.9862  221.5598 H   0  0  0  0  0  0  0  0  0  0  0  0
  141.8595   73.2696  218.5999 H   0  0  0  0  0  0  0  0  0  0  0  0
  140.7979   74.6867  218.5841 H   0  0  0  0  0  0  0  0  0  0  0  0
  143.4976   74.4517  217.6023 H   0  0  0  0  0  0  0  0  0  0  0  0
  142.4659   75.8913  217.5680 H   0  0  0  0  0  0  0  0  0  0  0  0
  144.7720   75.7375  219.0925 H   0  0  0  0  0  0  0  0  0  0  0  0
  143.4608   76.7526  219.5922 H   0  0  0  0  0  0  0  0  0  0  0  0
  143.6838   74.9935  221.4913 H   0  0  0  0  0  0  0  0  0  0  0  0
  146.8551   69.7574  219.2697 H   0  0  0  0  0  0  0  0  0  0  0  0
  146.8541   67.3005  218.9411 H   0  0  0  0  0  0  0  0  0  0  0  0
  144.6683   66.0931  218.9674 H   0  0  0  0  0  0  0  0  0  0  0  0
  142.5918   67.3384  219.3188 H   0  0  0  0  0  0  0  0  0  0  0  0
  142.5682   69.8004  219.6518 H   0  0  0  0  0  0  0  0  0  0  0  0
  146.8673   71.8844  219.2147 H   0  0  0  0  0  0  0  0  0  0  0  0
  138.7454   68.7673  222.8498 H   0  0  0  0  0  0  0  0  0  0  0  0
  138.6659   67.3368  224.9074 H   0  0  0  0  0  0  0  0  0  0  0  0
  139.3029   67.1204  227.3064 H   0  0  0  0  0  0  0  0  0  0  0  0
  140.4038   68.0662  229.3050 H   0  0  0  0  0  0  0  0  0  0  0  0
  141.5090   70.2868  229.2455 H   0  0  0  0  0  0  0  0  0  0  0  0
  141.4890   71.5761  227.1056 H   0  0  0  0  0  0  0  0  0  0  0  0
  1  2  2  0
  2  3  1  0
  3  4  1  0
  4  5  1  0
  5  6  2  0
  5  7  1  0
  7  8  1  0
  8  9  1  0
  9 10  1  0
 10 11  1  0
 11 12  1  0
 12 13  2  0
 13 14  1  0
 14 15  1  0
 15 16  2  0
 16 17  1  0
 17 18  2  0
 18 19  1  0
 19 20  2  0
 14 21  2  0
 21 22  1  0
  2 23  1  0
 23 24  2  0
 24 25  1  0
 25 26  2  0
 26 27  1  0
 27 28  2  0
 28 29  1  0
 29 30  2  0
 30 31  1  0
 31 32  2  0
 11  7  1  0
 22 12  1  0
 32 23  1  0
 20 15  1  0
 31 26  1  0
  3 33  1  0
  4 34  1  0
  4 35  1  0
  8 36  1  0
  8 37  1  0
  9 38  1  0
  9 39  1  0
 10 40  1  0
 10 41  1  0
 11 42  1  1
 16 43  1  0
 17 44  1  0
 18 45  1  0
 19 46  1  0
 20 47  1  0
 21 48  1  0
 24 49  1  0
 25 50  1  0
 27 51  1  0
 28 52  1  0
 29 53  1  0
 30 54  1  0
M  END
>  <smiles>  (31) 
O=C(NCC(=O)N1CCC[C@@H]1c1nc(-c2ccccc2)co1)c1ccc2ccccc2n1

>  <score_type>  (31) 
oracle

>  <origin>  (31) 
autodockgpu

>  <m_score__min__energy>  (31) 
-9.6699999999999999

>  <m_primary>  (31) 
energy

>  <rmsd>  (31) 
7.074062254150862

>  <m_score__min__rmsd>  (31) 
7.074062254150862

>  <meeko>  (31) 
{"free_energy": -8.55, "intermolecular_energy": -10.34, "internal_energy": -1.86, "cluster_size": 3, "cluster_id": 3, "rank_in_cluster": 3}

>  <energy>  (31) 
-9.01

>  <cluster_rmsd>  (31) 
0.8

>  <cluster>  (31) 
2

$$$$

     RDKit          3D

 54 58  0  0  0  0  0  0  0  0999 V2000
  139.9220   71.0720  221.3880 O   0  0  0  0  0  0  0  0  0  0  0  0
  139.9100   71.5790  222.5530 C   0  0  0  0  0  0  0  0  0  0  0  0
  139.9800   73.0110  222.6050 N   0  0  0  0  0  0  0  0  0  0  0  0
  140.0590   73.8550  221.4610 C   0  0  0  0  0  0  0  0  0  0  0  0
  141.2080   73.8610  220.6060 C   0  0  0  0  0  0  0  0  0  0  0  0
  141.8930   72.7280  220.6200 O   0  0  0  0  0  0  0  0  0  0  0  0
  141.7920   74.8030  219.7450 N   0  0  0  0  0  0  0  0  0  0  0  0
  143.2790   74.9930  219.7940 C   0  0  0  0  0  0  0  0  0  0  0  0
  143.6720   75.4820  218.4430 C   0  0  0  0  0  0  0  0  0  0  0  0
  142.3920   75.5640  217.6400 C   0  0  0  0  0  0  0  0  0  0  0  0
  141.3670   75.7460  218.7800 C   0  0  2  0  0  0  0  0  0  0  0  0
  141.5530   77.1710  219.2690 C   0  0  0  0  0  0  0  0  0  0  0  0
  141.6290   77.6130  220.5220 N   0  0  0  0  0  0  0  0  0  0  0  0
  141.7970   78.9580  220.5390 C   0  0  0  0  0  0  0  0  0  0  0  0
  141.9270   79.8450  221.6900 C   0  0  0  0  0  0  0  0  0  0  0  0
  142.5950   79.4210  222.8210 C   0  0  0  0  0  0  0  0  0  0  0  0
  142.7390   80.2290  223.9270 C   0  0  0  0  0  0  0  0  0  0  0  0
  142.1900   81.4920  223.8800 C   0  0  0  0  0  0  0  0  0  0  0  0
  141.5280   81.9030  222.7510 C   0  0  0  0  0  0  0  0  0  0  0  0
  141.3740   81.1080  221.6300 C   0  0  0  0  0  0  0  0  0  0  0  0
  141.8200   79.3190  219.2050 C   0  0  0  0  0  0  0  0  0  0  0  0
  141.6720   78.2250  218.4980 O   0  0  0  0  0  0  0  0  0  0  0  0
  139.8300   70.7700  223.7400 C   0  0  0  0  0  0  0  0  0  0  0  0
  139.2230   69.5370  223.6570 C   0  0  0  0  0  0  0  0  0  0  0  0
  139.1130   68.7060  224.7690 C   0  0  0  0  0  0  0  0  0  0  0  0
  139.6460   69.1840  225.9620 C   0  0  0  0  0  0  0  0  0  0  0  0
  139.5950   68.4450  227.1300 C   0  0  0  0  0  0  0  0  0  0  0  0
  140.1400   68.9600  228.2970 C   0  0  0  0  0  0  0  0  0  0  0  0
  140.7420   70.2030  228.3430 C   0  0  0  0  0  0  0  0  0  0  0  0
  140.7920   70.9400  227.1770 C   0  0  0  0  0  0  0  0  0  0  0  0
  140.2470   70.4230  226.0070 C   0  0  0  0  0  0  0  0  0  0  0  0
  140.3470   71.2230  224.9150 N   0  0  0  0  0  0  0  0  0  0  0  0
  139.9660   73.3990  223.5930 H   0  0  0  0  0  0  0  0  0  0  0  0
  139.2013   73.5932  220.8240 H   0  0  0  0  0  0  0  0  0  0  0  0
  140.0990   74.8572  221.9127 H   0  0  0  0  0  0  0  0  0  0  0  0
  143.5451   75.7344  220.5618 H   0  0  0  0  0  0  0  0  0  0  0  0
  143.7977   74.0579  220.0521 H   0  0  0  0  0  0  0  0  0  0  0  0
  144.1408   76.4743  218.5172 H   0  0  0  0  0  0  0  0  0  0  0  0
  144.4028   74.8106  217.9685 H   0  0  0  0  0  0  0  0  0  0  0  0
  142.3956   76.4238  216.9540 H   0  0  0  0  0  0  0  0  0  0  0  0
  142.2033   74.7026  216.9824 H   0  0  0  0  0  0  0  0  0  0  0  0
  140.3085   75.5958  218.5211 H   0  0  0  0  0  0  0  0  0  0  0  0
  143.0247   78.4086  222.8395 H   0  0  0  0  0  0  0  0  0  0  0  0
  143.2757   79.8770  224.8203 H   0  0  0  0  0  0  0  0  0  0  0  0
  142.2821   82.1673  224.7435 H   0  0  0  0  0  0  0  0  0  0  0  0
  141.0982   82.9155  222.7367 H   0  0  0  0  0  0  0  0  0  0  0  0
  140.8387   81.4637  220.7373 H   0  0  0  0  0  0  0  0  0  0  0  0
  141.9405   80.3381  218.8089 H   0  0  0  0  0  0  0  0  0  0  0  0
  138.8163   69.2012  222.6917 H   0  0  0  0  0  0  0  0  0  0  0  0
  138.6286   67.7203  224.7072 H   0  0  0  0  0  0  0  0  0  0  0  0
  139.1234   67.4512  227.1335 H   0  0  0  0  0  0  0  0  0  0  0  0
  140.0913   68.3587  229.2168 H   0  0  0  0  0  0  0  0  0  0  0  0
  141.1679   70.5928  229.2793 H   0  0  0  0  0  0  0  0  0  0  0  0
  141.2621   71.9345  227.1734 H   0  0  0  0  0  0  0  0  0  0  0  0
  1  2  2  0
  2  3  1  0
  3  4  1  0
  4  5  1  0
  5  6  2  0
  5  7  1  0
  7  8  1  0
  8  9  1  0
  9 10  1  0
 10 11  1  0
 11 12  1  0
 12 13  2  0
 13 14  1  0
 14 15  1  0
 15 16  2  0
 16 17  1  0
 17 18  2  0
 18 19  1  0
 19 20  2  0
 14 21  2  0
 21 22  1  0
  2 23  1  0
 23 24  2  0
 24 25  1  0
 25 26  2  0
 26 27  1  0
 27 28  2  0
 28 29  1  0
 29 30  2  0
 30 31  1  0
 31 32  2  0
 11  7  1  0
 22 12  1  0
 32 23  1  0
 20 15  1  0
 31 26  1  0
  3 33  1  0
  4 34  1  0
  4 35  1  0
  8 36  1  0
  8 37  1  0
  9 38  1  0
  9 39  1  0
 10 40  1  0
 10 41  1  0
 11 42  1  6
 16 43  1  0
 17 44  1  0
 18 45  1  0
 19 46  1  0
 20 47  1  0
 21 48  1  0
 24 49  1  0
 25 50  1  0
 27 51  1  0
 28 52  1  0
 29 53  1  0
 30 54  1  0
M  END
>  <smiles>  (32) 
O=C(NCC(=O)N1CCC[C@@H]1c1nc(-c2ccccc2)co1)c1ccc2ccccc2n1

>  <score_type>  (32) 
oracle

>  <origin>  (32) 
autodockgpu

>  <m_score__min__energy>  (32) 
-9.6699999999999999

>  <m_primary>  (32) 
energy

>  <rmsd>  (32) 
2.749019172063255

>  <m_score__min__rmsd>  (32) 
2.749019172063255

>  <meeko>  (32) 
{"free_energy": -8.85, "intermolecular_energy": -10.64, "internal_energy": -1.65, "cluster_size": 25, "cluster_id": 1, "rank_in_cluster": 15}

>  <energy>  (32) 
-9.0

>  <cluster_rmsd>  (32) 
0.74

>  <cluster>  (32) 
2

$$$$

     RDKit          3D

 54 58  0  0  0  0  0  0  0  0999 V2000
  140.3550   73.0090  222.6570 O   0  0  0  0  0  0  0  0  0  0  0  0
  139.8200   71.8920  222.9360 C   0  0  0  0  0  0  0  0  0  0  0  0
  138.9660   71.3450  221.9210 N   0  0  0  0  0  0  0  0  0  0  0  0
  138.7010   71.9700  220.6690 C   0  0  0  0  0  0  0  0  0  0  0  0
  137.7330   73.0170  220.5370 C   0  0  0  0  0  0  0  0  0  0  0  0
  136.6880   72.6900  219.7930 O   0  0  0  0  0  0  0  0  0  0  0  0
  137.6310   74.3320  221.0160 N   0  0  0  0  0  0  0  0  0  0  0  0
  137.3990   75.4370  220.0280 C   0  0  0  0  0  0  0  0  0  0  0  0
  136.7050   76.5180  220.7810 C   0  0  0  0  0  0  0  0  0  0  0  0
  136.5520   76.0070  222.1980 C   0  0  0  0  0  0  0  0  0  0  0  0
  137.7270   75.0080  222.2550 C   0  0  2  0  0  0  0  0  0  0  0  0
  138.9810   75.8580  222.3340 C   0  0  0  0  0  0  0  0  0  0  0  0
  139.0990   77.1270  222.7210 N   0  0  0  0  0  0  0  0  0  0  0  0
  140.3930   77.5240  222.6490 C   0  0  0  0  0  0  0  0  0  0  0  0
  140.9660   78.8250  222.9770 C   0  0  0  0  0  0  0  0  0  0  0  0
  140.1430   79.9170  223.1700 C   0  0  0  0  0  0  0  0  0  0  0  0
  140.6450   81.1610  223.4810 C   0  0  0  0  0  0  0  0  0  0  0  0
  142.0110   81.2950  223.5950 C   0  0  0  0  0  0  0  0  0  0  0  0
  142.8190   80.2050  223.4010 C   0  0  0  0  0  0  0  0  0  0  0  0
  142.3350   78.9470  223.0890 C   0  0  0  0  0  0  0  0  0  0  0  0
  141.0710   76.4110  222.1890 C   0  0  0  0  0  0  0  0  0  0  0  0
  140.1890   75.4550  222.0190 O   0  0  0  0  0  0  0  0  0  0  0  0
  140.0560   71.2190  224.1850 C   0  0  0  0  0  0  0  0  0  0  0  0
  140.7470   71.8860  225.1720 C   0  0  0  0  0  0  0  0  0  0  0  0
  141.0070   71.2910  226.4040 C   0  0  0  0  0  0  0  0  0  0  0  0
  140.5360   69.9950  226.5850 C   0  0  0  0  0  0  0  0  0  0  0  0
  140.7360   69.3060  227.7670 C   0  0  0  0  0  0  0  0  0  0  0  0
  140.2490   68.0140  227.9050 C   0  0  0  0  0  0  0  0  0  0  0  0
  139.5590   67.3760  226.8910 C   0  0  0  0  0  0  0  0  0  0  0  0
  139.3600   68.0640  225.7120 C   0  0  0  0  0  0  0  0  0  0  0  0
  139.8480   69.3580  225.5740 C   0  0  0  0  0  0  0  0  0  0  0  0
  139.6010   69.9500  224.3790 N   0  0  0  0  0  0  0  0  0  0  0  0
  138.5380   70.4110  222.1870 H   0  0  0  0  0  0  0  0  0  0  0  0
  139.6579   72.3892  220.3246 H   0  0  0  0  0  0  0  0  0  0  0  0
  138.2400   71.1532  220.0942 H   0  0  0  0  0  0  0  0  0  0  0  0
  138.3573   75.8022  219.6302 H   0  0  0  0  0  0  0  0  0  0  0  0
  136.8012   75.0937  219.1708 H   0  0  0  0  0  0  0  0  0  0  0  0
  137.3067   77.4388  220.7696 H   0  0  0  0  0  0  0  0  0  0  0  0
  135.7302   76.7600  220.3323 H   0  0  0  0  0  0  0  0  0  0  0  0
  136.6667   76.8138  222.9369 H   0  0  0  0  0  0  0  0  0  0  0  0
  135.5671   75.5754  222.4295 H   0  0  0  0  0  0  0  0  0  0  0  0
  137.7295   74.2966  223.0940 H   0  0  0  0  0  0  0  0  0  0  0  0
  139.0548   79.7894  223.0725 H   0  0  0  0  0  0  0  0  0  0  0  0
  139.9760   82.0207  223.6336 H   0  0  0  0  0  0  0  0  0  0  0  0
  142.4516   82.2725  223.8407 H   0  0  0  0  0  0  0  0  0  0  0  0
  143.9067   80.3370  223.4982 H   0  0  0  0  0  0  0  0  0  0  0  0
  143.0069   78.0892  222.9382 H   0  0  0  0  0  0  0  0  0  0  0  0
  142.1523   76.3398  222.0000 H   0  0  0  0  0  0  0  0  0  0  0  0
  141.1010   72.9102  224.9833 H   0  0  0  0  0  0  0  0  0  0  0  0
  141.5580   71.8203  227.1954 H   0  0  0  0  0  0  0  0  0  0  0  0
  141.2802   69.7812  228.5965 H   0  0  0  0  0  0  0  0  0  0  0  0
  140.4174   67.4801  228.8519 H   0  0  0  0  0  0  0  0  0  0  0  0
  139.1804   66.3514  227.0204 H   0  0  0  0  0  0  0  0  0  0  0  0
  138.8159   67.5891  224.8823 H   0  0  0  0  0  0  0  0  0  0  0  0
  1  2  2  0
  2  3  1  0
  3  4  1  0
  4  5  1  0
  5  6  2  0
  5  7  1  0
  7  8  1  0
  8  9  1  0
  9 10  1  0
 10 11  1  0
 11 12  1  0
 12 13  2  0
 13 14  1  0
 14 15  1  0
 15 16  2  0
 16 17  1  0
 17 18  2  0
 18 19  1  0
 19 20  2  0
 14 21  2  0
 21 22  1  0
  2 23  1  0
 23 24  2  0
 24 25  1  0
 25 26  2  0
 26 27  1  0
 27 28  2  0
 28 29  1  0
 29 30  2  0
 30 31  1  0
 31 32  2  0
 11  7  1  0
 22 12  1  0
 32 23  1  0
 20 15  1  0
 31 26  1  0
  3 33  1  0
  4 34  1  0
  4 35  1  0
  8 36  1  0
  8 37  1  0
  9 38  1  0
  9 39  1  0
 10 40  1  0
 10 41  1  0
 11 42  1  1
 16 43  1  0
 17 44  1  0
 18 45  1  0
 19 46  1  0
 20 47  1  0
 21 48  1  0
 24 49  1  0
 25 50  1  0
 27 51  1  0
 28 52  1  0
 29 53  1  0
 30 54  1  0
M  END
>  <smiles>  (33) 
O=C(NCC(=O)N1CCC[C@@H]1c1nc(-c2ccccc2)co1)c1ccc2ccccc2n1

>  <score_type>  (33) 
oracle

>  <origin>  (33) 
autodockgpu

>  <m_score__min__energy>  (33) 
-9.6699999999999999

>  <m_primary>  (33) 
energy

>  <rmsd>  (33) 
3.7831547013568296

>  <m_score__min__rmsd>  (33) 
3.7831547013568296

>  <meeko>  (33) 
{"free_energy": -9.07, "intermolecular_energy": -10.86, "internal_energy": -2.06, "cluster_size": 21, "cluster_id": 2, "rank_in_cluster": 3}

>  <energy>  (33) 
-8.95

>  <cluster_rmsd>  (33) 
0.88

>  <cluster>  (33) 
2

$$$$

     RDKit          3D

 54 58  0  0  0  0  0  0  0  0999 V2000
  140.3940   72.9480  222.7150 O   0  0  0  0  0  0  0  0  0  0  0  0
  139.8200   71.8680  223.0560 C   0  0  0  0  0  0  0  0  0  0  0  0
  138.8990   71.3280  222.0970 N   0  0  0  0  0  0  0  0  0  0  0  0
  138.6120   71.9210  220.8350 C   0  0  0  0  0  0  0  0  0  0  0  0
  137.6430   72.9660  220.6940 C   0  0  0  0  0  0  0  0  0  0  0  0
  136.5620   72.6070  220.0200 O   0  0  0  0  0  0  0  0  0  0  0  0
  137.5700   74.3050  221.1060 N   0  0  0  0  0  0  0  0  0  0  0  0
  137.3470   75.3630  220.0660 C   0  0  0  0  0  0  0  0  0  0  0  0
  136.6810   76.4930  220.7710 C   0  0  0  0  0  0  0  0  0  0  0  0
  136.5350   76.0580  222.2130 C   0  0  0  0  0  0  0  0  0  0  0  0
  137.6920   75.0410  222.3080 C   0  0  2  0  0  0  0  0  0  0  0  0
  138.9620   75.8710  222.3300 C   0  0  0  0  0  0  0  0  0  0  0  0
  139.1110   77.1490  222.6720 N   0  0  0  0  0  0  0  0  0  0  0  0
  140.4100   77.5210  222.5580 C   0  0  0  0  0  0  0  0  0  0  0  0
  141.0120   78.8220  222.8290 C   0  0  0  0  0  0  0  0  0  0  0  0
  140.4740   79.9640  222.2730 C   0  0  0  0  0  0  0  0  0  0  0  0
  141.0140   81.2110  222.5050 C   0  0  0  0  0  0  0  0  0  0  0  0
  142.1220   81.2920  223.3180 C   0  0  0  0  0  0  0  0  0  0  0  0
  142.6490   80.1500  223.8660 C   0  0  0  0  0  0  0  0  0  0  0  0
  142.1220   78.8910  223.6460 C   0  0  0  0  0  0  0  0  0  0  0  0
  141.0570   76.3810  222.1200 C   0  0  0  0  0  0  0  0  0  0  0  0
  140.1550   75.4360  222.0020 O   0  0  0  0  0  0  0  0  0  0  0  0
  140.0770   71.2290  224.3190 C   0  0  0  0  0  0  0  0  0  0  0  0
  140.8090   71.9110  225.2660 C   0  0  0  0  0  0  0  0  0  0  0  0
  141.0910   71.3490  226.5080 C   0  0  0  0  0  0  0  0  0  0  0  0
  140.5980   70.0690  226.7420 C   0  0  0  0  0  0  0  0  0  0  0  0
  140.8170   69.4120  227.9390 C   0  0  0  0  0  0  0  0  0  0  0  0
  140.3060   68.1360  228.1300 C   0  0  0  0  0  0  0  0  0  0  0  0
  139.5750   67.4820  227.1560 C   0  0  0  0  0  0  0  0  0  0  0  0
  139.3580   68.1390  225.9610 C   0  0  0  0  0  0  0  0  0  0  0  0
  139.8690   69.4170  225.7710 C   0  0  0  0  0  0  0  0  0  0  0  0
  139.6010   69.9770  224.5640 N   0  0  0  0  0  0  0  0  0  0  0  0
  138.4400   70.4250  222.4150 H   0  0  0  0  0  0  0  0  0  0  0  0
  139.5630   72.3296  220.4626 H   0  0  0  0  0  0  0  0  0  0  0  0
  138.1396   71.0906  220.2898 H   0  0  0  0  0  0  0  0  0  0  0  0
  138.3072   75.6900  219.6405 H   0  0  0  0  0  0  0  0  0  0  0  0
  136.7337   74.9884  219.2332 H   0  0  0  0  0  0  0  0  0  0  0  0
  137.2988   77.4008  220.7065 H   0  0  0  0  0  0  0  0  0  0  0  0
  135.7054   76.7293  220.3210 H   0  0  0  0  0  0  0  0  0  0  0  0
  136.6732   76.8989  222.9085 H   0  0  0  0  0  0  0  0  0  0  0  0
  135.5450   75.6577  222.4769 H   0  0  0  0  0  0  0  0  0  0  0  0
  137.6909   74.3728  223.1818 H   0  0  0  0  0  0  0  0  0  0  0  0
  139.5887   79.8772  221.6259 H   0  0  0  0  0  0  0  0  0  0  0  0
  140.5735   82.1128  222.0548 H   0  0  0  0  0  0  0  0  0  0  0  0
  142.5830   82.2685  223.5274 H   0  0  0  0  0  0  0  0  0  0  0  0
  143.5345   80.2406  224.5123 H   0  0  0  0  0  0  0  0  0  0  0  0
  142.5643   77.9913  224.0985 H   0  0  0  0  0  0  0  0  0  0  0  0
  142.1322   76.2839  221.9089 H   0  0  0  0  0  0  0  0  0  0  0  0
  141.1786   72.9212  225.0359 H   0  0  0  0  0  0  0  0  0  0  0  0
  141.6749   71.8902  227.2671 H   0  0  0  0  0  0  0  0  0  0  0  0
  141.3949   69.8997  228.7379 H   0  0  0  0  0  0  0  0  0  0  0  0
  140.4888   67.6281  229.0884 H   0  0  0  0  0  0  0  0  0  0  0  0
  139.1787   66.4703  227.3274 H   0  0  0  0  0  0  0  0  0  0  0  0
  138.7816   67.6515  225.1609 H   0  0  0  0  0  0  0  0  0  0  0  0
  1  2  2  0
  2  3  1  0
  3  4  1  0
  4  5  1  0
  5  6  2  0
  5  7  1  0
  7  8  1  0
  8  9  1  0
  9 10  1  0
 10 11  1  0
 11 12  1  0
 12 13  2  0
 13 14  1  0
 14 15  1  0
 15 16  2  0
 16 17  1  0
 17 18  2  0
 18 19  1  0
 19 20  2  0
 14 21  2  0
 21 22  1  0
  2 23  1  0
 23 24  2  0
 24 25  1  0
 25 26  2  0
 26 27  1  0
 27 28  2  0
 28 29  1  0
 29 30  2  0
 30 31  1  0
 31 32  2  0
 11  7  1  0
 22 12  1  0
 32 23  1  0
 20 15  1  0
 31 26  1  0
  3 33  1  0
  4 34  1  0
  4 35  1  0
  8 36  1  0
  8 37  1  0
  9 38  1  0
  9 39  1  0
 10 40  1  0
 10 41  1  0
 11 42  1  1
 16 43  1  0
 17 44  1  0
 18 45  1  0
 19 46  1  0
 20 47  1  0
 21 48  1  0
 24 49  1  0
 25 50  1  0
 27 51  1  0
 28 52  1  0
 29 53  1  0
 30 54  1  0
M  END
>  <smiles>  (34) 
O=C(NCC(=O)N1CCC[C@@H]1c1nc(-c2ccccc2)co1)c1ccc2ccccc2n1

>  <score_type>  (34) 
oracle

>  <origin>  (34) 
autodockgpu

>  <m_score__min__energy>  (34) 
-9.6699999999999999

>  <m_primary>  (34) 
energy

>  <rmsd>  (34) 
3.8496488053189353

>  <m_score__min__rmsd>  (34) 
3.8496488053189353

>  <meeko>  (34) 
{"free_energy": -9.01, "intermolecular_energy": -10.8, "internal_energy": -2.07, "cluster_size": 21, "cluster_id": 2, "rank_in_cluster": 6}

>  <energy>  (34) 
-8.91

>  <cluster_rmsd>  (34) 
0.6

>  <cluster>  (34) 
2

$$$$

     RDKit          3D

 54 58  0  0  0  0  0  0  0  0999 V2000
  142.4850   76.1530  218.3510 O   0  0  0  0  0  0  0  0  0  0  0  0
  142.4240   76.4940  219.5730 C   0  0  0  0  0  0  0  0  0  0  0  0
  142.6110   75.4340  220.5210 N   0  0  0  0  0  0  0  0  0  0  0  0
  142.8510   74.0750  220.1710 C   0  0  0  0  0  0  0  0  0  0  0  0
  141.9550   73.0260  220.5550 C   0  0  0  0  0  0  0  0  0  0  0  0
  142.4780   71.8130  220.4620 O   0  0  0  0  0  0  0  0  0  0  0  0
  140.6290   72.9790  221.0110 N   0  0  0  0  0  0  0  0  0  0  0  0
  140.0670   74.1850  221.7050 C   0  0  0  0  0  0  0  0  0  0  0  0
  138.5960   74.1360  221.4820 C   0  0  0  0  0  0  0  0  0  0  0  0
  138.3400   72.8920  220.6580 C   0  0  0  0  0  0  0  0  0  0  0  0
  139.5680   72.0450  221.0560 C   0  0  2  0  0  0  0  0  0  0  0  0
  139.2950   71.5760  222.4730 C   0  0  0  0  0  0  0  0  0  0  0  0
  140.1650   71.3660  223.4590 N   0  0  0  0  0  0  0  0  0  0  0  0
  139.5220   70.9490  224.5770 C   0  0  0  0  0  0  0  0  0  0  0  0
  140.0860   70.6070  225.8780 C   0  0  0  0  0  0  0  0  0  0  0  0
  140.5390   71.6020  226.7210 C   0  0  0  0  0  0  0  0  0  0  0  0
  141.0770   71.3200  227.9570 C   0  0  0  0  0  0  0  0  0  0  0  0
  141.1560   69.9990  228.3400 C   0  0  0  0  0  0  0  0  0  0  0  0
  140.7030   69.0180  227.4940 C   0  0  0  0  0  0  0  0  0  0  0  0
  140.1590   69.2810  226.2500 C   0  0  0  0  0  0  0  0  0  0  0  0
  138.1890   70.9150  224.2140 C   0  0  0  0  0  0  0  0  0  0  0  0
  138.1100   71.2950  222.9610 O   0  0  0  0  0  0  0  0  0  0  0  0
  142.1850   77.8540  219.9780 C   0  0  0  0  0  0  0  0  0  0  0  0
  142.0360   78.8150  219.0040 C   0  0  0  0  0  0  0  0  0  0  0  0
  141.8020   80.1490  219.3300 C   0  0  0  0  0  0  0  0  0  0  0  0
  141.7270   80.4570  220.6850 C   0  0  0  0  0  0  0  0  0  0  0  0
  141.4980   81.7480  221.1250 C   0  0  0  0  0  0  0  0  0  0  0  0
  141.4300   82.0110  222.4860 C   0  0  0  0  0  0  0  0  0  0  0  0
  141.5840   81.0200  223.4360 C   0  0  0  0  0  0  0  0  0  0  0  0
  141.8130   79.7320  222.9950 C   0  0  0  0  0  0  0  0  0  0  0  0
  141.8800   79.4680  221.6320 C   0  0  0  0  0  0  0  0  0  0  0  0
  142.1080   78.1720  221.3000 N   0  0  0  0  0  0  0  0  0  0  0  0
  142.5550   75.7560  221.5310 H   0  0  0  0  0  0  0  0  0  0  0  0
  142.9090   74.0448  219.0730 H   0  0  0  0  0  0  0  0  0  0  0  0
  143.7506   73.8390  220.7585 H   0  0  0  0  0  0  0  0  0  0  0  0
  140.2923   74.1468  222.7810 H   0  0  0  0  0  0  0  0  0  0  0  0
  140.5038   75.1158  221.3141 H   0  0  0  0  0  0  0  0  0  0  0  0
  138.0655   74.0734  222.4436 H   0  0  0  0  0  0  0  0  0  0  0  0
  138.2359   75.0401  220.9692 H   0  0  0  0  0  0  0  0  0  0  0  0
  137.3972   72.4017  220.9421 H   0  0  0  0  0  0  0  0  0  0  0  0
  138.2306   73.0679  219.5777 H   0  0  0  0  0  0  0  0  0  0  0  0
  139.7872   71.1685  220.4285 H   0  0  0  0  0  0  0  0  0  0  0  0
  140.4682   72.6505  226.3960 H   0  0  0  0  0  0  0  0  0  0  0  0
  141.4325   72.1244  228.6178 H   0  0  0  0  0  0  0  0  0  0  0  0
  141.5801   69.7319  229.3192 H   0  0  0  0  0  0  0  0  0  0  0  0
  140.7762   67.9705  227.8216 H   0  0  0  0  0  0  0  0  0  0  0  0
  139.8032   68.4748  225.5917 H   0  0  0  0  0  0  0  0  0  0  0  0
  137.3471   70.6224  224.8587 H   0  0  0  0  0  0  0  0  0  0  0  0
  142.1031   78.5234  217.9455 H   0  0  0  0  0  0  0  0  0  0  0  0
  141.6825   80.9204  218.5550 H   0  0  0  0  0  0  0  0  0  0  0  0
  141.3701   82.5639  220.3984 H   0  0  0  0  0  0  0  0  0  0  0  0
  141.2473   83.0432  222.8194 H   0  0  0  0  0  0  0  0  0  0  0  0
  141.5260   81.2499  224.5101 H   0  0  0  0  0  0  0  0  0  0  0  0
  141.9422   78.9159  223.7212 H   0  0  0  0  0  0  0  0  0  0  0  0
  1  2  2  0
  2  3  1  0
  3  4  1  0
  4  5  1  0
  5  6  2  0
  5  7  1  0
  7  8  1  0
  8  9  1  0
  9 10  1  0
 10 11  1  0
 11 12  1  0
 12 13  2  0
 13 14  1  0
 14 15  1  0
 15 16  2  0
 16 17  1  0
 17 18  2  0
 18 19  1  0
 19 20  2  0
 14 21  2  0
 21 22  1  0
  2 23  1  0
 23 24  2  0
 24 25  1  0
 25 26  2  0
 26 27  1  0
 27 28  2  0
 28 29  1  0
 29 30  2  0
 30 31  1  0
 31 32  2  0
 11  7  1  0
 22 12  1  0
 32 23  1  0
 20 15  1  0
 31 26  1  0
  3 33  1  0
  4 34  1  0
  4 35  1  0
  8 36  1  0
  8 37  1  0
  9 38  1  0
  9 39  1  0
 10 40  1  0
 10 41  1  0
 11 42  1  6
 16 43  1  0
 17 44  1  0
 18 45  1  0
 19 46  1  0
 20 47  1  0
 21 48  1  0
 24 49  1  0
 25 50  1  0
 27 51  1  0
 28 52  1  0
 29 53  1  0
 30 54  1  0
M  END
>  <smiles>  (35) 
O=C(NCC(=O)N1CCC[C@@H]1c1nc(-c2ccccc2)co1)c1ccc2ccccc2n1

>  <score_type>  (35) 
oracle

>  <origin>  (35) 
autodockgpu

>  <m_score__min__energy>  (35) 
-9.6699999999999999

>  <m_primary>  (35) 
energy

>  <rmsd>  (35) 
9.787400789472509

>  <m_score__min__rmsd>  (35) 
9.787400789472509

>  <meeko>  (35) 
{"free_energy": -8.56, "intermolecular_energy": -10.35, "internal_energy": -1.9, "cluster_size": 1, "cluster_id": 4, "rank_in_cluster": 1}

>  <energy>  (35) 
-8.87

>  <cluster_rmsd>  (35) 
1.2

>  <cluster>  (35) 
2

$$$$

     RDKit          3D

 54 58  0  0  0  0  0  0  0  0999 V2000
  140.3830   73.0590  222.6860 O   0  0  0  0  0  0  0  0  0  0  0  0
  140.3260   71.8000  222.8390 C   0  0  0  0  0  0  0  0  0  0  0  0
  140.2530   71.0320  221.6290 N   0  0  0  0  0  0  0  0  0  0  0  0
  140.2420   71.5930  220.3200 C   0  0  0  0  0  0  0  0  0  0  0  0
  141.4330   72.0960  219.7040 C   0  0  0  0  0  0  0  0  0  0  0  0
  142.1460   71.1710  219.0820 O   0  0  0  0  0  0  0  0  0  0  0  0
  142.0340   73.3600  219.6070 N   0  0  0  0  0  0  0  0  0  0  0  0
  143.1760   73.6830  220.5250 C   0  0  0  0  0  0  0  0  0  0  0  0
  143.9940   74.7040  219.8150 C   0  0  0  0  0  0  0  0  0  0  0  0
  143.3000   74.9500  218.4920 C   0  0  0  0  0  0  0  0  0  0  0  0
  141.8560   74.5520  218.8660 C   0  0  2  0  0  0  0  0  0  0  0  0
  141.3360   75.6800  219.7370 C   0  0  0  0  0  0  0  0  0  0  0  0
  142.0300   76.5520  220.4660 N   0  0  0  0  0  0  0  0  0  0  0  0
  141.1930   77.4080  221.1030 C   0  0  0  0  0  0  0  0  0  0  0  0
  141.5270   78.5100  221.9970 C   0  0  0  0  0  0  0  0  0  0  0  0
  141.8510   79.7490  221.4810 C   0  0  0  0  0  0  0  0  0  0  0  0
  142.1710   80.8150  222.2930 C   0  0  0  0  0  0  0  0  0  0  0  0
  142.1620   80.6140  223.6550 C   0  0  0  0  0  0  0  0  0  0  0  0
  141.8380   79.3790  224.1580 C   0  0  0  0  0  0  0  0  0  0  0  0
  141.5140   78.2970  223.3600 C   0  0  0  0  0  0  0  0  0  0  0  0
  139.9290   77.0040  220.7180 C   0  0  0  0  0  0  0  0  0  0  0  0
  140.0710   75.9800  219.9100 O   0  0  0  0  0  0  0  0  0  0  0  0
  140.3360   71.1840  224.1400 C   0  0  0  0  0  0  0  0  0  0  0  0
  140.7670   71.9260  225.2170 C   0  0  0  0  0  0  0  0  0  0  0  0
  140.8000   71.3900  226.5010 C   0  0  0  0  0  0  0  0  0  0  0  0
  140.3770   70.0720  226.6390 C   0  0  0  0  0  0  0  0  0  0  0  0
  140.3660   69.4360  227.8680 C   0  0  0  0  0  0  0  0  0  0  0  0
  139.9350   68.1200  227.9600 C   0  0  0  0  0  0  0  0  0  0  0  0
  139.5080   67.4060  226.8560 C   0  0  0  0  0  0  0  0  0  0  0  0
  139.5200   68.0420  225.6310 C   0  0  0  0  0  0  0  0  0  0  0  0
  139.9500   69.3600  225.5390 C   0  0  0  0  0  0  0  0  0  0  0  0
  139.9230   69.8960  224.2920 N   0  0  0  0  0  0  0  0  0  0  0  0
  140.2090   69.9850  221.7960 H   0  0  0  0  0  0  0  0  0  0  0  0
  139.8559   70.8094  219.6515 H   0  0  0  0  0  0  0  0  0  0  0  0
  139.6497   72.5087  220.4640 H   0  0  0  0  0  0  0  0  0  0  0  0
  142.7997   74.0880  221.4760 H   0  0  0  0  0  0  0  0  0  0  0  0
  143.7674   72.7870  220.7646 H   0  0  0  0  0  0  0  0  0  0  0  0
  144.0384   75.6334  220.4017 H   0  0  0  0  0  0  0  0  0  0  0  0
  145.0287   74.3603  219.6690 H   0  0  0  0  0  0  0  0  0  0  0  0
  143.3663   76.0047  218.1866 H   0  0  0  0  0  0  0  0  0  0  0  0
  143.7244   74.4015  217.6382 H   0  0  0  0  0  0  0  0  0  0  0  0
  141.1557   74.3972  218.0319 H   0  0  0  0  0  0  0  0  0  0  0  0
  141.8537   79.8890  220.3900 H   0  0  0  0  0  0  0  0  0  0  0  0
  142.4258   81.7963  221.8663 H   0  0  0  0  0  0  0  0  0  0  0  0
  142.4134   81.4397  224.3370 H   0  0  0  0  0  0  0  0  0  0  0  0
  141.8359   79.2430  225.2496 H   0  0  0  0  0  0  0  0  0  0  0  0
  141.2591   77.3171  223.7898 H   0  0  0  0  0  0  0  0  0  0  0  0
  138.9774   77.4580  221.0316 H   0  0  0  0  0  0  0  0  0  0  0  0
  141.0923   72.9649  225.0591 H   0  0  0  0  0  0  0  0  0  0  0  0
  141.1435   71.9794  227.3639 H   0  0  0  0  0  0  0  0  0  0  0  0
  140.6979   69.9720  228.7694 H   0  0  0  0  0  0  0  0  0  0  0  0
  139.9331   67.6287  228.9442 H   0  0  0  0  0  0  0  0  0  0  0  0
  139.1693   66.3637  226.9508 H   0  0  0  0  0  0  0  0  0  0  0  0
  139.1896   67.5062  224.7289 H   0  0  0  0  0  0  0  0  0  0  0  0
  1  2  2  0
  2  3  1  0
  3  4  1  0
  4  5  1  0
  5  6  2  0
  5  7  1  0
  7  8  1  0
  8  9  1  0
  9 10  1  0
 10 11  1  0
 11 12  1  0
 12 13  2  0
 13 14  1  0
 14 15  1  0
 15 16  2  0
 16 17  1  0
 17 18  2  0
 18 19  1  0
 19 20  2  0
 14 21  2  0
 21 22  1  0
  2 23  1  0
 23 24  2  0
 24 25  1  0
 25 26  2  0
 26 27  1  0
 27 28  2  0
 28 29  1  0
 29 30  2  0
 30 31  1  0
 31 32  2  0
 11  7  1  0
 22 12  1  0
 32 23  1  0
 20 15  1  0
 31 26  1  0
  3 33  1  0
  4 34  1  0
  4 35  1  0
  8 36  1  0
  8 37  1  0
  9 38  1  0
  9 39  1  0
 10 40  1  0
 10 41  1  0
 11 42  1  6
 16 43  1  0
 17 44  1  0
 18 45  1  0
 19 46  1  0
 20 47  1  0
 21 48  1  0
 24 49  1  0
 25 50  1  0
 27 51  1  0
 28 52  1  0
 29 53  1  0
 30 54  1  0
M  END
>  <smiles>  (36) 
O=C(NCC(=O)N1CCC[C@@H]1c1nc(-c2ccccc2)co1)c1ccc2ccccc2n1

>  <score_type>  (36) 
oracle

>  <origin>  (36) 
autodockgpu

>  <m_score__min__energy>  (36) 
-9.6699999999999999

>  <m_primary>  (36) 
energy

>  <rmsd>  (36) 
3.9264164761757088

>  <m_score__min__rmsd>  (36) 
3.9264164761757088

>  <meeko>  (36) 
{"free_energy": -8.84, "intermolecular_energy": -10.63, "internal_energy": -1.83, "cluster_size": 25, "cluster_id": 1, "rank_in_cluster": 16}

>  <energy>  (36) 
-8.87

>  <cluster_rmsd>  (36) 
1.79

>  <cluster>  (36) 
2

$$$$

     RDKit          3D

 54 58  0  0  0  0  0  0  0  0999 V2000
  140.3420   74.5240  221.9870 O   0  0  0  0  0  0  0  0  0  0  0  0
  139.9130   75.5800  221.4270 C   0  0  0  0  0  0  0  0  0  0  0  0
  139.2890   75.3930  220.1480 N   0  0  0  0  0  0  0  0  0  0  0  0
  139.1360   74.1310  219.5060 C   0  0  0  0  0  0  0  0  0  0  0  0
  138.1630   73.1750  219.9420 C   0  0  0  0  0  0  0  0  0  0  0  0
  137.4940   72.6020  218.9530 O   0  0  0  0  0  0  0  0  0  0  0  0
  137.7400   72.6980  221.1910 N   0  0  0  0  0  0  0  0  0  0  0  0
  137.2480   73.6870  222.2070 C   0  0  0  0  0  0  0  0  0  0  0  0
  136.3080   72.9360  223.0840 C   0  0  0  0  0  0  0  0  0  0  0  0
  136.2790   71.5200  222.5510 C   0  0  0  0  0  0  0  0  0  0  0  0
  137.6620   71.4580  221.8690 C   0  0  2  0  0  0  0  0  0  0  0  0
  138.6700   71.3750  223.0010 C   0  0  0  0  0  0  0  0  0  0  0  0
  138.6960   70.5270  224.0260 N   0  0  0  0  0  0  0  0  0  0  0  0
  139.7630   70.7800  224.8220 C   0  0  0  0  0  0  0  0  0  0  0  0
  140.1700   70.0960  226.0450 C   0  0  0  0  0  0  0  0  0  0  0  0
  140.6660   70.8190  227.1120 C   0  0  0  0  0  0  0  0  0  0  0  0
  141.0600   70.2100  228.2830 C   0  0  0  0  0  0  0  0  0  0  0  0
  140.9470   68.8400  228.3680 C   0  0  0  0  0  0  0  0  0  0  0  0
  140.4520   68.1320  227.3030 C   0  0  0  0  0  0  0  0  0  0  0  0
  140.0510   68.7240  226.1190 C   0  0  0  0  0  0  0  0  0  0  0  0
  140.3990   71.8470  224.2170 C   0  0  0  0  0  0  0  0  0  0  0  0
  139.7120   72.1580  223.1440 O   0  0  0  0  0  0  0  0  0  0  0  0
  140.0430   76.8770  222.0350 C   0  0  0  0  0  0  0  0  0  0  0  0
  138.9110   77.4970  222.5150 C   0  0  0  0  0  0  0  0  0  0  0  0
  138.9690   78.7520  223.1150 C   0  0  0  0  0  0  0  0  0  0  0  0
  140.2250   79.3460  223.2030 C   0  0  0  0  0  0  0  0  0  0  0  0
  140.4030   80.5900  223.7790 C   0  0  0  0  0  0  0  0  0  0  0  0
  141.6730   81.1440  223.8460 C   0  0  0  0  0  0  0  0  0  0  0  0
  142.7880   80.4930  223.3530 C   0  0  0  0  0  0  0  0  0  0  0  0
  142.6090   79.2510  222.7780 C   0  0  0  0  0  0  0  0  0  0  0  0
  141.3370   78.6950  222.7110 C   0  0  0  0  0  0  0  0  0  0  0  0
  141.2650   77.4710  222.1300 N   0  0  0  0  0  0  0  0  0  0  0  0
  138.9430   76.2960  219.7110 H   0  0  0  0  0  0  0  0  0  0  0  0
  138.9063   74.3466  218.4521 H   0  0  0  0  0  0  0  0  0  0  0  0
  140.0829   73.6282  219.7520 H   0  0  0  0  0  0  0  0  0  0  0  0
  138.0892   74.0811  222.7962 H   0  0  0  0  0  0  0  0  0  0  0  0
  136.7556   74.5467  221.7290 H   0  0  0  0  0  0  0  0  0  0  0  0
  136.6659   72.9453  224.1241 H   0  0  0  0  0  0  0  0  0  0  0  0
  135.3053   73.3882  223.0794 H   0  0  0  0  0  0  0  0  0  0  0  0
  136.1905   70.7812  223.3612 H   0  0  0  0  0  0  0  0  0  0  0  0
  135.4284   71.2918  221.8920 H   0  0  0  0  0  0  0  0  0  0  0  0
  137.8344   70.6189  221.1789 H   0  0  0  0  0  0  0  0  0  0  0  0
  140.7488   71.9124  227.0242 H   0  0  0  0  0  0  0  0  0  0  0  0
  141.4528   70.7997  229.1244 H   0  0  0  0  0  0  0  0  0  0  0  0
  141.2524   68.3162  229.2858 H   0  0  0  0  0  0  0  0  0  0  0  0
  140.3697   67.0389  227.3949 H   0  0  0  0  0  0  0  0  0  0  0  0
  139.6576   68.1313  225.2800 H   0  0  0  0  0  0  0  0  0  0  0  0
  141.3141   72.3446  224.5706 H   0  0  0  0  0  0  0  0  0  0  0  0
  137.9395   76.9895  222.4223 H   0  0  0  0  0  0  0  0  0  0  0  0
  138.0669   79.2497  223.5005 H   0  0  0  0  0  0  0  0  0  0  0  0
  139.5398   81.1391  224.1832 H   0  0  0  0  0  0  0  0  0  0  0  0
  141.7968   82.1350  224.3071 H   0  0  0  0  0  0  0  0  0  0  0  0
  143.7865   80.9502  223.4168 H   0  0  0  0  0  0  0  0  0  0  0  0
  143.4720   78.7020  222.3733 H   0  0  0  0  0  0  0  0  0  0  0  0
  1  2  2  0
  2  3  1  0
  3  4  1  0
  4  5  1  0
  5  6  2  0
  5  7  1  0
  7  8  1  0
  8  9  1  0
  9 10  1  0
 10 11  1  0
 11 12  1  0
 12 13  2  0
 13 14  1  0
 14 15  1  0
 15 16  2  0
 16 17  1  0
 17 18  2  0
 18 19  1  0
 19 20  2  0
 14 21  2  0
 21 22  1  0
  2 23  1  0
 23 24  2  0
 24 25  1  0
 25 26  2  0
 26 27  1  0
 27 28  2  0
 28 29  1  0
 29 30  2  0
 30 31  1  0
 31 32  2  0
 11  7  1  0
 22 12  1  0
 32 23  1  0
 20 15  1  0
 31 26  1  0
  3 33  1  0
  4 34  1  0
  4 35  1  0
  8 36  1  0
  8 37  1  0
  9 38  1  0
  9 39  1  0
 10 40  1  0
 10 41  1  0
 11 42  1  6
 16 43  1  0
 17 44  1  0
 18 45  1  0
 19 46  1  0
 20 47  1  0
 21 48  1  0
 24 49  1  0
 25 50  1  0
 27 51  1  0
 28 52  1  0
 29 53  1  0
 30 54  1  0
M  END
>  <smiles>  (37) 
O=C(NCC(=O)N1CCC[C@@H]1c1nc(-c2ccccc2)co1)c1ccc2ccccc2n1

>  <score_type>  (37) 
oracle

>  <origin>  (37) 
autodockgpu

>  <m_score__min__energy>  (37) 
-9.6699999999999999

>  <m_primary>  (37) 
energy

>  <rmsd>  (37) 
9.511668403109859

>  <m_score__min__rmsd>  (37) 
9.511668403109859

>  <meeko>  (37) 
{"free_energy": -8.72, "intermolecular_energy": -10.51, "internal_energy": -1.82, "cluster_size": 21, "cluster_id": 2, "rank_in_cluster": 17}

>  <energy>  (37) 
-8.85

>  <cluster_rmsd>  (37) 
1.83

>  <cluster>  (37) 
2

$$$$

     RDKit          3D

 54 58  0  0  0  0  0  0  0  0999 V2000
  139.6060   73.1430  222.6500 O   0  0  0  0  0  0  0  0  0  0  0  0
  139.6820   71.8800  222.7620 C   0  0  0  0  0  0  0  0  0  0  0  0
  139.4090   71.1360  221.5660 N   0  0  0  0  0  0  0  0  0  0  0  0
  139.0710   71.7220  220.3130 C   0  0  0  0  0  0  0  0  0  0  0  0
  140.0210   72.4740  219.5500 C   0  0  0  0  0  0  0  0  0  0  0  0
  139.9010   72.3160  218.2410 O   0  0  0  0  0  0  0  0  0  0  0  0
  141.0700   73.3490  219.8680 N   0  0  0  0  0  0  0  0  0  0  0  0
  142.0190   72.9610  220.9630 C   0  0  0  0  0  0  0  0  0  0  0  0
  143.3020   73.6510  220.6550 C   0  0  0  0  0  0  0  0  0  0  0  0
  143.0610   74.4290  219.3790 C   0  0  0  0  0  0  0  0  0  0  0  0
  141.5320   74.6230  219.4630 C   0  0  2  0  0  0  0  0  0  0  0  0
  141.3150   75.6670  220.5430 C   0  0  0  0  0  0  0  0  0  0  0  0
  141.7470   76.9250  220.5780 N   0  0  0  0  0  0  0  0  0  0  0  0
  141.3390   77.5340  221.7190 C   0  0  0  0  0  0  0  0  0  0  0  0
  141.5870   78.9020  222.1600 C   0  0  0  0  0  0  0  0  0  0  0  0
  141.9690   79.1510  223.4630 C   0  0  0  0  0  0  0  0  0  0  0  0
  142.2130   80.4280  223.9180 C   0  0  0  0  0  0  0  0  0  0  0  0
  142.0650   81.4690  223.0290 C   0  0  0  0  0  0  0  0  0  0  0  0
  141.6850   81.2100  221.7370 C   0  0  0  0  0  0  0  0  0  0  0  0
  141.4360   79.9360  221.2600 C   0  0  0  0  0  0  0  0  0  0  0  0
  140.6220   76.5610  222.3900 C   0  0  0  0  0  0  0  0  0  0  0  0
  140.6380   75.4780  221.6510 O   0  0  0  0  0  0  0  0  0  0  0  0
  140.0210   71.2400  224.0050 C   0  0  0  0  0  0  0  0  0  0  0  0
  140.6970   71.9680  224.9580 C   0  0  0  0  0  0  0  0  0  0  0  0
  141.0530   71.4070  226.1820 C   0  0  0  0  0  0  0  0  0  0  0  0
  140.6930   70.0790  226.3900 C   0  0  0  0  0  0  0  0  0  0  0  0
  140.9940   69.4190  227.5670 C   0  0  0  0  0  0  0  0  0  0  0  0
  140.6160   68.0950  227.7330 C   0  0  0  0  0  0  0  0  0  0  0  0
  139.9370   67.3950  226.7530 C   0  0  0  0  0  0  0  0  0  0  0  0
  139.6370   68.0550  225.5780 C   0  0  0  0  0  0  0  0  0  0  0  0
  140.0160   69.3810  225.4130 C   0  0  0  0  0  0  0  0  0  0  0  0
  139.6740   69.9410  224.2250 N   0  0  0  0  0  0  0  0  0  0  0  0
  139.4830   70.0850  221.6970 H   0  0  0  0  0  0  0  0  0  0  0  0
  138.7392   70.8968  219.6658 H   0  0  0  0  0  0  0  0  0  0  0  0
  138.3442   72.4941  220.6057 H   0  0  0  0  0  0  0  0  0  0  0  0
  141.6323   73.2900  221.9388 H   0  0  0  0  0  0  0  0  0  0  0  0
  142.1499   71.8701  221.0161 H   0  0  0  0  0  0  0  0  0  0  0  0
  143.5749   74.3337  221.4732 H   0  0  0  0  0  0  0  0  0  0  0  0
  144.1279   72.9337  220.5398 H   0  0  0  0  0  0  0  0  0  0  0  0
  143.5946   75.3909  219.3812 H   0  0  0  0  0  0  0  0  0  0  0  0
  143.4139   73.9335  218.4625 H   0  0  0  0  0  0  0  0  0  0  0  0
  141.0247   74.9526  218.5443 H   0  0  0  0  0  0  0  0  0  0  0  0
  142.0817   78.3056  224.1576 H   0  0  0  0  0  0  0  0  0  0  0  0
  142.5167   80.6105  224.9594 H   0  0  0  0  0  0  0  0  0  0  0  0
  142.2507   82.5035  223.3536 H   0  0  0  0  0  0  0  0  0  0  0  0
  141.5726   82.0580  221.0455 H   0  0  0  0  0  0  0  0  0  0  0  0
  141.1335   79.7568  220.2177 H   0  0  0  0  0  0  0  0  0  0  0  0
  140.1279   76.6746  223.3662 H   0  0  0  0  0  0  0  0  0  0  0  0
  140.9616   73.0149  224.7483 H   0  0  0  0  0  0  0  0  0  0  0  0
  141.5922   71.9852  226.9468 H   0  0  0  0  0  0  0  0  0  0  0  0
  141.5324   69.9431  228.3704 H   0  0  0  0  0  0  0  0  0  0  0  0
  140.8646   67.5850  228.6754 H   0  0  0  0  0  0  0  0  0  0  0  0
  139.6450   66.3454  226.9046 H   0  0  0  0  0  0  0  0  0  0  0  0
  139.0988   67.5316  224.7740 H   0  0  0  0  0  0  0  0  0  0  0  0
  1  2  2  0
  2  3  1  0
  3  4  1  0
  4  5  1  0
  5  6  2  0
  5  7  1  0
  7  8  1  0
  8  9  1  0
  9 10  1  0
 10 11  1  0
 11 12  1  0
 12 13  2  0
 13 14  1  0
 14 15  1  0
 15 16  2  0
 16 17  1  0
 17 18  2  0
 18 19  1  0
 19 20  2  0
 14 21  2  0
 21 22  1  0
  2 23  1  0
 23 24  2  0
 24 25  1  0
 25 26  2  0
 26 27  1  0
 27 28  2  0
 28 29  1  0
 29 30  2  0
 30 31  1  0
 31 32  2  0
 11  7  1  0
 22 12  1  0
 32 23  1  0
 20 15  1  0
 31 26  1  0
  3 33  1  0
  4 34  1  0
  4 35  1  0
  8 36  1  0
  8 37  1  0
  9 38  1  0
  9 39  1  0
 10 40  1  0
 10 41  1  0
 11 42  1  6
 16 43  1  0
 17 44  1  0
 18 45  1  0
 19 46  1  0
 20 47  1  0
 21 48  1  0
 24 49  1  0
 25 50  1  0
 27 51  1  0
 28 52  1  0
 29 53  1  0
 30 54  1  0
M  END
>  <smiles>  (38) 
O=C(NCC(=O)N1CCC[C@@H]1c1nc(-c2ccccc2)co1)c1ccc2ccccc2n1

>  <score_type>  (38) 
oracle

>  <origin>  (38) 
autodockgpu

>  <m_score__min__energy>  (38) 
-9.6699999999999999

>  <m_primary>  (38) 
energy

>  <rmsd>  (38) 
3.526624542368769

>  <m_score__min__rmsd>  (38) 
3.526624542368769

>  <meeko>  (38) 
{"free_energy": -8.88, "intermolecular_energy": -10.67, "internal_energy": -2.02, "cluster_size": 25, "cluster_id": 1, "rank_in_cluster": 13}

>  <energy>  (38) 
-8.82

>  <cluster_rmsd>  (38) 
0.56

>  <cluster>  (38) 
2

$$$$

     RDKit          3D

 54 58  0  0  0  0  0  0  0  0999 V2000
  140.1310   73.1350  222.7170 O   0  0  0  0  0  0  0  0  0  0  0  0
  139.6510   71.9900  222.9820 C   0  0  0  0  0  0  0  0  0  0  0  0
  138.7510   71.4550  222.0010 N   0  0  0  0  0  0  0  0  0  0  0  0
  138.3860   72.1200  220.7960 C   0  0  0  0  0  0  0  0  0  0  0  0
  137.3820   73.1410  220.7710 C   0  0  0  0  0  0  0  0  0  0  0  0
  136.2080   72.7260  220.3190 O   0  0  0  0  0  0  0  0  0  0  0  0
  137.3490   74.5010  221.1130 N   0  0  0  0  0  0  0  0  0  0  0  0
  137.2550   75.5150  220.0110 C   0  0  0  0  0  0  0  0  0  0  0  0
  136.6000   76.7090  220.6110 C   0  0  0  0  0  0  0  0  0  0  0  0
  136.3300   76.3550  222.0580 C   0  0  0  0  0  0  0  0  0  0  0  0
  137.4230   75.2890  222.2850 C   0  0  2  0  0  0  0  0  0  0  0  0
  138.7300   76.0580  222.3610 C   0  0  0  0  0  0  0  0  0  0  0  0
  138.9290   77.3180  222.7390 N   0  0  0  0  0  0  0  0  0  0  0  0
  140.2460   77.6310  222.6690 C   0  0  0  0  0  0  0  0  0  0  0  0
  140.9010   78.8940  222.9880 C   0  0  0  0  0  0  0  0  0  0  0  0
  140.1550   80.0480  223.1190 C   0  0  0  0  0  0  0  0  0  0  0  0
  140.7360   81.2610  223.4200 C   0  0  0  0  0  0  0  0  0  0  0  0
  142.1030   81.2970  223.5900 C   0  0  0  0  0  0  0  0  0  0  0  0
  142.8340   80.1440  223.4570 C   0  0  0  0  0  0  0  0  0  0  0  0
  142.2700   78.9180  223.1560 C   0  0  0  0  0  0  0  0  0  0  0  0
  140.8510   76.4720  222.2200 C   0  0  0  0  0  0  0  0  0  0  0  0
  139.9100   75.5740  222.0550 O   0  0  0  0  0  0  0  0  0  0  0  0
  139.9880   71.2770  224.1840 C   0  0  0  0  0  0  0  0  0  0  0  0
  140.7800   71.9030  225.1220 C   0  0  0  0  0  0  0  0  0  0  0  0
  141.1420   71.2680  226.3070 C   0  0  0  0  0  0  0  0  0  0  0  0
  140.6650   69.9740  226.4940 C   0  0  0  0  0  0  0  0  0  0  0  0
  140.9610   69.2470  227.6330 C   0  0  0  0  0  0  0  0  0  0  0  0
  140.4640   67.9600  227.7780 C   0  0  0  0  0  0  0  0  0  0  0  0
  139.6720   67.3630  226.8150 C   0  0  0  0  0  0  0  0  0  0  0  0
  139.3780   68.0890  225.6790 C   0  0  0  0  0  0  0  0  0  0  0  0
  139.8750   69.3790  225.5340 C   0  0  0  0  0  0  0  0  0  0  0  0
  139.5290   70.0100  224.3830 N   0  0  0  0  0  0  0  0  0  0  0  0
  138.3710   70.4970  222.2550 H   0  0  0  0  0  0  0  0  0  0  0  0
  139.3057   72.5818  220.4075 H   0  0  0  0  0  0  0  0  0  0  0  0
  137.9113   71.3126  220.2191 H   0  0  0  0  0  0  0  0  0  0  0  0
  138.2586   75.7738  219.6424 H   0  0  0  0  0  0  0  0  0  0  0  0
  136.6838   75.1286  219.1540 H   0  0  0  0  0  0  0  0  0  0  0  0
  137.2665   77.5819  220.5492 H   0  0  0  0  0  0  0  0  0  0  0  0
  135.6721   76.9684  220.0802 H   0  0  0  0  0  0  0  0  0  0  0  0
  136.4624   77.2224  222.7215 H   0  0  0  0  0  0  0  0  0  0  0  0
  135.3044   76.0171  222.2674 H   0  0  0  0  0  0  0  0  0  0  0  0
  137.3253   74.6660  223.1863 H   0  0  0  0  0  0  0  0  0  0  0  0
  139.0651   79.9980  222.9791 H   0  0  0  0  0  0  0  0  0  0  0  0
  140.1276   82.1718  223.5213 H   0  0  0  0  0  0  0  0  0  0  0  0
  142.6054   82.2454  223.8311 H   0  0  0  0  0  0  0  0  0  0  0  0
  143.9238   80.1974  223.5968 H   0  0  0  0  0  0  0  0  0  0  0  0
  142.8812   78.0090  223.0557 H   0  0  0  0  0  0  0  0  0  0  0  0
  141.9259   76.3292  222.0349 H   0  0  0  0  0  0  0  0  0  0  0  0
  141.1339   72.9267  224.9303 H   0  0  0  0  0  0  0  0  0  0  0  0
  141.7738   71.7645  227.0583 H   0  0  0  0  0  0  0  0  0  0  0  0
  141.5886   69.6881  228.4214 H   0  0  0  0  0  0  0  0  0  0  0  0
  140.7084   67.3955  228.6899 H   0  0  0  0  0  0  0  0  0  0  0  0
  139.2881   66.3411  226.9501 H   0  0  0  0  0  0  0  0  0  0  0  0
  138.7516   67.6478  224.8897 H   0  0  0  0  0  0  0  0  0  0  0  0
  1  2  2  0
  2  3  1  0
  3  4  1  0
  4  5  1  0
  5  6  2  0
  5  7  1  0
  7  8  1  0
  8  9  1  0
  9 10  1  0
 10 11  1  0
 11 12  1  0
 12 13  2  0
 13 14  1  0
 14 15  1  0
 15 16  2  0
 16 17  1  0
 17 18  2  0
 18 19  1  0
 19 20  2  0
 14 21  2  0
 21 22  1  0
  2 23  1  0
 23 24  2  0
 24 25  1  0
 25 26  2  0
 26 27  1  0
 27 28  2  0
 28 29  1  0
 29 30  2  0
 30 31  1  0
 31 32  2  0
 11  7  1  0
 22 12  1  0
 32 23  1  0
 20 15  1  0
 31 26  1  0
  3 33  1  0
  4 34  1  0
  4 35  1  0
  8 36  1  0
  8 37  1  0
  9 38  1  0
  9 39  1  0
 10 40  1  0
 10 41  1  0
 11 42  1  1
 16 43  1  0
 17 44  1  0
 18 45  1  0
 19 46  1  0
 20 47  1  0
 21 48  1  0
 24 49  1  0
 25 50  1  0
 27 51  1  0
 28 52  1  0
 29 53  1  0
 30 54  1  0
M  END
>  <smiles>  (39) 
O=C(NCC(=O)N1CCC[C@@H]1c1nc(-c2ccccc2)co1)c1ccc2ccccc2n1

>  <score_type>  (39) 
oracle

>  <origin>  (39) 
autodockgpu

>  <m_score__min__energy>  (39) 
-9.6699999999999999

>  <m_primary>  (39) 
energy

>  <rmsd>  (39) 
3.8018787364982733

>  <m_score__min__rmsd>  (39) 
3.8018787364982733

>  <meeko>  (39) 
{"free_energy": -9.0, "intermolecular_energy": -10.79, "internal_energy": -2.06, "cluster_size": 21, "cluster_id": 2, "rank_in_cluster": 7}

>  <energy>  (39) 
-8.8

>  <cluster_rmsd>  (39) 
1.24

>  <cluster>  (39) 
2

$$$$

     RDKit          3D

 54 58  0  0  0  0  0  0  0  0999 V2000
  141.2210   71.7460  221.7180 O   0  0  0  0  0  0  0  0  0  0  0  0
  140.3130   71.9460  222.5840 C   0  0  0  0  0  0  0  0  0  0  0  0
  139.4610   73.0730  222.3360 N   0  0  0  0  0  0  0  0  0  0  0  0
  139.5800   73.9410  221.2130 C   0  0  0  0  0  0  0  0  0  0  0  0
  140.6810   74.8450  221.0700 C   0  0  0  0  0  0  0  0  0  0  0  0
  140.6680   75.8460  221.9370 O   0  0  0  0  0  0  0  0  0  0  0  0
  141.7870   74.9250  220.2100 N   0  0  0  0  0  0  0  0  0  0  0  0
  141.6200   74.4840  218.7860 C   0  0  0  0  0  0  0  0  0  0  0  0
  142.6300   75.2460  218.0020 C   0  0  0  0  0  0  0  0  0  0  0  0
  143.3640   76.1170  219.0010 C   0  0  0  0  0  0  0  0  0  0  0  0
  143.1510   75.2920  220.2880 C   0  0  2  0  0  0  0  0  0  0  0  0
  144.0630   74.0860  220.1530 C   0  0  0  0  0  0  0  0  0  0  0  0
  143.7350   72.8230  219.8930 N   0  0  0  0  0  0  0  0  0  0  0  0
  144.8440   72.0440  219.8530 C   0  0  0  0  0  0  0  0  0  0  0  0
  144.9410   70.6110  219.6020 C   0  0  0  0  0  0  0  0  0  0  0  0
  146.1120   70.0710  219.1090 C   0  0  0  0  0  0  0  0  0  0  0  0
  146.2440   68.7230  218.8590 C   0  0  0  0  0  0  0  0  0  0  0  0
  145.1610   67.9100  219.1160 C   0  0  0  0  0  0  0  0  0  0  0  0
  144.0030   68.4570  219.6060 C   0  0  0  0  0  0  0  0  0  0  0  0
  143.8510   69.8070  219.8640 C   0  0  0  0  0  0  0  0  0  0  0  0
  145.8860   72.9160  220.1080 C   0  0  0  0  0  0  0  0  0  0  0  0
  145.3690   74.1100  220.2770 O   0  0  0  0  0  0  0  0  0  0  0  0
  140.1510   71.0990  223.7350 C   0  0  0  0  0  0  0  0  0  0  0  0
  139.4680   69.9120  223.5880 C   0  0  0  0  0  0  0  0  0  0  0  0
  139.2770   69.0470  224.6620 C   0  0  0  0  0  0  0  0  0  0  0  0
  139.8090   69.4420  225.8860 C   0  0  0  0  0  0  0  0  0  0  0  0
  139.6800   68.6630  227.0210 C   0  0  0  0  0  0  0  0  0  0  0  0
  140.2270   69.0960  228.2210 C   0  0  0  0  0  0  0  0  0  0  0  0
  140.9070   70.2940  228.3310 C   0  0  0  0  0  0  0  0  0  0  0  0
  141.0340   71.0710  227.1970 C   0  0  0  0  0  0  0  0  0  0  0  0
  140.4870   70.6370  225.9950 C   0  0  0  0  0  0  0  0  0  0  0  0
  140.6660   71.4700  224.9390 N   0  0  0  0  0  0  0  0  0  0  0  0
  138.7140   73.2090  223.0780 H   0  0  0  0  0  0  0  0  0  0  0  0
  139.5941   73.2943  220.3233 H   0  0  0  0  0  0  0  0  0  0  0  0
  138.7330   74.6275  221.3589 H   0  0  0  0  0  0  0  0  0  0  0  0
  141.8022   73.4029  218.6964 H   0  0  0  0  0  0  0  0  0  0  0  0
  140.5994   74.6729  218.4217 H   0  0  0  0  0  0  0  0  0  0  0  0
  143.3308   74.5563  217.5089 H   0  0  0  0  0  0  0  0  0  0  0  0
  142.1565   75.8490  217.2133 H   0  0  0  0  0  0  0  0  0  0  0  0
  144.4308   76.2142  218.7509 H   0  0  0  0  0  0  0  0  0  0  0  0
  143.0102   77.1571  219.0550 H   0  0  0  0  0  0  0  0  0  0  0  0
  143.3704   75.7976  221.2399 H   0  0  0  0  0  0  0  0  0  0  0  0
  146.9647   70.7369  218.9100 H   0  0  0  0  0  0  0  0  0  0  0  0
  147.1842   68.3082  218.4666 H   0  0  0  0  0  0  0  0  0  0  0  0
  145.2253   66.8279  218.9290 H   0  0  0  0  0  0  0  0  0  0  0  0
  143.1523   67.7883  219.8038 H   0  0  0  0  0  0  0  0  0  0  0  0
  142.9099   70.2184  220.2577 H   0  0  0  0  0  0  0  0  0  0  0  0
  146.9536   72.6562  220.1598 H   0  0  0  0  0  0  0  0  0  0  0  0
  139.0648   69.6417  222.6009 H   0  0  0  0  0  0  0  0  0  0  0  0
  138.7324   68.0980  224.5488 H   0  0  0  0  0  0  0  0  0  0  0  0
  139.1454   67.7028  226.9731 H   0  0  0  0  0  0  0  0  0  0  0  0
  140.1155   68.4642  229.1145 H   0  0  0  0  0  0  0  0  0  0  0  0
  141.3336   70.6182  229.2917 H   0  0  0  0  0  0  0  0  0  0  0  0
  141.5672   72.0320  227.2445 H   0  0  0  0  0  0  0  0  0  0  0  0
  1  2  2  0
  2  3  1  0
  3  4  1  0
  4  5  1  0
  5  6  2  0
  5  7  1  0
  7  8  1  0
  8  9  1  0
  9 10  1  0
 10 11  1  0
 11 12  1  0
 12 13  2  0
 13 14  1  0
 14 15  1  0
 15 16  2  0
 16 17  1  0
 17 18  2  0
 18 19  1  0
 19 20  2  0
 14 21  2  0
 21 22  1  0
  2 23  1  0
 23 24  2  0
 24 25  1  0
 25 26  2  0
 26 27  1  0
 27 28  2  0
 28 29  1  0
 29 30  2  0
 30 31  1  0
 31 32  2  0
 11  7  1  0
 22 12  1  0
 32 23  1  0
 20 15  1  0
 31 26  1  0
  3 33  1  0
  4 34  1  0
  4 35  1  0
  8 36  1  0
  8 37  1  0
  9 38  1  0
  9 39  1  0
 10 40  1  0
 10 41  1  0
 11 42  1  1
 16 43  1  0
 17 44  1  0
 18 45  1  0
 19 46  1  0
 20 47  1  0
 21 48  1  0
 24 49  1  0
 25 50  1  0
 27 51  1  0
 28 52  1  0
 29 53  1  0
 30 54  1  0
M  END
>  <smiles>  (40) 
O=C(NCC(=O)N1CCC[C@@H]1c1nc(-c2ccccc2)co1)c1ccc2ccccc2n1

>  <score_type>  (40) 
oracle

>  <origin>  (40) 
autodockgpu

>  <m_score__min__energy>  (40) 
-9.6699999999999999

>  <m_primary>  (40) 
energy

>  <rmsd>  (40) 
6.762584271822193

>  <m_score__min__rmsd>  (40) 
6.762584271822193

>  <meeko>  (40) 
{"free_energy": -8.73, "intermolecular_energy": -10.52, "internal_energy": -1.8, "cluster_size": 3, "cluster_id": 3, "rank_in_cluster": 1}

>  <energy>  (40) 
-8.79

>  <cluster_rmsd>  (40) 
1.06

>  <cluster>  (40) 
2

$$$$

     RDKit          3D

 54 58  0  0  0  0  0  0  0  0999 V2000
  140.4890   72.9880  222.1250 O   0  0  0  0  0  0  0  0  0  0  0  0
  139.7660   71.9770  222.3880 C   0  0  0  0  0  0  0  0  0  0  0  0
  138.8910   71.5520  221.3330 N   0  0  0  0  0  0  0  0  0  0  0  0
  138.7990   72.1840  220.0600 C   0  0  0  0  0  0  0  0  0  0  0  0
  138.2300   73.4880  219.9040 C   0  0  0  0  0  0  0  0  0  0  0  0
  137.6930   73.6990  218.7110 O   0  0  0  0  0  0  0  0  0  0  0  0
  138.1080   74.6170  220.7280 N   0  0  0  0  0  0  0  0  0  0  0  0
  137.4430   75.8420  220.1720 C   0  0  0  0  0  0  0  0  0  0  0  0
  136.8780   76.5660  221.3440 C   0  0  0  0  0  0  0  0  0  0  0  0
  137.2340   75.7360  222.5590 C   0  0  0  0  0  0  0  0  0  0  0  0
  138.4890   75.0080  222.0330 C   0  0  2  0  0  0  0  0  0  0  0  0
  139.5850   76.0570  222.0060 C   0  0  0  0  0  0  0  0  0  0  0  0
  139.6640   77.1910  222.6980 N   0  0  0  0  0  0  0  0  0  0  0  0
  140.8050   77.8550  222.3900 C   0  0  0  0  0  0  0  0  0  0  0  0
  141.2870   79.1300  222.9110 C   0  0  0  0  0  0  0  0  0  0  0  0
  142.6410   79.3870  222.9710 C   0  0  0  0  0  0  0  0  0  0  0  0
  143.1350   80.5780  223.4560 C   0  0  0  0  0  0  0  0  0  0  0  0
  142.2310   81.5230  223.8890 C   0  0  0  0  0  0  0  0  0  0  0  0
  140.8870   81.2570  223.8250 C   0  0  0  0  0  0  0  0  0  0  0  0
  140.3710   80.0680  223.3410 C   0  0  0  0  0  0  0  0  0  0  0  0
  141.4300   77.0510  221.4550 C   0  0  0  0  0  0  0  0  0  0  0  0
  140.6660   76.0010  221.2650 O   0  0  0  0  0  0  0  0  0  0  0  0
  139.8220   71.3040  223.6570 C   0  0  0  0  0  0  0  0  0  0  0  0
  139.2840   70.0400  223.7570 C   0  0  0  0  0  0  0  0  0  0  0  0
  139.3070   69.3350  224.9570 C   0  0  0  0  0  0  0  0  0  0  0  0
  139.8980   69.9690  226.0450 C   0  0  0  0  0  0  0  0  0  0  0  0
  139.9780   69.3640  227.2860 C   0  0  0  0  0  0  0  0  0  0  0  0
  140.5770   70.0330  228.3430 C   0  0  0  0  0  0  0  0  0  0  0  0
  141.1080   71.3020  228.2060 C   0  0  0  0  0  0  0  0  0  0  0  0
  141.0280   71.9050  226.9670 C   0  0  0  0  0  0  0  0  0  0  0  0
  140.4280   71.2340  225.9080 C   0  0  0  0  0  0  0  0  0  0  0  0
  140.3990   71.9100  224.7310 N   0  0  0  0  0  0  0  0  0  0  0  0
  138.3040   70.7050  221.5870 H   0  0  0  0  0  0  0  0  0  0  0  0
  139.8262   72.2469  219.6716 H   0  0  0  0  0  0  0  0  0  0  0  0
  138.0702   71.5478  219.5364 H   0  0  0  0  0  0  0  0  0  0  0  0
  138.1776   76.4729  219.6501 H   0  0  0  0  0  0  0  0  0  0  0  0
  136.6619   75.5820  219.4425 H   0  0  0  0  0  0  0  0  0  0  0  0
  137.3216   77.5695  221.4234 H   0  0  0  0  0  0  0  0  0  0  0  0
  135.7898   76.6967  221.2503 H   0  0  0  0  0  0  0  0  0  0  0  0
  137.4639   76.3668  223.4304 H   0  0  0  0  0  0  0  0  0  0  0  0
  136.4320   75.0737  222.9169 H   0  0  0  0  0  0  0  0  0  0  0  0
  138.8399   74.1444  222.6169 H   0  0  0  0  0  0  0  0  0  0  0  0
  143.3465   78.6188  222.6215 H   0  0  0  0  0  0  0  0  0  0  0  0
  144.2176   80.7685  223.4963 H   0  0  0  0  0  0  0  0  0  0  0  0
  142.5854   82.4864  224.2843 H   0  0  0  0  0  0  0  0  0  0  0  0
  140.1844   82.0273  224.1759 H   0  0  0  0  0  0  0  0  0  0  0  0
  139.2878   79.8804  223.3011 H   0  0  0  0  0  0  0  0  0  0  0  0
  142.3915   77.2542  220.9608 H   0  0  0  0  0  0  0  0  0  0  0  0
  138.8265   69.5779  222.8698 H   0  0  0  0  0  0  0  0  0  0  0  0
  138.8786   68.3253  225.0409 H   0  0  0  0  0  0  0  0  0  0  0  0
  139.5674   68.3543  227.4345 H   0  0  0  0  0  0  0  0  0  0  0  0
  140.6314   69.5371  229.3234 H   0  0  0  0  0  0  0  0  0  0  0  0
  141.5793   71.8149  229.0574 H   0  0  0  0  0  0  0  0  0  0  0  0
  141.4383   72.9147  226.8180 H   0  0  0  0  0  0  0  0  0  0  0  0
  1  2  2  0
  2  3  1  0
  3  4  1  0
  4  5  1  0
  5  6  2  0
  5  7  1  0
  7  8  1  0
  8  9  1  0
  9 10  1  0
 10 11  1  0
 11 12  1  0
 12 13  2  0
 13 14  1  0
 14 15  1  0
 15 16  2  0
 16 17  1  0
 17 18  2  0
 18 19  1  0
 19 20  2  0
 14 21  2  0
 21 22  1  0
  2 23  1  0
 23 24  2  0
 24 25  1  0
 25 26  2  0
 26 27  1  0
 27 28  2  0
 28 29  1  0
 29 30  2  0
 30 31  1  0
 31 32  2  0
 11  7  1  0
 22 12  1  0
 32 23  1  0
 20 15  1  0
 31 26  1  0
  3 33  1  0
  4 34  1  0
  4 35  1  0
  8 36  1  0
  8 37  1  0
  9 38  1  0
  9 39  1  0
 10 40  1  0
 10 41  1  0
 11 42  1  1
 16 43  1  0
 17 44  1  0
 18 45  1  0
 19 46  1  0
 20 47  1  0
 21 48  1  0
 24 49  1  0
 25 50  1  0
 27 51  1  0
 28 52  1  0
 29 53  1  0
 30 54  1  0
M  END
>  <smiles>  (41) 
O=C(NCC(=O)N1CCC[C@@H]1c1nc(-c2ccccc2)co1)c1ccc2ccccc2n1

>  <score_type>  (41) 
oracle

>  <origin>  (41) 
autodockgpu

>  <m_score__min__energy>  (41) 
-9.6699999999999999

>  <m_primary>  (41) 
energy

>  <rmsd>  (41) 
3.33137585550334

>  <m_score__min__rmsd>  (41) 
3.33137585550334

>  <meeko>  (41) 
{"free_energy": -8.82, "intermolecular_energy": -10.61, "internal_energy": -1.76, "cluster_size": 21, "cluster_id": 2, "rank_in_cluster": 13}

>  <energy>  (41) 
-8.73

>  <cluster_rmsd>  (41) 
0.46

>  <cluster>  (41) 
2

$$$$

     RDKit          3D

 54 58  0  0  0  0  0  0  0  0999 V2000
  140.2710   73.2700  222.4250 O   0  0  0  0  0  0  0  0  0  0  0  0
  139.9480   72.0430  222.4820 C   0  0  0  0  0  0  0  0  0  0  0  0
  139.5170   71.4590  221.2440 N   0  0  0  0  0  0  0  0  0  0  0  0
  139.4400   72.1600  220.0070 C   0  0  0  0  0  0  0  0  0  0  0  0
  140.5980   72.7330  219.3900 C   0  0  0  0  0  0  0  0  0  0  0  0
  140.9220   72.1730  218.2340 O   0  0  0  0  0  0  0  0  0  0  0  0
  141.4900   73.7620  219.7290 N   0  0  0  0  0  0  0  0  0  0  0  0
  142.5530   73.4800  220.7500 C   0  0  0  0  0  0  0  0  0  0  0  0
  143.6720   74.4130  220.4410 C   0  0  0  0  0  0  0  0  0  0  0  0
  143.2250   75.2180  219.2400 C   0  0  0  0  0  0  0  0  0  0  0  0
  141.6930   75.1230  219.4040 C   0  0  2  0  0  0  0  0  0  0  0  0
  141.3520   76.0340  220.5690 C   0  0  0  0  0  0  0  0  0  0  0  0
  141.8380   77.2420  220.8470 N   0  0  0  0  0  0  0  0  0  0  0  0
  141.2770   77.7290  221.9800 C   0  0  0  0  0  0  0  0  0  0  0  0
  141.5200   79.0060  222.6410 C   0  0  0  0  0  0  0  0  0  0  0  0
  142.8040   79.3740  222.9900 C   0  0  0  0  0  0  0  0  0  0  0  0
  143.0740   80.5720  223.6140 C   0  0  0  0  0  0  0  0  0  0  0  0
  142.0150   81.4090  223.8900 C   0  0  0  0  0  0  0  0  0  0  0  0
  140.7430   81.0340  223.5390 C   0  0  0  0  0  0  0  0  0  0  0  0
  140.4510   79.8360  222.9110 C   0  0  0  0  0  0  0  0  0  0  0  0
  140.4070   76.7350  222.3880 C   0  0  0  0  0  0  0  0  0  0  0  0
  140.4900   75.7570  221.5180 O   0  0  0  0  0  0  0  0  0  0  0  0
  140.0090   71.2900  223.7060 C   0  0  0  0  0  0  0  0  0  0  0  0
  139.5700   69.9850  223.6990 C   0  0  0  0  0  0  0  0  0  0  0  0
  139.6040   69.2020  224.8510 C   0  0  0  0  0  0  0  0  0  0  0  0
  140.1010   69.8050  226.0020 C   0  0  0  0  0  0  0  0  0  0  0  0
  140.1810   69.1240  227.2030 C   0  0  0  0  0  0  0  0  0  0  0  0
  140.6830   69.7630  228.3270 C   0  0  0  0  0  0  0  0  0  0  0  0
  141.1150   71.0760  228.2960 C   0  0  0  0  0  0  0  0  0  0  0  0
  141.0340   71.7550  227.0970 C   0  0  0  0  0  0  0  0  0  0  0  0
  140.5310   71.1140  225.9710 C   0  0  0  0  0  0  0  0  0  0  0  0
  140.4930   71.8650  224.8410 N   0  0  0  0  0  0  0  0  0  0  0  0
  139.2570   70.4330  221.3290 H   0  0  0  0  0  0  0  0  0  0  0  0
  139.0195   71.4527  219.2771 H   0  0  0  0  0  0  0  0  0  0  0  0
  138.8571   73.0517  220.2809 H   0  0  0  0  0  0  0  0  0  0  0  0
  142.1688   73.6655  221.7639 H   0  0  0  0  0  0  0  0  0  0  0  0
  142.8800   72.4304  220.7138 H   0  0  0  0  0  0  0  0  0  0  0  0
  143.8630   75.0773  221.2967 H   0  0  0  0  0  0  0  0  0  0  0  0
  144.6055   73.8684  220.2360 H   0  0  0  0  0  0  0  0  0  0  0  0
  143.5769   76.2589  219.2931 H   0  0  0  0  0  0  0  0  0  0  0  0
  143.6093   74.8586  218.2740 H   0  0  0  0  0  0  0  0  0  0  0  0
  141.0848   75.4161  218.5356 H   0  0  0  0  0  0  0  0  0  0  0  0
  143.6356   78.6907  222.7632 H   0  0  0  0  0  0  0  0  0  0  0  0
  144.1031   80.8517  223.8836 H   0  0  0  0  0  0  0  0  0  0  0  0
  142.1887   82.3735  224.3895 H   0  0  0  0  0  0  0  0  0  0  0  0
  139.9139   81.7197  223.7681 H   0  0  0  0  0  0  0  0  0  0  0  0
  139.4210   79.5598  222.6412 H   0  0  0  0  0  0  0  0  0  0  0  0
  139.7629   76.7598  223.2794 H   0  0  0  0  0  0  0  0  0  0  0  0
  139.1844   69.5515  222.7644 H   0  0  0  0  0  0  0  0  0  0  0  0
  139.2552   68.1588  224.8504 H   0  0  0  0  0  0  0  0  0  0  0  0
  139.8472   68.0778  227.2667 H   0  0  0  0  0  0  0  0  0  0  0  0
  140.7393   69.2068  229.2743 H   0  0  0  0  0  0  0  0  0  0  0  0
  141.5109   71.5643  229.1987 H   0  0  0  0  0  0  0  0  0  0  0  0
  141.3669   72.8014  227.0328 H   0  0  0  0  0  0  0  0  0  0  0  0
  1  2  2  0
  2  3  1  0
  3  4  1  0
  4  5  1  0
  5  6  2  0
  5  7  1  0
  7  8  1  0
  8  9  1  0
  9 10  1  0
 10 11  1  0
 11 12  1  0
 12 13  2  0
 13 14  1  0
 14 15  1  0
 15 16  2  0
 16 17  1  0
 17 18  2  0
 18 19  1  0
 19 20  2  0
 14 21  2  0
 21 22  1  0
  2 23  1  0
 23 24  2  0
 24 25  1  0
 25 26  2  0
 26 27  1  0
 27 28  2  0
 28 29  1  0
 29 30  2  0
 30 31  1  0
 31 32  2  0
 11  7  1  0
 22 12  1  0
 32 23  1  0
 20 15  1  0
 31 26  1  0
  3 33  1  0
  4 34  1  0
  4 35  1  0
  8 36  1  0
  8 37  1  0
  9 38  1  0
  9 39  1  0
 10 40  1  0
 10 41  1  0
 11 42  1  6
 16 43  1  0
 17 44  1  0
 18 45  1  0
 19 46  1  0
 20 47  1  0
 21 48  1  0
 24 49  1  0
 25 50  1  0
 27 51  1  0
 28 52  1  0
 29 53  1  0
 30 54  1  0
M  END
>  <smiles>  (42) 
O=C(NCC(=O)N1CCC[C@@H]1c1nc(-c2ccccc2)co1)c1ccc2ccccc2n1

>  <score_type>  (42) 
oracle

>  <origin>  (42) 
autodockgpu

>  <m_score__min__energy>  (42) 
-9.6699999999999999

>  <m_primary>  (42) 
energy

>  <rmsd>  (42) 
3.1326941640840387

>  <m_score__min__rmsd>  (42) 
3.1326941640840387

>  <meeko>  (42) 
{"free_energy": -9.55, "intermolecular_energy": -11.34, "internal_energy": -1.72, "cluster_size": 25, "cluster_id": 1, "rank_in_cluster": 3}

>  <energy>  (42) 
-8.72

>  <cluster_rmsd>  (42) 
1.81

>  <cluster>  (42) 
2

$$$$

     RDKit          3D

 54 58  0  0  0  0  0  0  0  0999 V2000
  140.3100   73.3760  222.4100 O   0  0  0  0  0  0  0  0  0  0  0  0
  140.1790   72.1130  222.4490 C   0  0  0  0  0  0  0  0  0  0  0  0
  140.1850   71.4510  221.1760 N   0  0  0  0  0  0  0  0  0  0  0  0
  140.3250   72.1160  219.9240 C   0  0  0  0  0  0  0  0  0  0  0  0
  141.5580   72.7250  219.5250 C   0  0  0  0  0  0  0  0  0  0  0  0
  142.3980   71.8930  218.9280 O   0  0  0  0  0  0  0  0  0  0  0  0
  142.0980   74.0160  219.6240 N   0  0  0  0  0  0  0  0  0  0  0  0
  143.4060   74.1930  220.3370 C   0  0  0  0  0  0  0  0  0  0  0  0
  144.0280   75.4120  219.7510 C   0  0  0  0  0  0  0  0  0  0  0  0
  143.0560   75.9150  218.7050 C   0  0  0  0  0  0  0  0  0  0  0  0
  141.7380   75.3340  219.2580 C   0  0  2  0  0  0  0  0  0  0  0  0
  141.3980   76.1790  220.4710 C   0  0  0  0  0  0  0  0  0  0  0  0
  141.8410   77.3950  220.7850 N   0  0  0  0  0  0  0  0  0  0  0  0
  141.2990   77.8090  221.9560 C   0  0  0  0  0  0  0  0  0  0  0  0
  141.5090   79.0670  222.6630 C   0  0  0  0  0  0  0  0  0  0  0  0
  142.7870   79.4720  222.9920 C   0  0  0  0  0  0  0  0  0  0  0  0
  143.0270   80.6540  223.6590 C   0  0  0  0  0  0  0  0  0  0  0  0
  141.9440   81.4350  223.9970 C   0  0  0  0  0  0  0  0  0  0  0  0
  140.6790   81.0230  223.6650 C   0  0  0  0  0  0  0  0  0  0  0  0
  140.4170   79.8420  222.9950 C   0  0  0  0  0  0  0  0  0  0  0  0
  140.4860   76.7620  222.3480 C   0  0  0  0  0  0  0  0  0  0  0  0
  140.5820   75.8250  221.4340 O   0  0  0  0  0  0  0  0  0  0  0  0
  140.0360   71.3950  223.6870 C   0  0  0  0  0  0  0  0  0  0  0  0
  139.2870   70.2400  223.6960 C   0  0  0  0  0  0  0  0  0  0  0  0
  139.1100   69.4990  224.8610 C   0  0  0  0  0  0  0  0  0  0  0  0
  139.7270   69.9830  226.0100 C   0  0  0  0  0  0  0  0  0  0  0  0
  139.6200   69.3300  227.2240 C   0  0  0  0  0  0  0  0  0  0  0  0
  140.2520   69.8480  228.3450 C   0  0  0  0  0  0  0  0  0  0  0  0
  140.9970   71.0120  228.2990 C   0  0  0  0  0  0  0  0  0  0  0  0
  141.1030   71.6630  227.0860 C   0  0  0  0  0  0  0  0  0  0  0  0
  140.4700   71.1430  225.9640 C   0  0  0  0  0  0  0  0  0  0  0  0
  140.6340   71.8560  224.8200 N   0  0  0  0  0  0  0  0  0  0  0  0
  140.0760   70.3980  221.2470 H   0  0  0  0  0  0  0  0  0  0  0  0
  140.0841   71.3717  219.1507 H   0  0  0  0  0  0  0  0  0  0  0  0
  139.6652   72.9873  220.0487 H   0  0  0  0  0  0  0  0  0  0  0  0
  143.2385   74.3296  221.4156 H   0  0  0  0  0  0  0  0  0  0  0  0
  144.0536   73.3119  220.2178 H   0  0  0  0  0  0  0  0  0  0  0  0
  144.1808   76.1746  220.5288 H   0  0  0  0  0  0  0  0  0  0  0  0
  145.0125   75.1910  219.3129 H   0  0  0  0  0  0  0  0  0  0  0  0
  143.0322   77.0140  218.6655 H   0  0  0  0  0  0  0  0  0  0  0  0
  143.2942   75.6193  217.6726 H   0  0  0  0  0  0  0  0  0  0  0  0
  140.8754   75.3322  218.5754 H   0  0  0  0  0  0  0  0  0  0  0  0
  143.6382   78.8331  222.7139 H   0  0  0  0  0  0  0  0  0  0  0  0
  144.0513   80.9639  223.9134 H   0  0  0  0  0  0  0  0  0  0  0  0
  142.0932   82.3851  224.5309 H   0  0  0  0  0  0  0  0  0  0  0  0
  139.8302   81.6639  223.9456 H   0  0  0  0  0  0  0  0  0  0  0  0
  139.3915   79.5365  222.7401 H   0  0  0  0  0  0  0  0  0  0  0  0
  139.8711   76.7216  223.2592 H   0  0  0  0  0  0  0  0  0  0  0  0
  138.8183   69.8952  222.7625 H   0  0  0  0  0  0  0  0  0  0  0  0
  138.5116   68.5761  224.8725 H   0  0  0  0  0  0  0  0  0  0  0  0
  139.0349   68.4017  227.3008 H   0  0  0  0  0  0  0  0  0  0  0  0
  140.1573   69.3149  229.3025 H   0  0  0  0  0  0  0  0  0  0  0  0
  141.4894   71.4067  229.1999 H   0  0  0  0  0  0  0  0  0  0  0  0
  141.6875   72.5916  227.0082 H   0  0  0  0  0  0  0  0  0  0  0  0
  1  2  2  0
  2  3  1  0
  3  4  1  0
  4  5  1  0
  5  6  2  0
  5  7  1  0
  7  8  1  0
  8  9  1  0
  9 10  1  0
 10 11  1  0
 11 12  1  0
 12 13  2  0
 13 14  1  0
 14 15  1  0
 15 16  2  0
 16 17  1  0
 17 18  2  0
 18 19  1  0
 19 20  2  0
 14 21  2  0
 21 22  1  0
  2 23  1  0
 23 24  2  0
 24 25  1  0
 25 26  2  0
 26 27  1  0
 27 28  2  0
 28 29  1  0
 29 30  2  0
 30 31  1  0
 31 32  2  0
 11  7  1  0
 22 12  1  0
 32 23  1  0
 20 15  1  0
 31 26  1  0
  3 33  1  0
  4 34  1  0
  4 35  1  0
  8 36  1  0
  8 37  1  0
  9 38  1  0
  9 39  1  0
 10 40  1  0
 10 41  1  0
 11 42  1  6
 16 43  1  0
 17 44  1  0
 18 45  1  0
 19 46  1  0
 20 47  1  0
 21 48  1  0
 24 49  1  0
 25 50  1  0
 27 51  1  0
 28 52  1  0
 29 53  1  0
 30 54  1  0
M  END
>  <smiles>  (43) 
O=C(NCC(=O)N1CCC[C@@H]1c1nc(-c2ccccc2)co1)c1ccc2ccccc2n1

>  <score_type>  (43) 
oracle

>  <origin>  (43) 
autodockgpu

>  <m_score__min__energy>  (43) 
-9.6699999999999999

>  <m_primary>  (43) 
energy

>  <rmsd>  (43) 
3.1825965523219533

>  <m_score__min__rmsd>  (43) 
3.1825965523219533

>  <meeko>  (43) 
{"free_energy": -9.62, "intermolecular_energy": -11.41, "internal_energy": -1.71, "cluster_size": 25, "cluster_id": 1, "rank_in_cluster": 2}

>  <energy>  (43) 
-8.72

>  <cluster_rmsd>  (43) 
0.78

>  <cluster>  (43) 
2

$$$$

     RDKit          3D

 54 58  0  0  0  0  0  0  0  0999 V2000
  140.4390   72.9250  222.6850 O   0  0  0  0  0  0  0  0  0  0  0  0
  139.8580   71.8480  223.0270 C   0  0  0  0  0  0  0  0  0  0  0  0
  138.9450   71.3050  222.0630 N   0  0  0  0  0  0  0  0  0  0  0  0
  138.6720   71.8910  220.7940 C   0  0  0  0  0  0  0  0  0  0  0  0
  137.7050   72.9360  220.6380 C   0  0  0  0  0  0  0  0  0  0  0  0
  136.6490   72.5860  219.9200 O   0  0  0  0  0  0  0  0  0  0  0  0
  137.6140   74.2680  221.0690 N   0  0  0  0  0  0  0  0  0  0  0  0
  137.3970   75.3400  220.0420 C   0  0  0  0  0  0  0  0  0  0  0  0
  136.7100   76.4530  220.7540 C   0  0  0  0  0  0  0  0  0  0  0  0
  136.5470   75.9940  222.1870 C   0  0  0  0  0  0  0  0  0  0  0  0
  137.7110   74.9860  222.2840 C   0  0  2  0  0  0  0  0  0  0  0  0
  138.9730   75.8260  222.3390 C   0  0  0  0  0  0  0  0  0  0  0  0
  139.1100   77.0910  222.7330 N   0  0  0  0  0  0  0  0  0  0  0  0
  140.4050   77.4790  222.6330 C   0  0  0  0  0  0  0  0  0  0  0  0
  140.9950   78.7730  222.9560 C   0  0  0  0  0  0  0  0  0  0  0  0
  142.3410   78.9940  222.7460 C   0  0  0  0  0  0  0  0  0  0  0  0
  142.9360   80.2020  223.0370 C   0  0  0  0  0  0  0  0  0  0  0  0
  142.1430   81.2030  223.5540 C   0  0  0  0  0  0  0  0  0  0  0  0
  140.8060   80.9730  223.7600 C   0  0  0  0  0  0  0  0  0  0  0  0
  140.1910   79.7680  223.4730 C   0  0  0  0  0  0  0  0  0  0  0  0
  141.0630   76.3640  222.1480 C   0  0  0  0  0  0  0  0  0  0  0  0
  140.1700   75.4160  221.9930 O   0  0  0  0  0  0  0  0  0  0  0  0
  140.1010   71.2160  224.2960 C   0  0  0  0  0  0  0  0  0  0  0  0
  140.8230   71.9030  225.2470 C   0  0  0  0  0  0  0  0  0  0  0  0
  141.0920   71.3480  226.4950 C   0  0  0  0  0  0  0  0  0  0  0  0
  140.5960   70.0690  226.7310 C   0  0  0  0  0  0  0  0  0  0  0  0
  140.8020   69.4190  227.9340 C   0  0  0  0  0  0  0  0  0  0  0  0
  140.2890   68.1450  228.1260 C   0  0  0  0  0  0  0  0  0  0  0  0
  139.5690   67.4850  227.1480 C   0  0  0  0  0  0  0  0  0  0  0  0
  139.3640   68.1350  225.9480 C   0  0  0  0  0  0  0  0  0  0  0  0
  139.8770   69.4120  225.7560 C   0  0  0  0  0  0  0  0  0  0  0  0
  139.6220   69.9660  224.5430 N   0  0  0  0  0  0  0  0  0  0  0  0
  138.4810   70.4050  222.3820 H   0  0  0  0  0  0  0  0  0  0  0  0
  139.6271   72.2969  220.4292 H   0  0  0  0  0  0  0  0  0  0  0  0
  138.2054   71.0579  220.2478 H   0  0  0  0  0  0  0  0  0  0  0  0
  138.3605   75.6821  219.6363 H   0  0  0  0  0  0  0  0  0  0  0  0
  136.7998   74.9728  219.1943 H   0  0  0  0  0  0  0  0  0  0  0  0
  137.3201   77.3674  220.7126 H   0  0  0  0  0  0  0  0  0  0  0  0
  135.7391   76.6875  220.2932 H   0  0  0  0  0  0  0  0  0  0  0  0
  136.6674   76.8252  222.8974 H   0  0  0  0  0  0  0  0  0  0  0  0
  135.5569   75.5807  222.4297 H   0  0  0  0  0  0  0  0  0  0  0  0
  137.7023   74.3042  223.1471 H   0  0  0  0  0  0  0  0  0  0  0  0
  142.9572   78.1813  222.3339 H   0  0  0  0  0  0  0  0  0  0  0  0
  144.0101   80.3622  222.8621 H   0  0  0  0  0  0  0  0  0  0  0  0
  142.5796   82.1821  223.8005 H   0  0  0  0  0  0  0  0  0  0  0  0
  140.1931   81.7873  224.1738 H   0  0  0  0  0  0  0  0  0  0  0  0
  139.1164   79.6109  223.6479 H   0  0  0  0  0  0  0  0  0  0  0  0
  142.1387   76.2862  221.9317 H   0  0  0  0  0  0  0  0  0  0  0  0
  141.1950   72.9119  225.0152 H   0  0  0  0  0  0  0  0  0  0  0  0
  141.6681   71.8933  227.2571 H   0  0  0  0  0  0  0  0  0  0  0  0
  141.3712   69.9111  228.7364 H   0  0  0  0  0  0  0  0  0  0  0  0
  140.4609   67.6426  229.0894 H   0  0  0  0  0  0  0  0  0  0  0  0
  139.1720   66.4738  227.3207 H   0  0  0  0  0  0  0  0  0  0  0  0
  138.7955   67.6431  225.1450 H   0  0  0  0  0  0  0  0  0  0  0  0
  1  2  2  0
  2  3  1  0
  3  4  1  0
  4  5  1  0
  5  6  2  0
  5  7  1  0
  7  8  1  0
  8  9  1  0
  9 10  1  0
 10 11  1  0
 11 12  1  0
 12 13  2  0
 13 14  1  0
 14 15  1  0
 15 16  2  0
 16 17  1  0
 17 18  2  0
 18 19  1  0
 19 20  2  0
 14 21  2  0
 21 22  1  0
  2 23  1  0
 23 24  2  0
 24 25  1  0
 25 26  2  0
 26 27  1  0
 27 28  2  0
 28 29  1  0
 29 30  2  0
 30 31  1  0
 31 32  2  0
 11  7  1  0
 22 12  1  0
 32 23  1  0
 20 15  1  0
 31 26  1  0
  3 33  1  0
  4 34  1  0
  4 35  1  0
  8 36  1  0
  8 37  1  0
  9 38  1  0
  9 39  1  0
 10 40  1  0
 10 41  1  0
 11 42  1  1
 16 43  1  0
 17 44  1  0
 18 45  1  0
 19 46  1  0
 20 47  1  0
 21 48  1  0
 24 49  1  0
 25 50  1  0
 27 51  1  0
 28 52  1  0
 29 53  1  0
 30 54  1  0
M  END
>  <smiles>  (44) 
O=C(NCC(=O)N1CCC[C@@H]1c1nc(-c2ccccc2)co1)c1ccc2ccccc2n1

>  <score_type>  (44) 
oracle

>  <origin>  (44) 
autodockgpu

>  <m_score__min__energy>  (44) 
-9.6699999999999999

>  <m_primary>  (44) 
energy

>  <rmsd>  (44) 
3.933720790668863

>  <m_score__min__rmsd>  (44) 
3.933720790668863

>  <meeko>  (44) 
{"free_energy": -9.11, "intermolecular_energy": -10.9, "internal_energy": -2.08, "cluster_size": 21, "cluster_id": 2, "rank_in_cluster": 2}

>  <energy>  (44) 
-8.68

>  <cluster_rmsd>  (44) 
1.38

>  <cluster>  (44) 
2

$$$$

     RDKit          3D

 54 58  0  0  0  0  0  0  0  0999 V2000
  138.5170   72.2680  222.6540 O   0  0  0  0  0  0  0  0  0  0  0  0
  139.5340   71.5320  222.8430 C   0  0  0  0  0  0  0  0  0  0  0  0
  140.5840   71.6660  221.8740 N   0  0  0  0  0  0  0  0  0  0  0  0
  140.5400   72.5490  220.7580 C   0  0  0  0  0  0  0  0  0  0  0  0
  141.0060   73.9000  220.8440 C   0  0  0  0  0  0  0  0  0  0  0  0
  140.7510   74.4810  222.0070 O   0  0  0  0  0  0  0  0  0  0  0  0
  141.6760   74.7700  219.9710 N   0  0  0  0  0  0  0  0  0  0  0  0
  143.1650   74.9020  220.0960 C   0  0  0  0  0  0  0  0  0  0  0  0
  143.6530   75.3010  218.7470 C   0  0  0  0  0  0  0  0  0  0  0  0
  142.4240   75.3920  217.8680 C   0  0  0  0  0  0  0  0  0  0  0  0
  141.3470   75.6760  218.9360 C   0  0  2  0  0  0  0  0  0  0  0  0
  141.5670   77.1160  219.3620 C   0  0  0  0  0  0  0  0  0  0  0  0
  141.6070   77.6190  220.5930 N   0  0  0  0  0  0  0  0  0  0  0  0
  141.8270   78.9560  220.5510 C   0  0  0  0  0  0  0  0  0  0  0  0
  141.9420   79.8960  221.6610 C   0  0  0  0  0  0  0  0  0  0  0  0
  142.6970   79.5710  222.7690 C   0  0  0  0  0  0  0  0  0  0  0  0
  142.8310   80.4320  223.8370 C   0  0  0  0  0  0  0  0  0  0  0  0
  142.1810   81.6440  223.7730 C   0  0  0  0  0  0  0  0  0  0  0  0
  141.4330   81.9570  222.6670 C   0  0  0  0  0  0  0  0  0  0  0  0
  141.2860   81.1080  221.5850 C   0  0  0  0  0  0  0  0  0  0  0  0
  141.9190   79.2480  219.2030 C   0  0  0  0  0  0  0  0  0  0  0  0
  141.7590   78.1240  218.5450 O   0  0  0  0  0  0  0  0  0  0  0  0
  139.6270   70.6250  223.9560 C   0  0  0  0  0  0  0  0  0  0  0  0
  139.0750   69.3690  223.8310 C   0  0  0  0  0  0  0  0  0  0  0  0
  139.1320   68.4450  224.8700 C   0  0  0  0  0  0  0  0  0  0  0  0
  139.7710   68.8530  226.0360 C   0  0  0  0  0  0  0  0  0  0  0  0
  139.8880   68.0180  227.1330 C   0  0  0  0  0  0  0  0  0  0  0  0
  140.5350   68.4670  228.2760 C   0  0  0  0  0  0  0  0  0  0  0  0
  141.0770   69.7350  228.3660 C   0  0  0  0  0  0  0  0  0  0  0  0
  140.9600   70.5670  227.2700 C   0  0  0  0  0  0  0  0  0  0  0  0
  140.3130   70.1180  226.1260 C   0  0  0  0  0  0  0  0  0  0  0  0
  140.2510   71.0090  225.1040 N   0  0  0  0  0  0  0  0  0  0  0  0
  141.4170   71.0370  222.0660 H   0  0  0  0  0  0  0  0  0  0  0  0
  141.1287   72.0697  219.9620 H   0  0  0  0  0  0  0  0  0  0  0  0
  139.4583   72.6853  220.6121 H   0  0  0  0  0  0  0  0  0  0  0  0
  143.4200   75.6724  220.8386 H   0  0  0  0  0  0  0  0  0  0  0  0
  143.6274   73.9620  220.4315 H   0  0  0  0  0  0  0  0  0  0  0  0
  144.1600   76.2759  218.7970 H   0  0  0  0  0  0  0  0  0  0  0  0
  144.3787   74.5756  218.3506 H   0  0  0  0  0  0  0  0  0  0  0  0
  142.5031   76.2131  217.1403 H   0  0  0  0  0  0  0  0  0  0  0  0
  142.2346   74.5053  217.2452 H   0  0  0  0  0  0  0  0  0  0  0  0
  140.2992   75.5550  218.6239 H   0  0  0  0  0  0  0  0  0  0  0  0
  143.2067   78.5967  222.8010 H   0  0  0  0  0  0  0  0  0  0  0  0
  143.4381   80.1594  224.7128 H   0  0  0  0  0  0  0  0  0  0  0  0
  142.2613   82.3584  224.6056 H   0  0  0  0  0  0  0  0  0  0  0  0
  140.9245   82.9320  222.6390 H   0  0  0  0  0  0  0  0  0  0  0  0
  140.6786   81.3840  220.7105 H   0  0  0  0  0  0  0  0  0  0  0  0
  142.0942   80.2407  218.7626 H   0  0  0  0  0  0  0  0  0  0  0  0
  138.5785   69.0905  222.8897 H   0  0  0  0  0  0  0  0  0  0  0  0
  138.6931   67.4410  224.7738 H   0  0  0  0  0  0  0  0  0  0  0  0
  139.4695   67.0013  227.0994 H   0  0  0  0  0  0  0  0  0  0  0  0
  140.6192   67.7906  229.1394 H   0  0  0  0  0  0  0  0  0  0  0  0
  141.5855   70.0710  229.2817 H   0  0  0  0  0  0  0  0  0  0  0  0
  141.3786   71.5837  227.3030 H   0  0  0  0  0  0  0  0  0  0  0  0
  1  2  2  0
  2  3  1  0
  3  4  1  0
  4  5  1  0
  5  6  2  0
  5  7  1  0
  7  8  1  0
  8  9  1  0
  9 10  1  0
 10 11  1  0
 11 12  1  0
 12 13  2  0
 13 14  1  0
 14 15  1  0
 15 16  2  0
 16 17  1  0
 17 18  2  0
 18 19  1  0
 19 20  2  0
 14 21  2  0
 21 22  1  0
  2 23  1  0
 23 24  2  0
 24 25  1  0
 25 26  2  0
 26 27  1  0
 27 28  2  0
 28 29  1  0
 29 30  2  0
 30 31  1  0
 31 32  2  0
 11  7  1  0
 22 12  1  0
 32 23  1  0
 20 15  1  0
 31 26  1  0
  3 33  1  0
  4 34  1  0
  4 35  1  0
  8 36  1  0
  8 37  1  0
  9 38  1  0
  9 39  1  0
 10 40  1  0
 10 41  1  0
 11 42  1  6
 16 43  1  0
 17 44  1  0
 18 45  1  0
 19 46  1  0
 20 47  1  0
 21 48  1  0
 24 49  1  0
 25 50  1  0
 27 51  1  0
 28 52  1  0
 29 53  1  0
 30 54  1  0
M  END
>  <smiles>  (45) 
O=C(NCC(=O)N1CCC[C@@H]1c1nc(-c2ccccc2)co1)c1ccc2ccccc2n1

>  <score_type>  (45) 
oracle

>  <origin>  (45) 
autodockgpu

>  <m_score__min__energy>  (45) 
-9.6699999999999999

>  <m_primary>  (45) 
energy

>  <rmsd>  (45) 
2.8220484383234545

>  <m_score__min__rmsd>  (45) 
2.8220484383234545

>  <meeko>  (45) 
{"free_energy": -9.15, "intermolecular_energy": -10.94, "internal_energy": -1.45, "cluster_size": 25, "cluster_id": 1, "rank_in_cluster": 11}

>  <energy>  (45) 
-8.51

>  <cluster_rmsd>  (45) 
1.13

>  <cluster>  (45) 
2

$$$$

     RDKit          3D

 54 58  0  0  0  0  0  0  0  0999 V2000
  140.6590   73.2810  222.4360 O   0  0  0  0  0  0  0  0  0  0  0  0
  140.1620   72.1140  222.4900 C   0  0  0  0  0  0  0  0  0  0  0  0
  139.6580   71.5970  221.2500 N   0  0  0  0  0  0  0  0  0  0  0  0
  139.6880   72.3030  220.0130 C   0  0  0  0  0  0  0  0  0  0  0  0
  140.9150   72.7610  219.4340 C   0  0  0  0  0  0  0  0  0  0  0  0
  141.4350   71.9240  218.5490 O   0  0  0  0  0  0  0  0  0  0  0  0
  141.7130   73.9040  219.5900 N   0  0  0  0  0  0  0  0  0  0  0  0
  142.9710   73.7950  220.4000 C   0  0  0  0  0  0  0  0  0  0  0  0
  143.8850   74.8470  219.8780 C   0  0  0  0  0  0  0  0  0  0  0  0
  143.1280   75.5460  218.7690 C   0  0  0  0  0  0  0  0  0  0  0  0
  141.6760   75.2670  219.2150 C   0  0  2  0  0  0  0  0  0  0  0  0
  141.4380   76.1710  220.4110 C   0  0  0  0  0  0  0  0  0  0  0  0
  141.8620   77.4170  220.6050 N   0  0  0  0  0  0  0  0  0  0  0  0
  141.4350   77.8800  221.8050 C   0  0  0  0  0  0  0  0  0  0  0  0
  141.6700   79.1850  222.4140 C   0  0  0  0  0  0  0  0  0  0  0  0
  141.3660   80.3390  221.7210 C   0  0  0  0  0  0  0  0  0  0  0  0
  141.5720   81.5890  222.2620 C   0  0  0  0  0  0  0  0  0  0  0  0
  142.1000   81.6630  223.5320 C   0  0  0  0  0  0  0  0  0  0  0  0
  142.3990   80.5110  224.2120 C   0  0  0  0  0  0  0  0  0  0  0  0
  142.1990   79.2470  223.6870 C   0  0  0  0  0  0  0  0  0  0  0  0
  140.7150   76.8310  222.3430 C   0  0  0  0  0  0  0  0  0  0  0  0
  140.7480   75.8460  221.4780 O   0  0  0  0  0  0  0  0  0  0  0  0
  140.1090   71.3600  223.7140 C   0  0  0  0  0  0  0  0  0  0  0  0
  139.5500   70.1020  223.6890 C   0  0  0  0  0  0  0  0  0  0  0  0
  139.4690   69.3210  224.8390 C   0  0  0  0  0  0  0  0  0  0  0  0
  139.9790   69.8750  226.0090 C   0  0  0  0  0  0  0  0  0  0  0  0
  139.9530   69.1900  227.2100 C   0  0  0  0  0  0  0  0  0  0  0  0
  140.4730   69.7810  228.3530 C   0  0  0  0  0  0  0  0  0  0  0  0
  141.0280   71.0470  228.3400 C   0  0  0  0  0  0  0  0  0  0  0  0
  141.0530   71.7290  227.1400 C   0  0  0  0  0  0  0  0  0  0  0  0
  140.5320   71.1370  225.9960 C   0  0  0  0  0  0  0  0  0  0  0  0
  140.6050   71.8870  224.8670 N   0  0  0  0  0  0  0  0  0  0  0  0
  139.2520   70.6200  221.3340 H   0  0  0  0  0  0  0  0  0  0  0  0
  139.2237   71.6402  219.2680 H   0  0  0  0  0  0  0  0  0  0  0  0
  139.1862   73.2471  220.2717 H   0  0  0  0  0  0  0  0  0  0  0  0
  142.7566   73.9685  221.4649 H   0  0  0  0  0  0  0  0  0  0  0  0
  143.4189   72.7937  220.3174 H   0  0  0  0  0  0  0  0  0  0  0  0
  144.1406   75.5608  220.6750 H   0  0  0  0  0  0  0  0  0  0  0  0
  144.8280   74.4152  219.5116 H   0  0  0  0  0  0  0  0  0  0  0  0
  143.3465   76.6237  218.7424 H   0  0  0  0  0  0  0  0  0  0  0  0
  143.3739   75.2024  217.7534 H   0  0  0  0  0  0  0  0  0  0  0  0
  140.8872   75.4498  218.4704 H   0  0  0  0  0  0  0  0  0  0  0  0
  140.9470   80.2584  220.7071 H   0  0  0  0  0  0  0  0  0  0  0  0
  141.3226   82.4995  221.6974 H   0  0  0  0  0  0  0  0  0  0  0  0
  142.2810   82.6425  223.9986 H   0  0  0  0  0  0  0  0  0  0  0  0
  142.8187   80.5959  225.2252 H   0  0  0  0  0  0  0  0  0  0  0  0
  142.4487   78.3385  224.2547 H   0  0  0  0  0  0  0  0  0  0  0  0
  140.2069   76.8234  223.3186 H   0  0  0  0  0  0  0  0  0  0  0  0
  139.1591   69.7054  222.7404 H   0  0  0  0  0  0  0  0  0  0  0  0
  139.0236   68.3153  224.8232 H   0  0  0  0  0  0  0  0  0  0  0  0
  139.5213   68.1794  227.2593 H   0  0  0  0  0  0  0  0  0  0  0  0
  140.4425   69.2235  229.3008 H   0  0  0  0  0  0  0  0  0  0  0  0
  141.4368   71.4967  229.2568 H   0  0  0  0  0  0  0  0  0  0  0  0
  141.4847   72.7395  227.0896 H   0  0  0  0  0  0  0  0  0  0  0  0
  1  2  2  0
  2  3  1  0
  3  4  1  0
  4  5  1  0
  5  6  2  0
  5  7  1  0
  7  8  1  0
  8  9  1  0
  9 10  1  0
 10 11  1  0
 11 12  1  0
 12 13  2  0
 13 14  1  0
 14 15  1  0
 15 16  2  0
 16 17  1  0
 17 18  2  0
 18 19  1  0
 19 20  2  0
 14 21  2  0
 21 22  1  0
  2 23  1  0
 23 24  2  0
 24 25  1  0
 25 26  2  0
 26 27  1  0
 27 28  2  0
 28 29  1  0
 29 30  2  0
 30 31  1  0
 31 32  2  0
 11  7  1  0
 22 12  1  0
 32 23  1  0
 20 15  1  0
 31 26  1  0
  3 33  1  0
  4 34  1  0
  4 35  1  0
  8 36  1  0
  8 37  1  0
  9 38  1  0
  9 39  1  0
 10 40  1  0
 10 41  1  0
 11 42  1  6
 16 43  1  0
 17 44  1  0
 18 45  1  0
 19 46  1  0
 20 47  1  0
 21 48  1  0
 24 49  1  0
 25 50  1  0
 27 51  1  0
 28 52  1  0
 29 53  1  0
 30 54  1  0
M  END
>  <smiles>  (46) 
O=C(NCC(=O)N1CCC[C@@H]1c1nc(-c2ccccc2)co1)c1ccc2ccccc2n1

>  <score_type>  (46) 
oracle

>  <origin>  (46) 
autodockgpu

>  <m_score__min__energy>  (46) 
-9.6699999999999999

>  <m_primary>  (46) 
energy

>  <rmsd>  (46) 
3.0568905099555157

>  <m_score__min__rmsd>  (46) 
3.0568905099555157

>  <meeko>  (46) 
{"free_energy": -9.44, "intermolecular_energy": -11.23, "internal_energy": -1.74, "cluster_size": 25, "cluster_id": 1, "rank_in_cluster": 5}

>  <energy>  (46) 
-8.37

>  <cluster_rmsd>  (46) 
1.43

>  <cluster>  (46) 
2

$$$$

     RDKit          3D

 54 58  0  0  0  0  0  0  0  0999 V2000
  139.9960   72.7390  222.9820 O   0  0  0  0  0  0  0  0  0  0  0  0
  139.4060   71.6150  223.0120 C   0  0  0  0  0  0  0  0  0  0  0  0
  138.5490   71.3370  221.8940 N   0  0  0  0  0  0  0  0  0  0  0  0
  138.3400   72.2240  220.8010 C   0  0  0  0  0  0  0  0  0  0  0  0
  137.3310   73.2400  220.8350 C   0  0  0  0  0  0  0  0  0  0  0  0
  136.1280   72.8130  220.4820 O   0  0  0  0  0  0  0  0  0  0  0  0
  137.3180   74.6060  221.1550 N   0  0  0  0  0  0  0  0  0  0  0  0
  137.2780   75.6030  220.0340 C   0  0  0  0  0  0  0  0  0  0  0  0
  136.6310   76.8210  220.5960 C   0  0  0  0  0  0  0  0  0  0  0  0
  136.3120   76.4970  222.0400 C   0  0  0  0  0  0  0  0  0  0  0  0
  137.3740   75.4120  222.3160 C   0  0  2  0  0  0  0  0  0  0  0  0
  138.6940   76.1540  222.4190 C   0  0  0  0  0  0  0  0  0  0  0  0
  138.9060   77.4280  222.7410 N   0  0  0  0  0  0  0  0  0  0  0  0
  140.2320   77.7060  222.7220 C   0  0  0  0  0  0  0  0  0  0  0  0
  140.9020   78.9700  223.0090 C   0  0  0  0  0  0  0  0  0  0  0  0
  142.2650   79.0000  223.2250 C   0  0  0  0  0  0  0  0  0  0  0  0
  142.9340   80.1730  223.4980 C   0  0  0  0  0  0  0  0  0  0  0  0
  142.1980   81.3370  223.5520 C   0  0  0  0  0  0  0  0  0  0  0  0
  140.8450   81.2960  223.3360 C   0  0  0  0  0  0  0  0  0  0  0  0
  140.1550   80.1290  223.0600 C   0  0  0  0  0  0  0  0  0  0  0  0
  140.8300   76.5120  222.3640 C   0  0  0  0  0  0  0  0  0  0  0  0
  139.8760   75.6280  222.1980 O   0  0  0  0  0  0  0  0  0  0  0  0
  139.5840   70.6830  224.0930 C   0  0  0  0  0  0  0  0  0  0  0  0
  139.0840   69.4080  223.9530 C   0  0  0  0  0  0  0  0  0  0  0  0
  139.2250   68.4590  224.9620 C   0  0  0  0  0  0  0  0  0  0  0  0
  139.8920   68.8640  226.1140 C   0  0  0  0  0  0  0  0  0  0  0  0
  140.0910   68.0060  227.1800 C   0  0  0  0  0  0  0  0  0  0  0  0
  140.7620   68.4530  228.3090 C   0  0  0  0  0  0  0  0  0  0  0  0
  141.2510   69.7410  228.4150 C   0  0  0  0  0  0  0  0  0  0  0  0
  141.0530   70.5960  227.3490 C   0  0  0  0  0  0  0  0  0  0  0  0
  140.3800   70.1490  226.2180 C   0  0  0  0  0  0  0  0  0  0  0  0
  140.2360   71.0640  225.2260 N   0  0  0  0  0  0  0  0  0  0  0  0
  138.0740   70.3890  221.9530 H   0  0  0  0  0  0  0  0  0  0  0  0
  139.2958   72.7434  220.6378 H   0  0  0  0  0  0  0  0  0  0  0  0
  137.9624   71.5469  220.0206 H   0  0  0  0  0  0  0  0  0  0  0  0
  138.2972   75.8345  219.6909 H   0  0  0  0  0  0  0  0  0  0  0  0
  136.7242   75.2144  219.1666 H   0  0  0  0  0  0  0  0  0  0  0  0
  137.3174   77.6787  220.5396 H   0  0  0  0  0  0  0  0  0  0  0  0
  135.7244   77.0906  220.0343 H   0  0  0  0  0  0  0  0  0  0  0  0
  136.4442   77.3723  222.6930 H   0  0  0  0  0  0  0  0  0  0  0  0
  135.2736   76.1846  222.2248 H   0  0  0  0  0  0  0  0  0  0  0  0
  137.2358   74.8060  223.2236 H   0  0  0  0  0  0  0  0  0  0  0  0
  142.8338   78.0596  223.1778 H   0  0  0  0  0  0  0  0  0  0  0  0
  144.0209   80.1803  223.6675 H   0  0  0  0  0  0  0  0  0  0  0  0
  142.6942   82.2948  223.7675 H   0  0  0  0  0  0  0  0  0  0  0  0
  140.2795   82.2382  223.3845 H   0  0  0  0  0  0  0  0  0  0  0  0
  139.0682   80.1253  222.8902 H   0  0  0  0  0  0  0  0  0  0  0  0
  141.9088   76.3359  222.2409 H   0  0  0  0  0  0  0  0  0  0  0  0
  138.5621   69.1332  223.0245 H   0  0  0  0  0  0  0  0  0  0  0  0
  138.8284   67.4387  224.8537 H   0  0  0  0  0  0  0  0  0  0  0  0
  139.7184   66.9721  227.1329 H   0  0  0  0  0  0  0  0  0  0  0  0
  140.9098   67.7581  229.1488 H   0  0  0  0  0  0  0  0  0  0  0  0
  141.7810   70.0745  229.3194 H   0  0  0  0  0  0  0  0  0  0  0  0
  141.4273   71.6293  227.3948 H   0  0  0  0  0  0  0  0  0  0  0  0
  1  2  2  0
  2  3  1  0
  3  4  1  0
  4  5  1  0
  5  6  2  0
  5  7  1  0
  7  8  1  0
  8  9  1  0
  9 10  1  0
 10 11  1  0
 11 12  1  0
 12 13  2  0
 13 14  1  0
 14 15  1  0
 15 16  2  0
 16 17  1  0
 17 18  2  0
 18 19  1  0
 19 20  2  0
 14 21  2  0
 21 22  1  0
  2 23  1  0
 23 24  2  0
 24 25  1  0
 25 26  2  0
 26 27  1  0
 27 28  2  0
 28 29  1  0
 29 30  2  0
 30 31  1  0
 31 32  2  0
 11  7  1  0
 22 12  1  0
 32 23  1  0
 20 15  1  0
 31 26  1  0
  3 33  1  0
  4 34  1  0
  4 35  1  0
  8 36  1  0
  8 37  1  0
  9 38  1  0
  9 39  1  0
 10 40  1  0
 10 41  1  0
 11 42  1  1
 16 43  1  0
 17 44  1  0
 18 45  1  0
 19 46  1  0
 20 47  1  0
 21 48  1  0
 24 49  1  0
 25 50  1  0
 27 51  1  0
 28 52  1  0
 29 53  1  0
 30 54  1  0
M  END
>  <smiles>  (47) 
O=C(NCC(=O)N1CCC[C@@H]1c1nc(-c2ccccc2)co1)c1ccc2ccccc2n1

>  <score_type>  (47) 
oracle

>  <origin>  (47) 
autodockgpu

>  <m_score__min__energy>  (47) 
-9.6699999999999999

>  <m_primary>  (47) 
energy

>  <rmsd>  (47) 
3.3635363074658615

>  <m_score__min__rmsd>  (47) 
3.3635363074658615

>  <meeko>  (47) 
{"free_energy": -8.91, "intermolecular_energy": -10.7, "internal_energy": -1.67, "cluster_size": 21, "cluster_id": 2, "rank_in_cluster": 9}

>  <energy>  (47) 
-8.73

>  <cluster_rmsd>  (47) 
0.0

>  <cluster>  (47) 
3

$$$$

     RDKit          3D

 54 58  0  0  0  0  0  0  0  0999 V2000
  140.6570   72.8640  222.0010 O   0  0  0  0  0  0  0  0  0  0  0  0
  139.8810   71.9040  222.3020 C   0  0  0  0  0  0  0  0  0  0  0  0
  138.9650   71.5040  221.2720 N   0  0  0  0  0  0  0  0  0  0  0  0
  138.8890   72.1070  219.9840 C   0  0  0  0  0  0  0  0  0  0  0  0
  138.4030   73.4420  219.8030 C   0  0  0  0  0  0  0  0  0  0  0  0
  137.9950   73.7010  218.5700 O   0  0  0  0  0  0  0  0  0  0  0  0
  138.2580   74.5610  220.6370 N   0  0  0  0  0  0  0  0  0  0  0  0
  137.5260   75.7590  220.1070 C   0  0  0  0  0  0  0  0  0  0  0  0
  136.9650   76.4530  221.2990 C   0  0  0  0  0  0  0  0  0  0  0  0
  137.3900   75.6340  222.4990 C   0  0  0  0  0  0  0  0  0  0  0  0
  138.6590   74.9620  221.9320 C   0  0  2  0  0  0  0  0  0  0  0  0
  139.7090   76.0560  221.8800 C   0  0  0  0  0  0  0  0  0  0  0  0
  139.8130   77.1420  222.6430 N   0  0  0  0  0  0  0  0  0  0  0  0
  140.8950   77.8740  222.2780 C   0  0  0  0  0  0  0  0  0  0  0  0
  141.3780   79.1290  222.8440 C   0  0  0  0  0  0  0  0  0  0  0  0
  142.7330   79.3750  222.9300 C   0  0  0  0  0  0  0  0  0  0  0  0
  143.2280   80.5480  223.4560 C   0  0  0  0  0  0  0  0  0  0  0  0
  142.3250   81.4850  223.9060 C   0  0  0  0  0  0  0  0  0  0  0  0
  140.9800   81.2300  223.8160 C   0  0  0  0  0  0  0  0  0  0  0  0
  140.4630   80.0610  223.2900 C   0  0  0  0  0  0  0  0  0  0  0  0
  141.4550   77.1640  221.2330 C   0  0  0  0  0  0  0  0  0  0  0  0
  140.7150   76.0980  221.0390 O   0  0  0  0  0  0  0  0  0  0  0  0
  139.9190   71.2610  223.5880 C   0  0  0  0  0  0  0  0  0  0  0  0
  139.3710   70.0040  223.7120 C   0  0  0  0  0  0  0  0  0  0  0  0
  139.3760   69.3280  224.9290 C   0  0  0  0  0  0  0  0  0  0  0  0
  139.9610   69.9840  226.0080 C   0  0  0  0  0  0  0  0  0  0  0  0
  140.0230   69.4090  227.2640 C   0  0  0  0  0  0  0  0  0  0  0  0
  140.6150   70.1000  228.3110 C   0  0  0  0  0  0  0  0  0  0  0  0
  141.1550   71.3620  228.1490 C   0  0  0  0  0  0  0  0  0  0  0  0
  141.0930   71.9350  226.8950 C   0  0  0  0  0  0  0  0  0  0  0  0
  140.5000   71.2430  225.8460 C   0  0  0  0  0  0  0  0  0  0  0  0
  140.4880   71.8900  224.6530 N   0  0  0  0  0  0  0  0  0  0  0  0
  138.3340   70.7000  221.5580 H   0  0  0  0  0  0  0  0  0  0  0  0
  139.9101   72.0920  219.5752 H   0  0  0  0  0  0  0  0  0  0  0  0
  138.1101   71.5066  219.4912 H   0  0  0  0  0  0  0  0  0  0  0  0
  138.2179   76.4228  219.5679 H   0  0  0  0  0  0  0  0  0  0  0  0
  136.7359   75.4694  219.3985 H   0  0  0  0  0  0  0  0  0  0  0  0
  137.3679   77.4740  221.3713 H   0  0  0  0  0  0  0  0  0  0  0  0
  135.8700   76.5374  221.2370 H   0  0  0  0  0  0  0  0  0  0  0  0
  137.6184   76.2702  223.3668 H   0  0  0  0  0  0  0  0  0  0  0  0
  136.6273   74.9373  222.8769 H   0  0  0  0  0  0  0  0  0  0  0  0
  139.0623   74.1110  222.5005 H   0  0  0  0  0  0  0  0  0  0  0  0
  143.4383   78.6124  222.5681 H   0  0  0  0  0  0  0  0  0  0  0  0
  144.3112   80.7305  223.5147 H   0  0  0  0  0  0  0  0  0  0  0  0
  142.6803   82.4333  224.3356 H   0  0  0  0  0  0  0  0  0  0  0  0
  140.2778   81.9942  224.1807 H   0  0  0  0  0  0  0  0  0  0  0  0
  139.3792   79.8829  223.2300 H   0  0  0  0  0  0  0  0  0  0  0  0
  142.3565   77.4418  220.6672 H   0  0  0  0  0  0  0  0  0  0  0  0
  138.9198   69.5239  222.8311 H   0  0  0  0  0  0  0  0  0  0  0  0
  138.9388   68.3240  225.0327 H   0  0  0  0  0  0  0  0  0  0  0  0
  139.6039   68.4060  227.4325 H   0  0  0  0  0  0  0  0  0  0  0  0
  140.6561   69.6277  229.3036 H   0  0  0  0  0  0  0  0  0  0  0  0
  141.6195   71.8929  228.9930 H   0  0  0  0  0  0  0  0  0  0  0  0
  141.5123   72.9378  226.7262 H   0  0  0  0  0  0  0  0  0  0  0  0
  1  2  2  0
  2  3  1  0
  3  4  1  0
  4  5  1  0
  5  6  2  0
  5  7  1  0
  7  8  1  0
  8  9  1  0
  9 10  1  0
 10 11  1  0
 11 12  1  0
 12 13  2  0
 13 14  1  0
 14 15  1  0
 15 16  2  0
 16 17  1  0
 17 18  2  0
 18 19  1  0
 19 20  2  0
 14 21  2  0
 21 22  1  0
  2 23  1  0
 23 24  2  0
 24 25  1  0
 25 26  2  0
 26 27  1  0
 27 28  2  0
 28 29  1  0
 29 30  2  0
 30 31  1  0
 31 32  2  0
 11  7  1  0
 22 12  1  0
 32 23  1  0
 20 15  1  0
 31 26  1  0
  3 33  1  0
  4 34  1  0
  4 35  1  0
  8 36  1  0
  8 37  1  0
  9 38  1  0
  9 39  1  0
 10 40  1  0
 10 41  1  0
 11 42  1  1
 16 43  1  0
 17 44  1  0
 18 45  1  0
 19 46  1  0
 20 47  1  0
 21 48  1  0
 24 49  1  0
 25 50  1  0
 27 51  1  0
 28 52  1  0
 29 53  1  0
 30 54  1  0
M  END
>  <smiles>  (48) 
O=C(NCC(=O)N1CCC[C@@H]1c1nc(-c2ccccc2)co1)c1ccc2ccccc2n1

>  <score_type>  (48) 
oracle

>  <origin>  (48) 
autodockgpu

>  <m_score__min__energy>  (48) 
-9.6699999999999999

>  <m_primary>  (48) 
energy

>  <rmsd>  (48) 
3.3082696062491346

>  <m_score__min__rmsd>  (48) 
3.3082696062491346

>  <meeko>  (48) 
{"free_energy": -8.75, "intermolecular_energy": -10.54, "internal_energy": -1.79, "cluster_size": 25, "cluster_id": 1, "rank_in_cluster": 19}

>  <energy>  (48) 
-8.68

>  <cluster_rmsd>  (48) 
0.41

>  <cluster>  (48) 
3

$$$$

     RDKit          3D

 54 58  0  0  0  0  0  0  0  0999 V2000
  137.5520   69.3610  222.2880 O   0  0  0  0  0  0  0  0  0  0  0  0
  137.9860   70.2230  223.1140 C   0  0  0  0  0  0  0  0  0  0  0  0
  137.6960   71.5910  222.7900 N   0  0  0  0  0  0  0  0  0  0  0  0
  136.9740   72.0080  221.6360 C   0  0  0  0  0  0  0  0  0  0  0  0
  137.3270   73.1920  220.9120 C   0  0  0  0  0  0  0  0  0  0  0  0
  137.7570   72.9590  219.6810 O   0  0  0  0  0  0  0  0  0  0  0  0
  137.3290   74.5640  221.2050 N   0  0  0  0  0  0  0  0  0  0  0  0
  137.2920   75.5400  220.0660 C   0  0  0  0  0  0  0  0  0  0  0  0
  136.6620   76.7750  220.6080 C   0  0  0  0  0  0  0  0  0  0  0  0
  136.3480   76.4820  222.0600 C   0  0  0  0  0  0  0  0  0  0  0  0
  137.4020   75.3920  222.3500 C   0  0  2  0  0  0  0  0  0  0  0  0
  138.7300   76.1220  222.4300 C   0  0  0  0  0  0  0  0  0  0  0  0
  138.9560   77.4010  222.7190 N   0  0  0  0  0  0  0  0  0  0  0  0
  140.2850   77.6650  222.6890 C   0  0  0  0  0  0  0  0  0  0  0  0
  140.9690   78.9290  222.9410 C   0  0  0  0  0  0  0  0  0  0  0  0
  140.3910   80.1200  222.5500 C   0  0  0  0  0  0  0  0  0  0  0  0
  141.0040   81.3340  222.7710 C   0  0  0  0  0  0  0  0  0  0  0  0
  142.2300   81.3320  223.3990 C   0  0  0  0  0  0  0  0  0  0  0  0
  142.7950   80.1430  223.7830 C   0  0  0  0  0  0  0  0  0  0  0  0
  142.1960   78.9150  223.5710 C   0  0  0  0  0  0  0  0  0  0  0  0
  140.8690   76.4560  222.3610 C   0  0  0  0  0  0  0  0  0  0  0  0
  139.9050   75.5780  222.2200 O   0  0  0  0  0  0  0  0  0  0  0  0
  138.7200   69.8530  224.2940 C   0  0  0  0  0  0  0  0  0  0  0  0
  138.8630   68.5150  224.5880 C   0  0  0  0  0  0  0  0  0  0  0  0
  139.5620   68.0900  225.7150 C   0  0  0  0  0  0  0  0  0  0  0  0
  140.1050   69.0820  226.5250 C   0  0  0  0  0  0  0  0  0  0  0  0
  140.8190   68.7780  227.6690 C   0  0  0  0  0  0  0  0  0  0  0  0
  141.3430   69.7990  228.4480 C   0  0  0  0  0  0  0  0  0  0  0  0
  141.1800   71.1330  228.1220 C   0  0  0  0  0  0  0  0  0  0  0  0
  140.4670   71.4350  226.9790 C   0  0  0  0  0  0  0  0  0  0  0  0
  139.9420   70.4120  226.1990 C   0  0  0  0  0  0  0  0  0  0  0  0
  139.2590   70.8110  225.0970 N   0  0  0  0  0  0  0  0  0  0  0  0
  138.0720   72.2820  223.5020 H   0  0  0  0  0  0  0  0  0  0  0  0
  137.0337   71.1773  220.9174 H   0  0  0  0  0  0  0  0  0  0  0  0
  135.9944   72.2763  222.0583 H   0  0  0  0  0  0  0  0  0  0  0  0
  138.3113   75.7540  219.7121 H   0  0  0  0  0  0  0  0  0  0  0  0
  136.7281   75.1409  219.2100 H   0  0  0  0  0  0  0  0  0  0  0  0
  137.3574   77.6239  220.5313 H   0  0  0  0  0  0  0  0  0  0  0  0
  135.7552   77.0439  220.0465 H   0  0  0  0  0  0  0  0  0  0  0  0
  136.4924   77.3683  222.6954 H   0  0  0  0  0  0  0  0  0  0  0  0
  135.3078   76.1835  222.2570 H   0  0  0  0  0  0  0  0  0  0  0  0
  137.2648   74.8054  223.2704 H   0  0  0  0  0  0  0  0  0  0  0  0
  139.4127   80.0993  222.0475 H   0  0  0  0  0  0  0  0  0  0  0  0
  140.5294   82.2750  222.4559 H   0  0  0  0  0  0  0  0  0  0  0  0
  142.7535   82.2801  223.5916 H   0  0  0  0  0  0  0  0  0  0  0  0
  143.7736   80.1674  224.2847 H   0  0  0  0  0  0  0  0  0  0  0  0
  142.6730   77.9759  223.8882 H   0  0  0  0  0  0  0  0  0  0  0  0
  141.9456   76.2651  222.2403 H   0  0  0  0  0  0  0  0  0  0  0  0
  138.4154   67.7660  223.9182 H   0  0  0  0  0  0  0  0  0  0  0  0
  139.6790   67.0224  225.9530 H   0  0  0  0  0  0  0  0  0  0  0  0
  140.9713   67.7284  227.9610 H   0  0  0  0  0  0  0  0  0  0  0  0
  141.9073   69.5388  229.3557 H   0  0  0  0  0  0  0  0  0  0  0  0
  141.6047   71.9277  228.7529 H   0  0  0  0  0  0  0  0  0  0  0  0
  140.3147   72.4843  226.6862 H   0  0  0  0  0  0  0  0  0  0  0  0
  1  2  2  0
  2  3  1  0
  3  4  1  0
  4  5  1  0
  5  6  2  0
  5  7  1  0
  7  8  1  0
  8  9  1  0
  9 10  1  0
 10 11  1  0
 11 12  1  0
 12 13  2  0
 13 14  1  0
 14 15  1  0
 15 16  2  0
 16 17  1  0
 17 18  2  0
 18 19  1  0
 19 20  2  0
 14 21  2  0
 21 22  1  0
  2 23  1  0
 23 24  2  0
 24 25  1  0
 25 26  2  0
 26 27  1  0
 27 28  2  0
 28 29  1  0
 29 30  2  0
 30 31  1  0
 31 32  2  0
 11  7  1  0
 22 12  1  0
 32 23  1  0
 20 15  1  0
 31 26  1  0
  3 33  1  0
  4 34  1  0
  4 35  1  0
  8 36  1  0
  8 37  1  0
  9 38  1  0
  9 39  1  0
 10 40  1  0
 10 41  1  0
 11 42  1  1
 16 43  1  0
 17 44  1  0
 18 45  1  0
 19 46  1  0
 20 47  1  0
 21 48  1  0
 24 49  1  0
 25 50  1  0
 27 51  1  0
 28 52  1  0
 29 53  1  0
 30 54  1  0
M  END
>  <smiles>  (49) 
O=C(NCC(=O)N1CCC[C@@H]1c1nc(-c2ccccc2)co1)c1ccc2ccccc2n1

>  <score_type>  (49) 
oracle

>  <origin>  (49) 
autodockgpu

>  <m_score__min__energy>  (49) 
-9.6699999999999999

>  <m_primary>  (49) 
energy

>  <rmsd>  (49) 
3.3188603891659616

>  <m_score__min__rmsd>  (49) 
3.3188603891659616

>  <meeko>  (49) 
{"free_energy": -8.8, "intermolecular_energy": -10.59, "internal_energy": -1.77, "cluster_size": 21, "cluster_id": 2, "rank_in_cluster": 14}

>  <energy>  (49) 
-8.55

>  <cluster_rmsd>  (49) 
0.76

>  <cluster>  (49) 
3

$$$$

     RDKit          3D

 54 58  0  0  0  0  0  0  0  0999 V2000
  141.0110   75.8010  218.9880 O   0  0  0  0  0  0  0  0  0  0  0  0
  141.8090   76.2280  219.8790 C   0  0  0  0  0  0  0  0  0  0  0  0
  142.7100   75.2520  220.4210 N   0  0  0  0  0  0  0  0  0  0  0  0
  142.7510   73.8850  220.0230 C   0  0  0  0  0  0  0  0  0  0  0  0
  141.9690   72.8830  220.6820 C   0  0  0  0  0  0  0  0  0  0  0  0
  142.6410   71.7750  220.9580 O   0  0  0  0  0  0  0  0  0  0  0  0
  140.6350   72.7940  221.1080 N   0  0  0  0  0  0  0  0  0  0  0  0
  140.0340   73.9650  221.8280 C   0  0  0  0  0  0  0  0  0  0  0  0
  138.5690   73.8920  221.5720 C   0  0  0  0  0  0  0  0  0  0  0  0
  138.3570   72.6700  220.7050 C   0  0  0  0  0  0  0  0  0  0  0  0
  139.5940   71.8370  221.1020 C   0  0  2  0  0  0  0  0  0  0  0  0
  139.3030   71.3170  222.4970 C   0  0  0  0  0  0  0  0  0  0  0  0
  140.1590   71.0800  223.4890 N   0  0  0  0  0  0  0  0  0  0  0  0
  139.5020   70.6210  224.5820 C   0  0  0  0  0  0  0  0  0  0  0  0
  140.0480   70.2390  225.8790 C   0  0  0  0  0  0  0  0  0  0  0  0
  140.5340   71.2030  226.7380 C   0  0  0  0  0  0  0  0  0  0  0  0
  141.0570   70.8830  227.9720 C   0  0  0  0  0  0  0  0  0  0  0  0
  141.0850   69.5550  228.3350 C   0  0  0  0  0  0  0  0  0  0  0  0
  140.5990   68.6040  227.4740 C   0  0  0  0  0  0  0  0  0  0  0  0
  140.0700   68.9050  226.2320 C   0  0  0  0  0  0  0  0  0  0  0  0
  138.1740   70.5880  224.1970 C   0  0  0  0  0  0  0  0  0  0  0  0
  138.1130   71.0110  222.9570 O   0  0  0  0  0  0  0  0  0  0  0  0
  141.8080   77.5980  220.3160 C   0  0  0  0  0  0  0  0  0  0  0  0
  141.8040   78.5930  219.3630 C   0  0  0  0  0  0  0  0  0  0  0  0
  141.8030   79.9390  219.7190 C   0  0  0  0  0  0  0  0  0  0  0  0
  141.8060   80.2260  221.0810 C   0  0  0  0  0  0  0  0  0  0  0  0
  141.8040   81.5260  221.5500 C   0  0  0  0  0  0  0  0  0  0  0  0
  141.8070   81.7670  222.9170 C   0  0  0  0  0  0  0  0  0  0  0  0
  141.8110   80.7420  223.8450 C   0  0  0  0  0  0  0  0  0  0  0  0
  141.8120   79.4440  223.3750 C   0  0  0  0  0  0  0  0  0  0  0  0
  141.8090   79.2040  222.0060 C   0  0  0  0  0  0  0  0  0  0  0  0
  141.8100   77.8960  221.6440 N   0  0  0  0  0  0  0  0  0  0  0  0
  143.3620   75.6440  221.1610 H   0  0  0  0  0  0  0  0  0  0  0  0
  142.4529   73.8626  218.9644 H   0  0  0  0  0  0  0  0  0  0  0  0
  143.7770   73.5945  220.2930 H   0  0  0  0  0  0  0  0  0  0  0  0
  140.2380   73.8968  222.9068 H   0  0  0  0  0  0  0  0  0  0  0  0
  140.4588   74.9169  221.4768 H   0  0  0  0  0  0  0  0  0  0  0  0
  138.0202   73.7881  222.5196 H   0  0  0  0  0  0  0  0  0  0  0  0
  138.2003   74.8040  221.0797 H   0  0  0  0  0  0  0  0  0  0  0  0
  137.4194   72.1514  220.9538 H   0  0  0  0  0  0  0  0  0  0  0  0
  138.2660   72.8776  219.6286 H   0  0  0  0  0  0  0  0  0  0  0  0
  139.8447   70.9855  220.4523 H   0  0  0  0  0  0  0  0  0  0  0  0
  140.5031   72.2582  226.4287 H   0  0  0  0  0  0  0  0  0  0  0  0
  141.4400   71.6636  228.6457 H   0  0  0  0  0  0  0  0  0  0  0  0
  141.4954   69.2579  229.3114 H   0  0  0  0  0  0  0  0  0  0  0  0
  140.6316   67.5499  227.7869 H   0  0  0  0  0  0  0  0  0  0  0  0
  139.6869   68.1222  225.5608 H   0  0  0  0  0  0  0  0  0  0  0  0
  137.3245   70.2660  224.8172 H   0  0  0  0  0  0  0  0  0  0  0  0
  141.8016   78.3180  218.2979 H   0  0  0  0  0  0  0  0  0  0  0  0
  141.8000   80.7364  218.9612 H   0  0  0  0  0  0  0  0  0  0  0  0
  141.8000   82.3677  220.8418 H   0  0  0  0  0  0  0  0  0  0  0  0
  141.8062   82.8076  223.2737 H   0  0  0  0  0  0  0  0  0  0  0  0
  141.8133   80.9543  224.9243 H   0  0  0  0  0  0  0  0  0  0  0  0
  141.8151   78.6016  224.0823 H   0  0  0  0  0  0  0  0  0  0  0  0
  1  2  2  0
  2  3  1  0
  3  4  1  0
  4  5  1  0
  5  6  2  0
  5  7  1  0
  7  8  1  0
  8  9  1  0
  9 10  1  0
 10 11  1  0
 11 12  1  0
 12 13  2  0
 13 14  1  0
 14 15  1  0
 15 16  2  0
 16 17  1  0
 17 18  2  0
 18 19  1  0
 19 20  2  0
 14 21  2  0
 21 22  1  0
  2 23  1  0
 23 24  2  0
 24 25  1  0
 25 26  2  0
 26 27  1  0
 27 28  2  0
 28 29  1  0
 29 30  2  0
 30 31  1  0
 31 32  2  0
 11  7  1  0
 22 12  1  0
 32 23  1  0
 20 15  1  0
 31 26  1  0
  3 33  1  0
  4 34  1  0
  4 35  1  0
  8 36  1  0
  8 37  1  0
  9 38  1  0
  9 39  1  0
 10 40  1  0
 10 41  1  0
 11 42  1  6
 16 43  1  0
 17 44  1  0
 18 45  1  0
 19 46  1  0
 20 47  1  0
 21 48  1  0
 24 49  1  0
 25 50  1  0
 27 51  1  0
 28 52  1  0
 29 53  1  0
 30 54  1  0
M  END
>  <smiles>  (50) 
O=C(NCC(=O)N1CCC[C@@H]1c1nc(-c2ccccc2)co1)c1ccc2ccccc2n1

>  <score_type>  (50) 
oracle

>  <origin>  (50) 
autodockgpu

>  <m_score__min__energy>  (50) 
-9.6699999999999999

>  <m_primary>  (50) 
energy

>  <rmsd>  (50) 
9.775789898757754

>  <m_score__min__rmsd>  (50) 
9.775789898757754

>  <meeko>  (50) 
{"free_energy": -8.56, "intermolecular_energy": -10.35, "internal_energy": -1.83, "cluster_size": 25, "cluster_id": 1, "rank_in_cluster": 22}

>  <energy>  (50) 
-8.56

>  <cluster_rmsd>  (50) 
0.0

>  <cluster>  (50) 
4

$$$$
