
     RDKit          3D

 51 54  0  0  0  0  0  0  0  0999 V2000
  139.0780   70.8220  221.4610 O   0  0  0  0  0  0  0  0  0  0  0  0
  139.3550   71.4920  222.5120 C   0  0  0  0  0  0  0  0  0  0  0  0
  139.4280   72.9150  222.4950 N   0  0  0  0  0  0  0  0  0  0  0  0
  139.1840   73.6320  221.2630 C   0  0  0  0  0  0  0  0  0  0  0  0
  139.4110   75.0660  221.4490 C   0  0  0  0  0  0  0  0  0  0  0  0
  138.5950   75.7010  222.1790 O   0  0  0  0  0  0  0  0  0  0  0  0
  140.5220   75.6810  220.8110 N   0  0  0  0  0  0  0  0  0  0  0  0
  141.7860   74.9870  220.6720 C   0  0  0  0  0  0  0  0  0  0  0  0
  142.8640   75.8330  220.0890 C   0  0  0  0  0  0  0  0  0  0  0  0
  142.4610   76.5950  218.8450 C   0  0  0  0  0  0  0  0  0  0  0  0
  141.0540   77.0860  218.8830 C   0  0  0  0  0  0  0  0  0  0  0  0
  140.4490   77.0430  220.2650 C   0  0  2  0  0  0  0  0  0  0  0  0
  141.0730   78.0200  221.1610 C   0  0  0  0  0  0  0  0  0  0  0  0
  141.0790   77.7260  222.5230 C   0  0  0  0  0  0  0  0  0  0  0  0
  141.6490   78.5990  223.4490 C   0  0  0  0  0  0  0  0  0  0  0  0
  142.2270   79.7840  223.0550 C   0  0  0  0  0  0  0  0  0  0  0  0
  142.9560   80.9160  224.1740 Cl  0  0  0  0  0  0  0  0  0  0  0  0
  142.2270   80.0850  221.7100 C   0  0  0  0  0  0  0  0  0  0  0  0
  141.6540   79.2050  220.7920 C   0  0  0  0  0  0  0  0  0  0  0  0
  139.6030   70.7880  223.7660 C   0  0  0  0  0  0  0  0  0  0  0  0
  139.3360   69.4300  223.8600 C   0  0  0  0  0  0  0  0  0  0  0  0
  139.5590   68.7180  225.0360 C   0  0  0  0  0  0  0  0  0  0  0  0
  140.0590   69.4090  226.1230 C   0  0  0  0  0  0  0  0  0  0  0  0
  140.2730   68.6870  227.2800 C   0  0  0  0  0  0  0  0  0  0  0  0
  140.7700   69.3680  228.3630 C   0  0  0  0  0  0  0  0  0  0  0  0
  141.0580   70.7300  228.3310 C   0  0  0  0  0  0  0  0  0  0  0  0
  140.8170   71.3920  227.1300 C   0  0  0  0  0  0  0  0  0  0  0  0
  140.3210   70.7600  226.0170 C   0  0  0  0  0  0  0  0  0  0  0  0
  140.0850   71.3900  224.8520 N   0  0  0  0  0  0  0  0  0  0  0  0
  139.6620   73.3980  223.4020 H   0  0  0  0  0  0  0  0  0  0  0  0
  139.8645   73.2560  220.4848 H   0  0  0  0  0  0  0  0  0  0  0  0
  138.1379   73.4743  220.9616 H   0  0  0  0  0  0  0  0  0  0  0  0
  142.1088   74.6477  221.6673 H   0  0  0  0  0  0  0  0  0  0  0  0
  141.6215   74.1480  219.9799 H   0  0  0  0  0  0  0  0  0  0  0  0
  143.1790   76.5612  220.8509 H   0  0  0  0  0  0  0  0  0  0  0  0
  143.6707   75.1482  219.7885 H   0  0  0  0  0  0  0  0  0  0  0  0
  143.1300   77.4612  218.7343 H   0  0  0  0  0  0  0  0  0  0  0  0
  142.5398   75.8987  217.9971 H   0  0  0  0  0  0  0  0  0  0  0  0
  141.0364   78.1261  218.5253 H   0  0  0  0  0  0  0  0  0  0  0  0
  140.4568   76.4201  218.2427 H   0  0  0  0  0  0  0  0  0  0  0  0
  139.3885   77.3234  220.1833 H   0  0  0  0  0  0  0  0  0  0  0  0
  140.6255   76.7875  222.8744 H   0  0  0  0  0  0  0  0  0  0  0  0
  141.6363   78.3349  224.5167 H   0  0  0  0  0  0  0  0  0  0  0  0
  142.6809   81.0235  221.3590 H   0  0  0  0  0  0  0  0  0  0  0  0
  141.6691   79.4739  219.7255 H   0  0  0  0  0  0  0  0  0  0  0  0
  138.9373   68.9011  222.9818 H   0  0  0  0  0  0  0  0  0  0  0  0
  139.3441   67.6409  225.0974 H   0  0  0  0  0  0  0  0  0  0  0  0
  140.0542   67.6102  227.3318 H   0  0  0  0  0  0  0  0  0  0  0  0
  140.9485   68.8141  229.2964 H   0  0  0  0  0  0  0  0  0  0  0  0
  141.4561   71.2568  229.2108 H   0  0  0  0  0  0  0  0  0  0  0  0
  141.0336   72.4688  227.0705 H   0  0  0  0  0  0  0  0  0  0  0  0
  1  2  2  0
  2  3  1  0
  3  4  1  0
  4  5  1  0
  5  6  2  0
  5  7  1  0
  7  8  1  0
  8  9  1  0
  9 10  1  0
 10 11  1  0
 11 12  1  0
 12 13  1  0
 13 14  2  0
 14 15  1  0
 15 16  2  0
 16 17  1  0
 16 18  1  0
 18 19  2  0
  2 20  1  0
 20 21  2  0
 21 22  1  0
 22 23  2  0
 23 24  1  0
 24 25  2  0
 25 26  1  0
 26 27  2  0
 27 28  1  0
 28 29  2  0
 12  7  1  0
 19 13  1  0
 29 20  1  0
 28 23  1  0
  3 30  1  0
  4 31  1  0
  4 32  1  0
  8 33  1  0
  8 34  1  0
  9 35  1  0
  9 36  1  0
 10 37  1  0
 10 38  1  0
 11 39  1  0
 11 40  1  0
 12 41  1  6
 14 42  1  0
 15 43  1  0
 18 44  1  0
 19 45  1  0
 21 46  1  0
 22 47  1  0
 24 48  1  0
 25 49  1  0
 26 50  1  0
 27 51  1  0
M  END
