
 55 59  0  0  0  0  0  0  0  0999 V2000
  141.1330   71.3320  228.3370 C   0  0  0  0  0  0  0  0  0  0  0  0
  141.4760   72.1650  227.2700 C   0  0  0  0  0  0  0  0  0  0  0  0
  141.0490   71.8700  225.9840 C   0  0  0  0  0  0  0  0  0  0  0  0
  140.2910   70.7780  225.7050 C   0  0  0  0  0  0  0  0  0  0  0  0
  139.7850   70.3940  224.3710 C   0  0  0  0  0  0  0  0  0  0  0  0
  139.2550   71.5500  223.5750 C   0  0  0  0  0  0  0  0  0  0  0  0
  139.6760   71.4490  222.2180 N   0  0  0  0  0  0  0  0  0  0  0  0
  140.7010   72.3600  221.7770 C   0  0  0  0  0  0  0  0  0  0  0  0
  141.9280   71.9050  221.5330 N   0  0  0  0  0  0  0  0  0  0  0  0
  142.9600   72.6980  221.1130 C   0  0  0  0  0  0  0  0  0  0  0  0
  144.2530   72.1680  220.8710 N   0  0  0  0  0  0  0  0  0  0  0  0
  145.3860   72.9100  220.4260 C   0  0  0  0  0  0  0  0  0  0  0  0
  146.3320   73.2630  221.5780 C   0  0  0  0  0  0  0  0  0  0  0  0
  145.6760   74.3020  220.7530 C   0  0  0  0  0  0  0  0  0  0  0  0
  142.6460   74.0010  220.9560 N   0  0  0  0  0  0  0  0  0  0  0  0
  141.4440   74.5220  221.1810 C   0  0  0  0  0  0  0  0  0  0  0  0
  141.1190   75.9000  221.0190 N   0  0  0  0  0  0  0  0  0  0  0  0
  141.3640   76.5990  219.7810 C   0  0  0  0  0  0  0  0  0  0  0  0
  142.0040   77.9430  219.9480 C   0  0  0  0  0  0  0  0  0  0  0  0
  141.7480   78.5740  221.2540 C   0  0  0  0  0  0  0  0  0  0  0  0
  142.2370   79.8490  221.4550 C   0  0  0  0  0  0  0  0  0  0  0  0
  142.0270   80.4850  222.6580 C   0  0  0  0  0  0  0  0  0  0  0  0
  141.3330   79.9070  223.7080 C   0  0  0  0  0  0  0  0  0  0  0  0
  140.8360   78.6150  223.5050 C   0  0  0  0  0  0  0  0  0  0  0  0
  141.0610   77.9940  222.2880 C   0  0  0  0  0  0  0  0  0  0  0  0
  140.5270   76.6370  222.1060 C   0  0  0  0  0  0  0  0  0  0  0  0
  140.4720   73.6700  221.5970 N   0  0  0  0  0  0  0  0  0  0  0  0
  139.9460   69.9450  226.7670 C   0  0  0  0  0  0  0  0  0  0  0  0
  140.3670   70.2270  228.0630 C   0  0  0  0  0  0  0  0  0  0  0  0
  141.4654   71.5540  229.3618 H   0  0  0  0  0  0  0  0  0  0  0  0
  142.0886   73.0606  227.4507 H   0  0  0  0  0  0  0  0  0  0  0  0
  141.3338   72.5432  225.1620 H   0  0  0  0  0  0  0  0  0  0  0  0
  140.6080   69.9312  223.8067 H   0  0  0  0  0  0  0  0  0  0  0  0
  138.9463   69.7005  224.5311 H   0  0  0  0  0  0  0  0  0  0  0  0
  138.1558   71.5450  223.6154 H   0  0  0  0  0  0  0  0  0  0  0  0
  139.6431   72.4867  224.0017 H   0  0  0  0  0  0  0  0  0  0  0  0
  139.3280   70.7890  221.4980 H   0  0  0  0  0  0  0  0  0  0  0  0
  144.3540   71.1240  221.0450 H   0  0  0  0  0  0  0  0  0  0  0  0
  145.3697   72.4061  219.4483 H   0  0  0  0  0  0  0  0  0  0  0  0
  146.0212   73.1034  222.6210 H   0  0  0  0  0  0  0  0  0  0  0  0
  147.3662   73.0116  221.8561 H   0  0  0  0  0  0  0  0  0  0  0  0
  144.8892   74.9297  221.1968 H   0  0  0  0  0  0  0  0  0  0  0  0
  146.0475   75.1587  220.1715 H   0  0  0  0  0  0  0  0  0  0  0  0
  142.0253   75.9774  219.1595 H   0  0  0  0  0  0  0  0  0  0  0  0
  140.3815   76.7734  219.3180 H   0  0  0  0  0  0  0  0  0  0  0  0
  143.0911   77.8249  219.8288 H   0  0  0  0  0  0  0  0  0  0  0  0
  141.5615   78.6014  219.1860 H   0  0  0  0  0  0  0  0  0  0  0  0
  142.7944   80.3569  220.6542 H   0  0  0  0  0  0  0  0  0  0  0  0
  142.4294   81.5000  222.7914 H   0  0  0  0  0  0  0  0  0  0  0  0
  141.1795   80.4395  224.6582 H   0  0  0  0  0  0  0  0  0  0  0  0
  140.2754   78.1007  224.2995 H   0  0  0  0  0  0  0  0  0  0  0  0
  140.6975   76.0738  223.0354 H   0  0  0  0  0  0  0  0  0  0  0  0
  139.4610   76.7520  221.8604 H   0  0  0  0  0  0  0  0  0  0  0  0
  139.3322   69.0519  226.5784 H   0  0  0  0  0  0  0  0  0  0  0  0
  140.0805   69.5518  228.8828 H   0  0  0  0  0  0  0  0  0  0  0  0
  1  2  2  0
  2  3  1  0
  3  4  2  0
  4  5  1  0
  5  6  1  0
  6  7  1  0
  7  8  1  0
  8  9  2  0
  9 10  1  0
 10 11  1  0
 11 12  1  0
 12 13  1  0
 13 14  1  0
 10 15  2  0
 15 16  1  0
 16 17  1  0
 17 18  1  0
 18 19  1  0
 19 20  1  0
 20 21  2  0
 21 22  1  0
 22 23  2  0
 23 24  1  0
 24 25  2  0
 25 26  1  0
 16 27  2  0
  4 28  1  0
 28 29  2  0
 29  1  1  0
 27  8  1  0
 14 12  1  0
 26 17  1  0
 25 20  1  0
  1 30  1  0
  2 31  1  0
  3 32  1  0
  5 33  1  0
  5 34  1  0
  6 35  1  0
  6 36  1  0
  7 37  1  0
 11 38  1  0
 12 39  1  0
 13 40  1  0
 13 41  1  0
 14 42  1  0
 14 43  1  0
 18 44  1  0
 18 45  1  0
 19 46  1  0
 19 47  1  0
 21 48  1  0
 22 49  1  0
 23 50  1  0
 24 51  1  0
 26 52  1  0
 26 53  1  0
 28 54  1  0
 29 55  1  0
M  END
