
 74 79  0  0  0  0  0  0  0  0999 V2000
  131.9270   73.2680  225.6480 C   0  0  0  0  0  0  0  0  0  0  0  0
  133.4860   73.6630  226.3960 S   0  0  0  0  0  0  0  0  0  0  0  0
  133.3150   74.9100  227.2130 O   0  0  0  0  0  0  0  0  0  0  0  0
  133.8630   72.5140  227.2980 O   0  0  0  0  0  0  0  0  0  0  0  0
  134.6700   73.8750  225.1570 N   0  0  0  0  0  0  0  0  0  0  0  0
  134.3090   75.0230  224.3650 C   0  0  0  0  0  0  0  0  0  0  0  0
  135.3590   75.3680  223.3410 C   0  0  0  0  0  0  0  0  0  0  0  0
  136.0730   74.1160  222.9270 C   0  0  0  0  0  0  0  0  0  0  0  0
  136.7220   74.1900  221.6570 N   0  0  0  0  0  0  0  0  0  0  0  0
  138.0680   74.6700  221.5880 C   0  0  0  0  0  0  0  0  0  0  0  0
  139.0940   73.8260  221.3530 N   0  0  0  0  0  0  0  0  0  0  0  0
  140.3750   74.2580  221.2830 C   0  0  0  0  0  0  0  0  0  0  0  0
  141.4260   73.3290  221.0330 N   0  0  0  0  0  0  0  0  0  0  0  0
  142.6810   73.8300  220.5220 C   0  0  0  0  0  0  0  0  0  0  0  0
  143.7780   72.8440  220.8380 C   0  0  0  0  0  0  0  0  0  0  0  0
  143.3830   71.5530  220.3090 N   0  0  0  0  0  0  0  0  0  0  0  0
  144.3190   70.7400  219.5810 C   0  0  0  0  0  0  0  0  0  0  0  0
  145.0510   71.2100  218.5280 C   0  0  0  0  0  0  0  0  0  0  0  0
  145.9540   70.4490  217.8140 C   0  0  0  0  0  0  0  0  0  0  0  0
  146.1040   69.1270  218.2180 C   0  0  0  0  0  0  0  0  0  0  0  0
  145.3480   68.6880  219.2870 C   0  0  0  0  0  0  0  0  0  0  0  0
  144.4820   69.4630  219.9490 N   0  0  0  0  0  0  0  0  0  0  0  0
  142.0430   71.0170  220.4800 C   0  0  0  0  0  0  0  0  0  0  0  0
  141.1860   71.9240  221.3020 C   0  0  0  0  0  0  0  0  0  0  0  0
  140.6270   75.5750  221.4560 N   0  0  0  0  0  0  0  0  0  0  0  0
  139.6260   76.4680  221.6950 C   0  0  0  0  0  0  0  0  0  0  0  0
  139.9030   77.8520  221.8750 N   0  0  0  0  0  0  0  0  0  0  0  0
  138.8480   78.6590  222.4570 C   0  0  0  0  0  0  0  0  0  0  0  0
  139.2530   80.0730  222.7180 C   0  0  0  0  0  0  0  0  0  0  0  0
  140.7040   80.2050  222.9990 C   0  0  0  0  0  0  0  0  0  0  0  0
  141.1170   81.1920  223.8890 C   0  0  0  0  0  0  0  0  0  0  0  0
  142.4780   81.3370  224.1700 C   0  0  0  0  0  0  0  0  0  0  0  0
  143.4320   80.5280  223.5910 C   0  0  0  0  0  0  0  0  0  0  0  0
  143.0190   79.5480  222.7070 C   0  0  0  0  0  0  0  0  0  0  0  0
  141.6640   79.4040  222.4270 C   0  0  0  0  0  0  0  0  0  0  0  0
  141.1850   78.3570  221.4780 C   0  0  0  0  0  0  0  0  0  0  0  0
  138.3790   75.9670  221.7500 N   0  0  0  0  0  0  0  0  0  0  0  0
  135.0830   72.9760  222.9190 C   0  0  0  0  0  0  0  0  0  0  0  0
  134.7070   72.6650  224.3640 C   0  0  0  0  0  0  0  0  0  0  0  0
  131.1808   73.0789  226.4337 H   0  0  0  0  0  0  0  0  0  0  0  0
  131.5961   74.1107  225.0232 H   0  0  0  0  0  0  0  0  0  0  0  0
  132.0373   72.3694  225.0232 H   0  0  0  0  0  0  0  0  0  0  0  0
  133.3641   74.8096  223.8439 H   0  0  0  0  0  0  0  0  0  0  0  0
  134.2093   75.8816  225.0453 H   0  0  0  0  0  0  0  0  0  0  0  0
  134.8803   75.8262  222.4630 H   0  0  0  0  0  0  0  0  0  0  0  0
  136.0787   76.0783  223.7740 H   0  0  0  0  0  0  0  0  0  0  0  0
  136.8771   73.9597  223.6612 H   0  0  0  0  0  0  0  0  0  0  0  0
  136.2690   73.9090  220.7590 H   0  0  0  0  0  0  0  0  0  0  0  0
  142.6078   73.9612  219.4323 H   0  0  0  0  0  0  0  0  0  0  0  0
  142.9096   74.7981  220.9916 H   0  0  0  0  0  0  0  0  0  0  0  0
  144.7185   73.1683  220.3687 H   0  0  0  0  0  0  0  0  0  0  0  0
  143.9350   72.7809  221.9249 H   0  0  0  0  0  0  0  0  0  0  0  0
  144.9122   72.2599  218.2308 H   0  0  0  0  0  0  0  0  0  0  0  0
  146.5243   70.8657  216.9708 H   0  0  0  0  0  0  0  0  0  0  0  0
  146.8029   68.4520  217.7023 H   0  0  0  0  0  0  0  0  0  0  0  0
  145.4645   67.6436  219.6119 H   0  0  0  0  0  0  0  0  0  0  0  0
  141.5807   70.8901  219.4899 H   0  0  0  0  0  0  0  0  0  0  0  0
  142.1234   70.0531  221.0038 H   0  0  0  0  0  0  0  0  0  0  0  0
  140.1309   71.7009  221.0852 H   0  0  0  0  0  0  0  0  0  0  0  0
  141.4354   71.7441  222.3582 H   0  0  0  0  0  0  0  0  0  0  0  0
  137.9923   78.6641  221.7658 H   0  0  0  0  0  0  0  0  0  0  0  0
  138.5970   78.2101  223.4294 H   0  0  0  0  0  0  0  0  0  0  0  0
  139.0083   80.6792  221.8334 H   0  0  0  0  0  0  0  0  0  0  0  0
  138.7070   80.4185  223.6082 H   0  0  0  0  0  0  0  0  0  0  0  0
  140.3784   81.8522  224.3671 H   0  0  0  0  0  0  0  0  0  0  0  0
  142.7974   82.1196  224.8739 H   0  0  0  0  0  0  0  0  0  0  0  0
  144.4984   80.6590  223.8269 H   0  0  0  0  0  0  0  0  0  0  0  0
  143.7567   78.8870  222.2286 H   0  0  0  0  0  0  0  0  0  0  0  0
  141.1038   78.7936  220.4716 H   0  0  0  0  0  0  0  0  0  0  0  0
  141.9054   77.5257  221.4802 H   0  0  0  0  0  0  0  0  0  0  0  0
  134.1848   73.2661  222.3542 H   0  0  0  0  0  0  0  0  0  0  0  0
  135.5261   72.0897  222.4413 H   0  0  0  0  0  0  0  0  0  0  0  0
  133.7151   72.1900  224.3843 H   0  0  0  0  0  0  0  0  0  0  0  0
  135.4641   71.9887  224.7877 H   0  0  0  0  0  0  0  0  0  0  0  0
  1  2  1  0
  2  3  2  0
  2  4  2  0
  2  5  1  0
  5  6  1  0
  6  7  1  0
  7  8  1  0
  8  9  1  0
  9 10  1  0
 10 11  2  0
 11 12  1  0
 12 13  1  0
 13 14  1  0
 14 15  1  0
 15 16  1  0
 16 17  1  0
 17 18  2  0
 18 19  1  0
 19 20  2  0
 20 21  1  0
 21 22  2  0
 16 23  1  0
 23 24  1  0
 12 25  2  0
 25 26  1  0
 26 27  1  0
 27 28  1  0
 28 29  1  0
 29 30  1  0
 30 31  2  0
 31 32  1  0
 32 33  2  0
 33 34  1  0
 34 35  2  0
 35 36  1  0
 26 37  2  0
  8 38  1  0
 38 39  1  0
 39  5  1  0
 37 10  1  0
 24 13  1  0
 36 27  1  0
 22 17  1  0
 35 30  1  0
  1 40  1  0
  1 41  1  0
  1 42  1  0
  6 43  1  0
  6 44  1  0
  7 45  1  0
  7 46  1  0
  8 47  1  0
  9 48  1  0
 14 49  1  0
 14 50  1  0
 15 51  1  0
 15 52  1  0
 18 53  1  0
 19 54  1  0
 20 55  1  0
 21 56  1  0
 23 57  1  0
 23 58  1  0
 24 59  1  0
 24 60  1  0
 28 61  1  0
 28 62  1  0
 29 63  1  0
 29 64  1  0
 31 65  1  0
 32 66  1  0
 33 67  1  0
 34 68  1  0
 36 69  1  0
 36 70  1  0
 38 71  1  0
 38 72  1  0
 39 73  1  0
 39 74  1  0
M  END
