
     RDKit          3D

 59 62  0  0  0  0  0  0  0  0999 V2000
  143.0190   79.8510  222.8200 C   0  0  0  0  0  0  0  0  0  0  0  0
  141.5270   79.7090  222.9680 C   0  0  2  0  0  0  0  0  0  0  0  0
  141.0990   78.5470  222.2330 N   0  0  0  0  0  0  0  0  0  0  0  0
  141.1810   78.4580  220.8170 C   0  0  0  0  0  0  0  0  0  0  0  0
  141.6480   79.4350  220.1760 O   0  0  0  0  0  0  0  0  0  0  0  0
  140.7470   77.2730  220.0410 C   0  0  1  0  0  0  0  0  0  0  0  0
  141.4790   77.1860  218.7070 C   0  0  0  0  0  0  0  0  0  0  0  0
  142.7630   76.5240  219.0860 C   0  0  0  0  0  0  0  0  0  0  0  0
  142.4790   75.6430  220.2810 C   0  0  0  0  0  0  0  0  0  0  0  0
  141.1290   76.0140  220.6510 N   0  0  0  0  0  0  0  0  0  0  0  0
  140.2590   75.2540  221.5060 C   0  0  0  0  0  0  0  0  0  0  0  0
  139.7530   75.7530  222.5530 O   0  0  0  0  0  0  0  0  0  0  0  0
  139.9370   73.8350  221.1580 C   0  0  0  0  0  0  0  0  0  0  0  0
  139.8750   73.0760  222.3920 N   0  0  0  0  0  0  0  0  0  0  0  0
  140.1780   71.7050  222.4170 C   0  0  0  0  0  0  0  0  0  0  0  0
  140.5210   71.0610  221.3680 O   0  0  0  0  0  0  0  0  0  0  0  0
  140.1220   70.9180  223.6500 C   0  0  0  0  0  0  0  0  0  0  0  0
  139.5310   69.6650  223.6160 C   0  0  0  0  0  0  0  0  0  0  0  0
  139.4460   68.8640  224.7540 C   0  0  0  0  0  0  0  0  0  0  0  0
  139.9630   69.3300  225.9530 C   0  0  0  0  0  0  0  0  0  0  0  0
  139.8630   68.5090  227.0690 C   0  0  0  0  0  0  0  0  0  0  0  0
  140.3750   68.9620  228.2710 C   0  0  0  0  0  0  0  0  0  0  0  0
  140.2620   68.1390  229.3410 F   0  0  0  0  0  0  0  0  0  0  0  0
  140.9730   70.2090  228.3430 C   0  0  0  0  0  0  0  0  0  0  0  0
  141.0650   71.0200  227.2080 C   0  0  0  0  0  0  0  0  0  0  0  0
  140.5520   70.5720  225.9970 C   0  0  0  0  0  0  0  0  0  0  0  0
  140.6230   71.3510  224.8430 C   0  0  0  0  0  0  0  0  0  0  0  0
  140.8980   80.9620  222.4660 C   0  0  0  0  0  0  0  0  0  0  0  0
  139.5170   81.1670  222.5430 C   0  0  0  0  0  0  0  0  0  0  0  0
  138.9340   82.3290  222.0770 C   0  0  0  0  0  0  0  0  0  0  0  0
  139.6900   83.3300  221.5190 C   0  0  0  0  0  0  0  0  0  0  0  0
  141.0660   83.1490  221.4320 C   0  0  0  0  0  0  0  0  0  0  0  0
  141.6250   81.9890  221.9000 C   0  0  0  0  0  0  0  0  0  0  0  0
  143.4837   79.8952  223.8160 H   0  0  0  0  0  0  0  0  0  0  0  0
  143.4166   78.9866  222.2679 H   0  0  0  0  0  0  0  0  0  0  0  0
  143.2464   80.7748  222.2679 H   0  0  0  0  0  0  0  0  0  0  0  0
  141.2265   79.5663  224.0165 H   0  0  0  0  0  0  0  0  0  0  0  0
  140.7140   77.7470  222.7780 H   0  0  0  0  0  0  0  0  0  0  0  0
  139.6573   77.4048  219.9683 H   0  0  0  0  0  0  0  0  0  0  0  0
  140.9163   76.5776  217.9837 H   0  0  0  0  0  0  0  0  0  0  0  0
  141.6162   78.1614  218.2174 H   0  0  0  0  0  0  0  0  0  0  0  0
  143.1338   75.9146  218.2487 H   0  0  0  0  0  0  0  0  0  0  0  0
  143.5308   77.2735  219.3285 H   0  0  0  0  0  0  0  0  0  0  0  0
  142.5352   74.5787  220.0089 H   0  0  0  0  0  0  0  0  0  0  0  0
  143.2030   75.7772  221.0982 H   0  0  0  0  0  0  0  0  0  0  0  0
  138.9671   73.7879  220.6412 H   0  0  0  0  0  0  0  0  0  0  0  0
  140.7073   73.4199  220.4914 H   0  0  0  0  0  0  0  0  0  0  0  0
  139.5960   73.5960  223.2540 H   0  0  0  0  0  0  0  0  0  0  0  0
  139.1183   69.2928  222.6667 H   0  0  0  0  0  0  0  0  0  0  0  0
  138.9734   67.8721  224.7010 H   0  0  0  0  0  0  0  0  0  0  0  0
  139.3869   67.5199  226.9981 H   0  0  0  0  0  0  0  0  0  0  0  0
  141.3791   70.5644  229.3015 H   0  0  0  0  0  0  0  0  0  0  0  0
  141.5418   72.0091  227.2735 H   0  0  0  0  0  0  0  0  0  0  0  0
  141.0962   72.3426  224.8957 H   0  0  0  0  0  0  0  0  0  0  0  0
  138.8810   80.3856  222.9844 H   0  0  0  0  0  0  0  0  0  0  0  0
  137.8440   82.4548  222.1543 H   0  0  0  0  0  0  0  0  0  0  0  0
  139.2187   84.2528  221.1497 H   0  0  0  0  0  0  0  0  0  0  0  0
  141.7010   83.9314  220.9907 H   0  0  0  0  0  0  0  0  0  0  0  0
  142.7156   81.8696  221.8199 H   0  0  0  0  0  0  0  0  0  0  0  0
  1  2  1  0
  2  3  1  0
  3  4  1  0
  4  5  2  0
  4  6  1  0
  6  7  1  0
  7  8  1  0
  8  9  1  0
  9 10  1  0
 10 11  1  0
 11 12  2  0
 11 13  1  0
 13 14  1  0
 14 15  1  0
 15 16  2  0
 15 17  1  0
 17 18  2  0
 18 19  1  0
 19 20  2  0
 20 21  1  0
 21 22  2  0
 22 23  1  0
 22 24  1  0
 24 25  2  0
 25 26  1  0
 26 27  2  0
  2 28  1  0
 28 29  2  0
 29 30  1  0
 30 31  2  0
 31 32  1  0
 32 33  2  0
 10  6  1  0
 27 17  1  0
 33 28  1  0
 26 20  1  0
  1 34  1  0
  1 35  1  0
  1 36  1  0
  2 37  1  1
  3 38  1  0
  6 39  1  6
  7 40  1  0
  7 41  1  0
  8 42  1  0
  8 43  1  0
  9 44  1  0
  9 45  1  0
 13 46  1  0
 13 47  1  0
 14 48  1  0
 18 49  1  0
 19 50  1  0
 21 51  1  0
 24 52  1  0
 25 53  1  0
 27 54  1  0
 29 55  1  0
 30 56  1  0
 31 57  1  0
 32 58  1  0
 33 59  1  0
M  END
