@<TRIPOS>MOLECULE
*****
 60 63 0 0 0
SMALL
GASTEIGER

@<TRIPOS>ATOM
      1 C         141.8740   75.9340  220.4080 C.3     1  UNL1       -0.0626
      2 C         142.3730   74.6150  219.7570 C.3     1  UNL1       -0.0446
      3 C         143.7060   74.3620  220.4220 C.3     1  UNL1       -0.0626
      4 C         141.3720   73.5380  220.0150 C.3     1  UNL1       -0.0252
      5 C         140.2200   73.9660  220.8670 C.3     1  UNL1        0.0836
      6 N         140.1070   73.3640  222.1490 N.am    1  UNL1       -0.3004
      7 C         140.3000   71.9490  222.2420 C.2     1  UNL1        0.2630
      8 O         140.5660   71.2630  221.2000 O.2     1  UNL1       -0.2685
      9 C         140.1920   71.2800  223.5520 C.ar    1  UNL1        0.1260
     10 C         139.5770   70.0420  223.6110 C.ar    1  UNL1       -0.0306
     11 C         139.4700   69.4050  224.8300 C.ar    1  UNL1       -0.0504
     12 C         139.9700   70.0000  225.9690 C.ar    1  UNL1        0.0004
     13 C         139.8810   69.3970  227.1920 C.ar    1  UNL1       -0.0526
     14 C         140.3740   69.9750  228.3440 C.ar    1  UNL1       -0.0611
     15 C         140.9850   71.2230  228.2390 C.ar    1  UNL1       -0.0597
     16 C         141.0840   71.8480  226.9980 C.ar    1  UNL1       -0.0357
     17 C         140.5770   71.2480  225.8420 C.ar    1  UNL1        0.0718
     18 N         140.6860   71.8750  224.6570 N.ar    1  UNL1       -0.2421
     19 C         138.9600   73.8210  220.0850 C.2     1  UNL1        0.1703
     20 O         138.8280   72.8070  219.4200 O.2     1  UNL1       -0.2938
     21 C         137.9550   74.9050  220.1590 C.3     1  UNL1        0.0723
     22 N         138.5480   76.1670  220.5560 N.am    1  UNL1       -0.3031
     23 C         138.7870   76.3820  221.9470 C.2     1  UNL1        0.2628
     24 O         138.4510   75.4310  222.7160 O.2     1  UNL1       -0.2685
     25 C         139.3790   77.6190  222.4420 C.ar    1  UNL1        0.1260
     26 C         138.5200   78.5920  222.9180 C.ar    1  UNL1       -0.0306
     27 C         139.0330   79.7820  223.3980 C.ar    1  UNL1       -0.0504
     28 C         140.3980   79.9650  223.3870 C.ar    1  UNL1        0.0004
     29 C         140.9520   81.1240  223.8510 C.ar    1  UNL1       -0.0526
     30 C         142.3290   81.3340  223.8530 C.ar    1  UNL1       -0.0611
     31 C         143.1710   80.3450  223.3710 C.ar    1  UNL1       -0.0597
     32 C         142.5950   79.1760  222.9050 C.ar    1  UNL1       -0.0357
     33 C         141.2320   78.9590  222.9000 C.ar    1  UNL1        0.0718
     34 N         140.7290   77.7910  222.4280 N.ar    1  UNL1       -0.2421
     35 H         141.9100   75.8388  221.5033 H       1  UNL1        0.0232
     36 H         142.5193   76.7664  220.0909 H       1  UNL1        0.0232
     37 H         140.8393   76.1308  220.0909 H       1  UNL1        0.0232
     38 H         142.4891   74.6570  218.6640 H       1  UNL1        0.0296
     39 H         143.5810   74.3857  221.5146 H       1  UNL1        0.0232
     40 H         144.0862   73.3757  220.1177 H       1  UNL1        0.0232
     41 H         144.4212   75.1404  220.1177 H       1  UNL1        0.0232
     42 H         140.9771   73.1945  219.0475 H       1  UNL1        0.0290
     43 H         141.8961   72.7435  220.5664 H       1  UNL1        0.0290
     44 H         140.4217   75.0179  221.1176 H       1  UNL1        0.0578
     45 H         139.9140   73.8440  223.0510 H       1  UNL1        0.1498
     46 H         139.1792   69.5725  222.6992 H       1  UNL1        0.0641
     47 H         138.9846   68.4199  224.8935 H       1  UNL1        0.0625
     48 H         139.3971   68.4116  227.2610 H       1  UNL1        0.0624
     49 H         140.2873   69.4662  229.3154 H       1  UNL1        0.0618
     50 H         141.3892   71.7147  229.1362 H       1  UNL1        0.0618
     51 H         141.5703   72.8321  226.9265 H       1  UNL1        0.0639
     52 H         137.4897   75.0265  219.1697 H       1  UNL1        0.0541
     53 H         137.2085   74.6261  220.9172 H       1  UNL1        0.0541
     54 H         138.8030   76.9140  219.8630 H       1  UNL1        0.1495
     55 H         137.4336   78.4198  222.9147 H       1  UNL1        0.0641
     56 H         138.3647   80.5672  223.7811 H       1  UNL1        0.0625
     57 H         140.2910   81.9152  224.2346 H       1  UNL1        0.0624
     58 H         142.7449   82.2782  224.2345 H       1  UNL1        0.0618
     59 H         144.2621   80.4844  223.3591 H       1  UNL1        0.0618
     60 H         143.2539   78.3833  222.5209 H       1  UNL1        0.0639
@<TRIPOS>BOND
     1     1     2    1
     2     2     3    1
     3     2     4    1
     4     4     5    1
     5     5     6    1
     6     6     7   am
     7     7     8    2
     8     7     9    1
     9     9    10   ar
    10    10    11   ar
    11    11    12   ar
    12    12    13   ar
    13    13    14   ar
    14    14    15   ar
    15    15    16   ar
    16    16    17   ar
    17    17    18   ar
    18     5    19    1
    19    19    20    2
    20    19    21    1
    21    21    22    1
    22    22    23   am
    23    23    24    2
    24    23    25    1
    25    25    26   ar
    26    26    27   ar
    27    27    28   ar
    28    28    29   ar
    29    29    30   ar
    30    30    31   ar
    31    31    32   ar
    32    32    33   ar
    33    33    34   ar
    34    18     9   ar
    35    34    25   ar
    36    17    12   ar
    37    33    28   ar
    38     1    35    1
    39     1    36    1
    40     1    37    1
    41     2    38    1
    42     3    39    1
    43     3    40    1
    44     3    41    1
    45     4    42    1
    46     4    43    1
    47     5    44    1
    48     6    45    1
    49    10    46    1
    50    11    47    1
    51    13    48    1
    52    14    49    1
    53    15    50    1
    54    16    51    1
    55    21    52    1
    56    21    53    1
    57    22    54    1
    58    26    55    1
    59    27    56    1
    60    29    57    1
    61    30    58    1
    62    31    59    1
    63    32    60    1
