@<TRIPOS>MOLECULE
*****
 61 64 0 0 0
SMALL
GASTEIGER

@<TRIPOS>ATOM
      1 C         138.1140   69.3070  223.0270 C.3     1  UNL1       -0.0425
      2 C         137.5930   68.9170  224.3980 C.3     1  UNL1        0.0456
      3 N         136.5460   69.7970  224.8170 N.am    1  UNL1       -0.3072
      4 C         135.1640   69.3570  224.7440 C.2     1  UNL1        0.2340
      5 O         135.0100   68.1960  224.3020 O.2     1  UNL1       -0.2738
      6 C         134.1540   70.2940  225.1810 C.3     1  UNL1        0.1022
      7 C         134.3240   70.7790  226.6360 C.3     1  UNL1       -0.0257
      8 C         133.4320   71.9870  226.8630 C.3     1  UNL1       -0.0495
      9 C         132.2420   72.0350  225.9290 C.3     1  UNL1       -0.0371
     10 C         132.6200   72.0780  224.4670 C.3     1  UNL1        0.0155
     11 N         134.0010   71.5240  224.4440 N.am    1  UNL1       -0.2886
     12 C         135.0030   72.2260  223.7530 C.2     1  UNL1        0.2334
     13 O         136.0980   71.7530  223.3600 O.2     1  UNL1       -0.2739
     14 C         134.7750   73.6670  223.4440 C.3     1  UNL1        0.0887
     15 N         136.0450   74.3840  223.3510 N.am    1  UNL1       -0.3015
     16 C         136.1000   75.7210  222.8470 C.2     1  UNL1        0.2628
     17 O         135.0520   76.3040  222.4740 O.2     1  UNL1       -0.2685
     18 C         137.3950   76.3930  222.7750 C.ar    1  UNL1        0.1260
     19 C         138.5080   75.6660  222.3730 C.ar    1  UNL1       -0.0306
     20 C         139.7510   76.2500  222.2860 C.ar    1  UNL1       -0.0504
     21 C         139.9010   77.5810  222.6020 C.ar    1  UNL1        0.0018
     22 C         141.1540   78.1300  222.5040 C.ar    1  UNL1       -0.0342
     23 C         141.2980   79.4830  222.8270 C.ar    1  UNL1        0.0417
     24 CL        142.9000   80.1670  222.6970 Cl      1  UNL1       -0.0835
     25 C         140.1970   80.2120  223.2260 C.ar    1  UNL1       -0.0413
     26 C         138.9370   79.6280  223.3160 C.ar    1  UNL1       -0.0343
     27 C         138.7820   78.2890  222.9990 C.ar    1  UNL1        0.0719
     28 N         137.5570   77.6950  223.0800 N.ar    1  UNL1       -0.2421
     29 C         138.7450   69.0910  225.3530 C.ar    1  UNL1       -0.0275
     30 C         139.3390   70.3500  225.3950 C.ar    1  UNL1       -0.0568
     31 C         140.4010   70.5940  226.2430 C.ar    1  UNL1       -0.0614
     32 C         140.8490   69.5550  227.0410 C.ar    1  UNL1       -0.0617
     33 C         140.2550   68.2910  227.0020 C.ar    1  UNL1       -0.0614
     34 C         139.1920   68.0570  226.1490 C.ar    1  UNL1       -0.0568
     35 H         138.9899   69.9627  223.1405 H       1  UNL1        0.0251
     36 H         138.4031   68.4015  222.4734 H       1  UNL1        0.0251
     37 H         137.3266   69.8395  222.4734 H       1  UNL1        0.0251
     38 H         137.2017   67.8892  224.3736 H       1  UNL1        0.0545
     39 H         136.7950   70.7460  225.1690 H       1  UNL1        0.1493
     40 H         133.2787   69.6477  225.0197 H       1  UNL1        0.0597
     41 H         134.0376   69.9739  227.3287 H       1  UNL1        0.0288
     42 H         135.3739   71.0539  226.8154 H       1  UNL1        0.0288
     43 H         133.0624   71.9586  227.8986 H       1  UNL1        0.0266
     44 H         134.0389   72.8827  226.6646 H       1  UNL1        0.0266
     45 H         131.6275   71.1393  226.1028 H       1  UNL1        0.0280
     46 H         131.6980   72.9656  226.1483 H       1  UNL1        0.0280
     47 H         131.9382   71.4574  223.8670 H       1  UNL1        0.0465
     48 H         132.5592   73.0900  224.0403 H       1  UNL1        0.0465
     49 H         134.2424   73.7505  222.4852 H       1  UNL1        0.0558
     50 H         134.1772   74.1113  224.2534 H       1  UNL1        0.0558
     51 H         136.9560   73.9400  223.6520 H       1  UNL1        0.1496
     52 H         138.3936   74.6019  222.1190 H       1  UNL1        0.0641
     53 H         140.6198   75.6563  221.9657 H       1  UNL1        0.0625
     54 H         142.0159   77.5269  222.1824 H       1  UNL1        0.0639
     55 H         140.3173   81.2760  223.4780 H       1  UNL1        0.0633
     56 H         138.0708   80.2255  223.6365 H       1  UNL1        0.0639
     57 H         138.9597   71.1551  224.7485 H       1  UNL1        0.0621
     58 H         140.8772   71.5848  226.2834 H       1  UNL1        0.0618
     59 H         141.6942   69.7292  227.7231 H       1  UNL1        0.0618
     60 H         140.6318   67.4843  227.6479 H       1  UNL1        0.0618
     61 H         138.7132   67.0676  226.1062 H       1  UNL1        0.0621
@<TRIPOS>BOND
     1     1     2    1
     2     2     3    1
     3     3     4   am
     4     4     5    2
     5     4     6    1
     6     6     7    1
     7     7     8    1
     8     8     9    1
     9     9    10    1
    10    10    11    1
    11    11    12   am
    12    12    13    2
    13    12    14    1
    14    14    15    1
    15    15    16   am
    16    16    17    2
    17    16    18    1
    18    18    19   ar
    19    19    20   ar
    20    20    21   ar
    21    21    22   ar
    22    22    23   ar
    23    23    24    1
    24    23    25   ar
    25    25    26   ar
    26    26    27   ar
    27    27    28   ar
    28     2    29    1
    29    29    30   ar
    30    30    31   ar
    31    31    32   ar
    32    32    33   ar
    33    33    34   ar
    34    11     6    1
    35    28    18   ar
    36    34    29   ar
    37    27    21   ar
    38     1    35    1
    39     1    36    1
    40     1    37    1
    41     2    38    1
    42     3    39    1
    43     6    40    1
    44     7    41    1
    45     7    42    1
    46     8    43    1
    47     8    44    1
    48     9    45    1
    49     9    46    1
    50    10    47    1
    51    10    48    1
    52    14    49    1
    53    14    50    1
    54    15    51    1
    55    19    52    1
    56    20    53    1
    57    22    54    1
    58    25    55    1
    59    26    56    1
    60    30    57    1
    61    31    58    1
    62    32    59    1
    63    33    60    1
    64    34    61    1
