@<TRIPOS>MOLECULE
*****
 70 75 0 0 0
SMALL
GASTEIGER

@<TRIPOS>ATOM
      1 C         132.7890   74.9060  227.2230 C.ar    1  UNL1       -0.0615
      2 C         133.4890   76.0290  226.8610 C.ar    1  UNL1       -0.0615
      3 C         134.3110   75.9800  225.7440 C.ar    1  UNL1       -0.0583
      4 C         134.4500   74.8300  224.9800 C.ar    1  UNL1       -0.0424
      5 C         133.7480   73.7130  225.3480 C.ar    1  UNL1       -0.0441
      6 C         132.9200   73.7450  226.4640 C.ar    1  UNL1       -0.0583
      7 C         133.8240   72.4210  224.5930 C.3     1  UNL1       -0.0257
      8 C         135.1940   72.3900  223.9360 C.3     1  UNL1       -0.0302
      9 C         135.2610   73.6050  223.0270 C.3     1  UNL1        0.0276
     10 N         136.2220   73.4640  221.9870 N.pl3   1  UNL1       -0.3101
     11 C         137.6230   73.3370  222.1850 C.ar    1  UNL1        0.2213
     12 N         138.5040   74.2740  221.7390 N.ar    1  UNL1       -0.1811
     13 C         139.8230   74.1410  221.9320 C.ar    1  UNL1        0.2210
     14 N         140.8050   75.0650  221.5150 N.pl3   1  UNL1       -0.3133
     15 C         140.8370   76.3430  222.2350 C.3     1  UNL1        0.0132
     16 C         141.1110   77.4850  221.2960 C.3     1  UNL1       -0.0219
     17 C         141.1990   78.7590  222.0860 C.3     1  UNL1        0.0091
     18 C         141.7630   78.5400  223.4920 C.3     1  UNL1       -0.0363
     19 C         142.2340   79.9540  223.8460 C.3     1  UNL1       -0.0390
     20 C         142.2150   80.7330  222.5520 C.3     1  UNL1       -0.0038
     21 N         142.1980   79.6830  221.5510 N.3     1  UNL1       -0.3132
     22 N         140.2570   73.0430  222.5830 N.ar    1  UNL1       -0.1809
     23 C         139.4330   72.0900  223.0430 C.ar    1  UNL1        0.2240
     24 N         140.0020   70.9790  223.7200 N.pl3   1  UNL1       -0.2948
     25 C         139.5790   69.6300  223.4340 C.3     1  UNL1        0.0192
     26 C         139.2490   68.8000  224.6230 C.3     1  UNL1       -0.0115
     27 C         139.7860   69.3250  225.8970 C.ar    1  UNL1       -0.0412
     28 C         139.4130   68.6650  227.0540 C.ar    1  UNL1       -0.0582
     29 C         139.8700   69.0930  228.2810 C.ar    1  UNL1       -0.0615
     30 C         140.7110   70.1990  228.3350 C.ar    1  UNL1       -0.0614
     31 C         141.0770   70.8490  227.1760 C.ar    1  UNL1       -0.0568
     32 C         140.6140   70.4110  225.9480 C.ar    1  UNL1       -0.0269
     33 C         141.0390   71.1490  224.7320 C.3     1  UNL1        0.0402
     34 N         138.1280   72.2510  222.8370 N.ar    1  UNL1       -0.1809
     35 C         135.3590   74.8920  223.8040 C.3     1  UNL1       -0.0089
     36 H         132.1306   74.9221  228.1041 H       1  UNL1        0.0618
     37 H         133.3999   76.9551  227.4478 H       1  UNL1        0.0618
     38 H         134.8705   76.8819  225.4549 H       1  UNL1        0.0620
     39 H         132.3611   72.8423  226.7516 H       1  UNL1        0.0620
     40 H         133.7126   71.5705  225.2816 H       1  UNL1        0.0314
     41 H         133.0206   72.3474  223.8453 H       1  UNL1        0.0314
     42 H         135.9836   72.4424  224.7000 H       1  UNL1        0.0286
     43 H         135.3436   71.4592  223.3693 H       1  UNL1        0.0286
     44 H         134.2990   73.6668  222.4972 H       1  UNL1        0.0501
     45 H         135.8660   73.4540  220.9930 H       1  UNL1        0.1492
     46 H         141.4920   74.8950  220.7420 H       1  UNL1        0.1489
     47 H         139.8649   76.5047  222.7238 H       1  UNL1        0.0462
     48 H         141.6430   76.3035  222.9825 H       1  UNL1        0.0462
     49 H         142.0617   77.3105  220.7710 H       1  UNL1        0.0295
     50 H         140.2990   77.5615  220.5579 H       1  UNL1        0.0295
     51 H         140.1650   79.1334  222.0583 H       1  UNL1        0.0461
     52 H         140.9870   78.1875  224.1874 H       1  UNL1        0.0281
     53 H         142.5504   77.7740  223.5488 H       1  UNL1        0.0281
     54 H         141.5529   80.4120  224.5783 H       1  UNL1        0.0278
     55 H         143.2373   79.9444  224.2968 H       1  UNL1        0.0278
     56 H         141.3165   81.3637  222.4813 H       1  UNL1        0.0424
     57 H         143.0631   81.4254  222.4456 H       1  UNL1        0.0424
     58 H         143.1330   79.1850  221.6490 H       1  UNL1        0.1222
     59 H         138.6833   69.6828  222.7977 H       1  UNL1        0.0468
     60 H         140.4364   69.1394  222.9501 H       1  UNL1        0.0468
     61 H         138.1540   68.7403  224.7088 H       1  UNL1        0.0328
     62 H         139.7183   67.8181  224.4630 H       1  UNL1        0.0328
     63 H         138.7465   67.7920  226.9938 H       1  UNL1        0.0620
     64 H         139.5748   68.5690  229.2020 H       1  UNL1        0.0618
     65 H         141.0854   70.5563  229.3057 H       1  UNL1        0.0618
     66 H         141.7427   71.7232  227.2278 H       1  UNL1        0.0621
     67 H         141.1613   72.2168  224.9663 H       1  UNL1        0.0514
     68 H         142.0007   70.7614  224.3646 H       1  UNL1        0.0514
     69 H         136.3941   75.0353  224.1475 H       1  UNL1        0.0331
     70 H         135.0677   75.7338  223.1586 H       1  UNL1        0.0331
@<TRIPOS>BOND
     1     1     2   ar
     2     2     3   ar
     3     3     4   ar
     4     4     5   ar
     5     5     6   ar
     6     5     7    1
     7     7     8    1
     8     8     9    1
     9     9    10    1
    10    10    11    1
    11    11    12   ar
    12    12    13   ar
    13    13    14    1
    14    14    15    1
    15    15    16    1
    16    16    17    1
    17    17    18    1
    18    18    19    1
    19    19    20    1
    20    20    21    1
    21    13    22   ar
    22    22    23   ar
    23    23    24    1
    24    24    25    1
    25    25    26    1
    26    26    27    1
    27    27    28   ar
    28    28    29   ar
    29    29    30   ar
    30    30    31   ar
    31    31    32   ar
    32    32    33    1
    33    23    34   ar
    34     9    35    1
    35     6     1   ar
    36    34    11   ar
    37    35     4    1
    38    21    17    1
    39    33    24    1
    40    32    27   ar
    41     1    36    1
    42     2    37    1
    43     3    38    1
    44     6    39    1
    45     7    40    1
    46     7    41    1
    47     8    42    1
    48     8    43    1
    49     9    44    1
    50    10    45    1
    51    14    46    1
    52    15    47    1
    53    15    48    1
    54    16    49    1
    55    16    50    1
    56    17    51    1
    57    18    52    1
    58    18    53    1
    59    19    54    1
    60    19    55    1
    61    20    56    1
    62    20    57    1
    63    21    58    1
    64    25    59    1
    65    25    60    1
    66    26    61    1
    67    26    62    1
    68    28    63    1
    69    29    64    1
    70    30    65    1
    71    31    66    1
    72    33    67    1
    73    33    68    1
    74    35    69    1
    75    35    70    1
