
 59 64  0  0  1  0  0  0  0  0999 V2000
  140.2150   67.7510  227.6150 N   0  0  0  0  0  0  0  0  0  0  0  0
  140.0630   69.1320  227.2790 C   0  0  0  0  0  0  0  0  0  0  0  0
  140.1160   70.0460  228.1390 O   0  0  0  0  0  0  0  0  0  0  0  0
  139.8340   69.5270  225.8820 C   0  0  0  0  0  0  0  0  0  0  0  0
  139.4060   68.5690  224.9930 C   0  0  0  0  0  0  0  0  0  0  0  0
  139.1810   68.9040  223.6760 C   0  0  0  0  0  0  0  0  0  0  0  0
  139.3890   70.2030  223.2540 C   0  0  0  0  0  0  0  0  0  0  0  0
  139.2420   70.7940  222.0160 C   0  0  0  0  0  0  0  0  0  0  0  0
  139.5850   72.1400  222.1390 C   0  0  0  0  0  0  0  0  0  0  0  0
  139.5640   73.1100  221.0780 C   0  0  0  0  0  0  0  0  0  0  0  0
  138.6570   72.9740  220.1920 O   0  0  0  0  0  0  0  0  0  0  0  0
  140.4570   74.1830  220.9460 N   0  0  0  0  0  0  0  0  0  0  0  0
  140.7900   75.1960  221.9590 C   0  0  0  0  0  0  0  0  0  0  0  0
  140.7980   76.4320  221.0820 C   0  0  1  0  0  0  0  0  0  0  0  0
  139.3480   76.8040  220.8480 C   0  0  0  0  0  0  0  0  0  0  0  0
  139.1670   77.8280  221.9780 C   0  0  0  0  0  0  0  0  0  0  0  0
  140.3840   78.6010  221.8110 N   0  0  0  0  0  0  0  0  0  0  0  0
  140.5900   79.5270  222.9060 C   0  0  2  0  0  0  0  0  0  0  0  0
  140.7440   80.9400  222.4200 C   0  0  0  0  0  0  0  0  0  0  0  0
  142.1940   80.9940  222.0520 C   0  0  0  0  0  0  0  0  0  0  0  0
  142.8880   80.1130  222.9390 N   0  0  0  0  0  0  0  0  0  0  0  0
  141.9500   79.1880  223.5160 C   0  0  0  0  0  0  0  0  0  0  0  0
  141.4450   77.6220  221.7220 C   0  0  0  0  0  0  0  0  0  0  0  0
  141.4800   75.9390  219.8710 C   0  0  0  0  0  0  0  0  0  0  0  0
  142.2280   76.5110  218.8720 C   0  0  0  0  0  0  0  0  0  0  0  0
  142.7370   75.7300  217.8440 C   0  0  0  0  0  0  0  0  0  0  0  0
  142.5120   74.3680  217.7890 C   0  0  0  0  0  0  0  0  0  0  0  0
  141.7640   73.7830  218.7840 C   0  0  0  0  0  0  0  0  0  0  0  0
  141.2570   74.5710  219.8110 C   0  0  0  0  0  0  0  0  0  0  0  0
  139.9310   72.3460  223.4320 N   0  0  0  0  0  0  0  0  0  0  0  0
  139.8220   71.1950  224.1290 C   0  0  0  0  0  0  0  0  0  0  0  0
  140.0310   70.8080  225.4330 C   0  0  0  0  0  0  0  0  0  0  0  0
  139.6090   66.9960  227.2420 H   0  0  0  0  0  0  0  0  0  0  0  0
  140.9760   67.4300  228.2810 H   0  0  0  0  0  0  0  0  0  0  0  0
  139.2434   67.5357  225.3335 H   0  0  0  0  0  0  0  0  0  0  0  0
  138.8370   68.1402  222.9630 H   0  0  0  0  0  0  0  0  0  0  0  0
  138.9124   70.2919  221.0944 H   0  0  0  0  0  0  0  0  0  0  0  0
  140.0243   75.2563  222.7464 H   0  0  0  0  0  0  0  0  0  0  0  0
  141.7194   75.0120  222.5179 H   0  0  0  0  0  0  0  0  0  0  0  0
  139.1943   77.2548  219.8565 H   0  0  0  0  0  0  0  0  0  0  0  0
  138.6398   75.9624  220.8593 H   0  0  0  0  0  0  0  0  0  0  0  0
  138.2679   78.4444  221.8309 H   0  0  0  0  0  0  0  0  0  0  0  0
  139.0257   77.3947  222.9792 H   0  0  0  0  0  0  0  0  0  0  0  0
  139.7335   79.4467  223.5915 H   0  0  0  0  0  0  0  0  0  0  0  0
  140.1038   81.1329  221.5465 H   0  0  0  0  0  0  0  0  0  0  0  0
  140.4494   81.6960  223.1627 H   0  0  0  0  0  0  0  0  0  0  0  0
  142.3312   80.6659  221.0111 H   0  0  0  0  0  0  0  0  0  0  0  0
  142.5810   82.0200  222.1385 H   0  0  0  0  0  0  0  0  0  0  0  0
  143.6330   79.6340  222.3640 H   0  0  0  0  0  0  0  0  0  0  0  0
  142.2322   78.1540  223.2686 H   0  0  0  0  0  0  0  0  0  0  0  0
  141.9296   79.2683  224.6129 H   0  0  0  0  0  0  0  0  0  0  0  0
  142.2709   77.9979  221.1002 H   0  0  0  0  0  0  0  0  0  0  0  0
  141.8821   77.3856  222.7034 H   0  0  0  0  0  0  0  0  0  0  0  0
  142.4247   77.5932  218.8864 H   0  0  0  0  0  0  0  0  0  0  0  0
  143.3345   76.2072  217.0533 H   0  0  0  0  0  0  0  0  0  0  0  0
  142.9226   73.7639  216.9665 H   0  0  0  0  0  0  0  0  0  0  0  0
  141.5686   72.7006  218.7673 H   0  0  0  0  0  0  0  0  0  0  0  0
  140.2420   73.2340  223.8820 H   0  0  0  0  0  0  0  0  0  0  0  0
  140.3740   71.5657  226.1529 H   0  0  0  0  0  0  0  0  0  0  0  0
  1  2  1  0
  2  3  2  0
  2  4  1  0
  4  5  2  0
  5  6  1  0
  6  7  2  0
  7  8  1  0
  8  9  2  0
  9 10  1  0
 10 11  2  0
 10 12  1  0
 12 13  1  0
 14 13  1  1
 14 15  1  0
 15 16  1  0
 16 17  1  0
 17 18  1  0
 18 19  1  0
 19 20  1  0
 20 21  1  0
 21 22  1  0
 17 23  1  0
 14 24  1  0
 24 25  2  0
 25 26  1  0
 26 27  2  0
 27 28  1  0
 28 29  2  0
  9 30  1  0
 30 31  1  0
 31 32  2  0
 32  4  1  0
 31  7  1  0
 29 12  1  0
 23 14  1  0
 29 24  1  0
 22 18  1  0
  1 33  1  0
  1 34  1  0
  5 35  1  0
  6 36  1  0
  8 37  1  0
 13 38  1  0
 13 39  1  0
 15 40  1  0
 15 41  1  0
 16 42  1  0
 16 43  1  0
 18 44  1  1
 19 45  1  0
 19 46  1  0
 20 47  1  0
 20 48  1  0
 21 49  1  0
 22 50  1  0
 22 51  1  0
 23 52  1  0
 23 53  1  0
 25 54  1  0
 26 55  1  0
 27 56  1  0
 28 57  1  0
 30 58  1  0
 32 59  1  0
M  END
