
     RDKit          3D

 56 60  0  0  0  0  0  0  0  0999 V2000
  141.4130   76.7980  223.1170 O   0  0  0  0  0  0  0  0  0  0  0  0
  140.5010   77.0210  222.3000 C   0  0  0  0  0  0  0  0  0  0  0  0
  139.9890   75.9410  221.5300 N   0  0  0  0  0  0  0  0  0  0  0  0
  140.5150   74.6330  221.6990 C   0  0  0  0  0  0  0  0  0  0  0  0
  141.6160   74.2980  220.9690 N   0  0  0  0  0  0  0  0  0  0  0  0
  142.1190   73.0570  221.1290 C   0  0  0  0  0  0  0  0  0  0  0  0
  143.2640   72.6960  220.3740 N   0  0  0  0  0  0  0  0  0  0  0  0
  143.1450   71.5600  219.4860 C   0  0  0  0  0  0  0  0  0  0  0  0
  144.4190   71.1420  218.8430 C   0  0  0  0  0  0  0  0  0  0  0  0
  145.4140   72.1880  218.7380 N   0  0  0  0  0  0  0  0  0  0  0  0
  145.6910   72.8140  220.0050 C   0  0  0  0  0  0  0  0  0  0  0  0
  144.4590   73.4760  220.5390 C   0  0  0  0  0  0  0  0  0  0  0  0
  141.5240   72.1970  221.9940 N   0  0  0  0  0  0  0  0  0  0  0  0
  140.4390   72.5280  222.7130 C   0  0  0  0  0  0  0  0  0  0  0  0
  139.8200   71.6190  223.6200 N   0  0  0  0  0  0  0  0  0  0  0  0
  138.7040   70.8120  223.1610 C   0  0  0  0  0  0  0  0  0  0  0  0
  139.1940   69.3650  223.2420 C   0  0  0  0  0  0  0  0  0  0  0  0
  139.5160   69.1420  224.6800 C   0  0  0  0  0  0  0  0  0  0  0  0
  139.2880   67.8840  225.2370 C   0  0  0  0  0  0  0  0  0  0  0  0
  139.5700   67.6210  226.5730 C   0  0  0  0  0  0  0  0  0  0  0  0
  140.0840   68.6370  227.3470 C   0  0  0  0  0  0  0  0  0  0  0  0
  140.3210   69.9030  226.8080 C   0  0  0  0  0  0  0  0  0  0  0  0
  140.0320   70.1490  225.4660 C   0  0  0  0  0  0  0  0  0  0  0  0
  140.3120   71.5180  224.9770 C   0  0  0  0  0  0  0  0  0  0  0  0
  139.9510   73.7690  222.5420 N   0  0  0  0  0  0  0  0  0  0  0  0
  140.0100   78.3880  222.1800 C   0  0  0  0  0  0  0  0  0  0  0  0
  140.8220   79.4120  222.5820 C   0  0  0  0  0  0  0  0  0  0  0  0
  140.4520   80.7410  222.5100 C   0  0  0  0  0  0  0  0  0  0  0  0
  139.1920   81.0470  222.0040 C   0  0  0  0  0  0  0  0  0  0  0  0
  138.3490   80.0200  221.5880 C   0  0  0  0  0  0  0  0  0  0  0  0
  138.7630   78.7040  221.6800 C   0  0  0  0  0  0  0  0  0  0  0  0
  139.2340   76.1030  220.8470 H   0  0  0  0  0  0  0  0  0  0  0  0
  142.7583   70.7095  220.0666 H   0  0  0  0  0  0  0  0  0  0  0  0
  142.4715   71.8686  218.6729 H   0  0  0  0  0  0  0  0  0  0  0  0
  144.8476   70.3192  219.4341 H   0  0  0  0  0  0  0  0  0  0  0  0
  144.1663   70.8485  217.8135 H   0  0  0  0  0  0  0  0  0  0  0  0
  146.3010   71.7080  218.4290 H   0  0  0  0  0  0  0  0  0  0  0  0
  146.0314   72.0505  220.7200 H   0  0  0  0  0  0  0  0  0  0  0  0
  146.4730   73.5747  219.8644 H   0  0  0  0  0  0  0  0  0  0  0  0
  144.6044   73.6648  221.6129 H   0  0  0  0  0  0  0  0  0  0  0  0
  144.3185   74.4031  219.9639 H   0  0  0  0  0  0  0  0  0  0  0  0
  137.8286   70.9596  223.8105 H   0  0  0  0  0  0  0  0  0  0  0  0
  138.3925   71.0837  222.1416 H   0  0  0  0  0  0  0  0  0  0  0  0
  138.4066   68.6719  222.9109 H   0  0  0  0  0  0  0  0  0  0  0  0
  140.0647   69.1886  222.5933 H   0  0  0  0  0  0  0  0  0  0  0  0
  138.8762   67.0826  224.6060 H   0  0  0  0  0  0  0  0  0  0  0  0
  139.3867   66.6246  227.0014 H   0  0  0  0  0  0  0  0  0  0  0  0
  140.3115   68.4484  228.4066 H   0  0  0  0  0  0  0  0  0  0  0  0
  140.7341   70.7034  227.4395 H   0  0  0  0  0  0  0  0  0  0  0  0
  139.8006   72.2539  225.6149 H   0  0  0  0  0  0  0  0  0  0  0  0
  141.3928   71.7202  225.0070 H   0  0  0  0  0  0  0  0  0  0  0  0
  141.8169   79.1659  222.9816 H   0  0  0  0  0  0  0  0  0  0  0  0
  141.1349   81.5362  222.8436 H   0  0  0  0  0  0  0  0  0  0  0  0
  138.8640   82.0946  221.9332 H   0  0  0  0  0  0  0  0  0  0  0  0
  137.3527   80.2558  221.1858 H   0  0  0  0  0  0  0  0  0  0  0  0
  138.0900   77.8987  221.3505 H   0  0  0  0  0  0  0  0  0  0  0  0
  1  2  2  0
  2  3  1  0
  3  4  1  0
  4  5  2  0
  5  6  1  0
  6  7  1  0
  7  8  1  0
  8  9  1  0
  9 10  1  0
 10 11  1  0
 11 12  1  0
  6 13  2  0
 13 14  1  0
 14 15  1  0
 15 16  1  0
 16 17  1  0
 17 18  1  0
 18 19  2  0
 19 20  1  0
 20 21  2  0
 21 22  1  0
 22 23  2  0
 23 24  1  0
 14 25  2  0
  2 26  1  0
 26 27  2  0
 27 28  1  0
 28 29  2  0
 29 30  1  0
 30 31  2  0
 25  4  1  0
 31 26  1  0
 12  7  1  0
 24 15  1  0
 23 18  1  0
  3 32  1  0
  8 33  1  0
  8 34  1  0
  9 35  1  0
  9 36  1  0
 10 37  1  0
 11 38  1  0
 11 39  1  0
 12 40  1  0
 12 41  1  0
 16 42  1  0
 16 43  1  0
 17 44  1  0
 17 45  1  0
 19 46  1  0
 20 47  1  0
 21 48  1  0
 22 49  1  0
 24 50  1  0
 24 51  1  0
 27 52  1  0
 28 53  1  0
 29 54  1  0
 30 55  1  0
 31 56  1  0
M  END
>  <smiles>  (1) 
O=C(Nc1nc(N2CCNCC2)nc(N2CCc3ccccc3C2)n1)c1ccccc1

>  <score_type>  (1) 
oracle

>  <origin>  (1) 
autodockgpu

>  <m_score__min__energy>  (1) 
-8.7400000000000002

>  <m_primary>  (1) 
energy

>  <rmsd>  (1) 
3.8135871376580415

>  <m_score__min__rmsd>  (1) 
3.8135871376580415

>  <meeko>  (1) 
{"free_energy": -8.24, "intermolecular_energy": -9.44, "internal_energy": -0.81, "cluster_size": 1, "cluster_id": 2, "rank_in_cluster": 1}

>  <energy>  (1) 
-8.74

>  <cluster_rmsd>  (1) 
0.0

>  <cluster>  (1) 
1

$$$$

     RDKit          3D

 56 60  0  0  0  0  0  0  0  0999 V2000
  139.5760   76.0320  222.6660 O   0  0  0  0  0  0  0  0  0  0  0  0
  140.6900   76.3360  222.2020 C   0  0  0  0  0  0  0  0  0  0  0  0
  141.4960   75.3140  221.6280 N   0  0  0  0  0  0  0  0  0  0  0  0
  141.0290   73.9740  221.5910 C   0  0  0  0  0  0  0  0  0  0  0  0
  140.9850   73.3560  220.3770 N   0  0  0  0  0  0  0  0  0  0  0  0
  140.5430   72.0820  220.3400 C   0  0  0  0  0  0  0  0  0  0  0  0
  140.4920   71.4280  219.0830 N   0  0  0  0  0  0  0  0  0  0  0  0
  141.1050   70.1210  218.9860 C   0  0  0  0  0  0  0  0  0  0  0  0
  141.1520   69.5600  217.6110 C   0  0  0  0  0  0  0  0  0  0  0  0
  140.1440   70.0810  216.7110 N   0  0  0  0  0  0  0  0  0  0  0  0
  140.1520   71.5210  216.6510 C   0  0  0  0  0  0  0  0  0  0  0  0
  139.8380   72.1000  217.9940 C   0  0  0  0  0  0  0  0  0  0  0  0
  140.1640   71.4690  221.4890 N   0  0  0  0  0  0  0  0  0  0  0  0
  140.2080   72.0780  222.6840 C   0  0  0  0  0  0  0  0  0  0  0  0
  139.8080   71.4260  223.8880 N   0  0  0  0  0  0  0  0  0  0  0  0
  138.5990   70.6220  223.8880 C   0  0  0  0  0  0  0  0  0  0  0  0
  139.0670   69.1930  224.1720 C   0  0  0  0  0  0  0  0  0  0  0  0
  139.7210   69.2540  225.5090 C   0  0  0  0  0  0  0  0  0  0  0  0
  139.6100   68.1610  226.3670 C   0  0  0  0  0  0  0  0  0  0  0  0
  140.2000   68.1650  227.6260 C   0  0  0  0  0  0  0  0  0  0  0  0
  140.9050   69.2810  228.0170 C   0  0  0  0  0  0  0  0  0  0  0  0
  141.0280   70.3860  227.1720 C   0  0  0  0  0  0  0  0  0  0  0  0
  140.4300   70.3650  225.9120 C   0  0  0  0  0  0  0  0  0  0  0  0
  140.6100   71.5770  225.0820 C   0  0  0  0  0  0  0  0  0  0  0  0
  140.6510   73.3470  222.7050 N   0  0  0  0  0  0  0  0  0  0  0  0
  141.1040   77.7310  222.2740 C   0  0  0  0  0  0  0  0  0  0  0  0
  141.4410   78.2500  223.4940 C   0  0  0  0  0  0  0  0  0  0  0  0
  141.8460   79.5590  223.6710 C   0  0  0  0  0  0  0  0  0  0  0  0
  141.9120   80.3840  222.5510 C   0  0  0  0  0  0  0  0  0  0  0  0
  141.5740   79.8760  221.3000 C   0  0  0  0  0  0  0  0  0  0  0  0
  141.1740   78.5590  221.1730 C   0  0  0  0  0  0  0  0  0  0  0  0
  142.4230   75.5430  221.2380 H   0  0  0  0  0  0  0  0  0  0  0  0
  142.1363   70.1972  219.3608 H   0  0  0  0  0  0  0  0  0  0  0  0
  140.4792   69.4385  219.5798 H   0  0  0  0  0  0  0  0  0  0  0  0
  142.1409   69.7822  217.1837 H   0  0  0  0  0  0  0  0  0  0  0  0
  140.9553   68.4821  217.7079 H   0  0  0  0  0  0  0  0  0  0  0  0
  140.4080   69.7290  215.7530 H   0  0  0  0  0  0  0  0  0  0  0  0
  141.1467   71.8650  216.3314 H   0  0  0  0  0  0  0  0  0  0  0  0
  139.3886   71.8527  215.9318 H   0  0  0  0  0  0  0  0  0  0  0  0
  140.1514   73.1544  217.9989 H   0  0  0  0  0  0  0  0  0  0  0  0
  138.7554   71.9816  218.1486 H   0  0  0  0  0  0  0  0  0  0  0  0
  137.9080   70.9646  224.6723 H   0  0  0  0  0  0  0  0  0  0  0  0
  138.0570   70.6949  222.9336 H   0  0  0  0  0  0  0  0  0  0  0  0
  138.2101   68.5036  224.1929 H   0  0  0  0  0  0  0  0  0  0  0  0
  139.7529   68.8233  223.3956 H   0  0  0  0  0  0  0  0  0  0  0  0
  139.0434   67.2763  226.0410 H   0  0  0  0  0  0  0  0  0  0  0  0
  140.1056   67.2964  228.2943 H   0  0  0  0  0  0  0  0  0  0  0  0
  141.3784   69.3026  229.0097 H   0  0  0  0  0  0  0  0  0  0  0  0
  141.5947   71.2702  227.4990 H   0  0  0  0  0  0  0  0  0  0  0  0
  140.2815   72.4649  225.6422 H   0  0  0  0  0  0  0  0  0  0  0  0
  141.6699   71.7033  224.8162 H   0  0  0  0  0  0  0  0  0  0  0  0
  141.3870   77.5943  224.3756 H   0  0  0  0  0  0  0  0  0  0  0  0
  142.1091   79.9391  224.6692 H   0  0  0  0  0  0  0  0  0  0  0  0
  142.2297   81.4320  222.6545 H   0  0  0  0  0  0  0  0  0  0  0  0
  141.6252   80.5230  220.4119 H   0  0  0  0  0  0  0  0  0  0  0  0
  140.9079   78.1660  220.1807 H   0  0  0  0  0  0  0  0  0  0  0  0
  1  2  2  0
  2  3  1  0
  3  4  1  0
  4  5  2  0
  5  6  1  0
  6  7  1  0
  7  8  1  0
  8  9  1  0
  9 10  1  0
 10 11  1  0
 11 12  1  0
  6 13  2  0
 13 14  1  0
 14 15  1  0
 15 16  1  0
 16 17  1  0
 17 18  1  0
 18 19  2  0
 19 20  1  0
 20 21  2  0
 21 22  1  0
 22 23  2  0
 23 24  1  0
 14 25  2  0
  2 26  1  0
 26 27  2  0
 27 28  1  0
 28 29  2  0
 29 30  1  0
 30 31  2  0
 25  4  1  0
 31 26  1  0
 12  7  1  0
 24 15  1  0
 23 18  1  0
  3 32  1  0
  8 33  1  0
  8 34  1  0
  9 35  1  0
  9 36  1  0
 10 37  1  0
 11 38  1  0
 11 39  1  0
 12 40  1  0
 12 41  1  0
 16 42  1  0
 16 43  1  0
 17 44  1  0
 17 45  1  0
 19 46  1  0
 20 47  1  0
 21 48  1  0
 22 49  1  0
 24 50  1  0
 24 51  1  0
 27 52  1  0
 28 53  1  0
 29 54  1  0
 30 55  1  0
 31 56  1  0
M  END
>  <smiles>  (2) 
O=C(Nc1nc(N2CCNCC2)nc(N2CCc3ccccc3C2)n1)c1ccccc1

>  <score_type>  (2) 
oracle

>  <origin>  (2) 
autodockgpu

>  <m_score__min__energy>  (2) 
-8.7400000000000002

>  <m_primary>  (2) 
energy

>  <rmsd>  (2) 
3.8438365056796675

>  <m_score__min__rmsd>  (2) 
3.8438365056796675

>  <meeko>  (2) 
{"free_energy": -8.73, "intermolecular_energy": -9.93, "internal_energy": -0.8, "cluster_size": 49, "cluster_id": 1, "rank_in_cluster": 11}

>  <energy>  (2) 
-8.74

>  <cluster_rmsd>  (2) 
0.07

>  <cluster>  (2) 
1

$$$$

     RDKit          3D

 56 60  0  0  0  0  0  0  0  0999 V2000
  139.6090   75.9910  222.7050 O   0  0  0  0  0  0  0  0  0  0  0  0
  140.7050   76.3290  222.2230 C   0  0  0  0  0  0  0  0  0  0  0  0
  141.5310   75.3340  221.6310 N   0  0  0  0  0  0  0  0  0  0  0  0
  141.1020   73.9810  221.5960 C   0  0  0  0  0  0  0  0  0  0  0  0
  141.1230   73.3450  220.3910 N   0  0  0  0  0  0  0  0  0  0  0  0
  140.7180   72.0590  220.3550 C   0  0  0  0  0  0  0  0  0  0  0  0
  140.7340   71.3860  219.1070 N   0  0  0  0  0  0  0  0  0  0  0  0
  141.4990   70.1610  219.0210 C   0  0  0  0  0  0  0  0  0  0  0  0
  141.6000   69.5900  217.6520 C   0  0  0  0  0  0  0  0  0  0  0  0
  140.5300   69.9750  216.7570 N   0  0  0  0  0  0  0  0  0  0  0  0
  140.3640   71.4040  216.6780 C   0  0  0  0  0  0  0  0  0  0  0  0
  139.9950   71.9600  218.0170 C   0  0  0  0  0  0  0  0  0  0  0  0
  140.3110   71.4510  221.4980 N   0  0  0  0  0  0  0  0  0  0  0  0
  140.2910   72.0790  222.6850 C   0  0  0  0  0  0  0  0  0  0  0  0
  139.8610   71.4330  223.8820 N   0  0  0  0  0  0  0  0  0  0  0  0
  138.6320   70.6600  223.8660 C   0  0  0  0  0  0  0  0  0  0  0  0
  139.0600   69.2190  224.1480 C   0  0  0  0  0  0  0  0  0  0  0  0
  139.7010   69.2580  225.4930 C   0  0  0  0  0  0  0  0  0  0  0  0
  139.5530   68.1640  226.3450 C   0  0  0  0  0  0  0  0  0  0  0  0
  140.1300   68.1490  227.6110 C   0  0  0  0  0  0  0  0  0  0  0  0
  140.8590   69.2450  228.0130 C   0  0  0  0  0  0  0  0  0  0  0  0
  141.0190   70.3500  227.1740 C   0  0  0  0  0  0  0  0  0  0  0  0
  140.4350   70.3490  225.9080 C   0  0  0  0  0  0  0  0  0  0  0  0
  140.6540   71.5590  225.0840 C   0  0  0  0  0  0  0  0  0  0  0  0
  140.6980   73.3590  222.7030 N   0  0  0  0  0  0  0  0  0  0  0  0
  141.0800   77.7360  222.2940 C   0  0  0  0  0  0  0  0  0  0  0  0
  141.4590   78.2510  223.5040 C   0  0  0  0  0  0  0  0  0  0  0  0
  141.8320   79.5690  223.6790 C   0  0  0  0  0  0  0  0  0  0  0  0
  141.8200   80.4090  222.5680 C   0  0  0  0  0  0  0  0  0  0  0  0
  141.4380   79.9060  221.3280 C   0  0  0  0  0  0  0  0  0  0  0  0
  141.0720   78.5780  221.2020 C   0  0  0  0  0  0  0  0  0  0  0  0
  142.4430   75.5920  221.2260 H   0  0  0  0  0  0  0  0  0  0  0  0
  142.5172   70.3660  219.3834 H   0  0  0  0  0  0  0  0  0  0  0  0
  140.9660   69.4168  219.6310 H   0  0  0  0  0  0  0  0  0  0  0  0
  142.5517   69.9219  217.2114 H   0  0  0  0  0  0  0  0  0  0  0  0
  141.5337   68.4978  217.7647 H   0  0  0  0  0  0  0  0  0  0  0  0
  140.8250   69.6440  215.8000 H   0  0  0  0  0  0  0  0  0  0  0  0
  141.3070   71.8606  216.3431 H   0  0  0  0  0  0  0  0  0  0  0  0
  139.5597   71.6312  215.9628 H   0  0  0  0  0  0  0  0  0  0  0  0
  140.1803   73.0442  218.0053 H   0  0  0  0  0  0  0  0  0  0  0  0
  138.9356   71.7156  218.1844 H   0  0  0  0  0  0  0  0  0  0  0  0
  137.9419   71.0167  224.6448 H   0  0  0  0  0  0  0  0  0  0  0  0
  138.1020   70.7508  222.9064 H   0  0  0  0  0  0  0  0  0  0  0  0
  138.1857   68.5516  224.1566 H   0  0  0  0  0  0  0  0  0  0  0  0
  139.7445   68.8350  223.3773 H   0  0  0  0  0  0  0  0  0  0  0  0
  138.9680   67.2950  226.0093 H   0  0  0  0  0  0  0  0  0  0  0  0
  140.0064   67.2811  228.2754 H   0  0  0  0  0  0  0  0  0  0  0  0
  141.3227   69.2507  229.0105 H   0  0  0  0  0  0  0  0  0  0  0  0
  141.6040   71.2184  227.5110 H   0  0  0  0  0  0  0  0  0  0  0  0
  140.3426   72.4530  225.6442 H   0  0  0  0  0  0  0  0  0  0  0  0
  141.7194   71.6589  224.8291 H   0  0  0  0  0  0  0  0  0  0  0  0
  141.4669   77.5836  224.3784 H   0  0  0  0  0  0  0  0  0  0  0  0
  142.1304   79.9452  224.6687 H   0  0  0  0  0  0  0  0  0  0  0  0
  142.1111   81.4648  222.6703 H   0  0  0  0  0  0  0  0  0  0  0  0
  141.4271   80.5650  220.4473 H   0  0  0  0  0  0  0  0  0  0  0  0
  140.7708   78.1887  220.2183 H   0  0  0  0  0  0  0  0  0  0  0  0
  1  2  2  0
  2  3  1  0
  3  4  1  0
  4  5  2  0
  5  6  1  0
  6  7  1  0
  7  8  1  0
  8  9  1  0
  9 10  1  0
 10 11  1  0
 11 12  1  0
  6 13  2  0
 13 14  1  0
 14 15  1  0
 15 16  1  0
 16 17  1  0
 17 18  1  0
 18 19  2  0
 19 20  1  0
 20 21  2  0
 21 22  1  0
 22 23  2  0
 23 24  1  0
 14 25  2  0
  2 26  1  0
 26 27  2  0
 27 28  1  0
 28 29  2  0
 29 30  1  0
 30 31  2  0
 25  4  1  0
 31 26  1  0
 12  7  1  0
 24 15  1  0
 23 18  1  0
  3 32  1  0
  8 33  1  0
  8 34  1  0
  9 35  1  0
  9 36  1  0
 10 37  1  0
 11 38  1  0
 11 39  1  0
 12 40  1  0
 12 41  1  0
 16 42  1  0
 16 43  1  0
 17 44  1  0
 17 45  1  0
 19 46  1  0
 20 47  1  0
 21 48  1  0
 22 49  1  0
 24 50  1  0
 24 51  1  0
 27 52  1  0
 28 53  1  0
 29 54  1  0
 30 55  1  0
 31 56  1  0
M  END
>  <smiles>  (3) 
O=C(Nc1nc(N2CCNCC2)nc(N2CCc3ccccc3C2)n1)c1ccccc1

>  <score_type>  (3) 
oracle

>  <origin>  (3) 
autodockgpu

>  <m_score__min__energy>  (3) 
-8.7400000000000002

>  <m_primary>  (3) 
energy

>  <rmsd>  (3) 
3.843626446521215

>  <m_score__min__rmsd>  (3) 
3.843626446521215

>  <meeko>  (3) 
{"free_energy": -8.73, "intermolecular_energy": -9.92, "internal_energy": -0.79, "cluster_size": 49, "cluster_id": 1, "rank_in_cluster": 18}

>  <energy>  (3) 
-8.74

>  <cluster_rmsd>  (3) 
0.23

>  <cluster>  (3) 
1

$$$$

     RDKit          3D

 56 60  0  0  0  0  0  0  0  0999 V2000
  139.4050   75.8430  222.7090 O   0  0  0  0  0  0  0  0  0  0  0  0
  140.4610   76.3070  222.2430 C   0  0  0  0  0  0  0  0  0  0  0  0
  141.4030   75.4170  221.6570 N   0  0  0  0  0  0  0  0  0  0  0  0
  141.1330   74.0240  221.6100 C   0  0  0  0  0  0  0  0  0  0  0  0
  141.3740   73.3760  220.4360 N   0  0  0  0  0  0  0  0  0  0  0  0
  141.1190   72.0520  220.3900 C   0  0  0  0  0  0  0  0  0  0  0  0
  141.3650   71.3650  219.1730 N   0  0  0  0  0  0  0  0  0  0  0  0
  141.4520   69.9220  219.2290 C   0  0  0  0  0  0  0  0  0  0  0  0
  141.8630   69.2770  217.9540 C   0  0  0  0  0  0  0  0  0  0  0  0
  141.5790   70.0540  216.7660 N   0  0  0  0  0  0  0  0  0  0  0  0
  142.1240   71.3860  216.8360 C   0  0  0  0  0  0  0  0  0  0  0  0
  141.5100   72.1410  217.9730 C   0  0  0  0  0  0  0  0  0  0  0  0
  140.6410   71.4200  221.4910 N   0  0  0  0  0  0  0  0  0  0  0  0
  140.4050   72.0600  222.6470 C   0  0  0  0  0  0  0  0  0  0  0  0
  139.9020   71.3890  223.8010 N   0  0  0  0  0  0  0  0  0  0  0  0
  138.7330   70.5380  223.6710 C   0  0  0  0  0  0  0  0  0  0  0  0
  139.2240   69.1280  224.0060 C   0  0  0  0  0  0  0  0  0  0  0  0
  139.7250   69.2110  225.4060 C   0  0  0  0  0  0  0  0  0  0  0  0
  139.5650   68.1110  226.2480 C   0  0  0  0  0  0  0  0  0  0  0  0
  140.0140   68.1350  227.5650 C   0  0  0  0  0  0  0  0  0  0  0  0
  140.6270   69.2780  228.0280 C   0  0  0  0  0  0  0  0  0  0  0  0
  140.7980   70.3890  227.2000 C   0  0  0  0  0  0  0  0  0  0  0  0
  140.3420   70.3480  225.8830 C   0  0  0  0  0  0  0  0  0  0  0  0
  140.5630   71.5690  225.0750 C   0  0  0  0  0  0  0  0  0  0  0  0
  140.6630   73.3790  222.6770 N   0  0  0  0  0  0  0  0  0  0  0  0
  140.6710   77.7480  222.3260 C   0  0  0  0  0  0  0  0  0  0  0  0
  141.7080   78.2980  221.6250 C   0  0  0  0  0  0  0  0  0  0  0  0
  141.9930   79.6490  221.6350 C   0  0  0  0  0  0  0  0  0  0  0  0
  141.1820   80.4870  222.3980 C   0  0  0  0  0  0  0  0  0  0  0  0
  140.1200   79.9470  223.1190 C   0  0  0  0  0  0  0  0  0  0  0  0
  139.8750   78.5870  223.0770 C   0  0  0  0  0  0  0  0  0  0  0  0
  142.2850   75.7800  221.2650 H   0  0  0  0  0  0  0  0  0  0  0  0
  142.1863   69.6523  220.0023 H   0  0  0  0  0  0  0  0  0  0  0  0
  140.4383   69.5568  219.4506 H   0  0  0  0  0  0  0  0  0  0  0  0
  142.9474   69.0967  217.9948 H   0  0  0  0  0  0  0  0  0  0  0  0
  141.2743   68.3517  217.8691 H   0  0  0  0  0  0  0  0  0  0  0  0
  142.0730   69.5590  215.9770 H   0  0  0  0  0  0  0  0  0  0  0  0
  143.2119   71.3252  216.9866 H   0  0  0  0  0  0  0  0  0  0  0  0
  141.9018   71.9127  215.8962 H   0  0  0  0  0  0  0  0  0  0  0  0
  142.1467   73.0097  218.1965 H   0  0  0  0  0  0  0  0  0  0  0  0
  140.4978   72.4316  217.6552 H   0  0  0  0  0  0  0  0  0  0  0  0
  137.9480   70.8506  224.3754 H   0  0  0  0  0  0  0  0  0  0  0  0
  138.2949   70.5923  222.6635 H   0  0  0  0  0  0  0  0  0  0  0  0
  138.3983   68.4048  223.9341 H   0  0  0  0  0  0  0  0  0  0  0  0
  140.0048   68.7884  223.3095 H   0  0  0  0  0  0  0  0  0  0  0  0
  139.0735   67.2053  225.8631 H   0  0  0  0  0  0  0  0  0  0  0  0
  139.8824   67.2616  228.2207 H   0  0  0  0  0  0  0  0  0  0  0  0
  140.9876   69.3162  229.0665 H   0  0  0  0  0  0  0  0  0  0  0  0
  141.2909   71.2937  227.5854 H   0  0  0  0  0  0  0  0  0  0  0  0
  140.1405   72.4417  225.5945 H   0  0  0  0  0  0  0  0  0  0  0  0
  141.6396   71.7382  224.9258 H   0  0  0  0  0  0  0  0  0  0  0  0
  142.3456   77.6326  221.0245 H   0  0  0  0  0  0  0  0  0  0  0  0
  142.8370   80.0528  221.0566 H   0  0  0  0  0  0  0  0  0  0  0  0
  141.3796   81.5686  222.4305 H   0  0  0  0  0  0  0  0  0  0  0  0
  139.4755   80.6031  223.7225 H   0  0  0  0  0  0  0  0  0  0  0  0
  139.0343   78.1688  223.6500 H   0  0  0  0  0  0  0  0  0  0  0  0
  1  2  2  0
  2  3  1  0
  3  4  1  0
  4  5  2  0
  5  6  1  0
  6  7  1  0
  7  8  1  0
  8  9  1  0
  9 10  1  0
 10 11  1  0
 11 12  1  0
  6 13  2  0
 13 14  1  0
 14 15  1  0
 15 16  1  0
 16 17  1  0
 17 18  1  0
 18 19  2  0
 19 20  1  0
 20 21  2  0
 21 22  1  0
 22 23  2  0
 23 24  1  0
 14 25  2  0
  2 26  1  0
 26 27  2  0
 27 28  1  0
 28 29  2  0
 29 30  1  0
 30 31  2  0
 25  4  1  0
 31 26  1  0
 12  7  1  0
 24 15  1  0
 23 18  1  0
  3 32  1  0
  8 33  1  0
  8 34  1  0
  9 35  1  0
  9 36  1  0
 10 37  1  0
 11 38  1  0
 11 39  1  0
 12 40  1  0
 12 41  1  0
 16 42  1  0
 16 43  1  0
 17 44  1  0
 17 45  1  0
 19 46  1  0
 20 47  1  0
 21 48  1  0
 22 49  1  0
 24 50  1  0
 24 51  1  0
 27 52  1  0
 28 53  1  0
 29 54  1  0
 30 55  1  0
 31 56  1  0
M  END
>  <smiles>  (4) 
O=C(Nc1nc(N2CCNCC2)nc(N2CCc3ccccc3C2)n1)c1ccccc1

>  <score_type>  (4) 
oracle

>  <origin>  (4) 
autodockgpu

>  <m_score__min__energy>  (4) 
-8.7400000000000002

>  <m_primary>  (4) 
energy

>  <rmsd>  (4) 
3.8567530007465223

>  <m_score__min__rmsd>  (4) 
3.8567530007465223

>  <meeko>  (4) 
{"free_energy": -8.45, "intermolecular_energy": -9.64, "internal_energy": -0.79, "cluster_size": 49, "cluster_id": 1, "rank_in_cluster": 46}

>  <energy>  (4) 
-8.74

>  <cluster_rmsd>  (4) 
0.18

>  <cluster>  (4) 
1

$$$$

     RDKit          3D

 56 60  0  0  0  0  0  0  0  0999 V2000
  139.5760   76.0950  222.6410 O   0  0  0  0  0  0  0  0  0  0  0  0
  140.7060   76.3660  222.1970 C   0  0  0  0  0  0  0  0  0  0  0  0
  141.4940   75.3210  221.6400 N   0  0  0  0  0  0  0  0  0  0  0  0
  140.9900   73.9950  221.5970 C   0  0  0  0  0  0  0  0  0  0  0  0
  140.8820   73.4020  220.3740 N   0  0  0  0  0  0  0  0  0  0  0  0
  140.4040   72.1420  220.3300 C   0  0  0  0  0  0  0  0  0  0  0  0
  140.2860   71.5140  219.0640 N   0  0  0  0  0  0  0  0  0  0  0  0
  139.5970   72.2420  218.0210 C   0  0  0  0  0  0  0  0  0  0  0  0
  139.3740   71.4700  216.7710 C   0  0  0  0  0  0  0  0  0  0  0  0
  140.3060   70.3830  216.5580 N   0  0  0  0  0  0  0  0  0  0  0  0
  140.3690   69.4840  217.6820 C   0  0  0  0  0  0  0  0  0  0  0  0
  140.8550   70.2050  218.9000 C   0  0  0  0  0  0  0  0  0  0  0  0
  140.0540   71.5150  221.4820 N   0  0  0  0  0  0  0  0  0  0  0  0
  140.1600   72.1000  222.6860 C   0  0  0  0  0  0  0  0  0  0  0  0
  139.7900   71.4350  223.8920 N   0  0  0  0  0  0  0  0  0  0  0  0
  138.5940   70.6110  223.9060 C   0  0  0  0  0  0  0  0  0  0  0  0
  139.0910   69.1890  224.1750 C   0  0  0  0  0  0  0  0  0  0  0  0
  139.7640   69.2540  225.5020 C   0  0  0  0  0  0  0  0  0  0  0  0
  139.6840   68.1540  226.3560 C   0  0  0  0  0  0  0  0  0  0  0  0
  140.2940   68.1620  227.6060 C   0  0  0  0  0  0  0  0  0  0  0  0
  140.9850   69.2880  227.9920 C   0  0  0  0  0  0  0  0  0  0  0  0
  141.0770   70.3990  227.1510 C   0  0  0  0  0  0  0  0  0  0  0  0
  140.4610   70.3750  225.9010 C   0  0  0  0  0  0  0  0  0  0  0  0
  140.6080   71.5940  225.0740 C   0  0  0  0  0  0  0  0  0  0  0  0
  140.6380   73.3560  222.7120 N   0  0  0  0  0  0  0  0  0  0  0  0
  141.1580   77.7500  222.2750 C   0  0  0  0  0  0  0  0  0  0  0  0
  141.4500   78.2730  223.5040 C   0  0  0  0  0  0  0  0  0  0  0  0
  141.8860   79.5710  223.6870 C   0  0  0  0  0  0  0  0  0  0  0  0
  142.0330   80.3810  222.5630 C   0  0  0  0  0  0  0  0  0  0  0  0
  141.7410   79.8680  221.3020 C   0  0  0  0  0  0  0  0  0  0  0  0
  141.3080   78.5610  221.1690 C   0  0  0  0  0  0  0  0  0  0  0  0
  142.4330   75.5230  221.2670 H   0  0  0  0  0  0  0  0  0  0  0  0
  138.6169   72.5544  218.4107 H   0  0  0  0  0  0  0  0  0  0  0  0
  140.2448   73.0895  217.7524 H   0  0  0  0  0  0  0  0  0  0  0  0
  138.3583   71.0491  216.8046 H   0  0  0  0  0  0  0  0  0  0  0  0
  139.5226   72.1746  215.9395 H   0  0  0  0  0  0  0  0  0  0  0  0
  139.9230   69.8340  215.7430 H   0  0  0  0  0  0  0  0  0  0  0  0
  139.3658   69.0774  217.8776 H   0  0  0  0  0  0  0  0  0  0  0  0
  141.0684   68.6680  217.4475 H   0  0  0  0  0  0  0  0  0  0  0  0
  140.6002   69.6027  219.7845 H   0  0  0  0  0  0  0  0  0  0  0  0
  141.9402   70.3397  218.7811 H   0  0  0  0  0  0  0  0  0  0  0  0
  137.9095   70.9378  224.7027 H   0  0  0  0  0  0  0  0  0  0  0  0
  138.0356   70.6799  222.9608 H   0  0  0  0  0  0  0  0  0  0  0  0
  138.2466   68.4847  224.2050 H   0  0  0  0  0  0  0  0  0  0  0  0
  139.7715   68.8357  223.3862 H   0  0  0  0  0  0  0  0  0  0  0  0
  139.1270   67.2617  226.0342 H   0  0  0  0  0  0  0  0  0  0  0  0
  140.2257   67.2884  228.2709 H   0  0  0  0  0  0  0  0  0  0  0  0
  141.4722   69.3131  228.9779 H   0  0  0  0  0  0  0  0  0  0  0  0
  141.6341   71.2907  227.4742 H   0  0  0  0  0  0  0  0  0  0  0  0
  140.2737   72.4737  225.6435 H   0  0  0  0  0  0  0  0  0  0  0  0
  141.6614   71.7393  224.7924 H   0  0  0  0  0  0  0  0  0  0  0  0
  141.3322   77.6300  224.3887 H   0  0  0  0  0  0  0  0  0  0  0  0
  142.1111   79.9547  224.6930 H   0  0  0  0  0  0  0  0  0  0  0  0
  142.3778   81.4199  222.6712 H   0  0  0  0  0  0  0  0  0  0  0  0
  141.8547   80.5026  220.4107 H   0  0  0  0  0  0  0  0  0  0  0  0
  141.0804   78.1633  220.1690 H   0  0  0  0  0  0  0  0  0  0  0  0
  1  2  2  0
  2  3  1  0
  3  4  1  0
  4  5  2  0
  5  6  1  0
  6  7  1  0
  7  8  1  0
  8  9  1  0
  9 10  1  0
 10 11  1  0
 11 12  1  0
  6 13  2  0
 13 14  1  0
 14 15  1  0
 15 16  1  0
 16 17  1  0
 17 18  1  0
 18 19  2  0
 19 20  1  0
 20 21  2  0
 21 22  1  0
 22 23  2  0
 23 24  1  0
 14 25  2  0
  2 26  1  0
 26 27  2  0
 27 28  1  0
 28 29  2  0
 29 30  1  0
 30 31  2  0
 25  4  1  0
 31 26  1  0
 12  7  1  0
 24 15  1  0
 23 18  1  0
  3 32  1  0
  8 33  1  0
  8 34  1  0
  9 35  1  0
  9 36  1  0
 10 37  1  0
 11 38  1  0
 11 39  1  0
 12 40  1  0
 12 41  1  0
 16 42  1  0
 16 43  1  0
 17 44  1  0
 17 45  1  0
 19 46  1  0
 20 47  1  0
 21 48  1  0
 22 49  1  0
 24 50  1  0
 24 51  1  0
 27 52  1  0
 28 53  1  0
 29 54  1  0
 30 55  1  0
 31 56  1  0
M  END
>  <smiles>  (5) 
O=C(Nc1nc(N2CCNCC2)nc(N2CCc3ccccc3C2)n1)c1ccccc1

>  <score_type>  (5) 
oracle

>  <origin>  (5) 
autodockgpu

>  <m_score__min__energy>  (5) 
-8.7400000000000002

>  <m_primary>  (5) 
energy

>  <rmsd>  (5) 
3.8406467462405294

>  <m_score__min__rmsd>  (5) 
3.8406467462405294

>  <meeko>  (5) 
{"free_energy": -8.73, "intermolecular_energy": -9.93, "internal_energy": -0.81, "cluster_size": 49, "cluster_id": 1, "rank_in_cluster": 9}

>  <energy>  (5) 
-8.74

>  <cluster_rmsd>  (5) 
0.19

>  <cluster>  (5) 
1

$$$$

     RDKit          3D

 56 60  0  0  0  0  0  0  0  0999 V2000
  139.5560   76.0500  222.6680 O   0  0  0  0  0  0  0  0  0  0  0  0
  140.6700   76.3580  222.2070 C   0  0  0  0  0  0  0  0  0  0  0  0
  141.4800   75.3400  221.6330 N   0  0  0  0  0  0  0  0  0  0  0  0
  141.0170   73.9980  221.5920 C   0  0  0  0  0  0  0  0  0  0  0  0
  140.9750   73.3830  220.3770 N   0  0  0  0  0  0  0  0  0  0  0  0
  140.5360   72.1090  220.3360 C   0  0  0  0  0  0  0  0  0  0  0  0
  140.4870   71.4570  219.0770 N   0  0  0  0  0  0  0  0  0  0  0  0
  139.8220   72.1500  217.9940 C   0  0  0  0  0  0  0  0  0  0  0  0
  139.6710   71.3510  216.7490 C   0  0  0  0  0  0  0  0  0  0  0  0
  140.6400   70.2870  216.5940 N   0  0  0  0  0  0  0  0  0  0  0  0
  140.6810   69.4080  217.7350 C   0  0  0  0  0  0  0  0  0  0  0  0
  141.0970   70.1620  218.9580 C   0  0  0  0  0  0  0  0  0  0  0  0
  140.1580   71.4910  221.4830 N   0  0  0  0  0  0  0  0  0  0  0  0
  140.2000   72.0980  222.6800 C   0  0  0  0  0  0  0  0  0  0  0  0
  139.8010   71.4420  223.8820 N   0  0  0  0  0  0  0  0  0  0  0  0
  138.5870   70.6440  223.8830 C   0  0  0  0  0  0  0  0  0  0  0  0
  139.0490   69.2120  224.1570 C   0  0  0  0  0  0  0  0  0  0  0  0
  139.7080   69.2630  225.4920 C   0  0  0  0  0  0  0  0  0  0  0  0
  139.5940   68.1650  226.3450 C   0  0  0  0  0  0  0  0  0  0  0  0
  140.1890   68.1600  227.6020 C   0  0  0  0  0  0  0  0  0  0  0  0
  140.9010   69.2700  227.9950 C   0  0  0  0  0  0  0  0  0  0  0  0
  141.0270   70.3790  227.1560 C   0  0  0  0  0  0  0  0  0  0  0  0
  140.4250   70.3670  225.8990 C   0  0  0  0  0  0  0  0  0  0  0  0
  140.6080   71.5820  225.0730 C   0  0  0  0  0  0  0  0  0  0  0  0
  140.6390   73.3680  222.7040 N   0  0  0  0  0  0  0  0  0  0  0  0
  141.0810   77.7550  222.2830 C   0  0  0  0  0  0  0  0  0  0  0  0
  141.4420   78.2640  223.4990 C   0  0  0  0  0  0  0  0  0  0  0  0
  141.8460   79.5720  223.6790 C   0  0  0  0  0  0  0  0  0  0  0  0
  141.8850   80.4080  222.5660 C   0  0  0  0  0  0  0  0  0  0  0  0
  141.5210   79.9100  221.3180 C   0  0  0  0  0  0  0  0  0  0  0  0
  141.1230   78.5920  221.1870 C   0  0  0  0  0  0  0  0  0  0  0  0
  142.4070   75.5720  221.2450 H   0  0  0  0  0  0  0  0  0  0  0  0
  138.8189   72.4422  218.3381 H   0  0  0  0  0  0  0  0  0  0  0  0
  140.4573   73.0105  217.7374 H   0  0  0  0  0  0  0  0  0  0  0  0
  138.6665   70.9028  216.7488 H   0  0  0  0  0  0  0  0  0  0  0  0
  139.8341   72.0453  215.9116 H   0  0  0  0  0  0  0  0  0  0  0  0
  140.3060   69.7150  215.7740 H   0  0  0  0  0  0  0  0  0  0  0  0
  139.6819   68.9771  217.8969 H   0  0  0  0  0  0  0  0  0  0  0  0
  141.4107   68.6075  217.5433 H   0  0  0  0  0  0  0  0  0  0  0  0
  140.8231   69.5672  219.8418 H   0  0  0  0  0  0  0  0  0  0  0  0
  142.1820   70.3253  218.8797 H   0  0  0  0  0  0  0  0  0  0  0  0
  137.9013   70.9858  224.6723 H   0  0  0  0  0  0  0  0  0  0  0  0
  138.0409   70.7250  222.9316 H   0  0  0  0  0  0  0  0  0  0  0  0
  138.1890   68.5264  224.1773 H   0  0  0  0  0  0  0  0  0  0  0  0
  139.7302   68.8432  223.3760 H   0  0  0  0  0  0  0  0  0  0  0  0
  139.0216   67.2849  226.0165 H   0  0  0  0  0  0  0  0  0  0  0  0
  140.0927   67.2889  228.2667 H   0  0  0  0  0  0  0  0  0  0  0  0
  141.3785   69.2839  228.9858 H   0  0  0  0  0  0  0  0  0  0  0  0
  141.5991   71.2587  227.4858 H   0  0  0  0  0  0  0  0  0  0  0  0
  140.2869   72.4691  225.6387 H   0  0  0  0  0  0  0  0  0  0  0  0
  141.6675   71.7028  224.8030 H   0  0  0  0  0  0  0  0  0  0  0  0
  141.4092   77.6003  224.3756 H   0  0  0  0  0  0  0  0  0  0  0  0
  142.1294   79.9437  224.6748 H   0  0  0  0  0  0  0  0  0  0  0  0
  142.2017   81.4560  222.6723 H   0  0  0  0  0  0  0  0  0  0  0  0
  141.5500   80.5655  220.4351 H   0  0  0  0  0  0  0  0  0  0  0  0
  140.8366   78.2065  220.1974 H   0  0  0  0  0  0  0  0  0  0  0  0
  1  2  2  0
  2  3  1  0
  3  4  1  0
  4  5  2  0
  5  6  1  0
  6  7  1  0
  7  8  1  0
  8  9  1  0
  9 10  1  0
 10 11  1  0
 11 12  1  0
  6 13  2  0
 13 14  1  0
 14 15  1  0
 15 16  1  0
 16 17  1  0
 17 18  1  0
 18 19  2  0
 19 20  1  0
 20 21  2  0
 21 22  1  0
 22 23  2  0
 23 24  1  0
 14 25  2  0
  2 26  1  0
 26 27  2  0
 27 28  1  0
 28 29  2  0
 29 30  1  0
 30 31  2  0
 25  4  1  0
 31 26  1  0
 12  7  1  0
 24 15  1  0
 23 18  1  0
  3 32  1  0
  8 33  1  0
  8 34  1  0
  9 35  1  0
  9 36  1  0
 10 37  1  0
 11 38  1  0
 11 39  1  0
 12 40  1  0
 12 41  1  0
 16 42  1  0
 16 43  1  0
 17 44  1  0
 17 45  1  0
 19 46  1  0
 20 47  1  0
 21 48  1  0
 22 49  1  0
 24 50  1  0
 24 51  1  0
 27 52  1  0
 28 53  1  0
 29 54  1  0
 30 55  1  0
 31 56  1  0
M  END
>  <smiles>  (6) 
O=C(Nc1nc(N2CCNCC2)nc(N2CCc3ccccc3C2)n1)c1ccccc1

>  <score_type>  (6) 
oracle

>  <origin>  (6) 
autodockgpu

>  <m_score__min__energy>  (6) 
-8.7400000000000002

>  <m_primary>  (6) 
energy

>  <rmsd>  (6) 
3.8380869362397725

>  <m_score__min__rmsd>  (6) 
3.8380869362397725

>  <meeko>  (6) 
{"free_energy": -8.74, "intermolecular_energy": -9.94, "internal_energy": -0.8, "cluster_size": 49, "cluster_id": 1, "rank_in_cluster": 1}

>  <energy>  (6) 
-8.74

>  <cluster_rmsd>  (6) 
0.25

>  <cluster>  (6) 
1

$$$$

     RDKit          3D

 56 60  0  0  0  0  0  0  0  0999 V2000
  139.4950   76.1310  222.5340 O   0  0  0  0  0  0  0  0  0  0  0  0
  140.6520   76.3920  222.1560 C   0  0  0  0  0  0  0  0  0  0  0  0
  141.4640   75.3390  221.6530 N   0  0  0  0  0  0  0  0  0  0  0  0
  140.9540   74.0150  221.5880 C   0  0  0  0  0  0  0  0  0  0  0  0
  140.8400   73.4440  220.3560 N   0  0  0  0  0  0  0  0  0  0  0  0
  140.3580   72.1870  220.2910 C   0  0  0  0  0  0  0  0  0  0  0  0
  140.2340   71.5820  219.0150 N   0  0  0  0  0  0  0  0  0  0  0  0
  139.4700   72.2920  218.0120 C   0  0  0  0  0  0  0  0  0  0  0  0
  139.2490   71.5370  216.7510 C   0  0  0  0  0  0  0  0  0  0  0  0
  140.2350   70.5110  216.4830 N   0  0  0  0  0  0  0  0  0  0  0  0
  140.3860   69.5910  217.5810 C   0  0  0  0  0  0  0  0  0  0  0  0
  140.8700   70.3120  218.8000 C   0  0  0  0  0  0  0  0  0  0  0  0
  140.0080   71.5420  221.4320 N   0  0  0  0  0  0  0  0  0  0  0  0
  140.1210   72.1050  222.6460 C   0  0  0  0  0  0  0  0  0  0  0  0
  139.7510   71.4200  223.8420 N   0  0  0  0  0  0  0  0  0  0  0  0
  138.5940   70.5430  223.8250 C   0  0  0  0  0  0  0  0  0  0  0  0
  139.1470   69.1440  224.1030 C   0  0  0  0  0  0  0  0  0  0  0  0
  139.7840   69.2360  225.4470 C   0  0  0  0  0  0  0  0  0  0  0  0
  139.7330   68.1310  226.2960 C   0  0  0  0  0  0  0  0  0  0  0  0
  140.3100   68.1620  227.5610 C   0  0  0  0  0  0  0  0  0  0  0  0
  140.9410   69.3170  227.9650 C   0  0  0  0  0  0  0  0  0  0  0  0
  141.0040   70.4340  227.1290 C   0  0  0  0  0  0  0  0  0  0  0  0
  140.4200   70.3850  225.8640 C   0  0  0  0  0  0  0  0  0  0  0  0
  140.5320   71.6120  225.0440 C   0  0  0  0  0  0  0  0  0  0  0  0
  140.6030   73.3580  222.6930 N   0  0  0  0  0  0  0  0  0  0  0  0
  141.1080   77.7730  222.2520 C   0  0  0  0  0  0  0  0  0  0  0  0
  141.4490   78.2640  223.4820 C   0  0  0  0  0  0  0  0  0  0  0  0
  141.8930   79.5570  223.6810 C   0  0  0  0  0  0  0  0  0  0  0  0
  141.9950   80.3960  222.5740 C   0  0  0  0  0  0  0  0  0  0  0  0
  141.6530   79.9160  221.3130 C   0  0  0  0  0  0  0  0  0  0  0  0
  141.2130   78.6130  221.1630 C   0  0  0  0  0  0  0  0  0  0  0  0
  142.4250   75.5320  221.3350 H   0  0  0  0  0  0  0  0  0  0  0  0
  138.4874   72.5387  218.4405 H   0  0  0  0  0  0  0  0  0  0  0  0
  140.0598   73.1807  217.7431 H   0  0  0  0  0  0  0  0  0  0  0  0
  138.2608   71.0571  216.8069 H   0  0  0  0  0  0  0  0  0  0  0  0
  139.3278   72.2672  215.9321 H   0  0  0  0  0  0  0  0  0  0  0  0
  139.8570   69.9590  215.6670 H   0  0  0  0  0  0  0  0  0  0  0  0
  139.4147   69.1226  217.7981 H   0  0  0  0  0  0  0  0  0  0  0  0
  141.1220   68.8216  217.3045 H   0  0  0  0  0  0  0  0  0  0  0  0
  140.6795   69.6762  219.6772 H   0  0  0  0  0  0  0  0  0  0  0  0
  141.9410   70.5123  218.6488 H   0  0  0  0  0  0  0  0  0  0  0  0
  137.8763   70.8362  224.6053 H   0  0  0  0  0  0  0  0  0  0  0  0
  138.0568   70.5897  222.8662 H   0  0  0  0  0  0  0  0  0  0  0  0
  138.3345   68.4026  224.1111 H   0  0  0  0  0  0  0  0  0  0  0  0
  139.8613   68.8231  223.3304 H   0  0  0  0  0  0  0  0  0  0  0  0
  139.2256   67.2154  225.9580 H   0  0  0  0  0  0  0  0  0  0  0  0
  140.2633   67.2847  228.2229 H   0  0  0  0  0  0  0  0  0  0  0  0
  141.4030   69.3608  228.9623 H   0  0  0  0  0  0  0  0  0  0  0  0
  141.5124   71.3489  227.4673 H   0  0  0  0  0  0  0  0  0  0  0  0
  140.1444   72.4738  225.6071 H   0  0  0  0  0  0  0  0  0  0  0  0
  141.5843   71.8059  224.7887 H   0  0  0  0  0  0  0  0  0  0  0  0
  141.3659   77.5982  224.3537 H   0  0  0  0  0  0  0  0  0  0  0  0
  142.1589   79.9143  224.6868 H   0  0  0  0  0  0  0  0  0  0  0  0
  142.3438   81.4321  222.6955 H   0  0  0  0  0  0  0  0  0  0  0  0
  141.7327   80.5735  220.4347 H   0  0  0  0  0  0  0  0  0  0  0  0
  140.9436   78.2423  220.1630 H   0  0  0  0  0  0  0  0  0  0  0  0
  1  2  2  0
  2  3  1  0
  3  4  1  0
  4  5  2  0
  5  6  1  0
  6  7  1  0
  7  8  1  0
  8  9  1  0
  9 10  1  0
 10 11  1  0
 11 12  1  0
  6 13  2  0
 13 14  1  0
 14 15  1  0
 15 16  1  0
 16 17  1  0
 17 18  1  0
 18 19  2  0
 19 20  1  0
 20 21  2  0
 21 22  1  0
 22 23  2  0
 23 24  1  0
 14 25  2  0
  2 26  1  0
 26 27  2  0
 27 28  1  0
 28 29  2  0
 29 30  1  0
 30 31  2  0
 25  4  1  0
 31 26  1  0
 12  7  1  0
 24 15  1  0
 23 18  1  0
  3 32  1  0
  8 33  1  0
  8 34  1  0
  9 35  1  0
  9 36  1  0
 10 37  1  0
 11 38  1  0
 11 39  1  0
 12 40  1  0
 12 41  1  0
 16 42  1  0
 16 43  1  0
 17 44  1  0
 17 45  1  0
 19 46  1  0
 20 47  1  0
 21 48  1  0
 22 49  1  0
 24 50  1  0
 24 51  1  0
 27 52  1  0
 28 53  1  0
 29 54  1  0
 30 55  1  0
 31 56  1  0
M  END
>  <smiles>  (7) 
O=C(Nc1nc(N2CCNCC2)nc(N2CCc3ccccc3C2)n1)c1ccccc1

>  <score_type>  (7) 
oracle

>  <origin>  (7) 
autodockgpu

>  <m_score__min__energy>  (7) 
-8.7400000000000002

>  <m_primary>  (7) 
energy

>  <rmsd>  (7) 
3.8387336811734483

>  <m_score__min__rmsd>  (7) 
3.8387336811734483

>  <meeko>  (7) 
{"free_energy": -8.72, "intermolecular_energy": -9.92, "internal_energy": -0.81, "cluster_size": 49, "cluster_id": 1, "rank_in_cluster": 22}

>  <energy>  (7) 
-8.74

>  <cluster_rmsd>  (7) 
0.21

>  <cluster>  (7) 
1

$$$$

     RDKit          3D

 56 60  0  0  0  0  0  0  0  0999 V2000
  139.4310   75.9110  222.6920 O   0  0  0  0  0  0  0  0  0  0  0  0
  140.5100   76.3300  222.2360 C   0  0  0  0  0  0  0  0  0  0  0  0
  141.4170   75.4010  221.6570 N   0  0  0  0  0  0  0  0  0  0  0  0
  141.0880   74.0210  221.6040 C   0  0  0  0  0  0  0  0  0  0  0  0
  141.2350   73.3830  220.4090 N   0  0  0  0  0  0  0  0  0  0  0  0
  140.9240   72.0720  220.3580 C   0  0  0  0  0  0  0  0  0  0  0  0
  141.0720   71.3970  219.1190 N   0  0  0  0  0  0  0  0  0  0  0  0
  139.9950   70.5260  218.7020 C   0  0  0  0  0  0  0  0  0  0  0  0
  140.2780   69.7330  217.4760 C   0  0  0  0  0  0  0  0  0  0  0  0
  141.2750   70.3130  216.6010 N   0  0  0  0  0  0  0  0  0  0  0  0
  142.5070   70.6070  217.2870 C   0  0  0  0  0  0  0  0  0  0  0  0
  142.2740   71.6190  218.3640 C   0  0  0  0  0  0  0  0  0  0  0  0
  140.4820   71.4410  221.4750 N   0  0  0  0  0  0  0  0  0  0  0  0
  140.3380   72.0700  222.6520 C   0  0  0  0  0  0  0  0  0  0  0  0
  139.8730   71.4010  223.8230 N   0  0  0  0  0  0  0  0  0  0  0  0
  138.6960   70.5540  223.7330 C   0  0  0  0  0  0  0  0  0  0  0  0
  139.1920   69.1430  224.0490 C   0  0  0  0  0  0  0  0  0  0  0  0
  139.7430   69.2220  225.4310 C   0  0  0  0  0  0  0  0  0  0  0  0
  139.6080   68.1220  226.2770 C   0  0  0  0  0  0  0  0  0  0  0  0
  140.1030   68.1430  227.5770 C   0  0  0  0  0  0  0  0  0  0  0  0
  140.7380   69.2820  228.0190 C   0  0  0  0  0  0  0  0  0  0  0  0
  140.8840   70.3930  227.1860 C   0  0  0  0  0  0  0  0  0  0  0  0
  140.3820   70.3560  225.8860 C   0  0  0  0  0  0  0  0  0  0  0  0
  140.5800   71.5760  225.0720 C   0  0  0  0  0  0  0  0  0  0  0  0
  140.6520   73.3760  222.6870 N   0  0  0  0  0  0  0  0  0  0  0  0
  140.7820   77.7590  222.3240 C   0  0  0  0  0  0  0  0  0  0  0  0
  139.9550   78.5350  223.0890 C   0  0  0  0  0  0  0  0  0  0  0  0
  140.1250   79.8980  223.2390 C   0  0  0  0  0  0  0  0  0  0  0  0
  141.1890   80.5050  222.5760 C   0  0  0  0  0  0  0  0  0  0  0  0
  142.0430   79.7340  221.7920 C   0  0  0  0  0  0  0  0  0  0  0  0
  141.8320   78.3720  221.6730 C   0  0  0  0  0  0  0  0  0  0  0  0
  142.3170   75.7250  221.2730 H   0  0  0  0  0  0  0  0  0  0  0  0
  139.7838   69.8248  219.5228 H   0  0  0  0  0  0  0  0  0  0  0  0
  139.1427   71.1783  218.4609 H   0  0  0  0  0  0  0  0  0  0  0  0
  140.6296   68.7374  217.7846 H   0  0  0  0  0  0  0  0  0  0  0  0
  139.3402   69.7000  216.9021 H   0  0  0  0  0  0  0  0  0  0  0  0
  141.4900   69.5700  215.8830 H   0  0  0  0  0  0  0  0  0  0  0  0
  142.9013   69.6836  217.7362 H   0  0  0  0  0  0  0  0  0  0  0  0
  143.2300   71.0138  216.5647 H   0  0  0  0  0  0  0  0  0  0  0  0
  143.1283   71.5914  219.0563 H   0  0  0  0  0  0  0  0  0  0  0  0
  142.1648   72.5948  217.8681 H   0  0  0  0  0  0  0  0  0  0  0  0
  137.9373   70.8690  224.4646 H   0  0  0  0  0  0  0  0  0  0  0  0
  138.2235   70.6110  222.7413 H   0  0  0  0  0  0  0  0  0  0  0  0
  138.3611   68.4235  224.0057 H   0  0  0  0  0  0  0  0  0  0  0  0
  139.9462   68.8010  223.3250 H   0  0  0  0  0  0  0  0  0  0  0  0
  139.0995   67.2187  225.9089 H   0  0  0  0  0  0  0  0  0  0  0  0
  139.9897   67.2699  228.2365 H   0  0  0  0  0  0  0  0  0  0  0  0
  141.1363   69.3172  229.0438 H   0  0  0  0  0  0  0  0  0  0  0  0
  141.3939   71.2953  227.5546 H   0  0  0  0  0  0  0  0  0  0  0  0
  140.1811   72.4503  225.6072 H   0  0  0  0  0  0  0  0  0  0  0  0
  141.6514   71.7397  224.8843 H   0  0  0  0  0  0  0  0  0  0  0  0
  139.1152   78.0512  223.6092 H   0  0  0  0  0  0  0  0  0  0  0  0
  139.4389   80.4876  223.8648 H   0  0  0  0  0  0  0  0  0  0  0  0
  141.3538   81.5884  222.6714 H   0  0  0  0  0  0  0  0  0  0  0  0
  142.8856   80.2079  221.2672 H   0  0  0  0  0  0  0  0  0  0  0  0
  142.5107   77.7700  221.0509 H   0  0  0  0  0  0  0  0  0  0  0  0
  1  2  2  0
  2  3  1  0
  3  4  1  0
  4  5  2  0
  5  6  1  0
  6  7  1  0
  7  8  1  0
  8  9  1  0
  9 10  1  0
 10 11  1  0
 11 12  1  0
  6 13  2  0
 13 14  1  0
 14 15  1  0
 15 16  1  0
 16 17  1  0
 17 18  1  0
 18 19  2  0
 19 20  1  0
 20 21  2  0
 21 22  1  0
 22 23  2  0
 23 24  1  0
 14 25  2  0
  2 26  1  0
 26 27  2  0
 27 28  1  0
 28 29  2  0
 29 30  1  0
 30 31  2  0
 25  4  1  0
 31 26  1  0
 12  7  1  0
 24 15  1  0
 23 18  1  0
  3 32  1  0
  8 33  1  0
  8 34  1  0
  9 35  1  0
  9 36  1  0
 10 37  1  0
 11 38  1  0
 11 39  1  0
 12 40  1  0
 12 41  1  0
 16 42  1  0
 16 43  1  0
 17 44  1  0
 17 45  1  0
 19 46  1  0
 20 47  1  0
 21 48  1  0
 22 49  1  0
 24 50  1  0
 24 51  1  0
 27 52  1  0
 28 53  1  0
 29 54  1  0
 30 55  1  0
 31 56  1  0
M  END
>  <smiles>  (8) 
O=C(Nc1nc(N2CCNCC2)nc(N2CCc3ccccc3C2)n1)c1ccccc1

>  <score_type>  (8) 
oracle

>  <origin>  (8) 
autodockgpu

>  <m_score__min__energy>  (8) 
-8.7400000000000002

>  <m_primary>  (8) 
energy

>  <rmsd>  (8) 
3.8526269222856984

>  <m_score__min__rmsd>  (8) 
3.8526269222856984

>  <meeko>  (8) 
{"free_energy": -8.47, "intermolecular_energy": -9.66, "internal_energy": -0.79, "cluster_size": 49, "cluster_id": 1, "rank_in_cluster": 45}

>  <energy>  (8) 
-8.74

>  <cluster_rmsd>  (8) 
0.22

>  <cluster>  (8) 
1

$$$$

     RDKit          3D

 56 60  0  0  0  0  0  0  0  0999 V2000
  139.5850   76.0450  222.6570 O   0  0  0  0  0  0  0  0  0  0  0  0
  140.6980   76.3510  222.1900 C   0  0  0  0  0  0  0  0  0  0  0  0
  141.5050   75.3300  221.6160 N   0  0  0  0  0  0  0  0  0  0  0  0
  141.0400   73.9890  221.5810 C   0  0  0  0  0  0  0  0  0  0  0  0
  140.9910   73.3720  220.3670 N   0  0  0  0  0  0  0  0  0  0  0  0
  140.5510   72.0970  220.3310 C   0  0  0  0  0  0  0  0  0  0  0  0
  140.4950   71.4430  219.0740 N   0  0  0  0  0  0  0  0  0  0  0  0
  140.8420   72.2200  217.9030 C   0  0  0  0  0  0  0  0  0  0  0  0
  140.6160   71.5240  216.6090 C   0  0  0  0  0  0  0  0  0  0  0  0
  140.6300   70.0780  216.6910 N   0  0  0  0  0  0  0  0  0  0  0  0
  139.7150   69.5740  217.6830 C   0  0  0  0  0  0  0  0  0  0  0  0
  140.1000   70.0630  219.0440 C   0  0  0  0  0  0  0  0  0  0  0  0
  140.1790   71.4820  221.4810 N   0  0  0  0  0  0  0  0  0  0  0  0
  140.2270   72.0920  222.6770 C   0  0  0  0  0  0  0  0  0  0  0  0
  139.8340   71.4380  223.8820 N   0  0  0  0  0  0  0  0  0  0  0  0
  138.6250   70.6350  223.8890 C   0  0  0  0  0  0  0  0  0  0  0  0
  139.0930   69.2060  224.1680 C   0  0  0  0  0  0  0  0  0  0  0  0
  139.7550   69.2650  225.5010 C   0  0  0  0  0  0  0  0  0  0  0  0
  139.6490   68.1700  226.3580 C   0  0  0  0  0  0  0  0  0  0  0  0
  140.2470   68.1730  227.6140 C   0  0  0  0  0  0  0  0  0  0  0  0
  140.9550   69.2880  228.0020 C   0  0  0  0  0  0  0  0  0  0  0  0
  141.0740   70.3940  227.1570 C   0  0  0  0  0  0  0  0  0  0  0  0
  140.4680   70.3750  225.9020 C   0  0  0  0  0  0  0  0  0  0  0  0
  140.6440   71.5870  225.0710 C   0  0  0  0  0  0  0  0  0  0  0  0
  140.6680   73.3610  222.6950 N   0  0  0  0  0  0  0  0  0  0  0  0
  141.1090   77.7470  222.2610 C   0  0  0  0  0  0  0  0  0  0  0  0
  141.4690   78.2610  223.4760 C   0  0  0  0  0  0  0  0  0  0  0  0
  141.8740   79.5700  223.6510 C   0  0  0  0  0  0  0  0  0  0  0  0
  141.9160   80.4010  222.5340 C   0  0  0  0  0  0  0  0  0  0  0  0
  141.5550   79.8980  221.2870 C   0  0  0  0  0  0  0  0  0  0  0  0
  141.1550   78.5800  221.1620 C   0  0  0  0  0  0  0  0  0  0  0  0
  142.4300   75.5610  221.2240 H   0  0  0  0  0  0  0  0  0  0  0  0
  140.2366   73.1384  217.9089 H   0  0  0  0  0  0  0  0  0  0  0  0
  141.9226   72.4151  217.9674 H   0  0  0  0  0  0  0  0  0  0  0  0
  139.6362   71.8359  216.2183 H   0  0  0  0  0  0  0  0  0  0  0  0
  141.4524   71.8069  215.9529 H   0  0  0  0  0  0  0  0  0  0  0  0
  140.2890   69.7360  215.7530 H   0  0  0  0  0  0  0  0  0  0  0  0
  138.6980   69.9208  217.4475 H   0  0  0  0  0  0  0  0  0  0  0  0
  139.7506   68.4746  217.6755 H   0  0  0  0  0  0  0  0  0  0  0  0
  139.2381   69.9344  219.7153 H   0  0  0  0  0  0  0  0  0  0  0  0
  140.9727   69.4732  219.3612 H   0  0  0  0  0  0  0  0  0  0  0  0
  137.9395   70.9772  224.6783 H   0  0  0  0  0  0  0  0  0  0  0  0
  138.0771   70.7094  222.9381 H   0  0  0  0  0  0  0  0  0  0  0  0
  138.2356   68.5173  224.1933 H   0  0  0  0  0  0  0  0  0  0  0  0
  139.7737   68.8365  223.3869 H   0  0  0  0  0  0  0  0  0  0  0  0
  139.0808   67.2856  226.0341 H   0  0  0  0  0  0  0  0  0  0  0  0
  140.1561   67.3039  228.2821 H   0  0  0  0  0  0  0  0  0  0  0  0
  141.4341   69.3084  228.9920 H   0  0  0  0  0  0  0  0  0  0  0  0
  141.6442   71.2771  227.4811 H   0  0  0  0  0  0  0  0  0  0  0  0
  140.3205   72.4751  225.6337 H   0  0  0  0  0  0  0  0  0  0  0  0
  141.7023   71.7116  224.7981 H   0  0  0  0  0  0  0  0  0  0  0  0
  141.4344   77.6010  224.3553 H   0  0  0  0  0  0  0  0  0  0  0  0
  142.1557   79.9459  224.6456 H   0  0  0  0  0  0  0  0  0  0  0  0
  142.2328   81.4494  222.6366 H   0  0  0  0  0  0  0  0  0  0  0  0
  141.5879   80.5490  220.4010 H   0  0  0  0  0  0  0  0  0  0  0  0
  140.8698   78.1907  220.1735 H   0  0  0  0  0  0  0  0  0  0  0  0
  1  2  2  0
  2  3  1  0
  3  4  1  0
  4  5  2  0
  5  6  1  0
  6  7  1  0
  7  8  1  0
  8  9  1  0
  9 10  1  0
 10 11  1  0
 11 12  1  0
  6 13  2  0
 13 14  1  0
 14 15  1  0
 15 16  1  0
 16 17  1  0
 17 18  1  0
 18 19  2  0
 19 20  1  0
 20 21  2  0
 21 22  1  0
 22 23  2  0
 23 24  1  0
 14 25  2  0
  2 26  1  0
 26 27  2  0
 27 28  1  0
 28 29  2  0
 29 30  1  0
 30 31  2  0
 25  4  1  0
 31 26  1  0
 12  7  1  0
 24 15  1  0
 23 18  1  0
  3 32  1  0
  8 33  1  0
  8 34  1  0
  9 35  1  0
  9 36  1  0
 10 37  1  0
 11 38  1  0
 11 39  1  0
 12 40  1  0
 12 41  1  0
 16 42  1  0
 16 43  1  0
 17 44  1  0
 17 45  1  0
 19 46  1  0
 20 47  1  0
 21 48  1  0
 22 49  1  0
 24 50  1  0
 24 51  1  0
 27 52  1  0
 28 53  1  0
 29 54  1  0
 30 55  1  0
 31 56  1  0
M  END
>  <smiles>  (9) 
O=C(Nc1nc(N2CCNCC2)nc(N2CCc3ccccc3C2)n1)c1ccccc1

>  <score_type>  (9) 
oracle

>  <origin>  (9) 
autodockgpu

>  <m_score__min__energy>  (9) 
-8.7400000000000002

>  <m_primary>  (9) 
energy

>  <rmsd>  (9) 
3.8421017831653903

>  <m_score__min__rmsd>  (9) 
3.8421017831653903

>  <meeko>  (9) 
{"free_energy": -8.72, "intermolecular_energy": -9.91, "internal_energy": -0.81, "cluster_size": 49, "cluster_id": 1, "rank_in_cluster": 24}

>  <energy>  (9) 
-8.73

>  <cluster_rmsd>  (9) 
0.16

>  <cluster>  (9) 
1

$$$$

     RDKit          3D

 56 60  0  0  0  0  0  0  0  0999 V2000
  139.5200   76.1340  222.5530 O   0  0  0  0  0  0  0  0  0  0  0  0
  140.6760   76.3810  222.1650 C   0  0  0  0  0  0  0  0  0  0  0  0
  141.4710   75.3180  221.6550 N   0  0  0  0  0  0  0  0  0  0  0  0
  140.9450   74.0000  221.5950 C   0  0  0  0  0  0  0  0  0  0  0  0
  140.8020   73.4360  220.3630 N   0  0  0  0  0  0  0  0  0  0  0  0
  140.3030   72.1840  220.3030 C   0  0  0  0  0  0  0  0  0  0  0  0
  140.1490   71.5850  219.0270 N   0  0  0  0  0  0  0  0  0  0  0  0
  139.2370   72.2180  218.0990 C   0  0  0  0  0  0  0  0  0  0  0  0
  139.0050   71.4590  216.8430 C   0  0  0  0  0  0  0  0  0  0  0  0
  140.0740   70.5520  216.4800 N   0  0  0  0  0  0  0  0  0  0  0  0
  140.4090   69.6410  217.5450 C   0  0  0  0  0  0  0  0  0  0  0  0
  140.9030   70.3960  218.7390 C   0  0  0  0  0  0  0  0  0  0  0  0
  139.9670   71.5390  221.4480 N   0  0  0  0  0  0  0  0  0  0  0  0
  140.1080   72.0960  222.6610 C   0  0  0  0  0  0  0  0  0  0  0  0
  139.7520   71.4120  223.8610 N   0  0  0  0  0  0  0  0  0  0  0  0
  138.6000   70.5280  223.8560 C   0  0  0  0  0  0  0  0  0  0  0  0
  139.1640   69.1330  224.1320 C   0  0  0  0  0  0  0  0  0  0  0  0
  139.8110   69.2310  225.4700 C   0  0  0  0  0  0  0  0  0  0  0  0
  139.7730   68.1270  226.3220 C   0  0  0  0  0  0  0  0  0  0  0  0
  140.3610   68.1640  227.5820 C   0  0  0  0  0  0  0  0  0  0  0  0
  140.9880   69.3230  227.9790 C   0  0  0  0  0  0  0  0  0  0  0  0
  141.0370   70.4390  227.1400 C   0  0  0  0  0  0  0  0  0  0  0  0
  140.4430   70.3840  225.8800 C   0  0  0  0  0  0  0  0  0  0  0  0
  140.5420   71.6100  225.0570 C   0  0  0  0  0  0  0  0  0  0  0  0
  140.6060   73.3440  222.7040 N   0  0  0  0  0  0  0  0  0  0  0  0
  141.1490   77.7570  222.2570 C   0  0  0  0  0  0  0  0  0  0  0  0
  141.4490   78.2630  223.4910 C   0  0  0  0  0  0  0  0  0  0  0  0
  141.9050   79.5520  223.6870 C   0  0  0  0  0  0  0  0  0  0  0  0
  142.0640   80.3710  222.5710 C   0  0  0  0  0  0  0  0  0  0  0  0
  141.7650   79.8750  221.3050 C   0  0  0  0  0  0  0  0  0  0  0  0
  141.3120   78.5760  221.1590 C   0  0  0  0  0  0  0  0  0  0  0  0
  142.4310   75.4990  221.3280 H   0  0  0  0  0  0  0  0  0  0  0  0
  138.2689   72.3482  218.6047 H   0  0  0  0  0  0  0  0  0  0  0  0
  139.7028   73.1703  217.8056 H   0  0  0  0  0  0  0  0  0  0  0  0
  138.0826   70.8717  216.9625 H   0  0  0  0  0  0  0  0  0  0  0  0
  138.9410   72.2039  216.0361 H   0  0  0  0  0  0  0  0  0  0  0  0
  139.6980   69.9720  215.6840 H   0  0  0  0  0  0  0  0  0  0  0  0
  139.5145   69.0651  217.8246 H   0  0  0  0  0  0  0  0  0  0  0  0
  141.2017   68.9617  217.1984 H   0  0  0  0  0  0  0  0  0  0  0  0
  140.8514   69.7322  219.6146 H   0  0  0  0  0  0  0  0  0  0  0  0
  141.9308   70.7158  218.5126 H   0  0  0  0  0  0  0  0  0  0  0  0
  137.8874   70.8185  224.6420 H   0  0  0  0  0  0  0  0  0  0  0  0
  138.0540   70.5694  222.9020 H   0  0  0  0  0  0  0  0  0  0  0  0
  138.3562   68.3866  224.1479 H   0  0  0  0  0  0  0  0  0  0  0  0
  139.8741   68.8154  223.3543 H   0  0  0  0  0  0  0  0  0  0  0  0
  139.2675   67.2080  225.9904 H   0  0  0  0  0  0  0  0  0  0  0  0
  140.3257   67.2874  228.2456 H   0  0  0  0  0  0  0  0  0  0  0  0
  141.4579   69.3714  228.9724 H   0  0  0  0  0  0  0  0  0  0  0  0
  141.5424   71.3577  227.4724 H   0  0  0  0  0  0  0  0  0  0  0  0
  140.1546   72.4708  225.6218 H   0  0  0  0  0  0  0  0  0  0  0  0
  141.5912   71.8086  224.7928 H   0  0  0  0  0  0  0  0  0  0  0  0
  141.3213   77.6130  224.3692 H   0  0  0  0  0  0  0  0  0  0  0  0
  142.1364   79.9219  224.6968 H   0  0  0  0  0  0  0  0  0  0  0  0
  142.4238   81.4037  222.6896 H   0  0  0  0  0  0  0  0  0  0  0  0
  141.8890   80.5165  220.4201 H   0  0  0  0  0  0  0  0  0  0  0  0
  141.0789   78.1915  220.1551 H   0  0  0  0  0  0  0  0  0  0  0  0
  1  2  2  0
  2  3  1  0
  3  4  1  0
  4  5  2  0
  5  6  1  0
  6  7  1  0
  7  8  1  0
  8  9  1  0
  9 10  1  0
 10 11  1  0
 11 12  1  0
  6 13  2  0
 13 14  1  0
 14 15  1  0
 15 16  1  0
 16 17  1  0
 17 18  1  0
 18 19  2  0
 19 20  1  0
 20 21  2  0
 21 22  1  0
 22 23  2  0
 23 24  1  0
 14 25  2  0
  2 26  1  0
 26 27  2  0
 27 28  1  0
 28 29  2  0
 29 30  1  0
 30 31  2  0
 25  4  1  0
 31 26  1  0
 12  7  1  0
 24 15  1  0
 23 18  1  0
  3 32  1  0
  8 33  1  0
  8 34  1  0
  9 35  1  0
  9 36  1  0
 10 37  1  0
 11 38  1  0
 11 39  1  0
 12 40  1  0
 12 41  1  0
 16 42  1  0
 16 43  1  0
 17 44  1  0
 17 45  1  0
 19 46  1  0
 20 47  1  0
 21 48  1  0
 22 49  1  0
 24 50  1  0
 24 51  1  0
 27 52  1  0
 28 53  1  0
 29 54  1  0
 30 55  1  0
 31 56  1  0
M  END
>  <smiles>  (10) 
O=C(Nc1nc(N2CCNCC2)nc(N2CCc3ccccc3C2)n1)c1ccccc1

>  <score_type>  (10) 
oracle

>  <origin>  (10) 
autodockgpu

>  <m_score__min__energy>  (10) 
-8.7400000000000002

>  <m_primary>  (10) 
energy

>  <rmsd>  (10) 
3.8430592533418877

>  <m_score__min__rmsd>  (10) 
3.8430592533418877

>  <meeko>  (10) 
{"free_energy": -8.73, "intermolecular_energy": -9.92, "internal_energy": -0.81, "cluster_size": 49, "cluster_id": 1, "rank_in_cluster": 17}

>  <energy>  (10) 
-8.73

>  <cluster_rmsd>  (10) 
0.31

>  <cluster>  (10) 
1

$$$$

     RDKit          3D

 56 60  0  0  0  0  0  0  0  0999 V2000
  139.5780   76.0050  222.6870 O   0  0  0  0  0  0  0  0  0  0  0  0
  140.6770   76.3450  222.2100 C   0  0  0  0  0  0  0  0  0  0  0  0
  141.5050   75.3510  221.6190 N   0  0  0  0  0  0  0  0  0  0  0  0
  141.0770   73.9980  221.5790 C   0  0  0  0  0  0  0  0  0  0  0  0
  141.0890   73.3700  220.3700 N   0  0  0  0  0  0  0  0  0  0  0  0
  140.6840   72.0840  220.3300 C   0  0  0  0  0  0  0  0  0  0  0  0
  140.6920   71.4180  219.0770 N   0  0  0  0  0  0  0  0  0  0  0  0
  140.9810   72.2130  217.9030 C   0  0  0  0  0  0  0  0  0  0  0  0
  140.8230   71.4910  216.6130 C   0  0  0  0  0  0  0  0  0  0  0  0
  140.9570   70.0520  216.7060 N   0  0  0  0  0  0  0  0  0  0  0  0
  140.0800   69.4800  217.6960 C   0  0  0  0  0  0  0  0  0  0  0  0
  140.4140   70.0090  219.0550 C   0  0  0  0  0  0  0  0  0  0  0  0
  140.2850   71.4690  221.4710 N   0  0  0  0  0  0  0  0  0  0  0  0
  140.2730   72.0890  222.6620 C   0  0  0  0  0  0  0  0  0  0  0  0
  139.8520   71.4350  223.8580 N   0  0  0  0  0  0  0  0  0  0  0  0
  138.6340   70.6460  223.8410 C   0  0  0  0  0  0  0  0  0  0  0  0
  139.0810   69.2100  224.1210 C   0  0  0  0  0  0  0  0  0  0  0  0
  139.7210   69.2560  225.4660 C   0  0  0  0  0  0  0  0  0  0  0  0
  139.5880   68.1590  226.3160 C   0  0  0  0  0  0  0  0  0  0  0  0
  140.1650   68.1500  227.5820 C   0  0  0  0  0  0  0  0  0  0  0  0
  140.8790   69.2550  227.9860 C   0  0  0  0  0  0  0  0  0  0  0  0
  141.0250   70.3630  227.1480 C   0  0  0  0  0  0  0  0  0  0  0  0
  140.4400   70.3560  225.8830 C   0  0  0  0  0  0  0  0  0  0  0  0
  140.6440   71.5700  225.0610 C   0  0  0  0  0  0  0  0  0  0  0  0
  140.6800   73.3690  222.6850 N   0  0  0  0  0  0  0  0  0  0  0  0
  141.0510   77.7510  222.2870 C   0  0  0  0  0  0  0  0  0  0  0  0
  141.4560   78.2550  223.4920 C   0  0  0  0  0  0  0  0  0  0  0  0
  141.8320   79.5720  223.6720 C   0  0  0  0  0  0  0  0  0  0  0  0
  141.7930   80.4230  222.5700 C   0  0  0  0  0  0  0  0  0  0  0  0
  141.3840   79.9310  221.3340 C   0  0  0  0  0  0  0  0  0  0  0  0
  141.0170   78.6040  221.2030 C   0  0  0  0  0  0  0  0  0  0  0  0
  142.4190   75.6090  221.2190 H   0  0  0  0  0  0  0  0  0  0  0  0
  140.3009   73.0775  217.8980 H   0  0  0  0  0  0  0  0  0  0  0  0
  142.0410   72.4987  217.9728 H   0  0  0  0  0  0  0  0  0  0  0  0
  139.8233   71.7172  216.2137 H   0  0  0  0  0  0  0  0  0  0  0  0
  141.6376   71.8379  215.9603 H   0  0  0  0  0  0  0  0  0  0  0  0
  140.6530   69.6760  215.7680 H   0  0  0  0  0  0  0  0  0  0  0  0
  139.0393   69.7392  217.4517 H   0  0  0  0  0  0  0  0  0  0  0  0
  140.2066   68.3873  217.6969 H   0  0  0  0  0  0  0  0  0  0  0  0
  139.5617   69.8133  219.7223 H   0  0  0  0  0  0  0  0  0  0  0  0
  141.3310   69.4967  219.3815 H   0  0  0  0  0  0  0  0  0  0  0  0
  137.9393   70.9924  224.6204 H   0  0  0  0  0  0  0  0  0  0  0  0
  138.1029   70.7311  222.8815 H   0  0  0  0  0  0  0  0  0  0  0  0
  138.2156   68.5310  224.1285 H   0  0  0  0  0  0  0  0  0  0  0  0
  139.7705   68.8360  223.3499 H   0  0  0  0  0  0  0  0  0  0  0  0
  139.0151   67.2826  225.9788 H   0  0  0  0  0  0  0  0  0  0  0  0
  140.0530   67.2794  228.2450 H   0  0  0  0  0  0  0  0  0  0  0  0
  141.3417   69.2658  228.9839 H   0  0  0  0  0  0  0  0  0  0  0  0
  141.5997   71.2381  227.4854 H   0  0  0  0  0  0  0  0  0  0  0  0
  140.3212   72.4592  225.6223 H   0  0  0  0  0  0  0  0  0  0  0  0
  141.7081   71.6842  224.8066 H   0  0  0  0  0  0  0  0  0  0  0  0
  141.4837   77.5793  224.3596 H   0  0  0  0  0  0  0  0  0  0  0  0
  142.1533   79.9385  224.6581 H   0  0  0  0  0  0  0  0  0  0  0  0
  142.0840   81.4785  222.6761 H   0  0  0  0  0  0  0  0  0  0  0  0
  141.3526   80.5984  220.4602 H   0  0  0  0  0  0  0  0  0  0  0  0
  140.6940   78.2239  220.2226 H   0  0  0  0  0  0  0  0  0  0  0  0
  1  2  2  0
  2  3  1  0
  3  4  1  0
  4  5  2  0
  5  6  1  0
  6  7  1  0
  7  8  1  0
  8  9  1  0
  9 10  1  0
 10 11  1  0
 11 12  1  0
  6 13  2  0
 13 14  1  0
 14 15  1  0
 15 16  1  0
 16 17  1  0
 17 18  1  0
 18 19  2  0
 19 20  1  0
 20 21  2  0
 21 22  1  0
 22 23  2  0
 23 24  1  0
 14 25  2  0
  2 26  1  0
 26 27  2  0
 27 28  1  0
 28 29  2  0
 29 30  1  0
 30 31  2  0
 25  4  1  0
 31 26  1  0
 12  7  1  0
 24 15  1  0
 23 18  1  0
  3 32  1  0
  8 33  1  0
  8 34  1  0
  9 35  1  0
  9 36  1  0
 10 37  1  0
 11 38  1  0
 11 39  1  0
 12 40  1  0
 12 41  1  0
 16 42  1  0
 16 43  1  0
 17 44  1  0
 17 45  1  0
 19 46  1  0
 20 47  1  0
 21 48  1  0
 22 49  1  0
 24 50  1  0
 24 51  1  0
 27 52  1  0
 28 53  1  0
 29 54  1  0
 30 55  1  0
 31 56  1  0
M  END
>  <smiles>  (11) 
O=C(Nc1nc(N2CCNCC2)nc(N2CCc3ccccc3C2)n1)c1ccccc1

>  <score_type>  (11) 
oracle

>  <origin>  (11) 
autodockgpu

>  <m_score__min__energy>  (11) 
-8.7400000000000002

>  <m_primary>  (11) 
energy

>  <rmsd>  (11) 
3.8390747929060436

>  <m_score__min__rmsd>  (11) 
3.8390747929060436

>  <meeko>  (11) 
{"free_energy": -8.71, "intermolecular_energy": -9.91, "internal_energy": -0.81, "cluster_size": 49, "cluster_id": 1, "rank_in_cluster": 28}

>  <energy>  (11) 
-8.73

>  <cluster_rmsd>  (11) 
0.16

>  <cluster>  (11) 
1

$$$$

     RDKit          3D

 56 60  0  0  0  0  0  0  0  0999 V2000
  139.5470   76.0580  222.6840 O   0  0  0  0  0  0  0  0  0  0  0  0
  140.6610   76.3650  222.2210 C   0  0  0  0  0  0  0  0  0  0  0  0
  141.4690   75.3470  221.6430 N   0  0  0  0  0  0  0  0  0  0  0  0
  141.0030   74.0060  221.6010 C   0  0  0  0  0  0  0  0  0  0  0  0
  140.9560   73.3950  220.3840 N   0  0  0  0  0  0  0  0  0  0  0  0
  140.5160   72.1200  220.3410 C   0  0  0  0  0  0  0  0  0  0  0  0
  140.4610   71.4730  219.0810 N   0  0  0  0  0  0  0  0  0  0  0  0
  140.7900   70.0640  219.0410 C   0  0  0  0  0  0  0  0  0  0  0  0
  140.8630   69.4840  217.6740 C   0  0  0  0  0  0  0  0  0  0  0  0
  140.0910   70.1930  216.6760 N   0  0  0  0  0  0  0  0  0  0  0  0
  140.4100   71.5970  216.6270 C   0  0  0  0  0  0  0  0  0  0  0  0
  140.0850   72.2510  217.9330 C   0  0  0  0  0  0  0  0  0  0  0  0
  140.1410   71.5000  221.4880 N   0  0  0  0  0  0  0  0  0  0  0  0
  140.1880   72.1040  222.6870 C   0  0  0  0  0  0  0  0  0  0  0  0
  139.7930   71.4450  223.8880 N   0  0  0  0  0  0  0  0  0  0  0  0
  138.5780   70.6500  223.8920 C   0  0  0  0  0  0  0  0  0  0  0  0
  139.0370   69.2160  224.1600 C   0  0  0  0  0  0  0  0  0  0  0  0
  139.7020   69.2610  225.4920 C   0  0  0  0  0  0  0  0  0  0  0  0
  139.5890   68.1610  226.3420 C   0  0  0  0  0  0  0  0  0  0  0  0
  140.1900   68.1500  227.5970 C   0  0  0  0  0  0  0  0  0  0  0  0
  140.9060   69.2580  227.9900 C   0  0  0  0  0  0  0  0  0  0  0  0
  141.0310   70.3690  227.1530 C   0  0  0  0  0  0  0  0  0  0  0  0
  140.4230   70.3630  225.8990 C   0  0  0  0  0  0  0  0  0  0  0  0
  140.6060   71.5800  225.0770 C   0  0  0  0  0  0  0  0  0  0  0  0
  140.6300   73.3730  222.7120 N   0  0  0  0  0  0  0  0  0  0  0  0
  141.0730   77.7610  222.2990 C   0  0  0  0  0  0  0  0  0  0  0  0
  141.4350   78.2680  223.5160 C   0  0  0  0  0  0  0  0  0  0  0  0
  141.8410   79.5760  223.6980 C   0  0  0  0  0  0  0  0  0  0  0  0
  141.8820   80.4130  222.5860 C   0  0  0  0  0  0  0  0  0  0  0  0
  141.5180   79.9170  221.3370 C   0  0  0  0  0  0  0  0  0  0  0  0
  141.1180   78.6000  221.2050 C   0  0  0  0  0  0  0  0  0  0  0  0
  142.3950   75.5790  221.2540 H   0  0  0  0  0  0  0  0  0  0  0  0
  141.7682   69.9262  219.5248 H   0  0  0  0  0  0  0  0  0  0  0  0
  139.9744   69.5386  219.5594 H   0  0  0  0  0  0  0  0  0  0  0  0
  141.9163   69.4846  217.3570 H   0  0  0  0  0  0  0  0  0  0  0  0
  140.4327   68.4739  217.7409 H   0  0  0  0  0  0  0  0  0  0  0  0
  140.3750   69.7790  215.7480 H   0  0  0  0  0  0  0  0  0  0  0  0
  141.4832   71.7179  216.4181 H   0  0  0  0  0  0  0  0  0  0  0  0
  139.8149   72.0709  215.8325 H   0  0  0  0  0  0  0  0  0  0  0  0
  140.6133   73.2147  217.9791 H   0  0  0  0  0  0  0  0  0  0  0  0
  138.9918   72.3677  217.9694 H   0  0  0  0  0  0  0  0  0  0  0  0
  137.8965   70.9913  224.6851 H   0  0  0  0  0  0  0  0  0  0  0  0
  138.0285   70.7348  222.9429 H   0  0  0  0  0  0  0  0  0  0  0  0
  138.1751   68.5329  224.1821 H   0  0  0  0  0  0  0  0  0  0  0  0
  139.7138   68.8476  223.3750 H   0  0  0  0  0  0  0  0  0  0  0  0
  139.0126   67.2836  226.0134 H   0  0  0  0  0  0  0  0  0  0  0  0
  140.0952   67.2768  228.2592 H   0  0  0  0  0  0  0  0  0  0  0  0
  141.3874   69.2686  228.9790 H   0  0  0  0  0  0  0  0  0  0  0  0
  141.6075   71.2460  227.4825 H   0  0  0  0  0  0  0  0  0  0  0  0
  140.2893   72.4660  225.6468 H   0  0  0  0  0  0  0  0  0  0  0  0
  141.6647   71.6998  224.8035 H   0  0  0  0  0  0  0  0  0  0  0  0
  141.4014   77.6031  224.3917 H   0  0  0  0  0  0  0  0  0  0  0  0
  142.1242   79.9461  224.6944 H   0  0  0  0  0  0  0  0  0  0  0  0
  142.2003   81.4604  222.6937 H   0  0  0  0  0  0  0  0  0  0  0  0
  141.5487   80.5732  220.4547 H   0  0  0  0  0  0  0  0  0  0  0  0
  140.8319   78.2163  220.2146 H   0  0  0  0  0  0  0  0  0  0  0  0
  1  2  2  0
  2  3  1  0
  3  4  1  0
  4  5  2  0
  5  6  1  0
  6  7  1  0
  7  8  1  0
  8  9  1  0
  9 10  1  0
 10 11  1  0
 11 12  1  0
  6 13  2  0
 13 14  1  0
 14 15  1  0
 15 16  1  0
 16 17  1  0
 17 18  1  0
 18 19  2  0
 19 20  1  0
 20 21  2  0
 21 22  1  0
 22 23  2  0
 23 24  1  0
 14 25  2  0
  2 26  1  0
 26 27  2  0
 27 28  1  0
 28 29  2  0
 29 30  1  0
 30 31  2  0
 25  4  1  0
 31 26  1  0
 12  7  1  0
 24 15  1  0
 23 18  1  0
  3 32  1  0
  8 33  1  0
  8 34  1  0
  9 35  1  0
  9 36  1  0
 10 37  1  0
 11 38  1  0
 11 39  1  0
 12 40  1  0
 12 41  1  0
 16 42  1  0
 16 43  1  0
 17 44  1  0
 17 45  1  0
 19 46  1  0
 20 47  1  0
 21 48  1  0
 22 49  1  0
 24 50  1  0
 24 51  1  0
 27 52  1  0
 28 53  1  0
 29 54  1  0
 30 55  1  0
 31 56  1  0
M  END
>  <smiles>  (12) 
O=C(Nc1nc(N2CCNCC2)nc(N2CCc3ccccc3C2)n1)c1ccccc1

>  <score_type>  (12) 
oracle

>  <origin>  (12) 
autodockgpu

>  <m_score__min__energy>  (12) 
-8.7400000000000002

>  <m_primary>  (12) 
energy

>  <rmsd>  (12) 
3.836524176792996

>  <m_score__min__rmsd>  (12) 
3.836524176792996

>  <meeko>  (12) 
{"free_energy": -8.74, "intermolecular_energy": -9.93, "internal_energy": -0.8, "cluster_size": 49, "cluster_id": 1, "rank_in_cluster": 5}

>  <energy>  (12) 
-8.73

>  <cluster_rmsd>  (12) 
0.09

>  <cluster>  (12) 
1

$$$$

     RDKit          3D

 56 60  0  0  0  0  0  0  0  0999 V2000
  139.4710   76.2310  222.4630 O   0  0  0  0  0  0  0  0  0  0  0  0
  140.6550   76.4390  222.1420 C   0  0  0  0  0  0  0  0  0  0  0  0
  141.4460   75.3480  221.6890 N   0  0  0  0  0  0  0  0  0  0  0  0
  140.8850   74.0470  221.6070 C   0  0  0  0  0  0  0  0  0  0  0  0
  140.6850   73.5240  220.3650 N   0  0  0  0  0  0  0  0  0  0  0  0
  140.1530   72.2870  220.2850 C   0  0  0  0  0  0  0  0  0  0  0  0
  139.9390   71.7320  218.9980 N   0  0  0  0  0  0  0  0  0  0  0  0
  140.3130   72.5370  217.8550 C   0  0  0  0  0  0  0  0  0  0  0  0
  139.9220   71.9640  216.5400 C   0  0  0  0  0  0  0  0  0  0  0  0
  139.7560   70.5260  216.5340 N   0  0  0  0  0  0  0  0  0  0  0  0
  138.8440   70.0730  217.5530 C   0  0  0  0  0  0  0  0  0  0  0  0
  139.3690   70.4160  218.9120 C   0  0  0  0  0  0  0  0  0  0  0  0
  139.8400   71.6160  221.4210 N   0  0  0  0  0  0  0  0  0  0  0  0
  140.0380   72.1310  222.6450 C   0  0  0  0  0  0  0  0  0  0  0  0
  139.7060   71.4190  223.8360 N   0  0  0  0  0  0  0  0  0  0  0  0
  138.5760   70.5080  223.8230 C   0  0  0  0  0  0  0  0  0  0  0  0
  139.1740   69.1220  224.0720 C   0  0  0  0  0  0  0  0  0  0  0  0
  139.8280   69.2130  225.4070 C   0  0  0  0  0  0  0  0  0  0  0  0
  139.8220   68.0950  226.2400 C   0  0  0  0  0  0  0  0  0  0  0  0
  140.4180   68.1250  227.4970 C   0  0  0  0  0  0  0  0  0  0  0  0
  141.0210   69.2910  227.9090 C   0  0  0  0  0  0  0  0  0  0  0  0
  141.0380   70.4220  227.0890 C   0  0  0  0  0  0  0  0  0  0  0  0
  140.4360   70.3740  225.8330 C   0  0  0  0  0  0  0  0  0  0  0  0
  140.5000   71.6160  225.0290 C   0  0  0  0  0  0  0  0  0  0  0  0
  140.5690   73.3640  222.7080 N   0  0  0  0  0  0  0  0  0  0  0  0
  141.1640   77.8010  222.2510 C   0  0  0  0  0  0  0  0  0  0  0  0
  141.4970   78.2770  223.4900 C   0  0  0  0  0  0  0  0  0  0  0  0
  141.9870   79.5510  223.7020 C   0  0  0  0  0  0  0  0  0  0  0  0
  142.1490   80.3860  222.5990 C   0  0  0  0  0  0  0  0  0  0  0  0
  141.8170   79.9210  221.3290 C   0  0  0  0  0  0  0  0  0  0  0  0
  141.3290   78.6370  221.1670 C   0  0  0  0  0  0  0  0  0  0  0  0
  142.4300   75.4980  221.4190 H   0  0  0  0  0  0  0  0  0  0  0  0
  139.8328   73.5214  217.9568 H   0  0  0  0  0  0  0  0  0  0  0  0
  141.4117   72.5906  217.8575 H   0  0  0  0  0  0  0  0  0  0  0  0
  138.9683   72.4206  216.2368 H   0  0  0  0  0  0  0  0  0  0  0  0
  140.7465   72.1853  215.8463 H   0  0  0  0  0  0  0  0  0  0  0  0
  139.3200   70.2930  215.6020 H   0  0  0  0  0  0  0  0  0  0  0  0
  137.8679   70.5591  217.4081 H   0  0  0  0  0  0  0  0  0  0  0  0
  138.7371   68.9809  217.4766 H   0  0  0  0  0  0  0  0  0  0  0  0
  138.5394   70.3497  219.6313 H   0  0  0  0  0  0  0  0  0  0  0  0
  140.1761   69.7021  219.1334 H   0  0  0  0  0  0  0  0  0  0  0  0
  137.8617   70.7683  224.6180 H   0  0  0  0  0  0  0  0  0  0  0  0
  138.0236   70.5523  222.8728 H   0  0  0  0  0  0  0  0  0  0  0  0
  138.3837   68.3569  224.0810 H   0  0  0  0  0  0  0  0  0  0  0  0
  139.8857   68.8337  223.2843 H   0  0  0  0  0  0  0  0  0  0  0  0
  139.3360   67.1700  225.8964 H   0  0  0  0  0  0  0  0  0  0  0  0
  140.4073   67.2371  228.1462 H   0  0  0  0  0  0  0  0  0  0  0  0
  141.4972   69.3334  228.8997 H   0  0  0  0  0  0  0  0  0  0  0  0
  141.5245   71.3465  227.4333 H   0  0  0  0  0  0  0  0  0  0  0  0
  140.0968   72.4581  225.6106 H   0  0  0  0  0  0  0  0  0  0  0  0
  141.5422   71.8435  224.7605 H   0  0  0  0  0  0  0  0  0  0  0  0
  141.3684   77.6138  224.3581 H   0  0  0  0  0  0  0  0  0  0  0  0
  142.2424   79.8967  224.7145 H   0  0  0  0  0  0  0  0  0  0  0  0
  142.5370   81.4069  222.7303 H   0  0  0  0  0  0  0  0  0  0  0  0
  141.9430   80.5754  220.4539 H   0  0  0  0  0  0  0  0  0  0  0  0
  141.0691   78.2781  220.1602 H   0  0  0  0  0  0  0  0  0  0  0  0
  1  2  2  0
  2  3  1  0
  3  4  1  0
  4  5  2  0
  5  6  1  0
  6  7  1  0
  7  8  1  0
  8  9  1  0
  9 10  1  0
 10 11  1  0
 11 12  1  0
  6 13  2  0
 13 14  1  0
 14 15  1  0
 15 16  1  0
 16 17  1  0
 17 18  1  0
 18 19  2  0
 19 20  1  0
 20 21  2  0
 21 22  1  0
 22 23  2  0
 23 24  1  0
 14 25  2  0
  2 26  1  0
 26 27  2  0
 27 28  1  0
 28 29  2  0
 29 30  1  0
 30 31  2  0
 25  4  1  0
 31 26  1  0
 12  7  1  0
 24 15  1  0
 23 18  1  0
  3 32  1  0
  8 33  1  0
  8 34  1  0
  9 35  1  0
  9 36  1  0
 10 37  1  0
 11 38  1  0
 11 39  1  0
 12 40  1  0
 12 41  1  0
 16 42  1  0
 16 43  1  0
 17 44  1  0
 17 45  1  0
 19 46  1  0
 20 47  1  0
 21 48  1  0
 22 49  1  0
 24 50  1  0
 24 51  1  0
 27 52  1  0
 28 53  1  0
 29 54  1  0
 30 55  1  0
 31 56  1  0
M  END
>  <smiles>  (13) 
O=C(Nc1nc(N2CCNCC2)nc(N2CCc3ccccc3C2)n1)c1ccccc1

>  <score_type>  (13) 
oracle

>  <origin>  (13) 
autodockgpu

>  <m_score__min__energy>  (13) 
-8.7400000000000002

>  <m_primary>  (13) 
energy

>  <rmsd>  (13) 
3.83319009969957

>  <m_score__min__rmsd>  (13) 
3.83319009969957

>  <meeko>  (13) 
{"free_energy": -8.68, "intermolecular_energy": -9.88, "internal_energy": -0.82, "cluster_size": 49, "cluster_id": 1, "rank_in_cluster": 38}

>  <energy>  (13) 
-8.73

>  <cluster_rmsd>  (13) 
0.24

>  <cluster>  (13) 
1

$$$$

     RDKit          3D

 56 60  0  0  0  0  0  0  0  0999 V2000
  139.4750   76.1300  222.5120 O   0  0  0  0  0  0  0  0  0  0  0  0
  140.6360   76.3860  222.1460 C   0  0  0  0  0  0  0  0  0  0  0  0
  141.4520   75.3280  221.6580 N   0  0  0  0  0  0  0  0  0  0  0  0
  140.9410   74.0050  221.5950 C   0  0  0  0  0  0  0  0  0  0  0  0
  140.8200   73.4350  220.3630 N   0  0  0  0  0  0  0  0  0  0  0  0
  140.3360   72.1780  220.3010 C   0  0  0  0  0  0  0  0  0  0  0  0
  140.2060   71.5730  219.0240 N   0  0  0  0  0  0  0  0  0  0  0  0
  140.7950   70.2640  218.8440 C   0  0  0  0  0  0  0  0  0  0  0  0
  140.7570   69.7550  217.4480 C   0  0  0  0  0  0  0  0  0  0  0  0
  139.7080   70.3230  216.6270 N   0  0  0  0  0  0  0  0  0  0  0  0
  139.7320   71.7630  216.6210 C   0  0  0  0  0  0  0  0  0  0  0  0
  139.5010   72.2940  218.0000 C   0  0  0  0  0  0  0  0  0  0  0  0
  139.9910   71.5330  221.4430 N   0  0  0  0  0  0  0  0  0  0  0  0
  140.1100   72.0960  222.6560 C   0  0  0  0  0  0  0  0  0  0  0  0
  139.7460   71.4110  223.8540 N   0  0  0  0  0  0  0  0  0  0  0  0
  138.5890   70.5330  223.8420 C   0  0  0  0  0  0  0  0  0  0  0  0
  139.1440   69.1350  224.1180 C   0  0  0  0  0  0  0  0  0  0  0  0
  139.7860   69.2270  225.4590 C   0  0  0  0  0  0  0  0  0  0  0  0
  139.7390   68.1220  226.3090 C   0  0  0  0  0  0  0  0  0  0  0  0
  140.3220   68.1550  227.5720 C   0  0  0  0  0  0  0  0  0  0  0  0
  140.9530   69.3100  227.9730 C   0  0  0  0  0  0  0  0  0  0  0  0
  141.0120   70.4260  227.1370 C   0  0  0  0  0  0  0  0  0  0  0  0
  140.4230   70.3770  225.8740 C   0  0  0  0  0  0  0  0  0  0  0  0
  140.5310   71.6040  225.0530 C   0  0  0  0  0  0  0  0  0  0  0  0
  140.5950   73.3490  222.7010 N   0  0  0  0  0  0  0  0  0  0  0  0
  141.0940   77.7670  222.2390 C   0  0  0  0  0  0  0  0  0  0  0  0
  141.4580   78.2540  223.4640 C   0  0  0  0  0  0  0  0  0  0  0  0
  141.9050   79.5460  223.6600 C   0  0  0  0  0  0  0  0  0  0  0  0
  141.9860   80.3890  222.5550 C   0  0  0  0  0  0  0  0  0  0  0  0
  141.6210   79.9140  221.2980 C   0  0  0  0  0  0  0  0  0  0  0  0
  141.1790   78.6110  221.1510 C   0  0  0  0  0  0  0  0  0  0  0  0
  142.4170   75.5180  221.3500 H   0  0  0  0  0  0  0  0  0  0  0  0
  141.8467   70.3143  219.1623 H   0  0  0  0  0  0  0  0  0  0  0  0
  140.1947   69.5665  219.4466 H   0  0  0  0  0  0  0  0  0  0  0  0
  141.7237   69.9809  216.9741 H   0  0  0  0  0  0  0  0  0  0  0  0
  140.5506   68.6766  217.5151 H   0  0  0  0  0  0  0  0  0  0  0  0
  139.9130   70.0050  215.6420 H   0  0  0  0  0  0  0  0  0  0  0  0
  140.7120   72.1077  216.2593 H   0  0  0  0  0  0  0  0  0  0  0  0
  138.9341   72.1304  215.9589 H   0  0  0  0  0  0  0  0  0  0  0  0
  139.8283   73.3438  218.0269 H   0  0  0  0  0  0  0  0  0  0  0  0
  138.4272   72.1827  218.2108 H   0  0  0  0  0  0  0  0  0  0  0  0
  137.8743   70.8259  224.6252 H   0  0  0  0  0  0  0  0  0  0  0  0
  138.0477   70.5791  222.8855 H   0  0  0  0  0  0  0  0  0  0  0  0
  138.3320   68.3930  224.1292 H   0  0  0  0  0  0  0  0  0  0  0  0
  139.8557   68.8149  223.3427 H   0  0  0  0  0  0  0  0  0  0  0  0
  139.2307   67.2058  225.9740 H   0  0  0  0  0  0  0  0  0  0  0  0
  140.2794   67.2779  228.2345 H   0  0  0  0  0  0  0  0  0  0  0  0
  141.4185   69.3546  228.9686 H   0  0  0  0  0  0  0  0  0  0  0  0
  141.5214   71.3411  227.4732 H   0  0  0  0  0  0  0  0  0  0  0  0
  140.1447   72.4657  225.6172 H   0  0  0  0  0  0  0  0  0  0  0  0
  141.5822   71.7986  224.7938 H   0  0  0  0  0  0  0  0  0  0  0  0
  141.3916   77.5849  224.3346 H   0  0  0  0  0  0  0  0  0  0  0  0
  142.1893   79.8994  224.6621 H   0  0  0  0  0  0  0  0  0  0  0  0
  142.3365   81.4248  222.6743 H   0  0  0  0  0  0  0  0  0  0  0  0
  141.6841   80.5751  220.4211 H   0  0  0  0  0  0  0  0  0  0  0  0
  140.8920   78.2437  220.1547 H   0  0  0  0  0  0  0  0  0  0  0  0
  1  2  2  0
  2  3  1  0
  3  4  1  0
  4  5  2  0
  5  6  1  0
  6  7  1  0
  7  8  1  0
  8  9  1  0
  9 10  1  0
 10 11  1  0
 11 12  1  0
  6 13  2  0
 13 14  1  0
 14 15  1  0
 15 16  1  0
 16 17  1  0
 17 18  1  0
 18 19  2  0
 19 20  1  0
 20 21  2  0
 21 22  1  0
 22 23  2  0
 23 24  1  0
 14 25  2  0
  2 26  1  0
 26 27  2  0
 27 28  1  0
 28 29  2  0
 29 30  1  0
 30 31  2  0
 25  4  1  0
 31 26  1  0
 12  7  1  0
 24 15  1  0
 23 18  1  0
  3 32  1  0
  8 33  1  0
  8 34  1  0
  9 35  1  0
  9 36  1  0
 10 37  1  0
 11 38  1  0
 11 39  1  0
 12 40  1  0
 12 41  1  0
 16 42  1  0
 16 43  1  0
 17 44  1  0
 17 45  1  0
 19 46  1  0
 20 47  1  0
 21 48  1  0
 22 49  1  0
 24 50  1  0
 24 51  1  0
 27 52  1  0
 28 53  1  0
 29 54  1  0
 30 55  1  0
 31 56  1  0
M  END
>  <smiles>  (14) 
O=C(Nc1nc(N2CCNCC2)nc(N2CCc3ccccc3C2)n1)c1ccccc1

>  <score_type>  (14) 
oracle

>  <origin>  (14) 
autodockgpu

>  <m_score__min__energy>  (14) 
-8.7400000000000002

>  <m_primary>  (14) 
energy

>  <rmsd>  (14) 
3.84090820498347

>  <m_score__min__rmsd>  (14) 
3.84090820498347

>  <meeko>  (14) 
{"free_energy": -8.72, "intermolecular_energy": -9.92, "internal_energy": -0.81, "cluster_size": 49, "cluster_id": 1, "rank_in_cluster": 21}

>  <energy>  (14) 
-8.73

>  <cluster_rmsd>  (14) 
0.25

>  <cluster>  (14) 
1

$$$$

     RDKit          3D

 56 60  0  0  0  0  0  0  0  0999 V2000
  139.3040   76.2130  222.5270 O   0  0  0  0  0  0  0  0  0  0  0  0
  140.4780   76.4570  222.1970 C   0  0  0  0  0  0  0  0  0  0  0  0
  141.2900   75.3950  221.7120 N   0  0  0  0  0  0  0  0  0  0  0  0
  140.7600   74.0810  221.6110 C   0  0  0  0  0  0  0  0  0  0  0  0
  140.5770   73.5710  220.3610 N   0  0  0  0  0  0  0  0  0  0  0  0
  140.0740   72.3230  220.2630 C   0  0  0  0  0  0  0  0  0  0  0  0
  139.8780   71.7800  218.9670 N   0  0  0  0  0  0  0  0  0  0  0  0
  141.0060   71.7960  218.0610 C   0  0  0  0  0  0  0  0  0  0  0  0
  140.6930   71.3560  216.6760 C   0  0  0  0  0  0  0  0  0  0  0  0
  139.5410   70.4870  216.5650 N   0  0  0  0  0  0  0  0  0  0  0  0
  138.3640   71.0530  217.1740 C   0  0  0  0  0  0  0  0  0  0  0  0
  138.5820   71.2540  218.6400 C   0  0  0  0  0  0  0  0  0  0  0  0
  139.7730   71.6290  221.3890 N   0  0  0  0  0  0  0  0  0  0  0  0
  139.9540   72.1330  222.6200 C   0  0  0  0  0  0  0  0  0  0  0  0
  139.6350   71.3970  223.8000 N   0  0  0  0  0  0  0  0  0  0  0  0
  138.5210   70.4660  223.7730 C   0  0  0  0  0  0  0  0  0  0  0  0
  139.1430   69.0880  224.0010 C   0  0  0  0  0  0  0  0  0  0  0  0
  139.7950   69.1710  225.3390 C   0  0  0  0  0  0  0  0  0  0  0  0
  139.8090   68.0400  226.1550 C   0  0  0  0  0  0  0  0  0  0  0  0
  140.4040   68.0630  227.4130 C   0  0  0  0  0  0  0  0  0  0  0  0
  140.9850   69.2340  227.8430 C   0  0  0  0  0  0  0  0  0  0  0  0
  140.9820   70.3760  227.0390 C   0  0  0  0  0  0  0  0  0  0  0  0
  140.3820   70.3370  225.7820 C   0  0  0  0  0  0  0  0  0  0  0  0
  140.4240   71.5910  224.9960 C   0  0  0  0  0  0  0  0  0  0  0  0
  140.4550   73.3770  222.7010 N   0  0  0  0  0  0  0  0  0  0  0  0
  140.9550   77.8280  222.3270 C   0  0  0  0  0  0  0  0  0  0  0  0
  140.5680   78.5530  223.4210 C   0  0  0  0  0  0  0  0  0  0  0  0
  140.9640   79.8580  223.6390 C   0  0  0  0  0  0  0  0  0  0  0  0
  141.7950   80.4600  222.6970 C   0  0  0  0  0  0  0  0  0  0  0  0
  142.2010   79.7400  221.5770 C   0  0  0  0  0  0  0  0  0  0  0  0
  141.7790   78.4350  221.4020 C   0  0  0  0  0  0  0  0  0  0  0  0
  142.2660   75.5740  221.4330 H   0  0  0  0  0  0  0  0  0  0  0  0
  141.3946   72.8240  218.0149 H   0  0  0  0  0  0  0  0  0  0  0  0
  141.7363   71.0764  218.4594 H   0  0  0  0  0  0  0  0  0  0  0  0
  140.5069   72.2518  216.0654 H   0  0  0  0  0  0  0  0  0  0  0  0
  141.5587   70.7710  216.3320 H   0  0  0  0  0  0  0  0  0  0  0  0
  139.3450   70.4040  215.5320 H   0  0  0  0  0  0  0  0  0  0  0  0
  138.1431   72.0227  216.7039 H   0  0  0  0  0  0  0  0  0  0  0  0
  137.5199   70.3625  217.0297 H   0  0  0  0  0  0  0  0  0  0  0  0
  137.8197   71.9548  219.0110 H   0  0  0  0  0  0  0  0  0  0  0  0
  138.5097   70.2636  219.1132 H   0  0  0  0  0  0  0  0  0  0  0  0
  137.8023   70.7015  224.5717 H   0  0  0  0  0  0  0  0  0  0  0  0
  137.9679   70.5149  222.8234 H   0  0  0  0  0  0  0  0  0  0  0  0
  138.3666   68.3088  223.9978 H   0  0  0  0  0  0  0  0  0  0  0  0
  139.8599   68.8241  223.2096 H   0  0  0  0  0  0  0  0  0  0  0  0
  139.3405   67.1113  225.7972 H   0  0  0  0  0  0  0  0  0  0  0  0
  140.4097   67.1656  228.0490 H   0  0  0  0  0  0  0  0  0  0  0  0
  141.4590   69.2712  228.8350 H   0  0  0  0  0  0  0  0  0  0  0  0
  141.4520   71.3038  227.3971 H   0  0  0  0  0  0  0  0  0  0  0  0
  140.0052   72.4173  225.5892 H   0  0  0  0  0  0  0  0  0  0  0  0
  141.4621   71.8411  224.7318 H   0  0  0  0  0  0  0  0  0  0  0  0
  139.9106   78.0740  224.1616 H   0  0  0  0  0  0  0  0  0  0  0  0
  140.6321   80.4072  224.5324 H   0  0  0  0  0  0  0  0  0  0  0  0
  142.1286   81.4987  222.8374 H   0  0  0  0  0  0  0  0  0  0  0  0
  142.8582   80.2097  220.8304 H   0  0  0  0  0  0  0  0  0  0  0  0
  142.1045   77.8736  220.5138 H   0  0  0  0  0  0  0  0  0  0  0  0
  1  2  2  0
  2  3  1  0
  3  4  1  0
  4  5  2  0
  5  6  1  0
  6  7  1  0
  7  8  1  0
  8  9  1  0
  9 10  1  0
 10 11  1  0
 11 12  1  0
  6 13  2  0
 13 14  1  0
 14 15  1  0
 15 16  1  0
 16 17  1  0
 17 18  1  0
 18 19  2  0
 19 20  1  0
 20 21  2  0
 21 22  1  0
 22 23  2  0
 23 24  1  0
 14 25  2  0
  2 26  1  0
 26 27  2  0
 27 28  1  0
 28 29  2  0
 29 30  1  0
 30 31  2  0
 25  4  1  0
 31 26  1  0
 12  7  1  0
 24 15  1  0
 23 18  1  0
  3 32  1  0
  8 33  1  0
  8 34  1  0
  9 35  1  0
  9 36  1  0
 10 37  1  0
 11 38  1  0
 11 39  1  0
 12 40  1  0
 12 41  1  0
 16 42  1  0
 16 43  1  0
 17 44  1  0
 17 45  1  0
 19 46  1  0
 20 47  1  0
 21 48  1  0
 22 49  1  0
 24 50  1  0
 24 51  1  0
 27 52  1  0
 28 53  1  0
 29 54  1  0
 30 55  1  0
 31 56  1  0
M  END
>  <smiles>  (15) 
O=C(Nc1nc(N2CCNCC2)nc(N2CCc3ccccc3C2)n1)c1ccccc1

>  <score_type>  (15) 
oracle

>  <origin>  (15) 
autodockgpu

>  <m_score__min__energy>  (15) 
-8.7400000000000002

>  <m_primary>  (15) 
energy

>  <rmsd>  (15) 
3.8235177596014163

>  <m_score__min__rmsd>  (15) 
3.8235177596014163

>  <meeko>  (15) 
{"free_energy": -8.44, "intermolecular_energy": -9.64, "internal_energy": -0.81, "cluster_size": 49, "cluster_id": 1, "rank_in_cluster": 47}

>  <energy>  (15) 
-8.73

>  <cluster_rmsd>  (15) 
0.3

>  <cluster>  (15) 
1

$$$$

     RDKit          3D

 56 60  0  0  0  0  0  0  0  0999 V2000
  139.5680   76.0940  222.6250 O   0  0  0  0  0  0  0  0  0  0  0  0
  140.7000   76.3650  222.1840 C   0  0  0  0  0  0  0  0  0  0  0  0
  141.4890   75.3200  221.6310 N   0  0  0  0  0  0  0  0  0  0  0  0
  140.9860   73.9930  221.5870 C   0  0  0  0  0  0  0  0  0  0  0  0
  140.8800   73.4000  220.3650 N   0  0  0  0  0  0  0  0  0  0  0  0
  140.4040   72.1390  220.3210 C   0  0  0  0  0  0  0  0  0  0  0  0
  140.2880   71.5100  219.0560 N   0  0  0  0  0  0  0  0  0  0  0  0
  141.2100   70.4350  218.7590 C   0  0  0  0  0  0  0  0  0  0  0  0
  141.1370   69.9240  217.3650 C   0  0  0  0  0  0  0  0  0  0  0  0
  139.8660   70.1440  216.7070 N   0  0  0  0  0  0  0  0  0  0  0  0
  139.4600   71.5260  216.7420 C   0  0  0  0  0  0  0  0  0  0  0  0
  139.2710   71.9780  218.1560 C   0  0  0  0  0  0  0  0  0  0  0  0
  140.0520   71.5130  221.4720 N   0  0  0  0  0  0  0  0  0  0  0  0
  140.1570   72.0990  222.6760 C   0  0  0  0  0  0  0  0  0  0  0  0
  139.7850   71.4340  223.8830 N   0  0  0  0  0  0  0  0  0  0  0  0
  138.5830   70.6200  223.8990 C   0  0  0  0  0  0  0  0  0  0  0  0
  139.0690   69.1930  224.1630 C   0  0  0  0  0  0  0  0  0  0  0  0
  139.7470   69.2500  225.4890 C   0  0  0  0  0  0  0  0  0  0  0  0
  139.6620   68.1490  226.3400 C   0  0  0  0  0  0  0  0  0  0  0  0
  140.2750   68.1500  227.5880 C   0  0  0  0  0  0  0  0  0  0  0  0
  140.9780   69.2690  227.9740 C   0  0  0  0  0  0  0  0  0  0  0  0
  141.0760   70.3820  227.1350 C   0  0  0  0  0  0  0  0  0  0  0  0
  140.4550   70.3640  225.8870 C   0  0  0  0  0  0  0  0  0  0  0  0
  140.6080   71.5840  225.0620 C   0  0  0  0  0  0  0  0  0  0  0  0
  140.6340   73.3550  222.7030 N   0  0  0  0  0  0  0  0  0  0  0  0
  141.1510   77.7500  222.2620 C   0  0  0  0  0  0  0  0  0  0  0  0
  141.4580   78.2690  223.4890 C   0  0  0  0  0  0  0  0  0  0  0  0
  141.8930   79.5660  223.6710 C   0  0  0  0  0  0  0  0  0  0  0  0
  142.0240   80.3800  222.5490 C   0  0  0  0  0  0  0  0  0  0  0  0
  141.7180   79.8720  221.2900 C   0  0  0  0  0  0  0  0  0  0  0  0
  141.2850   78.5650  221.1570 C   0  0  0  0  0  0  0  0  0  0  0  0
  142.4300   75.5220  221.2600 H   0  0  0  0  0  0  0  0  0  0  0  0
  142.2320   70.8006  218.9372 H   0  0  0  0  0  0  0  0  0  0  0  0
  140.9314   69.5959  219.4134 H   0  0  0  0  0  0  0  0  0  0  0  0
  141.9195   70.4238  216.7752 H   0  0  0  0  0  0  0  0  0  0  0  0
  141.2715   68.8339  217.4256 H   0  0  0  0  0  0  0  0  0  0  0  0
  140.0220   69.8930  215.6950 H   0  0  0  0  0  0  0  0  0  0  0  0
  140.2349   72.1437  216.2644 H   0  0  0  0  0  0  0  0  0  0  0  0
  138.5070   71.6319  216.2029 H   0  0  0  0  0  0  0  0  0  0  0  0
  139.2737   73.0779  218.1716 H   0  0  0  0  0  0  0  0  0  0  0  0
  138.3171   71.5539  218.5027 H   0  0  0  0  0  0  0  0  0  0  0  0
  137.9038   70.9505  224.6987 H   0  0  0  0  0  0  0  0  0  0  0  0
  138.0223   70.6957  222.9557 H   0  0  0  0  0  0  0  0  0  0  0  0
  138.2189   68.4956  224.1941 H   0  0  0  0  0  0  0  0  0  0  0  0
  139.7438   68.8355  223.3713 H   0  0  0  0  0  0  0  0  0  0  0  0
  139.0983   67.2612  226.0175 H   0  0  0  0  0  0  0  0  0  0  0  0
  140.1999   67.2763  228.2520 H   0  0  0  0  0  0  0  0  0  0  0  0
  141.4699   69.2871  228.9577 H   0  0  0  0  0  0  0  0  0  0  0  0
  141.6409   71.2689  227.4579 H   0  0  0  0  0  0  0  0  0  0  0  0
  140.2822   72.4648  225.6347 H   0  0  0  0  0  0  0  0  0  0  0  0
  141.6614   71.7220  224.7768 H   0  0  0  0  0  0  0  0  0  0  0  0
  141.3533   77.6224  224.3727 H   0  0  0  0  0  0  0  0  0  0  0  0
  142.1299   79.9465  224.6755 H   0  0  0  0  0  0  0  0  0  0  0  0
  142.3676   81.4193  222.6572 H   0  0  0  0  0  0  0  0  0  0  0  0
  141.8205   80.5103  220.4000 H   0  0  0  0  0  0  0  0  0  0  0  0
  141.0447   78.1709  220.1585 H   0  0  0  0  0  0  0  0  0  0  0  0
  1  2  2  0
  2  3  1  0
  3  4  1  0
  4  5  2  0
  5  6  1  0
  6  7  1  0
  7  8  1  0
  8  9  1  0
  9 10  1  0
 10 11  1  0
 11 12  1  0
  6 13  2  0
 13 14  1  0
 14 15  1  0
 15 16  1  0
 16 17  1  0
 17 18  1  0
 18 19  2  0
 19 20  1  0
 20 21  2  0
 21 22  1  0
 22 23  2  0
 23 24  1  0
 14 25  2  0
  2 26  1  0
 26 27  2  0
 27 28  1  0
 28 29  2  0
 29 30  1  0
 30 31  2  0
 25  4  1  0
 31 26  1  0
 12  7  1  0
 24 15  1  0
 23 18  1  0
  3 32  1  0
  8 33  1  0
  8 34  1  0
  9 35  1  0
  9 36  1  0
 10 37  1  0
 11 38  1  0
 11 39  1  0
 12 40  1  0
 12 41  1  0
 16 42  1  0
 16 43  1  0
 17 44  1  0
 17 45  1  0
 19 46  1  0
 20 47  1  0
 21 48  1  0
 22 49  1  0
 24 50  1  0
 24 51  1  0
 27 52  1  0
 28 53  1  0
 29 54  1  0
 30 55  1  0
 31 56  1  0
M  END
>  <smiles>  (16) 
O=C(Nc1nc(N2CCNCC2)nc(N2CCc3ccccc3C2)n1)c1ccccc1

>  <score_type>  (16) 
oracle

>  <origin>  (16) 
autodockgpu

>  <m_score__min__energy>  (16) 
-8.7400000000000002

>  <m_primary>  (16) 
energy

>  <rmsd>  (16) 
3.836082015803111

>  <m_score__min__rmsd>  (16) 
3.836082015803111

>  <meeko>  (16) 
{"free_energy": -8.73, "intermolecular_energy": -9.92, "internal_energy": -0.8, "cluster_size": 49, "cluster_id": 1, "rank_in_cluster": 20}

>  <energy>  (16) 
-8.73

>  <cluster_rmsd>  (16) 
0.39

>  <cluster>  (16) 
1

$$$$

     RDKit          3D

 56 60  0  0  0  0  0  0  0  0999 V2000
  139.5310   76.1510  222.5810 O   0  0  0  0  0  0  0  0  0  0  0  0
  140.6830   76.3920  222.1750 C   0  0  0  0  0  0  0  0  0  0  0  0
  141.4630   75.3240  221.6520 N   0  0  0  0  0  0  0  0  0  0  0  0
  140.9290   74.0100  221.6000 C   0  0  0  0  0  0  0  0  0  0  0  0
  140.7720   73.4420  220.3710 N   0  0  0  0  0  0  0  0  0  0  0  0
  140.2660   72.1930  220.3190 C   0  0  0  0  0  0  0  0  0  0  0  0
  140.0970   71.5920  219.0460 N   0  0  0  0  0  0  0  0  0  0  0  0
  139.4950   72.3950  218.0040 C   0  0  0  0  0  0  0  0  0  0  0  0
  139.2070   71.6600  216.7440 C   0  0  0  0  0  0  0  0  0  0  0  0
  140.0270   70.4870  216.5290 N   0  0  0  0  0  0  0  0  0  0  0  0
  139.9880   69.5760  217.6450 C   0  0  0  0  0  0  0  0  0  0  0  0
  140.5330   70.2340  218.8730 C   0  0  0  0  0  0  0  0  0  0  0  0
  139.9350   71.5540  221.4690 N   0  0  0  0  0  0  0  0  0  0  0  0
  140.0900   72.1130  222.6790 C   0  0  0  0  0  0  0  0  0  0  0  0
  139.7400   71.4350  223.8840 N   0  0  0  0  0  0  0  0  0  0  0  0
  138.5680   70.5780  223.8980 C   0  0  0  0  0  0  0  0  0  0  0  0
  139.1030   69.1690  224.1600 C   0  0  0  0  0  0  0  0  0  0  0  0
  139.7770   69.2480  225.4870 C   0  0  0  0  0  0  0  0  0  0  0  0
  139.7290   68.1440  226.3360 C   0  0  0  0  0  0  0  0  0  0  0  0
  140.3400   68.1640  227.5860 C   0  0  0  0  0  0  0  0  0  0  0  0
  141.0020   69.3070  227.9740 C   0  0  0  0  0  0  0  0  0  0  0  0
  141.0620   70.4230  227.1370 C   0  0  0  0  0  0  0  0  0  0  0  0
  140.4440   70.3860  225.8880 C   0  0  0  0  0  0  0  0  0  0  0  0
  140.5560   71.6110  225.0650 C   0  0  0  0  0  0  0  0  0  0  0  0
  140.5960   73.3580  222.7140 N   0  0  0  0  0  0  0  0  0  0  0  0
  141.1660   77.7650  222.2590 C   0  0  0  0  0  0  0  0  0  0  0  0
  141.4750   78.2730  223.4900 C   0  0  0  0  0  0  0  0  0  0  0  0
  141.9400   79.5600  223.6790 C   0  0  0  0  0  0  0  0  0  0  0  0
  142.0990   80.3740  222.5600 C   0  0  0  0  0  0  0  0  0  0  0  0
  141.7900   79.8750  221.2970 C   0  0  0  0  0  0  0  0  0  0  0  0
  141.3270   78.5790  221.1580 C   0  0  0  0  0  0  0  0  0  0  0  0
  142.4200   75.5000  221.3110 H   0  0  0  0  0  0  0  0  0  0  0  0
  138.5478   72.8014  218.3882 H   0  0  0  0  0  0  0  0  0  0  0  0
  140.2276   73.1749  217.7492 H   0  0  0  0  0  0  0  0  0  0  0  0
  138.1538   71.3431  216.7649 H   0  0  0  0  0  0  0  0  0  0  0  0
  139.4332   72.3533  215.9204 H   0  0  0  0  0  0  0  0  0  0  0  0
  139.5980   69.9860  215.7060 H   0  0  0  0  0  0  0  0  0  0  0  0
  138.9470   69.2714  217.8284 H   0  0  0  0  0  0  0  0  0  0  0  0
  140.6029   68.6950  217.4088 H   0  0  0  0  0  0  0  0  0  0  0  0
  140.2117   69.6524  219.7496 H   0  0  0  0  0  0  0  0  0  0  0  0
  141.6272   70.2607  218.7630 H   0  0  0  0  0  0  0  0  0  0  0  0
  137.8770   70.8829  224.6977 H   0  0  0  0  0  0  0  0  0  0  0  0
  138.0063   70.6350  222.9539 H   0  0  0  0  0  0  0  0  0  0  0  0
  138.2778   68.4422  224.1890 H   0  0  0  0  0  0  0  0  0  0  0  0
  139.7907   68.8363  223.3685 H   0  0  0  0  0  0  0  0  0  0  0  0
  139.1969   67.2377  226.0112 H   0  0  0  0  0  0  0  0  0  0  0  0
  140.2951   67.2871  228.2486 H   0  0  0  0  0  0  0  0  0  0  0  0
  141.4912   69.3416  228.9586 H   0  0  0  0  0  0  0  0  0  0  0  0
  141.5952   71.3285  227.4621 H   0  0  0  0  0  0  0  0  0  0  0  0
  140.1995   72.4794  225.6385 H   0  0  0  0  0  0  0  0  0  0  0  0
  141.6045   71.7850  224.7813 H   0  0  0  0  0  0  0  0  0  0  0  0
  141.3474   77.6269  224.3710 H   0  0  0  0  0  0  0  0  0  0  0  0
  142.1784   79.9320  224.6864 H   0  0  0  0  0  0  0  0  0  0  0  0
  142.4664   81.4047  222.6731 H   0  0  0  0  0  0  0  0  0  0  0  0
  141.9143   80.5122  220.4090 H   0  0  0  0  0  0  0  0  0  0  0  0
  141.0843   78.1932  220.1569 H   0  0  0  0  0  0  0  0  0  0  0  0
  1  2  2  0
  2  3  1  0
  3  4  1  0
  4  5  2  0
  5  6  1  0
  6  7  1  0
  7  8  1  0
  8  9  1  0
  9 10  1  0
 10 11  1  0
 11 12  1  0
  6 13  2  0
 13 14  1  0
 14 15  1  0
 15 16  1  0
 16 17  1  0
 17 18  1  0
 18 19  2  0
 19 20  1  0
 20 21  2  0
 21 22  1  0
 22 23  2  0
 23 24  1  0
 14 25  2  0
  2 26  1  0
 26 27  2  0
 27 28  1  0
 28 29  2  0
 29 30  1  0
 30 31  2  0
 25  4  1  0
 31 26  1  0
 12  7  1  0
 24 15  1  0
 23 18  1  0
  3 32  1  0
  8 33  1  0
  8 34  1  0
  9 35  1  0
  9 36  1  0
 10 37  1  0
 11 38  1  0
 11 39  1  0
 12 40  1  0
 12 41  1  0
 16 42  1  0
 16 43  1  0
 17 44  1  0
 17 45  1  0
 19 46  1  0
 20 47  1  0
 21 48  1  0
 22 49  1  0
 24 50  1  0
 24 51  1  0
 27 52  1  0
 28 53  1  0
 29 54  1  0
 30 55  1  0
 31 56  1  0
M  END
>  <smiles>  (17) 
O=C(Nc1nc(N2CCNCC2)nc(N2CCc3ccccc3C2)n1)c1ccccc1

>  <score_type>  (17) 
oracle

>  <origin>  (17) 
autodockgpu

>  <m_score__min__energy>  (17) 
-8.7400000000000002

>  <m_primary>  (17) 
energy

>  <rmsd>  (17) 
3.838222467177799

>  <m_score__min__rmsd>  (17) 
3.838222467177799

>  <meeko>  (17) 
{"free_energy": -8.73, "intermolecular_energy": -9.92, "internal_energy": -0.81, "cluster_size": 49, "cluster_id": 1, "rank_in_cluster": 15}

>  <energy>  (17) 
-8.73

>  <cluster_rmsd>  (17) 
0.28

>  <cluster>  (17) 
1

$$$$

     RDKit          3D

 56 60  0  0  0  0  0  0  0  0999 V2000
  139.4760   76.2340  222.4730 O   0  0  0  0  0  0  0  0  0  0  0  0
  140.6540   76.4500  222.1340 C   0  0  0  0  0  0  0  0  0  0  0  0
  141.4450   75.3620  221.6720 N   0  0  0  0  0  0  0  0  0  0  0  0
  140.8910   74.0570  221.6020 C   0  0  0  0  0  0  0  0  0  0  0  0
  140.6990   73.5190  220.3650 N   0  0  0  0  0  0  0  0  0  0  0  0
  140.1740   72.2790  220.2970 C   0  0  0  0  0  0  0  0  0  0  0  0
  139.9680   71.7080  219.0150 N   0  0  0  0  0  0  0  0  0  0  0  0
  139.8960   72.6120  217.8870 C   0  0  0  0  0  0  0  0  0  0  0  0
  139.5280   71.9680  216.5990 C   0  0  0  0  0  0  0  0  0  0  0  0
  139.8340   70.5550  216.5230 N   0  0  0  0  0  0  0  0  0  0  0  0
  139.2720   69.8090  217.6200 C   0  0  0  0  0  0  0  0  0  0  0  0
  139.8460   70.2800  218.9180 C   0  0  0  0  0  0  0  0  0  0  0  0
  139.8600   71.6180  221.4390 N   0  0  0  0  0  0  0  0  0  0  0  0
  140.0500   72.1490  222.6580 C   0  0  0  0  0  0  0  0  0  0  0  0
  139.7170   71.4480  223.8550 N   0  0  0  0  0  0  0  0  0  0  0  0
  138.5870   70.5360  223.8490 C   0  0  0  0  0  0  0  0  0  0  0  0
  139.1860   69.1530  224.1130 C   0  0  0  0  0  0  0  0  0  0  0  0
  139.8380   69.2580  225.4490 C   0  0  0  0  0  0  0  0  0  0  0  0
  139.8320   68.1480  226.2930 C   0  0  0  0  0  0  0  0  0  0  0  0
  140.4250   68.1910  227.5500 C   0  0  0  0  0  0  0  0  0  0  0  0
  141.0260   69.3630  227.9520 C   0  0  0  0  0  0  0  0  0  0  0  0
  141.0430   70.4850  227.1210 C   0  0  0  0  0  0  0  0  0  0  0  0
  140.4440   70.4240  225.8630 C   0  0  0  0  0  0  0  0  0  0  0  0
  140.5080   71.6580  225.0470 C   0  0  0  0  0  0  0  0  0  0  0  0
  140.5740   73.3850  222.7090 N   0  0  0  0  0  0  0  0  0  0  0  0
  141.1560   77.8150  222.2320 C   0  0  0  0  0  0  0  0  0  0  0  0
  141.4840   78.3040  223.4660 C   0  0  0  0  0  0  0  0  0  0  0  0
  141.9670   79.5820  223.6670 C   0  0  0  0  0  0  0  0  0  0  0  0
  142.1260   80.4070  222.5570 C   0  0  0  0  0  0  0  0  0  0  0  0
  141.7990   79.9300  221.2910 C   0  0  0  0  0  0  0  0  0  0  0  0
  141.3180   78.6420  221.1400 C   0  0  0  0  0  0  0  0  0  0  0  0
  142.4230   75.5170  221.3860 H   0  0  0  0  0  0  0  0  0  0  0  0
  139.1438   73.3823  218.1124 H   0  0  0  0  0  0  0  0  0  0  0  0
  140.9076   73.0223  217.7519 H   0  0  0  0  0  0  0  0  0  0  0  0
  138.4454   72.0932  216.4497 H   0  0  0  0  0  0  0  0  0  0  0  0
  140.1304   72.4599  215.8210 H   0  0  0  0  0  0  0  0  0  0  0  0
  139.3670   70.2090  215.6420 H   0  0  0  0  0  0  0  0  0  0  0  0
  138.1812   69.9502  217.6334 H   0  0  0  0  0  0  0  0  0  0  0  0
  139.5133   68.7439  217.4883 H   0  0  0  0  0  0  0  0  0  0  0  0
  139.1934   69.9318  219.7322 H   0  0  0  0  0  0  0  0  0  0  0  0
  140.8631   69.8667  218.9867 H   0  0  0  0  0  0  0  0  0  0  0  0
  137.8711   70.8037  224.6401 H   0  0  0  0  0  0  0  0  0  0  0  0
  138.0360   70.5705  222.8976 H   0  0  0  0  0  0  0  0  0  0  0  0
  138.3965   68.3872  224.1282 H   0  0  0  0  0  0  0  0  0  0  0  0
  139.8994   68.8576  223.3295 H   0  0  0  0  0  0  0  0  0  0  0  0
  139.3480   67.2189  225.9574 H   0  0  0  0  0  0  0  0  0  0  0  0
  140.4143   67.3095  228.2079 H   0  0  0  0  0  0  0  0  0  0  0  0
  141.5001   69.4161  228.9432 H   0  0  0  0  0  0  0  0  0  0  0  0
  141.5271   71.4137  227.4574 H   0  0  0  0  0  0  0  0  0  0  0  0
  140.1025   72.5053  225.6194 H   0  0  0  0  0  0  0  0  0  0  0  0
  141.5504   71.8844  224.7784 H   0  0  0  0  0  0  0  0  0  0  0  0
  141.3571   77.6483  224.3401 H   0  0  0  0  0  0  0  0  0  0  0  0
  142.2192   79.9384  224.6766 H   0  0  0  0  0  0  0  0  0  0  0  0
  142.5083   81.4311  222.6799 H   0  0  0  0  0  0  0  0  0  0  0  0
  141.9231   80.5774  220.4104 H   0  0  0  0  0  0  0  0  0  0  0  0
  141.0614   78.2724  220.1362 H   0  0  0  0  0  0  0  0  0  0  0  0
  1  2  2  0
  2  3  1  0
  3  4  1  0
  4  5  2  0
  5  6  1  0
  6  7  1  0
  7  8  1  0
  8  9  1  0
  9 10  1  0
 10 11  1  0
 11 12  1  0
  6 13  2  0
 13 14  1  0
 14 15  1  0
 15 16  1  0
 16 17  1  0
 17 18  1  0
 18 19  2  0
 19 20  1  0
 20 21  2  0
 21 22  1  0
 22 23  2  0
 23 24  1  0
 14 25  2  0
  2 26  1  0
 26 27  2  0
 27 28  1  0
 28 29  2  0
 29 30  1  0
 30 31  2  0
 25  4  1  0
 31 26  1  0
 12  7  1  0
 24 15  1  0
 23 18  1  0
  3 32  1  0
  8 33  1  0
  8 34  1  0
  9 35  1  0
  9 36  1  0
 10 37  1  0
 11 38  1  0
 11 39  1  0
 12 40  1  0
 12 41  1  0
 16 42  1  0
 16 43  1  0
 17 44  1  0
 17 45  1  0
 19 46  1  0
 20 47  1  0
 21 48  1  0
 22 49  1  0
 24 50  1  0
 24 51  1  0
 27 52  1  0
 28 53  1  0
 29 54  1  0
 30 55  1  0
 31 56  1  0
M  END
>  <smiles>  (18) 
O=C(Nc1nc(N2CCNCC2)nc(N2CCc3ccccc3C2)n1)c1ccccc1

>  <score_type>  (18) 
oracle

>  <origin>  (18) 
autodockgpu

>  <m_score__min__energy>  (18) 
-8.7400000000000002

>  <m_primary>  (18) 
energy

>  <rmsd>  (18) 
3.838640605648414

>  <m_score__min__rmsd>  (18) 
3.838640605648414

>  <meeko>  (18) 
{"free_energy": -8.7, "intermolecular_energy": -9.89, "internal_energy": -0.82, "cluster_size": 49, "cluster_id": 1, "rank_in_cluster": 34}

>  <energy>  (18) 
-8.73

>  <cluster_rmsd>  (18) 
0.26

>  <cluster>  (18) 
1

$$$$

     RDKit          3D

 56 60  0  0  0  0  0  0  0  0999 V2000
  139.5480   76.0650  222.7080 O   0  0  0  0  0  0  0  0  0  0  0  0
  140.6560   76.3700  222.2300 C   0  0  0  0  0  0  0  0  0  0  0  0
  141.4500   75.3520  221.6350 N   0  0  0  0  0  0  0  0  0  0  0  0
  140.9780   74.0130  221.5910 C   0  0  0  0  0  0  0  0  0  0  0  0
  140.9050   73.4120  220.3700 N   0  0  0  0  0  0  0  0  0  0  0  0
  140.4580   72.1400  220.3260 C   0  0  0  0  0  0  0  0  0  0  0  0
  140.3760   71.5020  219.0620 N   0  0  0  0  0  0  0  0  0  0  0  0
  139.5060   72.0970  218.0710 C   0  0  0  0  0  0  0  0  0  0  0  0
  139.3470   71.2990  216.8270 C   0  0  0  0  0  0  0  0  0  0  0  0
  140.4430   70.3950  216.5470 N   0  0  0  0  0  0  0  0  0  0  0  0
  140.7340   69.5210  217.6540 C   0  0  0  0  0  0  0  0  0  0  0  0
  141.1570   70.3160  218.8480 C   0  0  0  0  0  0  0  0  0  0  0  0
  140.1030   71.5120  221.4750 N   0  0  0  0  0  0  0  0  0  0  0  0
  140.1760   72.1060  222.6770 C   0  0  0  0  0  0  0  0  0  0  0  0
  139.8010   71.4390  223.8810 N   0  0  0  0  0  0  0  0  0  0  0  0
  138.6150   70.6010  223.8850 C   0  0  0  0  0  0  0  0  0  0  0  0
  139.1250   69.1860  224.1620 C   0  0  0  0  0  0  0  0  0  0  0  0
  139.7840   69.2620  225.4970 C   0  0  0  0  0  0  0  0  0  0  0  0
  139.7090   68.1630  226.3520 C   0  0  0  0  0  0  0  0  0  0  0  0
  140.3050   68.1810  227.6080 C   0  0  0  0  0  0  0  0  0  0  0  0
  140.9790   69.3160  227.9980 C   0  0  0  0  0  0  0  0  0  0  0  0
  141.0670   70.4260  227.1560 C   0  0  0  0  0  0  0  0  0  0  0  0
  140.4630   70.3910  225.8990 C   0  0  0  0  0  0  0  0  0  0  0  0
  140.6040   71.6100  225.0720 C   0  0  0  0  0  0  0  0  0  0  0  0
  140.6230   73.3730  222.7040 N   0  0  0  0  0  0  0  0  0  0  0  0
  141.0760   77.7630  222.3110 C   0  0  0  0  0  0  0  0  0  0  0  0
  141.1140   78.5010  221.1600 C   0  0  0  0  0  0  0  0  0  0  0  0
  141.4960   79.8280  221.1280 C   0  0  0  0  0  0  0  0  0  0  0  0
  141.8600   80.4380  222.3260 C   0  0  0  0  0  0  0  0  0  0  0  0
  141.8280   79.7050  223.5090 C   0  0  0  0  0  0  0  0  0  0  0  0
  141.4370   78.3780  223.4910 C   0  0  0  0  0  0  0  0  0  0  0  0
  142.3720   75.5820  221.2330 H   0  0  0  0  0  0  0  0  0  0  0  0
  138.5119   72.2297  218.5228 H   0  0  0  0  0  0  0  0  0  0  0  0
  139.9756   73.0464  217.7741 H   0  0  0  0  0  0  0  0  0  0  0  0
  138.4259   70.7044  216.9161 H   0  0  0  0  0  0  0  0  0  0  0  0
  139.3167   72.0192  215.9961 H   0  0  0  0  0  0  0  0  0  0  0  0
  140.1150   69.7880  215.7490 H   0  0  0  0  0  0  0  0  0  0  0  0
  139.8333   68.9415  217.9049 H   0  0  0  0  0  0  0  0  0  0  0  0
  141.5519   68.8432  217.3683 H   0  0  0  0  0  0  0  0  0  0  0  0
  141.0683   69.6771  219.7390 H   0  0  0  0  0  0  0  0  0  0  0  0
  142.1913   70.6427  218.6649 H   0  0  0  0  0  0  0  0  0  0  0  0
  137.9188   70.9215  224.6741 H   0  0  0  0  0  0  0  0  0  0  0  0
  138.0657   70.6613  222.9339 H   0  0  0  0  0  0  0  0  0  0  0  0
  138.2884   68.4721  224.1849 H   0  0  0  0  0  0  0  0  0  0  0  0
  139.8174   68.8385  223.3811 H   0  0  0  0  0  0  0  0  0  0  0  0
  139.1670   67.2630  226.0260 H   0  0  0  0  0  0  0  0  0  0  0  0
  140.2394   67.3084  228.2746 H   0  0  0  0  0  0  0  0  0  0  0  0
  141.4558   69.3489  228.9887 H   0  0  0  0  0  0  0  0  0  0  0  0
  141.6106   71.3249  227.4825 H   0  0  0  0  0  0  0  0  0  0  0  0
  140.2525   72.4864  225.6363 H   0  0  0  0  0  0  0  0  0  0  0  0
  141.6585   71.7680  224.8018 H   0  0  0  0  0  0  0  0  0  0  0  0
  140.8270   78.0151  220.2158 H   0  0  0  0  0  0  0  0  0  0  0  0
  141.5123   80.3882  220.1815 H   0  0  0  0  0  0  0  0  0  0  0  0
  142.1710   81.4931  222.3373 H   0  0  0  0  0  0  0  0  0  0  0  0
  142.1137   80.1811  224.4586 H   0  0  0  0  0  0  0  0  0  0  0  0
  141.4138   77.8061  224.4304 H   0  0  0  0  0  0  0  0  0  0  0  0
  1  2  2  0
  2  3  1  0
  3  4  1  0
  4  5  2  0
  5  6  1  0
  6  7  1  0
  7  8  1  0
  8  9  1  0
  9 10  1  0
 10 11  1  0
 11 12  1  0
  6 13  2  0
 13 14  1  0
 14 15  1  0
 15 16  1  0
 16 17  1  0
 17 18  1  0
 18 19  2  0
 19 20  1  0
 20 21  2  0
 21 22  1  0
 22 23  2  0
 23 24  1  0
 14 25  2  0
  2 26  1  0
 26 27  2  0
 27 28  1  0
 28 29  2  0
 29 30  1  0
 30 31  2  0
 25  4  1  0
 31 26  1  0
 12  7  1  0
 24 15  1  0
 23 18  1  0
  3 32  1  0
  8 33  1  0
  8 34  1  0
  9 35  1  0
  9 36  1  0
 10 37  1  0
 11 38  1  0
 11 39  1  0
 12 40  1  0
 12 41  1  0
 16 42  1  0
 16 43  1  0
 17 44  1  0
 17 45  1  0
 19 46  1  0
 20 47  1  0
 21 48  1  0
 22 49  1  0
 24 50  1  0
 24 51  1  0
 27 52  1  0
 28 53  1  0
 29 54  1  0
 30 55  1  0
 31 56  1  0
M  END
>  <smiles>  (19) 
O=C(Nc1nc(N2CCNCC2)nc(N2CCc3ccccc3C2)n1)c1ccccc1

>  <score_type>  (19) 
oracle

>  <origin>  (19) 
autodockgpu

>  <m_score__min__energy>  (19) 
-8.7400000000000002

>  <m_primary>  (19) 
energy

>  <rmsd>  (19) 
3.8433535714773863

>  <m_score__min__rmsd>  (19) 
3.8433535714773863

>  <meeko>  (19) 
{"free_energy": -8.71, "intermolecular_energy": -9.9, "internal_energy": -0.8, "cluster_size": 49, "cluster_id": 1, "rank_in_cluster": 30}

>  <energy>  (19) 
-8.73

>  <cluster_rmsd>  (19) 
0.35

>  <cluster>  (19) 
1

$$$$

     RDKit          3D

 56 60  0  0  0  0  0  0  0  0999 V2000
  139.3240   76.3800  222.3790 O   0  0  0  0  0  0  0  0  0  0  0  0
  140.5420   76.5210  222.1630 C   0  0  0  0  0  0  0  0  0  0  0  0
  141.3050   75.3850  221.7750 N   0  0  0  0  0  0  0  0  0  0  0  0
  140.6790   74.1180  221.6390 C   0  0  0  0  0  0  0  0  0  0  0  0
  140.3840   73.6930  220.3790 N   0  0  0  0  0  0  0  0  0  0  0  0
  139.7910   72.4890  220.2480 C   0  0  0  0  0  0  0  0  0  0  0  0
  139.4780   72.0350  218.9410 N   0  0  0  0  0  0  0  0  0  0  0  0
  139.8870   70.6940  218.5860 C   0  0  0  0  0  0  0  0  0  0  0  0
  139.6680   70.3370  217.1600 C   0  0  0  0  0  0  0  0  0  0  0  0
  138.6270   71.0980  216.5010 N   0  0  0  0  0  0  0  0  0  0  0  0
  138.8240   72.5200  216.6220 C   0  0  0  0  0  0  0  0  0  0  0  0
  138.7800   72.9300  218.0600 C   0  0  0  0  0  0  0  0  0  0  0  0
  139.5120   71.7530  221.3530 N   0  0  0  0  0  0  0  0  0  0  0  0
  139.8030   72.1730  222.5940 C   0  0  0  0  0  0  0  0  0  0  0  0
  139.5070   71.3940  223.7520 N   0  0  0  0  0  0  0  0  0  0  0  0
  138.3690   70.4930  223.7250 C   0  0  0  0  0  0  0  0  0  0  0  0
  138.9630   69.0910  223.8710 C   0  0  0  0  0  0  0  0  0  0  0  0
  139.6640   69.0980  225.1860 C   0  0  0  0  0  0  0  0  0  0  0  0
  139.6770   67.9320  225.9510 C   0  0  0  0  0  0  0  0  0  0  0  0
  140.3160   67.8840  227.1860 C   0  0  0  0  0  0  0  0  0  0  0  0
  140.9430   69.0200  227.6450 C   0  0  0  0  0  0  0  0  0  0  0  0
  140.9420   70.1970  226.8920 C   0  0  0  0  0  0  0  0  0  0  0  0
  140.2970   70.2280  225.6570 C   0  0  0  0  0  0  0  0  0  0  0  0
  140.3430   71.5140  224.9260 C   0  0  0  0  0  0  0  0  0  0  0  0
  140.3950   73.3740  222.7080 N   0  0  0  0  0  0  0  0  0  0  0  0
  141.1160   77.8510  222.3210 C   0  0  0  0  0  0  0  0  0  0  0  0
  141.2920   78.6230  221.2060 C   0  0  0  0  0  0  0  0  0  0  0  0
  141.8270   79.8960  221.2480 C   0  0  0  0  0  0  0  0  0  0  0  0
  142.2040   80.4120  222.4860 C   0  0  0  0  0  0  0  0  0  0  0  0
  142.0330   79.6430  223.6330 C   0  0  0  0  0  0  0  0  0  0  0  0
  141.4920   78.3730  223.5420 C   0  0  0  0  0  0  0  0  0  0  0  0
  142.3150   75.4780  221.5910 H   0  0  0  0  0  0  0  0  0  0  0  0
  140.9606   70.5939  218.8037 H   0  0  0  0  0  0  0  0  0  0  0  0
  139.2609   70.0103  219.1780 H   0  0  0  0  0  0  0  0  0  0  0  0
  140.6100   70.5020  216.6165 H   0  0  0  0  0  0  0  0  0  0  0  0
  139.3413   69.2867  217.1482 H   0  0  0  0  0  0  0  0  0  0  0  0
  138.7060   70.8610  215.4760 H   0  0  0  0  0  0  0  0  0  0  0  0
  139.8030   72.7880  216.1981 H   0  0  0  0  0  0  0  0  0  0  0  0
  138.0222   73.0398  216.0771 H   0  0  0  0  0  0  0  0  0  0  0  0
  139.2332   73.9282  218.1498 H   0  0  0  0  0  0  0  0  0  0  0  0
  137.7228   72.9180  218.3638 H   0  0  0  0  0  0  0  0  0  0  0  0
  137.6850   70.7107  224.5585 H   0  0  0  0  0  0  0  0  0  0  0  0
  137.7844   70.5971  222.7990 H   0  0  0  0  0  0  0  0  0  0  0  0
  138.1668   68.3321  223.8625 H   0  0  0  0  0  0  0  0  0  0  0  0
  139.6446   68.8453  223.0433 H   0  0  0  0  0  0  0  0  0  0  0  0
  139.1719   67.0321  225.5703 H   0  0  0  0  0  0  0  0  0  0  0  0
  140.3200   66.9594  227.7819 H   0  0  0  0  0  0  0  0  0  0  0  0
  141.4527   69.0010  228.6196 H   0  0  0  0  0  0  0  0  0  0  0  0
  141.4486   71.0961  227.2727 H   0  0  0  0  0  0  0  0  0  0  0  0
  139.9672   72.3226  225.5702 H   0  0  0  0  0  0  0  0  0  0  0  0
  141.3772   71.7498  224.6347 H   0  0  0  0  0  0  0  0  0  0  0  0
  140.9938   78.2113  220.2305 H   0  0  0  0  0  0  0  0  0  0  0  0
  141.9520   80.4865  220.3284 H   0  0  0  0  0  0  0  0  0  0  0  0
  142.6345   81.4218  222.5563 H   0  0  0  0  0  0  0  0  0  0  0  0
  142.3283   80.0454  224.6132 H   0  0  0  0  0  0  0  0  0  0  0  0
  141.3599   77.7720  224.4538 H   0  0  0  0  0  0  0  0  0  0  0  0
  1  2  2  0
  2  3  1  0
  3  4  1  0
  4  5  2  0
  5  6  1  0
  6  7  1  0
  7  8  1  0
  8  9  1  0
  9 10  1  0
 10 11  1  0
 11 12  1  0
  6 13  2  0
 13 14  1  0
 14 15  1  0
 15 16  1  0
 16 17  1  0
 17 18  1  0
 18 19  2  0
 19 20  1  0
 20 21  2  0
 21 22  1  0
 22 23  2  0
 23 24  1  0
 14 25  2  0
  2 26  1  0
 26 27  2  0
 27 28  1  0
 28 29  2  0
 29 30  1  0
 30 31  2  0
 25  4  1  0
 31 26  1  0
 12  7  1  0
 24 15  1  0
 23 18  1  0
  3 32  1  0
  8 33  1  0
  8 34  1  0
  9 35  1  0
  9 36  1  0
 10 37  1  0
 11 38  1  0
 11 39  1  0
 12 40  1  0
 12 41  1  0
 16 42  1  0
 16 43  1  0
 17 44  1  0
 17 45  1  0
 19 46  1  0
 20 47  1  0
 21 48  1  0
 22 49  1  0
 24 50  1  0
 24 51  1  0
 27 52  1  0
 28 53  1  0
 29 54  1  0
 30 55  1  0
 31 56  1  0
M  END
>  <smiles>  (20) 
O=C(Nc1nc(N2CCNCC2)nc(N2CCc3ccccc3C2)n1)c1ccccc1

>  <score_type>  (20) 
oracle

>  <origin>  (20) 
autodockgpu

>  <m_score__min__energy>  (20) 
-8.7400000000000002

>  <m_primary>  (20) 
energy

>  <rmsd>  (20) 
3.794034666775796

>  <m_score__min__rmsd>  (20) 
3.794034666775796

>  <meeko>  (20) 
{"free_energy": -8.64, "intermolecular_energy": -9.84, "internal_energy": -0.81, "cluster_size": 49, "cluster_id": 1, "rank_in_cluster": 43}

>  <energy>  (20) 
-8.73

>  <cluster_rmsd>  (20) 
0.25

>  <cluster>  (20) 
1

$$$$

     RDKit          3D

 56 60  0  0  0  0  0  0  0  0999 V2000
  139.5360   76.0960  222.6830 O   0  0  0  0  0  0  0  0  0  0  0  0
  140.6590   76.3790  222.2290 C   0  0  0  0  0  0  0  0  0  0  0  0
  141.4450   75.3470  221.6460 N   0  0  0  0  0  0  0  0  0  0  0  0
  140.9460   74.0190  221.5890 C   0  0  0  0  0  0  0  0  0  0  0  0
  140.8430   73.4380  220.3610 N   0  0  0  0  0  0  0  0  0  0  0  0
  140.3710   72.1760  220.3040 C   0  0  0  0  0  0  0  0  0  0  0  0
  140.2570   71.5600  219.0320 N   0  0  0  0  0  0  0  0  0  0  0  0
  139.9760   70.1410  219.0010 C   0  0  0  0  0  0  0  0  0  0  0  0
  140.0220   69.5300  217.6470 C   0  0  0  0  0  0  0  0  0  0  0  0
  139.7850   70.4550  216.5590 N   0  0  0  0  0  0  0  0  0  0  0  0
  140.6590   71.5990  216.6080 C   0  0  0  0  0  0  0  0  0  0  0  0
  140.4270   72.3780  217.8630 C   0  0  0  0  0  0  0  0  0  0  0  0
  140.0210   71.5370  221.4480 N   0  0  0  0  0  0  0  0  0  0  0  0
  140.1240   72.1100  222.6580 C   0  0  0  0  0  0  0  0  0  0  0  0
  139.7550   71.4320  223.8580 N   0  0  0  0  0  0  0  0  0  0  0  0
  138.5850   70.5720  223.8520 C   0  0  0  0  0  0  0  0  0  0  0  0
  139.1190   69.1650  224.1260 C   0  0  0  0  0  0  0  0  0  0  0  0
  139.7690   69.2470  225.4640 C   0  0  0  0  0  0  0  0  0  0  0  0
  139.7090   68.1440  226.3140 C   0  0  0  0  0  0  0  0  0  0  0  0
  140.2990   68.1670  227.5740 C   0  0  0  0  0  0  0  0  0  0  0  0
  140.9500   69.3120  227.9720 C   0  0  0  0  0  0  0  0  0  0  0  0
  141.0220   70.4280  227.1340 C   0  0  0  0  0  0  0  0  0  0  0  0
  140.4260   70.3870  225.8750 C   0  0  0  0  0  0  0  0  0  0  0  0
  140.5490   71.6120  225.0530 C   0  0  0  0  0  0  0  0  0  0  0  0
  140.5960   73.3680  222.6980 N   0  0  0  0  0  0  0  0  0  0  0  0
  141.1060   77.7640  222.3220 C   0  0  0  0  0  0  0  0  0  0  0  0
  141.1960   78.5000  221.1730 C   0  0  0  0  0  0  0  0  0  0  0  0
  141.6080   79.8180  221.1520 C   0  0  0  0  0  0  0  0  0  0  0  0
  141.9450   80.4210  222.3610 C   0  0  0  0  0  0  0  0  0  0  0  0
  141.8600   79.6910  223.5430 C   0  0  0  0  0  0  0  0  0  0  0  0
  141.4420   78.3730  223.5130 C   0  0  0  0  0  0  0  0  0  0  0  0
  142.3780   75.5590  221.2650 H   0  0  0  0  0  0  0  0  0  0  0  0
  140.7177   69.6306  219.6330 H   0  0  0  0  0  0  0  0  0  0  0  0
  138.9442   70.0198  219.3625 H   0  0  0  0  0  0  0  0  0  0  0  0
  141.0171   69.0828  217.5063 H   0  0  0  0  0  0  0  0  0  0  0  0
  139.2074   68.7916  217.6108 H   0  0  0  0  0  0  0  0  0  0  0  0
  140.0170   69.9250  215.6770 H   0  0  0  0  0  0  0  0  0  0  0  0
  141.7045   71.2580  216.5810 H   0  0  0  0  0  0  0  0  0  0  0  0
  140.4501   72.2453  215.7428 H   0  0  0  0  0  0  0  0  0  0  0  0
  141.2911   73.0390  218.0253 H   0  0  0  0  0  0  0  0  0  0  0  0
  139.4893   72.9360  217.7242 H   0  0  0  0  0  0  0  0  0  0  0  0
  137.8787   70.8763  224.6385 H   0  0  0  0  0  0  0  0  0  0  0  0
  138.0403   70.6261  222.8979 H   0  0  0  0  0  0  0  0  0  0  0  0
  138.2953   68.4361  224.1414 H   0  0  0  0  0  0  0  0  0  0  0  0
  139.8217   68.8334  223.3474 H   0  0  0  0  0  0  0  0  0  0  0  0
  139.1842   67.2362  225.9817 H   0  0  0  0  0  0  0  0  0  0  0  0
  140.2462   67.2904  228.2364 H   0  0  0  0  0  0  0  0  0  0  0  0
  141.4211   69.3495  228.9653 H   0  0  0  0  0  0  0  0  0  0  0  0
  141.5472   71.3354  227.4669 H   0  0  0  0  0  0  0  0  0  0  0  0
  140.1794   72.4797  225.6191 H   0  0  0  0  0  0  0  0  0  0  0  0
  141.6018   71.7894  224.7882 H   0  0  0  0  0  0  0  0  0  0  0  0
  140.9276   78.0196  220.2206 H   0  0  0  0  0  0  0  0  0  0  0  0
  141.6683   80.3762  220.2060 H   0  0  0  0  0  0  0  0  0  0  0  0
  142.2769   81.4695  222.3818 H   0  0  0  0  0  0  0  0  0  0  0  0
  142.1252   80.1623  224.5009 H   0  0  0  0  0  0  0  0  0  0  0  0
  141.3767   77.8029  224.4514 H   0  0  0  0  0  0  0  0  0  0  0  0
  1  2  2  0
  2  3  1  0
  3  4  1  0
  4  5  2  0
  5  6  1  0
  6  7  1  0
  7  8  1  0
  8  9  1  0
  9 10  1  0
 10 11  1  0
 11 12  1  0
  6 13  2  0
 13 14  1  0
 14 15  1  0
 15 16  1  0
 16 17  1  0
 17 18  1  0
 18 19  2  0
 19 20  1  0
 20 21  2  0
 21 22  1  0
 22 23  2  0
 23 24  1  0
 14 25  2  0
  2 26  1  0
 26 27  2  0
 27 28  1  0
 28 29  2  0
 29 30  1  0
 30 31  2  0
 25  4  1  0
 31 26  1  0
 12  7  1  0
 24 15  1  0
 23 18  1  0
  3 32  1  0
  8 33  1  0
  8 34  1  0
  9 35  1  0
  9 36  1  0
 10 37  1  0
 11 38  1  0
 11 39  1  0
 12 40  1  0
 12 41  1  0
 16 42  1  0
 16 43  1  0
 17 44  1  0
 17 45  1  0
 19 46  1  0
 20 47  1  0
 21 48  1  0
 22 49  1  0
 24 50  1  0
 24 51  1  0
 27 52  1  0
 28 53  1  0
 29 54  1  0
 30 55  1  0
 31 56  1  0
M  END
>  <smiles>  (21) 
O=C(Nc1nc(N2CCNCC2)nc(N2CCc3ccccc3C2)n1)c1ccccc1

>  <score_type>  (21) 
oracle

>  <origin>  (21) 
autodockgpu

>  <m_score__min__energy>  (21) 
-8.7400000000000002

>  <m_primary>  (21) 
energy

>  <rmsd>  (21) 
3.8378826031420177

>  <m_score__min__rmsd>  (21) 
3.8378826031420177

>  <meeko>  (21) 
{"free_energy": -8.69, "intermolecular_energy": -9.89, "internal_energy": -0.82, "cluster_size": 49, "cluster_id": 1, "rank_in_cluster": 36}

>  <energy>  (21) 
-8.72

>  <cluster_rmsd>  (21) 
0.26

>  <cluster>  (21) 
1

$$$$

     RDKit          3D

 56 60  0  0  0  0  0  0  0  0999 V2000
  139.5770   76.0500  222.6530 O   0  0  0  0  0  0  0  0  0  0  0  0
  140.6950   76.3440  222.1910 C   0  0  0  0  0  0  0  0  0  0  0  0
  141.4930   75.3160  221.6190 N   0  0  0  0  0  0  0  0  0  0  0  0
  141.0150   73.9800  221.5810 C   0  0  0  0  0  0  0  0  0  0  0  0
  140.9450   73.3700  220.3640 N   0  0  0  0  0  0  0  0  0  0  0  0
  140.4920   72.1010  220.3260 C   0  0  0  0  0  0  0  0  0  0  0  0
  140.4150   71.4550  219.0650 N   0  0  0  0  0  0  0  0  0  0  0  0
  139.6930   72.1350  218.0120 C   0  0  0  0  0  0  0  0  0  0  0  0
  139.5180   71.3400  216.7680 C   0  0  0  0  0  0  0  0  0  0  0  0
  140.5090   70.3030  216.5710 N   0  0  0  0  0  0  0  0  0  0  0  0
  140.6150   69.4190  217.7030 C   0  0  0  0  0  0  0  0  0  0  0  0
  141.0540   70.1770  218.9160 C   0  0  0  0  0  0  0  0  0  0  0  0
  140.1270   71.4820  221.4760 N   0  0  0  0  0  0  0  0  0  0  0  0
  140.1950   72.0830  222.6750 C   0  0  0  0  0  0  0  0  0  0  0  0
  139.8090   71.4270  223.8810 N   0  0  0  0  0  0  0  0  0  0  0  0
  138.6000   70.6230  223.8920 C   0  0  0  0  0  0  0  0  0  0  0  0
  139.0710   69.1930  224.1640 C   0  0  0  0  0  0  0  0  0  0  0  0
  139.7410   69.2490  225.4940 C   0  0  0  0  0  0  0  0  0  0  0  0
  139.6400   68.1520  226.3490 C   0  0  0  0  0  0  0  0  0  0  0  0
  140.2450   68.1510  227.6010 C   0  0  0  0  0  0  0  0  0  0  0  0
  140.9540   69.2660  227.9880 C   0  0  0  0  0  0  0  0  0  0  0  0
  141.0680   70.3740  227.1460 C   0  0  0  0  0  0  0  0  0  0  0  0
  140.4560   70.3580  225.8940 C   0  0  0  0  0  0  0  0  0  0  0  0
  140.6260   71.5730  225.0660 C   0  0  0  0  0  0  0  0  0  0  0  0
  140.6490   73.3480  222.6960 N   0  0  0  0  0  0  0  0  0  0  0  0
  141.1210   77.7360  222.2640 C   0  0  0  0  0  0  0  0  0  0  0  0
  141.4490   78.2550  223.4870 C   0  0  0  0  0  0  0  0  0  0  0  0
  141.8640   79.5610  223.6640 C   0  0  0  0  0  0  0  0  0  0  0  0
  141.9510   80.3820  222.5430 C   0  0  0  0  0  0  0  0  0  0  0  0
  141.6230   79.8740  221.2900 C   0  0  0  0  0  0  0  0  0  0  0  0
  141.2120   78.5590  221.1610 C   0  0  0  0  0  0  0  0  0  0  0  0
  142.4230   75.5370  221.2310 H   0  0  0  0  0  0  0  0  0  0  0  0
  138.6956   72.3978  218.3943 H   0  0  0  0  0  0  0  0  0  0  0  0
  140.2956   73.0136  217.7381 H   0  0  0  0  0  0  0  0  0  0  0  0
  138.5264   70.8651  216.8010 H   0  0  0  0  0  0  0  0  0  0  0  0
  139.6319   72.0433  215.9299 H   0  0  0  0  0  0  0  0  0  0  0  0
  140.1600   69.7260  215.7590 H   0  0  0  0  0  0  0  0  0  0  0  0
  139.6346   68.9597  217.8975 H   0  0  0  0  0  0  0  0  0  0  0  0
  141.3590   68.6402  217.4797 H   0  0  0  0  0  0  0  0  0  0  0  0
  140.8269   69.5702  219.8049 H   0  0  0  0  0  0  0  0  0  0  0  0
  142.1309   70.3693  218.8007 H   0  0  0  0  0  0  0  0  0  0  0  0
  137.9185   70.9622  224.6861 H   0  0  0  0  0  0  0  0  0  0  0  0
  138.0466   70.7001  222.9445 H   0  0  0  0  0  0  0  0  0  0  0  0
  138.2144   68.5035  224.1923 H   0  0  0  0  0  0  0  0  0  0  0  0
  139.7474   68.8262  223.3779 H   0  0  0  0  0  0  0  0  0  0  0  0
  139.0696   67.2686  226.0261 H   0  0  0  0  0  0  0  0  0  0  0  0
  140.1591   67.2796  228.2668 H   0  0  0  0  0  0  0  0  0  0  0  0
  141.4380   69.2842  228.9756 H   0  0  0  0  0  0  0  0  0  0  0  0
  141.6390   71.2567  227.4698 H   0  0  0  0  0  0  0  0  0  0  0  0
  140.3049   72.4589  225.6335 H   0  0  0  0  0  0  0  0  0  0  0  0
  141.6826   71.6996  224.7873 H   0  0  0  0  0  0  0  0  0  0  0  0
  141.3791   77.6025  224.3698 H   0  0  0  0  0  0  0  0  0  0  0  0
  142.1188   79.9419  224.6640 H   0  0  0  0  0  0  0  0  0  0  0  0
  142.2775   81.4272  222.6474 H   0  0  0  0  0  0  0  0  0  0  0  0
  141.6905   80.5183  220.4010 H   0  0  0  0  0  0  0  0  0  0  0  0
  140.9547   78.1652  220.1666 H   0  0  0  0  0  0  0  0  0  0  0  0
  1  2  2  0
  2  3  1  0
  3  4  1  0
  4  5  2  0
  5  6  1  0
  6  7  1  0
  7  8  1  0
  8  9  1  0
  9 10  1  0
 10 11  1  0
 11 12  1  0
  6 13  2  0
 13 14  1  0
 14 15  1  0
 15 16  1  0
 16 17  1  0
 17 18  1  0
 18 19  2  0
 19 20  1  0
 20 21  2  0
 21 22  1  0
 22 23  2  0
 23 24  1  0
 14 25  2  0
  2 26  1  0
 26 27  2  0
 27 28  1  0
 28 29  2  0
 29 30  1  0
 30 31  2  0
 25  4  1  0
 31 26  1  0
 12  7  1  0
 24 15  1  0
 23 18  1  0
  3 32  1  0
  8 33  1  0
  8 34  1  0
  9 35  1  0
  9 36  1  0
 10 37  1  0
 11 38  1  0
 11 39  1  0
 12 40  1  0
 12 41  1  0
 16 42  1  0
 16 43  1  0
 17 44  1  0
 17 45  1  0
 19 46  1  0
 20 47  1  0
 21 48  1  0
 22 49  1  0
 24 50  1  0
 24 51  1  0
 27 52  1  0
 28 53  1  0
 29 54  1  0
 30 55  1  0
 31 56  1  0
M  END
>  <smiles>  (22) 
O=C(Nc1nc(N2CCNCC2)nc(N2CCc3ccccc3C2)n1)c1ccccc1

>  <score_type>  (22) 
oracle

>  <origin>  (22) 
autodockgpu

>  <m_score__min__energy>  (22) 
-8.7400000000000002

>  <m_primary>  (22) 
energy

>  <rmsd>  (22) 
3.8390610358207833

>  <m_score__min__rmsd>  (22) 
3.8390610358207833

>  <meeko>  (22) 
{"free_energy": -8.74, "intermolecular_energy": -9.93, "internal_energy": -0.8, "cluster_size": 49, "cluster_id": 1, "rank_in_cluster": 2}

>  <energy>  (22) 
-8.72

>  <cluster_rmsd>  (22) 
0.21

>  <cluster>  (22) 
1

$$$$

     RDKit          3D

 56 60  0  0  0  0  0  0  0  0999 V2000
  139.5610   75.9970  222.6830 O   0  0  0  0  0  0  0  0  0  0  0  0
  140.6700   76.3090  222.2110 C   0  0  0  0  0  0  0  0  0  0  0  0
  141.4740   75.2960  221.6200 N   0  0  0  0  0  0  0  0  0  0  0  0
  141.0110   73.9540  221.5770 C   0  0  0  0  0  0  0  0  0  0  0  0
  140.9720   73.3410  220.3600 N   0  0  0  0  0  0  0  0  0  0  0  0
  140.5340   72.0660  220.3160 C   0  0  0  0  0  0  0  0  0  0  0  0
  140.4870   71.4170  219.0560 N   0  0  0  0  0  0  0  0  0  0  0  0
  140.4040   69.9730  219.0530 C   0  0  0  0  0  0  0  0  0  0  0  0
  140.5140   69.3490  217.7090 C   0  0  0  0  0  0  0  0  0  0  0  0
  140.1350   70.2130  216.6100 N   0  0  0  0  0  0  0  0  0  0  0  0
  140.8440   71.4660  216.6250 C   0  0  0  0  0  0  0  0  0  0  0  0
  140.5250   72.2300  217.8720 C   0  0  0  0  0  0  0  0  0  0  0  0
  140.1540   71.4460  221.4610 N   0  0  0  0  0  0  0  0  0  0  0  0
  140.1930   72.0510  222.6600 C   0  0  0  0  0  0  0  0  0  0  0  0
  139.7920   71.3930  223.8600 N   0  0  0  0  0  0  0  0  0  0  0  0
  138.5970   70.5690  223.8480 C   0  0  0  0  0  0  0  0  0  0  0  0
  139.0860   69.1480  224.1370 C   0  0  0  0  0  0  0  0  0  0  0  0
  139.7260   69.2200  225.4810 C   0  0  0  0  0  0  0  0  0  0  0  0
  139.6240   68.1250  226.3380 C   0  0  0  0  0  0  0  0  0  0  0  0
  140.2020   68.1390  227.6030 C   0  0  0  0  0  0  0  0  0  0  0  0
  140.8840   69.2670  228.0000 C   0  0  0  0  0  0  0  0  0  0  0  0
  140.9980   70.3740  227.1550 C   0  0  0  0  0  0  0  0  0  0  0  0
  140.4130   70.3430  225.8900 C   0  0  0  0  0  0  0  0  0  0  0  0
  140.5800   71.5570  225.0610 C   0  0  0  0  0  0  0  0  0  0  0  0
  140.6320   73.3210  222.6860 N   0  0  0  0  0  0  0  0  0  0  0  0
  141.0800   77.7060  222.2910 C   0  0  0  0  0  0  0  0  0  0  0  0
  141.1170   78.4430  221.1390 C   0  0  0  0  0  0  0  0  0  0  0  0
  141.4900   79.7720  221.1060 C   0  0  0  0  0  0  0  0  0  0  0  0
  141.8450   80.3860  222.3050 C   0  0  0  0  0  0  0  0  0  0  0  0
  141.8140   79.6540  223.4890 C   0  0  0  0  0  0  0  0  0  0  0  0
  141.4330   78.3250  223.4720 C   0  0  0  0  0  0  0  0  0  0  0  0
  142.3950   75.5310  221.2230 H   0  0  0  0  0  0  0  0  0  0  0  0
  141.2182   69.5814  219.6806 H   0  0  0  0  0  0  0  0  0  0  0  0
  139.4041   69.7178  219.4338 H   0  0  0  0  0  0  0  0  0  0  0  0
  141.5591   69.0408  217.5584 H   0  0  0  0  0  0  0  0  0  0  0  0
  139.8092   68.5045  217.6989 H   0  0  0  0  0  0  0  0  0  0  0  0
  140.4250   69.7030  215.7340 H   0  0  0  0  0  0  0  0  0  0  0  0
  141.9259   71.2710  216.5860 H   0  0  0  0  0  0  0  0  0  0  0  0
  140.5360   72.0612  215.7527 H   0  0  0  0  0  0  0  0  0  0  0  0
  141.2920   73.0065  218.0089 H   0  0  0  0  0  0  0  0  0  0  0  0
  139.5177   72.6520  217.7405 H   0  0  0  0  0  0  0  0  0  0  0  0
  137.8925   70.9000  224.6253 H   0  0  0  0  0  0  0  0  0  0  0  0
  138.0635   70.6328  222.8882 H   0  0  0  0  0  0  0  0  0  0  0  0
  138.2406   68.4444  224.1497 H   0  0  0  0  0  0  0  0  0  0  0  0
  139.7856   68.7898  223.3674 H   0  0  0  0  0  0  0  0  0  0  0  0
  139.0749   67.2313  226.0067 H   0  0  0  0  0  0  0  0  0  0  0  0
  140.1162   67.2690  228.2707 H   0  0  0  0  0  0  0  0  0  0  0  0
  141.3463   69.2973  228.9977 H   0  0  0  0  0  0  0  0  0  0  0  0
  141.5476   71.2672  227.4869 H   0  0  0  0  0  0  0  0  0  0  0  0
  140.2317   72.4394  225.6178 H   0  0  0  0  0  0  0  0  0  0  0  0
  141.6400   71.7003  224.8045 H   0  0  0  0  0  0  0  0  0  0  0  0
  140.8364   77.9538  220.1946 H   0  0  0  0  0  0  0  0  0  0  0  0
  141.5064   80.3308  220.1586 H   0  0  0  0  0  0  0  0  0  0  0  0
  142.1482   81.4433  222.3163 H   0  0  0  0  0  0  0  0  0  0  0  0
  142.0929   80.1335  224.4389 H   0  0  0  0  0  0  0  0  0  0  0  0
  141.4111   77.7542  224.4121 H   0  0  0  0  0  0  0  0  0  0  0  0
  1  2  2  0
  2  3  1  0
  3  4  1  0
  4  5  2  0
  5  6  1  0
  6  7  1  0
  7  8  1  0
  8  9  1  0
  9 10  1  0
 10 11  1  0
 11 12  1  0
  6 13  2  0
 13 14  1  0
 14 15  1  0
 15 16  1  0
 16 17  1  0
 17 18  1  0
 18 19  2  0
 19 20  1  0
 20 21  2  0
 21 22  1  0
 22 23  2  0
 23 24  1  0
 14 25  2  0
  2 26  1  0
 26 27  2  0
 27 28  1  0
 28 29  2  0
 29 30  1  0
 30 31  2  0
 25  4  1  0
 31 26  1  0
 12  7  1  0
 24 15  1  0
 23 18  1  0
  3 32  1  0
  8 33  1  0
  8 34  1  0
  9 35  1  0
  9 36  1  0
 10 37  1  0
 11 38  1  0
 11 39  1  0
 12 40  1  0
 12 41  1  0
 16 42  1  0
 16 43  1  0
 17 44  1  0
 17 45  1  0
 19 46  1  0
 20 47  1  0
 21 48  1  0
 22 49  1  0
 24 50  1  0
 24 51  1  0
 27 52  1  0
 28 53  1  0
 29 54  1  0
 30 55  1  0
 31 56  1  0
M  END
>  <smiles>  (23) 
O=C(Nc1nc(N2CCNCC2)nc(N2CCc3ccccc3C2)n1)c1ccccc1

>  <score_type>  (23) 
oracle

>  <origin>  (23) 
autodockgpu

>  <m_score__min__energy>  (23) 
-8.7400000000000002

>  <m_primary>  (23) 
energy

>  <rmsd>  (23) 
3.843137502671582

>  <m_score__min__rmsd>  (23) 
3.843137502671582

>  <meeko>  (23) 
{"free_energy": -8.7, "intermolecular_energy": -9.89, "internal_energy": -0.81, "cluster_size": 49, "cluster_id": 1, "rank_in_cluster": 33}

>  <energy>  (23) 
-8.72

>  <cluster_rmsd>  (23) 
0.33

>  <cluster>  (23) 
1

$$$$

     RDKit          3D

 56 60  0  0  0  0  0  0  0  0999 V2000
  139.4840   76.1840  222.5000 O   0  0  0  0  0  0  0  0  0  0  0  0
  140.6580   76.4030  222.1500 C   0  0  0  0  0  0  0  0  0  0  0  0
  141.4470   75.3180  221.6760 N   0  0  0  0  0  0  0  0  0  0  0  0
  140.8940   74.0120  221.6060 C   0  0  0  0  0  0  0  0  0  0  0  0
  140.7070   73.4730  220.3690 N   0  0  0  0  0  0  0  0  0  0  0  0
  140.1840   72.2320  220.3000 C   0  0  0  0  0  0  0  0  0  0  0  0
  139.9830   71.6590  219.0190 N   0  0  0  0  0  0  0  0  0  0  0  0
  139.7190   70.2380  218.9580 C   0  0  0  0  0  0  0  0  0  0  0  0
  139.6720   69.6760  217.5820 C   0  0  0  0  0  0  0  0  0  0  0  0
  139.3420   70.6350  216.5490 N   0  0  0  0  0  0  0  0  0  0  0  0
  140.2020   71.7900  216.5740 C   0  0  0  0  0  0  0  0  0  0  0  0
  140.0550   72.5210  217.8710 C   0  0  0  0  0  0  0  0  0  0  0  0
  139.8660   71.5720  221.4430 N   0  0  0  0  0  0  0  0  0  0  0  0
  140.0510   72.1050  222.6610 C   0  0  0  0  0  0  0  0  0  0  0  0
  139.7150   71.4050  223.8580 N   0  0  0  0  0  0  0  0  0  0  0  0
  138.5770   70.5040  223.8540 C   0  0  0  0  0  0  0  0  0  0  0  0
  139.1630   69.1150  224.1140 C   0  0  0  0  0  0  0  0  0  0  0  0
  139.8200   69.2110  225.4480 C   0  0  0  0  0  0  0  0  0  0  0  0
  139.8050   68.1000  226.2910 C   0  0  0  0  0  0  0  0  0  0  0  0
  140.4030   68.1360  227.5460 C   0  0  0  0  0  0  0  0  0  0  0  0
  141.0150   69.3010  227.9480 C   0  0  0  0  0  0  0  0  0  0  0  0
  141.0410   70.4240  227.1190 C   0  0  0  0  0  0  0  0  0  0  0  0
  140.4380   70.3710  225.8630 C   0  0  0  0  0  0  0  0  0  0  0  0
  140.5110   71.6050  225.0490 C   0  0  0  0  0  0  0  0  0  0  0  0
  140.5740   73.3420  222.7120 N   0  0  0  0  0  0  0  0  0  0  0  0
  141.1580   77.7680  222.2490 C   0  0  0  0  0  0  0  0  0  0  0  0
  141.4600   78.2660  223.4870 C   0  0  0  0  0  0  0  0  0  0  0  0
  141.9400   79.5450  223.6890 C   0  0  0  0  0  0  0  0  0  0  0  0
  142.1230   80.3630  222.5760 C   0  0  0  0  0  0  0  0  0  0  0  0
  141.8220   79.8760  221.3070 C   0  0  0  0  0  0  0  0  0  0  0  0
  141.3440   78.5870  221.1550 C   0  0  0  0  0  0  0  0  0  0  0  0
  142.4220   75.4770  221.3810 H   0  0  0  0  0  0  0  0  0  0  0  0
  140.5123   69.7174  219.5144 H   0  0  0  0  0  0  0  0  0  0  0  0
  138.7189   70.0877  219.3907 H   0  0  0  0  0  0  0  0  0  0  0  0
  140.6597   69.2502  217.3516 H   0  0  0  0  0  0  0  0  0  0  0  0
  138.8670   68.9264  217.5794 H   0  0  0  0  0  0  0  0  0  0  0  0
  139.5150   70.1390  215.6340 H   0  0  0  0  0  0  0  0  0  0  0  0
  141.2468   71.4667  216.4565 H   0  0  0  0  0  0  0  0  0  0  0  0
  139.9200   72.4630  215.7509 H   0  0  0  0  0  0  0  0  0  0  0  0
  140.9207   73.1887  217.9926 H   0  0  0  0  0  0  0  0  0  0  0  0
  139.1029   73.0698  217.8228 H   0  0  0  0  0  0  0  0  0  0  0  0
  137.8660   70.7773  224.6477 H   0  0  0  0  0  0  0  0  0  0  0  0
  138.0238   70.5452  222.9041 H   0  0  0  0  0  0  0  0  0  0  0  0
  138.3660   68.3571  224.1303 H   0  0  0  0  0  0  0  0  0  0  0  0
  139.8711   68.8140  223.3279 H   0  0  0  0  0  0  0  0  0  0  0  0
  139.3100   67.1764  225.9563 H   0  0  0  0  0  0  0  0  0  0  0  0
  140.3871   67.2534  228.2023 H   0  0  0  0  0  0  0  0  0  0  0  0
  141.4914   69.3482  228.9384 H   0  0  0  0  0  0  0  0  0  0  0  0
  141.5354   71.3472  227.4555 H   0  0  0  0  0  0  0  0  0  0  0  0
  140.1148   72.4550  225.6239 H   0  0  0  0  0  0  0  0  0  0  0  0
  141.5548   71.8217  224.7780 H   0  0  0  0  0  0  0  0  0  0  0  0
  141.3135   77.6169  224.3629 H   0  0  0  0  0  0  0  0  0  0  0  0
  142.1716   79.9082  224.7012 H   0  0  0  0  0  0  0  0  0  0  0  0
  142.5032   81.3878  222.6993 H   0  0  0  0  0  0  0  0  0  0  0  0
  141.9645   80.5169  220.4244 H   0  0  0  0  0  0  0  0  0  0  0  0
  141.1091   78.2102  220.1486 H   0  0  0  0  0  0  0  0  0  0  0  0
  1  2  2  0
  2  3  1  0
  3  4  1  0
  4  5  2  0
  5  6  1  0
  6  7  1  0
  7  8  1  0
  8  9  1  0
  9 10  1  0
 10 11  1  0
 11 12  1  0
  6 13  2  0
 13 14  1  0
 14 15  1  0
 15 16  1  0
 16 17  1  0
 17 18  1  0
 18 19  2  0
 19 20  1  0
 20 21  2  0
 21 22  1  0
 22 23  2  0
 23 24  1  0
 14 25  2  0
  2 26  1  0
 26 27  2  0
 27 28  1  0
 28 29  2  0
 29 30  1  0
 30 31  2  0
 25  4  1  0
 31 26  1  0
 12  7  1  0
 24 15  1  0
 23 18  1  0
  3 32  1  0
  8 33  1  0
  8 34  1  0
  9 35  1  0
  9 36  1  0
 10 37  1  0
 11 38  1  0
 11 39  1  0
 12 40  1  0
 12 41  1  0
 16 42  1  0
 16 43  1  0
 17 44  1  0
 17 45  1  0
 19 46  1  0
 20 47  1  0
 21 48  1  0
 22 49  1  0
 24 50  1  0
 24 51  1  0
 27 52  1  0
 28 53  1  0
 29 54  1  0
 30 55  1  0
 31 56  1  0
M  END
>  <smiles>  (24) 
O=C(Nc1nc(N2CCNCC2)nc(N2CCc3ccccc3C2)n1)c1ccccc1

>  <score_type>  (24) 
oracle

>  <origin>  (24) 
autodockgpu

>  <m_score__min__energy>  (24) 
-8.7400000000000002

>  <m_primary>  (24) 
energy

>  <rmsd>  (24) 
3.839337813120774

>  <m_score__min__rmsd>  (24) 
3.839337813120774

>  <meeko>  (24) 
{"free_energy": -8.71, "intermolecular_energy": -9.91, "internal_energy": -0.82, "cluster_size": 49, "cluster_id": 1, "rank_in_cluster": 27}

>  <energy>  (24) 
-8.72

>  <cluster_rmsd>  (24) 
0.35

>  <cluster>  (24) 
1

$$$$

     RDKit          3D

 56 60  0  0  0  0  0  0  0  0999 V2000
  139.5580   76.0560  222.6910 O   0  0  0  0  0  0  0  0  0  0  0  0
  140.6660   76.3710  222.2200 C   0  0  0  0  0  0  0  0  0  0  0  0
  141.4760   75.3590  221.6350 N   0  0  0  0  0  0  0  0  0  0  0  0
  141.0190   74.0150  221.5950 C   0  0  0  0  0  0  0  0  0  0  0  0
  140.9820   73.3990  220.3800 N   0  0  0  0  0  0  0  0  0  0  0  0
  140.5500   72.1220  220.3390 C   0  0  0  0  0  0  0  0  0  0  0  0
  140.5060   71.4700  219.0810 N   0  0  0  0  0  0  0  0  0  0  0  0
  140.5570   72.3010  217.8970 C   0  0  0  0  0  0  0  0  0  0  0  0
  140.3530   71.5700  216.6190 C   0  0  0  0  0  0  0  0  0  0  0  0
  140.6850   70.1620  216.6690 N   0  0  0  0  0  0  0  0  0  0  0  0
  140.0070   69.4740  217.7370 C   0  0  0  0  0  0  0  0  0  0  0  0
  140.4160   70.0360  219.0620 C   0  0  0  0  0  0  0  0  0  0  0  0
  140.1730   71.5040  221.4860 N   0  0  0  0  0  0  0  0  0  0  0  0
  140.2100   72.1120  222.6830 C   0  0  0  0  0  0  0  0  0  0  0  0
  139.8110   71.4550  223.8850 N   0  0  0  0  0  0  0  0  0  0  0  0
  138.5890   70.6710  223.8900 C   0  0  0  0  0  0  0  0  0  0  0  0
  139.0360   69.2320  224.1550 C   0  0  0  0  0  0  0  0  0  0  0  0
  139.7050   69.2690  225.4860 C   0  0  0  0  0  0  0  0  0  0  0  0
  139.5850   68.1690  226.3340 C   0  0  0  0  0  0  0  0  0  0  0  0
  140.1890   68.1510  227.5870 C   0  0  0  0  0  0  0  0  0  0  0  0
  140.9160   69.2510  227.9800 C   0  0  0  0  0  0  0  0  0  0  0  0
  141.0490   70.3620  227.1440 C   0  0  0  0  0  0  0  0  0  0  0  0
  140.4380   70.3640  225.8920 C   0  0  0  0  0  0  0  0  0  0  0  0
  140.6290   71.5800  225.0710 C   0  0  0  0  0  0  0  0  0  0  0  0
  140.6430   73.3840  222.7060 N   0  0  0  0  0  0  0  0  0  0  0  0
  141.0700   77.7700  222.2960 C   0  0  0  0  0  0  0  0  0  0  0  0
  141.4310   78.2800  223.5130 C   0  0  0  0  0  0  0  0  0  0  0  0
  141.8290   79.5900  223.6930 C   0  0  0  0  0  0  0  0  0  0  0  0
  141.8620   80.4270  222.5800 C   0  0  0  0  0  0  0  0  0  0  0  0
  141.4980   79.9280  221.3320 C   0  0  0  0  0  0  0  0  0  0  0  0
  141.1060   78.6080  221.2010 C   0  0  0  0  0  0  0  0  0  0  0  0
  142.3970   75.5970  221.2390 H   0  0  0  0  0  0  0  0  0  0  0  0
  139.7734   73.0683  217.9823 H   0  0  0  0  0  0  0  0  0  0  0  0
  141.5718   72.7235  217.8560 H   0  0  0  0  0  0  0  0  0  0  0  0
  139.2940   71.6627  216.3363 H   0  0  0  0  0  0  0  0  0  0  0  0
  141.0370   72.0252  215.8876 H   0  0  0  0  0  0  0  0  0  0  0  0
  140.3310   69.7530  215.7630 H   0  0  0  0  0  0  0  0  0  0  0  0
  138.9206   69.5930  217.6126 H   0  0  0  0  0  0  0  0  0  0  0  0
  140.2769   68.4082  217.7028 H   0  0  0  0  0  0  0  0  0  0  0  0
  139.6759   69.7250  219.8140 H   0  0  0  0  0  0  0  0  0  0  0  0
  141.4230   69.6490  219.2771 H   0  0  0  0  0  0  0  0  0  0  0  0
  137.9120   71.0171  224.6849 H   0  0  0  0  0  0  0  0  0  0  0  0
  138.0384   70.7623  222.9421 H   0  0  0  0  0  0  0  0  0  0  0  0
  138.1680   68.5567  224.1783 H   0  0  0  0  0  0  0  0  0  0  0  0
  139.7075   68.8587  223.3678 H   0  0  0  0  0  0  0  0  0  0  0  0
  139.0005   67.2970  226.0054 H   0  0  0  0  0  0  0  0  0  0  0  0
  140.0877   67.2777  228.2482 H   0  0  0  0  0  0  0  0  0  0  0  0
  141.4000   69.2556  228.9678 H   0  0  0  0  0  0  0  0  0  0  0  0
  141.6346   71.2330  227.4733 H   0  0  0  0  0  0  0  0  0  0  0  0
  140.3226   72.4681  225.6433 H   0  0  0  0  0  0  0  0  0  0  0  0
  141.6878   71.6898  224.7936 H   0  0  0  0  0  0  0  0  0  0  0  0
  141.4029   77.6155  224.3892 H   0  0  0  0  0  0  0  0  0  0  0  0
  142.1123   79.9625  224.6885 H   0  0  0  0  0  0  0  0  0  0  0  0
  142.1739   81.4765  222.6864 H   0  0  0  0  0  0  0  0  0  0  0  0
  141.5222   80.5842  220.4495 H   0  0  0  0  0  0  0  0  0  0  0  0
  140.8195   78.2219  220.2116 H   0  0  0  0  0  0  0  0  0  0  0  0
  1  2  2  0
  2  3  1  0
  3  4  1  0
  4  5  2  0
  5  6  1  0
  6  7  1  0
  7  8  1  0
  8  9  1  0
  9 10  1  0
 10 11  1  0
 11 12  1  0
  6 13  2  0
 13 14  1  0
 14 15  1  0
 15 16  1  0
 16 17  1  0
 17 18  1  0
 18 19  2  0
 19 20  1  0
 20 21  2  0
 21 22  1  0
 22 23  2  0
 23 24  1  0
 14 25  2  0
  2 26  1  0
 26 27  2  0
 27 28  1  0
 28 29  2  0
 29 30  1  0
 30 31  2  0
 25  4  1  0
 31 26  1  0
 12  7  1  0
 24 15  1  0
 23 18  1  0
  3 32  1  0
  8 33  1  0
  8 34  1  0
  9 35  1  0
  9 36  1  0
 10 37  1  0
 11 38  1  0
 11 39  1  0
 12 40  1  0
 12 41  1  0
 16 42  1  0
 16 43  1  0
 17 44  1  0
 17 45  1  0
 19 46  1  0
 20 47  1  0
 21 48  1  0
 22 49  1  0
 24 50  1  0
 24 51  1  0
 27 52  1  0
 28 53  1  0
 29 54  1  0
 30 55  1  0
 31 56  1  0
M  END
>  <smiles>  (25) 
O=C(Nc1nc(N2CCNCC2)nc(N2CCc3ccccc3C2)n1)c1ccccc1

>  <score_type>  (25) 
oracle

>  <origin>  (25) 
autodockgpu

>  <m_score__min__energy>  (25) 
-8.7400000000000002

>  <m_primary>  (25) 
energy

>  <rmsd>  (25) 
3.834245039389315

>  <m_score__min__rmsd>  (25) 
3.834245039389315

>  <meeko>  (25) 
{"free_energy": -8.73, "intermolecular_energy": -9.92, "internal_energy": -0.81, "cluster_size": 49, "cluster_id": 1, "rank_in_cluster": 14}

>  <energy>  (25) 
-8.72

>  <cluster_rmsd>  (25) 
0.36

>  <cluster>  (25) 
1

$$$$

     RDKit          3D

 56 60  0  0  0  0  0  0  0  0999 V2000
  138.5710   71.1020  224.5940 O   0  0  0  0  0  0  0  0  0  0  0  0
  139.7760   70.8920  224.8280 C   0  0  0  0  0  0  0  0  0  0  0  0
  140.7470   71.3600  223.9010 N   0  0  0  0  0  0  0  0  0  0  0  0
  140.3390   72.0540  222.7310 C   0  0  0  0  0  0  0  0  0  0  0  0
  139.9840   71.3080  221.6480 N   0  0  0  0  0  0  0  0  0  0  0  0
  139.5960   71.9660  220.5360 C   0  0  0  0  0  0  0  0  0  0  0  0
  139.2240   71.2010  219.4010 N   0  0  0  0  0  0  0  0  0  0  0  0
  138.4420   71.8620  218.3790 C   0  0  0  0  0  0  0  0  0  0  0  0
  137.9570   70.9680  217.2950 C   0  0  0  0  0  0  0  0  0  0  0  0
  138.7480   69.7710  217.1020 N   0  0  0  0  0  0  0  0  0  0  0  0
  138.9130   69.0170  218.3180 C   0  0  0  0  0  0  0  0  0  0  0  0
  139.6460   69.8290  219.3390 C   0  0  0  0  0  0  0  0  0  0  0  0
  139.5710   73.3220  220.5320 N   0  0  0  0  0  0  0  0  0  0  0  0
  139.9210   74.0560  221.6000 C   0  0  0  0  0  0  0  0  0  0  0  0
  139.8930   75.4820  221.5880 N   0  0  0  0  0  0  0  0  0  0  0  0
  138.6720   76.1620  221.1920 C   0  0  0  0  0  0  0  0  0  0  0  0
  138.2150   76.9240  222.4370 C   0  0  0  0  0  0  0  0  0  0  0  0
  139.3260   77.8670  222.7480 C   0  0  0  0  0  0  0  0  0  0  0  0
  139.0210   79.1200  223.2770 C   0  0  0  0  0  0  0  0  0  0  0  0
  140.0190   80.0380  223.5850 C   0  0  0  0  0  0  0  0  0  0  0  0
  141.3300   79.6840  223.3560 C   0  0  0  0  0  0  0  0  0  0  0  0
  141.6550   78.4330  222.8280 C   0  0  0  0  0  0  0  0  0  0  0  0
  140.6420   77.5250  222.5250 C   0  0  0  0  0  0  0  0  0  0  0  0
  141.0750   76.2230  221.9690 C   0  0  0  0  0  0  0  0  0  0  0  0
  140.3050   73.3860  222.7000 N   0  0  0  0  0  0  0  0  0  0  0  0
  140.1200   70.1720  226.0480 C   0  0  0  0  0  0  0  0  0  0  0  0
  139.9030   68.8230  226.0940 C   0  0  0  0  0  0  0  0  0  0  0  0
  140.1940   68.0500  227.2010 C   0  0  0  0  0  0  0  0  0  0  0  0
  140.7360   68.6790  228.3190 C   0  0  0  0  0  0  0  0  0  0  0  0
  140.9660   70.0510  228.2930 C   0  0  0  0  0  0  0  0  0  0  0  0
  140.6570   70.7840  227.1620 C   0  0  0  0  0  0  0  0  0  0  0  0
  141.7500   71.1960  224.0740 H   0  0  0  0  0  0  0  0  0  0  0  0
  137.5670   72.3226  218.8609 H   0  0  0  0  0  0  0  0  0  0  0  0
  139.1088   72.5958  217.9026 H   0  0  0  0  0  0  0  0  0  0  0  0
  136.9277   70.6639  217.5358 H   0  0  0  0  0  0  0  0  0  0  0  0
  138.0294   71.5436  216.3604 H   0  0  0  0  0  0  0  0  0  0  0  0
  138.1940   69.1680  216.4370 H   0  0  0  0  0  0  0  0  0  0  0  0
  137.9231   68.7453  218.7133 H   0  0  0  0  0  0  0  0  0  0  0  0
  139.4944   68.1092  218.0992 H   0  0  0  0  0  0  0  0  0  0  0  0
  139.4850   69.3717  220.3264 H   0  0  0  0  0  0  0  0  0  0  0  0
  140.7058   69.8329  219.0444 H   0  0  0  0  0  0  0  0  0  0  0  0
  138.8698   76.8589  220.3642 H   0  0  0  0  0  0  0  0  0  0  0  0
  137.9056   75.4572  220.8372 H   0  0  0  0  0  0  0  0  0  0  0  0
  137.2862   77.4765  222.2317 H   0  0  0  0  0  0  0  0  0  0  0  0
  138.0025   76.2475  223.2780 H   0  0  0  0  0  0  0  0  0  0  0  0
  137.9691   79.3882  223.4545 H   0  0  0  0  0  0  0  0  0  0  0  0
  139.7671   81.0242  224.0020 H   0  0  0  0  0  0  0  0  0  0  0  0
  142.1331   80.3975  223.5926 H   0  0  0  0  0  0  0  0  0  0  0  0
  142.7072   78.1649  222.6517 H   0  0  0  0  0  0  0  0  0  0  0  0
  141.7123   76.3873  221.0876 H   0  0  0  0  0  0  0  0  0  0  0  0
  141.6519   75.6613  222.7185 H   0  0  0  0  0  0  0  0  0  0  0  0
  139.4767   68.3301  225.2078 H   0  0  0  0  0  0  0  0  0  0  0  0
  140.0028   66.9667  227.1996 H   0  0  0  0  0  0  0  0  0  0  0  0
  140.9810   68.0943  229.2179 H   0  0  0  0  0  0  0  0  0  0  0  0
  141.3941   70.5531  229.1731 H   0  0  0  0  0  0  0  0  0  0  0  0
  140.8415   71.8683  227.1502 H   0  0  0  0  0  0  0  0  0  0  0  0
  1  2  2  0
  2  3  1  0
  3  4  1  0
  4  5  2  0
  5  6  1  0
  6  7  1  0
  7  8  1  0
  8  9  1  0
  9 10  1  0
 10 11  1  0
 11 12  1  0
  6 13  2  0
 13 14  1  0
 14 15  1  0
 15 16  1  0
 16 17  1  0
 17 18  1  0
 18 19  2  0
 19 20  1  0
 20 21  2  0
 21 22  1  0
 22 23  2  0
 23 24  1  0
 14 25  2  0
  2 26  1  0
 26 27  2  0
 27 28  1  0
 28 29  2  0
 29 30  1  0
 30 31  2  0
 25  4  1  0
 31 26  1  0
 12  7  1  0
 24 15  1  0
 23 18  1  0
  3 32  1  0
  8 33  1  0
  8 34  1  0
  9 35  1  0
  9 36  1  0
 10 37  1  0
 11 38  1  0
 11 39  1  0
 12 40  1  0
 12 41  1  0
 16 42  1  0
 16 43  1  0
 17 44  1  0
 17 45  1  0
 19 46  1  0
 20 47  1  0
 21 48  1  0
 22 49  1  0
 24 50  1  0
 24 51  1  0
 27 52  1  0
 28 53  1  0
 29 54  1  0
 30 55  1  0
 31 56  1  0
M  END
>  <smiles>  (26) 
O=C(Nc1nc(N2CCNCC2)nc(N2CCc3ccccc3C2)n1)c1ccccc1

>  <score_type>  (26) 
oracle

>  <origin>  (26) 
autodockgpu

>  <m_score__min__energy>  (26) 
-8.7400000000000002

>  <m_primary>  (26) 
energy

>  <rmsd>  (26) 
9.350636812365932

>  <m_score__min__rmsd>  (26) 
9.350636812365932

>  <meeko>  (26) 
{"free_energy": -7.77, "intermolecular_energy": -8.96, "internal_energy": -0.82, "cluster_size": 49, "cluster_id": 1, "rank_in_cluster": 48}

>  <energy>  (26) 
-8.72

>  <cluster_rmsd>  (26) 
0.36

>  <cluster>  (26) 
1

$$$$

     RDKit          3D

 56 60  0  0  0  0  0  0  0  0999 V2000
  139.5940   76.0100  222.6950 O   0  0  0  0  0  0  0  0  0  0  0  0
  140.6940   76.3410  222.2170 C   0  0  0  0  0  0  0  0  0  0  0  0
  141.5170   75.3410  221.6300 N   0  0  0  0  0  0  0  0  0  0  0  0
  141.0820   73.9900  221.5940 C   0  0  0  0  0  0  0  0  0  0  0  0
  141.0810   73.3610  220.3860 N   0  0  0  0  0  0  0  0  0  0  0  0
  140.6690   72.0770  220.3500 C   0  0  0  0  0  0  0  0  0  0  0  0
  140.6630   71.4100  219.0990 N   0  0  0  0  0  0  0  0  0  0  0  0
  140.5210   72.2250  217.9110 C   0  0  0  0  0  0  0  0  0  0  0  0
  140.3680   71.4560  216.6480 C   0  0  0  0  0  0  0  0  0  0  0  0
  140.9180   70.1170  216.6860 N   0  0  0  0  0  0  0  0  0  0  0  0
  140.4120   69.3450  217.7910 C   0  0  0  0  0  0  0  0  0  0  0  0
  140.7970   69.9800  219.0900 C   0  0  0  0  0  0  0  0  0  0  0  0
  140.2770   71.4650  221.4950 N   0  0  0  0  0  0  0  0  0  0  0  0
  140.2780   72.0860  222.6860 C   0  0  0  0  0  0  0  0  0  0  0  0
  139.8640   71.4360  223.8860 N   0  0  0  0  0  0  0  0  0  0  0  0
  138.6350   70.6630  223.8840 C   0  0  0  0  0  0  0  0  0  0  0  0
  139.0670   69.2210  224.1560 C   0  0  0  0  0  0  0  0  0  0  0  0
  139.7250   69.2560  225.4920 C   0  0  0  0  0  0  0  0  0  0  0  0
  139.5880   68.1590  226.3420 C   0  0  0  0  0  0  0  0  0  0  0  0
  140.1810   68.1390  227.6000 C   0  0  0  0  0  0  0  0  0  0  0  0
  140.9150   69.2350  227.9970 C   0  0  0  0  0  0  0  0  0  0  0  0
  141.0650   70.3420  227.1590 C   0  0  0  0  0  0  0  0  0  0  0  0
  140.4640   70.3450  225.9010 C   0  0  0  0  0  0  0  0  0  0  0  0
  140.6730   71.5580  225.0790 C   0  0  0  0  0  0  0  0  0  0  0  0
  140.6910   73.3650  222.7040 N   0  0  0  0  0  0  0  0  0  0  0  0
  141.0760   77.7470  222.2880 C   0  0  0  0  0  0  0  0  0  0  0  0
  141.4820   78.2530  223.4920 C   0  0  0  0  0  0  0  0  0  0  0  0
  141.8640   79.5680  223.6670 C   0  0  0  0  0  0  0  0  0  0  0  0
  141.8320   80.4150  222.5620 C   0  0  0  0  0  0  0  0  0  0  0  0
  141.4220   79.9200  221.3270 C   0  0  0  0  0  0  0  0  0  0  0  0
  141.0480   78.5950  221.2010 C   0  0  0  0  0  0  0  0  0  0  0  0
  142.4320   75.5940  221.2280 H   0  0  0  0  0  0  0  0  0  0  0  0
  139.6321   72.8610  218.0354 H   0  0  0  0  0  0  0  0  0  0  0  0
  141.4533   72.8008  217.8146 H   0  0  0  0  0  0  0  0  0  0  0  0
  139.2944   71.3794  216.4211 H   0  0  0  0  0  0  0  0  0  0  0  0
  140.9339   72.0033  215.8798 H   0  0  0  0  0  0  0  0  0  0  0  0
  140.5860   69.6470  215.8020 H   0  0  0  0  0  0  0  0  0  0  0  0
  139.3153   69.2922  217.7243 H   0  0  0  0  0  0  0  0  0  0  0  0
  140.8423   68.3336  217.7466 H   0  0  0  0  0  0  0  0  0  0  0  0
  140.1549   69.5666  219.8817 H   0  0  0  0  0  0  0  0  0  0  0  0
  141.8620   69.7572  219.2520 H   0  0  0  0  0  0  0  0  0  0  0  0
  137.9553   71.0173  224.6730 H   0  0  0  0  0  0  0  0  0  0  0  0
  138.0922   70.7567  222.9318 H   0  0  0  0  0  0  0  0  0  0  0  0
  138.1930   68.5533  224.1738 H   0  0  0  0  0  0  0  0  0  0  0  0
  139.7415   68.8396  223.3753 H   0  0  0  0  0  0  0  0  0  0  0  0
  138.9986   67.2913  226.0106 H   0  0  0  0  0  0  0  0  0  0  0  0
  140.0665   67.2683  228.2624 H   0  0  0  0  0  0  0  0  0  0  0  0
  141.3901   69.2383  228.9891 H   0  0  0  0  0  0  0  0  0  0  0  0
  141.6555   71.2089  227.4904 H   0  0  0  0  0  0  0  0  0  0  0  0
  140.3690   72.4500  225.6463 H   0  0  0  0  0  0  0  0  0  0  0  0
  141.7351   71.6590  224.8111 H   0  0  0  0  0  0  0  0  0  0  0  0
  141.5052   77.5804  224.3621 H   0  0  0  0  0  0  0  0  0  0  0  0
  142.1849   79.9368  224.6524 H   0  0  0  0  0  0  0  0  0  0  0  0
  142.1290   81.4692  222.6644 H   0  0  0  0  0  0  0  0  0  0  0  0
  141.3956   80.5840  220.4504 H   0  0  0  0  0  0  0  0  0  0  0  0
  140.7242   78.2126  220.2218 H   0  0  0  0  0  0  0  0  0  0  0  0
  1  2  2  0
  2  3  1  0
  3  4  1  0
  4  5  2  0
  5  6  1  0
  6  7  1  0
  7  8  1  0
  8  9  1  0
  9 10  1  0
 10 11  1  0
 11 12  1  0
  6 13  2  0
 13 14  1  0
 14 15  1  0
 15 16  1  0
 16 17  1  0
 17 18  1  0
 18 19  2  0
 19 20  1  0
 20 21  2  0
 21 22  1  0
 22 23  2  0
 23 24  1  0
 14 25  2  0
  2 26  1  0
 26 27  2  0
 27 28  1  0
 28 29  2  0
 29 30  1  0
 30 31  2  0
 25  4  1  0
 31 26  1  0
 12  7  1  0
 24 15  1  0
 23 18  1  0
  3 32  1  0
  8 33  1  0
  8 34  1  0
  9 35  1  0
  9 36  1  0
 10 37  1  0
 11 38  1  0
 11 39  1  0
 12 40  1  0
 12 41  1  0
 16 42  1  0
 16 43  1  0
 17 44  1  0
 17 45  1  0
 19 46  1  0
 20 47  1  0
 21 48  1  0
 22 49  1  0
 24 50  1  0
 24 51  1  0
 27 52  1  0
 28 53  1  0
 29 54  1  0
 30 55  1  0
 31 56  1  0
M  END
>  <smiles>  (27) 
O=C(Nc1nc(N2CCNCC2)nc(N2CCc3ccccc3C2)n1)c1ccccc1

>  <score_type>  (27) 
oracle

>  <origin>  (27) 
autodockgpu

>  <m_score__min__energy>  (27) 
-8.7400000000000002

>  <m_primary>  (27) 
energy

>  <rmsd>  (27) 
3.8407288748815422

>  <m_score__min__rmsd>  (27) 
3.8407288748815422

>  <meeko>  (27) 
{"free_energy": -8.74, "intermolecular_energy": -9.93, "internal_energy": -0.81, "cluster_size": 49, "cluster_id": 1, "rank_in_cluster": 8}

>  <energy>  (27) 
-8.71

>  <cluster_rmsd>  (27) 
0.48

>  <cluster>  (27) 
1

$$$$

     RDKit          3D

 56 60  0  0  0  0  0  0  0  0999 V2000
  139.2830   76.4170  222.3200 O   0  0  0  0  0  0  0  0  0  0  0  0
  140.5040   76.5420  222.1170 C   0  0  0  0  0  0  0  0  0  0  0  0
  141.2620   75.3930  221.7600 N   0  0  0  0  0  0  0  0  0  0  0  0
  140.6260   74.1290  221.6410 C   0  0  0  0  0  0  0  0  0  0  0  0
  140.3010   73.7040  220.3880 N   0  0  0  0  0  0  0  0  0  0  0  0
  139.6980   72.5030  220.2720 C   0  0  0  0  0  0  0  0  0  0  0  0
  139.3550   72.0490  218.9730 N   0  0  0  0  0  0  0  0  0  0  0  0
  138.9360   70.6700  218.8380 C   0  0  0  0  0  0  0  0  0  0  0  0
  138.7390   70.2180  217.4360 C   0  0  0  0  0  0  0  0  0  0  0  0
  138.4460   71.2780  216.4950 N   0  0  0  0  0  0  0  0  0  0  0  0
  139.4250   72.3340  216.5330 C   0  0  0  0  0  0  0  0  0  0  0  0
  139.4420   72.9800  217.8820 C   0  0  0  0  0  0  0  0  0  0  0  0
  139.4400   71.7700  221.3840 N   0  0  0  0  0  0  0  0  0  0  0  0
  139.7610   72.1900  222.6180 C   0  0  0  0  0  0  0  0  0  0  0  0
  139.4850   71.4150  223.7830 N   0  0  0  0  0  0  0  0  0  0  0  0
  138.3390   70.5240  223.7850 C   0  0  0  0  0  0  0  0  0  0  0  0
  138.9230   69.1170  223.9170 C   0  0  0  0  0  0  0  0  0  0  0  0
  139.6560   69.1180  225.2150 C   0  0  0  0  0  0  0  0  0  0  0  0
  139.6770   67.9540  225.9810 C   0  0  0  0  0  0  0  0  0  0  0  0
  140.3460   67.9000  227.2000 C   0  0  0  0  0  0  0  0  0  0  0  0
  140.9940   69.0320  227.6420 C   0  0  0  0  0  0  0  0  0  0  0  0
  140.9840   70.2070  226.8890 C   0  0  0  0  0  0  0  0  0  0  0  0
  140.3100   70.2430  225.6700 C   0  0  0  0  0  0  0  0  0  0  0  0
  140.3500   71.5290  224.9370 C   0  0  0  0  0  0  0  0  0  0  0  0
  140.3610   73.3890  222.7170 N   0  0  0  0  0  0  0  0  0  0  0  0
  141.0890   77.8700  222.2580 C   0  0  0  0  0  0  0  0  0  0  0  0
  141.4590   78.2920  223.5050 C   0  0  0  0  0  0  0  0  0  0  0  0
  142.0210   79.5300  223.7460 C   0  0  0  0  0  0  0  0  0  0  0  0
  142.2190   80.3850  222.6650 C   0  0  0  0  0  0  0  0  0  0  0  0
  141.8500   79.9760  221.3870 C   0  0  0  0  0  0  0  0  0  0  0  0
  141.2890   78.7260  221.1950 C   0  0  0  0  0  0  0  0  0  0  0  0
  142.2750   75.4730  221.5880 H   0  0  0  0  0  0  0  0  0  0  0  0
  139.7034   70.0314  219.2998 H   0  0  0  0  0  0  0  0  0  0  0  0
  137.9560   70.5921  219.3314 H   0  0  0  0  0  0  0  0  0  0  0  0
  139.6584   69.7117  217.1067 H   0  0  0  0  0  0  0  0  0  0  0  0
  137.8600   69.5567  217.4431 H   0  0  0  0  0  0  0  0  0  0  0  0
  138.5050   70.8360  215.5390 H   0  0  0  0  0  0  0  0  0  0  0  0
  140.4192   71.9146  216.3193 H   0  0  0  0  0  0  0  0  0  0  0  0
  139.1640   73.0903  215.7781 H   0  0  0  0  0  0  0  0  0  0  0  0
  140.3796   73.5462  217.9834 H   0  0  0  0  0  0  0  0  0  0  0  0
  138.5522   73.6242  217.9394 H   0  0  0  0  0  0  0  0  0  0  0  0
  137.6779   70.7482  224.6351 H   0  0  0  0  0  0  0  0  0  0  0  0
  137.7329   70.6329  222.8735 H   0  0  0  0  0  0  0  0  0  0  0  0
  138.1198   68.3655  223.9282 H   0  0  0  0  0  0  0  0  0  0  0  0
  139.5819   68.8646  223.0731 H   0  0  0  0  0  0  0  0  0  0  0  0
  139.1536   67.0588  225.6142 H   0  0  0  0  0  0  0  0  0  0  0  0
  140.3570   66.9756  227.7961 H   0  0  0  0  0  0  0  0  0  0  0  0
  141.5278   69.0097  228.6035 H   0  0  0  0  0  0  0  0  0  0  0  0
  141.5067   71.1022  227.2568 H   0  0  0  0  0  0  0  0  0  0  0  0
  139.9966   72.3412  225.5892 H   0  0  0  0  0  0  0  0  0  0  0  0
  141.3790   71.7562  224.6213 H   0  0  0  0  0  0  0  0  0  0  0  0
  141.3015   77.6132  224.3562 H   0  0  0  0  0  0  0  0  0  0  0  0
  142.3047   79.8327  224.7648 H   0  0  0  0  0  0  0  0  0  0  0  0
  142.6647   81.3786  222.8204 H   0  0  0  0  0  0  0  0  0  0  0  0
  142.0045   80.6469  220.5291 H   0  0  0  0  0  0  0  0  0  0  0  0
  140.9988   78.4108  220.1819 H   0  0  0  0  0  0  0  0  0  0  0  0
  1  2  2  0
  2  3  1  0
  3  4  1  0
  4  5  2  0
  5  6  1  0
  6  7  1  0
  7  8  1  0
  8  9  1  0
  9 10  1  0
 10 11  1  0
 11 12  1  0
  6 13  2  0
 13 14  1  0
 14 15  1  0
 15 16  1  0
 16 17  1  0
 17 18  1  0
 18 19  2  0
 19 20  1  0
 20 21  2  0
 21 22  1  0
 22 23  2  0
 23 24  1  0
 14 25  2  0
  2 26  1  0
 26 27  2  0
 27 28  1  0
 28 29  2  0
 29 30  1  0
 30 31  2  0
 25  4  1  0
 31 26  1  0
 12  7  1  0
 24 15  1  0
 23 18  1  0
  3 32  1  0
  8 33  1  0
  8 34  1  0
  9 35  1  0
  9 36  1  0
 10 37  1  0
 11 38  1  0
 11 39  1  0
 12 40  1  0
 12 41  1  0
 16 42  1  0
 16 43  1  0
 17 44  1  0
 17 45  1  0
 19 46  1  0
 20 47  1  0
 21 48  1  0
 22 49  1  0
 24 50  1  0
 24 51  1  0
 27 52  1  0
 28 53  1  0
 29 54  1  0
 30 55  1  0
 31 56  1  0
M  END
>  <smiles>  (28) 
O=C(Nc1nc(N2CCNCC2)nc(N2CCc3ccccc3C2)n1)c1ccccc1

>  <score_type>  (28) 
oracle

>  <origin>  (28) 
autodockgpu

>  <m_score__min__energy>  (28) 
-8.7400000000000002

>  <m_primary>  (28) 
energy

>  <rmsd>  (28) 
3.7886846708171427

>  <m_score__min__rmsd>  (28) 
3.7886846708171427

>  <meeko>  (28) 
{"free_energy": -8.67, "intermolecular_energy": -9.86, "internal_energy": -0.82, "cluster_size": 49, "cluster_id": 1, "rank_in_cluster": 41}

>  <energy>  (28) 
-8.71

>  <cluster_rmsd>  (28) 
0.35

>  <cluster>  (28) 
1

$$$$

     RDKit          3D

 56 60  0  0  0  0  0  0  0  0999 V2000
  139.5950   76.0080  222.6720 O   0  0  0  0  0  0  0  0  0  0  0  0
  140.6970   76.3410  222.1970 C   0  0  0  0  0  0  0  0  0  0  0  0
  141.5230   75.3400  221.6150 N   0  0  0  0  0  0  0  0  0  0  0  0
  141.0900   73.9890  221.5810 C   0  0  0  0  0  0  0  0  0  0  0  0
  141.1000   73.3540  220.3750 N   0  0  0  0  0  0  0  0  0  0  0  0
  140.6900   72.0700  220.3410 C   0  0  0  0  0  0  0  0  0  0  0  0
  140.6950   71.3980  219.0920 N   0  0  0  0  0  0  0  0  0  0  0  0
  141.1060   70.0110  219.0830 C   0  0  0  0  0  0  0  0  0  0  0  0
  141.2370   69.4120  217.7290 C   0  0  0  0  0  0  0  0  0  0  0  0
  140.4420   70.0570  216.7050 N   0  0  0  0  0  0  0  0  0  0  0  0
  140.6790   71.4770  216.6360 C   0  0  0  0  0  0  0  0  0  0  0  0
  140.2940   72.1320  217.9250 C   0  0  0  0  0  0  0  0  0  0  0  0
  140.2880   71.4620  221.4860 N   0  0  0  0  0  0  0  0  0  0  0  0
  140.2790   72.0880  222.6730 C   0  0  0  0  0  0  0  0  0  0  0  0
  139.8550   71.4420  223.8730 N   0  0  0  0  0  0  0  0  0  0  0  0
  138.6350   70.6550  223.8590 C   0  0  0  0  0  0  0  0  0  0  0  0
  139.0790   69.2200  224.1480 C   0  0  0  0  0  0  0  0  0  0  0  0
  139.7180   69.2730  225.4930 C   0  0  0  0  0  0  0  0  0  0  0  0
  139.5810   68.1810  226.3500 C   0  0  0  0  0  0  0  0  0  0  0  0
  140.1570   68.1780  227.6160 C   0  0  0  0  0  0  0  0  0  0  0  0
  140.8730   69.2840  228.0140 C   0  0  0  0  0  0  0  0  0  0  0  0
  141.0220   70.3870  227.1710 C   0  0  0  0  0  0  0  0  0  0  0  0
  140.4380   70.3740  225.9040 C   0  0  0  0  0  0  0  0  0  0  0  0
  140.6450   71.5820  225.0760 C   0  0  0  0  0  0  0  0  0  0  0  0
  140.6900   73.3670  222.6900 N   0  0  0  0  0  0  0  0  0  0  0  0
  141.0760   77.7460  222.2660 C   0  0  0  0  0  0  0  0  0  0  0  0
  141.4540   78.2620  223.4750 C   0  0  0  0  0  0  0  0  0  0  0  0
  141.8310   79.5790  223.6480 C   0  0  0  0  0  0  0  0  0  0  0  0
  141.8250   80.4170  222.5360 C   0  0  0  0  0  0  0  0  0  0  0  0
  141.4440   79.9130  221.2960 C   0  0  0  0  0  0  0  0  0  0  0  0
  141.0740   78.5860  221.1720 C   0  0  0  0  0  0  0  0  0  0  0  0
  142.4390   75.5930  221.2160 H   0  0  0  0  0  0  0  0  0  0  0  0
  142.0819   69.9393  219.5855 H   0  0  0  0  0  0  0  0  0  0  0  0
  140.3129   69.4481  219.5969 H   0  0  0  0  0  0  0  0  0  0  0  0
  142.2939   69.4689  217.4295 H   0  0  0  0  0  0  0  0  0  0  0  0
  140.8658   68.3795  217.8077 H   0  0  0  0  0  0  0  0  0  0  0  0
  140.7660   69.6440  215.7900 H   0  0  0  0  0  0  0  0  0  0  0  0
  141.7466   71.6575  216.4422 H   0  0  0  0  0  0  0  0  0  0  0  0
  140.0709   71.9017  215.8237 H   0  0  0  0  0  0  0  0  0  0  0  0
  140.7637   73.1260  217.9624 H   0  0  0  0  0  0  0  0  0  0  0  0
  139.1954   72.1837  217.9417 H   0  0  0  0  0  0  0  0  0  0  0  0
  137.9399   71.0073  224.6354 H   0  0  0  0  0  0  0  0  0  0  0  0
  138.1053   70.7355  222.8983 H   0  0  0  0  0  0  0  0  0  0  0  0
  138.2123   68.5427  224.1590 H   0  0  0  0  0  0  0  0  0  0  0  0
  139.7683   68.8400  223.3796 H   0  0  0  0  0  0  0  0  0  0  0  0
  139.0056   67.3043  226.0178 H   0  0  0  0  0  0  0  0  0  0  0  0
  140.0429   67.3115  228.2839 H   0  0  0  0  0  0  0  0  0  0  0  0
  141.3352   69.2992  229.0121 H   0  0  0  0  0  0  0  0  0  0  0  0
  141.5977   71.2630  227.5046 H   0  0  0  0  0  0  0  0  0  0  0  0
  140.3229   72.4749  225.6319 H   0  0  0  0  0  0  0  0  0  0  0  0
  141.7096   71.6927  224.8224 H   0  0  0  0  0  0  0  0  0  0  0  0
  141.4578   77.5964  224.3508 H   0  0  0  0  0  0  0  0  0  0  0  0
  142.1281   79.9561  224.6377 H   0  0  0  0  0  0  0  0  0  0  0  0
  142.1199   81.4719  222.6371 H   0  0  0  0  0  0  0  0  0  0  0  0
  141.4371   80.5703  220.4140 H   0  0  0  0  0  0  0  0  0  0  0  0
  140.7743   78.1956  220.1883 H   0  0  0  0  0  0  0  0  0  0  0  0
  1  2  2  0
  2  3  1  0
  3  4  1  0
  4  5  2  0
  5  6  1  0
  6  7  1  0
  7  8  1  0
  8  9  1  0
  9 10  1  0
 10 11  1  0
 11 12  1  0
  6 13  2  0
 13 14  1  0
 14 15  1  0
 15 16  1  0
 16 17  1  0
 17 18  1  0
 18 19  2  0
 19 20  1  0
 20 21  2  0
 21 22  1  0
 22 23  2  0
 23 24  1  0
 14 25  2  0
  2 26  1  0
 26 27  2  0
 27 28  1  0
 28 29  2  0
 29 30  1  0
 30 31  2  0
 25  4  1  0
 31 26  1  0
 12  7  1  0
 24 15  1  0
 23 18  1  0
  3 32  1  0
  8 33  1  0
  8 34  1  0
  9 35  1  0
  9 36  1  0
 10 37  1  0
 11 38  1  0
 11 39  1  0
 12 40  1  0
 12 41  1  0
 16 42  1  0
 16 43  1  0
 17 44  1  0
 17 45  1  0
 19 46  1  0
 20 47  1  0
 21 48  1  0
 22 49  1  0
 24 50  1  0
 24 51  1  0
 27 52  1  0
 28 53  1  0
 29 54  1  0
 30 55  1  0
 31 56  1  0
M  END
>  <smiles>  (29) 
O=C(Nc1nc(N2CCNCC2)nc(N2CCc3ccccc3C2)n1)c1ccccc1

>  <score_type>  (29) 
oracle

>  <origin>  (29) 
autodockgpu

>  <m_score__min__energy>  (29) 
-8.7400000000000002

>  <m_primary>  (29) 
energy

>  <rmsd>  (29) 
3.843633926618633

>  <m_score__min__rmsd>  (29) 
3.843633926618633

>  <meeko>  (29) 
{"free_energy": -8.74, "intermolecular_energy": -9.93, "internal_energy": -0.8, "cluster_size": 49, "cluster_id": 1, "rank_in_cluster": 6}

>  <energy>  (29) 
-8.71

>  <cluster_rmsd>  (29) 
0.55

>  <cluster>  (29) 
1

$$$$

     RDKit          3D

 56 60  0  0  0  0  0  0  0  0999 V2000
  139.5830   76.0810  222.6400 O   0  0  0  0  0  0  0  0  0  0  0  0
  140.7100   76.3540  222.1890 C   0  0  0  0  0  0  0  0  0  0  0  0
  141.4960   75.3110  221.6270 N   0  0  0  0  0  0  0  0  0  0  0  0
  140.9940   73.9830  221.5870 C   0  0  0  0  0  0  0  0  0  0  0  0
  140.8900   73.3860  220.3670 N   0  0  0  0  0  0  0  0  0  0  0  0
  140.4150   72.1240  220.3270 C   0  0  0  0  0  0  0  0  0  0  0  0
  140.3010   71.4920  219.0630 N   0  0  0  0  0  0  0  0  0  0  0  0
  140.7320   72.2410  217.9020 C   0  0  0  0  0  0  0  0  0  0  0  0
  140.4440   71.5840  216.6000 C   0  0  0  0  0  0  0  0  0  0  0  0
  140.3130   70.1440  216.6670 N   0  0  0  0  0  0  0  0  0  0  0  0
  139.3460   69.7240  217.6480 C   0  0  0  0  0  0  0  0  0  0  0  0
  139.7700   70.1580  219.0160 C   0  0  0  0  0  0  0  0  0  0  0  0
  140.0630   71.5020  221.4790 N   0  0  0  0  0  0  0  0  0  0  0  0
  140.1660   72.0910  222.6810 C   0  0  0  0  0  0  0  0  0  0  0  0
  139.7940   71.4300  223.8890 N   0  0  0  0  0  0  0  0  0  0  0  0
  138.5930   70.6140  223.9070 C   0  0  0  0  0  0  0  0  0  0  0  0
  139.0800   69.1890  224.1760 C   0  0  0  0  0  0  0  0  0  0  0  0
  139.7570   69.2510  225.5020 C   0  0  0  0  0  0  0  0  0  0  0  0
  139.6720   68.1520  226.3560 C   0  0  0  0  0  0  0  0  0  0  0  0
  140.2850   68.1570  227.6050 C   0  0  0  0  0  0  0  0  0  0  0  0
  140.9860   69.2780  227.9880 C   0  0  0  0  0  0  0  0  0  0  0  0
  141.0830   70.3880  227.1460 C   0  0  0  0  0  0  0  0  0  0  0  0
  140.4630   70.3660  225.8970 C   0  0  0  0  0  0  0  0  0  0  0  0
  140.6160   71.5840  225.0690 C   0  0  0  0  0  0  0  0  0  0  0  0
  140.6410   73.3480  222.7040 N   0  0  0  0  0  0  0  0  0  0  0  0
  141.1590   77.7390  222.2630 C   0  0  0  0  0  0  0  0  0  0  0  0
  141.4300   78.2720  223.4930 C   0  0  0  0  0  0  0  0  0  0  0  0
  141.8620   79.5720  223.6730 C   0  0  0  0  0  0  0  0  0  0  0  0
  142.0260   80.3730  222.5450 C   0  0  0  0  0  0  0  0  0  0  0  0
  141.7570   79.8500  221.2840 C   0  0  0  0  0  0  0  0  0  0  0  0
  141.3260   78.5420  221.1540 C   0  0  0  0  0  0  0  0  0  0  0  0
  142.4320   75.5150  221.2480 H   0  0  0  0  0  0  0  0  0  0  0  0
  140.2230   73.2161  217.9143 H   0  0  0  0  0  0  0  0  0  0  0  0
  141.8265   72.3248  217.9736 H   0  0  0  0  0  0  0  0  0  0  0  0
  139.5022   71.9962  216.2087 H   0  0  0  0  0  0  0  0  0  0  0  0
  141.3077   71.7883  215.9502 H   0  0  0  0  0  0  0  0  0  0  0  0
  139.9460   69.8470  215.7230 H   0  0  0  0  0  0  0  0  0  0  0  0
  138.3704   70.1735  217.4111 H   0  0  0  0  0  0  0  0  0  0  0  0
  139.2708   68.6267  217.6286 H   0  0  0  0  0  0  0  0  0  0  0  0
  138.8957   70.1092  219.6818 H   0  0  0  0  0  0  0  0  0  0  0  0
  140.5776   69.4807  219.3308 H   0  0  0  0  0  0  0  0  0  0  0  0
  137.9129   70.9463  224.7051 H   0  0  0  0  0  0  0  0  0  0  0  0
  138.0332   70.6857  222.9628 H   0  0  0  0  0  0  0  0  0  0  0  0
  138.2306   68.4909  224.2089 H   0  0  0  0  0  0  0  0  0  0  0  0
  139.7557   68.8295  223.3859 H   0  0  0  0  0  0  0  0  0  0  0  0
  139.1088   67.2630  226.0357 H   0  0  0  0  0  0  0  0  0  0  0  0
  140.2111   67.2849  228.2713 H   0  0  0  0  0  0  0  0  0  0  0  0
  141.4771   69.2999  228.9720 H   0  0  0  0  0  0  0  0  0  0  0  0
  141.6465   71.2766  227.4669 H   0  0  0  0  0  0  0  0  0  0  0  0
  140.2889   72.4661  225.6390 H   0  0  0  0  0  0  0  0  0  0  0  0
  141.6696   71.7222  224.7847 H   0  0  0  0  0  0  0  0  0  0  0  0
  141.2978   77.6359  224.3806 H   0  0  0  0  0  0  0  0  0  0  0  0
  142.0707   79.9638  224.6794 H   0  0  0  0  0  0  0  0  0  0  0  0
  142.3664   81.4136  222.6507 H   0  0  0  0  0  0  0  0  0  0  0  0
  141.8872   80.4772  220.3897 H   0  0  0  0  0  0  0  0  0  0  0  0
  141.1138   78.1371  220.1535 H   0  0  0  0  0  0  0  0  0  0  0  0
  1  2  2  0
  2  3  1  0
  3  4  1  0
  4  5  2  0
  5  6  1  0
  6  7  1  0
  7  8  1  0
  8  9  1  0
  9 10  1  0
 10 11  1  0
 11 12  1  0
  6 13  2  0
 13 14  1  0
 14 15  1  0
 15 16  1  0
 16 17  1  0
 17 18  1  0
 18 19  2  0
 19 20  1  0
 20 21  2  0
 21 22  1  0
 22 23  2  0
 23 24  1  0
 14 25  2  0
  2 26  1  0
 26 27  2  0
 27 28  1  0
 28 29  2  0
 29 30  1  0
 30 31  2  0
 25  4  1  0
 31 26  1  0
 12  7  1  0
 24 15  1  0
 23 18  1  0
  3 32  1  0
  8 33  1  0
  8 34  1  0
  9 35  1  0
  9 36  1  0
 10 37  1  0
 11 38  1  0
 11 39  1  0
 12 40  1  0
 12 41  1  0
 16 42  1  0
 16 43  1  0
 17 44  1  0
 17 45  1  0
 19 46  1  0
 20 47  1  0
 21 48  1  0
 22 49  1  0
 24 50  1  0
 24 51  1  0
 27 52  1  0
 28 53  1  0
 29 54  1  0
 30 55  1  0
 31 56  1  0
M  END
>  <smiles>  (30) 
O=C(Nc1nc(N2CCNCC2)nc(N2CCc3ccccc3C2)n1)c1ccccc1

>  <score_type>  (30) 
oracle

>  <origin>  (30) 
autodockgpu

>  <m_score__min__energy>  (30) 
-8.7400000000000002

>  <m_primary>  (30) 
energy

>  <rmsd>  (30) 
3.839444478643387

>  <m_score__min__rmsd>  (30) 
3.839444478643387

>  <meeko>  (30) 
{"free_energy": -8.7, "intermolecular_energy": -9.9, "internal_energy": -0.81, "cluster_size": 49, "cluster_id": 1, "rank_in_cluster": 32}

>  <energy>  (30) 
-8.71

>  <cluster_rmsd>  (30) 
0.14

>  <cluster>  (30) 
1

$$$$

     RDKit          3D

 56 60  0  0  0  0  0  0  0  0999 V2000
  139.5260   76.0700  222.6700 O   0  0  0  0  0  0  0  0  0  0  0  0
  140.6470   76.3610  222.2150 C   0  0  0  0  0  0  0  0  0  0  0  0
  141.4430   75.3320  221.6420 N   0  0  0  0  0  0  0  0  0  0  0  0
  140.9590   73.9980  221.5950 C   0  0  0  0  0  0  0  0  0  0  0  0
  140.8760   73.4010  220.3730 N   0  0  0  0  0  0  0  0  0  0  0  0
  140.4180   72.1330  220.3270 C   0  0  0  0  0  0  0  0  0  0  0  0
  140.3260   71.5000  219.0610 N   0  0  0  0  0  0  0  0  0  0  0  0
  139.9120   70.1140  219.0370 C   0  0  0  0  0  0  0  0  0  0  0  0
  139.9850   69.4690  217.7000 C   0  0  0  0  0  0  0  0  0  0  0  0
  139.9070   70.3860  216.5830 N   0  0  0  0  0  0  0  0  0  0  0  0
  140.8830   71.4420  216.6680 C   0  0  0  0  0  0  0  0  0  0  0  0
  140.6480   72.2710  217.8920 C   0  0  0  0  0  0  0  0  0  0  0  0
  140.0600   71.5050  221.4750 N   0  0  0  0  0  0  0  0  0  0  0  0
  140.1420   72.0940  222.6780 C   0  0  0  0  0  0  0  0  0  0  0  0
  139.7640   71.4280  223.8810 N   0  0  0  0  0  0  0  0  0  0  0  0
  138.5770   70.5910  223.8830 C   0  0  0  0  0  0  0  0  0  0  0  0
  139.0850   69.1750  224.1600 C   0  0  0  0  0  0  0  0  0  0  0  0
  139.7420   69.2490  225.4950 C   0  0  0  0  0  0  0  0  0  0  0  0
  139.6640   68.1500  226.3500 C   0  0  0  0  0  0  0  0  0  0  0  0
  140.2580   68.1660  227.6070 C   0  0  0  0  0  0  0  0  0  0  0  0
  140.9340   69.3000  227.9990 C   0  0  0  0  0  0  0  0  0  0  0  0
  141.0240   70.4110  227.1570 C   0  0  0  0  0  0  0  0  0  0  0  0
  140.4220   70.3780  225.9000 C   0  0  0  0  0  0  0  0  0  0  0  0
  140.5660   71.5970  225.0730 C   0  0  0  0  0  0  0  0  0  0  0  0
  140.6010   73.3570  222.7080 N   0  0  0  0  0  0  0  0  0  0  0  0
  141.0790   77.7510  222.2970 C   0  0  0  0  0  0  0  0  0  0  0  0
  141.1280   78.4880  221.1460 C   0  0  0  0  0  0  0  0  0  0  0  0
  141.5230   79.8110  221.1150 C   0  0  0  0  0  0  0  0  0  0  0  0
  141.8870   80.4180  222.3140 C   0  0  0  0  0  0  0  0  0  0  0  0
  141.8440   79.6860  223.4970 C   0  0  0  0  0  0  0  0  0  0  0  0
  141.4420   78.3630  223.4780 C   0  0  0  0  0  0  0  0  0  0  0  0
  142.3760   75.5500  221.2600 H   0  0  0  0  0  0  0  0  0  0  0  0
  140.5592   69.5507  219.7254 H   0  0  0  0  0  0  0  0  0  0  0  0
  138.8524   70.1002  219.3321 H   0  0  0  0  0  0  0  0  0  0  0  0
  140.9396   68.9266  217.6325 H   0  0  0  0  0  0  0  0  0  0  0  0
  139.1076   68.8099  217.6238 H   0  0  0  0  0  0  0  0  0  0  0  0
  140.1430   69.8150  215.7280 H   0  0  0  0  0  0  0  0  0  0  0  0
  141.8901   71.0021  216.7158 H   0  0  0  0  0  0  0  0  0  0  0  0
  140.7933   72.0838  215.7792 H   0  0  0  0  0  0  0  0  0  0  0  0
  141.5599   72.8504  218.0989 H   0  0  0  0  0  0  0  0  0  0  0  0
  139.7799   72.9133  217.6824 H   0  0  0  0  0  0  0  0  0  0  0  0
  137.8801   70.9119  224.6713 H   0  0  0  0  0  0  0  0  0  0  0  0
  138.0292   70.6523  222.9311 H   0  0  0  0  0  0  0  0  0  0  0  0
  138.2475   68.4622  224.1814 H   0  0  0  0  0  0  0  0  0  0  0  0
  139.7781   68.8273  223.3798 H   0  0  0  0  0  0  0  0  0  0  0  0
  139.1208   67.2511  226.0229 H   0  0  0  0  0  0  0  0  0  0  0  0
  140.1896   67.2931  228.2729 H   0  0  0  0  0  0  0  0  0  0  0  0
  141.4103   69.3314  228.9900 H   0  0  0  0  0  0  0  0  0  0  0  0
  141.5681   71.3091  227.4847 H   0  0  0  0  0  0  0  0  0  0  0  0
  140.2155   72.4739  225.6371 H   0  0  0  0  0  0  0  0  0  0  0  0
  141.6211   71.7528  224.8038 H   0  0  0  0  0  0  0  0  0  0  0  0
  140.8394   78.0046  220.2010 H   0  0  0  0  0  0  0  0  0  0  0  0
  141.5493   80.3703  220.1682 H   0  0  0  0  0  0  0  0  0  0  0  0
  142.2068   81.4704  222.3262 H   0  0  0  0  0  0  0  0  0  0  0  0
  142.1299   80.1601  224.4475 H   0  0  0  0  0  0  0  0  0  0  0  0
  141.4114   77.7914  224.4173 H   0  0  0  0  0  0  0  0  0  0  0  0
  1  2  2  0
  2  3  1  0
  3  4  1  0
  4  5  2  0
  5  6  1  0
  6  7  1  0
  7  8  1  0
  8  9  1  0
  9 10  1  0
 10 11  1  0
 11 12  1  0
  6 13  2  0
 13 14  1  0
 14 15  1  0
 15 16  1  0
 16 17  1  0
 17 18  1  0
 18 19  2  0
 19 20  1  0
 20 21  2  0
 21 22  1  0
 22 23  2  0
 23 24  1  0
 14 25  2  0
  2 26  1  0
 26 27  2  0
 27 28  1  0
 28 29  2  0
 29 30  1  0
 30 31  2  0
 25  4  1  0
 31 26  1  0
 12  7  1  0
 24 15  1  0
 23 18  1  0
  3 32  1  0
  8 33  1  0
  8 34  1  0
  9 35  1  0
  9 36  1  0
 10 37  1  0
 11 38  1  0
 11 39  1  0
 12 40  1  0
 12 41  1  0
 16 42  1  0
 16 43  1  0
 17 44  1  0
 17 45  1  0
 19 46  1  0
 20 47  1  0
 21 48  1  0
 22 49  1  0
 24 50  1  0
 24 51  1  0
 27 52  1  0
 28 53  1  0
 29 54  1  0
 30 55  1  0
 31 56  1  0
M  END
>  <smiles>  (31) 
O=C(Nc1nc(N2CCNCC2)nc(N2CCc3ccccc3C2)n1)c1ccccc1

>  <score_type>  (31) 
oracle

>  <origin>  (31) 
autodockgpu

>  <m_score__min__energy>  (31) 
-8.7400000000000002

>  <m_primary>  (31) 
energy

>  <rmsd>  (31) 
3.8413242028413768

>  <m_score__min__rmsd>  (31) 
3.8413242028413768

>  <meeko>  (31) 
{"free_energy": -8.69, "intermolecular_energy": -9.89, "internal_energy": -0.81, "cluster_size": 49, "cluster_id": 1, "rank_in_cluster": 37}

>  <energy>  (31) 
-8.71

>  <cluster_rmsd>  (31) 
0.28

>  <cluster>  (31) 
1

$$$$

     RDKit          3D

 56 60  0  0  0  0  0  0  0  0999 V2000
  139.5620   76.0370  222.7120 O   0  0  0  0  0  0  0  0  0  0  0  0
  140.6760   76.3350  222.2430 C   0  0  0  0  0  0  0  0  0  0  0  0
  141.4660   75.3130  221.6480 N   0  0  0  0  0  0  0  0  0  0  0  0
  140.9830   73.9790  221.5950 C   0  0  0  0  0  0  0  0  0  0  0  0
  140.9010   73.3870  220.3700 N   0  0  0  0  0  0  0  0  0  0  0  0
  140.4430   72.1190  220.3170 C   0  0  0  0  0  0  0  0  0  0  0  0
  140.3520   71.4930  219.0480 N   0  0  0  0  0  0  0  0  0  0  0  0
  139.9560   70.1010  219.0190 C   0  0  0  0  0  0  0  0  0  0  0  0
  140.0290   69.4650  217.6780 C   0  0  0  0  0  0  0  0  0  0  0  0
  139.9320   70.3880  216.5660 N   0  0  0  0  0  0  0  0  0  0  0  0
  140.8950   71.4560  216.6510 C   0  0  0  0  0  0  0  0  0  0  0  0
  140.6570   72.2740  217.8820 C   0  0  0  0  0  0  0  0  0  0  0  0
  140.0870   71.4850  221.4620 N   0  0  0  0  0  0  0  0  0  0  0  0
  140.1690   72.0690  222.6690 C   0  0  0  0  0  0  0  0  0  0  0  0
  139.7920   71.3960  223.8680 N   0  0  0  0  0  0  0  0  0  0  0  0
  138.6190   70.5400  223.8610 C   0  0  0  0  0  0  0  0  0  0  0  0
  139.1470   69.1320  224.1410 C   0  0  0  0  0  0  0  0  0  0  0  0
  139.7930   69.2160  225.4810 C   0  0  0  0  0  0  0  0  0  0  0  0
  139.7250   68.1150  226.3340 C   0  0  0  0  0  0  0  0  0  0  0  0
  140.3100   68.1400  227.5960 C   0  0  0  0  0  0  0  0  0  0  0  0
  140.9640   69.2840  227.9940 C   0  0  0  0  0  0  0  0  0  0  0  0
  141.0430   70.3970  227.1530 C   0  0  0  0  0  0  0  0  0  0  0  0
  140.4520   70.3550  225.8910 C   0  0  0  0  0  0  0  0  0  0  0  0
  140.5830   71.5760  225.0660 C   0  0  0  0  0  0  0  0  0  0  0  0
  140.6260   73.3320  222.7040 N   0  0  0  0  0  0  0  0  0  0  0  0
  141.1070   77.7240  222.3330 C   0  0  0  0  0  0  0  0  0  0  0  0
  141.1580   78.4670  221.1860 C   0  0  0  0  0  0  0  0  0  0  0  0
  141.5520   79.7910  221.1620 C   0  0  0  0  0  0  0  0  0  0  0  0
  141.9130   80.3920  222.3650 C   0  0  0  0  0  0  0  0  0  0  0  0
  141.8670   79.6540  223.5450 C   0  0  0  0  0  0  0  0  0  0  0  0
  141.4660   78.3310  223.5190 C   0  0  0  0  0  0  0  0  0  0  0  0
  142.3910   75.5370  221.2540 H   0  0  0  0  0  0  0  0  0  0  0  0
  140.6151   69.5425  219.7000 H   0  0  0  0  0  0  0  0  0  0  0  0
  138.8987   70.0713  219.3210 H   0  0  0  0  0  0  0  0  0  0  0  0
  140.9902   68.9356  217.6014 H   0  0  0  0  0  0  0  0  0  0  0  0
  139.1598   68.7951  217.6033 H   0  0  0  0  0  0  0  0  0  0  0  0
  140.1700   69.8240  215.7070 H   0  0  0  0  0  0  0  0  0  0  0  0
  141.9080   71.0289  216.6895 H   0  0  0  0  0  0  0  0  0  0  0  0
  140.7915   72.1021  215.7668 H   0  0  0  0  0  0  0  0  0  0  0  0
  141.5628   72.8636  218.0869 H   0  0  0  0  0  0  0  0  0  0  0  0
  139.7792   72.9058  217.6815 H   0  0  0  0  0  0  0  0  0  0  0  0
  137.9113   70.8493  224.6443 H   0  0  0  0  0  0  0  0  0  0  0  0
  138.0776   70.5930  222.9049 H   0  0  0  0  0  0  0  0  0  0  0  0
  138.3206   68.4061  224.1560 H   0  0  0  0  0  0  0  0  0  0  0  0
  139.8510   68.7953  223.3657 H   0  0  0  0  0  0  0  0  0  0  0  0
  139.1981   67.2082  226.0023 H   0  0  0  0  0  0  0  0  0  0  0  0
  140.2513   67.2655  228.2607 H   0  0  0  0  0  0  0  0  0  0  0  0
  141.4314   69.3225  228.9890 H   0  0  0  0  0  0  0  0  0  0  0  0
  141.5699   71.3035  227.4856 H   0  0  0  0  0  0  0  0  0  0  0  0
  140.2153   72.4471  225.6282 H   0  0  0  0  0  0  0  0  0  0  0  0
  141.6375   71.7477  224.8042 H   0  0  0  0  0  0  0  0  0  0  0  0
  140.8719   77.9880  220.2380 H   0  0  0  0  0  0  0  0  0  0  0  0
  141.5798   80.3551  220.2181 H   0  0  0  0  0  0  0  0  0  0  0  0
  142.2329   81.4443  222.3832 H   0  0  0  0  0  0  0  0  0  0  0  0
  142.1499   80.1239  224.4985 H   0  0  0  0  0  0  0  0  0  0  0  0
  141.4328   77.7551  224.4556 H   0  0  0  0  0  0  0  0  0  0  0  0
  1  2  2  0
  2  3  1  0
  3  4  1  0
  4  5  2  0
  5  6  1  0
  6  7  1  0
  7  8  1  0
  8  9  1  0
  9 10  1  0
 10 11  1  0
 11 12  1  0
  6 13  2  0
 13 14  1  0
 14 15  1  0
 15 16  1  0
 16 17  1  0
 17 18  1  0
 18 19  2  0
 19 20  1  0
 20 21  2  0
 21 22  1  0
 22 23  2  0
 23 24  1  0
 14 25  2  0
  2 26  1  0
 26 27  2  0
 27 28  1  0
 28 29  2  0
 29 30  1  0
 30 31  2  0
 25  4  1  0
 31 26  1  0
 12  7  1  0
 24 15  1  0
 23 18  1  0
  3 32  1  0
  8 33  1  0
  8 34  1  0
  9 35  1  0
  9 36  1  0
 10 37  1  0
 11 38  1  0
 11 39  1  0
 12 40  1  0
 12 41  1  0
 16 42  1  0
 16 43  1  0
 17 44  1  0
 17 45  1  0
 19 46  1  0
 20 47  1  0
 21 48  1  0
 22 49  1  0
 24 50  1  0
 24 51  1  0
 27 52  1  0
 28 53  1  0
 29 54  1  0
 30 55  1  0
 31 56  1  0
M  END
>  <smiles>  (32) 
O=C(Nc1nc(N2CCNCC2)nc(N2CCc3ccccc3C2)n1)c1ccccc1

>  <score_type>  (32) 
oracle

>  <origin>  (32) 
autodockgpu

>  <m_score__min__energy>  (32) 
-8.7400000000000002

>  <m_primary>  (32) 
energy

>  <rmsd>  (32) 
3.8461381411810676

>  <m_score__min__rmsd>  (32) 
3.8461381411810676

>  <meeko>  (32) 
{"free_energy": -8.7, "intermolecular_energy": -9.89, "internal_energy": -0.81, "cluster_size": 49, "cluster_id": 1, "rank_in_cluster": 35}

>  <energy>  (32) 
-8.7

>  <cluster_rmsd>  (32) 
0.42

>  <cluster>  (32) 
1

$$$$

     RDKit          3D

 56 60  0  0  0  0  0  0  0  0999 V2000
  139.5530   76.0360  222.6750 O   0  0  0  0  0  0  0  0  0  0  0  0
  140.6700   76.3370  222.2180 C   0  0  0  0  0  0  0  0  0  0  0  0
  141.4720   75.3160  221.6370 N   0  0  0  0  0  0  0  0  0  0  0  0
  140.9960   73.9790  221.5850 C   0  0  0  0  0  0  0  0  0  0  0  0
  140.9360   73.3800  220.3630 N   0  0  0  0  0  0  0  0  0  0  0  0
  140.4850   72.1090  220.3110 C   0  0  0  0  0  0  0  0  0  0  0  0
  140.4170   71.4740  219.0450 N   0  0  0  0  0  0  0  0  0  0  0  0
  140.6580   72.2920  217.8760 C   0  0  0  0  0  0  0  0  0  0  0  0
  140.4210   71.6030  216.5800 C   0  0  0  0  0  0  0  0  0  0  0  0
  140.5360   70.1610  216.6330 N   0  0  0  0  0  0  0  0  0  0  0  0
  139.7030   69.5790  217.6530 C   0  0  0  0  0  0  0  0  0  0  0  0
  140.1160   70.0700  219.0050 C   0  0  0  0  0  0  0  0  0  0  0  0
  140.1140   71.4810  221.4550 N   0  0  0  0  0  0  0  0  0  0  0  0
  140.1740   72.0730  222.6580 C   0  0  0  0  0  0  0  0  0  0  0  0
  139.7820   71.4050  223.8570 N   0  0  0  0  0  0  0  0  0  0  0  0
  138.6010   70.5620  223.8420 C   0  0  0  0  0  0  0  0  0  0  0  0
  139.1130   69.1490  224.1280 C   0  0  0  0  0  0  0  0  0  0  0  0
  139.7490   69.2290  225.4730 C   0  0  0  0  0  0  0  0  0  0  0  0
  139.6640   68.1310  226.3280 C   0  0  0  0  0  0  0  0  0  0  0  0
  140.2390   68.1520  227.5940 C   0  0  0  0  0  0  0  0  0  0  0  0
  140.9020   69.2900  227.9940 C   0  0  0  0  0  0  0  0  0  0  0  0
  140.9990   70.4000  227.1520 C   0  0  0  0  0  0  0  0  0  0  0  0
  140.4160   70.3620  225.8860 C   0  0  0  0  0  0  0  0  0  0  0  0
  140.5650   71.5810  225.0600 C   0  0  0  0  0  0  0  0  0  0  0  0
  140.6250   73.3380  222.6930 N   0  0  0  0  0  0  0  0  0  0  0  0
  141.0940   77.7290  222.3050 C   0  0  0  0  0  0  0  0  0  0  0  0
  141.1470   78.4690  221.1560 C   0  0  0  0  0  0  0  0  0  0  0  0
  141.5340   79.7950  221.1310 C   0  0  0  0  0  0  0  0  0  0  0  0
  141.8860   80.4010  222.3340 C   0  0  0  0  0  0  0  0  0  0  0  0
  141.8380   79.6670  223.5150 C   0  0  0  0  0  0  0  0  0  0  0  0
  141.4440   78.3410  223.4910 C   0  0  0  0  0  0  0  0  0  0  0  0
  142.4010   75.5430  221.2520 H   0  0  0  0  0  0  0  0  0  0  0  0
  139.9932   73.1669  217.9263 H   0  0  0  0  0  0  0  0  0  0  0  0
  141.7248   72.5596  217.8968 H   0  0  0  0  0  0  0  0  0  0  0  0
  139.4057   71.8537  216.2391 H   0  0  0  0  0  0  0  0  0  0  0  0
  141.2061   71.9528  215.8935 H   0  0  0  0  0  0  0  0  0  0  0  0
  140.1780   69.8120  215.7040 H   0  0  0  0  0  0  0  0  0  0  0  0
  138.6554   69.8598  217.4696 H   0  0  0  0  0  0  0  0  0  0  0  0
  139.8114   68.4848  217.6217 H   0  0  0  0  0  0  0  0  0  0  0  0
  139.2968   69.8707  219.7115 H   0  0  0  0  0  0  0  0  0  0  0  0
  141.0405   69.5365  219.2709 H   0  0  0  0  0  0  0  0  0  0  0  0
  137.8905   70.8795  224.6194 H   0  0  0  0  0  0  0  0  0  0  0  0
  138.0672   70.6193  222.8819 H   0  0  0  0  0  0  0  0  0  0  0  0
  138.2795   68.4312  224.1375 H   0  0  0  0  0  0  0  0  0  0  0  0
  139.8197   68.8042  223.3588 H   0  0  0  0  0  0  0  0  0  0  0  0
  139.1307   67.2288  225.9940 H   0  0  0  0  0  0  0  0  0  0  0  0
  140.1657   67.2797  228.2601 H   0  0  0  0  0  0  0  0  0  0  0  0
  141.3626   69.3257  228.9923 H   0  0  0  0  0  0  0  0  0  0  0  0
  141.5336   71.3013  227.4865 H   0  0  0  0  0  0  0  0  0  0  0  0
  140.2007   72.4564  225.6176 H   0  0  0  0  0  0  0  0  0  0  0  0
  141.6230   71.7435  224.8066 H   0  0  0  0  0  0  0  0  0  0  0  0
  140.8686   77.9860  220.2078 H   0  0  0  0  0  0  0  0  0  0  0  0
  141.5632   80.3570  220.1858 H   0  0  0  0  0  0  0  0  0  0  0  0
  142.2005   81.4549  222.3507 H   0  0  0  0  0  0  0  0  0  0  0  0
  142.1135   80.1413  224.4685 H   0  0  0  0  0  0  0  0  0  0  0  0
  141.4094   77.7676  224.4291 H   0  0  0  0  0  0  0  0  0  0  0  0
  1  2  2  0
  2  3  1  0
  3  4  1  0
  4  5  2  0
  5  6  1  0
  6  7  1  0
  7  8  1  0
  8  9  1  0
  9 10  1  0
 10 11  1  0
 11 12  1  0
  6 13  2  0
 13 14  1  0
 14 15  1  0
 15 16  1  0
 16 17  1  0
 17 18  1  0
 18 19  2  0
 19 20  1  0
 20 21  2  0
 21 22  1  0
 22 23  2  0
 23 24  1  0
 14 25  2  0
  2 26  1  0
 26 27  2  0
 27 28  1  0
 28 29  2  0
 29 30  1  0
 30 31  2  0
 25  4  1  0
 31 26  1  0
 12  7  1  0
 24 15  1  0
 23 18  1  0
  3 32  1  0
  8 33  1  0
  8 34  1  0
  9 35  1  0
  9 36  1  0
 10 37  1  0
 11 38  1  0
 11 39  1  0
 12 40  1  0
 12 41  1  0
 16 42  1  0
 16 43  1  0
 17 44  1  0
 17 45  1  0
 19 46  1  0
 20 47  1  0
 21 48  1  0
 22 49  1  0
 24 50  1  0
 24 51  1  0
 27 52  1  0
 28 53  1  0
 29 54  1  0
 30 55  1  0
 31 56  1  0
M  END
>  <smiles>  (33) 
O=C(Nc1nc(N2CCNCC2)nc(N2CCc3ccccc3C2)n1)c1ccccc1

>  <score_type>  (33) 
oracle

>  <origin>  (33) 
autodockgpu

>  <m_score__min__energy>  (33) 
-8.7400000000000002

>  <m_primary>  (33) 
energy

>  <rmsd>  (33) 
3.842637484468306

>  <m_score__min__rmsd>  (33) 
3.842637484468306

>  <meeko>  (33) 
{"free_energy": -8.68, "intermolecular_energy": -9.88, "internal_energy": -0.81, "cluster_size": 49, "cluster_id": 1, "rank_in_cluster": 39}

>  <energy>  (33) 
-8.7

>  <cluster_rmsd>  (33) 
0.3

>  <cluster>  (33) 
1

$$$$

     RDKit          3D

 56 60  0  0  0  0  0  0  0  0999 V2000
  139.5470   76.0300  222.6840 O   0  0  0  0  0  0  0  0  0  0  0  0
  140.6610   76.3360  222.2220 C   0  0  0  0  0  0  0  0  0  0  0  0
  141.4660   75.3180  221.6400 N   0  0  0  0  0  0  0  0  0  0  0  0
  140.9980   73.9790  221.5930 C   0  0  0  0  0  0  0  0  0  0  0  0
  140.9370   73.3760  220.3730 N   0  0  0  0  0  0  0  0  0  0  0  0
  140.4930   72.1030  220.3260 C   0  0  0  0  0  0  0  0  0  0  0  0
  140.4250   71.4640  219.0620 N   0  0  0  0  0  0  0  0  0  0  0  0
  140.4120   70.0170  219.0470 C   0  0  0  0  0  0  0  0  0  0  0  0
  140.4950   69.4110  217.6910 C   0  0  0  0  0  0  0  0  0  0  0  0
  140.0280   70.2650  216.6200 N   0  0  0  0  0  0  0  0  0  0  0  0
  140.6760   71.5520  216.6190 C   0  0  0  0  0  0  0  0  0  0  0  0
  140.3740   72.2880  217.8860 C   0  0  0  0  0  0  0  0  0  0  0  0
  140.1290   71.4760  221.4720 N   0  0  0  0  0  0  0  0  0  0  0  0
  140.1890   72.0710  222.6740 C   0  0  0  0  0  0  0  0  0  0  0  0
  139.8030   71.4050  223.8750 N   0  0  0  0  0  0  0  0  0  0  0  0
  138.6230   70.5600  223.8670 C   0  0  0  0  0  0  0  0  0  0  0  0
  139.1370   69.1480  224.1530 C   0  0  0  0  0  0  0  0  0  0  0  0
  139.7800   69.2310  225.4950 C   0  0  0  0  0  0  0  0  0  0  0  0
  139.7010   68.1330  226.3510 C   0  0  0  0  0  0  0  0  0  0  0  0
  140.2830   68.1570  227.6140 C   0  0  0  0  0  0  0  0  0  0  0  0
  140.9470   69.2960  228.0100 C   0  0  0  0  0  0  0  0  0  0  0  0
  141.0380   70.4050  227.1660 C   0  0  0  0  0  0  0  0  0  0  0  0
  140.4490   70.3650  225.9030 C   0  0  0  0  0  0  0  0  0  0  0  0
  140.5930   71.5820  225.0740 C   0  0  0  0  0  0  0  0  0  0  0  0
  140.6330   73.3390  222.7040 N   0  0  0  0  0  0  0  0  0  0  0  0
  141.0770   77.7310  222.3050 C   0  0  0  0  0  0  0  0  0  0  0  0
  141.0930   78.4770  221.1580 C   0  0  0  0  0  0  0  0  0  0  0  0
  141.4700   79.8050  221.1280 C   0  0  0  0  0  0  0  0  0  0  0  0
  141.8510   80.4090  222.3240 C   0  0  0  0  0  0  0  0  0  0  0  0
  141.8420   79.6680  223.5030 C   0  0  0  0  0  0  0  0  0  0  0  0
  141.4560   78.3400  223.4830 C   0  0  0  0  0  0  0  0  0  0  0  0
  142.3930   75.5490  221.2510 H   0  0  0  0  0  0  0  0  0  0  0  0
  141.2701   69.6601  219.6354 H   0  0  0  0  0  0  0  0  0  0  0  0
  139.4430   69.7096  219.4671 H   0  0  0  0  0  0  0  0  0  0  0  0
  141.5465   69.1561  217.4929 H   0  0  0  0  0  0  0  0  0  0  0  0
  139.8327   68.5328  217.7009 H   0  0  0  0  0  0  0  0  0  0  0  0
  140.3050   69.7780  215.7260 H   0  0  0  0  0  0  0  0  0  0  0  0
  141.7634   71.4104  216.5323 H   0  0  0  0  0  0  0  0  0  0  0  0
  140.3026   72.1392  215.7671 H   0  0  0  0  0  0  0  0  0  0  0  0
  141.1081   73.0994  217.9991 H   0  0  0  0  0  0  0  0  0  0  0  0
  139.3429   72.6616  217.8013 H   0  0  0  0  0  0  0  0  0  0  0  0
  137.9158   70.8781  224.6471 H   0  0  0  0  0  0  0  0  0  0  0  0
  138.0853   70.6149  222.9090 H   0  0  0  0  0  0  0  0  0  0  0  0
  138.3039   68.4299  224.1681 H   0  0  0  0  0  0  0  0  0  0  0  0
  139.8399   68.8019  223.3809 H   0  0  0  0  0  0  0  0  0  0  0  0
  139.1675   67.2295  226.0206 H   0  0  0  0  0  0  0  0  0  0  0  0
  140.2143   67.2854  228.2815 H   0  0  0  0  0  0  0  0  0  0  0  0
  141.4128   69.3332  229.0058 H   0  0  0  0  0  0  0  0  0  0  0  0
  141.5729   71.3075  227.4968 H   0  0  0  0  0  0  0  0  0  0  0  0
  140.2321   72.4584  225.6324 H   0  0  0  0  0  0  0  0  0  0  0  0
  141.6496   71.7432  224.8139 H   0  0  0  0  0  0  0  0  0  0  0  0
  140.7914   77.9962  220.2157 H   0  0  0  0  0  0  0  0  0  0  0  0
  141.4695   80.3709  220.1847 H   0  0  0  0  0  0  0  0  0  0  0  0
  142.1573   81.4654  222.3371 H   0  0  0  0  0  0  0  0  0  0  0  0
  142.1420   80.1391  224.4507 H   0  0  0  0  0  0  0  0  0  0  0  0
  141.4512   77.7620  224.4189 H   0  0  0  0  0  0  0  0  0  0  0  0
  1  2  2  0
  2  3  1  0
  3  4  1  0
  4  5  2  0
  5  6  1  0
  6  7  1  0
  7  8  1  0
  8  9  1  0
  9 10  1  0
 10 11  1  0
 11 12  1  0
  6 13  2  0
 13 14  1  0
 14 15  1  0
 15 16  1  0
 16 17  1  0
 17 18  1  0
 18 19  2  0
 19 20  1  0
 20 21  2  0
 21 22  1  0
 22 23  2  0
 23 24  1  0
 14 25  2  0
  2 26  1  0
 26 27  2  0
 27 28  1  0
 28 29  2  0
 29 30  1  0
 30 31  2  0
 25  4  1  0
 31 26  1  0
 12  7  1  0
 24 15  1  0
 23 18  1  0
  3 32  1  0
  8 33  1  0
  8 34  1  0
  9 35  1  0
  9 36  1  0
 10 37  1  0
 11 38  1  0
 11 39  1  0
 12 40  1  0
 12 41  1  0
 16 42  1  0
 16 43  1  0
 17 44  1  0
 17 45  1  0
 19 46  1  0
 20 47  1  0
 21 48  1  0
 22 49  1  0
 24 50  1  0
 24 51  1  0
 27 52  1  0
 28 53  1  0
 29 54  1  0
 30 55  1  0
 31 56  1  0
M  END
>  <smiles>  (34) 
O=C(Nc1nc(N2CCNCC2)nc(N2CCc3ccccc3C2)n1)c1ccccc1

>  <score_type>  (34) 
oracle

>  <origin>  (34) 
autodockgpu

>  <m_score__min__energy>  (34) 
-8.7400000000000002

>  <m_primary>  (34) 
energy

>  <rmsd>  (34) 
3.847848491882363

>  <m_score__min__rmsd>  (34) 
3.847848491882363

>  <meeko>  (34) 
{"free_energy": -8.71, "intermolecular_energy": -9.9, "internal_energy": -0.81, "cluster_size": 49, "cluster_id": 1, "rank_in_cluster": 31}

>  <energy>  (34) 
-8.7

>  <cluster_rmsd>  (34) 
0.48

>  <cluster>  (34) 
1

$$$$

     RDKit          3D

 56 60  0  0  0  0  0  0  0  0999 V2000
  139.5980   76.0140  222.7070 O   0  0  0  0  0  0  0  0  0  0  0  0
  140.6970   76.3450  222.2260 C   0  0  0  0  0  0  0  0  0  0  0  0
  141.5150   75.3450  221.6320 N   0  0  0  0  0  0  0  0  0  0  0  0
  141.0760   73.9950  221.5930 C   0  0  0  0  0  0  0  0  0  0  0  0
  141.0780   73.3680  220.3830 N   0  0  0  0  0  0  0  0  0  0  0  0
  140.6620   72.0850  220.3440 C   0  0  0  0  0  0  0  0  0  0  0  0
  140.6580   71.4210  219.0910 N   0  0  0  0  0  0  0  0  0  0  0  0
  140.5010   69.9820  219.1000 C   0  0  0  0  0  0  0  0  0  0  0  0
  140.6600   69.3340  217.7720 C   0  0  0  0  0  0  0  0  0  0  0  0
  140.3920   70.1990  216.6420 N   0  0  0  0  0  0  0  0  0  0  0  0
  141.1620   71.4160  216.6860 C   0  0  0  0  0  0  0  0  0  0  0  0
  140.8090   72.2130  217.9020 C   0  0  0  0  0  0  0  0  0  0  0  0
  140.2630   71.4720  221.4860 N   0  0  0  0  0  0  0  0  0  0  0  0
  140.2620   72.0920  222.6780 C   0  0  0  0  0  0  0  0  0  0  0  0
  139.8410   71.4410  223.8750 N   0  0  0  0  0  0  0  0  0  0  0  0
  138.6110   70.6700  223.8660 C   0  0  0  0  0  0  0  0  0  0  0  0
  139.0390   69.2270  224.1380 C   0  0  0  0  0  0  0  0  0  0  0  0
  139.6910   69.2590  225.4780 C   0  0  0  0  0  0  0  0  0  0  0  0
  139.5480   68.1620  226.3260 C   0  0  0  0  0  0  0  0  0  0  0  0
  140.1350   68.1400  227.5870 C   0  0  0  0  0  0  0  0  0  0  0  0
  140.8680   69.2340  227.9880 C   0  0  0  0  0  0  0  0  0  0  0  0
  141.0240   70.3420  227.1530 C   0  0  0  0  0  0  0  0  0  0  0  0
  140.4290   70.3470  225.8920 C   0  0  0  0  0  0  0  0  0  0  0  0
  140.6440   71.5600  225.0720 C   0  0  0  0  0  0  0  0  0  0  0  0
  140.6790   73.3690  222.7000 N   0  0  0  0  0  0  0  0  0  0  0  0
  141.0830   77.7490  222.3020 C   0  0  0  0  0  0  0  0  0  0  0  0
  141.4980   78.2470  223.5060 C   0  0  0  0  0  0  0  0  0  0  0  0
  141.8850   79.5610  223.6850 C   0  0  0  0  0  0  0  0  0  0  0  0
  141.8490   80.4140  222.5840 C   0  0  0  0  0  0  0  0  0  0  0  0
  141.4300   79.9260  221.3490 C   0  0  0  0  0  0  0  0  0  0  0  0
  141.0520   78.6020  221.2190 C   0  0  0  0  0  0  0  0  0  0  0  0
  142.4300   75.5960  221.2290 H   0  0  0  0  0  0  0  0  0  0  0  0
  141.2545   69.5589  219.7806 H   0  0  0  0  0  0  0  0  0  0  0  0
  139.4683   69.7831  219.4223 H   0  0  0  0  0  0  0  0  0  0  0  0
  141.6954   68.9721  217.6888 H   0  0  0  0  0  0  0  0  0  0  0  0
  139.9151   68.5258  217.7289 H   0  0  0  0  0  0  0  0  0  0  0  0
  140.7090   69.6630  215.7910 H   0  0  0  0  0  0  0  0  0  0  0  0
  142.2329   71.1665  216.7145 H   0  0  0  0  0  0  0  0  0  0  0  0
  140.9367   72.0133  215.7902 H   0  0  0  0  0  0  0  0  0  0  0  0
  141.6057   72.9513  218.0760 H   0  0  0  0  0  0  0  0  0  0  0  0
  139.8345   72.6835  217.7047 H   0  0  0  0  0  0  0  0  0  0  0  0
  137.9281   71.0243  224.6522 H   0  0  0  0  0  0  0  0  0  0  0  0
  138.0732   70.7658  222.9112 H   0  0  0  0  0  0  0  0  0  0  0  0
  138.1637   68.5609  224.1507 H   0  0  0  0  0  0  0  0  0  0  0  0
  139.7166   68.8454  223.3600 H   0  0  0  0  0  0  0  0  0  0  0  0
  138.9587   67.2956  225.9911 H   0  0  0  0  0  0  0  0  0  0  0  0
  140.0162   67.2689  228.2481 H   0  0  0  0  0  0  0  0  0  0  0  0
  141.3384   69.2353  228.9824 H   0  0  0  0  0  0  0  0  0  0  0  0
  141.6140   71.2076  227.4886 H   0  0  0  0  0  0  0  0  0  0  0  0
  140.3388   72.4521  225.6386 H   0  0  0  0  0  0  0  0  0  0  0  0
  141.7076   71.6589  224.8093 H   0  0  0  0  0  0  0  0  0  0  0  0
  141.5250   77.5698  224.3724 H   0  0  0  0  0  0  0  0  0  0  0  0
  142.2127   79.9240  224.6703 H   0  0  0  0  0  0  0  0  0  0  0  0
  142.1498   81.4668  222.6897 H   0  0  0  0  0  0  0  0  0  0  0  0
  141.3996   80.5943  220.4758 H   0  0  0  0  0  0  0  0  0  0  0  0
  140.7226   78.2248  220.2396 H   0  0  0  0  0  0  0  0  0  0  0  0
  1  2  2  0
  2  3  1  0
  3  4  1  0
  4  5  2  0
  5  6  1  0
  6  7  1  0
  7  8  1  0
  8  9  1  0
  9 10  1  0
 10 11  1  0
 11 12  1  0
  6 13  2  0
 13 14  1  0
 14 15  1  0
 15 16  1  0
 16 17  1  0
 17 18  1  0
 18 19  2  0
 19 20  1  0
 20 21  2  0
 21 22  1  0
 22 23  2  0
 23 24  1  0
 14 25  2  0
  2 26  1  0
 26 27  2  0
 27 28  1  0
 28 29  2  0
 29 30  1  0
 30 31  2  0
 25  4  1  0
 31 26  1  0
 12  7  1  0
 24 15  1  0
 23 18  1  0
  3 32  1  0
  8 33  1  0
  8 34  1  0
  9 35  1  0
  9 36  1  0
 10 37  1  0
 11 38  1  0
 11 39  1  0
 12 40  1  0
 12 41  1  0
 16 42  1  0
 16 43  1  0
 17 44  1  0
 17 45  1  0
 19 46  1  0
 20 47  1  0
 21 48  1  0
 22 49  1  0
 24 50  1  0
 24 51  1  0
 27 52  1  0
 28 53  1  0
 29 54  1  0
 30 55  1  0
 31 56  1  0
M  END
>  <smiles>  (35) 
O=C(Nc1nc(N2CCNCC2)nc(N2CCc3ccccc3C2)n1)c1ccccc1

>  <score_type>  (35) 
oracle

>  <origin>  (35) 
autodockgpu

>  <m_score__min__energy>  (35) 
-8.7400000000000002

>  <m_primary>  (35) 
energy

>  <rmsd>  (35) 
3.8371434671135125

>  <m_score__min__rmsd>  (35) 
3.8371434671135125

>  <meeko>  (35) 
{"free_energy": -8.73, "intermolecular_energy": -9.92, "internal_energy": -0.81, "cluster_size": 49, "cluster_id": 1, "rank_in_cluster": 19}

>  <energy>  (35) 
-8.7

>  <cluster_rmsd>  (35) 
0.38

>  <cluster>  (35) 
1

$$$$

     RDKit          3D

 56 60  0  0  0  0  0  0  0  0999 V2000
  139.5820   76.0350  222.6460 O   0  0  0  0  0  0  0  0  0  0  0  0
  140.6970   76.3390  222.1830 C   0  0  0  0  0  0  0  0  0  0  0  0
  141.5070   75.3170  221.6160 N   0  0  0  0  0  0  0  0  0  0  0  0
  141.0420   73.9750  221.5830 C   0  0  0  0  0  0  0  0  0  0  0  0
  141.0040   73.3520  220.3720 N   0  0  0  0  0  0  0  0  0  0  0  0
  140.5640   72.0780  220.3380 C   0  0  0  0  0  0  0  0  0  0  0  0
  140.5200   71.4180  219.0840 N   0  0  0  0  0  0  0  0  0  0  0  0
  140.8070   72.2070  217.9050 C   0  0  0  0  0  0  0  0  0  0  0  0
  140.5940   71.4960  216.6170 C   0  0  0  0  0  0  0  0  0  0  0  0
  140.6820   70.0530  216.7020 N   0  0  0  0  0  0  0  0  0  0  0  0
  139.8110   69.5070  217.7110 C   0  0  0  0  0  0  0  0  0  0  0  0
  140.1940   70.0190  219.0630 C   0  0  0  0  0  0  0  0  0  0  0  0
  140.1820   71.4680  221.4880 N   0  0  0  0  0  0  0  0  0  0  0  0
  140.2190   72.0830  222.6810 C   0  0  0  0  0  0  0  0  0  0  0  0
  139.8150   71.4360  223.8860 N   0  0  0  0  0  0  0  0  0  0  0  0
  138.5950   70.6480  223.8900 C   0  0  0  0  0  0  0  0  0  0  0  0
  139.0440   69.2140  224.1710 C   0  0  0  0  0  0  0  0  0  0  0  0
  139.7040   69.2650  225.5060 C   0  0  0  0  0  0  0  0  0  0  0  0
  139.5820   68.1720  226.3630 C   0  0  0  0  0  0  0  0  0  0  0  0
  140.1770   68.1670  227.6200 C   0  0  0  0  0  0  0  0  0  0  0  0
  140.8980   69.2730  228.0090 C   0  0  0  0  0  0  0  0  0  0  0  0
  141.0340   70.3770  227.1640 C   0  0  0  0  0  0  0  0  0  0  0  0
  140.4310   70.3650  225.9070 C   0  0  0  0  0  0  0  0  0  0  0  0
  140.6240   71.5750  225.0760 C   0  0  0  0  0  0  0  0  0  0  0  0
  140.6600   73.3530  222.6970 N   0  0  0  0  0  0  0  0  0  0  0  0
  141.1090   77.7360  222.2510 C   0  0  0  0  0  0  0  0  0  0  0  0
  141.4390   78.2610  223.4700 C   0  0  0  0  0  0  0  0  0  0  0  0
  141.8410   79.5710  223.6430 C   0  0  0  0  0  0  0  0  0  0  0  0
  141.9120   80.3910  222.5200 C   0  0  0  0  0  0  0  0  0  0  0  0
  141.5810   79.8770  221.2690 C   0  0  0  0  0  0  0  0  0  0  0  0
  141.1830   78.5580  221.1460 C   0  0  0  0  0  0  0  0  0  0  0  0
  142.4340   75.5460  221.2280 H   0  0  0  0  0  0  0  0  0  0  0  0
  140.1563   73.0938  217.9190 H   0  0  0  0  0  0  0  0  0  0  0  0
  141.8775   72.4562  217.9499 H   0  0  0  0  0  0  0  0  0  0  0  0
  139.5931   71.7570  216.2427 H   0  0  0  0  0  0  0  0  0  0  0  0
  141.4038   71.8182  215.9460 H   0  0  0  0  0  0  0  0  0  0  0  0
  140.3430   69.6920  215.7710 H   0  0  0  0  0  0  0  0  0  0  0  0
  138.7739   69.8013  217.4924 H   0  0  0  0  0  0  0  0  0  0  0  0
  139.9020   68.4108  217.7057 H   0  0  0  0  0  0  0  0  0  0  0  0
  139.3513   69.8493  219.7493 H   0  0  0  0  0  0  0  0  0  0  0  0
  141.1008   69.4749  219.3657 H   0  0  0  0  0  0  0  0  0  0  0  0
  137.9116   70.9993  224.6771 H   0  0  0  0  0  0  0  0  0  0  0  0
  138.0506   70.7288  222.9376 H   0  0  0  0  0  0  0  0  0  0  0  0
  138.1778   68.5364  224.1947 H   0  0  0  0  0  0  0  0  0  0  0  0
  139.7219   68.8356  223.3917 H   0  0  0  0  0  0  0  0  0  0  0  0
  139.0029   67.2951  226.0380 H   0  0  0  0  0  0  0  0  0  0  0  0
  140.0738   67.2991  228.2879 H   0  0  0  0  0  0  0  0  0  0  0  0
  141.3744   69.2878  229.0004 H   0  0  0  0  0  0  0  0  0  0  0  0
  141.6148   71.2527  227.4892 H   0  0  0  0  0  0  0  0  0  0  0  0
  140.3105   72.4672  225.6379 H   0  0  0  0  0  0  0  0  0  0  0  0
  141.6843   71.6863  224.8052 H   0  0  0  0  0  0  0  0  0  0  0  0
  141.3815   77.6093  224.3543 H   0  0  0  0  0  0  0  0  0  0  0  0
  142.0981   79.9560  224.6408 H   0  0  0  0  0  0  0  0  0  0  0  0
  142.2281   81.4398  222.6206 H   0  0  0  0  0  0  0  0  0  0  0  0
  141.6360   80.5201  220.3782 H   0  0  0  0  0  0  0  0  0  0  0  0
  140.9222   78.1596  220.1544 H   0  0  0  0  0  0  0  0  0  0  0  0
  1  2  2  0
  2  3  1  0
  3  4  1  0
  4  5  2  0
  5  6  1  0
  6  7  1  0
  7  8  1  0
  8  9  1  0
  9 10  1  0
 10 11  1  0
 11 12  1  0
  6 13  2  0
 13 14  1  0
 14 15  1  0
 15 16  1  0
 16 17  1  0
 17 18  1  0
 18 19  2  0
 19 20  1  0
 20 21  2  0
 21 22  1  0
 22 23  2  0
 23 24  1  0
 14 25  2  0
  2 26  1  0
 26 27  2  0
 27 28  1  0
 28 29  2  0
 29 30  1  0
 30 31  2  0
 25  4  1  0
 31 26  1  0
 12  7  1  0
 24 15  1  0
 23 18  1  0
  3 32  1  0
  8 33  1  0
  8 34  1  0
  9 35  1  0
  9 36  1  0
 10 37  1  0
 11 38  1  0
 11 39  1  0
 12 40  1  0
 12 41  1  0
 16 42  1  0
 16 43  1  0
 17 44  1  0
 17 45  1  0
 19 46  1  0
 20 47  1  0
 21 48  1  0
 22 49  1  0
 24 50  1  0
 24 51  1  0
 27 52  1  0
 28 53  1  0
 29 54  1  0
 30 55  1  0
 31 56  1  0
M  END
>  <smiles>  (36) 
O=C(Nc1nc(N2CCNCC2)nc(N2CCc3ccccc3C2)n1)c1ccccc1

>  <score_type>  (36) 
oracle

>  <origin>  (36) 
autodockgpu

>  <m_score__min__energy>  (36) 
-8.7400000000000002

>  <m_primary>  (36) 
energy

>  <rmsd>  (36) 
3.840556853508636

>  <m_score__min__rmsd>  (36) 
3.840556853508636

>  <meeko>  (36) 
{"free_energy": -8.72, "intermolecular_energy": -9.91, "internal_energy": -0.81, "cluster_size": 49, "cluster_id": 1, "rank_in_cluster": 23}

>  <energy>  (36) 
-8.69

>  <cluster_rmsd>  (36) 
0.37

>  <cluster>  (36) 
1

$$$$

     RDKit          3D

 56 60  0  0  0  0  0  0  0  0999 V2000
  139.4610   76.2000  222.5420 O   0  0  0  0  0  0  0  0  0  0  0  0
  140.6370   76.4130  222.1980 C   0  0  0  0  0  0  0  0  0  0  0  0
  141.4170   75.3280  221.7100 N   0  0  0  0  0  0  0  0  0  0  0  0
  140.8530   74.0280  221.6220 C   0  0  0  0  0  0  0  0  0  0  0  0
  140.6420   73.5160  220.3770 N   0  0  0  0  0  0  0  0  0  0  0  0
  140.1080   72.2810  220.2910 C   0  0  0  0  0  0  0  0  0  0  0  0
  139.8830   71.7360  219.0010 N   0  0  0  0  0  0  0  0  0  0  0  0
  139.2940   70.4170  218.9280 C   0  0  0  0  0  0  0  0  0  0  0  0
  139.2280   69.8430  217.5580 C   0  0  0  0  0  0  0  0  0  0  0  0
  139.2220   70.8240  216.4930 N   0  0  0  0  0  0  0  0  0  0  0  0
  140.3280   71.7430  216.5840 C   0  0  0  0  0  0  0  0  0  0  0  0
  140.2520   72.5240  217.8580 C   0  0  0  0  0  0  0  0  0  0  0  0
  139.8020   71.6000  221.4240 N   0  0  0  0  0  0  0  0  0  0  0  0
  140.0100   72.1060  222.6510 C   0  0  0  0  0  0  0  0  0  0  0  0
  139.6860   71.3850  223.8380 N   0  0  0  0  0  0  0  0  0  0  0  0
  138.5730   70.4530  223.8170 C   0  0  0  0  0  0  0  0  0  0  0  0
  139.1960   69.0780  224.0660 C   0  0  0  0  0  0  0  0  0  0  0  0
  139.8420   69.1780  225.4050 C   0  0  0  0  0  0  0  0  0  0  0  0
  139.8530   68.0580  226.2360 C   0  0  0  0  0  0  0  0  0  0  0  0
  140.4420   68.0960  227.4960 C   0  0  0  0  0  0  0  0  0  0  0  0
  141.0200   69.2730  227.9140 C   0  0  0  0  0  0  0  0  0  0  0  0
  141.0200   70.4060  227.0960 C   0  0  0  0  0  0  0  0  0  0  0  0
  140.4250   70.3500  225.8360 C   0  0  0  0  0  0  0  0  0  0  0  0
  140.4690   71.5940  225.0360 C   0  0  0  0  0  0  0  0  0  0  0  0
  140.5430   73.3380  222.7190 N   0  0  0  0  0  0  0  0  0  0  0  0
  141.1500   77.7730  222.3150 C   0  0  0  0  0  0  0  0  0  0  0  0
  141.3470   78.4970  221.1720 C   0  0  0  0  0  0  0  0  0  0  0  0
  141.8270   79.7920  221.1740 C   0  0  0  0  0  0  0  0  0  0  0  0
  142.1240   80.3830  222.3990 C   0  0  0  0  0  0  0  0  0  0  0  0
  141.9310   79.6630  223.5750 C   0  0  0  0  0  0  0  0  0  0  0  0
  141.4470   78.3680  223.5230 C   0  0  0  0  0  0  0  0  0  0  0  0
  142.3940   75.4810  221.4190 H   0  0  0  0  0  0  0  0  0  0  0  0
  139.8916   69.7393  219.5554 H   0  0  0  0  0  0  0  0  0  0  0  0
  138.2546   70.5205  219.2728 H   0  0  0  0  0  0  0  0  0  0  0  0
  140.1015   69.1893  217.4174 H   0  0  0  0  0  0  0  0  0  0  0  0
  138.2710   69.3047  217.4913 H   0  0  0  0  0  0  0  0  0  0  0  0
  139.3470   70.2760  215.6000 H   0  0  0  0  0  0  0  0  0  0  0  0
  141.2717   71.1783  216.5605 H   0  0  0  0  0  0  0  0  0  0  0  0
  140.2842   72.4402  215.7343 H   0  0  0  0  0  0  0  0  0  0  0  0
  141.2383   72.9717  218.0495 H   0  0  0  0  0  0  0  0  0  0  0  0
  139.4647   73.2803  217.7232 H   0  0  0  0  0  0  0  0  0  0  0  0
  137.8499   70.6979  224.6089 H   0  0  0  0  0  0  0  0  0  0  0  0
  138.0245   70.4893  222.8642 H   0  0  0  0  0  0  0  0  0  0  0  0
  138.4203   68.2980  224.0693 H   0  0  0  0  0  0  0  0  0  0  0  0
  139.9170   68.8053  223.2812 H   0  0  0  0  0  0  0  0  0  0  0  0
  139.3861   67.1248  225.8879 H   0  0  0  0  0  0  0  0  0  0  0  0
  140.4456   67.2063  228.1428 H   0  0  0  0  0  0  0  0  0  0  0  0
  141.4894   69.3227  228.9076 H   0  0  0  0  0  0  0  0  0  0  0  0
  141.4876   71.3386  227.4447 H   0  0  0  0  0  0  0  0  0  0  0  0
  140.0461   72.4265  225.6174 H   0  0  0  0  0  0  0  0  0  0  0  0
  141.5081   71.8424  224.7740 H   0  0  0  0  0  0  0  0  0  0  0  0
  141.1123   78.0262  220.2060 H   0  0  0  0  0  0  0  0  0  0  0  0
  141.9709   80.3421  220.2323 H   0  0  0  0  0  0  0  0  0  0  0  0
  142.5089   81.4128  222.4376 H   0  0  0  0  0  0  0  0  0  0  0  0
  142.1635   80.1242  224.5462 H   0  0  0  0  0  0  0  0  0  0  0  0
  141.2973   77.8061  224.4567 H   0  0  0  0  0  0  0  0  0  0  0  0
  1  2  2  0
  2  3  1  0
  3  4  1  0
  4  5  2  0
  5  6  1  0
  6  7  1  0
  7  8  1  0
  8  9  1  0
  9 10  1  0
 10 11  1  0
 11 12  1  0
  6 13  2  0
 13 14  1  0
 14 15  1  0
 15 16  1  0
 16 17  1  0
 17 18  1  0
 18 19  2  0
 19 20  1  0
 20 21  2  0
 21 22  1  0
 22 23  2  0
 23 24  1  0
 14 25  2  0
  2 26  1  0
 26 27  2  0
 27 28  1  0
 28 29  2  0
 29 30  1  0
 30 31  2  0
 25  4  1  0
 31 26  1  0
 12  7  1  0
 24 15  1  0
 23 18  1  0
  3 32  1  0
  8 33  1  0
  8 34  1  0
  9 35  1  0
  9 36  1  0
 10 37  1  0
 11 38  1  0
 11 39  1  0
 12 40  1  0
 12 41  1  0
 16 42  1  0
 16 43  1  0
 17 44  1  0
 17 45  1  0
 19 46  1  0
 20 47  1  0
 21 48  1  0
 22 49  1  0
 24 50  1  0
 24 51  1  0
 27 52  1  0
 28 53  1  0
 29 54  1  0
 30 55  1  0
 31 56  1  0
M  END
>  <smiles>  (37) 
O=C(Nc1nc(N2CCNCC2)nc(N2CCc3ccccc3C2)n1)c1ccccc1

>  <score_type>  (37) 
oracle

>  <origin>  (37) 
autodockgpu

>  <m_score__min__energy>  (37) 
-8.7400000000000002

>  <m_primary>  (37) 
energy

>  <rmsd>  (37) 
3.83820330838151

>  <m_score__min__rmsd>  (37) 
3.83820330838151

>  <meeko>  (37) 
{"free_energy": -8.65, "intermolecular_energy": -9.84, "internal_energy": -0.82, "cluster_size": 49, "cluster_id": 1, "rank_in_cluster": 42}

>  <energy>  (37) 
-8.69

>  <cluster_rmsd>  (37) 
0.39

>  <cluster>  (37) 
1

$$$$

     RDKit          3D

 56 60  0  0  0  0  0  0  0  0999 V2000
  139.5900   76.0180  222.6770 O   0  0  0  0  0  0  0  0  0  0  0  0
  140.6940   76.3460  222.2050 C   0  0  0  0  0  0  0  0  0  0  0  0
  141.5170   75.3420  221.6240 N   0  0  0  0  0  0  0  0  0  0  0  0
  141.0780   73.9920  221.5890 C   0  0  0  0  0  0  0  0  0  0  0  0
  141.0800   73.3610  220.3810 N   0  0  0  0  0  0  0  0  0  0  0  0
  140.6640   72.0780  220.3460 C   0  0  0  0  0  0  0  0  0  0  0  0
  140.6600   71.4110  219.0950 N   0  0  0  0  0  0  0  0  0  0  0  0
  141.1500   70.0490  219.0650 C   0  0  0  0  0  0  0  0  0  0  0  0
  141.2630   69.4620  217.7040 C   0  0  0  0  0  0  0  0  0  0  0  0
  140.3930   70.0620  216.7140 N   0  0  0  0  0  0  0  0  0  0  0  0
  140.5460   71.4930  216.6410 C   0  0  0  0  0  0  0  0  0  0  0  0
  140.1730   72.1230  217.9460 C   0  0  0  0  0  0  0  0  0  0  0  0
  140.2660   71.4690  221.4900 N   0  0  0  0  0  0  0  0  0  0  0  0
  140.2660   72.0920  222.6800 C   0  0  0  0  0  0  0  0  0  0  0  0
  139.8460   71.4440  223.8800 N   0  0  0  0  0  0  0  0  0  0  0  0
  138.6190   70.6670  223.8710 C   0  0  0  0  0  0  0  0  0  0  0  0
  139.0530   69.2280  224.1510 C   0  0  0  0  0  0  0  0  0  0  0  0
  139.7030   69.2680  225.4910 C   0  0  0  0  0  0  0  0  0  0  0  0
  139.5630   68.1740  226.3440 C   0  0  0  0  0  0  0  0  0  0  0  0
  140.1480   68.1600  227.6060 C   0  0  0  0  0  0  0  0  0  0  0  0
  140.8760   69.2580  228.0040 C   0  0  0  0  0  0  0  0  0  0  0  0
  141.0280   70.3640  227.1640 C   0  0  0  0  0  0  0  0  0  0  0  0
  140.4360   70.3610  225.9020 C   0  0  0  0  0  0  0  0  0  0  0  0
  140.6460   71.5720  225.0770 C   0  0  0  0  0  0  0  0  0  0  0  0
  140.6820   73.3690  222.6990 N   0  0  0  0  0  0  0  0  0  0  0  0
  141.0790   77.7500  222.2760 C   0  0  0  0  0  0  0  0  0  0  0  0
  141.4610   78.2620  223.4850 C   0  0  0  0  0  0  0  0  0  0  0  0
  141.8440   79.5770  223.6600 C   0  0  0  0  0  0  0  0  0  0  0  0
  141.8390   80.4170  222.5490 C   0  0  0  0  0  0  0  0  0  0  0  0
  141.4540   79.9160  221.3090 C   0  0  0  0  0  0  0  0  0  0  0  0
  141.0790   78.5910  221.1830 C   0  0  0  0  0  0  0  0  0  0  0  0
  142.4360   75.5910  221.2280 H   0  0  0  0  0  0  0  0  0  0  0  0
  142.1469   70.0327  219.5296 H   0  0  0  0  0  0  0  0  0  0  0  0
  140.4115   69.4399  219.6069 H   0  0  0  0  0  0  0  0  0  0  0  0
  142.3025   69.5810  217.3644 H   0  0  0  0  0  0  0  0  0  0  0  0
  140.9554   68.4096  217.7921 H   0  0  0  0  0  0  0  0  0  0  0  0
  140.7050   69.6700  215.7860 H   0  0  0  0  0  0  0  0  0  0  0  0
  141.5936   71.7344  216.4079 H   0  0  0  0  0  0  0  0  0  0  0  0
  139.8848   71.8836  215.8535 H   0  0  0  0  0  0  0  0  0  0  0  0
  140.5858   73.1424  217.9693 H   0  0  0  0  0  0  0  0  0  0  0  0
  139.0746   72.1115  218.0044 H   0  0  0  0  0  0  0  0  0  0  0  0
  137.9321   71.0218  224.6535 H   0  0  0  0  0  0  0  0  0  0  0  0
  138.0834   70.7559  222.9143 H   0  0  0  0  0  0  0  0  0  0  0  0
  138.1805   68.5582  224.1656 H   0  0  0  0  0  0  0  0  0  0  0  0
  139.7338   68.8464  223.3758 H   0  0  0  0  0  0  0  0  0  0  0  0
  138.9777   67.3038  226.0121 H   0  0  0  0  0  0  0  0  0  0  0  0
  140.0314   67.2913  228.2706 H   0  0  0  0  0  0  0  0  0  0  0  0
  141.3454   69.2649  228.9988 H   0  0  0  0  0  0  0  0  0  0  0  0
  141.6127   71.2340  227.4973 H   0  0  0  0  0  0  0  0  0  0  0  0
  140.3353   72.4648  225.6394 H   0  0  0  0  0  0  0  0  0  0  0  0
  141.7094   71.6753  224.8154 H   0  0  0  0  0  0  0  0  0  0  0  0
  141.4633   77.5947  224.3595 H   0  0  0  0  0  0  0  0  0  0  0  0
  142.1448   79.9510  224.6498 H   0  0  0  0  0  0  0  0  0  0  0  0
  142.1378   81.4707  222.6511 H   0  0  0  0  0  0  0  0  0  0  0  0
  141.4480   80.5748  220.4281 H   0  0  0  0  0  0  0  0  0  0  0  0
  140.7770   78.2031  220.1990 H   0  0  0  0  0  0  0  0  0  0  0  0
  1  2  2  0
  2  3  1  0
  3  4  1  0
  4  5  2  0
  5  6  1  0
  6  7  1  0
  7  8  1  0
  8  9  1  0
  9 10  1  0
 10 11  1  0
 11 12  1  0
  6 13  2  0
 13 14  1  0
 14 15  1  0
 15 16  1  0
 16 17  1  0
 17 18  1  0
 18 19  2  0
 19 20  1  0
 20 21  2  0
 21 22  1  0
 22 23  2  0
 23 24  1  0
 14 25  2  0
  2 26  1  0
 26 27  2  0
 27 28  1  0
 28 29  2  0
 29 30  1  0
 30 31  2  0
 25  4  1  0
 31 26  1  0
 12  7  1  0
 24 15  1  0
 23 18  1  0
  3 32  1  0
  8 33  1  0
  8 34  1  0
  9 35  1  0
  9 36  1  0
 10 37  1  0
 11 38  1  0
 11 39  1  0
 12 40  1  0
 12 41  1  0
 16 42  1  0
 16 43  1  0
 17 44  1  0
 17 45  1  0
 19 46  1  0
 20 47  1  0
 21 48  1  0
 22 49  1  0
 24 50  1  0
 24 51  1  0
 27 52  1  0
 28 53  1  0
 29 54  1  0
 30 55  1  0
 31 56  1  0
M  END
>  <smiles>  (38) 
O=C(Nc1nc(N2CCNCC2)nc(N2CCc3ccccc3C2)n1)c1ccccc1

>  <score_type>  (38) 
oracle

>  <origin>  (38) 
autodockgpu

>  <m_score__min__energy>  (38) 
-8.7400000000000002

>  <m_primary>  (38) 
energy

>  <rmsd>  (38) 
3.8404123225601374

>  <m_score__min__rmsd>  (38) 
3.8404123225601374

>  <meeko>  (38) 
{"free_energy": -8.74, "intermolecular_energy": -9.93, "internal_energy": -0.8, "cluster_size": 49, "cluster_id": 1, "rank_in_cluster": 3}

>  <energy>  (38) 
-8.68

>  <cluster_rmsd>  (38) 
0.57

>  <cluster>  (38) 
1

$$$$

     RDKit          3D

 56 60  0  0  0  0  0  0  0  0999 V2000
  139.5730   76.0660  222.6470 O   0  0  0  0  0  0  0  0  0  0  0  0
  140.6970   76.3510  222.1950 C   0  0  0  0  0  0  0  0  0  0  0  0
  141.4910   75.3170  221.6280 N   0  0  0  0  0  0  0  0  0  0  0  0
  141.0010   73.9850  221.5840 C   0  0  0  0  0  0  0  0  0  0  0  0
  140.9110   73.3870  220.3630 N   0  0  0  0  0  0  0  0  0  0  0  0
  140.4470   72.1210  220.3180 C   0  0  0  0  0  0  0  0  0  0  0  0
  140.3480   71.4880  219.0530 N   0  0  0  0  0  0  0  0  0  0  0  0
  140.6390   72.2890  217.8830 C   0  0  0  0  0  0  0  0  0  0  0  0
  140.3680   71.6120  216.5880 C   0  0  0  0  0  0  0  0  0  0  0  0
  140.4030   70.1660  216.6440 N   0  0  0  0  0  0  0  0  0  0  0  0
  139.5350   69.6330  217.6620 C   0  0  0  0  0  0  0  0  0  0  0  0
  139.9690   70.1030  219.0150 C   0  0  0  0  0  0  0  0  0  0  0  0
  140.0920   71.4960  221.4680 N   0  0  0  0  0  0  0  0  0  0  0  0
  140.1800   72.0850  222.6710 C   0  0  0  0  0  0  0  0  0  0  0  0
  139.8050   71.4200  223.8760 N   0  0  0  0  0  0  0  0  0  0  0  0
  138.6100   70.5960  223.8850 C   0  0  0  0  0  0  0  0  0  0  0  0
  139.1050   69.1740  224.1560 C   0  0  0  0  0  0  0  0  0  0  0  0
  139.7720   69.2400  225.4870 C   0  0  0  0  0  0  0  0  0  0  0  0
  139.6890   68.1400  226.3400 C   0  0  0  0  0  0  0  0  0  0  0  0
  140.2930   68.1480  227.5930 C   0  0  0  0  0  0  0  0  0  0  0  0
  140.9830   69.2740  227.9810 C   0  0  0  0  0  0  0  0  0  0  0  0
  141.0780   70.3860  227.1410 C   0  0  0  0  0  0  0  0  0  0  0  0
  140.4670   70.3610  225.8880 C   0  0  0  0  0  0  0  0  0  0  0  0
  140.6170   71.5790  225.0620 C   0  0  0  0  0  0  0  0  0  0  0  0
  140.6450   73.3460  222.6980 N   0  0  0  0  0  0  0  0  0  0  0  0
  141.1350   77.7390  222.2740 C   0  0  0  0  0  0  0  0  0  0  0  0
  141.4430   78.2580  223.5010 C   0  0  0  0  0  0  0  0  0  0  0  0
  141.8670   79.5590  223.6850 C   0  0  0  0  0  0  0  0  0  0  0  0
  141.9840   80.3780  222.5640 C   0  0  0  0  0  0  0  0  0  0  0  0
  141.6750   79.8700  221.3050 C   0  0  0  0  0  0  0  0  0  0  0  0
  141.2550   78.5590  221.1710 C   0  0  0  0  0  0  0  0  0  0  0  0
  142.4250   75.5300  221.2480 H   0  0  0  0  0  0  0  0  0  0  0  0
  140.0245   73.2002  217.9292 H   0  0  0  0  0  0  0  0  0  0  0  0
  141.7191   72.4960  217.9071 H   0  0  0  0  0  0  0  0  0  0  0  0
  139.3690   71.9177  216.2437 H   0  0  0  0  0  0  0  0  0  0  0  0
  141.1730   71.9166  215.9030 H   0  0  0  0  0  0  0  0  0  0  0  0
  140.0300   69.8360  215.7140 H   0  0  0  0  0  0  0  0  0  0  0  0
  138.5052   69.9709  217.4738 H   0  0  0  0  0  0  0  0  0  0  0  0
  139.5831   68.5344  217.6331 H   0  0  0  0  0  0  0  0  0  0  0  0
  139.1368   69.9516  219.7182 H   0  0  0  0  0  0  0  0  0  0  0  0
  140.8607   69.5190  219.2865 H   0  0  0  0  0  0  0  0  0  0  0  0
  137.9221   70.9228  224.6788 H   0  0  0  0  0  0  0  0  0  0  0  0
  138.0562   70.6648  222.9371 H   0  0  0  0  0  0  0  0  0  0  0  0
  138.2603   68.4699  224.1822 H   0  0  0  0  0  0  0  0  0  0  0  0
  139.7887   68.8197  223.3704 H   0  0  0  0  0  0  0  0  0  0  0  0
  139.1343   67.2473  226.0152 H   0  0  0  0  0  0  0  0  0  0  0  0
  140.2209   67.2749  228.2582 H   0  0  0  0  0  0  0  0  0  0  0  0
  141.4673   69.2986  228.9683 H   0  0  0  0  0  0  0  0  0  0  0  0
  141.6328   71.2782  227.4669 H   0  0  0  0  0  0  0  0  0  0  0  0
  140.2795   72.4586  225.6298 H   0  0  0  0  0  0  0  0  0  0  0  0
  141.6716   71.7244  224.7852 H   0  0  0  0  0  0  0  0  0  0  0  0
  141.3484   77.6081  224.3834 H   0  0  0  0  0  0  0  0  0  0  0  0
  142.1060   79.9386  224.6894 H   0  0  0  0  0  0  0  0  0  0  0  0
  142.3186   81.4202  222.6730 H   0  0  0  0  0  0  0  0  0  0  0  0
  141.7650   80.5118  220.4162 H   0  0  0  0  0  0  0  0  0  0  0  0
  141.0137   78.1653  220.1726 H   0  0  0  0  0  0  0  0  0  0  0  0
  1  2  2  0
  2  3  1  0
  3  4  1  0
  4  5  2  0
  5  6  1  0
  6  7  1  0
  7  8  1  0
  8  9  1  0
  9 10  1  0
 10 11  1  0
 11 12  1  0
  6 13  2  0
 13 14  1  0
 14 15  1  0
 15 16  1  0
 16 17  1  0
 17 18  1  0
 18 19  2  0
 19 20  1  0
 20 21  2  0
 21 22  1  0
 22 23  2  0
 23 24  1  0
 14 25  2  0
  2 26  1  0
 26 27  2  0
 27 28  1  0
 28 29  2  0
 29 30  1  0
 30 31  2  0
 25  4  1  0
 31 26  1  0
 12  7  1  0
 24 15  1  0
 23 18  1  0
  3 32  1  0
  8 33  1  0
  8 34  1  0
  9 35  1  0
  9 36  1  0
 10 37  1  0
 11 38  1  0
 11 39  1  0
 12 40  1  0
 12 41  1  0
 16 42  1  0
 16 43  1  0
 17 44  1  0
 17 45  1  0
 19 46  1  0
 20 47  1  0
 21 48  1  0
 22 49  1  0
 24 50  1  0
 24 51  1  0
 27 52  1  0
 28 53  1  0
 29 54  1  0
 30 55  1  0
 31 56  1  0
M  END
>  <smiles>  (39) 
O=C(Nc1nc(N2CCNCC2)nc(N2CCc3ccccc3C2)n1)c1ccccc1

>  <score_type>  (39) 
oracle

>  <origin>  (39) 
autodockgpu

>  <m_score__min__energy>  (39) 
-8.7400000000000002

>  <m_primary>  (39) 
energy

>  <rmsd>  (39) 
3.84029010127689

>  <m_score__min__rmsd>  (39) 
3.84029010127689

>  <meeko>  (39) 
{"free_energy": -8.72, "intermolecular_energy": -9.91, "internal_energy": -0.81, "cluster_size": 49, "cluster_id": 1, "rank_in_cluster": 26}

>  <energy>  (39) 
-8.68

>  <cluster_rmsd>  (39) 
0.33

>  <cluster>  (39) 
1

$$$$

     RDKit          3D

 56 60  0  0  0  0  0  0  0  0999 V2000
  139.5400   76.0890  222.6320 O   0  0  0  0  0  0  0  0  0  0  0  0
  140.6720   76.3730  222.2010 C   0  0  0  0  0  0  0  0  0  0  0  0
  141.4760   75.3380  221.6490 N   0  0  0  0  0  0  0  0  0  0  0  0
  140.9870   74.0070  221.5950 C   0  0  0  0  0  0  0  0  0  0  0  0
  140.9000   73.4170  220.3700 N   0  0  0  0  0  0  0  0  0  0  0  0
  140.4360   72.1510  220.3170 C   0  0  0  0  0  0  0  0  0  0  0  0
  140.3410   71.5260  219.0480 N   0  0  0  0  0  0  0  0  0  0  0  0
  140.6170   72.3380  217.8830 C   0  0  0  0  0  0  0  0  0  0  0  0
  140.3510   71.6670  216.5830 C   0  0  0  0  0  0  0  0  0  0  0  0
  140.4040   70.2210  216.6290 N   0  0  0  0  0  0  0  0  0  0  0  0
  139.5460   69.6700  217.6470 C   0  0  0  0  0  0  0  0  0  0  0  0
  139.9790   70.1360  219.0010 C   0  0  0  0  0  0  0  0  0  0  0  0
  140.0780   71.5180  221.4620 N   0  0  0  0  0  0  0  0  0  0  0  0
  140.1640   72.1000  222.6690 C   0  0  0  0  0  0  0  0  0  0  0  0
  139.7850   71.4280  223.8690 N   0  0  0  0  0  0  0  0  0  0  0  0
  138.6040   70.5840  223.8630 C   0  0  0  0  0  0  0  0  0  0  0  0
  139.1200   69.1710  224.1390 C   0  0  0  0  0  0  0  0  0  0  0  0
  139.7710   69.2460  225.4770 C   0  0  0  0  0  0  0  0  0  0  0  0
  139.6960   68.1440  226.3290 C   0  0  0  0  0  0  0  0  0  0  0  0
  140.2850   68.1610  227.5890 C   0  0  0  0  0  0  0  0  0  0  0  0
  140.9510   69.2980  227.9860 C   0  0  0  0  0  0  0  0  0  0  0  0
  141.0380   70.4120  227.1470 C   0  0  0  0  0  0  0  0  0  0  0  0
  140.4420   70.3780  225.8880 C   0  0  0  0  0  0  0  0  0  0  0  0
  140.5810   71.6000  225.0640 C   0  0  0  0  0  0  0  0  0  0  0  0
  140.6280   73.3610  222.7050 N   0  0  0  0  0  0  0  0  0  0  0  0
  141.1090   77.7610  222.2880 C   0  0  0  0  0  0  0  0  0  0  0  0
  141.4540   78.2610  223.5140 C   0  0  0  0  0  0  0  0  0  0  0  0
  141.8800   79.5610  223.7040 C   0  0  0  0  0  0  0  0  0  0  0  0
  141.9610   80.3970  222.5940 C   0  0  0  0  0  0  0  0  0  0  0  0
  141.6150   79.9080  221.3370 C   0  0  0  0  0  0  0  0  0  0  0  0
  141.1930   78.5990  221.1960 C   0  0  0  0  0  0  0  0  0  0  0  0
  142.4180   75.5510  221.2870 H   0  0  0  0  0  0  0  0  0  0  0  0
  139.9905   73.2405  217.9377 H   0  0  0  0  0  0  0  0  0  0  0  0
  141.6945   72.5584  217.9051 H   0  0  0  0  0  0  0  0  0  0  0  0
  139.3475   71.9629  216.2432 H   0  0  0  0  0  0  0  0  0  0  0  0
  141.1502   71.9865  215.8980 H   0  0  0  0  0  0  0  0  0  0  0  0
  140.0310   69.8930  215.6980 H   0  0  0  0  0  0  0  0  0  0  0  0
  138.5114   69.9963  217.4649 H   0  0  0  0  0  0  0  0  0  0  0  0
  139.6076   68.5723  217.6104 H   0  0  0  0  0  0  0  0  0  0  0  0
  139.1514   69.9692  219.7062 H   0  0  0  0  0  0  0  0  0  0  0  0
  140.8793   69.5615  219.2646 H   0  0  0  0  0  0  0  0  0  0  0  0
  137.9012   70.8984  224.6486 H   0  0  0  0  0  0  0  0  0  0  0  0
  138.0603   70.6442  222.9087 H   0  0  0  0  0  0  0  0  0  0  0  0
  138.2870   68.4527  224.1553 H   0  0  0  0  0  0  0  0  0  0  0  0
  139.8187   68.8297  223.3610 H   0  0  0  0  0  0  0  0  0  0  0  0
  139.1598   67.2426  225.9974 H   0  0  0  0  0  0  0  0  0  0  0  0
  140.2200   67.2861  228.2526 H   0  0  0  0  0  0  0  0  0  0  0  0
  141.4223   69.3303  228.9794 H   0  0  0  0  0  0  0  0  0  0  0  0
  141.5751   71.3126  227.4793 H   0  0  0  0  0  0  0  0  0  0  0  0
  140.2224   72.4733  225.6285 H   0  0  0  0  0  0  0  0  0  0  0  0
  141.6361   71.7636  224.7993 H   0  0  0  0  0  0  0  0  0  0  0  0
  141.3891   77.5970  224.3886 H   0  0  0  0  0  0  0  0  0  0  0  0
  142.1483   79.9262  224.7063 H   0  0  0  0  0  0  0  0  0  0  0  0
  142.2965   81.4382  222.7092 H   0  0  0  0  0  0  0  0  0  0  0  0
  141.6775   80.5634  220.4558 H   0  0  0  0  0  0  0  0  0  0  0  0
  140.9206   78.2209  220.1996 H   0  0  0  0  0  0  0  0  0  0  0  0
  1  2  2  0
  2  3  1  0
  3  4  1  0
  4  5  2  0
  5  6  1  0
  6  7  1  0
  7  8  1  0
  8  9  1  0
  9 10  1  0
 10 11  1  0
 11 12  1  0
  6 13  2  0
 13 14  1  0
 14 15  1  0
 15 16  1  0
 16 17  1  0
 17 18  1  0
 18 19  2  0
 19 20  1  0
 20 21  2  0
 21 22  1  0
 22 23  2  0
 23 24  1  0
 14 25  2  0
  2 26  1  0
 26 27  2  0
 27 28  1  0
 28 29  2  0
 29 30  1  0
 30 31  2  0
 25  4  1  0
 31 26  1  0
 12  7  1  0
 24 15  1  0
 23 18  1  0
  3 32  1  0
  8 33  1  0
  8 34  1  0
  9 35  1  0
  9 36  1  0
 10 37  1  0
 11 38  1  0
 11 39  1  0
 12 40  1  0
 12 41  1  0
 16 42  1  0
 16 43  1  0
 17 44  1  0
 17 45  1  0
 19 46  1  0
 20 47  1  0
 21 48  1  0
 22 49  1  0
 24 50  1  0
 24 51  1  0
 27 52  1  0
 28 53  1  0
 29 54  1  0
 30 55  1  0
 31 56  1  0
M  END
>  <smiles>  (40) 
O=C(Nc1nc(N2CCNCC2)nc(N2CCc3ccccc3C2)n1)c1ccccc1

>  <score_type>  (40) 
oracle

>  <origin>  (40) 
autodockgpu

>  <m_score__min__energy>  (40) 
-8.7400000000000002

>  <m_primary>  (40) 
energy

>  <rmsd>  (40) 
3.841208579361991

>  <m_score__min__rmsd>  (40) 
3.841208579361991

>  <meeko>  (40) 
{"free_energy": -8.72, "intermolecular_energy": -9.91, "internal_energy": -0.82, "cluster_size": 49, "cluster_id": 1, "rank_in_cluster": 25}

>  <energy>  (40) 
-8.67

>  <cluster_rmsd>  (40) 
0.31

>  <cluster>  (40) 
1

$$$$

     RDKit          3D

 56 60  0  0  0  0  0  0  0  0999 V2000
  139.5810   76.0710  222.6740 O   0  0  0  0  0  0  0  0  0  0  0  0
  140.6990   76.3610  222.2110 C   0  0  0  0  0  0  0  0  0  0  0  0
  141.4910   75.3300  221.6340 N   0  0  0  0  0  0  0  0  0  0  0  0
  141.0060   73.9970  221.5940 C   0  0  0  0  0  0  0  0  0  0  0  0
  140.9230   73.3930  220.3750 N   0  0  0  0  0  0  0  0  0  0  0  0
  140.4640   72.1260  220.3340 C   0  0  0  0  0  0  0  0  0  0  0  0
  140.3730   71.4870  219.0710 N   0  0  0  0  0  0  0  0  0  0  0  0
  140.2130   70.0490  219.0620 C   0  0  0  0  0  0  0  0  0  0  0  0
  140.2790   69.4280  217.7130 C   0  0  0  0  0  0  0  0  0  0  0  0
  139.9380   70.3160  216.6220 N   0  0  0  0  0  0  0  0  0  0  0  0
  140.7120   71.5300  216.6370 C   0  0  0  0  0  0  0  0  0  0  0  0
  140.4450   72.3030  217.8900 C   0  0  0  0  0  0  0  0  0  0  0  0
  140.1050   71.5040  221.4840 N   0  0  0  0  0  0  0  0  0  0  0  0
  140.1860   72.0990  222.6850 C   0  0  0  0  0  0  0  0  0  0  0  0
  139.8070   71.4380  223.8910 N   0  0  0  0  0  0  0  0  0  0  0  0
  138.6010   70.6300  223.9050 C   0  0  0  0  0  0  0  0  0  0  0  0
  139.0790   69.2010  224.1730 C   0  0  0  0  0  0  0  0  0  0  0  0
  139.7530   69.2570  225.5000 C   0  0  0  0  0  0  0  0  0  0  0  0
  139.6590   68.1580  226.3530 C   0  0  0  0  0  0  0  0  0  0  0  0
  140.2680   68.1570  227.6040 C   0  0  0  0  0  0  0  0  0  0  0  0
  140.9740   69.2740  227.9900 C   0  0  0  0  0  0  0  0  0  0  0  0
  141.0810   70.3840  227.1500 C   0  0  0  0  0  0  0  0  0  0  0  0
  140.4640   70.3680  225.8990 C   0  0  0  0  0  0  0  0  0  0  0  0
  140.6270   71.5850  225.0730 C   0  0  0  0  0  0  0  0  0  0  0  0
  140.6460   73.3620  222.7090 N   0  0  0  0  0  0  0  0  0  0  0  0
  141.1320   77.7510  222.2870 C   0  0  0  0  0  0  0  0  0  0  0  0
  141.4650   78.2650  223.5100 C   0  0  0  0  0  0  0  0  0  0  0  0
  141.8870   79.5680  223.6900 C   0  0  0  0  0  0  0  0  0  0  0  0
  141.9760   80.3920  222.5710 C   0  0  0  0  0  0  0  0  0  0  0  0
  141.6430   79.8880  221.3170 C   0  0  0  0  0  0  0  0  0  0  0  0
  141.2250   78.5760  221.1860 C   0  0  0  0  0  0  0  0  0  0  0  0
  142.4200   75.5470  221.2450 H   0  0  0  0  0  0  0  0  0  0  0  0
  141.0101   69.6111  219.6808 H   0  0  0  0  0  0  0  0  0  0  0  0
  139.2043   69.8449  219.4504 H   0  0  0  0  0  0  0  0  0  0  0  0
  141.3051   69.0657  217.5522 H   0  0  0  0  0  0  0  0  0  0  0  0
  139.5299   68.6226  217.7043 H   0  0  0  0  0  0  0  0  0  0  0  0
  140.1940   69.7960  215.7400 H   0  0  0  0  0  0  0  0  0  0  0  0
  141.7817   71.2785  216.5872 H   0  0  0  0  0  0  0  0  0  0  0  0
  140.4278   72.1453  215.7706 H   0  0  0  0  0  0  0  0  0  0  0  0
  141.2538   73.0364  218.0240 H   0  0  0  0  0  0  0  0  0  0  0  0
  139.4607   72.7790  217.7691 H   0  0  0  0  0  0  0  0  0  0  0  0
  137.9212   70.9653  224.7021 H   0  0  0  0  0  0  0  0  0  0  0  0
  138.0435   70.7068  222.9598 H   0  0  0  0  0  0  0  0  0  0  0  0
  138.2253   68.5079  224.2029 H   0  0  0  0  0  0  0  0  0  0  0  0
  139.7543   68.8386  223.3839 H   0  0  0  0  0  0  0  0  0  0  0  0
  139.0913   67.2729  226.0300 H   0  0  0  0  0  0  0  0  0  0  0  0
  140.1873   67.2844  228.2688 H   0  0  0  0  0  0  0  0  0  0  0  0
  141.4615   69.2923  228.9759 H   0  0  0  0  0  0  0  0  0  0  0  0
  141.6499   71.2681  227.4735 H   0  0  0  0  0  0  0  0  0  0  0  0
  140.3045   72.4687  225.6431 H   0  0  0  0  0  0  0  0  0  0  0  0
  141.6822   71.7162  224.7913 H   0  0  0  0  0  0  0  0  0  0  0  0
  141.3934   77.6104  224.3911 H   0  0  0  0  0  0  0  0  0  0  0  0
  142.1458   79.9446  224.6906 H   0  0  0  0  0  0  0  0  0  0  0  0
  142.3076   81.4354  222.6775 H   0  0  0  0  0  0  0  0  0  0  0  0
  141.7123   80.5338  220.4292 H   0  0  0  0  0  0  0  0  0  0  0  0
  140.9636   78.1859  220.1913 H   0  0  0  0  0  0  0  0  0  0  0  0
  1  2  2  0
  2  3  1  0
  3  4  1  0
  4  5  2  0
  5  6  1  0
  6  7  1  0
  7  8  1  0
  8  9  1  0
  9 10  1  0
 10 11  1  0
 11 12  1  0
  6 13  2  0
 13 14  1  0
 14 15  1  0
 15 16  1  0
 16 17  1  0
 17 18  1  0
 18 19  2  0
 19 20  1  0
 20 21  2  0
 21 22  1  0
 22 23  2  0
 23 24  1  0
 14 25  2  0
  2 26  1  0
 26 27  2  0
 27 28  1  0
 28 29  2  0
 29 30  1  0
 30 31  2  0
 25  4  1  0
 31 26  1  0
 12  7  1  0
 24 15  1  0
 23 18  1  0
  3 32  1  0
  8 33  1  0
  8 34  1  0
  9 35  1  0
  9 36  1  0
 10 37  1  0
 11 38  1  0
 11 39  1  0
 12 40  1  0
 12 41  1  0
 16 42  1  0
 16 43  1  0
 17 44  1  0
 17 45  1  0
 19 46  1  0
 20 47  1  0
 21 48  1  0
 22 49  1  0
 24 50  1  0
 24 51  1  0
 27 52  1  0
 28 53  1  0
 29 54  1  0
 30 55  1  0
 31 56  1  0
M  END
>  <smiles>  (41) 
O=C(Nc1nc(N2CCNCC2)nc(N2CCc3ccccc3C2)n1)c1ccccc1

>  <score_type>  (41) 
oracle

>  <origin>  (41) 
autodockgpu

>  <m_score__min__energy>  (41) 
-8.7400000000000002

>  <m_primary>  (41) 
energy

>  <rmsd>  (41) 
3.839410337373221

>  <m_score__min__rmsd>  (41) 
3.839410337373221

>  <meeko>  (41) 
{"free_energy": -8.73, "intermolecular_energy": -9.93, "internal_energy": -0.81, "cluster_size": 49, "cluster_id": 1, "rank_in_cluster": 10}

>  <energy>  (41) 
-8.67

>  <cluster_rmsd>  (41) 
0.87

>  <cluster>  (41) 
1

$$$$

     RDKit          3D

 56 60  0  0  0  0  0  0  0  0999 V2000
  139.6190   75.9500  222.7130 O   0  0  0  0  0  0  0  0  0  0  0  0
  140.7120   76.2940  222.2270 C   0  0  0  0  0  0  0  0  0  0  0  0
  141.5380   75.3040  221.6260 N   0  0  0  0  0  0  0  0  0  0  0  0
  141.1130   73.9500  221.5860 C   0  0  0  0  0  0  0  0  0  0  0  0
  141.1540   73.3130  220.3820 N   0  0  0  0  0  0  0  0  0  0  0  0
  140.7520   72.0260  220.3420 C   0  0  0  0  0  0  0  0  0  0  0  0
  140.7900   71.3510  219.0950 N   0  0  0  0  0  0  0  0  0  0  0  0
  141.5760   70.1390  219.0170 C   0  0  0  0  0  0  0  0  0  0  0  0
  141.6970   69.5680  217.6500 C   0  0  0  0  0  0  0  0  0  0  0  0
  140.6270   69.9330  216.7460 N   0  0  0  0  0  0  0  0  0  0  0  0
  140.4380   71.3580  216.6630 C   0  0  0  0  0  0  0  0  0  0  0  0
  140.0500   71.9100  217.9980 C   0  0  0  0  0  0  0  0  0  0  0  0
  140.3290   71.4180  221.4790 N   0  0  0  0  0  0  0  0  0  0  0  0
  140.2890   72.0470  222.6640 C   0  0  0  0  0  0  0  0  0  0  0  0
  139.8430   71.4020  223.8550 N   0  0  0  0  0  0  0  0  0  0  0  0
  138.6410   70.5880  223.8100 C   0  0  0  0  0  0  0  0  0  0  0  0
  139.1070   69.1660  224.1260 C   0  0  0  0  0  0  0  0  0  0  0  0
  139.7020   69.2430  225.4900 C   0  0  0  0  0  0  0  0  0  0  0  0
  139.5630   68.1550  226.3510 C   0  0  0  0  0  0  0  0  0  0  0  0
  140.0980   68.1740  227.6340 C   0  0  0  0  0  0  0  0  0  0  0  0
  140.7770   69.2990  228.0450 C   0  0  0  0  0  0  0  0  0  0  0  0
  140.9290   70.3980  227.1970 C   0  0  0  0  0  0  0  0  0  0  0  0
  140.3860   70.3630  225.9130 C   0  0  0  0  0  0  0  0  0  0  0  0
  140.5920   71.5690  225.0810 C   0  0  0  0  0  0  0  0  0  0  0  0
  140.6930   73.3290  222.6870 N   0  0  0  0  0  0  0  0  0  0  0  0
  141.0830   77.7020  222.3040 C   0  0  0  0  0  0  0  0  0  0  0  0
  141.0570   78.4470  221.1570 C   0  0  0  0  0  0  0  0  0  0  0  0
  141.3890   79.7870  221.1220 C   0  0  0  0  0  0  0  0  0  0  0  0
  141.7690   80.4030  222.3120 C   0  0  0  0  0  0  0  0  0  0  0  0
  141.8020   79.6630  223.4910 C   0  0  0  0  0  0  0  0  0  0  0  0
  141.4600   78.3220  223.4760 C   0  0  0  0  0  0  0  0  0  0  0  0
  142.4480   75.5660  221.2170 H   0  0  0  0  0  0  0  0  0  0  0  0
  142.5878   70.3616  219.3868 H   0  0  0  0  0  0  0  0  0  0  0  0
  141.0510   69.3868  219.6242 H   0  0  0  0  0  0  0  0  0  0  0  0
  142.6461   69.9158  217.2160 H   0  0  0  0  0  0  0  0  0  0  0  0
  141.6486   68.4750  217.7640 H   0  0  0  0  0  0  0  0  0  0  0  0
  140.9360   69.6050  215.7920 H   0  0  0  0  0  0  0  0  0  0  0  0
  141.3758   71.8297  216.3342 H   0  0  0  0  0  0  0  0  0  0  0  0
  139.6354   71.5706  215.9415 H   0  0  0  0  0  0  0  0  0  0  0  0
  140.2171   72.9972  217.9854 H   0  0  0  0  0  0  0  0  0  0  0  0
  138.9938   71.6476  218.1579 H   0  0  0  0  0  0  0  0  0  0  0  0
  137.9143   70.9315  224.5609 H   0  0  0  0  0  0  0  0  0  0  0  0
  138.1401   70.6486  222.8326 H   0  0  0  0  0  0  0  0  0  0  0  0
  138.2553   68.4699  224.1156 H   0  0  0  0  0  0  0  0  0  0  0  0
  139.8289   68.7957  223.3832 H   0  0  0  0  0  0  0  0  0  0  0  0
  139.0186   67.2629  226.0078 H   0  0  0  0  0  0  0  0  0  0  0  0
  139.9816   67.3103  228.3052 H   0  0  0  0  0  0  0  0  0  0  0  0
  141.2064   69.3326  229.0571 H   0  0  0  0  0  0  0  0  0  0  0  0
  141.4754   71.2886  227.5408 H   0  0  0  0  0  0  0  0  0  0  0  0
  140.2332   72.4589  225.6189 H   0  0  0  0  0  0  0  0  0  0  0  0
  141.6613   71.7012  224.8595 H   0  0  0  0  0  0  0  0  0  0  0  0
  140.7578   77.9560  220.2192 H   0  0  0  0  0  0  0  0  0  0  0  0
  141.3543   80.3529  220.1793 H   0  0  0  0  0  0  0  0  0  0  0  0
  142.0416   81.4686  222.3203 H   0  0  0  0  0  0  0  0  0  0  0  0
  142.0999   80.1442  224.4343 H   0  0  0  0  0  0  0  0  0  0  0  0
  141.4894   77.7436  224.4112 H   0  0  0  0  0  0  0  0  0  0  0  0
  1  2  2  0
  2  3  1  0
  3  4  1  0
  4  5  2  0
  5  6  1  0
  6  7  1  0
  7  8  1  0
  8  9  1  0
  9 10  1  0
 10 11  1  0
 11 12  1  0
  6 13  2  0
 13 14  1  0
 14 15  1  0
 15 16  1  0
 16 17  1  0
 17 18  1  0
 18 19  2  0
 19 20  1  0
 20 21  2  0
 21 22  1  0
 22 23  2  0
 23 24  1  0
 14 25  2  0
  2 26  1  0
 26 27  2  0
 27 28  1  0
 28 29  2  0
 29 30  1  0
 30 31  2  0
 25  4  1  0
 31 26  1  0
 12  7  1  0
 24 15  1  0
 23 18  1  0
  3 32  1  0
  8 33  1  0
  8 34  1  0
  9 35  1  0
  9 36  1  0
 10 37  1  0
 11 38  1  0
 11 39  1  0
 12 40  1  0
 12 41  1  0
 16 42  1  0
 16 43  1  0
 17 44  1  0
 17 45  1  0
 19 46  1  0
 20 47  1  0
 21 48  1  0
 22 49  1  0
 24 50  1  0
 24 51  1  0
 27 52  1  0
 28 53  1  0
 29 54  1  0
 30 55  1  0
 31 56  1  0
M  END
>  <smiles>  (42) 
O=C(Nc1nc(N2CCNCC2)nc(N2CCc3ccccc3C2)n1)c1ccccc1

>  <score_type>  (42) 
oracle

>  <origin>  (42) 
autodockgpu

>  <m_score__min__energy>  (42) 
-8.7400000000000002

>  <m_primary>  (42) 
energy

>  <rmsd>  (42) 
3.8522605428544603

>  <m_score__min__rmsd>  (42) 
3.8522605428544603

>  <meeko>  (42) 
{"free_energy": -8.67, "intermolecular_energy": -9.87, "internal_energy": -0.79, "cluster_size": 49, "cluster_id": 1, "rank_in_cluster": 40}

>  <energy>  (42) 
-8.65

>  <cluster_rmsd>  (42) 
0.6

>  <cluster>  (42) 
1

$$$$

     RDKit          3D

 56 60  0  0  0  0  0  0  0  0999 V2000
  139.4040   75.9300  222.6840 O   0  0  0  0  0  0  0  0  0  0  0  0
  140.4940   76.3420  222.2470 C   0  0  0  0  0  0  0  0  0  0  0  0
  141.4060   75.4070  221.6840 N   0  0  0  0  0  0  0  0  0  0  0  0
  141.0690   74.0290  221.6260 C   0  0  0  0  0  0  0  0  0  0  0  0
  141.2080   73.3970  220.4270 N   0  0  0  0  0  0  0  0  0  0  0  0
  140.8900   72.0880  220.3700 C   0  0  0  0  0  0  0  0  0  0  0  0
  141.0310   71.4180  219.1280 N   0  0  0  0  0  0  0  0  0  0  0  0
  140.2860   71.9400  218.0020 C   0  0  0  0  0  0  0  0  0  0  0  0
  140.3570   71.1060  216.7740 C   0  0  0  0  0  0  0  0  0  0  0  0
  141.5290   70.2600  216.6850 N   0  0  0  0  0  0  0  0  0  0  0  0
  141.6980   69.4290  217.8490 C   0  0  0  0  0  0  0  0  0  0  0  0
  141.8970   70.2740  219.0680 C   0  0  0  0  0  0  0  0  0  0  0  0
  140.4500   71.4540  221.4860 N   0  0  0  0  0  0  0  0  0  0  0  0
  140.3120   72.0780  222.6670 C   0  0  0  0  0  0  0  0  0  0  0  0
  139.8480   71.4050  223.8360 N   0  0  0  0  0  0  0  0  0  0  0  0
  138.6790   70.5490  223.7410 C   0  0  0  0  0  0  0  0  0  0  0  0
  139.1850   69.1410  224.0600 C   0  0  0  0  0  0  0  0  0  0  0  0
  139.7300   69.2250  225.4440 C   0  0  0  0  0  0  0  0  0  0  0  0
  139.6000   68.1240  226.2900 C   0  0  0  0  0  0  0  0  0  0  0  0
  140.0900   68.1490  227.5920 C   0  0  0  0  0  0  0  0  0  0  0  0
  140.7130   69.2930  228.0360 C   0  0  0  0  0  0  0  0  0  0  0  0
  140.8540   70.4060  227.2040 C   0  0  0  0  0  0  0  0  0  0  0  0
  140.3570   70.3640  225.9020 C   0  0  0  0  0  0  0  0  0  0  0  0
  140.5490   71.5850  225.0880 C   0  0  0  0  0  0  0  0  0  0  0  0
  140.6340   73.3820  222.7070 N   0  0  0  0  0  0  0  0  0  0  0  0
  140.7730   77.7700  222.3400 C   0  0  0  0  0  0  0  0  0  0  0  0
  141.8100   78.2820  221.6100 C   0  0  0  0  0  0  0  0  0  0  0  0
  142.1560   79.6190  221.6270 C   0  0  0  0  0  0  0  0  0  0  0  0
  141.4110   80.4820  222.4260 C   0  0  0  0  0  0  0  0  0  0  0  0
  140.3500   79.9820  223.1770 C   0  0  0  0  0  0  0  0  0  0  0  0
  140.0420   78.6350  223.1280 C   0  0  0  0  0  0  0  0  0  0  0  0
  142.3150   75.7260  221.3170 H   0  0  0  0  0  0  0  0  0  0  0  0
  139.2302   72.0249  218.2987 H   0  0  0  0  0  0  0  0  0  0  0  0
  140.7417   72.9085  217.7483 H   0  0  0  0  0  0  0  0  0  0  0  0
  139.4660   70.4615  216.7453 H   0  0  0  0  0  0  0  0  0  0  0  0
  140.4126   71.8047  215.9262 H   0  0  0  0  0  0  0  0  0  0  0  0
  141.3550   69.6170  215.8670 H   0  0  0  0  0  0  0  0  0  0  0  0
  140.8017   68.8054  217.9825 H   0  0  0  0  0  0  0  0  0  0  0  0
  142.5836   68.7921  217.7075 H   0  0  0  0  0  0  0  0  0  0  0  0
  141.7112   69.6514  219.9556 H   0  0  0  0  0  0  0  0  0  0  0  0
  142.9283   70.6546  219.0290 H   0  0  0  0  0  0  0  0  0  0  0  0
  137.9145   70.8582  224.4690 H   0  0  0  0  0  0  0  0  0  0  0  0
  138.2107   70.6019  222.7471 H   0  0  0  0  0  0  0  0  0  0  0  0
  138.3598   68.4151  224.0140 H   0  0  0  0  0  0  0  0  0  0  0  0
  139.9447   68.8044  223.3391 H   0  0  0  0  0  0  0  0  0  0  0  0
  139.0996   67.2169  225.9202 H   0  0  0  0  0  0  0  0  0  0  0  0
  139.9820   67.2749  228.2510 H   0  0  0  0  0  0  0  0  0  0  0  0
  141.1062   69.3315  229.0626 H   0  0  0  0  0  0  0  0  0  0  0  0
  141.3553   71.3123  227.5746 H   0  0  0  0  0  0  0  0  0  0  0  0
  140.1418   72.4566  225.6214 H   0  0  0  0  0  0  0  0  0  0  0  0
  141.6200   71.7559  224.9040 H   0  0  0  0  0  0  0  0  0  0  0  0
  142.3960   77.5968  220.9798 H   0  0  0  0  0  0  0  0  0  0  0  0
  142.9979   79.9921  221.0252 H   0  0  0  0  0  0  0  0  0  0  0  0
  141.6590   81.5530  222.4639 H   0  0  0  0  0  0  0  0  0  0  0  0
  139.7569   80.6590  223.8094 H   0  0  0  0  0  0  0  0  0  0  0  0
  139.2032   78.2479  223.7251 H   0  0  0  0  0  0  0  0  0  0  0  0
  1  2  2  0
  2  3  1  0
  3  4  1  0
  4  5  2  0
  5  6  1  0
  6  7  1  0
  7  8  1  0
  8  9  1  0
  9 10  1  0
 10 11  1  0
 11 12  1  0
  6 13  2  0
 13 14  1  0
 14 15  1  0
 15 16  1  0
 16 17  1  0
 17 18  1  0
 18 19  2  0
 19 20  1  0
 20 21  2  0
 21 22  1  0
 22 23  2  0
 23 24  1  0
 14 25  2  0
  2 26  1  0
 26 27  2  0
 27 28  1  0
 28 29  2  0
 29 30  1  0
 30 31  2  0
 25  4  1  0
 31 26  1  0
 12  7  1  0
 24 15  1  0
 23 18  1  0
  3 32  1  0
  8 33  1  0
  8 34  1  0
  9 35  1  0
  9 36  1  0
 10 37  1  0
 11 38  1  0
 11 39  1  0
 12 40  1  0
 12 41  1  0
 16 42  1  0
 16 43  1  0
 17 44  1  0
 17 45  1  0
 19 46  1  0
 20 47  1  0
 21 48  1  0
 22 49  1  0
 24 50  1  0
 24 51  1  0
 27 52  1  0
 28 53  1  0
 29 54  1  0
 30 55  1  0
 31 56  1  0
M  END
>  <smiles>  (43) 
O=C(Nc1nc(N2CCNCC2)nc(N2CCc3ccccc3C2)n1)c1ccccc1

>  <score_type>  (43) 
oracle

>  <origin>  (43) 
autodockgpu

>  <m_score__min__energy>  (43) 
-8.7400000000000002

>  <m_primary>  (43) 
energy

>  <rmsd>  (43) 
3.854797753844211

>  <m_score__min__rmsd>  (43) 
3.854797753844211

>  <meeko>  (43) 
{"free_energy": -8.49, "intermolecular_energy": -9.68, "internal_energy": -0.8, "cluster_size": 49, "cluster_id": 1, "rank_in_cluster": 44}

>  <energy>  (43) 
-8.64

>  <cluster_rmsd>  (43) 
0.8

>  <cluster>  (43) 
1

$$$$

     RDKit          3D

 56 60  0  0  0  0  0  0  0  0999 V2000
  139.5670   76.0860  222.6300 O   0  0  0  0  0  0  0  0  0  0  0  0
  140.6990   76.3590  222.1910 C   0  0  0  0  0  0  0  0  0  0  0  0
  141.4920   75.3150  221.6400 N   0  0  0  0  0  0  0  0  0  0  0  0
  140.9910   73.9870  221.5970 C   0  0  0  0  0  0  0  0  0  0  0  0
  140.8910   73.3910  220.3760 N   0  0  0  0  0  0  0  0  0  0  0  0
  140.4170   72.1290  220.3320 C   0  0  0  0  0  0  0  0  0  0  0  0
  140.3070   71.4980  219.0670 N   0  0  0  0  0  0  0  0  0  0  0  0
  140.6970   70.1080  218.9800 C   0  0  0  0  0  0  0  0  0  0  0  0
  140.7050   69.5520  217.6010 C   0  0  0  0  0  0  0  0  0  0  0  0
  139.8350   70.2390  216.6690 N   0  0  0  0  0  0  0  0  0  0  0  0
  140.0840   71.6570  216.6250 C   0  0  0  0  0  0  0  0  0  0  0  0
  139.8190   72.2750  217.9610 C   0  0  0  0  0  0  0  0  0  0  0  0
  140.0620   71.5050  221.4830 N   0  0  0  0  0  0  0  0  0  0  0  0
  140.1610   72.0920  222.6860 C   0  0  0  0  0  0  0  0  0  0  0  0
  139.7860   71.4290  223.8920 N   0  0  0  0  0  0  0  0  0  0  0  0
  138.5910   70.6050  223.9030 C   0  0  0  0  0  0  0  0  0  0  0  0
  139.0860   69.1840  224.1760 C   0  0  0  0  0  0  0  0  0  0  0  0
  139.7540   69.2510  225.5060 C   0  0  0  0  0  0  0  0  0  0  0  0
  139.6710   68.1520  226.3610 C   0  0  0  0  0  0  0  0  0  0  0  0
  140.2760   68.1620  227.6140 C   0  0  0  0  0  0  0  0  0  0  0  0
  140.9660   69.2890  228.0000 C   0  0  0  0  0  0  0  0  0  0  0  0
  141.0610   70.3990  227.1580 C   0  0  0  0  0  0  0  0  0  0  0  0
  140.4490   70.3720  225.9050 C   0  0  0  0  0  0  0  0  0  0  0  0
  140.5990   71.5900  225.0770 C   0  0  0  0  0  0  0  0  0  0  0  0
  140.6360   73.3500  222.7120 N   0  0  0  0  0  0  0  0  0  0  0  0
  141.1480   77.7440  222.2680 C   0  0  0  0  0  0  0  0  0  0  0  0
  141.4520   78.2640  223.4960 C   0  0  0  0  0  0  0  0  0  0  0  0
  141.8860   79.5630  223.6770 C   0  0  0  0  0  0  0  0  0  0  0  0
  142.0170   80.3770  222.5540 C   0  0  0  0  0  0  0  0  0  0  0  0
  141.7120   79.8670  221.2950 C   0  0  0  0  0  0  0  0  0  0  0  0
  141.2820   78.5590  221.1630 C   0  0  0  0  0  0  0  0  0  0  0  0
  142.4330   75.5180  221.2720 H   0  0  0  0  0  0  0  0  0  0  0  0
  141.7108   70.0095  219.3954 H   0  0  0  0  0  0  0  0  0  0  0  0
  139.9429   69.5371  219.5417 H   0  0  0  0  0  0  0  0  0  0  0  0
  141.7335   69.6071  217.2148 H   0  0  0  0  0  0  0  0  0  0  0  0
  140.3278   68.5216  217.6781 H   0  0  0  0  0  0  0  0  0  0  0  0
  140.0740   69.8520  215.7180 H   0  0  0  0  0  0  0  0  0  0  0  0
  141.1337   71.8321  216.3465 H   0  0  0  0  0  0  0  0  0  0  0  0
  139.4142   72.1138  215.8816 H   0  0  0  0  0  0  0  0  0  0  0  0
  140.3048   73.2615  217.9892 H   0  0  0  0  0  0  0  0  0  0  0  0
  138.7266   72.3400  218.0727 H   0  0  0  0  0  0  0  0  0  0  0  0
  137.9036   70.9331  224.6966 H   0  0  0  0  0  0  0  0  0  0  0  0
  138.0367   70.6722  222.9553 H   0  0  0  0  0  0  0  0  0  0  0  0
  138.2412   68.4801  224.2038 H   0  0  0  0  0  0  0  0  0  0  0  0
  139.7693   68.8290  223.3905 H   0  0  0  0  0  0  0  0  0  0  0  0
  139.1158   67.2590  226.0380 H   0  0  0  0  0  0  0  0  0  0  0  0
  140.2046   67.2898  228.2805 H   0  0  0  0  0  0  0  0  0  0  0  0
  141.4502   69.3156  228.9873 H   0  0  0  0  0  0  0  0  0  0  0  0
  141.6165   71.2915  227.4818 H   0  0  0  0  0  0  0  0  0  0  0  0
  140.2620   72.4704  225.6439 H   0  0  0  0  0  0  0  0  0  0  0  0
  141.6535   71.7354  224.7995 H   0  0  0  0  0  0  0  0  0  0  0  0
  141.3460   77.6182  224.3801 H   0  0  0  0  0  0  0  0  0  0  0  0
  142.1219   79.9446  224.6814 H   0  0  0  0  0  0  0  0  0  0  0  0
  142.3595   81.4168  222.6615 H   0  0  0  0  0  0  0  0  0  0  0  0
  141.8131   80.5048  220.4045 H   0  0  0  0  0  0  0  0  0  0  0  0
  141.0439   78.1637  220.1645 H   0  0  0  0  0  0  0  0  0  0  0  0
  1  2  2  0
  2  3  1  0
  3  4  1  0
  4  5  2  0
  5  6  1  0
  6  7  1  0
  7  8  1  0
  8  9  1  0
  9 10  1  0
 10 11  1  0
 11 12  1  0
  6 13  2  0
 13 14  1  0
 14 15  1  0
 15 16  1  0
 16 17  1  0
 17 18  1  0
 18 19  2  0
 19 20  1  0
 20 21  2  0
 21 22  1  0
 22 23  2  0
 23 24  1  0
 14 25  2  0
  2 26  1  0
 26 27  2  0
 27 28  1  0
 28 29  2  0
 29 30  1  0
 30 31  2  0
 25  4  1  0
 31 26  1  0
 12  7  1  0
 24 15  1  0
 23 18  1  0
  3 32  1  0
  8 33  1  0
  8 34  1  0
  9 35  1  0
  9 36  1  0
 10 37  1  0
 11 38  1  0
 11 39  1  0
 12 40  1  0
 12 41  1  0
 16 42  1  0
 16 43  1  0
 17 44  1  0
 17 45  1  0
 19 46  1  0
 20 47  1  0
 21 48  1  0
 22 49  1  0
 24 50  1  0
 24 51  1  0
 27 52  1  0
 28 53  1  0
 29 54  1  0
 30 55  1  0
 31 56  1  0
M  END
>  <smiles>  (44) 
O=C(Nc1nc(N2CCNCC2)nc(N2CCc3ccccc3C2)n1)c1ccccc1

>  <score_type>  (44) 
oracle

>  <origin>  (44) 
autodockgpu

>  <m_score__min__energy>  (44) 
-8.7400000000000002

>  <m_primary>  (44) 
energy

>  <rmsd>  (44) 
3.8419364586409968

>  <m_score__min__rmsd>  (44) 
3.8419364586409968

>  <meeko>  (44) 
{"free_energy": -8.74, "intermolecular_energy": -9.93, "internal_energy": -0.81, "cluster_size": 49, "cluster_id": 1, "rank_in_cluster": 7}

>  <energy>  (44) 
-8.49

>  <cluster_rmsd>  (44) 
0.6

>  <cluster>  (44) 
1

$$$$

     RDKit          3D

 56 60  0  0  0  0  0  0  0  0999 V2000
  139.5810   76.0770  222.6720 O   0  0  0  0  0  0  0  0  0  0  0  0
  140.7010   76.3660  222.2110 C   0  0  0  0  0  0  0  0  0  0  0  0
  141.4930   75.3340  221.6370 N   0  0  0  0  0  0  0  0  0  0  0  0
  141.0070   74.0010  221.5960 C   0  0  0  0  0  0  0  0  0  0  0  0
  140.9280   73.3960  220.3780 N   0  0  0  0  0  0  0  0  0  0  0  0
  140.4680   72.1290  220.3370 C   0  0  0  0  0  0  0  0  0  0  0  0
  140.3800   71.4890  219.0740 N   0  0  0  0  0  0  0  0  0  0  0  0
  139.9250   70.1160  219.0540 C   0  0  0  0  0  0  0  0  0  0  0  0
  140.0020   69.4580  217.7230 C   0  0  0  0  0  0  0  0  0  0  0  0
  139.9720   70.3680  216.5970 N   0  0  0  0  0  0  0  0  0  0  0  0
  140.9770   71.3950  216.6920 C   0  0  0  0  0  0  0  0  0  0  0  0
  140.7450   72.2400  217.9050 C   0  0  0  0  0  0  0  0  0  0  0  0
  140.1050   71.5090  221.4870 N   0  0  0  0  0  0  0  0  0  0  0  0
  140.1830   72.1050  222.6870 C   0  0  0  0  0  0  0  0  0  0  0  0
  139.8000   71.4460  223.8930 N   0  0  0  0  0  0  0  0  0  0  0  0
  138.5830   70.6530  223.9090 C   0  0  0  0  0  0  0  0  0  0  0  0
  139.0430   69.2170  224.1710 C   0  0  0  0  0  0  0  0  0  0  0  0
  139.7230   69.2600  225.4960 C   0  0  0  0  0  0  0  0  0  0  0  0
  139.6180   68.1600  226.3460 C   0  0  0  0  0  0  0  0  0  0  0  0
  140.2320   68.1470  227.5940 C   0  0  0  0  0  0  0  0  0  0  0  0
  140.9550   69.2530  227.9800 C   0  0  0  0  0  0  0  0  0  0  0  0
  141.0720   70.3650  227.1430 C   0  0  0  0  0  0  0  0  0  0  0  0
  140.4510   70.3610  225.8950 C   0  0  0  0  0  0  0  0  0  0  0  0
  140.6260   71.5780  225.0720 C   0  0  0  0  0  0  0  0  0  0  0  0
  140.6440   73.3670  222.7110 N   0  0  0  0  0  0  0  0  0  0  0  0
  141.1350   77.7550  222.2870 C   0  0  0  0  0  0  0  0  0  0  0  0
  141.4650   78.2700  223.5100 C   0  0  0  0  0  0  0  0  0  0  0  0
  141.8880   79.5730  223.6900 C   0  0  0  0  0  0  0  0  0  0  0  0
  141.9800   80.3960  222.5710 C   0  0  0  0  0  0  0  0  0  0  0  0
  141.6490   79.8920  221.3160 C   0  0  0  0  0  0  0  0  0  0  0  0
  141.2310   78.5800  221.1850 C   0  0  0  0  0  0  0  0  0  0  0  0
  142.4240   75.5500  221.2500 H   0  0  0  0  0  0  0  0  0  0  0  0
  140.5430   69.5394  219.7581 H   0  0  0  0  0  0  0  0  0  0  0  0
  138.8606   70.1362  219.3308 H   0  0  0  0  0  0  0  0  0  0  0  0
  140.9406   68.8863  217.6769 H   0  0  0  0  0  0  0  0  0  0  0  0
  139.1062   68.8256  217.6361 H   0  0  0  0  0  0  0  0  0  0  0  0
  140.2060   69.7830  215.7510 H   0  0  0  0  0  0  0  0  0  0  0  0
  141.9695   70.9258  216.7613 H   0  0  0  0  0  0  0  0  0  0  0  0
  140.9223   72.0322  215.7970 H   0  0  0  0  0  0  0  0  0  0  0  0
  141.6697   72.7941  218.1236 H   0  0  0  0  0  0  0  0  0  0  0  0
  139.8997   72.9053  217.6749 H   0  0  0  0  0  0  0  0  0  0  0  0
  137.9104   70.9947  224.7096 H   0  0  0  0  0  0  0  0  0  0  0  0
  138.0234   70.7398  222.9660 H   0  0  0  0  0  0  0  0  0  0  0  0
  138.1803   68.5353  224.2022 H   0  0  0  0  0  0  0  0  0  0  0  0
  139.7104   68.8481  223.3783 H   0  0  0  0  0  0  0  0  0  0  0  0
  139.0371   67.2836  226.0228 H   0  0  0  0  0  0  0  0  0  0  0  0
  140.1420   67.2737  228.2568 H   0  0  0  0  0  0  0  0  0  0  0  0
  141.4484   69.2611  228.9631 H   0  0  0  0  0  0  0  0  0  0  0  0
  141.6524   71.2412  227.4676 H   0  0  0  0  0  0  0  0  0  0  0  0
  140.3172   72.4639  225.6462 H   0  0  0  0  0  0  0  0  0  0  0  0
  141.6817   71.6960  224.7862 H   0  0  0  0  0  0  0  0  0  0  0  0
  141.3902   77.6165  224.3916 H   0  0  0  0  0  0  0  0  0  0  0  0
  142.1452   79.9500  224.6909 H   0  0  0  0  0  0  0  0  0  0  0  0
  142.3125   81.4391  222.6777 H   0  0  0  0  0  0  0  0  0  0  0  0
  141.7200   80.5376  220.4282 H   0  0  0  0  0  0  0  0  0  0  0  0
  140.9719   78.1894  220.1899 H   0  0  0  0  0  0  0  0  0  0  0  0
  1  2  2  0
  2  3  1  0
  3  4  1  0
  4  5  2  0
  5  6  1  0
  6  7  1  0
  7  8  1  0
  8  9  1  0
  9 10  1  0
 10 11  1  0
 11 12  1  0
  6 13  2  0
 13 14  1  0
 14 15  1  0
 15 16  1  0
 16 17  1  0
 17 18  1  0
 18 19  2  0
 19 20  1  0
 20 21  2  0
 21 22  1  0
 22 23  2  0
 23 24  1  0
 14 25  2  0
  2 26  1  0
 26 27  2  0
 27 28  1  0
 28 29  2  0
 29 30  1  0
 30 31  2  0
 25  4  1  0
 31 26  1  0
 12  7  1  0
 24 15  1  0
 23 18  1  0
  3 32  1  0
  8 33  1  0
  8 34  1  0
  9 35  1  0
  9 36  1  0
 10 37  1  0
 11 38  1  0
 11 39  1  0
 12 40  1  0
 12 41  1  0
 16 42  1  0
 16 43  1  0
 17 44  1  0
 17 45  1  0
 19 46  1  0
 20 47  1  0
 21 48  1  0
 22 49  1  0
 24 50  1  0
 24 51  1  0
 27 52  1  0
 28 53  1  0
 29 54  1  0
 30 55  1  0
 31 56  1  0
M  END
>  <smiles>  (45) 
O=C(Nc1nc(N2CCNCC2)nc(N2CCc3ccccc3C2)n1)c1ccccc1

>  <score_type>  (45) 
oracle

>  <origin>  (45) 
autodockgpu

>  <m_score__min__energy>  (45) 
-8.7400000000000002

>  <m_primary>  (45) 
energy

>  <rmsd>  (45) 
3.8351376103155013

>  <m_score__min__rmsd>  (45) 
3.8351376103155013

>  <meeko>  (45) 
{"free_energy": -8.73, "intermolecular_energy": -9.92, "internal_energy": -0.81, "cluster_size": 49, "cluster_id": 1, "rank_in_cluster": 16}

>  <energy>  (45) 
-8.47

>  <cluster_rmsd>  (45) 
0.8

>  <cluster>  (45) 
1

$$$$

     RDKit          3D

 56 60  0  0  0  0  0  0  0  0999 V2000
  139.5630   76.0410  222.7100 O   0  0  0  0  0  0  0  0  0  0  0  0
  140.6690   76.3660  222.2410 C   0  0  0  0  0  0  0  0  0  0  0  0
  141.4860   75.3640  221.6490 N   0  0  0  0  0  0  0  0  0  0  0  0
  141.0390   74.0170  221.6000 C   0  0  0  0  0  0  0  0  0  0  0  0
  141.0180   73.4050  220.3830 N   0  0  0  0  0  0  0  0  0  0  0  0
  140.5950   72.1250  220.3340 C   0  0  0  0  0  0  0  0  0  0  0  0
  140.5690   71.4760  219.0730 N   0  0  0  0  0  0  0  0  0  0  0  0
  139.7690   72.0810  218.0300 C   0  0  0  0  0  0  0  0  0  0  0  0
  139.6610   71.2730  216.7860 C   0  0  0  0  0  0  0  0  0  0  0  0
  140.7500   70.3420  216.5760 N   0  0  0  0  0  0  0  0  0  0  0  0
  140.9570   69.4720  217.7050 C   0  0  0  0  0  0  0  0  0  0  0  0
  141.3320   70.2700  218.9140 C   0  0  0  0  0  0  0  0  0  0  0  0
  140.2110   71.5000  221.4750 N   0  0  0  0  0  0  0  0  0  0  0  0
  140.2310   72.1050  222.6740 C   0  0  0  0  0  0  0  0  0  0  0  0
  139.8250   71.4420  223.8700 N   0  0  0  0  0  0  0  0  0  0  0  0
  138.6200   70.6320  223.8550 C   0  0  0  0  0  0  0  0  0  0  0  0
  139.0930   69.2030  224.1300 C   0  0  0  0  0  0  0  0  0  0  0  0
  139.7370   69.2570  225.4730 C   0  0  0  0  0  0  0  0  0  0  0  0
  139.6240   68.1560  226.3210 C   0  0  0  0  0  0  0  0  0  0  0  0
  140.2050   68.1530  227.5850 C   0  0  0  0  0  0  0  0  0  0  0  0
  140.9020   69.2690  227.9890 C   0  0  0  0  0  0  0  0  0  0  0  0
  141.0270   70.3810  227.1540 C   0  0  0  0  0  0  0  0  0  0  0  0
  140.4380   70.3680  225.8900 C   0  0  0  0  0  0  0  0  0  0  0  0
  140.6180   71.5870  225.0700 C   0  0  0  0  0  0  0  0  0  0  0  0
  140.6560   73.3800  222.7050 N   0  0  0  0  0  0  0  0  0  0  0  0
  141.0630   77.7670  222.3260 C   0  0  0  0  0  0  0  0  0  0  0  0
  141.4790   78.2560  223.5340 C   0  0  0  0  0  0  0  0  0  0  0  0
  141.8730   79.5670  223.7210 C   0  0  0  0  0  0  0  0  0  0  0  0
  141.8430   80.4260  222.6260 C   0  0  0  0  0  0  0  0  0  0  0  0
  141.4230   79.9490  221.3870 C   0  0  0  0  0  0  0  0  0  0  0  0
  141.0370   78.6280  221.2480 C   0  0  0  0  0  0  0  0  0  0  0  0
  142.4050   75.6110  221.2540 H   0  0  0  0  0  0  0  0  0  0  0  0
  138.7547   72.2409  218.4246 H   0  0  0  0  0  0  0  0  0  0  0  0
  140.2757   73.0167  217.7513 H   0  0  0  0  0  0  0  0  0  0  0  0
  138.7231   70.6999  216.8293 H   0  0  0  0  0  0  0  0  0  0  0  0
  139.6931   71.9848  215.9479 H   0  0  0  0  0  0  0  0  0  0  0  0
  140.4520   69.7330  215.7670 H   0  0  0  0  0  0  0  0  0  0  0  0
  140.0298   68.9168  217.9100 H   0  0  0  0  0  0  0  0  0  0  0  0
  141.7723   68.7713  217.4719 H   0  0  0  0  0  0  0  0  0  0  0  0
  141.1786   69.6428  219.8046 H   0  0  0  0  0  0  0  0  0  0  0  0
  142.3824   70.5705  218.7859 H   0  0  0  0  0  0  0  0  0  0  0  0
  137.9221   70.9645  224.6375 H   0  0  0  0  0  0  0  0  0  0  0  0
  138.0841   70.7104  222.8975 H   0  0  0  0  0  0  0  0  0  0  0  0
  138.2396   68.5090  224.1389 H   0  0  0  0  0  0  0  0  0  0  0  0
  139.7861   68.8428  223.3555 H   0  0  0  0  0  0  0  0  0  0  0  0
  139.0639   67.2715  225.9836 H   0  0  0  0  0  0  0  0  0  0  0  0
  140.1096   67.2791  228.2462 H   0  0  0  0  0  0  0  0  0  0  0  0
  141.3679   69.2851  228.9854 H   0  0  0  0  0  0  0  0  0  0  0  0
  141.5883   71.2645  227.4921 H   0  0  0  0  0  0  0  0  0  0  0  0
  140.2820   72.4692  225.6347 H   0  0  0  0  0  0  0  0  0  0  0  0
  141.6791   71.7196  224.8120 H   0  0  0  0  0  0  0  0  0  0  0  0
  141.5008   77.5737  224.3966 H   0  0  0  0  0  0  0  0  0  0  0  0
  142.2016   79.9225  224.7087 H   0  0  0  0  0  0  0  0  0  0  0  0
  142.1495   81.4764  222.7389 H   0  0  0  0  0  0  0  0  0  0  0  0
  141.3982   80.6232  220.5182 H   0  0  0  0  0  0  0  0  0  0  0  0
  140.7053   78.2594  220.2661 H   0  0  0  0  0  0  0  0  0  0  0  0
  1  2  2  0
  2  3  1  0
  3  4  1  0
  4  5  2  0
  5  6  1  0
  6  7  1  0
  7  8  1  0
  8  9  1  0
  9 10  1  0
 10 11  1  0
 11 12  1  0
  6 13  2  0
 13 14  1  0
 14 15  1  0
 15 16  1  0
 16 17  1  0
 17 18  1  0
 18 19  2  0
 19 20  1  0
 20 21  2  0
 21 22  1  0
 22 23  2  0
 23 24  1  0
 14 25  2  0
  2 26  1  0
 26 27  2  0
 27 28  1  0
 28 29  2  0
 29 30  1  0
 30 31  2  0
 25  4  1  0
 31 26  1  0
 12  7  1  0
 24 15  1  0
 23 18  1  0
  3 32  1  0
  8 33  1  0
  8 34  1  0
  9 35  1  0
  9 36  1  0
 10 37  1  0
 11 38  1  0
 11 39  1  0
 12 40  1  0
 12 41  1  0
 16 42  1  0
 16 43  1  0
 17 44  1  0
 17 45  1  0
 19 46  1  0
 20 47  1  0
 21 48  1  0
 22 49  1  0
 24 50  1  0
 24 51  1  0
 27 52  1  0
 28 53  1  0
 29 54  1  0
 30 55  1  0
 31 56  1  0
M  END
>  <smiles>  (46) 
O=C(Nc1nc(N2CCNCC2)nc(N2CCc3ccccc3C2)n1)c1ccccc1

>  <score_type>  (46) 
oracle

>  <origin>  (46) 
autodockgpu

>  <m_score__min__energy>  (46) 
-8.7400000000000002

>  <m_primary>  (46) 
energy

>  <rmsd>  (46) 
3.840035382899654

>  <m_score__min__rmsd>  (46) 
3.840035382899654

>  <meeko>  (46) 
{"free_energy": -8.73, "intermolecular_energy": -9.93, "internal_energy": -0.8, "cluster_size": 49, "cluster_id": 1, "rank_in_cluster": 12}

>  <energy>  (46) 
-8.45

>  <cluster_rmsd>  (46) 
0.87

>  <cluster>  (46) 
1

$$$$

     RDKit          3D

 56 60  0  0  0  0  0  0  0  0999 V2000
  139.5760   76.0700  222.6400 O   0  0  0  0  0  0  0  0  0  0  0  0
  140.7000   76.3580  222.1900 C   0  0  0  0  0  0  0  0  0  0  0  0
  141.4990   75.3250  221.6270 N   0  0  0  0  0  0  0  0  0  0  0  0
  141.0140   73.9910  221.5860 C   0  0  0  0  0  0  0  0  0  0  0  0
  140.9310   73.3890  220.3660 N   0  0  0  0  0  0  0  0  0  0  0  0
  140.4710   72.1220  220.3240 C   0  0  0  0  0  0  0  0  0  0  0  0
  140.3800   71.4840  219.0600 N   0  0  0  0  0  0  0  0  0  0  0  0
  140.5100   70.0440  219.0300 C   0  0  0  0  0  0  0  0  0  0  0  0
  140.5580   69.4550  217.6660 C   0  0  0  0  0  0  0  0  0  0  0  0
  139.9360   70.2620  216.6380 N   0  0  0  0  0  0  0  0  0  0  0  0
  140.4500   71.6080  216.6070 C   0  0  0  0  0  0  0  0  0  0  0  0
  140.1650   72.3040  217.9000 C   0  0  0  0  0  0  0  0  0  0  0  0
  140.1130   71.4990  221.4740 N   0  0  0  0  0  0  0  0  0  0  0  0
  140.1950   72.0920  222.6760 C   0  0  0  0  0  0  0  0  0  0  0  0
  139.8160   71.4300  223.8810 N   0  0  0  0  0  0  0  0  0  0  0  0
  138.6230   70.6030  223.8890 C   0  0  0  0  0  0  0  0  0  0  0  0
  139.1200   69.1840  224.1650 C   0  0  0  0  0  0  0  0  0  0  0  0
  139.7830   69.2540  225.4980 C   0  0  0  0  0  0  0  0  0  0  0  0
  139.6990   68.1560  226.3540 C   0  0  0  0  0  0  0  0  0  0  0  0
  140.2990   68.1690  227.6090 C   0  0  0  0  0  0  0  0  0  0  0  0
  140.9850   69.2980  227.9960 C   0  0  0  0  0  0  0  0  0  0  0  0
  141.0810   70.4060  227.1530 C   0  0  0  0  0  0  0  0  0  0  0  0
  140.4740   70.3770  225.8980 C   0  0  0  0  0  0  0  0  0  0  0  0
  140.6250   71.5940  225.0690 C   0  0  0  0  0  0  0  0  0  0  0  0
  140.6550   73.3550  222.7000 N   0  0  0  0  0  0  0  0  0  0  0  0
  141.1330   77.7480  222.2660 C   0  0  0  0  0  0  0  0  0  0  0  0
  141.4410   78.2690  223.4920 C   0  0  0  0  0  0  0  0  0  0  0  0
  141.8610   79.5730  223.6730 C   0  0  0  0  0  0  0  0  0  0  0  0
  141.9730   80.3900  222.5510 C   0  0  0  0  0  0  0  0  0  0  0  0
  141.6640   79.8790  221.2930 C   0  0  0  0  0  0  0  0  0  0  0  0
  141.2480   78.5670  221.1620 C   0  0  0  0  0  0  0  0  0  0  0  0
  142.4330   75.5400  221.2490 H   0  0  0  0  0  0  0  0  0  0  0  0
  141.4383   69.7724  219.5538 H   0  0  0  0  0  0  0  0  0  0  0  0
  139.6080   69.6396  219.5125 H   0  0  0  0  0  0  0  0  0  0  0  0
  141.6133   69.3064  217.3936 H   0  0  0  0  0  0  0  0  0  0  0  0
  139.9874   68.5157  217.7122 H   0  0  0  0  0  0  0  0  0  0  0  0
  140.1980   69.8090  215.7220 H   0  0  0  0  0  0  0  0  0  0  0  0
  141.5374   71.5772  216.4438 H   0  0  0  0  0  0  0  0  0  0  0  0
  139.9609   72.1584  215.7897 H   0  0  0  0  0  0  0  0  0  0  0  0
  140.8203   73.1846  217.9716 H   0  0  0  0  0  0  0  0  0  0  0  0
  139.0983   72.5724  217.8908 H   0  0  0  0  0  0  0  0  0  0  0  0
  137.9322   70.9303  224.6800 H   0  0  0  0  0  0  0  0  0  0  0  0
  138.0718   70.6678  222.9393 H   0  0  0  0  0  0  0  0  0  0  0  0
  138.2767   68.4781  224.1903 H   0  0  0  0  0  0  0  0  0  0  0  0
  139.8071   68.8297  223.3824 H   0  0  0  0  0  0  0  0  0  0  0  0
  139.1470   67.2614  226.0301 H   0  0  0  0  0  0  0  0  0  0  0  0
  140.2270   67.2976  228.2764 H   0  0  0  0  0  0  0  0  0  0  0  0
  141.4651   69.3273  228.9853 H   0  0  0  0  0  0  0  0  0  0  0  0
  141.6340   71.2998  227.4777 H   0  0  0  0  0  0  0  0  0  0  0  0
  140.2847   72.4746  225.6335 H   0  0  0  0  0  0  0  0  0  0  0  0
  141.6802   71.7407  224.7950 H   0  0  0  0  0  0  0  0  0  0  0  0
  141.3502   77.6199  224.3754 H   0  0  0  0  0  0  0  0  0  0  0  0
  142.1004   79.9553  224.6763 H   0  0  0  0  0  0  0  0  0  0  0  0
  142.3039   81.4336  222.6578 H   0  0  0  0  0  0  0  0  0  0  0  0
  141.7509   80.5196  220.4030 H   0  0  0  0  0  0  0  0  0  0  0  0
  141.0056   78.1712  220.1647 H   0  0  0  0  0  0  0  0  0  0  0  0
  1  2  2  0
  2  3  1  0
  3  4  1  0
  4  5  2  0
  5  6  1  0
  6  7  1  0
  7  8  1  0
  8  9  1  0
  9 10  1  0
 10 11  1  0
 11 12  1  0
  6 13  2  0
 13 14  1  0
 14 15  1  0
 15 16  1  0
 16 17  1  0
 17 18  1  0
 18 19  2  0
 19 20  1  0
 20 21  2  0
 21 22  1  0
 22 23  2  0
 23 24  1  0
 14 25  2  0
  2 26  1  0
 26 27  2  0
 27 28  1  0
 28 29  2  0
 29 30  1  0
 30 31  2  0
 25  4  1  0
 31 26  1  0
 12  7  1  0
 24 15  1  0
 23 18  1  0
  3 32  1  0
  8 33  1  0
  8 34  1  0
  9 35  1  0
  9 36  1  0
 10 37  1  0
 11 38  1  0
 11 39  1  0
 12 40  1  0
 12 41  1  0
 16 42  1  0
 16 43  1  0
 17 44  1  0
 17 45  1  0
 19 46  1  0
 20 47  1  0
 21 48  1  0
 22 49  1  0
 24 50  1  0
 24 51  1  0
 27 52  1  0
 28 53  1  0
 29 54  1  0
 30 55  1  0
 31 56  1  0
M  END
>  <smiles>  (47) 
O=C(Nc1nc(N2CCNCC2)nc(N2CCc3ccccc3C2)n1)c1ccccc1

>  <score_type>  (47) 
oracle

>  <origin>  (47) 
autodockgpu

>  <m_score__min__energy>  (47) 
-8.7400000000000002

>  <m_primary>  (47) 
energy

>  <rmsd>  (47) 
3.8432179978161436

>  <m_score__min__rmsd>  (47) 
3.8432179978161436

>  <meeko>  (47) 
{"free_energy": -8.73, "intermolecular_energy": -9.93, "internal_energy": -0.81, "cluster_size": 49, "cluster_id": 1, "rank_in_cluster": 13}

>  <energy>  (47) 
-8.44

>  <cluster_rmsd>  (47) 
0.67

>  <cluster>  (47) 
1

$$$$

     RDKit          3D

 56 60  0  0  0  0  0  0  0  0999 V2000
  138.5640   71.0340  224.6260 O   0  0  0  0  0  0  0  0  0  0  0  0
  139.7770   70.8520  224.8360 C   0  0  0  0  0  0  0  0  0  0  0  0
  140.7200   71.3570  223.8990 N   0  0  0  0  0  0  0  0  0  0  0  0
  140.2750   72.0550  222.7460 C   0  0  0  0  0  0  0  0  0  0  0  0
  139.8450   71.3130  221.6870 N   0  0  0  0  0  0  0  0  0  0  0  0
  139.4210   71.9750  220.5910 C   0  0  0  0  0  0  0  0  0  0  0  0
  138.9720   71.2140  219.4820 N   0  0  0  0  0  0  0  0  0  0  0  0
  138.3470   71.9310  218.3910 C   0  0  0  0  0  0  0  0  0  0  0  0
  137.7630   71.0640  217.3350 C   0  0  0  0  0  0  0  0  0  0  0  0
  138.3540   69.7450  217.2420 N   0  0  0  0  0  0  0  0  0  0  0  0
  138.3470   69.0480  218.5020 C   0  0  0  0  0  0  0  0  0  0  0  0
  139.1650   69.7910  219.5120 C   0  0  0  0  0  0  0  0  0  0  0  0
  139.4350   73.3310  220.5780 N   0  0  0  0  0  0  0  0  0  0  0  0
  139.8580   74.0620  221.6220 C   0  0  0  0  0  0  0  0  0  0  0  0
  139.8700   75.4880  221.6000 N   0  0  0  0  0  0  0  0  0  0  0  0
  138.6770   76.1980  221.1760 C   0  0  0  0  0  0  0  0  0  0  0  0
  138.2170   76.9810  222.4060 C   0  0  0  0  0  0  0  0  0  0  0  0
  139.3470   77.8950  222.7340 C   0  0  0  0  0  0  0  0  0  0  0  0
  139.0680   79.1600  223.2480 C   0  0  0  0  0  0  0  0  0  0  0  0
  140.0850   80.0520  223.5700 C   0  0  0  0  0  0  0  0  0  0  0  0
  141.3890   79.6600  223.3700 C   0  0  0  0  0  0  0  0  0  0  0  0
  141.6900   78.3970  222.8560 C   0  0  0  0  0  0  0  0  0  0  0  0
  140.6580   77.5150  222.5390 C   0  0  0  0  0  0  0  0  0  0  0  0
  141.0650   76.1980  222.0000 C   0  0  0  0  0  0  0  0  0  0  0  0
  140.2780   73.3870  222.7060 N   0  0  0  0  0  0  0  0  0  0  0  0
  140.1610   70.1260  226.0410 C   0  0  0  0  0  0  0  0  0  0  0  0
  140.0590   68.7620  226.0420 C   0  0  0  0  0  0  0  0  0  0  0  0
  140.3970   67.9820  227.1310 C   0  0  0  0  0  0  0  0  0  0  0  0
  140.8630   68.6190  228.2780 C   0  0  0  0  0  0  0  0  0  0  0  0
  140.9750   70.0060  228.2980 C   0  0  0  0  0  0  0  0  0  0  0  0
  140.6240   70.7460  227.1830 C   0  0  0  0  0  0  0  0  0  0  0  0
  141.7300   71.2170  224.0530 H   0  0  0  0  0  0  0  0  0  0  0  0
  137.5420   72.5547  218.8069 H   0  0  0  0  0  0  0  0  0  0  0  0
  139.1419   72.5181  217.9079 H   0  0  0  0  0  0  0  0  0  0  0  0
  136.6896   70.9449  217.5438 H   0  0  0  0  0  0  0  0  0  0  0  0
  137.9635   71.5635  216.3757 H   0  0  0  0  0  0  0  0  0  0  0  0
  137.7340   69.2010  216.5840 H   0  0  0  0  0  0  0  0  0  0  0  0
  137.3118   68.9641  218.8644 H   0  0  0  0  0  0  0  0  0  0  0  0
  138.7789   68.0465  218.3590 H   0  0  0  0  0  0  0  0  0  0  0  0
  138.8946   69.4256  220.5137 H   0  0  0  0  0  0  0  0  0  0  0  0
  140.2213   69.6061  219.2668 H   0  0  0  0  0  0  0  0  0  0  0  0
  138.9101   76.8832  220.3477 H   0  0  0  0  0  0  0  0  0  0  0  0
  137.8985   75.5118  220.8111 H   0  0  0  0  0  0  0  0  0  0  0  0
  137.3084   77.5577  222.1783 H   0  0  0  0  0  0  0  0  0  0  0  0
  137.9692   76.3164  223.2468 H   0  0  0  0  0  0  0  0  0  0  0  0
  138.0208   79.4593  223.4023 H   0  0  0  0  0  0  0  0  0  0  0  0
  139.8526   81.0479  223.9752 H   0  0  0  0  0  0  0  0  0  0  0  0
  142.2068   80.3523  223.6189 H   0  0  0  0  0  0  0  0  0  0  0  0
  142.7376   78.0991  222.7018 H   0  0  0  0  0  0  0  0  0  0  0  0
  141.7240   76.3384  221.1305 H   0  0  0  0  0  0  0  0  0  0  0  0
  141.6109   75.6254  222.7642 H   0  0  0  0  0  0  0  0  0  0  0  0
  139.6908   68.2629  225.1335 H   0  0  0  0  0  0  0  0  0  0  0  0
  140.3005   66.8869  227.0929 H   0  0  0  0  0  0  0  0  0  0  0  0
  141.1412   68.0290  229.1637 H   0  0  0  0  0  0  0  0  0  0  0  0
  141.3430   70.5145  229.2013 H   0  0  0  0  0  0  0  0  0  0  0  0
  140.7152   71.8419  227.2074 H   0  0  0  0  0  0  0  0  0  0  0  0
  1  2  2  0
  2  3  1  0
  3  4  1  0
  4  5  2  0
  5  6  1  0
  6  7  1  0
  7  8  1  0
  8  9  1  0
  9 10  1  0
 10 11  1  0
 11 12  1  0
  6 13  2  0
 13 14  1  0
 14 15  1  0
 15 16  1  0
 16 17  1  0
 17 18  1  0
 18 19  2  0
 19 20  1  0
 20 21  2  0
 21 22  1  0
 22 23  2  0
 23 24  1  0
 14 25  2  0
  2 26  1  0
 26 27  2  0
 27 28  1  0
 28 29  2  0
 29 30  1  0
 30 31  2  0
 25  4  1  0
 31 26  1  0
 12  7  1  0
 24 15  1  0
 23 18  1  0
  3 32  1  0
  8 33  1  0
  8 34  1  0
  9 35  1  0
  9 36  1  0
 10 37  1  0
 11 38  1  0
 11 39  1  0
 12 40  1  0
 12 41  1  0
 16 42  1  0
 16 43  1  0
 17 44  1  0
 17 45  1  0
 19 46  1  0
 20 47  1  0
 21 48  1  0
 22 49  1  0
 24 50  1  0
 24 51  1  0
 27 52  1  0
 28 53  1  0
 29 54  1  0
 30 55  1  0
 31 56  1  0
M  END
>  <smiles>  (48) 
O=C(Nc1nc(N2CCNCC2)nc(N2CCc3ccccc3C2)n1)c1ccccc1

>  <score_type>  (48) 
oracle

>  <origin>  (48) 
autodockgpu

>  <m_score__min__energy>  (48) 
-8.7400000000000002

>  <m_primary>  (48) 
energy

>  <rmsd>  (48) 
9.364582778317226

>  <m_score__min__rmsd>  (48) 
9.364582778317226

>  <meeko>  (48) 
{"free_energy": -7.75, "intermolecular_energy": -8.94, "internal_energy": -0.82, "cluster_size": 49, "cluster_id": 1, "rank_in_cluster": 49}

>  <energy>  (48) 
-7.77

>  <cluster_rmsd>  (48) 
1.88

>  <cluster>  (48) 
1

$$$$

     RDKit          3D

 56 60  0  0  0  0  0  0  0  0999 V2000
  139.5650   76.0520  222.6860 O   0  0  0  0  0  0  0  0  0  0  0  0
  140.6710   76.3690  222.2110 C   0  0  0  0  0  0  0  0  0  0  0  0
  141.4830   75.3580  221.6270 N   0  0  0  0  0  0  0  0  0  0  0  0
  141.0310   74.0130  221.5920 C   0  0  0  0  0  0  0  0  0  0  0  0
  141.0040   73.3900  220.3800 N   0  0  0  0  0  0  0  0  0  0  0  0
  140.5760   72.1110  220.3440 C   0  0  0  0  0  0  0  0  0  0  0  0
  140.5440   71.4510  219.0890 N   0  0  0  0  0  0  0  0  0  0  0  0
  141.0550   70.0980  219.0350 C   0  0  0  0  0  0  0  0  0  0  0  0
  141.1340   69.5210  217.6670 C   0  0  0  0  0  0  0  0  0  0  0  0
  140.2240   70.1130  216.7090 N   0  0  0  0  0  0  0  0  0  0  0  0
  140.3510   71.5470  216.6410 C   0  0  0  0  0  0  0  0  0  0  0  0
  140.0100   72.1620  217.9610 C   0  0  0  0  0  0  0  0  0  0  0  0
  140.1930   71.4980  221.4920 N   0  0  0  0  0  0  0  0  0  0  0  0
  140.2200   72.1130  222.6850 C   0  0  0  0  0  0  0  0  0  0  0  0
  139.8150   71.4620  223.8880 N   0  0  0  0  0  0  0  0  0  0  0  0
  138.5890   70.6830  223.8930 C   0  0  0  0  0  0  0  0  0  0  0  0
  139.0290   69.2440  224.1630 C   0  0  0  0  0  0  0  0  0  0  0  0
  139.6950   69.2820  225.4960 C   0  0  0  0  0  0  0  0  0  0  0  0
  139.5670   68.1850  226.3480 C   0  0  0  0  0  0  0  0  0  0  0  0
  140.1670   68.1690  227.6020 C   0  0  0  0  0  0  0  0  0  0  0  0
  140.8980   69.2680  227.9940 C   0  0  0  0  0  0  0  0  0  0  0  0
  141.0390   70.3750  227.1550 C   0  0  0  0  0  0  0  0  0  0  0  0
  140.4310   70.3750  225.9010 C   0  0  0  0  0  0  0  0  0  0  0  0
  140.6300   71.5880  225.0760 C   0  0  0  0  0  0  0  0  0  0  0  0
  140.6490   73.3870  222.7040 N   0  0  0  0  0  0  0  0  0  0  0  0
  141.0700   77.7690  222.2830 C   0  0  0  0  0  0  0  0  0  0  0  0
  141.4440   78.2810  223.4950 C   0  0  0  0  0  0  0  0  0  0  0  0
  141.8390   79.5930  223.6700 C   0  0  0  0  0  0  0  0  0  0  0  0
  141.8550   80.4300  222.5570 C   0  0  0  0  0  0  0  0  0  0  0  0
  141.4780   79.9290  221.3140 C   0  0  0  0  0  0  0  0  0  0  0  0
  141.0900   78.6080  221.1880 C   0  0  0  0  0  0  0  0  0  0  0  0
  142.4030   75.5990  221.2290 H   0  0  0  0  0  0  0  0  0  0  0  0
  142.0664   70.0956  219.4675 H   0  0  0  0  0  0  0  0  0  0  0  0
  140.3445   69.4735  219.5965 H   0  0  0  0  0  0  0  0  0  0  0  0
  142.1602   69.6585  217.2955 H   0  0  0  0  0  0  0  0  0  0  0  0
  140.8458   68.4633  217.7580 H   0  0  0  0  0  0  0  0  0  0  0  0
  140.5130   69.7320  215.7690 H   0  0  0  0  0  0  0  0  0  0  0  0
  141.3864   71.8073  216.3761 H   0  0  0  0  0  0  0  0  0  0  0  0
  139.6585   71.9315  215.8778 H   0  0  0  0  0  0  0  0  0  0  0  0
  140.4072   73.1877  217.9783 H   0  0  0  0  0  0  0  0  0  0  0  0
  138.9143   72.1321  218.0540 H   0  0  0  0  0  0  0  0  0  0  0  0
  137.9120   71.0344  224.6856 H   0  0  0  0  0  0  0  0  0  0  0  0
  138.0405   70.7738  222.9438 H   0  0  0  0  0  0  0  0  0  0  0  0
  138.1582   68.5723  224.1860 H   0  0  0  0  0  0  0  0  0  0  0  0
  139.7010   68.8657  223.3785 H   0  0  0  0  0  0  0  0  0  0  0  0
  138.9792   67.3146  226.0210 H   0  0  0  0  0  0  0  0  0  0  0  0
  140.0602   67.2984  228.2658 H   0  0  0  0  0  0  0  0  0  0  0  0
  141.3783   69.2739  228.9836 H   0  0  0  0  0  0  0  0  0  0  0  0
  141.6280   71.2443  227.4827 H   0  0  0  0  0  0  0  0  0  0  0  0
  140.3256   72.4794  225.6441 H   0  0  0  0  0  0  0  0  0  0  0  0
  141.6901   71.6926  224.8016 H   0  0  0  0  0  0  0  0  0  0  0  0
  141.4295   77.6166  224.3716 H   0  0  0  0  0  0  0  0  0  0  0  0
  142.1331   79.9667  224.6619 H   0  0  0  0  0  0  0  0  0  0  0  0
  142.1637   81.4808  222.6594 H   0  0  0  0  0  0  0  0  0  0  0  0
  141.4888   80.5850  220.4310 H   0  0  0  0  0  0  0  0  0  0  0  0
  140.7934   78.2209  220.2020 H   0  0  0  0  0  0  0  0  0  0  0  0
  1  2  2  0
  2  3  1  0
  3  4  1  0
  4  5  2  0
  5  6  1  0
  6  7  1  0
  7  8  1  0
  8  9  1  0
  9 10  1  0
 10 11  1  0
 11 12  1  0
  6 13  2  0
 13 14  1  0
 14 15  1  0
 15 16  1  0
 16 17  1  0
 17 18  1  0
 18 19  2  0
 19 20  1  0
 20 21  2  0
 21 22  1  0
 22 23  2  0
 23 24  1  0
 14 25  2  0
  2 26  1  0
 26 27  2  0
 27 28  1  0
 28 29  2  0
 29 30  1  0
 30 31  2  0
 25  4  1  0
 31 26  1  0
 12  7  1  0
 24 15  1  0
 23 18  1  0
  3 32  1  0
  8 33  1  0
  8 34  1  0
  9 35  1  0
  9 36  1  0
 10 37  1  0
 11 38  1  0
 11 39  1  0
 12 40  1  0
 12 41  1  0
 16 42  1  0
 16 43  1  0
 17 44  1  0
 17 45  1  0
 19 46  1  0
 20 47  1  0
 21 48  1  0
 22 49  1  0
 24 50  1  0
 24 51  1  0
 27 52  1  0
 28 53  1  0
 29 54  1  0
 30 55  1  0
 31 56  1  0
M  END
>  <smiles>  (49) 
O=C(Nc1nc(N2CCNCC2)nc(N2CCc3ccccc3C2)n1)c1ccccc1

>  <score_type>  (49) 
oracle

>  <origin>  (49) 
autodockgpu

>  <m_score__min__energy>  (49) 
-8.7400000000000002

>  <m_primary>  (49) 
energy

>  <rmsd>  (49) 
3.835993750954669

>  <m_score__min__rmsd>  (49) 
3.835993750954669

>  <meeko>  (49) 
{"free_energy": -8.74, "intermolecular_energy": -9.93, "internal_energy": -0.8, "cluster_size": 49, "cluster_id": 1, "rank_in_cluster": 4}

>  <energy>  (49) 
-7.75

>  <cluster_rmsd>  (49) 
1.97

>  <cluster>  (49) 
1

$$$$

     RDKit          3D

 56 60  0  0  0  0  0  0  0  0999 V2000
  139.5040   76.1710  222.5380 O   0  0  0  0  0  0  0  0  0  0  0  0
  140.6670   76.4020  222.1620 C   0  0  0  0  0  0  0  0  0  0  0  0
  141.4530   75.3270  221.6630 N   0  0  0  0  0  0  0  0  0  0  0  0
  140.9100   74.0160  221.5990 C   0  0  0  0  0  0  0  0  0  0  0  0
  140.7400   73.4640  220.3650 N   0  0  0  0  0  0  0  0  0  0  0  0
  140.2250   72.2190  220.3030 C   0  0  0  0  0  0  0  0  0  0  0  0
  140.0430   71.6330  219.0250 N   0  0  0  0  0  0  0  0  0  0  0  0
  139.3160   70.3830  218.9620 C   0  0  0  0  0  0  0  0  0  0  0  0
  139.2940   69.7470  217.6190 C   0  0  0  0  0  0  0  0  0  0  0  0
  139.4820   70.6640  216.5140 N   0  0  0  0  0  0  0  0  0  0  0  0
  140.6740   71.4600  216.6560 C   0  0  0  0  0  0  0  0  0  0  0  0
  140.5870   72.3130  217.8820 C   0  0  0  0  0  0  0  0  0  0  0  0
  139.8990   71.5680  221.4480 N   0  0  0  0  0  0  0  0  0  0  0  0
  140.0670   72.1130  222.6630 C   0  0  0  0  0  0  0  0  0  0  0  0
  139.7220   71.4230  223.8630 N   0  0  0  0  0  0  0  0  0  0  0  0
  138.5780   70.5290  223.8600 C   0  0  0  0  0  0  0  0  0  0  0  0
  139.1540   69.1380  224.1300 C   0  0  0  0  0  0  0  0  0  0  0  0
  139.8070   69.2380  225.4660 C   0  0  0  0  0  0  0  0  0  0  0  0
  139.7820   68.1320  226.3150 C   0  0  0  0  0  0  0  0  0  0  0  0
  140.3750   68.1710  227.5730 C   0  0  0  0  0  0  0  0  0  0  0  0
  140.9940   69.3350  227.9700 C   0  0  0  0  0  0  0  0  0  0  0  0
  141.0300   70.4520  227.1340 C   0  0  0  0  0  0  0  0  0  0  0  0
  140.4310   70.3960  225.8770 C   0  0  0  0  0  0  0  0  0  0  0  0
  140.5150   71.6250  225.0560 C   0  0  0  0  0  0  0  0  0  0  0  0
  140.5810   73.3540  222.7080 N   0  0  0  0  0  0  0  0  0  0  0  0
  141.1590   77.7710  222.2550 C   0  0  0  0  0  0  0  0  0  0  0  0
  141.4590   78.2740  223.4910 C   0  0  0  0  0  0  0  0  0  0  0  0
  141.9310   79.5570  223.6880 C   0  0  0  0  0  0  0  0  0  0  0  0
  142.1060   80.3730  222.5730 C   0  0  0  0  0  0  0  0  0  0  0  0
  141.8060   79.8810  221.3060 C   0  0  0  0  0  0  0  0  0  0  0  0
  141.3370   78.5880  221.1580 C   0  0  0  0  0  0  0  0  0  0  0  0
  142.4190   75.4940  221.3460 H   0  0  0  0  0  0  0  0  0  0  0  0
  139.7820   69.6792  219.6673 H   0  0  0  0  0  0  0  0  0  0  0  0
  138.2710   70.6172  219.2131 H   0  0  0  0  0  0  0  0  0  0  0  0
  140.0969   68.9960  217.5819 H   0  0  0  0  0  0  0  0  0  0  0  0
  138.2908   69.3128  217.4963 H   0  0  0  0  0  0  0  0  0  0  0  0
  139.6140   70.0580  215.6600 H   0  0  0  0  0  0  0  0  0  0  0  0
  141.5465   70.7951  216.7379 H   0  0  0  0  0  0  0  0  0  0  0  0
  140.7765   72.1103  215.7748 H   0  0  0  0  0  0  0  0  0  0  0  0
  141.5995   72.6608  218.1349 H   0  0  0  0  0  0  0  0  0  0  0  0
  139.9031   73.1420  217.6473 H   0  0  0  0  0  0  0  0  0  0  0  0
  137.8660   70.8114  224.6495 H   0  0  0  0  0  0  0  0  0  0  0  0
  138.0286   70.5683  222.9079 H   0  0  0  0  0  0  0  0  0  0  0  0
  138.3521   68.3853  224.1480 H   0  0  0  0  0  0  0  0  0  0  0  0
  139.8628   68.8277  223.3482 H   0  0  0  0  0  0  0  0  0  0  0  0
  139.2830   67.2095  225.9832 H   0  0  0  0  0  0  0  0  0  0  0  0
  140.3499   67.2927  228.2347 H   0  0  0  0  0  0  0  0  0  0  0  0
  141.4676   69.3854  228.9616 H   0  0  0  0  0  0  0  0  0  0  0  0
  141.5297   71.3739  227.4663 H   0  0  0  0  0  0  0  0  0  0  0  0
  140.1221   72.4808  225.6245 H   0  0  0  0  0  0  0  0  0  0  0  0
  141.5612   71.8336  224.7877 H   0  0  0  0  0  0  0  0  0  0  0  0
  141.3178   77.6266  224.3690 H   0  0  0  0  0  0  0  0  0  0  0  0
  142.1625   79.9245  224.6986 H   0  0  0  0  0  0  0  0  0  0  0  0
  142.4793   81.4007  222.6930 H   0  0  0  0  0  0  0  0  0  0  0  0
  141.9420   80.5209  220.4216 H   0  0  0  0  0  0  0  0  0  0  0  0
  141.1031   78.2067  220.1531 H   0  0  0  0  0  0  0  0  0  0  0  0
  1  2  2  0
  2  3  1  0
  3  4  1  0
  4  5  2  0
  5  6  1  0
  6  7  1  0
  7  8  1  0
  8  9  1  0
  9 10  1  0
 10 11  1  0
 11 12  1  0
  6 13  2  0
 13 14  1  0
 14 15  1  0
 15 16  1  0
 16 17  1  0
 17 18  1  0
 18 19  2  0
 19 20  1  0
 20 21  2  0
 21 22  1  0
 22 23  2  0
 23 24  1  0
 14 25  2  0
  2 26  1  0
 26 27  2  0
 27 28  1  0
 28 29  2  0
 29 30  1  0
 30 31  2  0
 25  4  1  0
 31 26  1  0
 12  7  1  0
 24 15  1  0
 23 18  1  0
  3 32  1  0
  8 33  1  0
  8 34  1  0
  9 35  1  0
  9 36  1  0
 10 37  1  0
 11 38  1  0
 11 39  1  0
 12 40  1  0
 12 41  1  0
 16 42  1  0
 16 43  1  0
 17 44  1  0
 17 45  1  0
 19 46  1  0
 20 47  1  0
 21 48  1  0
 22 49  1  0
 24 50  1  0
 24 51  1  0
 27 52  1  0
 28 53  1  0
 29 54  1  0
 30 55  1  0
 31 56  1  0
M  END
>  <smiles>  (50) 
O=C(Nc1nc(N2CCNCC2)nc(N2CCc3ccccc3C2)n1)c1ccccc1

>  <score_type>  (50) 
oracle

>  <origin>  (50) 
autodockgpu

>  <m_score__min__energy>  (50) 
-8.7400000000000002

>  <m_primary>  (50) 
energy

>  <rmsd>  (50) 
3.840716071472392

>  <m_score__min__rmsd>  (50) 
3.840716071472392

>  <meeko>  (50) 
{"free_energy": -8.71, "intermolecular_energy": -9.9, "internal_energy": -0.82, "cluster_size": 49, "cluster_id": 1, "rank_in_cluster": 29}

>  <energy>  (50) 
-8.24

>  <cluster_rmsd>  (50) 
0.0

>  <cluster>  (50) 
2

$$$$
