
     RDKit          3D

 61 64  0  0  1  0  0  0  0  0999 V2000
  142.2690   77.0990  220.1350 C   0  0  0  0  0  0  0  0  0  0  0  0
  141.1810   78.1410  220.4050 C   0  0  1  0  0  0  0  0  0  0  0  0
  139.9310   77.4550  220.6710 N   0  0  0  0  0  0  0  0  0  0  0  0
  139.2730   76.7960  219.5960 C   0  0  0  0  0  0  0  0  0  0  0  0
  139.7690   76.8120  218.4410 O   0  0  0  0  0  0  0  0  0  0  0  0
  137.9910   76.1070  219.9220 C   0  0  2  0  0  0  0  0  0  0  0  0
  136.8050   76.9310  219.5790 C   0  0  0  0  0  0  0  0  0  0  0  0
  136.6440   78.1880  220.4100 C   0  0  0  0  0  0  0  0  0  0  0  0
  136.9540   77.9120  221.8760 C   0  0  0  0  0  0  0  0  0  0  0  0
  136.8500   76.4150  222.0730 C   0  0  0  0  0  0  0  0  0  0  0  0
  137.9510   75.7990  221.3770 N   0  0  0  0  0  0  0  0  0  0  0  0
  138.9580   74.9890  221.8690 C   0  0  0  0  0  0  0  0  0  0  0  0
  139.8110   75.5930  222.6720 O   0  0  0  0  0  0  0  0  0  0  0  0
  139.2820   73.5810  221.6790 C   0  0  0  0  0  0  0  0  0  0  0  0
  139.5060   72.7310  222.7860 N   0  0  0  0  0  0  0  0  0  0  0  0
  139.1380   71.3460  222.7650 C   0  0  0  0  0  0  0  0  0  0  0  0
  138.6030   70.9310  221.7120 O   0  0  0  0  0  0  0  0  0  0  0  0
  139.3870   70.4790  223.9270 C   0  0  0  0  0  0  0  0  0  0  0  0
  138.9950   69.1620  223.8180 C   0  0  0  0  0  0  0  0  0  0  0  0
  139.2360   68.3550  224.9250 C   0  0  0  0  0  0  0  0  0  0  0  0
  139.8410   68.8600  226.0740 C   0  0  0  0  0  0  0  0  0  0  0  0
  140.0730   68.0270  227.1720 C   0  0  0  0  0  0  0  0  0  0  0  0
  140.6810   68.5690  228.3080 C   0  0  0  0  0  0  0  0  0  0  0  0
  140.9290   67.7920  229.4090 F   0  0  0  0  0  0  0  0  0  0  0  0
  141.0500   69.9030  228.3480 C   0  0  0  0  0  0  0  0  0  0  0  0
  140.8150   70.7270  227.2460 C   0  0  0  0  0  0  0  0  0  0  0  0
  140.2090   70.1900  226.1150 C   0  0  0  0  0  0  0  0  0  0  0  0
  139.9720   70.9670  225.0380 N   0  0  0  0  0  0  0  0  0  0  0  0
  141.6080   78.8590  221.6580 C   0  0  0  0  0  0  0  0  0  0  0  0
  141.4260   78.2730  222.8870 C   0  0  0  0  0  0  0  0  0  0  0  0
  141.7930   78.8770  224.0650 C   0  0  0  0  0  0  0  0  0  0  0  0
  142.3710   80.1370  223.9620 C   0  0  0  0  0  0  0  0  0  0  0  0
  142.5640   80.7440  222.7340 C   0  0  0  0  0  0  0  0  0  0  0  0
  142.1810   80.1090  221.5480 C   0  0  0  0  0  0  0  0  0  0  0  0
  142.6618   76.7228  221.0911 H   0  0  0  0  0  0  0  0  0  0  0  0
  141.8424   76.2640  219.5599 H   0  0  0  0  0  0  0  0  0  0  0  0
  143.0848   77.5613  219.5599 H   0  0  0  0  0  0  0  0  0  0  0  0
  141.0467   78.8266  219.5553 H   0  0  0  0  0  0  0  0  0  0  0  0
  139.5480   77.4610  221.6310 H   0  0  0  0  0  0  0  0  0  0  0  0
  137.9527   75.1862  219.3215 H   0  0  0  0  0  0  0  0  0  0  0  0
  136.8876   77.2270  218.5228 H   0  0  0  0  0  0  0  0  0  0  0  0
  135.9232   76.3069  219.7865 H   0  0  0  0  0  0  0  0  0  0  0  0
  137.3332   78.9589  220.0348 H   0  0  0  0  0  0  0  0  0  0  0  0
  135.6025   78.5326  220.3291 H   0  0  0  0  0  0  0  0  0  0  0  0
  137.9702   78.2558  222.1190 H   0  0  0  0  0  0  0  0  0  0  0  0
  136.2523   78.4454  222.5341 H   0  0  0  0  0  0  0  0  0  0  0  0
  136.9041   76.1745  223.1450 H   0  0  0  0  0  0  0  0  0  0  0  0
  135.8922   76.0426  221.6806 H   0  0  0  0  0  0  0  0  0  0  0  0
  138.4487   73.1420  221.1108 H   0  0  0  0  0  0  0  0  0  0  0  0
  140.2717   73.6223  221.2007 H   0  0  0  0  0  0  0  0  0  0  0  0
  139.9510   73.0440  223.6990 H   0  0  0  0  0  0  0  0  0  0  0  0
  138.5184   68.7712  222.9069 H   0  0  0  0  0  0  0  0  0  0  0  0
  138.9426   67.2953  224.8926 H   0  0  0  0  0  0  0  0  0  0  0  0
  139.7830   66.9663  227.1428 H   0  0  0  0  0  0  0  0  0  0  0  0
  141.5288   70.3138  229.2491 H   0  0  0  0  0  0  0  0  0  0  0  0
  141.1054   71.7877  227.2717 H   0  0  0  0  0  0  0  0  0  0  0  0
  140.9655   77.2749  222.9298 H   0  0  0  0  0  0  0  0  0  0  0  0
  141.6376   78.3892  225.0386 H   0  0  0  0  0  0  0  0  0  0  0  0
  142.6817   80.6628  224.8769 H   0  0  0  0  0  0  0  0  0  0  0  0
  143.0258   81.7414  222.6895 H   0  0  0  0  0  0  0  0  0  0  0  0
  142.3305   80.5865  220.5684 H   0  0  0  0  0  0  0  0  0  0  0  0
  1  2  1  0
  2  3  1  0
  3  4  1  0
  4  5  2  0
  4  6  1  0
  6  7  1  0
  7  8  1  0
  8  9  1  0
  9 10  1  0
 10 11  1  0
 11 12  1  0
 12 13  2  0
 12 14  1  0
 14 15  1  0
 15 16  1  0
 16 17  2  0
 16 18  1  0
 18 19  2  0
 19 20  1  0
 20 21  2  0
 21 22  1  0
 22 23  2  0
 23 24  1  0
 23 25  1  0
 25 26  2  0
 26 27  1  0
 27 28  2  0
  2 29  1  0
 29 30  2  0
 30 31  1  0
 31 32  2  0
 32 33  1  0
 33 34  2  0
 11  6  1  0
 28 18  1  0
 34 29  1  0
 27 21  1  0
  1 35  1  0
  1 36  1  0
  1 37  1  0
  2 38  1  6
  3 39  1  0
  6 40  1  6
  7 41  1  0
  7 42  1  0
  8 43  1  0
  8 44  1  0
  9 45  1  0
  9 46  1  0
 10 47  1  0
 10 48  1  0
 14 49  1  0
 14 50  1  0
 15 51  1  0
 19 52  1  0
 20 53  1  0
 22 54  1  0
 25 55  1  0
 26 56  1  0
 30 57  1  0
 31 58  1  0
 32 59  1  0
 33 60  1  0
 34 61  1  0
M  END
>  <smiles>  (1) 
C[C@@H](NC(=O)C1CCCCN1C(=O)CNC(=O)c1ccc2cc(F)ccc2n1)c1ccccc1

>  <score_type>  (1) 
oracle

>  <origin>  (1) 
autodockgpu

>  <m_score__min__energy>  (1) 
-9.4299999999999997

>  <m_primary>  (1) 
energy

>  <rmsd>  (1) 
3.2066700334842833

>  <m_score__min__rmsd>  (1) 
3.2066700334842833

>  <meeko>  (1) 
{"free_energy": -8.17, "intermolecular_energy": -10.26, "internal_energy": -3.06, "cluster_size": 32, "cluster_id": 1, "rank_in_cluster": 27}

>  <energy>  (1) 
-9.43

>  <cluster_rmsd>  (1) 
0.0

>  <cluster>  (1) 
1

$$$$

     RDKit          3D

 61 64  0  0  1  0  0  0  0  0999 V2000
  139.2940   78.7130  220.4490 C   0  0  0  0  0  0  0  0  0  0  0  0
  139.9290   77.8770  221.5630 C   0  0  1  0  0  0  0  0  0  0  0  0
  140.5980   76.7360  220.9680 N   0  0  0  0  0  0  0  0  0  0  0  0
  140.5260   75.4800  221.6310 C   0  0  0  0  0  0  0  0  0  0  0  0
  139.8930   75.3680  222.7120 O   0  0  0  0  0  0  0  0  0  0  0  0
  141.2310   74.3400  220.9790 C   0  0  2  0  0  0  0  0  0  0  0  0
  142.6780   74.6080  220.7860 C   0  0  0  0  0  0  0  0  0  0  0  0
  142.9920   75.7110  219.7940 C   0  0  0  0  0  0  0  0  0  0  0  0
  142.0880   75.6140  218.5730 C   0  0  0  0  0  0  0  0  0  0  0  0
  141.5320   74.2060  218.5470 C   0  0  0  0  0  0  0  0  0  0  0  0
  140.6160   74.0730  219.6510 N   0  0  0  0  0  0  0  0  0  0  0  0
  139.2730   73.7480  219.6430 C   0  0  0  0  0  0  0  0  0  0  0  0
  138.7300   73.6680  218.4430 O   0  0  0  0  0  0  0  0  0  0  0  0
  138.3100   73.4720  220.7010 C   0  0  0  0  0  0  0  0  0  0  0  0
  138.7160   72.8680  221.9130 N   0  0  0  0  0  0  0  0  0  0  0  0
  138.8480   71.4470  222.0450 C   0  0  0  0  0  0  0  0  0  0  0  0
  138.5800   70.7690  221.0270 O   0  0  0  0  0  0  0  0  0  0  0  0
  139.2790   70.8400  223.3140 C   0  0  0  0  0  0  0  0  0  0  0  0
  139.1180   69.4780  223.4410 C   0  0  0  0  0  0  0  0  0  0  0  0
  139.5290   68.9200  224.6470 C   0  0  0  0  0  0  0  0  0  0  0  0
  140.0720   69.7030  225.6620 C   0  0  0  0  0  0  0  0  0  0  0  0
  140.4780   69.1160  226.8640 C   0  0  0  0  0  0  0  0  0  0  0  0
  141.0180   69.9350  227.8600 C   0  0  0  0  0  0  0  0  0  0  0  0
  141.4300   69.4060  229.0560 F   0  0  0  0  0  0  0  0  0  0  0  0
  141.1510   71.2990  227.6640 C   0  0  0  0  0  0  0  0  0  0  0  0
  140.7440   71.8760  226.4600 C   0  0  0  0  0  0  0  0  0  0  0  0
  140.2050   71.0630  225.4680 C   0  0  0  0  0  0  0  0  0  0  0  0
  139.8040   71.5990  224.2960 N   0  0  0  0  0  0  0  0  0  0  0  0
  140.9680   78.7640  222.1950 C   0  0  0  0  0  0  0  0  0  0  0  0
  141.2580   78.6460  223.5330 C   0  0  0  0  0  0  0  0  0  0  0  0
  142.1940   79.4250  224.1670 C   0  0  0  0  0  0  0  0  0  0  0  0
  142.8550   80.3620  223.3810 C   0  0  0  0  0  0  0  0  0  0  0  0
  142.5790   80.4980  222.0320 C   0  0  0  0  0  0  0  0  0  0  0  0
  141.6200   79.6920  221.4100 C   0  0  0  0  0  0  0  0  0  0  0  0
  138.6854   79.5143  220.8934 H   0  0  0  0  0  0  0  0  0  0  0  0
  140.0854   79.1560  219.8265 H   0  0  0  0  0  0  0  0  0  0  0  0
  138.6549   78.0695  219.8265 H   0  0  0  0  0  0  0  0  0  0  0  0
  139.1830   77.5239  222.2902 H   0  0  0  0  0  0  0  0  0  0  0  0
  141.1110   76.8610  220.0790 H   0  0  0  0  0  0  0  0  0  0  0  0
  141.1304   73.4696  221.6441 H   0  0  0  0  0  0  0  0  0  0  0  0
  143.1068   74.8901  221.7589 H   0  0  0  0  0  0  0  0  0  0  0  0
  143.1120   73.6858  220.3723 H   0  0  0  0  0  0  0  0  0  0  0  0
  142.8393   76.6864  220.2791 H   0  0  0  0  0  0  0  0  0  0  0  0
  144.0372   75.6047  219.4680 H   0  0  0  0  0  0  0  0  0  0  0  0
  141.2679   76.3430  218.6508 H   0  0  0  0  0  0  0  0  0  0  0  0
  142.6470   75.8332  217.6513 H   0  0  0  0  0  0  0  0  0  0  0  0
  141.0030   74.0302  217.5987 H   0  0  0  0  0  0  0  0  0  0  0  0
  142.3454   73.4704  218.6323 H   0  0  0  0  0  0  0  0  0  0  0  0
  137.8542   74.4366  220.9691 H   0  0  0  0  0  0  0  0  0  0  0  0
  137.6670   72.7022  220.2494 H   0  0  0  0  0  0  0  0  0  0  0  0
  138.9470   73.4050  222.8010 H   0  0  0  0  0  0  0  0  0  0  0  0
  138.6886   68.8660  222.6341 H   0  0  0  0  0  0  0  0  0  0  0  0
  139.4227   67.8362  224.8022 H   0  0  0  0  0  0  0  0  0  0  0  0
  140.3747   68.0324  227.0228 H   0  0  0  0  0  0  0  0  0  0  0  0
  141.5780   71.9289  228.4582 H   0  0  0  0  0  0  0  0  0  0  0  0
  140.8480   72.9590  226.2977 H   0  0  0  0  0  0  0  0  0  0  0  0
  140.7153   77.8929  224.1232 H   0  0  0  0  0  0  0  0  0  0  0  0
  142.4095   79.3137  225.2399 H   0  0  0  0  0  0  0  0  0  0  0  0
  143.6148   81.0101  223.8421 H   0  0  0  0  0  0  0  0  0  0  0  0
  143.1213   81.2504  221.4406 H   0  0  0  0  0  0  0  0  0  0  0  0
  141.3948   79.7940  220.3381 H   0  0  0  0  0  0  0  0  0  0  0  0
  1  2  1  0
  2  3  1  0
  3  4  1  0
  4  5  2  0
  4  6  1  0
  6  7  1  0
  7  8  1  0
  8  9  1  0
  9 10  1  0
 10 11  1  0
 11 12  1  0
 12 13  2  0
 12 14  1  0
 14 15  1  0
 15 16  1  0
 16 17  2  0
 16 18  1  0
 18 19  2  0
 19 20  1  0
 20 21  2  0
 21 22  1  0
 22 23  2  0
 23 24  1  0
 23 25  1  0
 25 26  2  0
 26 27  1  0
 27 28  2  0
  2 29  1  0
 29 30  2  0
 30 31  1  0
 31 32  2  0
 32 33  1  0
 33 34  2  0
 11  6  1  0
 28 18  1  0
 34 29  1  0
 27 21  1  0
  1 35  1  0
  1 36  1  0
  1 37  1  0
  2 38  1  1
  3 39  1  0
  6 40  1  1
  7 41  1  0
  7 42  1  0
  8 43  1  0
  8 44  1  0
  9 45  1  0
  9 46  1  0
 10 47  1  0
 10 48  1  0
 14 49  1  0
 14 50  1  0
 15 51  1  0
 19 52  1  0
 20 53  1  0
 22 54  1  0
 25 55  1  0
 26 56  1  0
 30 57  1  0
 31 58  1  0
 32 59  1  0
 33 60  1  0
 34 61  1  0
M  END
>  <smiles>  (2) 
C[C@@H](NC(=O)C1CCCCN1C(=O)CNC(=O)c1ccc2cc(F)ccc2n1)c1ccccc1

>  <score_type>  (2) 
oracle

>  <origin>  (2) 
autodockgpu

>  <m_score__min__energy>  (2) 
-9.4299999999999997

>  <m_primary>  (2) 
energy

>  <rmsd>  (2) 
2.8529904799433634

>  <m_score__min__rmsd>  (2) 
2.8529904799433634

>  <meeko>  (2) 
{"free_energy": -8.26, "intermolecular_energy": -10.35, "internal_energy": -2.98, "cluster_size": 32, "cluster_id": 1, "rank_in_cluster": 24}

>  <energy>  (2) 
-9.37

>  <cluster_rmsd>  (2) 
0.98

>  <cluster>  (2) 
1

$$$$

     RDKit          3D

 61 64  0  0  1  0  0  0  0  0999 V2000
  139.4110   78.6150  220.2720 C   0  0  0  0  0  0  0  0  0  0  0  0
  139.9640   77.7860  221.4330 C   0  0  1  0  0  0  0  0  0  0  0  0
  140.6540   76.6280  220.8940 N   0  0  0  0  0  0  0  0  0  0  0  0
  140.5590   75.3930  221.5910 C   0  0  0  0  0  0  0  0  0  0  0  0
  139.8900   75.3110  222.6530 O   0  0  0  0  0  0  0  0  0  0  0  0
  141.2860   74.2340  220.9970 C   0  0  2  0  0  0  0  0  0  0  0  0
  142.7310   74.5130  220.8090 C   0  0  0  0  0  0  0  0  0  0  0  0
  143.0440   75.5760  219.7740 C   0  0  0  0  0  0  0  0  0  0  0  0
  142.1550   75.4150  218.5480 C   0  0  0  0  0  0  0  0  0  0  0  0
  141.6170   74.0000  218.5770 C   0  0  0  0  0  0  0  0  0  0  0  0
  140.6900   73.9020  219.6760 N   0  0  0  0  0  0  0  0  0  0  0  0
  139.3510   73.5590  219.6660 C   0  0  0  0  0  0  0  0  0  0  0  0
  138.8010   73.5120  218.4680 O   0  0  0  0  0  0  0  0  0  0  0  0
  138.4000   73.2360  220.7220 C   0  0  0  0  0  0  0  0  0  0  0  0
  138.8450   72.8010  221.9910 N   0  0  0  0  0  0  0  0  0  0  0  0
  139.3000   71.4610  222.2160 C   0  0  0  0  0  0  0  0  0  0  0  0
  139.2780   70.6940  221.2260 O   0  0  0  0  0  0  0  0  0  0  0  0
  139.7640   71.0310  223.5440 C   0  0  0  0  0  0  0  0  0  0  0  0
  140.6230   71.8780  224.2110 C   0  0  0  0  0  0  0  0  0  0  0  0
  141.0530   71.4560  225.4640 C   0  0  0  0  0  0  0  0  0  0  0  0
  140.6330   70.2440  226.0060 C   0  0  0  0  0  0  0  0  0  0  0  0
  141.0800   69.8450  227.2690 C   0  0  0  0  0  0  0  0  0  0  0  0
  140.6380   68.6210  227.7800 C   0  0  0  0  0  0  0  0  0  0  0  0
  141.0490   68.1860  229.0130 F   0  0  0  0  0  0  0  0  0  0  0  0
  139.7730   67.8180  227.0540 C   0  0  0  0  0  0  0  0  0  0  0  0
  139.3320   68.2260  225.7950 C   0  0  0  0  0  0  0  0  0  0  0  0
  139.7710   69.4430  225.2840 C   0  0  0  0  0  0  0  0  0  0  0  0
  139.3580   69.8580  224.0680 N   0  0  0  0  0  0  0  0  0  0  0  0
  140.9740   78.6680  222.1170 C   0  0  0  0  0  0  0  0  0  0  0  0
  141.6550   79.6240  221.4030 C   0  0  0  0  0  0  0  0  0  0  0  0
  142.5880   80.4580  221.9700 C   0  0  0  0  0  0  0  0  0  0  0  0
  142.8220   80.2920  223.3300 C   0  0  0  0  0  0  0  0  0  0  0  0
  142.1480   79.3350  224.0680 C   0  0  0  0  0  0  0  0  0  0  0  0
  141.2020   78.4980  223.4670 C   0  0  0  0  0  0  0  0  0  0  0  0
  138.8418   79.4683  220.6692 H   0  0  0  0  0  0  0  0  0  0  0  0
  140.2440   78.9848  219.6560 H   0  0  0  0  0  0  0  0  0  0  0  0
  138.7497   77.9879  219.6560 H   0  0  0  0  0  0  0  0  0  0  0  0
  139.1698   77.4519  222.1168 H   0  0  0  0  0  0  0  0  0  0  0  0
  141.1960   76.7280  220.0200 H   0  0  0  0  0  0  0  0  0  0  0  0
  141.1887   73.3916  221.6976 H   0  0  0  0  0  0  0  0  0  0  0  0
  143.1442   74.8425  221.7737 H   0  0  0  0  0  0  0  0  0  0  0  0
  143.1812   73.5796  220.4401 H   0  0  0  0  0  0  0  0  0  0  0  0
  142.8743   76.5695  220.2146 H   0  0  0  0  0  0  0  0  0  0  0  0
  144.0942   75.4688  219.4647 H   0  0  0  0  0  0  0  0  0  0  0  0
  141.3251   76.1360  218.5854 H   0  0  0  0  0  0  0  0  0  0  0  0
  142.7216   75.6017  217.6238 H   0  0  0  0  0  0  0  0  0  0  0  0
  141.1010   73.7767  217.6315 H   0  0  0  0  0  0  0  0  0  0  0  0
  142.4388   73.2797  218.7030 H   0  0  0  0  0  0  0  0  0  0  0  0
  137.8024   74.1434  220.8937 H   0  0  0  0  0  0  0  0  0  0  0  0
  137.8892   72.3462  220.3253 H   0  0  0  0  0  0  0  0  0  0  0  0
  138.8740   73.4160  222.8580 H   0  0  0  0  0  0  0  0  0  0  0  0
  140.9499   72.8341  223.7763 H   0  0  0  0  0  0  0  0  0  0  0  0
  141.7400   72.0935  226.0398 H   0  0  0  0  0  0  0  0  0  0  0  0
  141.7653   70.4809  227.8487 H   0  0  0  0  0  0  0  0  0  0  0  0
  139.4338   66.8582  227.4707 H   0  0  0  0  0  0  0  0  0  0  0  0
  138.6455   67.5931  225.2135 H   0  0  0  0  0  0  0  0  0  0  0  0
  141.4436   79.7264  220.3284 H   0  0  0  0  0  0  0  0  0  0  0  0
  143.1216   81.2169  221.3790 H   0  0  0  0  0  0  0  0  0  0  0  0
  143.5597   80.9360  223.8310 H   0  0  0  0  0  0  0  0  0  0  0  0
  142.3591   79.2310  225.1425 H   0  0  0  0  0  0  0  0  0  0  0  0
  140.6619   77.7353  224.0471 H   0  0  0  0  0  0  0  0  0  0  0  0
  1  2  1  0
  2  3  1  0
  3  4  1  0
  4  5  2  0
  4  6  1  0
  6  7  1  0
  7  8  1  0
  8  9  1  0
  9 10  1  0
 10 11  1  0
 11 12  1  0
 12 13  2  0
 12 14  1  0
 14 15  1  0
 15 16  1  0
 16 17  2  0
 16 18  1  0
 18 19  2  0
 19 20  1  0
 20 21  2  0
 21 22  1  0
 22 23  2  0
 23 24  1  0
 23 25  1  0
 25 26  2  0
 26 27  1  0
 27 28  2  0
  2 29  1  0
 29 30  2  0
 30 31  1  0
 31 32  2  0
 32 33  1  0
 33 34  2  0
 11  6  1  0
 28 18  1  0
 34 29  1  0
 27 21  1  0
  1 35  1  0
  1 36  1  0
  1 37  1  0
  2 38  1  1
  3 39  1  0
  6 40  1  1
  7 41  1  0
  7 42  1  0
  8 43  1  0
  8 44  1  0
  9 45  1  0
  9 46  1  0
 10 47  1  0
 10 48  1  0
 14 49  1  0
 14 50  1  0
 15 51  1  0
 19 52  1  0
 20 53  1  0
 22 54  1  0
 25 55  1  0
 26 56  1  0
 30 57  1  0
 31 58  1  0
 32 59  1  0
 33 60  1  0
 34 61  1  0
M  END
>  <smiles>  (3) 
C[C@@H](NC(=O)C1CCCCN1C(=O)CNC(=O)c1ccc2cc(F)ccc2n1)c1ccccc1

>  <score_type>  (3) 
oracle

>  <origin>  (3) 
autodockgpu

>  <m_score__min__energy>  (3) 
-9.4299999999999997

>  <m_primary>  (3) 
energy

>  <rmsd>  (3) 
3.547587242668402

>  <m_score__min__rmsd>  (3) 
3.547587242668402

>  <meeko>  (3) 
{"free_energy": -8.61, "intermolecular_energy": -10.7, "internal_energy": -2.75, "cluster_size": 32, "cluster_id": 1, "rank_in_cluster": 16}

>  <energy>  (3) 
-9.25

>  <cluster_rmsd>  (3) 
1.49

>  <cluster>  (3) 
1

$$$$

     RDKit          3D

 61 64  0  0  1  0  0  0  0  0999 V2000
  141.6160   79.7030  223.8150 C   0  0  0  0  0  0  0  0  0  0  0  0
  141.0650   79.3630  222.4290 C   0  0  1  0  0  0  0  0  0  0  0  0
  141.7550   78.1900  221.9260 N   0  0  0  0  0  0  0  0  0  0  0  0
  141.7990   77.9750  220.5210 C   0  0  0  0  0  0  0  0  0  0  0  0
  141.2480   78.7870  219.7360 O   0  0  0  0  0  0  0  0  0  0  0  0
  142.5200   76.7550  220.0560 C   0  0  2  0  0  0  0  0  0  0  0  0
  143.2260   76.9740  218.7700 C   0  0  0  0  0  0  0  0  0  0  0  0
  142.3180   77.2090  217.5790 C   0  0  0  0  0  0  0  0  0  0  0  0
  141.1220   76.2670  217.6160 C   0  0  0  0  0  0  0  0  0  0  0  0
  141.4900   75.1240  218.5390 C   0  0  0  0  0  0  0  0  0  0  0  0
  141.5480   75.6430  219.8820 N   0  0  0  0  0  0  0  0  0  0  0  0
  140.8330   75.2610  221.0020 C   0  0  0  0  0  0  0  0  0  0  0  0
  141.3300   75.6850  222.1480 O   0  0  0  0  0  0  0  0  0  0  0  0
  139.6220   74.4710  221.1860 C   0  0  0  0  0  0  0  0  0  0  0  0
  139.4930   73.5830  222.2780 N   0  0  0  0  0  0  0  0  0  0  0  0
  140.3320   72.4310  222.4220 C   0  0  0  0  0  0  0  0  0  0  0  0
  141.1860   72.2510  221.5230 O   0  0  0  0  0  0  0  0  0  0  0  0
  140.1850   71.5240  223.5710 C   0  0  0  0  0  0  0  0  0  0  0  0
  139.5360   70.3290  223.3440 C   0  0  0  0  0  0  0  0  0  0  0  0
  139.4040   69.4840  224.4400 C   0  0  0  0  0  0  0  0  0  0  0  0
  139.9030   69.8340  225.6920 C   0  0  0  0  0  0  0  0  0  0  0  0
  139.7580   68.9650  226.7770 C   0  0  0  0  0  0  0  0  0  0  0  0
  140.2710   69.3520  228.0190 C   0  0  0  0  0  0  0  0  0  0  0  0
  140.1520   68.5340  229.1120 F   0  0  0  0  0  0  0  0  0  0  0  0
  140.9120   70.5690  228.1750 C   0  0  0  0  0  0  0  0  0  0  0  0
  141.0530   71.4300  227.0860 C   0  0  0  0  0  0  0  0  0  0  0  0
  140.5430   71.0480  225.8490 C   0  0  0  0  0  0  0  0  0  0  0  0
  140.6670   71.8640  224.7820 N   0  0  0  0  0  0  0  0  0  0  0  0
  139.6170   79.0090  222.6430 C   0  0  0  0  0  0  0  0  0  0  0  0
  138.7120   79.9810  222.9950 C   0  0  0  0  0  0  0  0  0  0  0  0
  137.3800   79.7220  223.2050 C   0  0  0  0  0  0  0  0  0  0  0  0
  136.9710   78.4030  223.0400 C   0  0  0  0  0  0  0  0  0  0  0  0
  137.8660   77.4100  222.6850 C   0  0  0  0  0  0  0  0  0  0  0  0
  139.2190   77.6990  222.4780 C   0  0  0  0  0  0  0  0  0  0  0  0
  140.9484   79.2911  224.5861 H   0  0  0  0  0  0  0  0  0  0  0  0
  142.6195   79.2669  223.9277 H   0  0  0  0  0  0  0  0  0  0  0  0
  141.6762   80.7956  223.9277 H   0  0  0  0  0  0  0  0  0  0  0  0
  141.1922   80.1938  221.7194 H   0  0  0  0  0  0  0  0  0  0  0  0
  142.1970   77.5400  222.5970 H   0  0  0  0  0  0  0  0  0  0  0  0
  143.2715   76.5073  220.8202 H   0  0  0  0  0  0  0  0  0  0  0  0
  143.8775   77.8532  218.8825 H   0  0  0  0  0  0  0  0  0  0  0  0
  143.7804   76.0476  218.5591 H   0  0  0  0  0  0  0  0  0  0  0  0
  141.9589   78.2486  217.5989 H   0  0  0  0  0  0  0  0  0  0  0  0
  142.8884   77.0183  216.6580 H   0  0  0  0  0  0  0  0  0  0  0  0
  140.2370   76.7944  218.0014 H   0  0  0  0  0  0  0  0  0  0  0  0
  140.8810   75.8972  216.6084 H   0  0  0  0  0  0  0  0  0  0  0  0
  140.7287   74.3325  218.4763 H   0  0  0  0  0  0  0  0  0  0  0  0
  142.4610   74.6950  218.2508 H   0  0  0  0  0  0  0  0  0  0  0  0
  138.7902   75.1866  221.2644 H   0  0  0  0  0  0  0  0  0  0  0  0
  139.6419   73.7912  220.3214 H   0  0  0  0  0  0  0  0  0  0  0  0
  138.7790   73.6950  223.0580 H   0  0  0  0  0  0  0  0  0  0  0  0
  139.1448   70.0594  222.3519 H   0  0  0  0  0  0  0  0  0  0  0  0
  138.8940   68.5174  224.3154 H   0  0  0  0  0  0  0  0  0  0  0  0
  139.2507   67.9964  226.6564 H   0  0  0  0  0  0  0  0  0  0  0  0
  141.3107   70.8577  229.1587 H   0  0  0  0  0  0  0  0  0  0  0  0
  141.5609   72.3986  227.2039 H   0  0  0  0  0  0  0  0  0  0  0  0
  139.0709   81.0140  223.1140 H   0  0  0  0  0  0  0  0  0  0  0  0
  136.6736   80.5160  223.4888 H   0  0  0  0  0  0  0  0  0  0  0  0
  135.9132   78.1440  223.1951 H   0  0  0  0  0  0  0  0  0  0  0  0
  137.5083   76.3769  222.5635 H   0  0  0  0  0  0  0  0  0  0  0  0
  139.9357   76.9139  222.1953 H   0  0  0  0  0  0  0  0  0  0  0  0
  1  2  1  0
  2  3  1  0
  3  4  1  0
  4  5  2  0
  4  6  1  0
  6  7  1  0
  7  8  1  0
  8  9  1  0
  9 10  1  0
 10 11  1  0
 11 12  1  0
 12 13  2  0
 12 14  1  0
 14 15  1  0
 15 16  1  0
 16 17  2  0
 16 18  1  0
 18 19  2  0
 19 20  1  0
 20 21  2  0
 21 22  1  0
 22 23  2  0
 23 24  1  0
 23 25  1  0
 25 26  2  0
 26 27  1  0
 27 28  2  0
  2 29  1  0
 29 30  2  0
 30 31  1  0
 31 32  2  0
 32 33  1  0
 33 34  2  0
 11  6  1  0
 28 18  1  0
 34 29  1  0
 27 21  1  0
  1 35  1  0
  1 36  1  0
  1 37  1  0
  2 38  1  6
  3 39  1  0
  6 40  1  1
  7 41  1  0
  7 42  1  0
  8 43  1  0
  8 44  1  0
  9 45  1  0
  9 46  1  0
 10 47  1  0
 10 48  1  0
 14 49  1  0
 14 50  1  0
 15 51  1  0
 19 52  1  0
 20 53  1  0
 22 54  1  0
 25 55  1  0
 26 56  1  0
 30 57  1  0
 31 58  1  0
 32 59  1  0
 33 60  1  0
 34 61  1  0
M  END
>  <smiles>  (4) 
C[C@@H](NC(=O)C1CCCCN1C(=O)CNC(=O)c1ccc2cc(F)ccc2n1)c1ccccc1

>  <score_type>  (4) 
oracle

>  <origin>  (4) 
autodockgpu

>  <m_score__min__energy>  (4) 
-9.4299999999999997

>  <m_primary>  (4) 
energy

>  <rmsd>  (4) 
2.474419633157076

>  <m_score__min__rmsd>  (4) 
2.474419633157076

>  <meeko>  (4) 
{"free_energy": -8.87, "intermolecular_energy": -10.96, "internal_energy": -2.65, "cluster_size": 32, "cluster_id": 1, "rank_in_cluster": 13}

>  <energy>  (4) 
-9.2

>  <cluster_rmsd>  (4) 
1.15

>  <cluster>  (4) 
1

$$$$

     RDKit          3D

 61 64  0  0  1  0  0  0  0  0999 V2000
  140.7230   80.6030  219.1050 C   0  0  0  0  0  0  0  0  0  0  0  0
  141.1250   79.3840  219.9370 C   0  0  1  0  0  0  0  0  0  0  0  0
  142.2490   78.7290  219.2950 N   0  0  0  0  0  0  0  0  0  0  0  0
  142.0780   77.4060  218.8040 C   0  0  0  0  0  0  0  0  0  0  0  0
  140.9730   76.8200  218.9280 O   0  0  0  0  0  0  0  0  0  0  0  0
  143.2640   76.7780  218.1540 C   0  0  2  0  0  0  0  0  0  0  0  0
  143.2450   76.9330  216.6780 C   0  0  0  0  0  0  0  0  0  0  0  0
  142.1330   76.1800  215.9750 C   0  0  0  0  0  0  0  0  0  0  0  0
  141.9550   74.7920  216.5760 C   0  0  0  0  0  0  0  0  0  0  0  0
  143.2310   74.4690  217.3240 C   0  0  0  0  0  0  0  0  0  0  0  0
  143.2960   75.3270  218.4800 N   0  0  0  0  0  0  0  0  0  0  0  0
  143.3710   74.9920  219.8190 C   0  0  0  0  0  0  0  0  0  0  0  0
  144.5960   74.8820  220.2940 O   0  0  0  0  0  0  0  0  0  0  0  0
  142.3600   74.7260  220.8340 C   0  0  0  0  0  0  0  0  0  0  0  0
  141.4250   75.7180  221.2060 N   0  0  0  0  0  0  0  0  0  0  0  0
  140.1770   75.3880  221.8280 C   0  0  0  0  0  0  0  0  0  0  0  0
  139.9580   74.1700  222.0200 O   0  0  0  0  0  0  0  0  0  0  0  0
  139.2210   76.4380  222.2130 C   0  0  0  0  0  0  0  0  0  0  0  0
  137.8840   76.1670  222.0200 C   0  0  0  0  0  0  0  0  0  0  0  0
  136.9930   77.1690  222.3880 C   0  0  0  0  0  0  0  0  0  0  0  0
  137.4380   78.3760  222.9210 C   0  0  0  0  0  0  0  0  0  0  0  0
  136.5220   79.3670  223.2840 C   0  0  0  0  0  0  0  0  0  0  0  0
  137.0060   80.5660  223.8160 C   0  0  0  0  0  0  0  0  0  0  0  0
  136.1460   81.5670  224.1850 F   0  0  0  0  0  0  0  0  0  0  0  0
  138.3650   80.7710  223.9830 C   0  0  0  0  0  0  0  0  0  0  0  0
  139.2730   79.7760  223.6190 C   0  0  0  0  0  0  0  0  0  0  0  0
  138.7930   78.5820  223.0890 C   0  0  0  0  0  0  0  0  0  0  0  0
  139.6520   77.6050  222.7290 N   0  0  0  0  0  0  0  0  0  0  0  0
  141.5840   79.9310  221.2630 C   0  0  0  0  0  0  0  0  0  0  0  0
  141.3770   81.2520  221.5760 C   0  0  0  0  0  0  0  0  0  0  0  0
  141.7720   81.8100  222.7670 C   0  0  0  0  0  0  0  0  0  0  0  0
  142.4070   80.9620  223.6680 C   0  0  0  0  0  0  0  0  0  0  0  0
  142.6250   79.6280  223.3720 C   0  0  0  0  0  0  0  0  0  0  0  0
  142.2130   79.0840  222.1510 C   0  0  0  0  0  0  0  0  0  0  0  0
  140.4500   81.4309  219.7758 H   0  0  0  0  0  0  0  0  0  0  0  0
  141.5679   80.9086  218.4704 H   0  0  0  0  0  0  0  0  0  0  0  0
  139.8620   80.3461  218.4704 H   0  0  0  0  0  0  0  0  0  0  0  0
  140.2981   78.6666  220.0443 H   0  0  0  0  0  0  0  0  0  0  0  0
  143.1450   79.2370  219.2100 H   0  0  0  0  0  0  0  0  0  0  0  0
  144.1582   77.2894  218.5398 H   0  0  0  0  0  0  0  0  0  0  0  0
  143.1331   78.0027  216.4475 H   0  0  0  0  0  0  0  0  0  0  0  0
  144.1896   76.5066  216.3092 H   0  0  0  0  0  0  0  0  0  0  0  0
  141.1935   76.7422  216.0815 H   0  0  0  0  0  0  0  0  0  0  0  0
  142.3970   76.0727  214.9126 H   0  0  0  0  0  0  0  0  0  0  0  0
  141.0995   74.7862  217.2675 H   0  0  0  0  0  0  0  0  0  0  0  0
  141.7590   74.0459  215.7919 H   0  0  0  0  0  0  0  0  0  0  0  0
  143.2223   73.4155  217.6405 H   0  0  0  0  0  0  0  0  0  0  0  0
  144.1058   74.6307  216.6771 H   0  0  0  0  0  0  0  0  0  0  0  0
  141.7768   73.8645  220.4766 H   0  0  0  0  0  0  0  0  0  0  0  0
  142.9601   74.6038  221.7477 H   0  0  0  0  0  0  0  0  0  0  0  0
  141.5680   76.7610  221.0560 H   0  0  0  0  0  0  0  0  0  0  0  0
  137.5405   75.2109  221.5982 H   0  0  0  0  0  0  0  0  0  0  0  0
  135.9135   77.0047  222.2552 H   0  0  0  0  0  0  0  0  0  0  0  0
  135.4415   79.2069  223.1537 H   0  0  0  0  0  0  0  0  0  0  0  0
  138.7296   81.7199  224.4034 H   0  0  0  0  0  0  0  0  0  0  0  0
  140.3539   79.9332  223.7492 H   0  0  0  0  0  0  0  0  0  0  0  0
  140.8714   81.8928  220.8386 H   0  0  0  0  0  0  0  0  0  0  0  0
  141.5955   82.8713  222.9962 H   0  0  0  0  0  0  0  0  0  0  0  0
  142.7431   81.3603  224.6367 H   0  0  0  0  0  0  0  0  0  0  0  0
  143.1301   78.9855  224.1082 H   0  0  0  0  0  0  0  0  0  0  0  0
  142.3836   78.0246  221.9092 H   0  0  0  0  0  0  0  0  0  0  0  0
  1  2  1  0
  2  3  1  0
  3  4  1  0
  4  5  2  0
  4  6  1  0
  6  7  1  0
  7  8  1  0
  8  9  1  0
  9 10  1  0
 10 11  1  0
 11 12  1  0
 12 13  2  0
 12 14  1  0
 14 15  1  0
 15 16  1  0
 16 17  2  0
 16 18  1  0
 18 19  2  0
 19 20  1  0
 20 21  2  0
 21 22  1  0
 22 23  2  0
 23 24  1  0
 23 25  1  0
 25 26  2  0
 26 27  1  0
 27 28  2  0
  2 29  1  0
 29 30  2  0
 30 31  1  0
 31 32  2  0
 32 33  1  0
 33 34  2  0
 11  6  1  0
 28 18  1  0
 34 29  1  0
 27 21  1  0
  1 35  1  0
  1 36  1  0
  1 37  1  0
  2 38  1  1
  3 39  1  0
  6 40  1  1
  7 41  1  0
  7 42  1  0
  8 43  1  0
  8 44  1  0
  9 45  1  0
  9 46  1  0
 10 47  1  0
 10 48  1  0
 14 49  1  0
 14 50  1  0
 15 51  1  0
 19 52  1  0
 20 53  1  0
 22 54  1  0
 25 55  1  0
 26 56  1  0
 30 57  1  0
 31 58  1  0
 32 59  1  0
 33 60  1  0
 34 61  1  0
M  END
>  <smiles>  (5) 
C[C@@H](NC(=O)C1CCCCN1C(=O)CNC(=O)c1ccc2cc(F)ccc2n1)c1ccccc1

>  <score_type>  (5) 
oracle

>  <origin>  (5) 
autodockgpu

>  <m_score__min__energy>  (5) 
-9.4299999999999997

>  <m_primary>  (5) 
energy

>  <rmsd>  (5) 
6.306039897673535

>  <m_score__min__rmsd>  (5) 
6.306039897673535

>  <meeko>  (5) 
{"free_energy": -7.13, "intermolecular_energy": -9.22, "internal_energy": -3.87, "cluster_size": 4, "cluster_id": 11, "rank_in_cluster": 1}

>  <energy>  (5) 
-9.15

>  <cluster_rmsd>  (5) 
0.2

>  <cluster>  (5) 
1

$$$$

     RDKit          3D

 61 64  0  0  1  0  0  0  0  0999 V2000
  138.3640   77.3370  222.2870 C   0  0  0  0  0  0  0  0  0  0  0  0
  139.7740   76.7440  222.3260 C   0  0  1  0  0  0  0  0  0  0  0  0
  139.9890   75.9680  221.1190 N   0  0  0  0  0  0  0  0  0  0  0  0
  140.6440   74.7110  221.2240 C   0  0  0  0  0  0  0  0  0  0  0  0
  141.0280   74.2850  222.3430 O   0  0  0  0  0  0  0  0  0  0  0  0
  140.8410   73.9540  219.9540 C   0  0  2  0  0  0  0  0  0  0  0  0
  142.0370   74.4130  219.2050 C   0  0  0  0  0  0  0  0  0  0  0  0
  141.9390   75.8220  218.6550 C   0  0  0  0  0  0  0  0  0  0  0  0
  140.5560   76.0820  218.0730 C   0  0  0  0  0  0  0  0  0  0  0  0
  139.9270   74.7290  217.8130 C   0  0  0  0  0  0  0  0  0  0  0  0
  139.6440   74.1210  219.0880 N   0  0  0  0  0  0  0  0  0  0  0  0
  138.4370   73.6910  219.6070 C   0  0  0  0  0  0  0  0  0  0  0  0
  137.6450   73.0890  218.7400 O   0  0  0  0  0  0  0  0  0  0  0  0
  137.8420   73.7680  220.9350 C   0  0  0  0  0  0  0  0  0  0  0  0
  138.4870   73.1940  222.0540 N   0  0  0  0  0  0  0  0  0  0  0  0
  138.5100   71.7780  222.2730 C   0  0  0  0  0  0  0  0  0  0  0  0
  137.9220   71.0760  221.4180 O   0  0  0  0  0  0  0  0  0  0  0  0
  139.1930   71.2020  223.4410 C   0  0  0  0  0  0  0  0  0  0  0  0
  140.2750   71.8950  223.9370 C   0  0  0  0  0  0  0  0  0  0  0  0
  140.9100   71.3370  225.0410 C   0  0  0  0  0  0  0  0  0  0  0  0
  140.4680   70.1430  225.6060 C   0  0  0  0  0  0  0  0  0  0  0  0
  141.1240   69.6040  226.7170 C   0  0  0  0  0  0  0  0  0  0  0  0
  140.6510   68.4030  227.2560 C   0  0  0  0  0  0  0  0  0  0  0  0
  141.2620   67.8350  228.3440 F   0  0  0  0  0  0  0  0  0  0  0  0
  139.5560   67.7590  226.7060 C   0  0  0  0  0  0  0  0  0  0  0  0
  138.9070   68.3060  225.5970 C   0  0  0  0  0  0  0  0  0  0  0  0
  139.3760   69.5000  225.0590 C   0  0  0  0  0  0  0  0  0  0  0  0
  138.7640   70.0470  223.9870 N   0  0  0  0  0  0  0  0  0  0  0  0
  140.7110   77.9220  222.3100 C   0  0  0  0  0  0  0  0  0  0  0  0
  141.3440   78.3180  223.4630 C   0  0  0  0  0  0  0  0  0  0  0  0
  142.2090   79.3840  223.5130 C   0  0  0  0  0  0  0  0  0  0  0  0
  142.4250   80.0630  222.3190 C   0  0  0  0  0  0  0  0  0  0  0  0
  141.7980   79.6810  221.1470 C   0  0  0  0  0  0  0  0  0  0  0  0
  140.9200   78.5910  221.1230 C   0  0  0  0  0  0  0  0  0  0  0  0
  138.0018   77.4893  223.3144 H   0  0  0  0  0  0  0  0  0  0  0  0
  138.3865   78.3019  221.7593 H   0  0  0  0  0  0  0  0  0  0  0  0
  137.6901   76.6461  221.7593 H   0  0  0  0  0  0  0  0  0  0  0  0
  139.9268   76.1006  223.2050 H   0  0  0  0  0  0  0  0  0  0  0  0
  139.6630   76.3460  220.2140 H   0  0  0  0  0  0  0  0  0  0  0  0
  140.9902   72.8976  220.2220 H   0  0  0  0  0  0  0  0  0  0  0  0
  142.9028   74.3692  219.8822 H   0  0  0  0  0  0  0  0  0  0  0  0
  142.1330   73.7465  218.3352 H   0  0  0  0  0  0  0  0  0  0  0  0
  142.1291   76.5397  219.4666 H   0  0  0  0  0  0  0  0  0  0  0  0
  142.6852   75.9404  217.8555 H   0  0  0  0  0  0  0  0  0  0  0  0
  139.9453   76.6519  218.7888 H   0  0  0  0  0  0  0  0  0  0  0  0
  140.6231   76.6699  217.1457 H   0  0  0  0  0  0  0  0  0  0  0  0
  138.9945   74.8535  217.2429 H   0  0  0  0  0  0  0  0  0  0  0  0
  140.6096   74.0946  217.2286 H   0  0  0  0  0  0  0  0  0  0  0  0
  137.7164   74.8373  221.1604 H   0  0  0  0  0  0  0  0  0  0  0  0
  136.9379   73.1498  220.8323 H   0  0  0  0  0  0  0  0  0  0  0  0
  138.9920   73.7520  222.8050 H   0  0  0  0  0  0  0  0  0  0  0  0
  140.6177   72.8374  223.4849 H   0  0  0  0  0  0  0  0  0  0  0  0
  141.7800   71.8494  225.4775 H   0  0  0  0  0  0  0  0  0  0  0  0
  141.9935   70.1136  227.1578 H   0  0  0  0  0  0  0  0  0  0  0  0
  139.1968   66.8156  227.1429 H   0  0  0  0  0  0  0  0  0  0  0  0
  138.0365   67.7994  225.1548 H   0  0  0  0  0  0  0  0  0  0  0  0
  141.1494   77.7560  224.3883 H   0  0  0  0  0  0  0  0  0  0  0  0
  142.7045   79.6845  224.4480 H   0  0  0  0  0  0  0  0  0  0  0  0
  143.1101   80.9235  222.3063 H   0  0  0  0  0  0  0  0  0  0  0  0
  141.9920   80.2416  220.2206 H   0  0  0  0  0  0  0  0  0  0  0  0
  140.4174   78.2810  220.1949 H   0  0  0  0  0  0  0  0  0  0  0  0
  1  2  1  0
  2  3  1  0
  3  4  1  0
  4  5  2  0
  4  6  1  0
  6  7  1  0
  7  8  1  0
  8  9  1  0
  9 10  1  0
 10 11  1  0
 11 12  1  0
 12 13  2  0
 12 14  1  0
 14 15  1  0
 15 16  1  0
 16 17  2  0
 16 18  1  0
 18 19  2  0
 19 20  1  0
 20 21  2  0
 21 22  1  0
 22 23  2  0
 23 24  1  0
 23 25  1  0
 25 26  2  0
 26 27  1  0
 27 28  2  0
  2 29  1  0
 29 30  2  0
 30 31  1  0
 31 32  2  0
 32 33  1  0
 33 34  2  0
 11  6  1  0
 28 18  1  0
 34 29  1  0
 27 21  1  0
  1 35  1  0
  1 36  1  0
  1 37  1  0
  2 38  1  1
  3 39  1  0
  6 40  1  1
  7 41  1  0
  7 42  1  0
  8 43  1  0
  8 44  1  0
  9 45  1  0
  9 46  1  0
 10 47  1  0
 10 48  1  0
 14 49  1  0
 14 50  1  0
 15 51  1  0
 19 52  1  0
 20 53  1  0
 22 54  1  0
 25 55  1  0
 26 56  1  0
 30 57  1  0
 31 58  1  0
 32 59  1  0
 33 60  1  0
 34 61  1  0
M  END
>  <smiles>  (6) 
C[C@@H](NC(=O)C1CCCCN1C(=O)CNC(=O)c1ccc2cc(F)ccc2n1)c1ccccc1

>  <score_type>  (6) 
oracle

>  <origin>  (6) 
autodockgpu

>  <m_score__min__energy>  (6) 
-9.4299999999999997

>  <m_primary>  (6) 
energy

>  <rmsd>  (6) 
3.3619684039897026

>  <m_score__min__rmsd>  (6) 
3.3619684039897026

>  <meeko>  (6) 
{"free_energy": -7.89, "intermolecular_energy": -9.98, "internal_energy": -2.86, "cluster_size": 32, "cluster_id": 1, "rank_in_cluster": 31}

>  <energy>  (6) 
-9.14

>  <cluster_rmsd>  (6) 
1.7

>  <cluster>  (6) 
1

$$$$

     RDKit          3D

 61 64  0  0  1  0  0  0  0  0999 V2000
  141.4960   78.4150  219.4380 C   0  0  0  0  0  0  0  0  0  0  0  0
  141.0980   77.7230  220.7430 C   0  0  1  0  0  0  0  0  0  0  0  0
  141.8330   76.4770  220.8550 N   0  0  0  0  0  0  0  0  0  0  0  0
  141.1570   75.2580  220.5750 C   0  0  0  0  0  0  0  0  0  0  0  0
  139.9460   75.2670  220.2380 O   0  0  0  0  0  0  0  0  0  0  0  0
  141.9570   74.0070  220.7060 C   0  0  2  0  0  0  0  0  0  0  0  0
  143.4120   74.2770  220.8140 C   0  0  0  0  0  0  0  0  0  0  0  0
  144.0440   74.8600  219.5650 C   0  0  0  0  0  0  0  0  0  0  0  0
  143.5090   74.1730  218.3160 C   0  0  0  0  0  0  0  0  0  0  0  0
  142.9120   72.8550  218.7610 C   0  0  0  0  0  0  0  0  0  0  0  0
  141.7200   73.1430  219.5190 N   0  0  0  0  0  0  0  0  0  0  0  0
  140.4170   72.7420  219.2910 C   0  0  0  0  0  0  0  0  0  0  0  0
  140.1250   72.5000  218.0280 O   0  0  0  0  0  0  0  0  0  0  0  0
  139.2750   72.5300  220.1700 C   0  0  0  0  0  0  0  0  0  0  0  0
  139.3590   71.6470  221.2710 N   0  0  0  0  0  0  0  0  0  0  0  0
  139.7110   72.1020  222.5830 C   0  0  0  0  0  0  0  0  0  0  0  0
  139.9440   73.3270  222.7010 O   0  0  0  0  0  0  0  0  0  0  0  0
  139.7860   71.1660  223.7150 C   0  0  0  0  0  0  0  0  0  0  0  0
  139.2520   69.9100  223.5250 C   0  0  0  0  0  0  0  0  0  0  0  0
  139.3300   69.0380  224.6060 C   0  0  0  0  0  0  0  0  0  0  0  0
  139.9180   69.4230  225.8080 C   0  0  0  0  0  0  0  0  0  0  0  0
  139.9850   68.5260  226.8780 C   0  0  0  0  0  0  0  0  0  0  0  0
  140.5820   68.9480  228.0700 C   0  0  0  0  0  0  0  0  0  0  0  0
  140.6710   68.1050  229.1470 F   0  0  0  0  0  0  0  0  0  0  0  0
  141.1000   70.2270  228.1910 C   0  0  0  0  0  0  0  0  0  0  0  0
  141.0290   71.1150  227.1170 C   0  0  0  0  0  0  0  0  0  0  0  0
  140.4350   70.6970  225.9300 C   0  0  0  0  0  0  0  0  0  0  0  0
  140.3550   71.5390  224.8790 N   0  0  0  0  0  0  0  0  0  0  0  0
  141.5490   78.6440  221.8450 C   0  0  0  0  0  0  0  0  0  0  0  0
  142.0960   79.8680  221.5450 C   0  0  0  0  0  0  0  0  0  0  0  0
  142.5250   80.7520  222.5040 C   0  0  0  0  0  0  0  0  0  0  0  0
  142.3810   80.3480  223.8270 C   0  0  0  0  0  0  0  0  0  0  0  0
  141.8320   79.1200  224.1510 C   0  0  0  0  0  0  0  0  0  0  0  0
  141.4020   78.2380  223.1550 C   0  0  0  0  0  0  0  0  0  0  0  0
  142.0325   79.3478  219.6664 H   0  0  0  0  0  0  0  0  0  0  0  0
  142.1494   77.7496  218.8546 H   0  0  0  0  0  0  0  0  0  0  0  0
  140.5923   78.6452  218.8546 H   0  0  0  0  0  0  0  0  0  0  0  0
  140.0187   77.5151  220.7873 H   0  0  0  0  0  0  0  0  0  0  0  0
  142.8280   76.5040  221.1350 H   0  0  0  0  0  0  0  0  0  0  0  0
  141.6335   73.5065  221.6306 H   0  0  0  0  0  0  0  0  0  0  0  0
  143.5682   74.9866  221.6399 H   0  0  0  0  0  0  0  0  0  0  0  0
  143.8964   73.3037  220.9813 H   0  0  0  0  0  0  0  0  0  0  0  0
  143.8135   75.9343  219.5122 H   0  0  0  0  0  0  0  0  0  0  0  0
  145.1316   74.7032  219.6146 H   0  0  0  0  0  0  0  0  0  0  0  0
  142.7371   74.7972  217.8421 H   0  0  0  0  0  0  0  0  0  0  0  0
  144.3109   74.0137  217.5800 H   0  0  0  0  0  0  0  0  0  0  0  0
  142.6579   72.2440  217.8823 H   0  0  0  0  0  0  0  0  0  0  0  0
  143.6322   72.2960  219.3765 H   0  0  0  0  0  0  0  0  0  0  0  0
  139.0075   73.5155  220.5789 H   0  0  0  0  0  0  0  0  0  0  0  0
  138.5517   72.0276  219.5109 H   0  0  0  0  0  0  0  0  0  0  0  0
  139.1750   70.6020  221.2140 H   0  0  0  0  0  0  0  0  0  0  0  0
  138.7899   69.6135  222.5718 H   0  0  0  0  0  0  0  0  0  0  0  0
  138.9183   68.0225  224.5092 H   0  0  0  0  0  0  0  0  0  0  0  0
  139.5765   67.5090  226.7843 H   0  0  0  0  0  0  0  0  0  0  0  0
  141.5680   70.5430  229.1350 H   0  0  0  0  0  0  0  0  0  0  0  0
  141.4373   72.1324  227.2075 H   0  0  0  0  0  0  0  0  0  0  0  0
  142.1949   80.1531  220.4872 H   0  0  0  0  0  0  0  0  0  0  0  0
  142.9593   81.7275  222.2400 H   0  0  0  0  0  0  0  0  0  0  0  0
  142.7108   81.0195  224.6335 H   0  0  0  0  0  0  0  0  0  0  0  0
  141.7323   78.8333  225.2083 H   0  0  0  0  0  0  0  0  0  0  0  0
  140.9644   77.2604  223.4058 H   0  0  0  0  0  0  0  0  0  0  0  0
  1  2  1  0
  2  3  1  0
  3  4  1  0
  4  5  2  0
  4  6  1  0
  6  7  1  0
  7  8  1  0
  8  9  1  0
  9 10  1  0
 10 11  1  0
 11 12  1  0
 12 13  2  0
 12 14  1  0
 14 15  1  0
 15 16  1  0
 16 17  2  0
 16 18  1  0
 18 19  2  0
 19 20  1  0
 20 21  2  0
 21 22  1  0
 22 23  2  0
 23 24  1  0
 23 25  1  0
 25 26  2  0
 26 27  1  0
 27 28  2  0
  2 29  1  0
 29 30  2  0
 30 31  1  0
 31 32  2  0
 32 33  1  0
 33 34  2  0
 11  6  1  0
 28 18  1  0
 34 29  1  0
 27 21  1  0
  1 35  1  0
  1 36  1  0
  1 37  1  0
  2 38  1  6
  3 39  1  0
  6 40  1  1
  7 41  1  0
  7 42  1  0
  8 43  1  0
  8 44  1  0
  9 45  1  0
  9 46  1  0
 10 47  1  0
 10 48  1  0
 14 49  1  0
 14 50  1  0
 15 51  1  0
 19 52  1  0
 20 53  1  0
 22 54  1  0
 25 55  1  0
 26 56  1  0
 30 57  1  0
 31 58  1  0
 32 59  1  0
 33 60  1  0
 34 61  1  0
M  END
>  <smiles>  (7) 
C[C@@H](NC(=O)C1CCCCN1C(=O)CNC(=O)c1ccc2cc(F)ccc2n1)c1ccccc1

>  <score_type>  (7) 
oracle

>  <origin>  (7) 
autodockgpu

>  <m_score__min__energy>  (7) 
-9.4299999999999997

>  <m_primary>  (7) 
energy

>  <rmsd>  (7) 
3.341341268139523

>  <m_score__min__rmsd>  (7) 
3.341341268139523

>  <meeko>  (7) 
{"free_energy": -9.14, "intermolecular_energy": -11.23, "internal_energy": -1.88, "cluster_size": 32, "cluster_id": 1, "rank_in_cluster": 6}

>  <energy>  (7) 
-9.13

>  <cluster_rmsd>  (7) 
1.54

>  <cluster>  (7) 
1

$$$$

     RDKit          3D

 61 64  0  0  1  0  0  0  0  0999 V2000
  142.0650   77.6760  219.7250 C   0  0  0  0  0  0  0  0  0  0  0  0
  140.8980   78.4490  220.3430 C   0  0  1  0  0  0  0  0  0  0  0  0
  139.8490   77.5100  220.6950 N   0  0  0  0  0  0  0  0  0  0  0  0
  139.1980   76.7930  219.6550 C   0  0  0  0  0  0  0  0  0  0  0  0
  139.5280   76.9730  218.4550 O   0  0  0  0  0  0  0  0  0  0  0  0
  138.1270   75.8410  220.0700 C   0  0  2  0  0  0  0  0  0  0  0  0
  136.7770   76.4530  220.0120 C   0  0  0  0  0  0  0  0  0  0  0  0
  136.5400   77.5650  221.0140 C   0  0  0  0  0  0  0  0  0  0  0  0
  137.1330   77.2070  222.3700 C   0  0  0  0  0  0  0  0  0  0  0  0
  137.3240   75.7050  222.3840 C   0  0  0  0  0  0  0  0  0  0  0  0
  138.3840   75.3860  221.4620 N   0  0  0  0  0  0  0  0  0  0  0  0
  139.5830   74.7380  221.6930 C   0  0  0  0  0  0  0  0  0  0  0  0
  140.5450   75.5060  222.1640 O   0  0  0  0  0  0  0  0  0  0  0  0
  140.0160   73.3570  221.5200 C   0  0  0  0  0  0  0  0  0  0  0  0
  140.1840   72.5030  222.6330 N   0  0  0  0  0  0  0  0  0  0  0  0
  139.3310   71.3740  222.8580 C   0  0  0  0  0  0  0  0  0  0  0  0
  138.4240   71.1870  222.0150 O   0  0  0  0  0  0  0  0  0  0  0  0
  139.5290   70.4940  224.0210 C   0  0  0  0  0  0  0  0  0  0  0  0
  139.0030   69.2230  223.9390 C   0  0  0  0  0  0  0  0  0  0  0  0
  139.1970   68.4050  225.0460 C   0  0  0  0  0  0  0  0  0  0  0  0
  139.8870   68.8540  226.1700 C   0  0  0  0  0  0  0  0  0  0  0  0
  140.0690   68.0100  227.2690 C   0  0  0  0  0  0  0  0  0  0  0  0
  140.7660   68.4970  228.3790 C   0  0  0  0  0  0  0  0  0  0  0  0
  140.9690   67.7070  229.4810 F   0  0  0  0  0  0  0  0  0  0  0  0
  141.2680   69.7870  228.3930 C   0  0  0  0  0  0  0  0  0  0  0  0
  141.0820   70.6220  227.2900 C   0  0  0  0  0  0  0  0  0  0  0  0
  140.3880   70.1400  226.1850 C   0  0  0  0  0  0  0  0  0  0  0  0
  140.1960   70.9290  225.1070 N   0  0  0  0  0  0  0  0  0  0  0  0
  141.4390   79.0580  221.6090 C   0  0  0  0  0  0  0  0  0  0  0  0
  142.0550   80.2850  221.5790 C   0  0  0  0  0  0  0  0  0  0  0  0
  142.5680   80.8930  222.6980 C   0  0  0  0  0  0  0  0  0  0  0  0
  142.4360   80.1980  223.8950 C   0  0  0  0  0  0  0  0  0  0  0  0
  141.8200   78.9610  223.9480 C   0  0  0  0  0  0  0  0  0  0  0  0
  141.3050   78.3630  222.7930 C   0  0  0  0  0  0  0  0  0  0  0  0
  142.6939   77.2595  220.5257 H   0  0  0  0  0  0  0  0  0  0  0  0
  141.6741   76.8576  219.1025 H   0  0  0  0  0  0  0  0  0  0  0  0
  142.6660   78.3552  219.1025 H   0  0  0  0  0  0  0  0  0  0  0  0
  140.4938   79.2060  219.6549 H   0  0  0  0  0  0  0  0  0  0  0  0
  139.6000   77.3840  221.6900 H   0  0  0  0  0  0  0  0  0  0  0  0
  138.1490   74.9952  219.3671 H   0  0  0  0  0  0  0  0  0  0  0  0
  136.6311   76.8651  219.0026 H   0  0  0  0  0  0  0  0  0  0  0  0
  136.0636   75.6538  220.2617 H   0  0  0  0  0  0  0  0  0  0  0  0
  137.0119   78.4882  220.6465 H   0  0  0  0  0  0  0  0  0  0  0  0
  135.4557   77.7092  221.1305 H   0  0  0  0  0  0  0  0  0  0  0  0
  138.1005   77.7126  222.5051 H   0  0  0  0  0  0  0  0  0  0  0  0
  136.4693   77.5271  223.1868 H   0  0  0  0  0  0  0  0  0  0  0  0
  137.5962   75.3721  223.3965 H   0  0  0  0  0  0  0  0  0  0  0  0
  136.3937   75.1972  222.0897 H   0  0  0  0  0  0  0  0  0  0  0  0
  139.2740   72.8760  220.8657 H   0  0  0  0  0  0  0  0  0  0  0  0
  141.0437   73.4706  221.1445 H   0  0  0  0  0  0  0  0  0  0  0  0
  140.9350   72.6280  223.3750 H   0  0  0  0  0  0  0  0  0  0  0  0
  138.4602   68.8753  223.0477 H   0  0  0  0  0  0  0  0  0  0  0  0
  138.7969   67.3804  225.0343 H   0  0  0  0  0  0  0  0  0  0  0  0
  139.6722   66.9841  227.2609 H   0  0  0  0  0  0  0  0  0  0  0  0
  141.8141   70.1545  229.2743 H   0  0  0  0  0  0  0  0  0  0  0  0
  141.4791   71.6478  227.2945 H   0  0  0  0  0  0  0  0  0  0  0  0
  142.1414   80.8049  220.6135 H   0  0  0  0  0  0  0  0  0  0  0  0
  143.0571   81.8771  222.6501 H   0  0  0  0  0  0  0  0  0  0  0  0
  142.8305   80.6422  224.8208 H   0  0  0  0  0  0  0  0  0  0  0  0
  141.7337   78.4395  224.9127 H   0  0  0  0  0  0  0  0  0  0  0  0
  140.8136   77.3795  222.8275 H   0  0  0  0  0  0  0  0  0  0  0  0
  1  2  1  0
  2  3  1  0
  3  4  1  0
  4  5  2  0
  4  6  1  0
  6  7  1  0
  7  8  1  0
  8  9  1  0
  9 10  1  0
 10 11  1  0
 11 12  1  0
 12 13  2  0
 12 14  1  0
 14 15  1  0
 15 16  1  0
 16 17  2  0
 16 18  1  0
 18 19  2  0
 19 20  1  0
 20 21  2  0
 21 22  1  0
 22 23  2  0
 23 24  1  0
 23 25  1  0
 25 26  2  0
 26 27  1  0
 27 28  2  0
  2 29  1  0
 29 30  2  0
 30 31  1  0
 31 32  2  0
 32 33  1  0
 33 34  2  0
 11  6  1  0
 28 18  1  0
 34 29  1  0
 27 21  1  0
  1 35  1  0
  1 36  1  0
  1 37  1  0
  2 38  1  6
  3 39  1  0
  6 40  1  6
  7 41  1  0
  7 42  1  0
  8 43  1  0
  8 44  1  0
  9 45  1  0
  9 46  1  0
 10 47  1  0
 10 48  1  0
 14 49  1  0
 14 50  1  0
 15 51  1  0
 19 52  1  0
 20 53  1  0
 22 54  1  0
 25 55  1  0
 26 56  1  0
 30 57  1  0
 31 58  1  0
 32 59  1  0
 33 60  1  0
 34 61  1  0
M  END
>  <smiles>  (8) 
C[C@@H](NC(=O)C1CCCCN1C(=O)CNC(=O)c1ccc2cc(F)ccc2n1)c1ccccc1

>  <score_type>  (8) 
oracle

>  <origin>  (8) 
autodockgpu

>  <m_score__min__energy>  (8) 
-9.4299999999999997

>  <m_primary>  (8) 
energy

>  <rmsd>  (8) 
3.3912858379875823

>  <m_score__min__rmsd>  (8) 
3.3912858379875823

>  <meeko>  (8) 
{"free_energy": -8.13, "intermolecular_energy": -10.21, "internal_energy": -2.86, "cluster_size": 32, "cluster_id": 1, "rank_in_cluster": 28}

>  <energy>  (8) 
-9.03

>  <cluster_rmsd>  (8) 
1.69

>  <cluster>  (8) 
1

$$$$

     RDKit          3D

 61 64  0  0  1  0  0  0  0  0999 V2000
  144.8540   73.2870  220.3860 C   0  0  0  0  0  0  0  0  0  0  0  0
  143.4050   73.1690  220.8620 C   0  0  1  0  0  0  0  0  0  0  0  0
  142.6260   74.2330  220.2570 N   0  0  0  0  0  0  0  0  0  0  0  0
  141.4350   74.6590  220.9060 C   0  0  0  0  0  0  0  0  0  0  0  0
  141.0700   74.1210  221.9820 O   0  0  0  0  0  0  0  0  0  0  0  0
  140.6700   75.7550  220.2440 C   0  0  2  0  0  0  0  0  0  0  0  0
  141.0850   77.0980  220.7190 C   0  0  0  0  0  0  0  0  0  0  0  0
  140.7530   77.3890  222.1690 C   0  0  0  0  0  0  0  0  0  0  0  0
  139.3620   76.8770  222.5200 C   0  0  0  0  0  0  0  0  0  0  0  0
  138.6200   76.6910  221.2130 C   0  0  0  0  0  0  0  0  0  0  0  0
  139.2190   75.5810  220.5180 N   0  0  0  0  0  0  0  0  0  0  0  0
  138.6430   74.3990  220.0900 C   0  0  0  0  0  0  0  0  0  0  0  0
  138.5210   74.2840  218.7820 O   0  0  0  0  0  0  0  0  0  0  0  0
  138.1300   73.2320  220.7960 C   0  0  0  0  0  0  0  0  0  0  0  0
  138.7060   72.8080  222.0150 N   0  0  0  0  0  0  0  0  0  0  0  0
  138.7950   71.4230  222.3700 C   0  0  0  0  0  0  0  0  0  0  0  0
  138.3290   70.6070  221.5420 O   0  0  0  0  0  0  0  0  0  0  0  0
  139.4050   71.0040  223.6410 C   0  0  0  0  0  0  0  0  0  0  0  0
  140.3180   71.8650  224.2110 C   0  0  0  0  0  0  0  0  0  0  0  0
  140.8850   71.4530  225.4120 C   0  0  0  0  0  0  0  0  0  0  0  0
  140.5430   70.2370  225.9980 C   0  0  0  0  0  0  0  0  0  0  0  0
  141.1280   69.8480  227.2060 C   0  0  0  0  0  0  0  0  0  0  0  0
  140.7600   68.6200  227.7640 C   0  0  0  0  0  0  0  0  0  0  0  0
  141.3060   68.1950  228.9470 F   0  0  0  0  0  0  0  0  0  0  0  0
  139.8340   67.8030  227.1370 C   0  0  0  0  0  0  0  0  0  0  0  0
  139.2550   68.2010  225.9310 C   0  0  0  0  0  0  0  0  0  0  0  0
  139.6200   69.4220  225.3730 C   0  0  0  0  0  0  0  0  0  0  0  0
  139.0730   69.8270  224.2080 N   0  0  0  0  0  0  0  0  0  0  0  0
  142.9090   71.8510  220.3280 C   0  0  0  0  0  0  0  0  0  0  0  0
  141.5700   71.5470  220.3720 C   0  0  0  0  0  0  0  0  0  0  0  0
  141.0560   70.3630  219.9030 C   0  0  0  0  0  0  0  0  0  0  0  0
  141.9680   69.4610  219.3670 C   0  0  0  0  0  0  0  0  0  0  0  0
  143.3200   69.7470  219.3130 C   0  0  0  0  0  0  0  0  0  0  0  0
  143.8190   70.9610  219.7990 C   0  0  0  0  0  0  0  0  0  0  0  0
  145.5230   73.3415  221.2575 H   0  0  0  0  0  0  0  0  0  0  0  0
  145.1134   72.4070  219.7791 H   0  0  0  0  0  0  0  0  0  0  0  0
  144.9676   74.1974  219.7791 H   0  0  0  0  0  0  0  0  0  0  0  0
  143.3231   73.2343  221.9570 H   0  0  0  0  0  0  0  0  0  0  0  0
  142.9520   74.6540  219.3720 H   0  0  0  0  0  0  0  0  0  0  0  0
  140.8784   75.6944  219.1656 H   0  0  0  0  0  0  0  0  0  0  0  0
  142.1744   77.1841  220.5933 H   0  0  0  0  0  0  0  0  0  0  0  0
  140.5204   77.8271  220.1193 H   0  0  0  0  0  0  0  0  0  0  0  0
  141.4930   76.8934  222.8146 H   0  0  0  0  0  0  0  0  0  0  0  0
  140.7769   78.4778  222.3240 H   0  0  0  0  0  0  0  0  0  0  0  0
  139.4353   75.9178  223.0534 H   0  0  0  0  0  0  0  0  0  0  0  0
  138.8347   77.5861  223.1751 H   0  0  0  0  0  0  0  0  0  0  0  0
  137.5593   76.4786  221.4124 H   0  0  0  0  0  0  0  0  0  0  0  0
  138.6834   77.6042  220.6031 H   0  0  0  0  0  0  0  0  0  0  0  0
  137.0691   73.4341  221.0049 H   0  0  0  0  0  0  0  0  0  0  0  0
  138.3769   72.4070  220.1116 H   0  0  0  0  0  0  0  0  0  0  0  0
  139.1070   73.4660  222.7470 H   0  0  0  0  0  0  0  0  0  0  0  0
  140.5832   72.8241  223.7422 H   0  0  0  0  0  0  0  0  0  0  0  0
  141.6201   72.1022  225.9103 H   0  0  0  0  0  0  0  0  0  0  0  0
  141.8630   70.4947  227.7076 H   0  0  0  0  0  0  0  0  0  0  0  0
  139.5548   66.8401  227.5896 H   0  0  0  0  0  0  0  0  0  0  0  0
  138.5189   67.5569  225.4277 H   0  0  0  0  0  0  0  0  0  0  0  0
  140.8779   72.2857  220.8025 H   0  0  0  0  0  0  0  0  0  0  0  0
  139.9798   70.1402  219.9490 H   0  0  0  0  0  0  0  0  0  0  0  0
  141.6061   68.4982  218.9771 H   0  0  0  0  0  0  0  0  0  0  0  0
  144.0132   69.0097  218.8819 H   0  0  0  0  0  0  0  0  0  0  0  0
  144.8931   71.1952  219.7604 H   0  0  0  0  0  0  0  0  0  0  0  0
  1  2  1  0
  2  3  1  0
  3  4  1  0
  4  5  2  0
  4  6  1  0
  6  7  1  0
  7  8  1  0
  8  9  1  0
  9 10  1  0
 10 11  1  0
 11 12  1  0
 12 13  2  0
 12 14  1  0
 14 15  1  0
 15 16  1  0
 16 17  2  0
 16 18  1  0
 18 19  2  0
 19 20  1  0
 20 21  2  0
 21 22  1  0
 22 23  2  0
 23 24  1  0
 23 25  1  0
 25 26  2  0
 26 27  1  0
 27 28  2  0
  2 29  1  0
 29 30  2  0
 30 31  1  0
 31 32  2  0
 32 33  1  0
 33 34  2  0
 11  6  1  0
 28 18  1  0
 34 29  1  0
 27 21  1  0
  1 35  1  0
  1 36  1  0
  1 37  1  0
  2 38  1  1
  3 39  1  0
  6 40  1  6
  7 41  1  0
  7 42  1  0
  8 43  1  0
  8 44  1  0
  9 45  1  0
  9 46  1  0
 10 47  1  0
 10 48  1  0
 14 49  1  0
 14 50  1  0
 15 51  1  0
 19 52  1  0
 20 53  1  0
 22 54  1  0
 25 55  1  0
 26 56  1  0
 30 57  1  0
 31 58  1  0
 32 59  1  0
 33 60  1  0
 34 61  1  0
M  END
>  <smiles>  (9) 
C[C@@H](NC(=O)C1CCCCN1C(=O)CNC(=O)c1ccc2cc(F)ccc2n1)c1ccccc1

>  <score_type>  (9) 
oracle

>  <origin>  (9) 
autodockgpu

>  <m_score__min__energy>  (9) 
-9.4299999999999997

>  <m_primary>  (9) 
energy

>  <rmsd>  (9) 
6.024966488761621

>  <m_score__min__rmsd>  (9) 
6.024966488761621

>  <meeko>  (9) 
{"free_energy": -7.43, "intermolecular_energy": -9.52, "internal_energy": -3.36, "cluster_size": 1, "cluster_id": 9, "rank_in_cluster": 1}

>  <energy>  (9) 
-9.02

>  <cluster_rmsd>  (9) 
0.83

>  <cluster>  (9) 
1

$$$$

     RDKit          3D

 61 64  0  0  1  0  0  0  0  0999 V2000
  139.1430   77.5220  221.7680 C   0  0  0  0  0  0  0  0  0  0  0  0
  140.4270   77.3970  222.5900 C   0  0  1  0  0  0  0  0  0  0  0  0
  141.4210   76.6950  221.8000 N   0  0  0  0  0  0  0  0  0  0  0  0
  141.6620   77.1270  220.4670 C   0  0  0  0  0  0  0  0  0  0  0  0
  141.0220   78.0980  219.9880 O   0  0  0  0  0  0  0  0  0  0  0  0
  142.6930   76.3730  219.6980 C   0  0  2  0  0  0  0  0  0  0  0  0
  143.1980   77.1380  218.5310 C   0  0  0  0  0  0  0  0  0  0  0  0
  142.1760   77.3730  217.4360 C   0  0  0  0  0  0  0  0  0  0  0  0
  141.3420   76.1210  217.1960 C   0  0  0  0  0  0  0  0  0  0  0  0
  142.1180   74.9580  217.7770 C   0  0  0  0  0  0  0  0  0  0  0  0
  142.1100   75.0940  219.2120 N   0  0  0  0  0  0  0  0  0  0  0  0
  141.6350   74.2220  220.1740 C   0  0  0  0  0  0  0  0  0  0  0  0
  142.1060   74.4280  221.3880 O   0  0  0  0  0  0  0  0  0  0  0  0
  140.7090   73.0990  220.1250 C   0  0  0  0  0  0  0  0  0  0  0  0
  140.6420   72.1650  221.1850 N   0  0  0  0  0  0  0  0  0  0  0  0
  140.2270   72.5430  222.5030 C   0  0  0  0  0  0  0  0  0  0  0  0
  139.9300   73.7490  222.6660 O   0  0  0  0  0  0  0  0  0  0  0  0
  140.1590   71.5540  223.5890 C   0  0  0  0  0  0  0  0  0  0  0  0
  139.5800   70.3390  223.2930 C   0  0  0  0  0  0  0  0  0  0  0  0
  139.5230   69.4160  224.3310 C   0  0  0  0  0  0  0  0  0  0  0  0
  140.0260   69.7120  225.5960 C   0  0  0  0  0  0  0  0  0  0  0  0
  139.9560   68.7650  226.6210 C   0  0  0  0  0  0  0  0  0  0  0  0
  140.4710   69.0990  227.8780 C   0  0  0  0  0  0  0  0  0  0  0  0
  140.4250   68.2040  228.9150 F   0  0  0  0  0  0  0  0  0  0  0  0
  141.0410   70.3400  228.1050 C   0  0  0  0  0  0  0  0  0  0  0  0
  141.1060   71.2790  227.0750 C   0  0  0  0  0  0  0  0  0  0  0  0
  140.5940   70.9490  225.8240 C   0  0  0  0  0  0  0  0  0  0  0  0
  140.6460   71.8410  224.8130 N   0  0  0  0  0  0  0  0  0  0  0  0
  140.9040   78.8060  222.8170 C   0  0  0  0  0  0  0  0  0  0  0  0
  140.0740   79.8690  222.5560 C   0  0  0  0  0  0  0  0  0  0  0  0
  140.4500   81.1760  222.7420 C   0  0  0  0  0  0  0  0  0  0  0  0
  141.7400   81.3880  223.2170 C   0  0  0  0  0  0  0  0  0  0  0  0
  142.5920   80.3320  223.4870 C   0  0  0  0  0  0  0  0  0  0  0  0
  142.1840   79.0090  223.2890 C   0  0  0  0  0  0  0  0  0  0  0  0
  138.2806   77.6060  222.4456 H   0  0  0  0  0  0  0  0  0  0  0  0
  139.1996   78.4189  221.1337 H   0  0  0  0  0  0  0  0  0  0  0  0
  139.0255   76.6310  221.1337 H   0  0  0  0  0  0  0  0  0  0  0  0
  140.2621   76.8557  223.5333 H   0  0  0  0  0  0  0  0  0  0  0  0
  141.9300   75.9010  222.2220 H   0  0  0  0  0  0  0  0  0  0  0  0
  143.5384   76.1896  220.3775 H   0  0  0  0  0  0  0  0  0  0  0  0
  143.5477   78.1176  218.8890 H   0  0  0  0  0  0  0  0  0  0  0  0
  143.9977   76.5295  218.0836 H   0  0  0  0  0  0  0  0  0  0  0  0
  141.5114   78.1973  217.7340 H   0  0  0  0  0  0  0  0  0  0  0  0
  142.7072   77.6260  216.5066 H   0  0  0  0  0  0  0  0  0  0  0  0
  140.3674   76.2138  217.6975 H   0  0  0  0  0  0  0  0  0  0  0  0
  141.1547   75.9724  216.1223 H   0  0  0  0  0  0  0  0  0  0  0  0
  141.6417   74.0093  217.4886 H   0  0  0  0  0  0  0  0  0  0  0  0
  143.1504   74.9579  217.3974 H   0  0  0  0  0  0  0  0  0  0  0  0
  139.7015   73.5283  220.0219 H   0  0  0  0  0  0  0  0  0  0  0  0
  141.1036   72.4953  219.2944 H   0  0  0  0  0  0  0  0  0  0  0  0
  140.8910   71.1360  221.0910 H   0  0  0  0  0  0  0  0  0  0  0  0
  139.1851   70.1122  222.2917 H   0  0  0  0  0  0  0  0  0  0  0  0
  139.0706   68.4299  224.1494 H   0  0  0  0  0  0  0  0  0  0  0  0
  139.5053   67.7774  226.4432 H   0  0  0  0  0  0  0  0  0  0  0  0
  141.4432   70.5861  229.0988 H   0  0  0  0  0  0  0  0  0  0  0  0
  141.5562   72.2673  227.2497 H   0  0  0  0  0  0  0  0  0  0  0  0
  139.0608   79.6632  222.1804 H   0  0  0  0  0  0  0  0  0  0  0  0
  139.7674   82.0113  222.5269 H   0  0  0  0  0  0  0  0  0  0  0  0
  142.0904   82.4176  223.3815 H   0  0  0  0  0  0  0  0  0  0  0  0
  143.6054   80.5360  223.8630 H   0  0  0  0  0  0  0  0  0  0  0  0
  142.8565   78.1648  223.5011 H   0  0  0  0  0  0  0  0  0  0  0  0
  1  2  1  0
  2  3  1  0
  3  4  1  0
  4  5  2  0
  4  6  1  0
  6  7  1  0
  7  8  1  0
  8  9  1  0
  9 10  1  0
 10 11  1  0
 11 12  1  0
 12 13  2  0
 12 14  1  0
 14 15  1  0
 15 16  1  0
 16 17  2  0
 16 18  1  0
 18 19  2  0
 19 20  1  0
 20 21  2  0
 21 22  1  0
 22 23  2  0
 23 24  1  0
 23 25  1  0
 25 26  2  0
 26 27  1  0
 27 28  2  0
  2 29  1  0
 29 30  2  0
 30 31  1  0
 31 32  2  0
 32 33  1  0
 33 34  2  0
 11  6  1  0
 28 18  1  0
 34 29  1  0
 27 21  1  0
  1 35  1  0
  1 36  1  0
  1 37  1  0
  2 38  1  1
  3 39  1  0
  6 40  1  1
  7 41  1  0
  7 42  1  0
  8 43  1  0
  8 44  1  0
  9 45  1  0
  9 46  1  0
 10 47  1  0
 10 48  1  0
 14 49  1  0
 14 50  1  0
 15 51  1  0
 19 52  1  0
 20 53  1  0
 22 54  1  0
 25 55  1  0
 26 56  1  0
 30 57  1  0
 31 58  1  0
 32 59  1  0
 33 60  1  0
 34 61  1  0
M  END
>  <smiles>  (10) 
C[C@@H](NC(=O)C1CCCCN1C(=O)CNC(=O)c1ccc2cc(F)ccc2n1)c1ccccc1

>  <score_type>  (10) 
oracle

>  <origin>  (10) 
autodockgpu

>  <m_score__min__energy>  (10) 
-9.4299999999999997

>  <m_primary>  (10) 
energy

>  <rmsd>  (10) 
2.7503582222079532

>  <m_score__min__rmsd>  (10) 
2.7503582222079532

>  <meeko>  (10) 
{"free_energy": -9.37, "intermolecular_energy": -11.46, "internal_energy": -2.22, "cluster_size": 32, "cluster_id": 1, "rank_in_cluster": 2}

>  <energy>  (10) 
-9.0

>  <cluster_rmsd>  (10) 
1.3

>  <cluster>  (10) 
1

$$$$

     RDKit          3D

 61 64  0  0  1  0  0  0  0  0999 V2000
  139.0750   78.1660  221.9960 C   0  0  0  0  0  0  0  0  0  0  0  0
  140.3680   77.8580  222.7540 C   0  0  1  0  0  0  0  0  0  0  0  0
  141.2420   77.0840  221.8930 N   0  0  0  0  0  0  0  0  0  0  0  0
  141.5860   77.6110  220.6180 C   0  0  0  0  0  0  0  0  0  0  0  0
  141.1370   78.7260  220.2490 O   0  0  0  0  0  0  0  0  0  0  0  0
  142.4870   76.7760  219.7720 C   0  0  2  0  0  0  0  0  0  0  0  0
  142.9420   77.4940  218.5560 C   0  0  0  0  0  0  0  0  0  0  0  0
  141.8480   77.7970  217.5510 C   0  0  0  0  0  0  0  0  0  0  0  0
  140.9060   76.6090  217.4010 C   0  0  0  0  0  0  0  0  0  0  0  0
  141.6410   75.3950  217.9290 C   0  0  0  0  0  0  0  0  0  0  0  0
  141.7700   75.5420  219.3560 N   0  0  0  0  0  0  0  0  0  0  0  0
  141.3180   74.7140  220.3680 C   0  0  0  0  0  0  0  0  0  0  0  0
  142.2650   74.2100  221.1340 O   0  0  0  0  0  0  0  0  0  0  0  0
  139.9890   74.2710  220.7690 C   0  0  0  0  0  0  0  0  0  0  0  0
  139.8040   73.4980  221.9380 N   0  0  0  0  0  0  0  0  0  0  0  0
  140.3440   72.1770  222.0680 C   0  0  0  0  0  0  0  0  0  0  0  0
  140.9870   71.7430  221.0850 O   0  0  0  0  0  0  0  0  0  0  0  0
  140.1440   71.3930  223.2960 C   0  0  0  0  0  0  0  0  0  0  0  0
  139.4210   70.2260  223.1820 C   0  0  0  0  0  0  0  0  0  0  0  0
  139.2400   69.4980  224.3530 C   0  0  0  0  0  0  0  0  0  0  0  0
  139.7660   69.9320  225.5670 C   0  0  0  0  0  0  0  0  0  0  0  0
  139.5700   69.1790  226.7290 C   0  0  0  0  0  0  0  0  0  0  0  0
  140.1130   69.6480  227.9290 C   0  0  0  0  0  0  0  0  0  0  0  0
  139.9470   68.9450  229.0950 F   0  0  0  0  0  0  0  0  0  0  0  0
  140.8310   70.8310  227.9710 C   0  0  0  0  0  0  0  0  0  0  0  0
  141.0210   71.5750  226.8060 C   0  0  0  0  0  0  0  0  0  0  0  0
  140.4820   71.1110  225.6100 C   0  0  0  0  0  0  0  0  0  0  0  0
  140.6530   71.8140  224.4710 N   0  0  0  0  0  0  0  0  0  0  0  0
  141.0140   79.1920  223.0150 C   0  0  0  0  0  0  0  0  0  0  0  0
  140.3570   80.3550  222.6920 C   0  0  0  0  0  0  0  0  0  0  0  0
  140.8930   81.6010  222.9050 C   0  0  0  0  0  0  0  0  0  0  0  0
  142.1600   81.6420  223.4760 C   0  0  0  0  0  0  0  0  0  0  0  0
  142.8390   80.4830  223.8100 C   0  0  0  0  0  0  0  0  0  0  0  0
  142.2710   79.2250  223.5820 C   0  0  0  0  0  0  0  0  0  0  0  0
  138.2654   78.3589  222.7153 H   0  0  0  0  0  0  0  0  0  0  0  0
  139.2232   79.0540  221.3639 H   0  0  0  0  0  0  0  0  0  0  0  0
  138.8069   77.3066  221.3639 H   0  0  0  0  0  0  0  0  0  0  0  0
  140.1789   77.2969  223.6810 H   0  0  0  0  0  0  0  0  0  0  0  0
  141.5940   76.1700  222.2250 H   0  0  0  0  0  0  0  0  0  0  0  0
  143.3731   76.5332  220.3769 H   0  0  0  0  0  0  0  0  0  0  0  0
  143.3924   78.4473  218.8697 H   0  0  0  0  0  0  0  0  0  0  0  0
  143.6526   76.8250  218.0486 H   0  0  0  0  0  0  0  0  0  0  0  0
  141.2746   78.6706  217.8947 H   0  0  0  0  0  0  0  0  0  0  0  0
  142.3129   78.0033  216.5756 H   0  0  0  0  0  0  0  0  0  0  0  0
  139.9882   76.7782  217.9832 H   0  0  0  0  0  0  0  0  0  0  0  0
  140.6160   76.4670  216.3495 H   0  0  0  0  0  0  0  0  0  0  0  0
  141.0713   74.4830  217.6971 H   0  0  0  0  0  0  0  0  0  0  0  0
  142.6331   75.3139  217.4608 H   0  0  0  0  0  0  0  0  0  0  0  0
  139.3806   75.1789  220.8941 H   0  0  0  0  0  0  0  0  0  0  0  0
  139.7143   73.5695  219.9675 H   0  0  0  0  0  0  0  0  0  0  0  0
  139.2610   73.8250  222.7910 H   0  0  0  0  0  0  0  0  0  0  0  0
  139.0100   69.8889  222.2190 H   0  0  0  0  0  0  0  0  0  0  0  0
  138.6687   68.5586  224.3194 H   0  0  0  0  0  0  0  0  0  0  0  0
  139.0010   68.2381  226.6995 H   0  0  0  0  0  0  0  0  0  0  0  0
  141.2521   71.1847  228.9237 H   0  0  0  0  0  0  0  0  0  0  0  0
  141.5896   72.5163  226.8327 H   0  0  0  0  0  0  0  0  0  0  0  0
  139.3557   80.2844  222.2422 H   0  0  0  0  0  0  0  0  0  0  0  0
  140.3485   82.5187  222.6379 H   0  0  0  0  0  0  0  0  0  0  0  0
  142.6331   82.6166  223.6665 H   0  0  0  0  0  0  0  0  0  0  0  0
  143.8398   80.5521  224.2613 H   0  0  0  0  0  0  0  0  0  0  0  0
  142.8051   78.2998  223.8442 H   0  0  0  0  0  0  0  0  0  0  0  0
  1  2  1  0
  2  3  1  0
  3  4  1  0
  4  5  2  0
  4  6  1  0
  6  7  1  0
  7  8  1  0
  8  9  1  0
  9 10  1  0
 10 11  1  0
 11 12  1  0
 12 13  2  0
 12 14  1  0
 14 15  1  0
 15 16  1  0
 16 17  2  0
 16 18  1  0
 18 19  2  0
 19 20  1  0
 20 21  2  0
 21 22  1  0
 22 23  2  0
 23 24  1  0
 23 25  1  0
 25 26  2  0
 26 27  1  0
 27 28  2  0
  2 29  1  0
 29 30  2  0
 30 31  1  0
 31 32  2  0
 32 33  1  0
 33 34  2  0
 11  6  1  0
 28 18  1  0
 34 29  1  0
 27 21  1  0
  1 35  1  0
  1 36  1  0
  1 37  1  0
  2 38  1  1
  3 39  1  0
  6 40  1  1
  7 41  1  0
  7 42  1  0
  8 43  1  0
  8 44  1  0
  9 45  1  0
  9 46  1  0
 10 47  1  0
 10 48  1  0
 14 49  1  0
 14 50  1  0
 15 51  1  0
 19 52  1  0
 20 53  1  0
 22 54  1  0
 25 55  1  0
 26 56  1  0
 30 57  1  0
 31 58  1  0
 32 59  1  0
 33 60  1  0
 34 61  1  0
M  END
>  <smiles>  (11) 
C[C@@H](NC(=O)C1CCCCN1C(=O)CNC(=O)c1ccc2cc(F)ccc2n1)c1ccccc1

>  <score_type>  (11) 
oracle

>  <origin>  (11) 
autodockgpu

>  <m_score__min__energy>  (11) 
-9.4299999999999997

>  <m_primary>  (11) 
energy

>  <rmsd>  (11) 
2.594455732997839

>  <m_score__min__rmsd>  (11) 
2.594455732997839

>  <meeko>  (11) 
{"free_energy": -9.43, "intermolecular_energy": -11.52, "internal_energy": -2.26, "cluster_size": 32, "cluster_id": 1, "rank_in_cluster": 1}

>  <energy>  (11) 
-9.0

>  <cluster_rmsd>  (11) 
1.56

>  <cluster>  (11) 
1

$$$$

     RDKit          3D

 61 64  0  0  1  0  0  0  0  0999 V2000
  139.0840   77.4190  222.0550 C   0  0  0  0  0  0  0  0  0  0  0  0
  140.4530   77.3750  222.7350 C   0  0  1  0  0  0  0  0  0  0  0  0
  141.2710   76.3720  222.0760 N   0  0  0  0  0  0  0  0  0  0  0  0
  141.2780   76.3240  220.6550 C   0  0  0  0  0  0  0  0  0  0  0  0
  140.5880   77.1360  219.9880 O   0  0  0  0  0  0  0  0  0  0  0  0
  142.1340   75.2760  220.0290 C   0  0  2  0  0  0  0  0  0  0  0  0
  143.4250   75.8200  219.5410 C   0  0  0  0  0  0  0  0  0  0  0  0
  143.3080   76.7880  218.3810 C   0  0  0  0  0  0  0  0  0  0  0  0
  142.2820   76.2990  217.3680 C   0  0  0  0  0  0  0  0  0  0  0  0
  142.0880   74.8180  217.6180 C   0  0  0  0  0  0  0  0  0  0  0  0
  141.4100   74.6680  218.8810 N   0  0  0  0  0  0  0  0  0  0  0  0
  140.2000   74.0590  219.1600 C   0  0  0  0  0  0  0  0  0  0  0  0
  139.7730   73.2260  218.2310 O   0  0  0  0  0  0  0  0  0  0  0  0
  139.2790   74.1490  220.2860 C   0  0  0  0  0  0  0  0  0  0  0  0
  139.1700   73.0950  221.2210 N   0  0  0  0  0  0  0  0  0  0  0  0
  140.1240   72.9150  222.2750 C   0  0  0  0  0  0  0  0  0  0  0  0
  141.0640   73.7410  222.3190 O   0  0  0  0  0  0  0  0  0  0  0  0
  139.9870   71.8140  223.2410 C   0  0  0  0  0  0  0  0  0  0  0  0
  139.2480   70.7210  222.8440 C   0  0  0  0  0  0  0  0  0  0  0  0
  139.1280   69.6900  223.7690 C   0  0  0  0  0  0  0  0  0  0  0  0
  139.7250   69.7680  225.0250 C   0  0  0  0  0  0  0  0  0  0  0  0
  139.5890   68.7170  225.9360 C   0  0  0  0  0  0  0  0  0  0  0  0
  140.2020   68.8310  227.1870 C   0  0  0  0  0  0  0  0  0  0  0  0
  140.0970   67.8270  228.1140 F   0  0  0  0  0  0  0  0  0  0  0  0
  140.9310   69.9600  227.5210 C   0  0  0  0  0  0  0  0  0  0  0  0
  141.0620   71.0050  226.6040 C   0  0  0  0  0  0  0  0  0  0  0  0
  140.4520   70.8930  225.3580 C   0  0  0  0  0  0  0  0  0  0  0  0
  140.5650   71.8900  224.4560 N   0  0  0  0  0  0  0  0  0  0  0  0
  141.0700   78.7270  222.4940 C   0  0  0  0  0  0  0  0  0  0  0  0
  140.4890   79.6060  221.6130 C   0  0  0  0  0  0  0  0  0  0  0  0
  141.0040   80.8520  221.3510 C   0  0  0  0  0  0  0  0  0  0  0  0
  142.1660   81.1980  222.0310 C   0  0  0  0  0  0  0  0  0  0  0  0
  142.7670   80.3280  222.9230 C   0  0  0  0  0  0  0  0  0  0  0  0
  142.2230   79.0640  223.1720 C   0  0  0  0  0  0  0  0  0  0  0  0
  138.2948   77.4444  222.8209 H   0  0  0  0  0  0  0  0  0  0  0  0
  139.0151   78.3198  221.4275 H   0  0  0  0  0  0  0  0  0  0  0  0
  138.9574   76.5245  221.4275 H   0  0  0  0  0  0  0  0  0  0  0  0
  140.3743   77.1361  223.8058 H   0  0  0  0  0  0  0  0  0  0  0  0
  141.8260   75.7190  222.6530 H   0  0  0  0  0  0  0  0  0  0  0  0
  142.3508   74.5250  220.8030 H   0  0  0  0  0  0  0  0  0  0  0  0
  143.9133   76.3437  220.3760 H   0  0  0  0  0  0  0  0  0  0  0  0
  144.0033   74.9607  219.1706 H   0  0  0  0  0  0  0  0  0  0  0  0
  142.9971   77.7717  218.7626 H   0  0  0  0  0  0  0  0  0  0  0  0
  144.2864   76.8611  217.8836 H   0  0  0  0  0  0  0  0  0  0  0  0
  141.3305   76.8336  217.5052 H   0  0  0  0  0  0  0  0  0  0  0  0
  142.6258   76.4829  216.3394 H   0  0  0  0  0  0  0  0  0  0  0  0
  141.4802   74.3794  216.8129 H   0  0  0  0  0  0  0  0  0  0  0  0
  143.0594   74.3023  217.6404 H   0  0  0  0  0  0  0  0  0  0  0  0
  139.5677   75.0445  220.8559 H   0  0  0  0  0  0  0  0  0  0  0  0
  138.2944   74.1412  219.7955 H   0  0  0  0  0  0  0  0  0  0  0  0
  138.3930   72.3690  221.2160 H   0  0  0  0  0  0  0  0  0  0  0  0
  138.7790   70.6671  221.8504 H   0  0  0  0  0  0  0  0  0  0  0  0
  138.5490   68.7933  223.5032 H   0  0  0  0  0  0  0  0  0  0  0  0
  139.0113   67.8183  225.6739 H   0  0  0  0  0  0  0  0  0  0  0  0
  141.4074   70.0337  228.5097 H   0  0  0  0  0  0  0  0  0  0  0  0
  141.6396   71.9046  226.8630 H   0  0  0  0  0  0  0  0  0  0  0  0
  139.5695   79.2981  221.0937 H   0  0  0  0  0  0  0  0  0  0  0  0
  140.5223   81.5399  220.6405 H   0  0  0  0  0  0  0  0  0  0  0  0
  142.6177   82.1856  221.8559 H   0  0  0  0  0  0  0  0  0  0  0  0
  143.6860   80.6349  223.4439 H   0  0  0  0  0  0  0  0  0  0  0  0
  142.6954   78.3669  223.8797 H   0  0  0  0  0  0  0  0  0  0  0  0
  1  2  1  0
  2  3  1  0
  3  4  1  0
  4  5  2  0
  4  6  1  0
  6  7  1  0
  7  8  1  0
  8  9  1  0
  9 10  1  0
 10 11  1  0
 11 12  1  0
 12 13  2  0
 12 14  1  0
 14 15  1  0
 15 16  1  0
 16 17  2  0
 16 18  1  0
 18 19  2  0
 19 20  1  0
 20 21  2  0
 21 22  1  0
 22 23  2  0
 23 24  1  0
 23 25  1  0
 25 26  2  0
 26 27  1  0
 27 28  2  0
  2 29  1  0
 29 30  2  0
 30 31  1  0
 31 32  2  0
 32 33  1  0
 33 34  2  0
 11  6  1  0
 28 18  1  0
 34 29  1  0
 27 21  1  0
  1 35  1  0
  1 36  1  0
  1 37  1  0
  2 38  1  1
  3 39  1  0
  6 40  1  1
  7 41  1  0
  7 42  1  0
  8 43  1  0
  8 44  1  0
  9 45  1  0
  9 46  1  0
 10 47  1  0
 10 48  1  0
 14 49  1  0
 14 50  1  0
 15 51  1  0
 19 52  1  0
 20 53  1  0
 22 54  1  0
 25 55  1  0
 26 56  1  0
 30 57  1  0
 31 58  1  0
 32 59  1  0
 33 60  1  0
 34 61  1  0
M  END
>  <smiles>  (12) 
C[C@@H](NC(=O)C1CCCCN1C(=O)CNC(=O)c1ccc2cc(F)ccc2n1)c1ccccc1

>  <score_type>  (12) 
oracle

>  <origin>  (12) 
autodockgpu

>  <m_score__min__energy>  (12) 
-9.4299999999999997

>  <m_primary>  (12) 
energy

>  <rmsd>  (12) 
2.859423923202802

>  <m_score__min__rmsd>  (12) 
2.859423923202802

>  <meeko>  (12) 
{"free_energy": -8.32, "intermolecular_energy": -10.41, "internal_energy": -2.51, "cluster_size": 32, "cluster_id": 1, "rank_in_cluster": 23}

>  <energy>  (12) 
-8.88

>  <cluster_rmsd>  (12) 
1.4

>  <cluster>  (12) 
1

$$$$

     RDKit          3D

 61 64  0  0  1  0  0  0  0  0999 V2000
  141.1160   80.9200  218.9850 C   0  0  0  0  0  0  0  0  0  0  0  0
  141.2990   79.5920  219.7220 C   0  0  1  0  0  0  0  0  0  0  0  0
  142.3930   78.8630  219.1080 N   0  0  0  0  0  0  0  0  0  0  0  0
  142.1820   77.5090  218.7280 C   0  0  0  0  0  0  0  0  0  0  0  0
  141.0670   76.9600  218.9230 O   0  0  0  0  0  0  0  0  0  0  0  0
  143.3370   76.8040  218.1020 C   0  0  2  0  0  0  0  0  0  0  0  0
  143.3310   76.9150  216.6220 C   0  0  0  0  0  0  0  0  0  0  0  0
  142.1850   76.1960  215.9370 C   0  0  0  0  0  0  0  0  0  0  0  0
  141.9370   74.8380  216.5790 C   0  0  0  0  0  0  0  0  0  0  0  0
  143.1940   74.4760  217.3420 C   0  0  0  0  0  0  0  0  0  0  0  0
  143.2970   75.3650  218.4710 N   0  0  0  0  0  0  0  0  0  0  0  0
  143.3520   75.0670  219.8200 C   0  0  0  0  0  0  0  0  0  0  0  0
  144.5670   75.0410  220.3320 O   0  0  0  0  0  0  0  0  0  0  0  0
  142.3290   74.7660  220.8130 C   0  0  0  0  0  0  0  0  0  0  0  0
  141.3890   75.7460  221.2080 N   0  0  0  0  0  0  0  0  0  0  0  0
  140.1600   75.3990  221.8570 C   0  0  0  0  0  0  0  0  0  0  0  0
  139.9610   74.1780  222.0520 O   0  0  0  0  0  0  0  0  0  0  0  0
  139.1990   76.4350  222.2640 C   0  0  0  0  0  0  0  0  0  0  0  0
  137.8600   76.1270  222.1480 C   0  0  0  0  0  0  0  0  0  0  0  0
  136.9650   77.1180  222.5370 C   0  0  0  0  0  0  0  0  0  0  0  0
  137.4070   78.3490  223.0160 C   0  0  0  0  0  0  0  0  0  0  0  0
  136.4860   79.3270  223.4010 C   0  0  0  0  0  0  0  0  0  0  0  0
  136.9670   80.5510  223.8760 C   0  0  0  0  0  0  0  0  0  0  0  0
  136.1020   81.5410  224.2650 F   0  0  0  0  0  0  0  0  0  0  0  0
  138.3270   80.7930  223.9670 C   0  0  0  0  0  0  0  0  0  0  0  0
  139.2400   79.8100  223.5800 C   0  0  0  0  0  0  0  0  0  0  0  0
  138.7630   78.5910  223.1070 C   0  0  0  0  0  0  0  0  0  0  0  0
  139.6270   77.6260  222.7280 N   0  0  0  0  0  0  0  0  0  0  0  0
  141.6990   79.9580  221.1270 C   0  0  0  0  0  0  0  0  0  0  0  0
  142.2000   79.0010  221.9760 C   0  0  0  0  0  0  0  0  0  0  0  0
  142.5820   79.2720  223.2670 C   0  0  0  0  0  0  0  0  0  0  0  0
  142.4370   80.5880  223.6930 C   0  0  0  0  0  0  0  0  0  0  0  0
  141.9340   81.5670  222.8540 C   0  0  0  0  0  0  0  0  0  0  0  0
  141.5520   81.2650  221.5430 C   0  0  0  0  0  0  0  0  0  0  0  0
  141.0039   81.7333  219.7172 H   0  0  0  0  0  0  0  0  0  0  0  0
  141.9960   81.1134  218.3540 H   0  0  0  0  0  0  0  0  0  0  0  0
  140.2165   80.8682  218.3540 H   0  0  0  0  0  0  0  0  0  0  0  0
  140.3881   78.9759  219.6937 H   0  0  0  0  0  0  0  0  0  0  0  0
  143.2970   79.3410  218.9620 H   0  0  0  0  0  0  0  0  0  0  0  0
  144.2539   77.2827  218.4765 H   0  0  0  0  0  0  0  0  0  0  0  0
  143.2726   77.9814  216.3587 H   0  0  0  0  0  0  0  0  0  0  0  0
  144.2548   76.4322  216.2706 H   0  0  0  0  0  0  0  0  0  0  0  0
  141.2740   76.8067  216.0220 H   0  0  0  0  0  0  0  0  0  0  0  0
  142.4467   76.0432  214.8796 H   0  0  0  0  0  0  0  0  0  0  0  0
  141.0804   74.8955  217.2667 H   0  0  0  0  0  0  0  0  0  0  0  0
  141.7063   74.0786  215.8173 H   0  0  0  0  0  0  0  0  0  0  0  0
  143.1330   73.4345  217.6905 H   0  0  0  0  0  0  0  0  0  0  0  0
  144.0776   74.5745  216.6943 H   0  0  0  0  0  0  0  0  0  0  0  0
  141.7501   73.9177  220.4189 H   0  0  0  0  0  0  0  0  0  0  0  0
  142.9179   74.6113  221.7291 H   0  0  0  0  0  0  0  0  0  0  0  0
  141.5150   76.7900  221.0560 H   0  0  0  0  0  0  0  0  0  0  0  0
  137.5188   75.1523  221.7691 H   0  0  0  0  0  0  0  0  0  0  0  0
  135.8844   76.9254  222.4648 H   0  0  0  0  0  0  0  0  0  0  0  0
  135.4046   79.1378  223.3318 H   0  0  0  0  0  0  0  0  0  0  0  0
  138.6888   81.7608  224.3446 H   0  0  0  0  0  0  0  0  0  0  0  0
  140.3219   79.9965  223.6481 H   0  0  0  0  0  0  0  0  0  0  0  0
  142.2997   77.9704  221.6046 H   0  0  0  0  0  0  0  0  0  0  0  0
  142.9815   78.4897  223.9291 H   0  0  0  0  0  0  0  0  0  0  0  0
  142.7284   80.8565  224.7191 H   0  0  0  0  0  0  0  0  0  0  0  0
  141.8332   82.5980  223.2238 H   0  0  0  0  0  0  0  0  0  0  0  0
  141.1508   82.0380  220.8711 H   0  0  0  0  0  0  0  0  0  0  0  0
  1  2  1  0
  2  3  1  0
  3  4  1  0
  4  5  2  0
  4  6  1  0
  6  7  1  0
  7  8  1  0
  8  9  1  0
  9 10  1  0
 10 11  1  0
 11 12  1  0
 12 13  2  0
 12 14  1  0
 14 15  1  0
 15 16  1  0
 16 17  2  0
 16 18  1  0
 18 19  2  0
 19 20  1  0
 20 21  2  0
 21 22  1  0
 22 23  2  0
 23 24  1  0
 23 25  1  0
 25 26  2  0
 26 27  1  0
 27 28  2  0
  2 29  1  0
 29 30  2  0
 30 31  1  0
 31 32  2  0
 32 33  1  0
 33 34  2  0
 11  6  1  0
 28 18  1  0
 34 29  1  0
 27 21  1  0
  1 35  1  0
  1 36  1  0
  1 37  1  0
  2 38  1  1
  3 39  1  0
  6 40  1  1
  7 41  1  0
  7 42  1  0
  8 43  1  0
  8 44  1  0
  9 45  1  0
  9 46  1  0
 10 47  1  0
 10 48  1  0
 14 49  1  0
 14 50  1  0
 15 51  1  0
 19 52  1  0
 20 53  1  0
 22 54  1  0
 25 55  1  0
 26 56  1  0
 30 57  1  0
 31 58  1  0
 32 59  1  0
 33 60  1  0
 34 61  1  0
M  END
>  <smiles>  (13) 
C[C@@H](NC(=O)C1CCCCN1C(=O)CNC(=O)c1ccc2cc(F)ccc2n1)c1ccccc1

>  <score_type>  (13) 
oracle

>  <origin>  (13) 
autodockgpu

>  <m_score__min__energy>  (13) 
-9.4299999999999997

>  <m_primary>  (13) 
energy

>  <rmsd>  (13) 
6.310684798379467

>  <m_score__min__rmsd>  (13) 
6.310684798379467

>  <meeko>  (13) 
{"free_energy": -7.09, "intermolecular_energy": -9.18, "internal_energy": -3.93, "cluster_size": 4, "cluster_id": 11, "rank_in_cluster": 4}

>  <energy>  (13) 
-8.87

>  <cluster_rmsd>  (13) 
1.41

>  <cluster>  (13) 
1

$$$$

     RDKit          3D

 61 64  0  0  1  0  0  0  0  0999 V2000
  142.2010   77.3370  219.9400 C   0  0  0  0  0  0  0  0  0  0  0  0
  141.0300   78.2120  220.3940 C   0  0  1  0  0  0  0  0  0  0  0  0
  139.9290   77.3530  220.7870 N   0  0  0  0  0  0  0  0  0  0  0  0
  139.1260   76.7650  219.7720 C   0  0  0  0  0  0  0  0  0  0  0  0
  139.3700   76.9900  218.5590 O   0  0  0  0  0  0  0  0  0  0  0  0
  138.0070   75.8920  220.2290 C   0  0  2  0  0  0  0  0  0  0  0  0
  136.7250   76.6300  220.3380 C   0  0  0  0  0  0  0  0  0  0  0  0
  136.6910   77.6860  221.4250 C   0  0  0  0  0  0  0  0  0  0  0  0
  137.3640   77.1790  222.6940 C   0  0  0  0  0  0  0  0  0  0  0  0
  137.4040   75.6690  222.5970 C   0  0  0  0  0  0  0  0  0  0  0  0
  138.3400   75.3170  221.5590 N   0  0  0  0  0  0  0  0  0  0  0  0
  139.4840   74.5450  221.6340 C   0  0  0  0  0  0  0  0  0  0  0  0
  140.5650   75.1930  222.0210 O   0  0  0  0  0  0  0  0  0  0  0  0
  139.7520   73.1380  221.3660 C   0  0  0  0  0  0  0  0  0  0  0  0
  140.0500   72.2420  222.4180 N   0  0  0  0  0  0  0  0  0  0  0  0
  139.0240   71.5360  223.1270 C   0  0  0  0  0  0  0  0  0  0  0  0
  137.8460   71.7610  222.7650 O   0  0  0  0  0  0  0  0  0  0  0  0
  139.3570   70.6040  224.2140 C   0  0  0  0  0  0  0  0  0  0  0  0
  138.9370   69.2990  224.0700 C   0  0  0  0  0  0  0  0  0  0  0  0
  139.2590   68.4310  225.1070 C   0  0  0  0  0  0  0  0  0  0  0  0
  139.9680   68.8650  226.2240 C   0  0  0  0  0  0  0  0  0  0  0  0
  140.2790   67.9700  227.2520 C   0  0  0  0  0  0  0  0  0  0  0  0
  140.9920   68.4430  228.3590 C   0  0  0  0  0  0  0  0  0  0  0  0
  141.3200   67.6040  229.3920 F   0  0  0  0  0  0  0  0  0  0  0  0
  141.3840   69.7690  228.4380 C   0  0  0  0  0  0  0  0  0  0  0  0
  141.0680   70.6550  227.4060 C   0  0  0  0  0  0  0  0  0  0  0  0
  140.3590   70.1860  226.3050 C   0  0  0  0  0  0  0  0  0  0  0  0
  140.0430   71.0240  225.2950 N   0  0  0  0  0  0  0  0  0  0  0  0
  141.5210   78.9470  221.6130 C   0  0  0  0  0  0  0  0  0  0  0  0
  141.3890   78.3860  222.8600 C   0  0  0  0  0  0  0  0  0  0  0  0
  141.8150   79.0060  224.0080 C   0  0  0  0  0  0  0  0  0  0  0  0
  142.4020   80.2580  223.8560 C   0  0  0  0  0  0  0  0  0  0  0  0
  142.5440   80.8410  222.6090 C   0  0  0  0  0  0  0  0  0  0  0  0
  142.1010   80.1880  221.4540 C   0  0  0  0  0  0  0  0  0  0  0  0
  142.7279   76.9433  220.8217 H   0  0  0  0  0  0  0  0  0  0  0  0
  141.8207   76.5000  219.3360 H   0  0  0  0  0  0  0  0  0  0  0  0
  142.8959   77.9389  219.3360 H   0  0  0  0  0  0  0  0  0  0  0  0
  140.6938   78.8958  219.6006 H   0  0  0  0  0  0  0  0  0  0  0  0
  139.7540   77.1880  221.7920 H   0  0  0  0  0  0  0  0  0  0  0  0
  137.8817   75.0997  219.4763 H   0  0  0  0  0  0  0  0  0  0  0  0
  136.5314   77.1241  219.3745 H   0  0  0  0  0  0  0  0  0  0  0  0
  135.9604   75.8856  220.6048 H   0  0  0  0  0  0  0  0  0  0  0  0
  137.2183   78.5843  221.0715 H   0  0  0  0  0  0  0  0  0  0  0  0
  135.6413   77.9227  221.6534 H   0  0  0  0  0  0  0  0  0  0  0  0
  138.3855   77.5806  222.7668 H   0  0  0  0  0  0  0  0  0  0  0  0
  136.8114   77.5017  223.5887 H   0  0  0  0  0  0  0  0  0  0  0  0
  137.7312   75.2413  223.5562 H   0  0  0  0  0  0  0  0  0  0  0  0
  136.4048   75.2732  222.3626 H   0  0  0  0  0  0  0  0  0  0  0  0
  138.8603   72.7404  220.8592 H   0  0  0  0  0  0  0  0  0  0  0  0
  140.6962   73.1738  220.8029 H   0  0  0  0  0  0  0  0  0  0  0  0
  141.0330   72.0270  222.7600 H   0  0  0  0  0  0  0  0  0  0  0  0
  138.3782   68.9632  223.1840 H   0  0  0  0  0  0  0  0  0  0  0  0
  138.9468   67.3781  225.0437 H   0  0  0  0  0  0  0  0  0  0  0  0
  139.9697   66.9161  227.1918 H   0  0  0  0  0  0  0  0  0  0  0  0
  141.9450   70.1247  229.3148 H   0  0  0  0  0  0  0  0  0  0  0  0
  141.3756   71.7096  227.4630 H   0  0  0  0  0  0  0  0  0  0  0  0
  140.9203   77.3942  222.9422 H   0  0  0  0  0  0  0  0  0  0  0  0
  141.6984   78.5375  224.9964 H   0  0  0  0  0  0  0  0  0  0  0  0
  142.7609   80.7960  224.7458 H   0  0  0  0  0  0  0  0  0  0  0  0
  143.0123   81.8328  222.5248 H   0  0  0  0  0  0  0  0  0  0  0  0
  142.2108   80.6456  220.4597 H   0  0  0  0  0  0  0  0  0  0  0  0
  1  2  1  0
  2  3  1  0
  3  4  1  0
  4  5  2  0
  4  6  1  0
  6  7  1  0
  7  8  1  0
  8  9  1  0
  9 10  1  0
 10 11  1  0
 11 12  1  0
 12 13  2  0
 12 14  1  0
 14 15  1  0
 15 16  1  0
 16 17  2  0
 16 18  1  0
 18 19  2  0
 19 20  1  0
 20 21  2  0
 21 22  1  0
 22 23  2  0
 23 24  1  0
 23 25  1  0
 25 26  2  0
 26 27  1  0
 27 28  2  0
  2 29  1  0
 29 30  2  0
 30 31  1  0
 31 32  2  0
 32 33  1  0
 33 34  2  0
 11  6  1  0
 28 18  1  0
 34 29  1  0
 27 21  1  0
  1 35  1  0
  1 36  1  0
  1 37  1  0
  2 38  1  6
  3 39  1  0
  6 40  1  6
  7 41  1  0
  7 42  1  0
  8 43  1  0
  8 44  1  0
  9 45  1  0
  9 46  1  0
 10 47  1  0
 10 48  1  0
 14 49  1  0
 14 50  1  0
 15 51  1  0
 19 52  1  0
 20 53  1  0
 22 54  1  0
 25 55  1  0
 26 56  1  0
 30 57  1  0
 31 58  1  0
 32 59  1  0
 33 60  1  0
 34 61  1  0
M  END
>  <smiles>  (14) 
C[C@@H](NC(=O)C1CCCCN1C(=O)CNC(=O)c1ccc2cc(F)ccc2n1)c1ccccc1

>  <score_type>  (14) 
oracle

>  <origin>  (14) 
autodockgpu

>  <m_score__min__energy>  (14) 
-9.4299999999999997

>  <m_primary>  (14) 
energy

>  <rmsd>  (14) 
3.293333821205869

>  <m_score__min__rmsd>  (14) 
3.293333821205869

>  <meeko>  (14) 
{"free_energy": -8.36, "intermolecular_energy": -10.45, "internal_energy": -2.77, "cluster_size": 32, "cluster_id": 1, "rank_in_cluster": 21}

>  <energy>  (14) 
-8.83

>  <cluster_rmsd>  (14) 
1.41

>  <cluster>  (14) 
1

$$$$

     RDKit          3D

 61 64  0  0  1  0  0  0  0  0999 V2000
  138.2790   80.7890  224.2800 C   0  0  0  0  0  0  0  0  0  0  0  0
  138.8780   79.4520  223.8370 C   0  0  1  0  0  0  0  0  0  0  0  0
  138.0450   78.8910  222.7900 N   0  0  0  0  0  0  0  0  0  0  0  0
  138.1940   77.5140  222.4650 C   0  0  0  0  0  0  0  0  0  0  0  0
  139.0320   76.8040  223.0760 O   0  0  0  0  0  0  0  0  0  0  0  0
  137.3150   76.9870  221.3810 C   0  0  2  0  0  0  0  0  0  0  0  0
  135.8810   77.0020  221.7620 C   0  0  0  0  0  0  0  0  0  0  0  0
  135.5120   76.0500  222.8830 C   0  0  0  0  0  0  0  0  0  0  0  0
  136.2190   74.7120  222.7120 C   0  0  0  0  0  0  0  0  0  0  0  0
  136.6550   74.6260  221.2650 C   0  0  0  0  0  0  0  0  0  0  0  0
  137.7090   75.5890  221.0630 N   0  0  0  0  0  0  0  0  0  0  0  0
  139.0080   75.3900  220.6340 C   0  0  0  0  0  0  0  0  0  0  0  0
  139.3160   75.9970  219.5040 O   0  0  0  0  0  0  0  0  0  0  0  0
  140.1290   74.6340  221.1770 C   0  0  0  0  0  0  0  0  0  0  0  0
  139.9610   73.7900  222.2970 N   0  0  0  0  0  0  0  0  0  0  0  0
  140.3280   72.4050  222.2650 C   0  0  0  0  0  0  0  0  0  0  0  0
  140.8030   71.9830  221.1860 O   0  0  0  0  0  0  0  0  0  0  0  0
  140.1510   71.5460  223.4460 C   0  0  0  0  0  0  0  0  0  0  0  0
  139.4470   70.3750  223.2670 C   0  0  0  0  0  0  0  0  0  0  0  0
  139.2880   69.5750  224.3930 C   0  0  0  0  0  0  0  0  0  0  0  0
  139.8150   69.9450  225.6280 C   0  0  0  0  0  0  0  0  0  0  0  0
  139.6410   69.1210  226.7430 C   0  0  0  0  0  0  0  0  0  0  0  0
  140.1840   69.5270  227.9660 C   0  0  0  0  0  0  0  0  0  0  0  0
  140.0400   68.7530  229.0880 F   0  0  0  0  0  0  0  0  0  0  0  0
  140.8820   70.7170  228.0740 C   0  0  0  0  0  0  0  0  0  0  0  0
  141.0510   71.5330  226.9540 C   0  0  0  0  0  0  0  0  0  0  0  0
  140.5110   71.1320  225.7360 C   0  0  0  0  0  0  0  0  0  0  0  0
  140.6620   71.9050  224.6400 N   0  0  0  0  0  0  0  0  0  0  0  0
  140.2240   79.7830  223.2510 C   0  0  0  0  0  0  0  0  0  0  0  0
  140.3470   80.7910  222.3250 C   0  0  0  0  0  0  0  0  0  0  0  0
  141.5460   81.1400  221.7540 C   0  0  0  0  0  0  0  0  0  0  0  0
  142.6610   80.4140  222.1610 C   0  0  0  0  0  0  0  0  0  0  0  0
  142.5590   79.3960  223.0920 C   0  0  0  0  0  0  0  0  0  0  0  0
  141.3250   79.0600  223.6590 C   0  0  0  0  0  0  0  0  0  0  0  0
  138.2582   80.8354  225.3788 H   0  0  0  0  0  0  0  0  0  0  0  0
  138.8938   81.6135  223.8898 H   0  0  0  0  0  0  0  0  0  0  0  0
  137.2545   80.8791  223.8898 H   0  0  0  0  0  0  0  0  0  0  0  0
  138.9500   78.7362  224.6691 H   0  0  0  0  0  0  0  0  0  0  0  0
  137.3660   79.5010  222.3060 H   0  0  0  0  0  0  0  0  0  0  0  0
  137.4425   77.6423  220.5068 H   0  0  0  0  0  0  0  0  0  0  0  0
  135.6219   78.0226  222.0803 H   0  0  0  0  0  0  0  0  0  0  0  0
  135.3211   76.6692  220.8756 H   0  0  0  0  0  0  0  0  0  0  0  0
  135.8081   76.4938  223.8450 H   0  0  0  0  0  0  0  0  0  0  0  0
  134.4255   75.8801  222.8575 H   0  0  0  0  0  0  0  0  0  0  0  0
  137.0954   74.6600  223.3747 H   0  0  0  0  0  0  0  0  0  0  0  0
  135.5506   73.8778  222.9718 H   0  0  0  0  0  0  0  0  0  0  0  0
  137.0260   73.6139  221.0457 H   0  0  0  0  0  0  0  0  0  0  0  0
  135.8081   74.8381  220.5958 H   0  0  0  0  0  0  0  0  0  0  0  0
  140.5036   73.9995  220.3603 H   0  0  0  0  0  0  0  0  0  0  0  0
  140.7889   75.4238  221.5652 H   0  0  0  0  0  0  0  0  0  0  0  0
  139.5580   74.1050  223.2290 H   0  0  0  0  0  0  0  0  0  0  0  0
  139.0341   70.0892  222.2883 H   0  0  0  0  0  0  0  0  0  0  0  0
  138.7337   68.6288  224.3065 H   0  0  0  0  0  0  0  0  0  0  0  0
  139.0887   68.1733  226.6605 H   0  0  0  0  0  0  0  0  0  0  0  0
  141.3041   71.0203  229.0434 H   0  0  0  0  0  0  0  0  0  0  0  0
  141.6039   72.4806  227.0334 H   0  0  0  0  0  0  0  0  0  0  0  0
  139.4435   81.3436  222.0276 H   0  0  0  0  0  0  0  0  0  0  0  0
  141.6210   81.9505  221.0141 H   0  0  0  0  0  0  0  0  0  0  0  0
  143.6453   80.6549  221.7330 H   0  0  0  0  0  0  0  0  0  0  0  0
  143.4614   78.8426  223.3909 H   0  0  0  0  0  0  0  0  0  0  0  0
  141.2366   78.2519  224.4001 H   0  0  0  0  0  0  0  0  0  0  0  0
  1  2  1  0
  2  3  1  0
  3  4  1  0
  4  5  2  0
  4  6  1  0
  6  7  1  0
  7  8  1  0
  8  9  1  0
  9 10  1  0
 10 11  1  0
 11 12  1  0
 12 13  2  0
 12 14  1  0
 14 15  1  0
 15 16  1  0
 16 17  2  0
 16 18  1  0
 18 19  2  0
 19 20  1  0
 20 21  2  0
 21 22  1  0
 22 23  2  0
 23 24  1  0
 23 25  1  0
 25 26  2  0
 26 27  1  0
 27 28  2  0
  2 29  1  0
 29 30  2  0
 30 31  1  0
 31 32  2  0
 32 33  1  0
 33 34  2  0
 11  6  1  0
 28 18  1  0
 34 29  1  0
 27 21  1  0
  1 35  1  0
  1 36  1  0
  1 37  1  0
  2 38  1  1
  3 39  1  0
  6 40  1  6
  7 41  1  0
  7 42  1  0
  8 43  1  0
  8 44  1  0
  9 45  1  0
  9 46  1  0
 10 47  1  0
 10 48  1  0
 14 49  1  0
 14 50  1  0
 15 51  1  0
 19 52  1  0
 20 53  1  0
 22 54  1  0
 25 55  1  0
 26 56  1  0
 30 57  1  0
 31 58  1  0
 32 59  1  0
 33 60  1  0
 34 61  1  0
M  END
>  <smiles>  (15) 
C[C@@H](NC(=O)C1CCCCN1C(=O)CNC(=O)c1ccc2cc(F)ccc2n1)c1ccccc1

>  <score_type>  (15) 
oracle

>  <origin>  (15) 
autodockgpu

>  <m_score__min__energy>  (15) 
-9.4299999999999997

>  <m_primary>  (15) 
energy

>  <rmsd>  (15) 
3.695115776510304

>  <m_score__min__rmsd>  (15) 
3.695115776510304

>  <meeko>  (15) 
{"free_energy": -8.42, "intermolecular_energy": -10.51, "internal_energy": -2.23, "cluster_size": 2, "cluster_id": 4, "rank_in_cluster": 1}

>  <energy>  (15) 
-8.81

>  <cluster_rmsd>  (15) 
0.69

>  <cluster>  (15) 
1

$$$$

     RDKit          3D

 61 64  0  0  1  0  0  0  0  0999 V2000
  139.1100   77.3920  221.9700 C   0  0  0  0  0  0  0  0  0  0  0  0
  140.4400   77.2790  222.7170 C   0  0  1  0  0  0  0  0  0  0  0  0
  141.4430   76.7530  221.8100 N   0  0  0  0  0  0  0  0  0  0  0  0
  141.6310   77.3940  220.5550 C   0  0  0  0  0  0  0  0  0  0  0  0
  140.9380   78.3960  220.2430 O   0  0  0  0  0  0  0  0  0  0  0  0
  142.6730   76.8150  219.6590 C   0  0  2  0  0  0  0  0  0  0  0  0
  142.9240   77.6600  218.4660 C   0  0  0  0  0  0  0  0  0  0  0  0
  141.7630   77.7460  217.4940 C   0  0  0  0  0  0  0  0  0  0  0  0
  141.1070   76.3840  217.3120 C   0  0  0  0  0  0  0  0  0  0  0  0
  142.1090   75.3470  217.7750 C   0  0  0  0  0  0  0  0  0  0  0  0
  142.2400   75.4670  219.2050 N   0  0  0  0  0  0  0  0  0  0  0  0
  142.0110   74.5220  220.1890 C   0  0  0  0  0  0  0  0  0  0  0  0
  143.0900   74.1260  220.8360 O   0  0  0  0  0  0  0  0  0  0  0  0
  140.8060   73.8570  220.6670 C   0  0  0  0  0  0  0  0  0  0  0  0
  140.8430   73.0120  221.7990 N   0  0  0  0  0  0  0  0  0  0  0  0
  139.6650   72.3790  222.3110 C   0  0  0  0  0  0  0  0  0  0  0  0
  138.5970   72.6210  221.7030 O   0  0  0  0  0  0  0  0  0  0  0  0
  139.7270   71.4970  223.4870 C   0  0  0  0  0  0  0  0  0  0  0  0
  139.1580   70.2480  223.3630 C   0  0  0  0  0  0  0  0  0  0  0  0
  139.2250   69.4280  224.4830 C   0  0  0  0  0  0  0  0  0  0  0  0
  139.8360   69.8530  225.6600 C   0  0  0  0  0  0  0  0  0  0  0  0
  139.8910   69.0070  226.7720 C   0  0  0  0  0  0  0  0  0  0  0  0
  140.5120   69.4700  227.9360 C   0  0  0  0  0  0  0  0  0  0  0  0
  140.5900   68.6780  229.0510 F   0  0  0  0  0  0  0  0  0  0  0  0
  141.0650   70.7380  227.9900 C   0  0  0  0  0  0  0  0  0  0  0  0
  141.0060   71.5760  226.8750 C   0  0  0  0  0  0  0  0  0  0  0  0
  140.3880   71.1180  225.7160 C   0  0  0  0  0  0  0  0  0  0  0  0
  140.3190   71.9100  224.6250 N   0  0  0  0  0  0  0  0  0  0  0  0
  140.8210   78.6880  223.0850 C   0  0  0  0  0  0  0  0  0  0  0  0
  142.1280   78.9980  223.3770 C   0  0  0  0  0  0  0  0  0  0  0  0
  142.5380   80.2630  223.7190 C   0  0  0  0  0  0  0  0  0  0  0  0
  141.5530   81.2440  223.7600 C   0  0  0  0  0  0  0  0  0  0  0  0
  140.2320   80.9530  223.4700 C   0  0  0  0  0  0  0  0  0  0  0  0
  139.8400   79.6560  223.1240 C   0  0  0  0  0  0  0  0  0  0  0  0
  138.2865   77.4620  222.6959 H   0  0  0  0  0  0  0  0  0  0  0  0
  139.1195   78.2926  221.3384 H   0  0  0  0  0  0  0  0  0  0  0  0
  138.9675   76.5027  221.3384 H   0  0  0  0  0  0  0  0  0  0  0  0
  140.3642   76.6234  223.5970 H   0  0  0  0  0  0  0  0  0  0  0  0
  141.9950   75.9270  222.0950 H   0  0  0  0  0  0  0  0  0  0  0  0
  143.6066   76.7566  220.2377 H   0  0  0  0  0  0  0  0  0  0  0  0
  143.1584   78.6780  218.8105 H   0  0  0  0  0  0  0  0  0  0  0  0
  143.7525   77.1864  217.9189 H   0  0  0  0  0  0  0  0  0  0  0  0
  141.0183   78.4556  217.8838 H   0  0  0  0  0  0  0  0  0  0  0  0
  142.1438   78.0865  216.5198 H   0  0  0  0  0  0  0  0  0  0  0  0
  140.1909   76.3215  217.9177 H   0  0  0  0  0  0  0  0  0  0  0  0
  140.8274   76.2192  216.2610 H   0  0  0  0  0  0  0  0  0  0  0  0
  141.7516   74.3396  217.5154 H   0  0  0  0  0  0  0  0  0  0  0  0
  143.0811   75.5075  217.2858 H   0  0  0  0  0  0  0  0  0  0  0  0
  140.0789   74.6510  220.8927 H   0  0  0  0  0  0  0  0  0  0  0  0
  140.5744   73.1579  219.8499 H   0  0  0  0  0  0  0  0  0  0  0  0
  141.7250   72.7850  222.3470 H   0  0  0  0  0  0  0  0  0  0  0  0
  138.6777   69.9186  222.4298 H   0  0  0  0  0  0  0  0  0  0  0  0
  138.7855   68.4206  224.4388 H   0  0  0  0  0  0  0  0  0  0  0  0
  139.4547   67.9980  226.7318 H   0  0  0  0  0  0  0  0  0  0  0  0
  141.5518   71.0858  228.9131 H   0  0  0  0  0  0  0  0  0  0  0  0
  141.4424   72.5850  226.9125 H   0  0  0  0  0  0  0  0  0  0  0  0
  142.8797   78.1960  223.3347 H   0  0  0  0  0  0  0  0  0  0  0  0
  143.5899   80.4886  223.9484 H   0  0  0  0  0  0  0  0  0  0  0  0
  141.8304   82.2739  224.0289 H   0  0  0  0  0  0  0  0  0  0  0  0
  139.4789   81.7536  223.5122 H   0  0  0  0  0  0  0  0  0  0  0  0
  138.7914   79.4177  222.8923 H   0  0  0  0  0  0  0  0  0  0  0  0
  1  2  1  0
  2  3  1  0
  3  4  1  0
  4  5  2  0
  4  6  1  0
  6  7  1  0
  7  8  1  0
  8  9  1  0
  9 10  1  0
 10 11  1  0
 11 12  1  0
 12 13  2  0
 12 14  1  0
 14 15  1  0
 15 16  1  0
 16 17  2  0
 16 18  1  0
 18 19  2  0
 19 20  1  0
 20 21  2  0
 21 22  1  0
 22 23  2  0
 23 24  1  0
 23 25  1  0
 25 26  2  0
 26 27  1  0
 27 28  2  0
  2 29  1  0
 29 30  2  0
 30 31  1  0
 31 32  2  0
 32 33  1  0
 33 34  2  0
 11  6  1  0
 28 18  1  0
 34 29  1  0
 27 21  1  0
  1 35  1  0
  1 36  1  0
  1 37  1  0
  2 38  1  1
  3 39  1  0
  6 40  1  1
  7 41  1  0
  7 42  1  0
  8 43  1  0
  8 44  1  0
  9 45  1  0
  9 46  1  0
 10 47  1  0
 10 48  1  0
 14 49  1  0
 14 50  1  0
 15 51  1  0
 19 52  1  0
 20 53  1  0
 22 54  1  0
 25 55  1  0
 26 56  1  0
 30 57  1  0
 31 58  1  0
 32 59  1  0
 33 60  1  0
 34 61  1  0
M  END
>  <smiles>  (16) 
C[C@@H](NC(=O)C1CCCCN1C(=O)CNC(=O)c1ccc2cc(F)ccc2n1)c1ccccc1

>  <score_type>  (16) 
oracle

>  <origin>  (16) 
autodockgpu

>  <m_score__min__energy>  (16) 
-9.4299999999999997

>  <m_primary>  (16) 
energy

>  <rmsd>  (16) 
2.8498369927967815

>  <m_score__min__rmsd>  (16) 
2.8498369927967815

>  <meeko>  (16) 
{"free_energy": -9.02, "intermolecular_energy": -11.11, "internal_energy": -2.49, "cluster_size": 32, "cluster_id": 1, "rank_in_cluster": 9}

>  <energy>  (16) 
-8.61

>  <cluster_rmsd>  (16) 
1.57

>  <cluster>  (16) 
1

$$$$

     RDKit          3D

 61 64  0  0  1  0  0  0  0  0999 V2000
  140.8740   80.7370  219.0410 C   0  0  0  0  0  0  0  0  0  0  0  0
  141.1710   79.4620  219.8330 C   0  0  1  0  0  0  0  0  0  0  0  0
  142.2840   78.7710  219.2080 N   0  0  0  0  0  0  0  0  0  0  0  0
  142.0900   77.4390  218.7520 C   0  0  0  0  0  0  0  0  0  0  0  0
  140.9740   76.8750  218.8910 O   0  0  0  0  0  0  0  0  0  0  0  0
  143.2640   76.7730  218.1180 C   0  0  2  0  0  0  0  0  0  0  0  0
  143.2530   76.8990  216.6400 C   0  0  0  0  0  0  0  0  0  0  0  0
  142.1270   76.1540  215.9490 C   0  0  0  0  0  0  0  0  0  0  0  0
  141.9190   74.7820  216.5780 C   0  0  0  0  0  0  0  0  0  0  0  0
  143.1870   74.4490  217.3360 C   0  0  0  0  0  0  0  0  0  0  0  0
  143.2660   75.3300  218.4740 N   0  0  0  0  0  0  0  0  0  0  0  0
  143.3300   75.0200  219.8200 C   0  0  0  0  0  0  0  0  0  0  0  0
  144.5510   74.9400  220.3110 O   0  0  0  0  0  0  0  0  0  0  0  0
  142.3120   74.7560  220.8280 C   0  0  0  0  0  0  0  0  0  0  0  0
  141.3750   75.7490  221.1920 N   0  0  0  0  0  0  0  0  0  0  0  0
  140.1410   75.4250  221.8450 C   0  0  0  0  0  0  0  0  0  0  0  0
  139.9370   74.2100  222.0710 O   0  0  0  0  0  0  0  0  0  0  0  0
  139.1830   76.4750  222.2210 C   0  0  0  0  0  0  0  0  0  0  0  0
  137.8480   76.2070  222.0120 C   0  0  0  0  0  0  0  0  0  0  0  0
  136.9550   77.2110  222.3720 C   0  0  0  0  0  0  0  0  0  0  0  0
  137.3960   78.4160  222.9130 C   0  0  0  0  0  0  0  0  0  0  0  0
  136.4770   79.4080  223.2670 C   0  0  0  0  0  0  0  0  0  0  0  0
  136.9580   80.6040  223.8070 C   0  0  0  0  0  0  0  0  0  0  0  0
  136.0960   81.6070  224.1690 F   0  0  0  0  0  0  0  0  0  0  0  0
  138.3160   80.8070  223.9900 C   0  0  0  0  0  0  0  0  0  0  0  0
  139.2260   79.8100  223.6340 C   0  0  0  0  0  0  0  0  0  0  0  0
  138.7500   78.6180  223.0960 C   0  0  0  0  0  0  0  0  0  0  0  0
  139.6110   77.6410  222.7450 N   0  0  0  0  0  0  0  0  0  0  0  0
  141.6020   79.9240  221.1990 C   0  0  0  0  0  0  0  0  0  0  0  0
  141.4140   81.2300  221.5800 C   0  0  0  0  0  0  0  0  0  0  0  0
  141.7860   81.7120  222.8110 C   0  0  0  0  0  0  0  0  0  0  0  0
  142.3760   80.8010  223.6810 C   0  0  0  0  0  0  0  0  0  0  0  0
  142.5740   79.4810  223.3170 C   0  0  0  0  0  0  0  0  0  0  0  0
  142.1870   79.0150  222.0570 C   0  0  0  0  0  0  0  0  0  0  0  0
  140.6810   81.5654  219.7386 H   0  0  0  0  0  0  0  0  0  0  0  0
  141.7384   80.9849  218.4075 H   0  0  0  0  0  0  0  0  0  0  0  0
  139.9890   80.5774  218.4075 H   0  0  0  0  0  0  0  0  0  0  0  0
  140.3014   78.7896  219.8741 H   0  0  0  0  0  0  0  0  0  0  0  0
  143.1880   79.2610  219.1090 H   0  0  0  0  0  0  0  0  0  0  0  0
  144.1678   77.2735  218.4958 H   0  0  0  0  0  0  0  0  0  0  0  0
  143.1635   77.9659  216.3877 H   0  0  0  0  0  0  0  0  0  0  0  0
  144.1900   76.4470  216.2826 H   0  0  0  0  0  0  0  0  0  0  0  0
  141.1989   76.7373  216.0412 H   0  0  0  0  0  0  0  0  0  0  0  0
  142.3915   76.0195  214.8898 H   0  0  0  0  0  0  0  0  0  0  0  0
  141.0620   74.8078  217.2671 H   0  0  0  0  0  0  0  0  0  0  0  0
  141.7093   74.0239  215.8090 H   0  0  0  0  0  0  0  0  0  0  0  0
  143.1565   73.4028  217.6745 H   0  0  0  0  0  0  0  0  0  0  0  0
  144.0665   74.5792  216.6883 H   0  0  0  0  0  0  0  0  0  0  0  0
  141.7308   73.8944  220.4677 H   0  0  0  0  0  0  0  0  0  0  0  0
  142.9056   74.6347  221.7461 H   0  0  0  0  0  0  0  0  0  0  0  0
  141.5060   76.7890  221.0140 H   0  0  0  0  0  0  0  0  0  0  0  0
  137.5072   75.2525  221.5844 H   0  0  0  0  0  0  0  0  0  0  0  0
  135.8767   77.0495  222.2261 H   0  0  0  0  0  0  0  0  0  0  0  0
  135.3978   79.2506  223.1236 H   0  0  0  0  0  0  0  0  0  0  0  0
  138.6776   81.7545  224.4161 H   0  0  0  0  0  0  0  0  0  0  0  0
  140.3057   79.9646  223.7769 H   0  0  0  0  0  0  0  0  0  0  0  0
  140.9436   81.9221  220.8660 H   0  0  0  0  0  0  0  0  0  0  0  0
  141.6259   82.7628  223.0940 H   0  0  0  0  0  0  0  0  0  0  0  0
  142.6919   81.1372  224.6796 H   0  0  0  0  0  0  0  0  0  0  0  0
  143.0433   78.7873  224.0301 H   0  0  0  0  0  0  0  0  0  0  0  0
  142.3424   77.9669  221.7616 H   0  0  0  0  0  0  0  0  0  0  0  0
  1  2  1  0
  2  3  1  0
  3  4  1  0
  4  5  2  0
  4  6  1  0
  6  7  1  0
  7  8  1  0
  8  9  1  0
  9 10  1  0
 10 11  1  0
 11 12  1  0
 12 13  2  0
 12 14  1  0
 14 15  1  0
 15 16  1  0
 16 17  2  0
 16 18  1  0
 18 19  2  0
 19 20  1  0
 20 21  2  0
 21 22  1  0
 22 23  2  0
 23 24  1  0
 23 25  1  0
 25 26  2  0
 26 27  1  0
 27 28  2  0
  2 29  1  0
 29 30  2  0
 30 31  1  0
 31 32  2  0
 32 33  1  0
 33 34  2  0
 11  6  1  0
 28 18  1  0
 34 29  1  0
 27 21  1  0
  1 35  1  0
  1 36  1  0
  1 37  1  0
  2 38  1  1
  3 39  1  0
  6 40  1  1
  7 41  1  0
  7 42  1  0
  8 43  1  0
  8 44  1  0
  9 45  1  0
  9 46  1  0
 10 47  1  0
 10 48  1  0
 14 49  1  0
 14 50  1  0
 15 51  1  0
 19 52  1  0
 20 53  1  0
 22 54  1  0
 25 55  1  0
 26 56  1  0
 30 57  1  0
 31 58  1  0
 32 59  1  0
 33 60  1  0
 34 61  1  0
M  END
>  <smiles>  (17) 
C[C@@H](NC(=O)C1CCCCN1C(=O)CNC(=O)c1ccc2cc(F)ccc2n1)c1ccccc1

>  <score_type>  (17) 
oracle

>  <origin>  (17) 
autodockgpu

>  <m_score__min__energy>  (17) 
-9.4299999999999997

>  <m_primary>  (17) 
energy

>  <rmsd>  (17) 
6.330690374902514

>  <m_score__min__rmsd>  (17) 
6.330690374902514

>  <meeko>  (17) 
{"free_energy": -7.09, "intermolecular_energy": -9.18, "internal_energy": -3.9, "cluster_size": 4, "cluster_id": 11, "rank_in_cluster": 3}

>  <energy>  (17) 
-8.51

>  <cluster_rmsd>  (17) 
1.47

>  <cluster>  (17) 
1

$$$$

     RDKit          3D

 61 64  0  0  1  0  0  0  0  0999 V2000
  139.0820   77.4500  221.0680 C   0  0  0  0  0  0  0  0  0  0  0  0
  140.2700   76.9300  221.8790 C   0  0  1  0  0  0  0  0  0  0  0  0
  141.0680   76.0600  221.0360 N   0  0  0  0  0  0  0  0  0  0  0  0
  141.1230   74.6730  221.3460 C   0  0  0  0  0  0  0  0  0  0  0  0
  140.4930   74.2170  222.3330 O   0  0  0  0  0  0  0  0  0  0  0  0
  141.9570   73.8220  220.4480 C   0  0  2  0  0  0  0  0  0  0  0  0
  143.3910   74.2030  220.4840 C   0  0  0  0  0  0  0  0  0  0  0  0
  143.6990   75.5700  219.9060 C   0  0  0  0  0  0  0  0  0  0  0  0
  142.9000   75.8130  218.6330 C   0  0  0  0  0  0  0  0  0  0  0  0
  142.4510   74.4570  218.1300 C   0  0  0  0  0  0  0  0  0  0  0  0
  141.4660   73.9490  219.0510 N   0  0  0  0  0  0  0  0  0  0  0  0
  140.1540   73.5810  218.8170 C   0  0  0  0  0  0  0  0  0  0  0  0
  139.5740   74.2060  217.8110 O   0  0  0  0  0  0  0  0  0  0  0  0
  139.2580   72.6300  219.4640 C   0  0  0  0  0  0  0  0  0  0  0  0
  139.4800   72.2150  220.7970 N   0  0  0  0  0  0  0  0  0  0  0  0
  139.1000   70.9120  221.2580 C   0  0  0  0  0  0  0  0  0  0  0  0
  138.5560   70.1630  220.4140 O   0  0  0  0  0  0  0  0  0  0  0  0
  139.3460   70.4980  222.6470 C   0  0  0  0  0  0  0  0  0  0  0  0
  138.9220   69.2380  223.0090 C   0  0  0  0  0  0  0  0  0  0  0  0
  139.1610   68.8620  224.3260 C   0  0  0  0  0  0  0  0  0  0  0  0
  139.7950   69.7190  225.2220 C   0  0  0  0  0  0  0  0  0  0  0  0
  140.0240   69.3160  226.5400 C   0  0  0  0  0  0  0  0  0  0  0  0
  140.6630   70.2040  227.4110 C   0  0  0  0  0  0  0  0  0  0  0  0
  140.9090   69.8540  228.7130 F   0  0  0  0  0  0  0  0  0  0  0  0
  141.0640   71.4570  226.9800 C   0  0  0  0  0  0  0  0  0  0  0  0
  140.8320   71.8510  225.6610 C   0  0  0  0  0  0  0  0  0  0  0  0
  140.1950   70.9690  224.7930 C   0  0  0  0  0  0  0  0  0  0  0  0
  139.9600   71.3280  223.5140 N   0  0  0  0  0  0  0  0  0  0  0  0
  141.0910   78.1450  222.2220 C   0  0  0  0  0  0  0  0  0  0  0  0
  141.4480   79.0390  221.2420 C   0  0  0  0  0  0  0  0  0  0  0  0
  142.1950   80.1640  221.4910 C   0  0  0  0  0  0  0  0  0  0  0  0
  142.5860   80.3690  222.8100 C   0  0  0  0  0  0  0  0  0  0  0  0
  142.2370   79.4810  223.8120 C   0  0  0  0  0  0  0  0  0  0  0  0
  141.4750   78.3420  223.5320 C   0  0  0  0  0  0  0  0  0  0  0  0
  138.2935   77.7951  221.7529 H   0  0  0  0  0  0  0  0  0  0  0  0
  139.4092   78.2872  220.4339 H   0  0  0  0  0  0  0  0  0  0  0  0
  138.6889   76.6416  220.4339 H   0  0  0  0  0  0  0  0  0  0  0  0
  139.9476   76.3764  222.7732 H   0  0  0  0  0  0  0  0  0  0  0  0
  141.5750   76.4650  220.2320 H   0  0  0  0  0  0  0  0  0  0  0  0
  141.8697   72.7851  220.8046 H   0  0  0  0  0  0  0  0  0  0  0  0
  143.7219   74.1923  221.5330 H   0  0  0  0  0  0  0  0  0  0  0  0
  143.9217   73.4734  219.8547 H   0  0  0  0  0  0  0  0  0  0  0  0
  143.4402   76.3410  220.6466 H   0  0  0  0  0  0  0  0  0  0  0  0
  144.7708   75.6159  219.6629 H   0  0  0  0  0  0  0  0  0  0  0  0
  142.0258   76.4445  218.8498 H   0  0  0  0  0  0  0  0  0  0  0  0
  143.5099   76.3309  217.8781 H   0  0  0  0  0  0  0  0  0  0  0  0
  142.0093   74.5573  217.1276 H   0  0  0  0  0  0  0  0  0  0  0  0
  143.3068   73.7689  218.0649 H   0  0  0  0  0  0  0  0  0  0  0  0
  138.2539   73.0785  219.4387 H   0  0  0  0  0  0  0  0  0  0  0  0
  139.4281   71.7069  218.8905 H   0  0  0  0  0  0  0  0  0  0  0  0
  139.9320   72.8200  221.5450 H   0  0  0  0  0  0  0  0  0  0  0  0
  138.4220   68.5666  222.2954 H   0  0  0  0  0  0  0  0  0  0  0  0
  138.8424   67.8661  224.6676 H   0  0  0  0  0  0  0  0  0  0  0  0
  139.7081   68.3206  226.8855 H   0  0  0  0  0  0  0  0  0  0  0  0
  141.5662   72.1431  227.6779 H   0  0  0  0  0  0  0  0  0  0  0  0
  141.1484   72.8452  225.3124 H   0  0  0  0  0  0  0  0  0  0  0  0
  141.1203   78.8447  220.2101 H   0  0  0  0  0  0  0  0  0  0  0  0
  142.4696   80.8659  220.6898 H   0  0  0  0  0  0  0  0  0  0  0  0
  143.1856   81.2562  223.0619 H   0  0  0  0  0  0  0  0  0  0  0  0
  142.5638   79.6737  224.8445 H   0  0  0  0  0  0  0  0  0  0  0  0
  141.1935   77.6325  224.3241 H   0  0  0  0  0  0  0  0  0  0  0  0
  1  2  1  0
  2  3  1  0
  3  4  1  0
  4  5  2  0
  4  6  1  0
  6  7  1  0
  7  8  1  0
  8  9  1  0
  9 10  1  0
 10 11  1  0
 11 12  1  0
 12 13  2  0
 12 14  1  0
 14 15  1  0
 15 16  1  0
 16 17  2  0
 16 18  1  0
 18 19  2  0
 19 20  1  0
 20 21  2  0
 21 22  1  0
 22 23  2  0
 23 24  1  0
 23 25  1  0
 25 26  2  0
 26 27  1  0
 27 28  2  0
  2 29  1  0
 29 30  2  0
 30 31  1  0
 31 32  2  0
 32 33  1  0
 33 34  2  0
 11  6  1  0
 28 18  1  0
 34 29  1  0
 27 21  1  0
  1 35  1  0
  1 36  1  0
  1 37  1  0
  2 38  1  1
  3 39  1  0
  6 40  1  1
  7 41  1  0
  7 42  1  0
  8 43  1  0
  8 44  1  0
  9 45  1  0
  9 46  1  0
 10 47  1  0
 10 48  1  0
 14 49  1  0
 14 50  1  0
 15 51  1  0
 19 52  1  0
 20 53  1  0
 22 54  1  0
 25 55  1  0
 26 56  1  0
 30 57  1  0
 31 58  1  0
 32 59  1  0
 33 60  1  0
 34 61  1  0
M  END
>  <smiles>  (18) 
C[C@@H](NC(=O)C1CCCCN1C(=O)CNC(=O)c1ccc2cc(F)ccc2n1)c1ccccc1

>  <score_type>  (18) 
oracle

>  <origin>  (18) 
autodockgpu

>  <m_score__min__energy>  (18) 
-9.4299999999999997

>  <m_primary>  (18) 
energy

>  <rmsd>  (18) 
3.36997373941028

>  <m_score__min__rmsd>  (18) 
3.36997373941028

>  <meeko>  (18) 
{"free_energy": -7.95, "intermolecular_energy": -10.04, "internal_energy": -3.1, "cluster_size": 32, "cluster_id": 1, "rank_in_cluster": 30}

>  <energy>  (18) 
-8.5

>  <cluster_rmsd>  (18) 
1.83

>  <cluster>  (18) 
1

$$$$

     RDKit          3D

 61 64  0  0  1  0  0  0  0  0999 V2000
  138.8770   78.3830  221.7840 C   0  0  0  0  0  0  0  0  0  0  0  0
  139.9490   77.8560  222.7400 C   0  0  1  0  0  0  0  0  0  0  0  0
  140.6890   76.7990  222.0770 N   0  0  0  0  0  0  0  0  0  0  0  0
  140.0190   75.5800  221.7820 C   0  0  0  0  0  0  0  0  0  0  0  0
  138.8110   75.4260  222.0930 O   0  0  0  0  0  0  0  0  0  0  0  0
  140.8240   74.5250  221.1000 C   0  0  2  0  0  0  0  0  0  0  0  0
  142.2430   74.9240  220.9270 C   0  0  0  0  0  0  0  0  0  0  0  0
  142.4650   76.0800  219.9710 C   0  0  0  0  0  0  0  0  0  0  0  0
  141.5790   75.9430  218.7400 C   0  0  0  0  0  0  0  0  0  0  0  0
  141.1470   74.4930  218.6680 C   0  0  0  0  0  0  0  0  0  0  0  0
  140.2410   74.2470  219.7610 N   0  0  0  0  0  0  0  0  0  0  0  0
  138.9310   73.8060  219.7330 C   0  0  0  0  0  0  0  0  0  0  0  0
  138.2480   74.1700  218.6640 O   0  0  0  0  0  0  0  0  0  0  0  0
  138.1300   73.0130  220.6550 C   0  0  0  0  0  0  0  0  0  0  0  0
  138.6270   72.6570  221.9290 N   0  0  0  0  0  0  0  0  0  0  0  0
  139.0190   71.3140  222.2420 C   0  0  0  0  0  0  0  0  0  0  0  0
  138.8920   70.4720  221.3240 O   0  0  0  0  0  0  0  0  0  0  0  0
  139.5410   70.9670  223.5720 C   0  0  0  0  0  0  0  0  0  0  0  0
  140.3410   71.9010  224.1940 C   0  0  0  0  0  0  0  0  0  0  0  0
  140.8260   71.5570  225.4500 C   0  0  0  0  0  0  0  0  0  0  0  0
  140.5150   70.3350  226.0400 C   0  0  0  0  0  0  0  0  0  0  0  0
  141.0160   70.0140  227.3050 C   0  0  0  0  0  0  0  0  0  0  0  0
  140.6820   68.7770  227.8640 C   0  0  0  0  0  0  0  0  0  0  0  0
  141.1490   68.4180  229.1010 F   0  0  0  0  0  0  0  0  0  0  0  0
  139.8710   67.8850  227.1830 C   0  0  0  0  0  0  0  0  0  0  0  0
  139.3750   68.2140  225.9200 C   0  0  0  0  0  0  0  0  0  0  0  0
  139.7070   69.4440  225.3610 C   0  0  0  0  0  0  0  0  0  0  0  0
  139.2390   69.7840  224.1420 N   0  0  0  0  0  0  0  0  0  0  0  0
  140.8820   79.0120  222.9820 C   0  0  0  0  0  0  0  0  0  0  0  0
  142.2140   78.9050  222.6630 C   0  0  0  0  0  0  0  0  0  0  0  0
  143.1150   79.9230  222.8600 C   0  0  0  0  0  0  0  0  0  0  0  0
  142.6130   81.0970  223.4090 C   0  0  0  0  0  0  0  0  0  0  0  0
  141.2750   81.2260  223.7380 C   0  0  0  0  0  0  0  0  0  0  0  0
  140.3770   80.1740  223.5270 C   0  0  0  0  0  0  0  0  0  0  0  0
  138.0385   78.7952  222.3646 H   0  0  0  0  0  0  0  0  0  0  0  0
  139.3071   79.1724  221.1500 H   0  0  0  0  0  0  0  0  0  0  0  0
  138.5146   77.5603  221.1500 H   0  0  0  0  0  0  0  0  0  0  0  0
  139.5143   77.4673  223.6727 H   0  0  0  0  0  0  0  0  0  0  0  0
  141.6810   76.9550  221.8350 H   0  0  0  0  0  0  0  0  0  0  0  0
  140.7963   73.6284  221.7366 H   0  0  0  0  0  0  0  0  0  0  0  0
  142.6401   75.2126  221.9114 H   0  0  0  0  0  0  0  0  0  0  0  0
  142.7582   74.0562  220.4895 H   0  0  0  0  0  0  0  0  0  0  0  0
  142.2257   77.0231  220.4841 H   0  0  0  0  0  0  0  0  0  0  0  0
  143.5171   76.0743  219.6500 H   0  0  0  0  0  0  0  0  0  0  0  0
  140.6986   76.5958  218.8331 H   0  0  0  0  0  0  0  0  0  0  0  0
  142.1215   76.2379  217.8296 H   0  0  0  0  0  0  0  0  0  0  0  0
  140.6394   74.3011  217.7112 H   0  0  0  0  0  0  0  0  0  0  0  0
  142.0209   73.8285  218.7372 H   0  0  0  0  0  0  0  0  0  0  0  0
  137.2016   73.5771  220.8278 H   0  0  0  0  0  0  0  0  0  0  0  0
  138.0604   72.0423  220.1422 H   0  0  0  0  0  0  0  0  0  0  0  0
  138.7450   73.3370  222.7370 H   0  0  0  0  0  0  0  0  0  0  0  0
  140.5822   72.8651  223.7225 H   0  0  0  0  0  0  0  0  0  0  0  0
  141.4702   72.2663  225.9903 H   0  0  0  0  0  0  0  0  0  0  0  0
  141.6599   70.7204  227.8494 H   0  0  0  0  0  0  0  0  0  0  0  0
  139.6172   66.9160  227.6376 H   0  0  0  0  0  0  0  0  0  0  0  0
  138.7301   67.5098  225.3740 H   0  0  0  0  0  0  0  0  0  0  0  0
  142.5756   77.9607  222.2299 H   0  0  0  0  0  0  0  0  0  0  0  0
  144.1776   79.8147  222.5972 H   0  0  0  0  0  0  0  0  0  0  0  0
  143.2943   81.9423  223.5859 H   0  0  0  0  0  0  0  0  0  0  0  0
  140.9121   82.1695  224.1718 H   0  0  0  0  0  0  0  0  0  0  0  0
  139.3120   80.2697  223.7851 H   0  0  0  0  0  0  0  0  0  0  0  0
  1  2  1  0
  2  3  1  0
  3  4  1  0
  4  5  2  0
  4  6  1  0
  6  7  1  0
  7  8  1  0
  8  9  1  0
  9 10  1  0
 10 11  1  0
 11 12  1  0
 12 13  2  0
 12 14  1  0
 14 15  1  0
 15 16  1  0
 16 17  2  0
 16 18  1  0
 18 19  2  0
 19 20  1  0
 20 21  2  0
 21 22  1  0
 22 23  2  0
 23 24  1  0
 23 25  1  0
 25 26  2  0
 26 27  1  0
 27 28  2  0
  2 29  1  0
 29 30  2  0
 30 31  1  0
 31 32  2  0
 32 33  1  0
 33 34  2  0
 11  6  1  0
 28 18  1  0
 34 29  1  0
 27 21  1  0
  1 35  1  0
  1 36  1  0
  1 37  1  0
  2 38  1  1
  3 39  1  0
  6 40  1  1
  7 41  1  0
  7 42  1  0
  8 43  1  0
  8 44  1  0
  9 45  1  0
  9 46  1  0
 10 47  1  0
 10 48  1  0
 14 49  1  0
 14 50  1  0
 15 51  1  0
 19 52  1  0
 20 53  1  0
 22 54  1  0
 25 55  1  0
 26 56  1  0
 30 57  1  0
 31 58  1  0
 32 59  1  0
 33 60  1  0
 34 61  1  0
M  END
>  <smiles>  (19) 
C[C@@H](NC(=O)C1CCCCN1C(=O)CNC(=O)c1ccc2cc(F)ccc2n1)c1ccccc1

>  <score_type>  (19) 
oracle

>  <origin>  (19) 
autodockgpu

>  <m_score__min__energy>  (19) 
-9.4299999999999997

>  <m_primary>  (19) 
energy

>  <rmsd>  (19) 
3.382992937542696

>  <m_score__min__rmsd>  (19) 
3.382992937542696

>  <meeko>  (19) 
{"free_energy": -9.0, "intermolecular_energy": -11.09, "internal_energy": -2.44, "cluster_size": 32, "cluster_id": 1, "rank_in_cluster": 11}

>  <energy>  (19) 
-8.4

>  <cluster_rmsd>  (19) 
1.55

>  <cluster>  (19) 
1

$$$$

     RDKit          3D

 61 64  0  0  1  0  0  0  0  0999 V2000
  146.2630   73.6760  220.3310 C   0  0  0  0  0  0  0  0  0  0  0  0
  144.8450   73.1510  220.5660 C   0  0  1  0  0  0  0  0  0  0  0  0
  143.9150   73.9510  219.7900 N   0  0  0  0  0  0  0  0  0  0  0  0
  142.5450   73.9640  220.1700 C   0  0  0  0  0  0  0  0  0  0  0  0
  142.1530   73.2940  221.1590 O   0  0  0  0  0  0  0  0  0  0  0  0
  141.6310   74.8000  219.3390 C   0  0  2  0  0  0  0  0  0  0  0  0
  142.3670   75.6220  218.3460 C   0  0  0  0  0  0  0  0  0  0  0  0
  143.2420   76.7070  218.9430 C   0  0  0  0  0  0  0  0  0  0  0  0
  142.5320   77.4010  220.0980 C   0  0  0  0  0  0  0  0  0  0  0  0
  141.0550   77.1070  219.9470 C   0  0  0  0  0  0  0  0  0  0  0  0
  140.8520   75.7070  220.2230 N   0  0  0  0  0  0  0  0  0  0  0  0
  140.0570   75.1080  221.1830 C   0  0  0  0  0  0  0  0  0  0  0  0
  139.9120   75.8030  222.2940 O   0  0  0  0  0  0  0  0  0  0  0  0
  139.3340   73.8440  221.2260 C   0  0  0  0  0  0  0  0  0  0  0  0
  139.3850   73.0160  222.3710 N   0  0  0  0  0  0  0  0  0  0  0  0
  139.7340   71.6290  222.2880 C   0  0  0  0  0  0  0  0  0  0  0  0
  139.9860   71.1880  221.1430 O   0  0  0  0  0  0  0  0  0  0  0  0
  139.7880   70.7870  223.4930 C   0  0  0  0  0  0  0  0  0  0  0  0
  139.2320   69.5290  223.4020 C   0  0  0  0  0  0  0  0  0  0  0  0
  139.2900   68.7470  224.5500 C   0  0  0  0  0  0  0  0  0  0  0  0
  139.8810   69.2170  225.7210 C   0  0  0  0  0  0  0  0  0  0  0  0
  139.9270   68.4100  226.8610 C   0  0  0  0  0  0  0  0  0  0  0  0
  140.5270   68.9170  228.0170 C   0  0  0  0  0  0  0  0  0  0  0  0
  140.5950   68.1630  229.1600 F   0  0  0  0  0  0  0  0  0  0  0  0
  141.0670   70.1920  228.0380 C   0  0  0  0  0  0  0  0  0  0  0  0
  141.0160   70.9910  226.8940 C   0  0  0  0  0  0  0  0  0  0  0  0
  140.4190   70.4890  225.7420 C   0  0  0  0  0  0  0  0  0  0  0  0
  140.3590   71.2430  224.6250 N   0  0  0  0  0  0  0  0  0  0  0  0
  144.8360   71.7470  220.0230 C   0  0  0  0  0  0  0  0  0  0  0  0
  145.9160   71.2700  219.3210 C   0  0  0  0  0  0  0  0  0  0  0  0
  145.9680   70.0000  218.8010 C   0  0  0  0  0  0  0  0  0  0  0  0
  144.8560   69.1950  219.0190 C   0  0  0  0  0  0  0  0  0  0  0  0
  143.7580   69.6560  219.7240 C   0  0  0  0  0  0  0  0  0  0  0  0
  143.7300   70.9540  220.2430 C   0  0  0  0  0  0  0  0  0  0  0  0
  146.7521   73.8571  221.2995 H   0  0  0  0  0  0  0  0  0  0  0  0
  146.8399   72.9319  219.7623 H   0  0  0  0  0  0  0  0  0  0  0  0
  146.2163   74.6164  219.7623 H   0  0  0  0  0  0  0  0  0  0  0  0
  144.5615   73.1899  221.6281 H   0  0  0  0  0  0  0  0  0  0  0  0
  144.2680   74.4890  218.9820 H   0  0  0  0  0  0  0  0  0  0  0  0
  140.9672   74.1151  218.7910 H   0  0  0  0  0  0  0  0  0  0  0  0
  143.0083   74.9518  217.7548 H   0  0  0  0  0  0  0  0  0  0  0  0
  141.6042   76.1360  217.7428 H   0  0  0  0  0  0  0  0  0  0  0  0
  144.1746   76.2555  219.3122 H   0  0  0  0  0  0  0  0  0  0  0  0
  143.4593   77.4527  218.1640 H   0  0  0  0  0  0  0  0  0  0  0  0
  142.8994   77.0092  221.0580 H   0  0  0  0  0  0  0  0  0  0  0  0
  142.7212   78.4845  220.0823 H   0  0  0  0  0  0  0  0  0  0  0  0
  140.4780   77.7158  220.6586 H   0  0  0  0  0  0  0  0  0  0  0  0
  140.7179   77.3498  218.9285 H   0  0  0  0  0  0  0  0  0  0  0  0
  138.2734   74.0842  221.0604 H   0  0  0  0  0  0  0  0  0  0  0  0
  139.8543   73.2410  220.4672 H   0  0  0  0  0  0  0  0  0  0  0  0
  139.1730   73.3470  223.3580 H   0  0  0  0  0  0  0  0  0  0  0  0
  138.7685   69.1644  222.4734 H   0  0  0  0  0  0  0  0  0  0  0  0
  138.8598   67.7348  224.5335 H   0  0  0  0  0  0  0  0  0  0  0  0
  139.4997   67.3965  226.8487 H   0  0  0  0  0  0  0  0  0  0  0  0
  141.5362   70.5754  228.9561 H   0  0  0  0  0  0  0  0  0  0  0  0
  141.4426   72.0049  226.9035 H   0  0  0  0  0  0  0  0  0  0  0  0
  146.7785   71.9355  219.1684 H   0  0  0  0  0  0  0  0  0  0  0  0
  146.8435   69.6388  218.2415 H   0  0  0  0  0  0  0  0  0  0  0  0
  144.8486   68.1690  218.6224 H   0  0  0  0  0  0  0  0  0  0  0  0
  142.8949   68.9917  219.8783 H   0  0  0  0  0  0  0  0  0  0  0  0
  142.8607   71.3273  220.8041 H   0  0  0  0  0  0  0  0  0  0  0  0
  1  2  1  0
  2  3  1  0
  3  4  1  0
  4  5  2  0
  4  6  1  0
  6  7  1  0
  7  8  1  0
  8  9  1  0
  9 10  1  0
 10 11  1  0
 11 12  1  0
 12 13  2  0
 12 14  1  0
 14 15  1  0
 15 16  1  0
 16 17  2  0
 16 18  1  0
 18 19  2  0
 19 20  1  0
 20 21  2  0
 21 22  1  0
 22 23  2  0
 23 24  1  0
 23 25  1  0
 25 26  2  0
 26 27  1  0
 27 28  2  0
  2 29  1  0
 29 30  2  0
 30 31  1  0
 31 32  2  0
 32 33  1  0
 33 34  2  0
 11  6  1  0
 28 18  1  0
 34 29  1  0
 27 21  1  0
  1 35  1  0
  1 36  1  0
  1 37  1  0
  2 38  1  1
  3 39  1  0
  6 40  1  6
  7 41  1  0
  7 42  1  0
  8 43  1  0
  8 44  1  0
  9 45  1  0
  9 46  1  0
 10 47  1  0
 10 48  1  0
 14 49  1  0
 14 50  1  0
 15 51  1  0
 19 52  1  0
 20 53  1  0
 22 54  1  0
 25 55  1  0
 26 56  1  0
 30 57  1  0
 31 58  1  0
 32 59  1  0
 33 60  1  0
 34 61  1  0
M  END
>  <smiles>  (20) 
C[C@@H](NC(=O)C1CCCCN1C(=O)CNC(=O)c1ccc2cc(F)ccc2n1)c1ccccc1

>  <score_type>  (20) 
oracle

>  <origin>  (20) 
autodockgpu

>  <m_score__min__energy>  (20) 
-9.4299999999999997

>  <m_primary>  (20) 
energy

>  <rmsd>  (20) 
6.171601964676743

>  <m_score__min__rmsd>  (20) 
6.171601964676743

>  <meeko>  (20) 
{"free_energy": -8.54, "intermolecular_energy": -10.62, "internal_energy": -2.23, "cluster_size": 2, "cluster_id": 3, "rank_in_cluster": 2}

>  <energy>  (20) 
-8.37

>  <cluster_rmsd>  (20) 
1.46

>  <cluster>  (20) 
1

$$$$

     RDKit          3D

 61 64  0  0  1  0  0  0  0  0999 V2000
  141.1080   78.2360  222.7390 C   0  0  0  0  0  0  0  0  0  0  0  0
  140.6940   77.6950  221.3700 C   0  0  1  0  0  0  0  0  0  0  0  0
  141.7300   76.8010  220.8870 N   0  0  0  0  0  0  0  0  0  0  0  0
  141.9970   76.7560  219.4920 C   0  0  0  0  0  0  0  0  0  0  0  0
  141.3450   77.4800  218.6960 O   0  0  0  0  0  0  0  0  0  0  0  0
  143.0700   75.8200  219.0470 C   0  0  2  0  0  0  0  0  0  0  0  0
  143.6890   76.2400  217.7660 C   0  0  0  0  0  0  0  0  0  0  0  0
  142.7690   76.1710  216.5640 C   0  0  0  0  0  0  0  0  0  0  0  0
  141.9270   74.9020  216.5980 C   0  0  0  0  0  0  0  0  0  0  0  0
  142.6220   73.9390  217.5370 C   0  0  0  0  0  0  0  0  0  0  0  0
  142.4970   74.4590  218.8750 N   0  0  0  0  0  0  0  0  0  0  0  0
  141.9220   73.8800  219.9910 C   0  0  0  0  0  0  0  0  0  0  0  0
  142.5370   74.1400  221.1290 O   0  0  0  0  0  0  0  0  0  0  0  0
  140.7570   73.0240  220.1780 C   0  0  0  0  0  0  0  0  0  0  0  0
  140.6880   72.1180  221.2600 N   0  0  0  0  0  0  0  0  0  0  0  0
  140.2580   72.5270  222.5650 C   0  0  0  0  0  0  0  0  0  0  0  0
  139.9520   73.7350  222.6940 O   0  0  0  0  0  0  0  0  0  0  0  0
  140.1870   71.5660  223.6760 C   0  0  0  0  0  0  0  0  0  0  0  0
  139.6160   70.3410  223.4070 C   0  0  0  0  0  0  0  0  0  0  0  0
  139.5560   69.4440  224.4680 C   0  0  0  0  0  0  0  0  0  0  0  0
  140.0480   69.7760  225.7280 C   0  0  0  0  0  0  0  0  0  0  0  0
  139.9750   68.8550  226.7780 C   0  0  0  0  0  0  0  0  0  0  0  0
  140.4790   69.2240  228.0290 C   0  0  0  0  0  0  0  0  0  0  0  0
  140.4290   68.3560  229.0880 F   0  0  0  0  0  0  0  0  0  0  0  0
  141.0400   70.4740  228.2280 C   0  0  0  0  0  0  0  0  0  0  0  0
  141.1080   71.3870  227.1740 C   0  0  0  0  0  0  0  0  0  0  0  0
  140.6070   71.0220  225.9290 C   0  0  0  0  0  0  0  0  0  0  0  0
  140.6630   71.8870  224.8950 N   0  0  0  0  0  0  0  0  0  0  0  0
  139.4440   76.8920  221.6110 C   0  0  0  0  0  0  0  0  0  0  0  0
  139.0790   75.9000  220.7340 C   0  0  0  0  0  0  0  0  0  0  0  0
  137.9510   75.1340  220.8980 C   0  0  0  0  0  0  0  0  0  0  0  0
  137.1730   75.4080  222.0170 C   0  0  0  0  0  0  0  0  0  0  0  0
  137.5230   76.4030  222.9130 C   0  0  0  0  0  0  0  0  0  0  0  0
  138.6770   77.1700  222.7230 C   0  0  0  0  0  0  0  0  0  0  0  0
  140.6430   77.6284  223.5293 H   0  0  0  0  0  0  0  0  0  0  0  0
  142.2027   78.1886  222.8363 H   0  0  0  0  0  0  0  0  0  0  0  0
  140.7761   79.2802  222.8363 H   0  0  0  0  0  0  0  0  0  0  0  0
  140.5378   78.5011  220.6380 H   0  0  0  0  0  0  0  0  0  0  0  0
  142.2470   76.2180  221.5660 H   0  0  0  0  0  0  0  0  0  0  0  0
  143.8515   75.8256  219.8211 H   0  0  0  0  0  0  0  0  0  0  0  0
  144.0314   77.2796  217.8758 H   0  0  0  0  0  0  0  0  0  0  0  0
  144.5080   75.5321  217.5706 H   0  0  0  0  0  0  0  0  0  0  0  0
  142.1025   77.0461  216.5696 H   0  0  0  0  0  0  0  0  0  0  0  0
  143.3825   76.1621  215.6510 H   0  0  0  0  0  0  0  0  0  0  0  0
  140.9162   75.1284  216.9682 H   0  0  0  0  0  0  0  0  0  0  0  0
  141.8270   74.4684  215.5920 H   0  0  0  0  0  0  0  0  0  0  0  0
  142.1478   72.9484  217.4750 H   0  0  0  0  0  0  0  0  0  0  0  0
  143.6823   73.8344  217.2635 H   0  0  0  0  0  0  0  0  0  0  0  0
  139.8891   73.6930  220.2739 H   0  0  0  0  0  0  0  0  0  0  0  0
  140.8036   72.3564  219.3050 H   0  0  0  0  0  0  0  0  0  0  0  0
  140.9440   71.0880  221.1960 H   0  0  0  0  0  0  0  0  0  0  0  0
  139.2294   70.0869  222.4090 H   0  0  0  0  0  0  0  0  0  0  0  0
  139.1104   68.4510  224.3087 H   0  0  0  0  0  0  0  0  0  0  0  0
  139.5303   67.8609  226.6229 H   0  0  0  0  0  0  0  0  0  0  0  0
  141.4328   70.7482  229.2182 H   0  0  0  0  0  0  0  0  0  0  0  0
  141.5520   72.3819  227.3262 H   0  0  0  0  0  0  0  0  0  0  0  0
  139.7196   75.7104  219.8601 H   0  0  0  0  0  0  0  0  0  0  0  0
  137.6775   74.3452  220.1817 H   0  0  0  0  0  0  0  0  0  0  0  0
  136.2595   74.8213  222.1941 H   0  0  0  0  0  0  0  0  0  0  0  0
  136.8839   76.5935  223.7878 H   0  0  0  0  0  0  0  0  0  0  0  0
  138.9611   77.9622  223.4312 H   0  0  0  0  0  0  0  0  0  0  0  0
  1  2  1  0
  2  3  1  0
  3  4  1  0
  4  5  2  0
  4  6  1  0
  6  7  1  0
  7  8  1  0
  8  9  1  0
  9 10  1  0
 10 11  1  0
 11 12  1  0
 12 13  2  0
 12 14  1  0
 14 15  1  0
 15 16  1  0
 16 17  2  0
 16 18  1  0
 18 19  2  0
 19 20  1  0
 20 21  2  0
 21 22  1  0
 22 23  2  0
 23 24  1  0
 23 25  1  0
 25 26  2  0
 26 27  1  0
 27 28  2  0
  2 29  1  0
 29 30  2  0
 30 31  1  0
 31 32  2  0
 32 33  1  0
 33 34  2  0
 11  6  1  0
 28 18  1  0
 34 29  1  0
 27 21  1  0
  1 35  1  0
  1 36  1  0
  1 37  1  0
  2 38  1  6
  3 39  1  0
  6 40  1  1
  7 41  1  0
  7 42  1  0
  8 43  1  0
  8 44  1  0
  9 45  1  0
  9 46  1  0
 10 47  1  0
 10 48  1  0
 14 49  1  0
 14 50  1  0
 15 51  1  0
 19 52  1  0
 20 53  1  0
 22 54  1  0
 25 55  1  0
 26 56  1  0
 30 57  1  0
 31 58  1  0
 32 59  1  0
 33 60  1  0
 34 61  1  0
M  END
>  <smiles>  (21) 
C[C@@H](NC(=O)C1CCCCN1C(=O)CNC(=O)c1ccc2cc(F)ccc2n1)c1ccccc1

>  <score_type>  (21) 
oracle

>  <origin>  (21) 
autodockgpu

>  <m_score__min__energy>  (21) 
-9.4299999999999997

>  <m_primary>  (21) 
energy

>  <rmsd>  (21) 
3.4820242158340813

>  <m_score__min__rmsd>  (21) 
3.4820242158340813

>  <meeko>  (21) 
{"free_energy": -7.7, "intermolecular_energy": -9.79, "internal_energy": -3.18, "cluster_size": 2, "cluster_id": 6, "rank_in_cluster": 1}

>  <energy>  (21) 
-8.36

>  <cluster_rmsd>  (21) 
1.87

>  <cluster>  (21) 
1

$$$$

     RDKit          3D

 61 64  0  0  1  0  0  0  0  0999 V2000
  141.0840   80.8990  219.0060 C   0  0  0  0  0  0  0  0  0  0  0  0
  141.2870   79.5790  219.7530 C   0  0  1  0  0  0  0  0  0  0  0  0
  142.3790   78.8530  219.1330 N   0  0  0  0  0  0  0  0  0  0  0  0
  142.1720   77.4970  218.7590 C   0  0  0  0  0  0  0  0  0  0  0  0
  141.0620   76.9440  218.9650 O   0  0  0  0  0  0  0  0  0  0  0  0
  143.3260   76.7960  218.1260 C   0  0  2  0  0  0  0  0  0  0  0  0
  143.3110   76.9080  216.6470 C   0  0  0  0  0  0  0  0  0  0  0  0
  142.1630   76.1860  215.9680 C   0  0  0  0  0  0  0  0  0  0  0  0
  141.9230   74.8260  216.6100 C   0  0  0  0  0  0  0  0  0  0  0  0
  143.1860   74.4670  217.3660 C   0  0  0  0  0  0  0  0  0  0  0  0
  143.2920   75.3560  218.4950 N   0  0  0  0  0  0  0  0  0  0  0  0
  143.3550   75.0580  219.8440 C   0  0  0  0  0  0  0  0  0  0  0  0
  144.5740   75.0280  220.3470 O   0  0  0  0  0  0  0  0  0  0  0  0
  142.3380   74.7620  220.8440 C   0  0  0  0  0  0  0  0  0  0  0  0
  141.3990   75.7410  221.2380 N   0  0  0  0  0  0  0  0  0  0  0  0
  140.1630   75.3940  221.8740 C   0  0  0  0  0  0  0  0  0  0  0  0
  139.9590   74.1720  222.0580 O   0  0  0  0  0  0  0  0  0  0  0  0
  139.2030   76.4310  222.2820 C   0  0  0  0  0  0  0  0  0  0  0  0
  137.8650   76.1140  222.1910 C   0  0  0  0  0  0  0  0  0  0  0  0
  136.9700   77.1050  222.5800 C   0  0  0  0  0  0  0  0  0  0  0  0
  137.4120   78.3450  223.0340 C   0  0  0  0  0  0  0  0  0  0  0  0
  136.4910   79.3240  223.4200 C   0  0  0  0  0  0  0  0  0  0  0  0
  136.9730   80.5570  223.8700 C   0  0  0  0  0  0  0  0  0  0  0  0
  136.1090   81.5480  224.2580 F   0  0  0  0  0  0  0  0  0  0  0  0
  138.3330   80.8070  223.9360 C   0  0  0  0  0  0  0  0  0  0  0  0
  139.2450   79.8240  223.5500 C   0  0  0  0  0  0  0  0  0  0  0  0
  138.7680   78.5960  223.1010 C   0  0  0  0  0  0  0  0  0  0  0  0
  139.6310   77.6310  222.7220 N   0  0  0  0  0  0  0  0  0  0  0  0
  141.6990   79.9610  221.1490 C   0  0  0  0  0  0  0  0  0  0  0  0
  142.1950   79.0110  222.0090 C   0  0  0  0  0  0  0  0  0  0  0  0
  142.5870   79.2950  223.2940 C   0  0  0  0  0  0  0  0  0  0  0  0
  142.4600   80.6190  223.7010 C   0  0  0  0  0  0  0  0  0  0  0  0
  141.9640   81.5910  222.8520 C   0  0  0  0  0  0  0  0  0  0  0  0
  141.5710   81.2750  221.5470 C   0  0  0  0  0  0  0  0  0  0  0  0
  140.9584   81.7157  219.7321 H   0  0  0  0  0  0  0  0  0  0  0  0
  141.9615   81.1016  218.3744 H   0  0  0  0  0  0  0  0  0  0  0  0
  140.1861   80.8286  218.3744 H   0  0  0  0  0  0  0  0  0  0  0  0
  140.3812   78.9549  219.7408 H   0  0  0  0  0  0  0  0  0  0  0  0
  143.2800   79.3360  218.9770 H   0  0  0  0  0  0  0  0  0  0  0  0
  144.2438   77.2770  218.4951 H   0  0  0  0  0  0  0  0  0  0  0  0
  143.2479   77.9744  216.3848 H   0  0  0  0  0  0  0  0  0  0  0  0
  144.2342   76.4282  216.2899 H   0  0  0  0  0  0  0  0  0  0  0  0
  141.2506   76.7937  216.0592 H   0  0  0  0  0  0  0  0  0  0  0  0
  142.4189   76.0353  214.9089 H   0  0  0  0  0  0  0  0  0  0  0  0
  141.0700   74.8799  217.3025 H   0  0  0  0  0  0  0  0  0  0  0  0
  141.6907   74.0668  215.8487 H   0  0  0  0  0  0  0  0  0  0  0  0
  143.1302   73.4251  217.7142 H   0  0  0  0  0  0  0  0  0  0  0  0
  144.0659   74.5682  216.7136 H   0  0  0  0  0  0  0  0  0  0  0  0
  141.7586   73.9102  220.4583 H   0  0  0  0  0  0  0  0  0  0  0  0
  142.9325   74.6151  221.7578 H   0  0  0  0  0  0  0  0  0  0  0  0
  141.5300   76.7870  221.0960 H   0  0  0  0  0  0  0  0  0  0  0  0
  137.5239   75.1322  221.8309 H   0  0  0  0  0  0  0  0  0  0  0  0
  135.8896   76.9049  222.5279 H   0  0  0  0  0  0  0  0  0  0  0  0
  135.4097   79.1281  223.3706 H   0  0  0  0  0  0  0  0  0  0  0  0
  138.6953   81.7822  224.2934 H   0  0  0  0  0  0  0  0  0  0  0  0
  140.3268   80.0171  223.5999 H   0  0  0  0  0  0  0  0  0  0  0  0
  142.2821   77.9744  221.6513 H   0  0  0  0  0  0  0  0  0  0  0  0
  142.9803   78.5174  223.9653 H   0  0  0  0  0  0  0  0  0  0  0  0
  142.7610   80.8990  224.7213 H   0  0  0  0  0  0  0  0  0  0  0  0
  141.8771   82.6282  223.2079 H   0  0  0  0  0  0  0  0  0  0  0  0
  141.1760   82.0434  220.8662 H   0  0  0  0  0  0  0  0  0  0  0  0
  1  2  1  0
  2  3  1  0
  3  4  1  0
  4  5  2  0
  4  6  1  0
  6  7  1  0
  7  8  1  0
  8  9  1  0
  9 10  1  0
 10 11  1  0
 11 12  1  0
 12 13  2  0
 12 14  1  0
 14 15  1  0
 15 16  1  0
 16 17  2  0
 16 18  1  0
 18 19  2  0
 19 20  1  0
 20 21  2  0
 21 22  1  0
 22 23  2  0
 23 24  1  0
 23 25  1  0
 25 26  2  0
 26 27  1  0
 27 28  2  0
  2 29  1  0
 29 30  2  0
 30 31  1  0
 31 32  2  0
 32 33  1  0
 33 34  2  0
 11  6  1  0
 28 18  1  0
 34 29  1  0
 27 21  1  0
  1 35  1  0
  1 36  1  0
  1 37  1  0
  2 38  1  1
  3 39  1  0
  6 40  1  1
  7 41  1  0
  7 42  1  0
  8 43  1  0
  8 44  1  0
  9 45  1  0
  9 46  1  0
 10 47  1  0
 10 48  1  0
 14 49  1  0
 14 50  1  0
 15 51  1  0
 19 52  1  0
 20 53  1  0
 22 54  1  0
 25 55  1  0
 26 56  1  0
 30 57  1  0
 31 58  1  0
 32 59  1  0
 33 60  1  0
 34 61  1  0
M  END
>  <smiles>  (22) 
C[C@@H](NC(=O)C1CCCCN1C(=O)CNC(=O)c1ccc2cc(F)ccc2n1)c1ccccc1

>  <score_type>  (22) 
oracle

>  <origin>  (22) 
autodockgpu

>  <m_score__min__energy>  (22) 
-9.4299999999999997

>  <m_primary>  (22) 
energy

>  <rmsd>  (22) 
6.306367421750582

>  <m_score__min__rmsd>  (22) 
6.306367421750582

>  <meeko>  (22) 
{"free_energy": -7.12, "intermolecular_energy": -9.2, "internal_energy": -3.93, "cluster_size": 4, "cluster_id": 11, "rank_in_cluster": 2}

>  <energy>  (22) 
-8.34

>  <cluster_rmsd>  (22) 
1.81

>  <cluster>  (22) 
1

$$$$

     RDKit          3D

 61 64  0  0  1  0  0  0  0  0999 V2000
  140.2650   76.8700  220.7040 C   0  0  0  0  0  0  0  0  0  0  0  0
  141.7590   76.6520  220.4590 C   0  0  1  0  0  0  0  0  0  0  0  0
  142.0790   75.2620  220.7240 N   0  0  0  0  0  0  0  0  0  0  0  0
  143.4000   74.8050  220.4670 C   0  0  0  0  0  0  0  0  0  0  0  0
  144.2700   75.5940  220.0170 O   0  0  0  0  0  0  0  0  0  0  0  0
  143.6770   73.3680  220.7560 C   0  0  2  0  0  0  0  0  0  0  0  0
  145.0930   73.1310  221.1320 C   0  0  0  0  0  0  0  0  0  0  0  0
  146.0930   73.3700  220.0180 C   0  0  0  0  0  0  0  0  0  0  0  0
  145.5760   72.8170  218.6970 C   0  0  0  0  0  0  0  0  0  0  0  0
  144.4880   71.8190  219.0340 C   0  0  0  0  0  0  0  0  0  0  0  0
  143.3610   72.5520  219.5540 N   0  0  0  0  0  0  0  0  0  0  0  0
  142.0600   72.6060  219.0900 C   0  0  0  0  0  0  0  0  0  0  0  0
  141.9430   72.7770  217.7880 O   0  0  0  0  0  0  0  0  0  0  0  0
  140.7650   72.5150  219.7510 C   0  0  0  0  0  0  0  0  0  0  0  0
  140.5970   71.7310  220.9160 N   0  0  0  0  0  0  0  0  0  0  0  0
  140.4000   72.3220  222.2060 C   0  0  0  0  0  0  0  0  0  0  0  0
  140.3890   73.5740  222.2460 O   0  0  0  0  0  0  0  0  0  0  0  0
  140.2220   71.4880  223.4040 C   0  0  0  0  0  0  0  0  0  0  0  0
  139.5390   70.3010  223.2430 C   0  0  0  0  0  0  0  0  0  0  0  0
  139.3780   69.5250  224.3850 C   0  0  0  0  0  0  0  0  0  0  0  0
  139.8830   69.9320  225.6170 C   0  0  0  0  0  0  0  0  0  0  0  0
  139.7080   69.1310  226.7500 C   0  0  0  0  0  0  0  0  0  0  0  0
  140.2280   69.5740  227.9700 C   0  0  0  0  0  0  0  0  0  0  0  0
  140.0810   68.8230  229.1080 F   0  0  0  0  0  0  0  0  0  0  0  0
  140.9050   70.7780  228.0590 C   0  0  0  0  0  0  0  0  0  0  0  0
  141.0750   71.5710  226.9230 C   0  0  0  0  0  0  0  0  0  0  0  0
  140.5580   71.1330  225.7080 C   0  0  0  0  0  0  0  0  0  0  0  0
  140.7100   71.8820  224.5960 N   0  0  0  0  0  0  0  0  0  0  0  0
  141.9740   76.9190  218.9930 C   0  0  0  0  0  0  0  0  0  0  0  0
  142.6100   78.0660  218.5840 C   0  0  0  0  0  0  0  0  0  0  0  0
  142.8350   78.3670  217.2630 C   0  0  0  0  0  0  0  0  0  0  0  0
  142.3820   77.4400  216.3310 C   0  0  0  0  0  0  0  0  0  0  0  0
  141.7390   76.2790  216.7210 C   0  0  0  0  0  0  0  0  0  0  0  0
  141.5220   75.9960  218.0730 C   0  0  0  0  0  0  0  0  0  0  0  0
  140.0712   76.8983  221.7864 H   0  0  0  0  0  0  0  0  0  0  0  0
  139.9544   77.8230  220.2509 H   0  0  0  0  0  0  0  0  0  0  0  0
  139.6950   76.0455  220.2509 H   0  0  0  0  0  0  0  0  0  0  0  0
  142.3797   77.2979  221.0974 H   0  0  0  0  0  0  0  0  0  0  0  0
  141.3420   74.6380  221.0930 H   0  0  0  0  0  0  0  0  0  0  0  0
  143.0445   73.0781  221.6080 H   0  0  0  0  0  0  0  0  0  0  0  0
  145.3429   73.8026  221.9666 H   0  0  0  0  0  0  0  0  0  0  0  0
  145.1703   72.0658  221.3955 H   0  0  0  0  0  0  0  0  0  0  0  0
  146.2643   74.4516  219.9135 H   0  0  0  0  0  0  0  0  0  0  0  0
  147.0316   72.8555  220.2715 H   0  0  0  0  0  0  0  0  0  0  0  0
  145.1655   73.6306  218.0810 H   0  0  0  0  0  0  0  0  0  0  0  0
  146.3858   72.3391  218.1262 H   0  0  0  0  0  0  0  0  0  0  0  0
  144.1911   71.2696  218.1284 H   0  0  0  0  0  0  0  0  0  0  0  0
  144.8499   71.0937  219.7776 H   0  0  0  0  0  0  0  0  0  0  0  0
  140.4784   73.5421  220.0209 H   0  0  0  0  0  0  0  0  0  0  0  0
  140.1510   71.9826  219.0096 H   0  0  0  0  0  0  0  0  0  0  0  0
  140.6060   70.6680  220.9280 H   0  0  0  0  0  0  0  0  0  0  0  0
  139.1438   69.9859  222.2660 H   0  0  0  0  0  0  0  0  0  0  0  0
  138.8398   68.5683  224.3138 H   0  0  0  0  0  0  0  0  0  0  0  0
  139.1725   68.1725  226.6828 H   0  0  0  0  0  0  0  0  0  0  0  0
  141.3096   71.1104  229.0264 H   0  0  0  0  0  0  0  0  0  0  0  0
  141.6107   72.5296  226.9876 H   0  0  0  0  0  0  0  0  0  0  0  0
  142.9550   78.7761  219.3500 H   0  0  0  0  0  0  0  0  0  0  0  0
  143.3463   79.2921  216.9586 H   0  0  0  0  0  0  0  0  0  0  0  0
  142.5384   77.6342  215.2596 H   0  0  0  0  0  0  0  0  0  0  0  0
  141.3933   75.5679  215.9562 H   0  0  0  0  0  0  0  0  0  0  0  0
  141.0115   75.0747  218.3901 H   0  0  0  0  0  0  0  0  0  0  0  0
  1  2  1  0
  2  3  1  0
  3  4  1  0
  4  5  2  0
  4  6  1  0
  6  7  1  0
  7  8  1  0
  8  9  1  0
  9 10  1  0
 10 11  1  0
 11 12  1  0
 12 13  2  0
 12 14  1  0
 14 15  1  0
 15 16  1  0
 16 17  2  0
 16 18  1  0
 18 19  2  0
 19 20  1  0
 20 21  2  0
 21 22  1  0
 22 23  2  0
 23 24  1  0
 23 25  1  0
 25 26  2  0
 26 27  1  0
 27 28  2  0
  2 29  1  0
 29 30  2  0
 30 31  1  0
 31 32  2  0
 32 33  1  0
 33 34  2  0
 11  6  1  0
 28 18  1  0
 34 29  1  0
 27 21  1  0
  1 35  1  0
  1 36  1  0
  1 37  1  0
  2 38  1  1
  3 39  1  0
  6 40  1  1
  7 41  1  0
  7 42  1  0
  8 43  1  0
  8 44  1  0
  9 45  1  0
  9 46  1  0
 10 47  1  0
 10 48  1  0
 14 49  1  0
 14 50  1  0
 15 51  1  0
 19 52  1  0
 20 53  1  0
 22 54  1  0
 25 55  1  0
 26 56  1  0
 30 57  1  0
 31 58  1  0
 32 59  1  0
 33 60  1  0
 34 61  1  0
M  END
>  <smiles>  (23) 
C[C@@H](NC(=O)C1CCCCN1C(=O)CNC(=O)c1ccc2cc(F)ccc2n1)c1ccccc1

>  <score_type>  (23) 
oracle

>  <origin>  (23) 
autodockgpu

>  <m_score__min__energy>  (23) 
-9.4299999999999997

>  <m_primary>  (23) 
energy

>  <rmsd>  (23) 
4.6055120499662685

>  <m_score__min__rmsd>  (23) 
4.6055120499662685

>  <meeko>  (23) 
{"free_energy": -7.57, "intermolecular_energy": -9.65, "internal_energy": -3.17, "cluster_size": 1, "cluster_id": 7, "rank_in_cluster": 1}

>  <energy>  (23) 
-8.32

>  <cluster_rmsd>  (23) 
1.22

>  <cluster>  (23) 
1

$$$$

     RDKit          3D

 61 64  0  0  1  0  0  0  0  0999 V2000
  139.0500   77.3400  222.0780 C   0  0  0  0  0  0  0  0  0  0  0  0
  140.5070   76.9810  222.3720 C   0  0  1  0  0  0  0  0  0  0  0  0
  141.0520   76.2640  221.2330 N   0  0  0  0  0  0  0  0  0  0  0  0
  141.1530   74.8480  221.3050 C   0  0  0  0  0  0  0  0  0  0  0  0
  140.7780   74.2340  222.3360 O   0  0  0  0  0  0  0  0  0  0  0  0
  141.7200   74.1590  220.1090 C   0  0  2  0  0  0  0  0  0  0  0  0
  143.0240   74.7320  219.6950 C   0  0  0  0  0  0  0  0  0  0  0  0
  142.9550   76.1520  219.1690 C   0  0  0  0  0  0  0  0  0  0  0  0
  141.7440   76.3370  218.2630 C   0  0  0  0  0  0  0  0  0  0  0  0
  141.3090   74.9540  217.8240 C   0  0  0  0  0  0  0  0  0  0  0  0
  140.7670   74.2760  218.9740 N   0  0  0  0  0  0  0  0  0  0  0  0
  139.5060   73.7400  219.1630 C   0  0  0  0  0  0  0  0  0  0  0  0
  138.5210   74.4500  218.6490 O   0  0  0  0  0  0  0  0  0  0  0  0
  139.0280   72.5340  219.8260 C   0  0  0  0  0  0  0  0  0  0  0  0
  139.3160   72.2910  221.1880 N   0  0  0  0  0  0  0  0  0  0  0  0
  139.4820   70.9640  221.7030 C   0  0  0  0  0  0  0  0  0  0  0  0
  139.3520   70.0300  220.8790 O   0  0  0  0  0  0  0  0  0  0  0  0
  139.7880   70.7340  223.1230 C   0  0  0  0  0  0  0  0  0  0  0  0
  140.3300   71.7890  223.8240 C   0  0  0  0  0  0  0  0  0  0  0  0
  140.6140   71.5550  225.1650 C   0  0  0  0  0  0  0  0  0  0  0  0
  140.3610   70.3200  225.7570 C   0  0  0  0  0  0  0  0  0  0  0  0
  140.6560   70.1120  227.1070 C   0  0  0  0  0  0  0  0  0  0  0  0
  140.3890   68.8580  227.6650 C   0  0  0  0  0  0  0  0  0  0  0  0
  140.6610   68.6060  228.9850 F   0  0  0  0  0  0  0  0  0  0  0  0
  139.8420   67.8410  226.9010 C   0  0  0  0  0  0  0  0  0  0  0  0
  139.5510   68.0590  225.5530 C   0  0  0  0  0  0  0  0  0  0  0  0
  139.8160   69.3050  224.9950 C   0  0  0  0  0  0  0  0  0  0  0  0
  139.5430   69.5390  223.6950 N   0  0  0  0  0  0  0  0  0  0  0  0
  141.2320   78.2940  222.4990 C   0  0  0  0  0  0  0  0  0  0  0  0
  141.6210   78.7530  223.7350 C   0  0  0  0  0  0  0  0  0  0  0  0
  142.2840   79.9420  223.9160 C   0  0  0  0  0  0  0  0  0  0  0  0
  142.5530   80.6820  222.7710 C   0  0  0  0  0  0  0  0  0  0  0  0
  142.1710   80.2390  221.5180 C   0  0  0  0  0  0  0  0  0  0  0  0
  141.4960   79.0240  221.3590 C   0  0  0  0  0  0  0  0  0  0  0  0
  138.5070   77.4738  223.0252 H   0  0  0  0  0  0  0  0  0  0  0  0
  139.0123   78.2743  221.4986 H   0  0  0  0  0  0  0  0  0  0  0  0
  138.5826   76.5302  221.4986 H   0  0  0  0  0  0  0  0  0  0  0  0
  140.6040   76.3604  223.2750 H   0  0  0  0  0  0  0  0  0  0  0  0
  141.3520   76.7970  220.4000 H   0  0  0  0  0  0  0  0  0  0  0  0
  141.8812   73.1059  220.3829 H   0  0  0  0  0  0  0  0  0  0  0  0
  143.6946   74.7221  220.5669 H   0  0  0  0  0  0  0  0  0  0  0  0
  143.3857   74.1103  218.8628 H   0  0  0  0  0  0  0  0  0  0  0  0
  142.8795   76.8474  220.0179 H   0  0  0  0  0  0  0  0  0  0  0  0
  143.8651   76.3558  218.5858 H   0  0  0  0  0  0  0  0  0  0  0  0
  140.9311   76.8323  218.8142 H   0  0  0  0  0  0  0  0  0  0  0  0
  141.9931   76.9658  217.3955 H   0  0  0  0  0  0  0  0  0  0  0  0
  140.5408   75.0346  217.0408 H   0  0  0  0  0  0  0  0  0  0  0  0
  142.1636   74.3944  217.4159 H   0  0  0  0  0  0  0  0  0  0  0  0
  137.9319   72.5397  219.7340 H   0  0  0  0  0  0  0  0  0  0  0  0
  139.5878   71.7375  219.3139 H   0  0  0  0  0  0  0  0  0  0  0  0
  139.4280   73.0520  221.9210 H   0  0  0  0  0  0  0  0  0  0  0  0
  140.5270   72.7617  223.3496 H   0  0  0  0  0  0  0  0  0  0  0  0
  141.0482   72.3633  225.7717 H   0  0  0  0  0  0  0  0  0  0  0  0
  141.0891   70.9178  227.7178 H   0  0  0  0  0  0  0  0  0  0  0  0
  139.6366   66.8609  227.3563 H   0  0  0  0  0  0  0  0  0  0  0  0
  139.1175   67.2552  224.9399 H   0  0  0  0  0  0  0  0  0  0  0  0
  141.3908   78.1402  224.6190 H   0  0  0  0  0  0  0  0  0  0  0  0
  142.5862   80.2902  224.9147 H   0  0  0  0  0  0  0  0  0  0  0  0
  143.0819   81.6421  222.8635 H   0  0  0  0  0  0  0  0  0  0  0  0
  142.4013   80.8509  220.6334 H   0  0  0  0  0  0  0  0  0  0  0  0
  141.1884   78.6656  220.3655 H   0  0  0  0  0  0  0  0  0  0  0  0
  1  2  1  0
  2  3  1  0
  3  4  1  0
  4  5  2  0
  4  6  1  0
  6  7  1  0
  7  8  1  0
  8  9  1  0
  9 10  1  0
 10 11  1  0
 11 12  1  0
 12 13  2  0
 12 14  1  0
 14 15  1  0
 15 16  1  0
 16 17  2  0
 16 18  1  0
 18 19  2  0
 19 20  1  0
 20 21  2  0
 21 22  1  0
 22 23  2  0
 23 24  1  0
 23 25  1  0
 25 26  2  0
 26 27  1  0
 27 28  2  0
  2 29  1  0
 29 30  2  0
 30 31  1  0
 31 32  2  0
 32 33  1  0
 33 34  2  0
 11  6  1  0
 28 18  1  0
 34 29  1  0
 27 21  1  0
  1 35  1  0
  1 36  1  0
  1 37  1  0
  2 38  1  1
  3 39  1  0
  6 40  1  1
  7 41  1  0
  7 42  1  0
  8 43  1  0
  8 44  1  0
  9 45  1  0
  9 46  1  0
 10 47  1  0
 10 48  1  0
 14 49  1  0
 14 50  1  0
 15 51  1  0
 19 52  1  0
 20 53  1  0
 22 54  1  0
 25 55  1  0
 26 56  1  0
 30 57  1  0
 31 58  1  0
 32 59  1  0
 33 60  1  0
 34 61  1  0
M  END
>  <smiles>  (24) 
C[C@@H](NC(=O)C1CCCCN1C(=O)CNC(=O)c1ccc2cc(F)ccc2n1)c1ccccc1

>  <score_type>  (24) 
oracle

>  <origin>  (24) 
autodockgpu

>  <m_score__min__energy>  (24) 
-9.4299999999999997

>  <m_primary>  (24) 
energy

>  <rmsd>  (24) 
3.3458319138727006

>  <m_score__min__rmsd>  (24) 
3.3458319138727006

>  <meeko>  (24) 
{"free_energy": -8.4, "intermolecular_energy": -10.49, "internal_energy": -2.65, "cluster_size": 32, "cluster_id": 1, "rank_in_cluster": 19}

>  <energy>  (24) 
-8.26

>  <cluster_rmsd>  (24) 
1.5

>  <cluster>  (24) 
1

$$$$

     RDKit          3D

 61 64  0  0  1  0  0  0  0  0999 V2000
  140.8510   77.8370  219.2180 C   0  0  0  0  0  0  0  0  0  0  0  0
  140.3420   77.3900  220.5900 C   0  0  1  0  0  0  0  0  0  0  0  0
  140.6730   75.9890  220.7780 N   0  0  0  0  0  0  0  0  0  0  0  0
  141.9960   75.5570  220.4940 C   0  0  0  0  0  0  0  0  0  0  0  0
  142.8590   76.3750  220.0870 O   0  0  0  0  0  0  0  0  0  0  0  0
  142.2840   74.1080  220.7030 C   0  0  2  0  0  0  0  0  0  0  0  0
  143.7340   73.8380  220.8580 C   0  0  0  0  0  0  0  0  0  0  0  0
  144.5640   74.0910  219.6140 C   0  0  0  0  0  0  0  0  0  0  0  0
  143.8450   73.5830  218.3710 C   0  0  0  0  0  0  0  0  0  0  0  0
  142.7990   72.5940  218.8410 C   0  0  0  0  0  0  0  0  0  0  0  0
  141.7770   73.3310  219.5410 N   0  0  0  0  0  0  0  0  0  0  0  0
  140.4220   73.4190  219.2770 C   0  0  0  0  0  0  0  0  0  0  0  0
  140.1120   74.1290  218.2100 O   0  0  0  0  0  0  0  0  0  0  0  0
  139.2430   72.8840  219.9450 C   0  0  0  0  0  0  0  0  0  0  0  0
  139.3680   71.9920  221.0340 N   0  0  0  0  0  0  0  0  0  0  0  0
  139.7350   72.4410  222.3440 C   0  0  0  0  0  0  0  0  0  0  0  0
  139.9460   73.6690  222.4700 O   0  0  0  0  0  0  0  0  0  0  0  0
  139.8530   71.4950  223.4650 C   0  0  0  0  0  0  0  0  0  0  0  0
  139.4190   70.2060  223.2430 C   0  0  0  0  0  0  0  0  0  0  0  0
  139.5360   69.3260  224.3130 C   0  0  0  0  0  0  0  0  0  0  0  0
  140.0640   69.7330  225.5350 C   0  0  0  0  0  0  0  0  0  0  0  0
  140.1710   68.8270  226.5940 C   0  0  0  0  0  0  0  0  0  0  0  0
  140.7060   69.2740  227.8070 C   0  0  0  0  0  0  0  0  0  0  0  0
  140.8300   68.4230  228.8740 F   0  0  0  0  0  0  0  0  0  0  0  0
  141.1230   70.5850  227.9590 C   0  0  0  0  0  0  0  0  0  0  0  0
  141.0130   71.4830  226.8960 C   0  0  0  0  0  0  0  0  0  0  0  0
  140.4800   71.0410  225.6890 C   0  0  0  0  0  0  0  0  0  0  0  0
  140.3640   71.8910  224.6470 N   0  0  0  0  0  0  0  0  0  0  0  0
  141.1160   78.2020  221.5950 C   0  0  0  0  0  0  0  0  0  0  0  0
  141.1160   77.8440  222.9210 C   0  0  0  0  0  0  0  0  0  0  0  0
  141.8000   78.5440  223.8850 C   0  0  0  0  0  0  0  0  0  0  0  0
  142.5130   79.6570  223.4540 C   0  0  0  0  0  0  0  0  0  0  0  0
  142.5270   80.0340  222.1230 C   0  0  0  0  0  0  0  0  0  0  0  0
  141.8210   79.3050  221.1600 C   0  0  0  0  0  0  0  0  0  0  0  0
  141.6717   78.5577  219.3484 H   0  0  0  0  0  0  0  0  0  0  0  0
  141.2163   76.9625  218.6597 H   0  0  0  0  0  0  0  0  0  0  0  0
  140.0310   78.3122  218.6597 H   0  0  0  0  0  0  0  0  0  0  0  0
  139.2550   77.5253  220.6910 H   0  0  0  0  0  0  0  0  0  0  0  0
  139.9410   75.3410  221.1130 H   0  0  0  0  0  0  0  0  0  0  0  0
  141.7793   73.8049  221.6322 H   0  0  0  0  0  0  0  0  0  0  0  0
  144.1181   74.4822  221.6626 H   0  0  0  0  0  0  0  0  0  0  0  0
  143.8274   72.7647  221.0799 H   0  0  0  0  0  0  0  0  0  0  0  0
  144.7405   75.1720  219.5120 H   0  0  0  0  0  0  0  0  0  0  0  0
  145.5192   73.5545  219.7126 H   0  0  0  0  0  0  0  0  0  0  0  0
  143.3642   74.4200  217.8435 H   0  0  0  0  0  0  0  0  0  0  0  0
  144.5512   73.1077  217.6743 H   0  0  0  0  0  0  0  0  0  0  0  0
  142.3598   72.0749  217.9763 H   0  0  0  0  0  0  0  0  0  0  0  0
  143.2522   71.8423  219.5040 H   0  0  0  0  0  0  0  0  0  0  0  0
  138.6717   73.7491  220.3127 H   0  0  0  0  0  0  0  0  0  0  0  0
  138.7872   72.2546  219.1665 H   0  0  0  0  0  0  0  0  0  0  0  0
  139.2050   70.9430  220.9700 H   0  0  0  0  0  0  0  0  0  0  0  0
  139.0036   69.8913  222.2743 H   0  0  0  0  0  0  0  0  0  0  0  0
  139.2038   68.2845  224.1912 H   0  0  0  0  0  0  0  0  0  0  0  0
  139.8414   67.7842  226.4761 H   0  0  0  0  0  0  0  0  0  0  0  0
  141.5419   70.9199  228.9194 H   0  0  0  0  0  0  0  0  0  0  0  0
  141.3432   72.5260  227.0109 H   0  0  0  0  0  0  0  0  0  0  0  0
  140.5421   76.9562  223.2250 H   0  0  0  0  0  0  0  0  0  0  0  0
  141.7844   78.2400  224.9420 H   0  0  0  0  0  0  0  0  0  0  0  0
  143.0784   80.2508  224.1873 H   0  0  0  0  0  0  0  0  0  0  0  0
  143.1020   80.9205  221.8172 H   0  0  0  0  0  0  0  0  0  0  0  0
  141.8278   79.5991  220.1001 H   0  0  0  0  0  0  0  0  0  0  0  0
  1  2  1  0
  2  3  1  0
  3  4  1  0
  4  5  2  0
  4  6  1  0
  6  7  1  0
  7  8  1  0
  8  9  1  0
  9 10  1  0
 10 11  1  0
 11 12  1  0
 12 13  2  0
 12 14  1  0
 14 15  1  0
 15 16  1  0
 16 17  2  0
 16 18  1  0
 18 19  2  0
 19 20  1  0
 20 21  2  0
 21 22  1  0
 22 23  2  0
 23 24  1  0
 23 25  1  0
 25 26  2  0
 26 27  1  0
 27 28  2  0
  2 29  1  0
 29 30  2  0
 30 31  1  0
 31 32  2  0
 32 33  1  0
 33 34  2  0
 11  6  1  0
 28 18  1  0
 34 29  1  0
 27 21  1  0
  1 35  1  0
  1 36  1  0
  1 37  1  0
  2 38  1  6
  3 39  1  0
  6 40  1  1
  7 41  1  0
  7 42  1  0
  8 43  1  0
  8 44  1  0
  9 45  1  0
  9 46  1  0
 10 47  1  0
 10 48  1  0
 14 49  1  0
 14 50  1  0
 15 51  1  0
 19 52  1  0
 20 53  1  0
 22 54  1  0
 25 55  1  0
 26 56  1  0
 30 57  1  0
 31 58  1  0
 32 59  1  0
 33 60  1  0
 34 61  1  0
M  END
>  <smiles>  (25) 
C[C@@H](NC(=O)C1CCCCN1C(=O)CNC(=O)c1ccc2cc(F)ccc2n1)c1ccccc1

>  <score_type>  (25) 
oracle

>  <origin>  (25) 
autodockgpu

>  <m_score__min__energy>  (25) 
-9.4299999999999997

>  <m_primary>  (25) 
energy

>  <rmsd>  (25) 
3.4054252897140085

>  <m_score__min__rmsd>  (25) 
3.4054252897140085

>  <meeko>  (25) 
{"free_energy": -8.34, "intermolecular_energy": -10.43, "internal_energy": -2.8, "cluster_size": 32, "cluster_id": 1, "rank_in_cluster": 22}

>  <energy>  (25) 
-8.21

>  <cluster_rmsd>  (25) 
1.63

>  <cluster>  (25) 
1

$$$$

     RDKit          3D

 61 64  0  0  1  0  0  0  0  0999 V2000
  143.3230   76.8170  217.2740 C   0  0  0  0  0  0  0  0  0  0  0  0
  142.0740   76.6470  218.1410 C   0  0  1  0  0  0  0  0  0  0  0  0
  142.4310   75.9040  219.3350 N   0  0  0  0  0  0  0  0  0  0  0  0
  142.8170   74.5420  219.2010 C   0  0  0  0  0  0  0  0  0  0  0  0
  142.8460   73.9980  218.0680 O   0  0  0  0  0  0  0  0  0  0  0  0
  143.1730   73.8240  220.4590 C   0  0  2  0  0  0  0  0  0  0  0  0
  144.6000   74.0040  220.8260 C   0  0  0  0  0  0  0  0  0  0  0  0
  145.5870   73.3620  219.8700 C   0  0  0  0  0  0  0  0  0  0  0  0
  145.1020   71.9850  219.4350 C   0  0  0  0  0  0  0  0  0  0  0  0
  144.0720   71.5400  220.4510 C   0  0  0  0  0  0  0  0  0  0  0  0
  142.9050   72.3710  220.2910 N   0  0  0  0  0  0  0  0  0  0  0  0
  141.6030   72.0090  219.9980 C   0  0  0  0  0  0  0  0  0  0  0  0
  141.4180   70.7170  219.8070 O   0  0  0  0  0  0  0  0  0  0  0  0
  140.3700   72.7700  219.8500 C   0  0  0  0  0  0  0  0  0  0  0  0
  140.2990   74.1230  220.2510 N   0  0  0  0  0  0  0  0  0  0  0  0
  140.0550   74.4990  221.6120 C   0  0  0  0  0  0  0  0  0  0  0  0
  139.9040   73.5600  222.4280 O   0  0  0  0  0  0  0  0  0  0  0  0
  139.9910   75.9140  222.0090 C   0  0  0  0  0  0  0  0  0  0  0  0
  138.7730   76.3860  222.4480 C   0  0  0  0  0  0  0  0  0  0  0  0
  138.7300   77.7260  222.8180 C   0  0  0  0  0  0  0  0  0  0  0  0
  139.8600   78.5360  222.7450 C   0  0  0  0  0  0  0  0  0  0  0  0
  139.7900   79.8800  223.1250 C   0  0  0  0  0  0  0  0  0  0  0  0
  140.9450   80.6620  223.0370 C   0  0  0  0  0  0  0  0  0  0  0  0
  140.9250   81.9850  223.3970 F   0  0  0  0  0  0  0  0  0  0  0  0
  142.1370   80.1220  222.5860 C   0  0  0  0  0  0  0  0  0  0  0  0
  142.1980   78.7790  222.2100 C   0  0  0  0  0  0  0  0  0  0  0  0
  141.0500   77.9980  222.2960 C   0  0  0  0  0  0  0  0  0  0  0  0
  141.0850   76.6980  221.9380 N   0  0  0  0  0  0  0  0  0  0  0  0
  141.6690   78.0390  218.5480 C   0  0  0  0  0  0  0  0  0  0  0  0
  140.4170   78.2730  219.0620 C   0  0  0  0  0  0  0  0  0  0  0  0
  139.9890   79.5180  219.4510 C   0  0  0  0  0  0  0  0  0  0  0  0
  140.8960   80.5610  219.2990 C   0  0  0  0  0  0  0  0  0  0  0  0
  142.1620   80.3470  218.7830 C   0  0  0  0  0  0  0  0  0  0  0  0
  142.5740   79.0680  218.3950 C   0  0  0  0  0  0  0  0  0  0  0  0
  144.2047   76.9370  217.9207 H   0  0  0  0  0  0  0  0  0  0  0  0
  143.4523   75.9282  216.6390 H   0  0  0  0  0  0  0  0  0  0  0  0
  143.2100   77.7081  216.6390 H   0  0  0  0  0  0  0  0  0  0  0  0
  141.2708   76.1171  217.6080 H   0  0  0  0  0  0  0  0  0  0  0  0
  142.3970   76.3790  220.2520 H   0  0  0  0  0  0  0  0  0  0  0  0
  142.5567   74.2495  221.2647 H   0  0  0  0  0  0  0  0  0  0  0  0
  144.8108   75.0830  220.8623 H   0  0  0  0  0  0  0  0  0  0  0  0
  144.7366   73.5030  221.7957 H   0  0  0  0  0  0  0  0  0  0  0  0
  145.6977   74.0022  218.9824 H   0  0  0  0  0  0  0  0  0  0  0  0
  146.5530   73.2492  220.3840 H   0  0  0  0  0  0  0  0  0  0  0  0
  144.6467   72.0428  218.4353 H   0  0  0  0  0  0  0  0  0  0  0  0
  145.9377   71.2716  219.3833 H   0  0  0  0  0  0  0  0  0  0  0  0
  143.8073   70.4864  220.2782 H   0  0  0  0  0  0  0  0  0  0  0  0
  144.4734   71.6348  221.4708 H   0  0  0  0  0  0  0  0  0  0  0  0
  140.1142   72.7466  218.7804 H   0  0  0  0  0  0  0  0  0  0  0  0
  139.6908   72.2714  220.5572 H   0  0  0  0  0  0  0  0  0  0  0  0
  140.4150   74.9490  219.5920 H   0  0  0  0  0  0  0  0  0  0  0  0
  137.8848   75.7394  222.5027 H   0  0  0  0  0  0  0  0  0  0  0  0
  137.7826   78.1552  223.1761 H   0  0  0  0  0  0  0  0  0  0  0  0
  138.8453   80.3128  223.4858 H   0  0  0  0  0  0  0  0  0  0  0  0
  143.0369   80.7516  222.5238 H   0  0  0  0  0  0  0  0  0  0  0  0
  143.1420   78.3437  221.8502 H   0  0  0  0  0  0  0  0  0  0  0  0
  139.7256   77.4239  219.1667 H   0  0  0  0  0  0  0  0  0  0  0  0
  138.9816   79.6819  219.8613 H   0  0  0  0  0  0  0  0  0  0  0  0
  140.6007   81.5783  219.5954 H   0  0  0  0  0  0  0  0  0  0  0  0
  142.8544   81.1951  218.6764 H   0  0  0  0  0  0  0  0  0  0  0  0
  143.5790   78.8902  217.9846 H   0  0  0  0  0  0  0  0  0  0  0  0
  1  2  1  0
  2  3  1  0
  3  4  1  0
  4  5  2  0
  4  6  1  0
  6  7  1  0
  7  8  1  0
  8  9  1  0
  9 10  1  0
 10 11  1  0
 11 12  1  0
 12 13  2  0
 12 14  1  0
 14 15  1  0
 15 16  1  0
 16 17  2  0
 16 18  1  0
 18 19  2  0
 19 20  1  0
 20 21  2  0
 21 22  1  0
 22 23  2  0
 23 24  1  0
 23 25  1  0
 25 26  2  0
 26 27  1  0
 27 28  2  0
  2 29  1  0
 29 30  2  0
 30 31  1  0
 31 32  2  0
 32 33  1  0
 33 34  2  0
 11  6  1  0
 28 18  1  0
 34 29  1  0
 27 21  1  0
  1 35  1  0
  1 36  1  0
  1 37  1  0
  2 38  1  6
  3 39  1  0
  6 40  1  1
  7 41  1  0
  7 42  1  0
  8 43  1  0
  8 44  1  0
  9 45  1  0
  9 46  1  0
 10 47  1  0
 10 48  1  0
 14 49  1  0
 14 50  1  0
 15 51  1  0
 19 52  1  0
 20 53  1  0
 22 54  1  0
 25 55  1  0
 26 56  1  0
 30 57  1  0
 31 58  1  0
 32 59  1  0
 33 60  1  0
 34 61  1  0
M  END
>  <smiles>  (26) 
C[C@@H](NC(=O)C1CCCCN1C(=O)CNC(=O)c1ccc2cc(F)ccc2n1)c1ccccc1

>  <score_type>  (26) 
oracle

>  <origin>  (26) 
autodockgpu

>  <m_score__min__energy>  (26) 
-9.4299999999999997

>  <m_primary>  (26) 
energy

>  <rmsd>  (26) 
6.746218704391833

>  <m_score__min__rmsd>  (26) 
6.746218704391833

>  <meeko>  (26) 
{"free_energy": -6.47, "intermolecular_energy": -8.56, "internal_energy": -4.14, "cluster_size": 3, "cluster_id": 8, "rank_in_cluster": 3}

>  <energy>  (26) 
-8.2

>  <cluster_rmsd>  (26) 
1.07

>  <cluster>  (26) 
1

$$$$

     RDKit          3D

 61 64  0  0  1  0  0  0  0  0999 V2000
  142.1490   77.1230  220.1810 C   0  0  0  0  0  0  0  0  0  0  0  0
  141.0690   78.1560  220.5090 C   0  0  1  0  0  0  0  0  0  0  0  0
  139.8430   77.4590  220.8520 N   0  0  0  0  0  0  0  0  0  0  0  0
  139.0440   76.9280  219.8020 C   0  0  0  0  0  0  0  0  0  0  0  0
  139.3970   77.0650  218.6030 O   0  0  0  0  0  0  0  0  0  0  0  0
  137.7950   76.2220  220.2080 C   0  0  2  0  0  0  0  0  0  0  0  0
  136.6150   77.1210  220.2100 C   0  0  0  0  0  0  0  0  0  0  0  0
  136.6500   78.2120  221.2630 C   0  0  0  0  0  0  0  0  0  0  0  0
  137.1710   77.6700  222.5870 C   0  0  0  0  0  0  0  0  0  0  0  0
  137.0210   76.1640  222.5360 C   0  0  0  0  0  0  0  0  0  0  0  0
  137.9670   75.6580  221.5730 N   0  0  0  0  0  0  0  0  0  0  0  0
  138.9940   74.7490  221.7460 C   0  0  0  0  0  0  0  0  0  0  0  0
  140.1510   75.2810  222.0880 O   0  0  0  0  0  0  0  0  0  0  0  0
  139.0690   73.2990  221.6230 C   0  0  0  0  0  0  0  0  0  0  0  0
  139.3180   72.4860  222.7520 N   0  0  0  0  0  0  0  0  0  0  0  0
  139.0900   71.0720  222.7330 C   0  0  0  0  0  0  0  0  0  0  0  0
  138.6520   70.5950  221.6600 O   0  0  0  0  0  0  0  0  0  0  0  0
  139.3630   70.2440  223.9170 C   0  0  0  0  0  0  0  0  0  0  0  0
  138.9900   68.9190  223.8530 C   0  0  0  0  0  0  0  0  0  0  0  0
  139.2540   68.1500  224.9810 C   0  0  0  0  0  0  0  0  0  0  0  0
  139.8630   68.6980  226.1070 C   0  0  0  0  0  0  0  0  0  0  0  0
  140.1180   67.9020  227.2280 C   0  0  0  0  0  0  0  0  0  0  0  0
  140.7310   68.4880  228.3400 C   0  0  0  0  0  0  0  0  0  0  0  0
  141.0010   67.7490  229.4620 F   0  0  0  0  0  0  0  0  0  0  0  0
  141.0800   69.8280  228.3360 C   0  0  0  0  0  0  0  0  0  0  0  0
  140.8220   70.6150  227.2120 C   0  0  0  0  0  0  0  0  0  0  0  0
  140.2120   70.0340  226.1040 C   0  0  0  0  0  0  0  0  0  0  0  0
  139.9520   70.7750  225.0070 N   0  0  0  0  0  0  0  0  0  0  0  0
  141.5610   78.8850  221.7310 C   0  0  0  0  0  0  0  0  0  0  0  0
  142.1790   80.1060  221.6060 C   0  0  0  0  0  0  0  0  0  0  0  0
  142.6500   80.8190  222.6810 C   0  0  0  0  0  0  0  0  0  0  0  0
  142.4700   80.2430  223.9340 C   0  0  0  0  0  0  0  0  0  0  0  0
  141.8500   79.0150  224.0810 C   0  0  0  0  0  0  0  0  0  0  0  0
  141.3800   78.3080  222.9700 C   0  0  0  0  0  0  0  0  0  0  0  0
  142.5685   76.7218  221.1154 H   0  0  0  0  0  0  0  0  0  0  0  0
  141.7067   76.3032  219.5959 H   0  0  0  0  0  0  0  0  0  0  0  0
  142.9483   77.6013  219.5959 H   0  0  0  0  0  0  0  0  0  0  0  0
  140.8787   78.8355  219.6651 H   0  0  0  0  0  0  0  0  0  0  0  0
  139.5800   77.3640  221.8460 H   0  0  0  0  0  0  0  0  0  0  0  0
  137.6153   75.4250  219.4715 H   0  0  0  0  0  0  0  0  0  0  0  0
  136.5481   77.6004  219.2223 H   0  0  0  0  0  0  0  0  0  0  0  0
  135.7450   76.4904  220.4454 H   0  0  0  0  0  0  0  0  0  0  0  0
  137.3101   79.0226  220.9205 H   0  0  0  0  0  0  0  0  0  0  0  0
  135.6276   78.5885  221.4143 H   0  0  0  0  0  0  0  0  0  0  0  0
  138.2294   77.9405  222.7161 H   0  0  0  0  0  0  0  0  0  0  0  0
  136.6100   78.0929  223.4334 H   0  0  0  0  0  0  0  0  0  0  0  0
  137.2294   75.7337  223.5266 H   0  0  0  0  0  0  0  0  0  0  0  0
  135.9956   75.8901  222.2470 H   0  0  0  0  0  0  0  0  0  0  0  0
  138.1055   72.9699  221.2066 H   0  0  0  0  0  0  0  0  0  0  0  0
  139.9741   73.1536  221.0150 H   0  0  0  0  0  0  0  0  0  0  0  0
  139.6840   72.8500  223.6810 H   0  0  0  0  0  0  0  0  0  0  0  0
  138.5102   68.4934  222.9594 H   0  0  0  0  0  0  0  0  0  0  0  0
  138.9757   67.0858  224.9839 H   0  0  0  0  0  0  0  0  0  0  0  0
  139.8422   66.8372  227.2350 H   0  0  0  0  0  0  0  0  0  0  0  0
  141.5611   70.2730  229.2195 H   0  0  0  0  0  0  0  0  0  0  0  0
  141.0971   71.6800  227.2022 H   0  0  0  0  0  0  0  0  0  0  0  0
  142.3020   80.5316  220.5991 H   0  0  0  0  0  0  0  0  0  0  0  0
  143.1436   81.7943  222.5576 H   0  0  0  0  0  0  0  0  0  0  0  0
  142.8283   80.7753  224.8275 H   0  0  0  0  0  0  0  0  0  0  0  0
  141.7249   78.5884  225.0871 H   0  0  0  0  0  0  0  0  0  0  0  0
  140.8860   77.3313  223.0800 H   0  0  0  0  0  0  0  0  0  0  0  0
  1  2  1  0
  2  3  1  0
  3  4  1  0
  4  5  2  0
  4  6  1  0
  6  7  1  0
  7  8  1  0
  8  9  1  0
  9 10  1  0
 10 11  1  0
 11 12  1  0
 12 13  2  0
 12 14  1  0
 14 15  1  0
 15 16  1  0
 16 17  2  0
 16 18  1  0
 18 19  2  0
 19 20  1  0
 20 21  2  0
 21 22  1  0
 22 23  2  0
 23 24  1  0
 23 25  1  0
 25 26  2  0
 26 27  1  0
 27 28  2  0
  2 29  1  0
 29 30  2  0
 30 31  1  0
 31 32  2  0
 32 33  1  0
 33 34  2  0
 11  6  1  0
 28 18  1  0
 34 29  1  0
 27 21  1  0
  1 35  1  0
  1 36  1  0
  1 37  1  0
  2 38  1  6
  3 39  1  0
  6 40  1  6
  7 41  1  0
  7 42  1  0
  8 43  1  0
  8 44  1  0
  9 45  1  0
  9 46  1  0
 10 47  1  0
 10 48  1  0
 14 49  1  0
 14 50  1  0
 15 51  1  0
 19 52  1  0
 20 53  1  0
 22 54  1  0
 25 55  1  0
 26 56  1  0
 30 57  1  0
 31 58  1  0
 32 59  1  0
 33 60  1  0
 34 61  1  0
M  END
>  <smiles>  (27) 
C[C@@H](NC(=O)C1CCCCN1C(=O)CNC(=O)c1ccc2cc(F)ccc2n1)c1ccccc1

>  <score_type>  (27) 
oracle

>  <origin>  (27) 
autodockgpu

>  <m_score__min__energy>  (27) 
-9.4299999999999997

>  <m_primary>  (27) 
energy

>  <rmsd>  (27) 
3.4538397616686063

>  <m_score__min__rmsd>  (27) 
3.4538397616686063

>  <meeko>  (27) 
{"free_energy": -8.5, "intermolecular_energy": -10.59, "internal_energy": -2.86, "cluster_size": 32, "cluster_id": 1, "rank_in_cluster": 18}

>  <energy>  (27) 
-8.17

>  <cluster_rmsd>  (27) 
1.88

>  <cluster>  (27) 
1

$$$$

     RDKit          3D

 61 64  0  0  1  0  0  0  0  0999 V2000
  139.1860   77.9350  222.2580 C   0  0  0  0  0  0  0  0  0  0  0  0
  140.5570   77.7350  222.9070 C   0  0  1  0  0  0  0  0  0  0  0  0
  141.4100   77.0090  221.9840 N   0  0  0  0  0  0  0  0  0  0  0  0
  141.6480   77.5630  220.6970 C   0  0  0  0  0  0  0  0  0  0  0  0
  141.1260   78.6590  220.3690 O   0  0  0  0  0  0  0  0  0  0  0  0
  142.5310   76.7780  219.7860 C   0  0  2  0  0  0  0  0  0  0  0  0
  142.9440   77.5570  218.5930 C   0  0  0  0  0  0  0  0  0  0  0  0
  141.8180   77.8960  217.6350 C   0  0  0  0  0  0  0  0  0  0  0  0
  140.8830   76.7070  217.4570 C   0  0  0  0  0  0  0  0  0  0  0  0
  141.6440   75.4770  217.9040 C   0  0  0  0  0  0  0  0  0  0  0  0
  141.8130   75.5570  219.3330 N   0  0  0  0  0  0  0  0  0  0  0  0
  141.3990   74.6780  220.3170 C   0  0  0  0  0  0  0  0  0  0  0  0
  142.3420   74.3060  221.1590 O   0  0  0  0  0  0  0  0  0  0  0  0
  140.1140   74.0620  220.6210 C   0  0  0  0  0  0  0  0  0  0  0  0
  139.9120   73.3620  221.8320 N   0  0  0  0  0  0  0  0  0  0  0  0
  140.3910   72.0260  222.0240 C   0  0  0  0  0  0  0  0  0  0  0  0
  140.9950   71.5090  221.0560 O   0  0  0  0  0  0  0  0  0  0  0  0
  140.1760   71.3180  223.2950 C   0  0  0  0  0  0  0  0  0  0  0  0
  139.4400   70.1540  223.2460 C   0  0  0  0  0  0  0  0  0  0  0  0
  139.2450   69.4980  224.4560 C   0  0  0  0  0  0  0  0  0  0  0  0
  139.7680   69.9980  225.6460 C   0  0  0  0  0  0  0  0  0  0  0  0
  139.5580   69.3180  226.8490 C   0  0  0  0  0  0  0  0  0  0  0  0
  140.0980   69.8510  228.0230 C   0  0  0  0  0  0  0  0  0  0  0  0
  139.9180   69.2200  229.2270 F   0  0  0  0  0  0  0  0  0  0  0  0
  140.8280   71.0270  228.0000 C   0  0  0  0  0  0  0  0  0  0  0  0
  141.0330   71.6990  226.7940 C   0  0  0  0  0  0  0  0  0  0  0  0
  140.4960   71.1710  225.6240 C   0  0  0  0  0  0  0  0  0  0  0  0
  140.6820   71.8030  224.4460 N   0  0  0  0  0  0  0  0  0  0  0  0
  141.1230   79.1160  223.0960 C   0  0  0  0  0  0  0  0  0  0  0  0
  142.4630   79.2860  223.3520 C   0  0  0  0  0  0  0  0  0  0  0  0
  143.0390   80.5190  223.5340 C   0  0  0  0  0  0  0  0  0  0  0  0
  142.1920   81.6180  223.4460 C   0  0  0  0  0  0  0  0  0  0  0  0
  140.8410   81.4700  223.1890 C   0  0  0  0  0  0  0  0  0  0  0  0
  140.2780   80.2020  223.0080 C   0  0  0  0  0  0  0  0  0  0  0  0
  138.4221   78.0464  223.0416 H   0  0  0  0  0  0  0  0  0  0  0  0
  139.2047   78.8399  221.6329 H   0  0  0  0  0  0  0  0  0  0  0  0
  138.9454   77.0624  221.6329 H   0  0  0  0  0  0  0  0  0  0  0  0
  140.4883   77.1793  223.8538 H   0  0  0  0  0  0  0  0  0  0  0  0
  141.8230   76.1110  222.2830 H   0  0  0  0  0  0  0  0  0  0  0  0
  143.4367   76.5161  220.3527 H   0  0  0  0  0  0  0  0  0  0  0  0
  143.3949   78.4990  218.9384 H   0  0  0  0  0  0  0  0  0  0  0  0
  143.6454   76.9200  218.0342 H   0  0  0  0  0  0  0  0  0  0  0  0
  141.2473   78.7467  218.0358 H   0  0  0  0  0  0  0  0  0  0  0  0
  142.2521   78.1527  216.6574 H   0  0  0  0  0  0  0  0  0  0  0  0
  139.9819   76.8390  218.0739 H   0  0  0  0  0  0  0  0  0  0  0  0
  140.5627   76.6120  216.4090 H   0  0  0  0  0  0  0  0  0  0  0  0
  141.0762   74.5712  217.6447 H   0  0  0  0  0  0  0  0  0  0  0  0
  142.6226   75.4286  217.4041 H   0  0  0  0  0  0  0  0  0  0  0  0
  139.3667   74.8689  220.5975 H   0  0  0  0  0  0  0  0  0  0  0  0
  140.0421   73.2656  219.8657 H   0  0  0  0  0  0  0  0  0  0  0  0
  139.4000   73.7600  222.6740 H   0  0  0  0  0  0  0  0  0  0  0  0
  139.0297   69.7656  222.3022 H   0  0  0  0  0  0  0  0  0  0  0  0
  138.6649   68.5636  224.4740 H   0  0  0  0  0  0  0  0  0  0  0  0
  138.9796   68.3826  226.8714 H   0  0  0  0  0  0  0  0  0  0  0  0
  141.2468   71.4322  228.9330 H   0  0  0  0  0  0  0  0  0  0  0  0
  141.6117   72.6341  226.7688 H   0  0  0  0  0  0  0  0  0  0  0  0
  143.1029   78.3934  223.4139 H   0  0  0  0  0  0  0  0  0  0  0  0
  144.1139   80.6314  223.7386 H   0  0  0  0  0  0  0  0  0  0  0  0
  142.6056   82.6279  223.5839 H   0  0  0  0  0  0  0  0  0  0  0  0
  140.2002   82.3618  223.1260 H   0  0  0  0  0  0  0  0  0  0  0  0
  139.2044   80.0765  222.8037 H   0  0  0  0  0  0  0  0  0  0  0  0
  1  2  1  0
  2  3  1  0
  3  4  1  0
  4  5  2  0
  4  6  1  0
  6  7  1  0
  7  8  1  0
  8  9  1  0
  9 10  1  0
 10 11  1  0
 11 12  1  0
 12 13  2  0
 12 14  1  0
 14 15  1  0
 15 16  1  0
 16 17  2  0
 16 18  1  0
 18 19  2  0
 19 20  1  0
 20 21  2  0
 21 22  1  0
 22 23  2  0
 23 24  1  0
 23 25  1  0
 25 26  2  0
 26 27  1  0
 27 28  2  0
  2 29  1  0
 29 30  2  0
 30 31  1  0
 31 32  2  0
 32 33  1  0
 33 34  2  0
 11  6  1  0
 28 18  1  0
 34 29  1  0
 27 21  1  0
  1 35  1  0
  1 36  1  0
  1 37  1  0
  2 38  1  1
  3 39  1  0
  6 40  1  1
  7 41  1  0
  7 42  1  0
  8 43  1  0
  8 44  1  0
  9 45  1  0
  9 46  1  0
 10 47  1  0
 10 48  1  0
 14 49  1  0
 14 50  1  0
 15 51  1  0
 19 52  1  0
 20 53  1  0
 22 54  1  0
 25 55  1  0
 26 56  1  0
 30 57  1  0
 31 58  1  0
 32 59  1  0
 33 60  1  0
 34 61  1  0
M  END
>  <smiles>  (28) 
C[C@@H](NC(=O)C1CCCCN1C(=O)CNC(=O)c1ccc2cc(F)ccc2n1)c1ccccc1

>  <score_type>  (28) 
oracle

>  <origin>  (28) 
autodockgpu

>  <m_score__min__energy>  (28) 
-9.4299999999999997

>  <m_primary>  (28) 
energy

>  <rmsd>  (28) 
2.679558012402343

>  <m_score__min__rmsd>  (28) 
2.679558012402343

>  <meeko>  (28) 
{"free_energy": -9.15, "intermolecular_energy": -11.23, "internal_energy": -2.5, "cluster_size": 32, "cluster_id": 1, "rank_in_cluster": 5}

>  <energy>  (28) 
-8.13

>  <cluster_rmsd>  (28) 
1.84

>  <cluster>  (28) 
1

$$$$

     RDKit          3D

 61 64  0  0  1  0  0  0  0  0999 V2000
  143.3260   76.8960  217.2980 C   0  0  0  0  0  0  0  0  0  0  0  0
  142.2410   76.9400  218.3750 C   0  0  1  0  0  0  0  0  0  0  0  0
  142.7240   76.2470  219.5550 N   0  0  0  0  0  0  0  0  0  0  0  0
  143.0660   74.8710  219.4450 C   0  0  0  0  0  0  0  0  0  0  0  0
  142.9490   74.2720  218.3460 O   0  0  0  0  0  0  0  0  0  0  0  0
  143.5560   74.2060  220.6870 C   0  0  2  0  0  0  0  0  0  0  0  0
  145.0380   74.1350  220.7400 C   0  0  0  0  0  0  0  0  0  0  0  0
  145.6680   73.2340  219.6960 C   0  0  0  0  0  0  0  0  0  0  0  0
  144.8700   71.9470  219.5380 C   0  0  0  0  0  0  0  0  0  0  0  0
  144.0230   71.7990  220.7850 C   0  0  0  0  0  0  0  0  0  0  0  0
  143.0110   72.8240  220.7560 N   0  0  0  0  0  0  0  0  0  0  0  0
  141.6340   72.7000  220.7720 C   0  0  0  0  0  0  0  0  0  0  0  0
  141.1720   71.5950  220.2200 O   0  0  0  0  0  0  0  0  0  0  0  0
  140.5650   73.5510  221.2790 C   0  0  0  0  0  0  0  0  0  0  0  0
  140.8350   74.8600  221.7390 N   0  0  0  0  0  0  0  0  0  0  0  0
  139.7930   75.8200  221.9470 C   0  0  0  0  0  0  0  0  0  0  0  0
  138.6280   75.4370  221.6930 O   0  0  0  0  0  0  0  0  0  0  0  0
  140.0960   77.1750  222.4330 C   0  0  0  0  0  0  0  0  0  0  0  0
  139.0260   77.9580  222.8080 C   0  0  0  0  0  0  0  0  0  0  0  0
  139.3300   79.2370  223.2640 C   0  0  0  0  0  0  0  0  0  0  0  0
  140.6450   79.6900  223.3340 C   0  0  0  0  0  0  0  0  0  0  0  0
  140.9220   80.9790  223.7970 C   0  0  0  0  0  0  0  0  0  0  0  0
  142.2540   81.3990  223.8520 C   0  0  0  0  0  0  0  0  0  0  0  0
  142.5760   82.6540  224.2990 F   0  0  0  0  0  0  0  0  0  0  0  0
  143.2820   80.5580  223.4590 C   0  0  0  0  0  0  0  0  0  0  0  0
  142.9950   79.2720  222.9980 C   0  0  0  0  0  0  0  0  0  0  0  0
  141.6700   78.8520  222.9420 C   0  0  0  0  0  0  0  0  0  0  0  0
  141.3690   77.6130  222.5000 N   0  0  0  0  0  0  0  0  0  0  0  0
  142.0630   78.3950  218.7150 C   0  0  0  0  0  0  0  0  0  0  0  0
  141.1790   78.7740  219.6960 C   0  0  0  0  0  0  0  0  0  0  0  0
  140.9730   80.0840  220.0520 C   0  0  0  0  0  0  0  0  0  0  0  0
  141.7130   81.0380  219.3620 C   0  0  0  0  0  0  0  0  0  0  0  0
  142.6090   80.6780  218.3710 C   0  0  0  0  0  0  0  0  0  0  0  0
  142.8010   79.3360  218.0270 C   0  0  0  0  0  0  0  0  0  0  0  0
  144.3158   76.8559  217.7762 H   0  0  0  0  0  0  0  0  0  0  0  0
  143.1849   76.0028  216.6716 H   0  0  0  0  0  0  0  0  0  0  0  0
  143.2577   77.7977  216.6716 H   0  0  0  0  0  0  0  0  0  0  0  0
  141.3046   76.4732  218.0356 H   0  0  0  0  0  0  0  0  0  0  0  0
  142.8080   76.7670  220.4440 H   0  0  0  0  0  0  0  0  0  0  0  0
  143.2115   74.8095  221.5397 H   0  0  0  0  0  0  0  0  0  0  0  0
  145.4347   75.1513  220.5996 H   0  0  0  0  0  0  0  0  0  0  0  0
  145.2929   73.7016  221.7183 H   0  0  0  0  0  0  0  0  0  0  0  0
  145.6937   73.7628  218.7318 H   0  0  0  0  0  0  0  0  0  0  0  0
  146.6875   72.9784  220.0206 H   0  0  0  0  0  0  0  0  0  0  0  0
  144.2260   72.0079  218.6483 H   0  0  0  0  0  0  0  0  0  0  0  0
  145.5381   71.0824  219.4107 H   0  0  0  0  0  0  0  0  0  0  0  0
  143.5494   70.8063  220.7997 H   0  0  0  0  0  0  0  0  0  0  0  0
  144.6458   71.9003  221.6860 H   0  0  0  0  0  0  0  0  0  0  0  0
  139.8312   73.6501  220.4655 H   0  0  0  0  0  0  0  0  0  0  0  0
  140.2549   73.0303  222.1970 H   0  0  0  0  0  0  0  0  0  0  0  0
  141.8080   75.2270  221.9600 H   0  0  0  0  0  0  0  0  0  0  0  0
  137.9901   77.5927  222.7502 H   0  0  0  0  0  0  0  0  0  0  0  0
  138.5136   79.9050  223.5761 H   0  0  0  0  0  0  0  0  0  0  0  0
  140.1086   81.6493  224.1117 H   0  0  0  0  0  0  0  0  0  0  0  0
  144.3250   80.9036  223.5102 H   0  0  0  0  0  0  0  0  0  0  0  0
  143.8063   78.5993  222.6830 H   0  0  0  0  0  0  0  0  0  0  0  0
  140.6101   77.9921  220.2203 H   0  0  0  0  0  0  0  0  0  0  0  0
  140.2601   80.3641  220.8415 H   0  0  0  0  0  0  0  0  0  0  0  0
  141.5832   82.1019  219.6094 H   0  0  0  0  0  0  0  0  0  0  0  0
  143.1787   81.4588  217.8459 H   0  0  0  0  0  0  0  0  0  0  0  0
  143.5114   79.0428  217.2400 H   0  0  0  0  0  0  0  0  0  0  0  0
  1  2  1  0
  2  3  1  0
  3  4  1  0
  4  5  2  0
  4  6  1  0
  6  7  1  0
  7  8  1  0
  8  9  1  0
  9 10  1  0
 10 11  1  0
 11 12  1  0
 12 13  2  0
 12 14  1  0
 14 15  1  0
 15 16  1  0
 16 17  2  0
 16 18  1  0
 18 19  2  0
 19 20  1  0
 20 21  2  0
 21 22  1  0
 22 23  2  0
 23 24  1  0
 23 25  1  0
 25 26  2  0
 26 27  1  0
 27 28  2  0
  2 29  1  0
 29 30  2  0
 30 31  1  0
 31 32  2  0
 32 33  1  0
 33 34  2  0
 11  6  1  0
 28 18  1  0
 34 29  1  0
 27 21  1  0
  1 35  1  0
  1 36  1  0
  1 37  1  0
  2 38  1  6
  3 39  1  0
  6 40  1  1
  7 41  1  0
  7 42  1  0
  8 43  1  0
  8 44  1  0
  9 45  1  0
  9 46  1  0
 10 47  1  0
 10 48  1  0
 14 49  1  0
 14 50  1  0
 15 51  1  0
 19 52  1  0
 20 53  1  0
 22 54  1  0
 25 55  1  0
 26 56  1  0
 30 57  1  0
 31 58  1  0
 32 59  1  0
 33 60  1  0
 34 61  1  0
M  END
>  <smiles>  (29) 
C[C@@H](NC(=O)C1CCCCN1C(=O)CNC(=O)c1ccc2cc(F)ccc2n1)c1ccccc1

>  <score_type>  (29) 
oracle

>  <origin>  (29) 
autodockgpu

>  <m_score__min__energy>  (29) 
-9.4299999999999997

>  <m_primary>  (29) 
energy

>  <rmsd>  (29) 
7.08155514286523

>  <m_score__min__rmsd>  (29) 
7.08155514286523

>  <meeko>  (29) 
{"free_energy": -7.44, "intermolecular_energy": -9.53, "internal_energy": -3.54, "cluster_size": 3, "cluster_id": 8, "rank_in_cluster": 1}

>  <energy>  (29) 
-8.12

>  <cluster_rmsd>  (29) 
1.55

>  <cluster>  (29) 
1

$$$$

     RDKit          3D

 61 64  0  0  1  0  0  0  0  0999 V2000
  138.0750   80.5020  223.5670 C   0  0  0  0  0  0  0  0  0  0  0  0
  138.8730   79.2020  223.4530 C   0  0  1  0  0  0  0  0  0  0  0  0
  138.5660   78.5750  222.1810 N   0  0  0  0  0  0  0  0  0  0  0  0
  137.4730   77.6680  222.1130 C   0  0  0  0  0  0  0  0  0  0  0  0
  136.7900   77.4190  223.1390 O   0  0  0  0  0  0  0  0  0  0  0  0
  137.2010   77.0500  220.7840 C   0  0  2  0  0  0  0  0  0  0  0  0
  135.7490   76.9120  220.5130 C   0  0  0  0  0  0  0  0  0  0  0  0
  135.0270   75.9270  221.4110 C   0  0  0  0  0  0  0  0  0  0  0  0
  135.8630   74.6720  221.6200 C   0  0  0  0  0  0  0  0  0  0  0  0
  136.8850   74.6330  220.5040 C   0  0  0  0  0  0  0  0  0  0  0  0
  137.8250   75.7020  220.7280 N   0  0  0  0  0  0  0  0  0  0  0  0
  139.1950   75.6430  220.9050 C   0  0  0  0  0  0  0  0  0  0  0  0
  139.8150   76.8040  220.8190 O   0  0  0  0  0  0  0  0  0  0  0  0
  140.1170   74.5460  221.1670 C   0  0  0  0  0  0  0  0  0  0  0  0
  139.9360   73.6960  222.2820 N   0  0  0  0  0  0  0  0  0  0  0  0
  140.4250   72.3490  222.2960 C   0  0  0  0  0  0  0  0  0  0  0  0
  141.0170   71.9640  221.2620 O   0  0  0  0  0  0  0  0  0  0  0  0
  140.2310   71.4840  223.4700 C   0  0  0  0  0  0  0  0  0  0  0  0
  139.5700   70.2930  223.2660 C   0  0  0  0  0  0  0  0  0  0  0  0
  139.3950   69.4870  224.3860 C   0  0  0  0  0  0  0  0  0  0  0  0
  139.8660   69.8720  225.6390 C   0  0  0  0  0  0  0  0  0  0  0  0
  139.6770   69.0430  226.7480 C   0  0  0  0  0  0  0  0  0  0  0  0
  140.1640   69.4640  227.9890 C   0  0  0  0  0  0  0  0  0  0  0  0
  140.0020   68.6860  229.1060 F   0  0  0  0  0  0  0  0  0  0  0  0
  140.8210   70.6760  228.1220 C   0  0  0  0  0  0  0  0  0  0  0  0
  141.0050   71.4970  227.0080 C   0  0  0  0  0  0  0  0  0  0  0  0
  140.5210   71.0800  225.7720 C   0  0  0  0  0  0  0  0  0  0  0  0
  140.6880   71.8570  224.6810 N   0  0  0  0  0  0  0  0  0  0  0  0
  140.3210   79.6120  223.4470 C   0  0  0  0  0  0  0  0  0  0  0  0
  140.6810   80.8890  223.8050 C   0  0  0  0  0  0  0  0  0  0  0  0
  141.9830   81.3230  223.8190 C   0  0  0  0  0  0  0  0  0  0  0  0
  142.9500   80.3960  223.4460 C   0  0  0  0  0  0  0  0  0  0  0  0
  142.6100   79.1060  223.0820 C   0  0  0  0  0  0  0  0  0  0  0  0
  141.2750   78.6880  223.0760 C   0  0  0  0  0  0  0  0  0  0  0  0
  137.9241   80.7477  224.6285 H   0  0  0  0  0  0  0  0  0  0  0  0
  138.6289   81.3164  223.0772 H   0  0  0  0  0  0  0  0  0  0  0  0
  137.0981   80.3767  223.0772 H   0  0  0  0  0  0  0  0  0  0  0  0
  138.6411   78.5027  224.2698 H   0  0  0  0  0  0  0  0  0  0  0  0
  139.1480   78.8000  221.3570 H   0  0  0  0  0  0  0  0  0  0  0  0
  137.6294   77.7159  220.0204 H   0  0  0  0  0  0  0  0  0  0  0  0
  135.2812   77.8992  220.6417 H   0  0  0  0  0  0  0  0  0  0  0  0
  135.6603   76.5208  219.4888 H   0  0  0  0  0  0  0  0  0  0  0  0
  134.8369   76.4001  222.3857 H   0  0  0  0  0  0  0  0  0  0  0  0
  134.0786   75.6428  220.9316 H   0  0  0  0  0  0  0  0  0  0  0  0
  136.3697   74.7132  222.5955 H   0  0  0  0  0  0  0  0  0  0  0  0
  135.2313   73.7716  221.6068 H   0  0  0  0  0  0  0  0  0  0  0  0
  137.4096   73.6662  220.5110 H   0  0  0  0  0  0  0  0  0  0  0  0
  136.3921   74.7539  219.5281 H   0  0  0  0  0  0  0  0  0  0  0  0
  140.0985   73.9016  220.2757 H   0  0  0  0  0  0  0  0  0  0  0  0
  141.0539   75.0688  221.4096 H   0  0  0  0  0  0  0  0  0  0  0  0
  139.4350   73.9800  223.1750 H   0  0  0  0  0  0  0  0  0  0  0  0
  139.2012   69.9959  222.2732 H   0  0  0  0  0  0  0  0  0  0  0  0
  138.8732   68.5245  224.2799 H   0  0  0  0  0  0  0  0  0  0  0  0
  139.1560   68.0795  226.6466 H   0  0  0  0  0  0  0  0  0  0  0  0
  141.1980   70.9919  229.1059 H   0  0  0  0  0  0  0  0  0  0  0  0
  141.5258   72.4609  227.1061 H   0  0  0  0  0  0  0  0  0  0  0  0
  139.8892   81.5959  224.0936 H   0  0  0  0  0  0  0  0  0  0  0  0
  142.2477   82.3503  224.1100 H   0  0  0  0  0  0  0  0  0  0  0  0
  144.0085   80.6954  223.4404 H   0  0  0  0  0  0  0  0  0  0  0  0
  143.4008   78.3982  222.7929 H   0  0  0  0  0  0  0  0  0  0  0  0
  140.9975   77.6636  222.7870 H   0  0  0  0  0  0  0  0  0  0  0  0
  1  2  1  0
  2  3  1  0
  3  4  1  0
  4  5  2  0
  4  6  1  0
  6  7  1  0
  7  8  1  0
  8  9  1  0
  9 10  1  0
 10 11  1  0
 11 12  1  0
 12 13  2  0
 12 14  1  0
 14 15  1  0
 15 16  1  0
 16 17  2  0
 16 18  1  0
 18 19  2  0
 19 20  1  0
 20 21  2  0
 21 22  1  0
 22 23  2  0
 23 24  1  0
 23 25  1  0
 25 26  2  0
 26 27  1  0
 27 28  2  0
  2 29  1  0
 29 30  2  0
 30 31  1  0
 31 32  2  0
 32 33  1  0
 33 34  2  0
 11  6  1  0
 28 18  1  0
 34 29  1  0
 27 21  1  0
  1 35  1  0
  1 36  1  0
  1 37  1  0
  2 38  1  1
  3 39  1  0
  6 40  1  6
  7 41  1  0
  7 42  1  0
  8 43  1  0
  8 44  1  0
  9 45  1  0
  9 46  1  0
 10 47  1  0
 10 48  1  0
 14 49  1  0
 14 50  1  0
 15 51  1  0
 19 52  1  0
 20 53  1  0
 22 54  1  0
 25 55  1  0
 26 56  1  0
 30 57  1  0
 31 58  1  0
 32 59  1  0
 33 60  1  0
 34 61  1  0
M  END
>  <smiles>  (30) 
C[C@@H](NC(=O)C1CCCCN1C(=O)CNC(=O)c1ccc2cc(F)ccc2n1)c1ccccc1

>  <score_type>  (30) 
oracle

>  <origin>  (30) 
autodockgpu

>  <m_score__min__energy>  (30) 
-9.4299999999999997

>  <m_primary>  (30) 
energy

>  <rmsd>  (30) 
3.530519535807916

>  <m_score__min__rmsd>  (30) 
3.530519535807916

>  <meeko>  (30) 
{"free_energy": -8.38, "intermolecular_energy": -10.47, "internal_energy": -2.39, "cluster_size": 2, "cluster_id": 4, "rank_in_cluster": 2}

>  <energy>  (30) 
-7.95

>  <cluster_rmsd>  (30) 
1.64

>  <cluster>  (30) 
1

$$$$

     RDKit          3D

 61 64  0  0  1  0  0  0  0  0999 V2000
  138.5410   77.3120  222.2230 C   0  0  0  0  0  0  0  0  0  0  0  0
  139.9800   76.8010  222.3030 C   0  0  1  0  0  0  0  0  0  0  0  0
  140.2840   76.0640  221.0910 N   0  0  0  0  0  0  0  0  0  0  0  0
  140.8200   74.7520  221.2060 C   0  0  0  0  0  0  0  0  0  0  0  0
  141.0250   74.2460  222.3390 O   0  0  0  0  0  0  0  0  0  0  0  0
  141.1150   74.0380  219.9300 C   0  0  2  0  0  0  0  0  0  0  0  0
  142.2280   74.6680  219.1780 C   0  0  0  0  0  0  0  0  0  0  0  0
  141.9270   76.0520  218.6380 C   0  0  0  0  0  0  0  0  0  0  0  0
  140.5170   76.1140  218.0650 C   0  0  0  0  0  0  0  0  0  0  0  0
  140.0860   74.6870  217.7990 C   0  0  0  0  0  0  0  0  0  0  0  0
  139.9010   74.0370  219.0720 N   0  0  0  0  0  0  0  0  0  0  0  0
  138.7700   73.4370  219.5950 C   0  0  0  0  0  0  0  0  0  0  0  0
  138.1840   72.5690  218.7930 O   0  0  0  0  0  0  0  0  0  0  0  0
  138.0750   73.5660  220.8690 C   0  0  0  0  0  0  0  0  0  0  0  0
  138.6430   73.0610  222.0600 N   0  0  0  0  0  0  0  0  0  0  0  0
  138.7810   71.6550  222.2990 C   0  0  0  0  0  0  0  0  0  0  0  0
  138.3650   70.8960  221.3930 O   0  0  0  0  0  0  0  0  0  0  0  0
  139.3810   71.1520  223.5440 C   0  0  0  0  0  0  0  0  0  0  0  0
  140.3290   71.9490  224.1480 C   0  0  0  0  0  0  0  0  0  0  0  0
  140.8860   71.4580  225.3230 C   0  0  0  0  0  0  0  0  0  0  0  0
  140.5010   70.2290  225.8520 C   0  0  0  0  0  0  0  0  0  0  0  0
  141.0780   69.7600  227.0360 C   0  0  0  0  0  0  0  0  0  0  0  0
  140.6660   68.5200  227.5360 C   0  0  0  0  0  0  0  0  0  0  0  0
  141.2030   68.0180  228.6930 F   0  0  0  0  0  0  0  0  0  0  0  0
  139.7070   67.7710  226.8760 C   0  0  0  0  0  0  0  0  0  0  0  0
  139.1370   68.2480  225.6950 C   0  0  0  0  0  0  0  0  0  0  0  0
  139.5450   69.4810  225.1950 C   0  0  0  0  0  0  0  0  0  0  0  0
  139.0080   69.9620  224.0550 N   0  0  0  0  0  0  0  0  0  0  0  0
  140.8470   78.0310  222.3440 C   0  0  0  0  0  0  0  0  0  0  0  0
  141.0380   78.7810  221.2090 C   0  0  0  0  0  0  0  0  0  0  0  0
  141.8170   79.9120  221.1820 C   0  0  0  0  0  0  0  0  0  0  0  0
  142.4200   80.2780  222.3800 C   0  0  0  0  0  0  0  0  0  0  0  0
  142.2400   79.5370  223.5350 C   0  0  0  0  0  0  0  0  0  0  0  0
  141.4420   78.3890  223.5360 C   0  0  0  0  0  0  0  0  0  0  0  0
  138.1448   77.4527  223.2395 H   0  0  0  0  0  0  0  0  0  0  0  0
  138.5221   78.2718  221.6860 H   0  0  0  0  0  0  0  0  0  0  0  0
  137.9210   76.5791  221.6860 H   0  0  0  0  0  0  0  0  0  0  0  0
  140.1376   76.1492  223.1750 H   0  0  0  0  0  0  0  0  0  0  0  0
  140.1050   76.5080  220.1750 H   0  0  0  0  0  0  0  0  0  0  0  0
  141.4153   73.0122  220.1898 H   0  0  0  0  0  0  0  0  0  0  0  0
  143.0953   74.7441  219.8503 H   0  0  0  0  0  0  0  0  0  0  0  0
  142.4121   74.0274  218.3029 H   0  0  0  0  0  0  0  0  0  0  0  0
  142.0175   76.7848  219.4533 H   0  0  0  0  0  0  0  0  0  0  0  0
  142.6440   76.2812  217.8359 H   0  0  0  0  0  0  0  0  0  0  0  0
  139.8355   76.5862  218.7879 H   0  0  0  0  0  0  0  0  0  0  0  0
  140.4938   76.7105  217.1411 H   0  0  0  0  0  0  0  0  0  0  0  0
  139.1416   74.6805  217.2350 H   0  0  0  0  0  0  0  0  0  0  0  0
  140.8482   74.1601  217.2062 H   0  0  0  0  0  0  0  0  0  0  0  0
  137.9142   74.6421  221.0305 H   0  0  0  0  0  0  0  0  0  0  0  0
  137.1921   72.9247  220.7300 H   0  0  0  0  0  0  0  0  0  0  0  0
  139.0020   73.6680  222.8560 H   0  0  0  0  0  0  0  0  0  0  0  0
  140.6281   72.9190  223.7242 H   0  0  0  0  0  0  0  0  0  0  0  0
  141.6481   72.0538  225.8467 H   0  0  0  0  0  0  0  0  0  0  0  0
  141.8396   70.3533  227.5632 H   0  0  0  0  0  0  0  0  0  0  0  0
  139.3938   66.7983  227.2832 H   0  0  0  0  0  0  0  0  0  0  0  0
  138.3749   67.6570  225.1660 H   0  0  0  0  0  0  0  0  0  0  0  0
  140.5446   78.4612  220.2793 H   0  0  0  0  0  0  0  0  0  0  0  0
  141.9564   80.4973  220.2611 H   0  0  0  0  0  0  0  0  0  0  0  0
  143.0541   81.1763  222.4106 H   0  0  0  0  0  0  0  0  0  0  0  0
  142.7320   79.8559  224.4657 H   0  0  0  0  0  0  0  0  0  0  0  0
  141.2946   77.7953  224.4502 H   0  0  0  0  0  0  0  0  0  0  0  0
  1  2  1  0
  2  3  1  0
  3  4  1  0
  4  5  2  0
  4  6  1  0
  6  7  1  0
  7  8  1  0
  8  9  1  0
  9 10  1  0
 10 11  1  0
 11 12  1  0
 12 13  2  0
 12 14  1  0
 14 15  1  0
 15 16  1  0
 16 17  2  0
 16 18  1  0
 18 19  2  0
 19 20  1  0
 20 21  2  0
 21 22  1  0
 22 23  2  0
 23 24  1  0
 23 25  1  0
 25 26  2  0
 26 27  1  0
 27 28  2  0
  2 29  1  0
 29 30  2  0
 30 31  1  0
 31 32  2  0
 32 33  1  0
 33 34  2  0
 11  6  1  0
 28 18  1  0
 34 29  1  0
 27 21  1  0
  1 35  1  0
  1 36  1  0
  1 37  1  0
  2 38  1  1
  3 39  1  0
  6 40  1  1
  7 41  1  0
  7 42  1  0
  8 43  1  0
  8 44  1  0
  9 45  1  0
  9 46  1  0
 10 47  1  0
 10 48  1  0
 14 49  1  0
 14 50  1  0
 15 51  1  0
 19 52  1  0
 20 53  1  0
 22 54  1  0
 25 55  1  0
 26 56  1  0
 30 57  1  0
 31 58  1  0
 32 59  1  0
 33 60  1  0
 34 61  1  0
M  END
>  <smiles>  (31) 
C[C@@H](NC(=O)C1CCCCN1C(=O)CNC(=O)c1ccc2cc(F)ccc2n1)c1ccccc1

>  <score_type>  (31) 
oracle

>  <origin>  (31) 
autodockgpu

>  <m_score__min__energy>  (31) 
-9.4299999999999997

>  <m_primary>  (31) 
energy

>  <rmsd>  (31) 
3.4531207156544803

>  <m_score__min__rmsd>  (31) 
3.4531207156544803

>  <meeko>  (31) 
{"free_energy": -8.21, "intermolecular_energy": -10.3, "internal_energy": -2.78, "cluster_size": 32, "cluster_id": 1, "rank_in_cluster": 25}

>  <energy>  (31) 
-7.89

>  <cluster_rmsd>  (31) 
1.77

>  <cluster>  (31) 
1

$$$$

     RDKit          3D

 61 64  0  0  1  0  0  0  0  0999 V2000
  140.8860   76.6680  218.8690 C   0  0  0  0  0  0  0  0  0  0  0  0
  140.3140   76.2810  220.2340 C   0  0  1  0  0  0  0  0  0  0  0  0
  140.7640   74.9420  220.5680 N   0  0  0  0  0  0  0  0  0  0  0  0
  142.1550   74.6550  220.5030 C   0  0  0  0  0  0  0  0  0  0  0  0
  142.9740   75.5460  220.1620 O   0  0  0  0  0  0  0  0  0  0  0  0
  142.5650   73.2640  220.8540 C   0  0  2  0  0  0  0  0  0  0  0  0
  144.0400   73.0950  220.8550 C   0  0  0  0  0  0  0  0  0  0  0  0
  144.6940   73.2240  219.4940 C   0  0  0  0  0  0  0  0  0  0  0  0
  143.8690   72.5160  218.4270 C   0  0  0  0  0  0  0  0  0  0  0  0
  142.9580   71.5450  219.1480 C   0  0  0  0  0  0  0  0  0  0  0  0
  141.9780   72.3130  219.8740 N   0  0  0  0  0  0  0  0  0  0  0  0
  140.5990   72.2930  219.7770 C   0  0  0  0  0  0  0  0  0  0  0  0
  140.0980   73.0870  218.8510 O   0  0  0  0  0  0  0  0  0  0  0  0
  139.5630   71.5650  220.4980 C   0  0  0  0  0  0  0  0  0  0  0  0
  139.8170   71.0150  221.7750 N   0  0  0  0  0  0  0  0  0  0  0  0
  140.0920   71.8390  222.9150 C   0  0  0  0  0  0  0  0  0  0  0  0
  140.1000   73.0760  222.7160 O   0  0  0  0  0  0  0  0  0  0  0  0
  140.3470   71.2460  224.2360 C   0  0  0  0  0  0  0  0  0  0  0  0
  140.7590   72.1000  225.2360 C   0  0  0  0  0  0  0  0  0  0  0  0
  140.9970   71.5220  226.4790 C   0  0  0  0  0  0  0  0  0  0  0  0
  140.8250   70.1570  226.6900 C   0  0  0  0  0  0  0  0  0  0  0  0
  141.0690   69.6020  227.9500 C   0  0  0  0  0  0  0  0  0  0  0  0
  140.8860   68.2270  228.1240 C   0  0  0  0  0  0  0  0  0  0  0  0
  141.1140   67.6380  229.3400 F   0  0  0  0  0  0  0  0  0  0  0  0
  140.4700   67.4270  227.0730 C   0  0  0  0  0  0  0  0  0  0  0  0
  140.2270   67.9900  225.8190 C   0  0  0  0  0  0  0  0  0  0  0  0
  140.4090   69.3580  225.6430 C   0  0  0  0  0  0  0  0  0  0  0  0
  140.1810   69.9240  224.4400 N   0  0  0  0  0  0  0  0  0  0  0  0
  140.9200   77.2470  221.2170 C   0  0  0  0  0  0  0  0  0  0  0  0
  141.5280   78.3960  220.7730 C   0  0  0  0  0  0  0  0  0  0  0  0
  142.0980   79.3150  221.6190 C   0  0  0  0  0  0  0  0  0  0  0  0
  142.0340   79.0300  222.9780 C   0  0  0  0  0  0  0  0  0  0  0  0
  141.4260   77.8790  223.4470 C   0  0  0  0  0  0  0  0  0  0  0  0
  140.8520   76.9580  222.5640 C   0  0  0  0  0  0  0  0  0  0  0  0
  141.7896   77.2793  219.0100 H   0  0  0  0  0  0  0  0  0  0  0  0
  141.1432   75.7576  218.3077 H   0  0  0  0  0  0  0  0  0  0  0  0
  140.1366   77.2454  218.3077 H   0  0  0  0  0  0  0  0  0  0  0  0
  139.2144   76.3092  220.2434 H   0  0  0  0  0  0  0  0  0  0  0  0
  140.0670   74.2310  220.8430 H   0  0  0  0  0  0  0  0  0  0  0  0
  142.1968   73.0609  221.8705 H   0  0  0  0  0  0  0  0  0  0  0  0
  144.4719   73.8604  221.5164 H   0  0  0  0  0  0  0  0  0  0  0  0
  144.2343   72.0676  221.1965 H   0  0  0  0  0  0  0  0  0  0  0  0
  144.7800   74.2896  219.2350 H   0  0  0  0  0  0  0  0  0  0  0  0
  145.6896   72.7581  219.5361 H   0  0  0  0  0  0  0  0  0  0  0  0
  143.2717   73.2477  217.8633 H   0  0  0  0  0  0  0  0  0  0  0  0
  144.5184   71.9898  217.7119 H   0  0  0  0  0  0  0  0  0  0  0  0
  142.4559   70.8920  218.4190 H   0  0  0  0  0  0  0  0  0  0  0  0
  143.5386   70.9147  219.8377 H   0  0  0  0  0  0  0  0  0  0  0  0
  138.7184   72.2594  220.6185 H   0  0  0  0  0  0  0  0  0  0  0  0
  139.4149   70.6714  219.8738 H   0  0  0  0  0  0  0  0  0  0  0  0
  139.8260   69.9740  221.9870 H   0  0  0  0  0  0  0  0  0  0  0  0
  140.8922   73.1778  225.0613 H   0  0  0  0  0  0  0  0  0  0  0  0
  141.3284   72.1577  227.3133 H   0  0  0  0  0  0  0  0  0  0  0  0
  141.3983   70.2346  228.7875 H   0  0  0  0  0  0  0  0  0  0  0  0
  140.3309   66.3467  227.2265 H   0  0  0  0  0  0  0  0  0  0  0  0
  139.8958   67.3599  224.9804 H   0  0  0  0  0  0  0  0  0  0  0  0
  141.5596   78.5886  219.6904 H   0  0  0  0  0  0  0  0  0  0  0  0
  142.5800   80.2288  221.2412 H   0  0  0  0  0  0  0  0  0  0  0  0
  142.4766   79.7354  223.6967 H   0  0  0  0  0  0  0  0  0  0  0  0
  141.3935   77.6853  224.5293 H   0  0  0  0  0  0  0  0  0  0  0  0
  140.3664   76.0410  222.9290 H   0  0  0  0  0  0  0  0  0  0  0  0
  1  2  1  0
  2  3  1  0
  3  4  1  0
  4  5  2  0
  4  6  1  0
  6  7  1  0
  7  8  1  0
  8  9  1  0
  9 10  1  0
 10 11  1  0
 11 12  1  0
 12 13  2  0
 12 14  1  0
 14 15  1  0
 15 16  1  0
 16 17  2  0
 16 18  1  0
 18 19  2  0
 19 20  1  0
 20 21  2  0
 21 22  1  0
 22 23  2  0
 23 24  1  0
 23 25  1  0
 25 26  2  0
 26 27  1  0
 27 28  2  0
  2 29  1  0
 29 30  2  0
 30 31  1  0
 31 32  2  0
 32 33  1  0
 33 34  2  0
 11  6  1  0
 28 18  1  0
 34 29  1  0
 27 21  1  0
  1 35  1  0
  1 36  1  0
  1 37  1  0
  2 38  1  6
  3 39  1  0
  6 40  1  1
  7 41  1  0
  7 42  1  0
  8 43  1  0
  8 44  1  0
  9 45  1  0
  9 46  1  0
 10 47  1  0
 10 48  1  0
 14 49  1  0
 14 50  1  0
 15 51  1  0
 19 52  1  0
 20 53  1  0
 22 54  1  0
 25 55  1  0
 26 56  1  0
 30 57  1  0
 31 58  1  0
 32 59  1  0
 33 60  1  0
 34 61  1  0
M  END
>  <smiles>  (32) 
C[C@@H](NC(=O)C1CCCCN1C(=O)CNC(=O)c1ccc2cc(F)ccc2n1)c1ccccc1

>  <score_type>  (32) 
oracle

>  <origin>  (32) 
autodockgpu

>  <m_score__min__energy>  (32) 
-9.4299999999999997

>  <m_primary>  (32) 
energy

>  <rmsd>  (32) 
4.430522051360329

>  <m_score__min__rmsd>  (32) 
4.430522051360329

>  <meeko>  (32) 
{"free_energy": -7.53, "intermolecular_energy": -9.62, "internal_energy": -3.48, "cluster_size": 2, "cluster_id": 6, "rank_in_cluster": 2}

>  <energy>  (32) 
-7.17

>  <cluster_rmsd>  (32) 
1.78

>  <cluster>  (32) 
1

$$$$

     RDKit          3D

 61 64  0  0  1  0  0  0  0  0999 V2000
  141.5610   79.5280  223.8390 C   0  0  0  0  0  0  0  0  0  0  0  0
  140.9980   79.2630  222.4410 C   0  0  1  0  0  0  0  0  0  0  0  0
  141.6930   78.1270  221.8640 N   0  0  0  0  0  0  0  0  0  0  0  0
  141.6620   77.9540  220.4530 C   0  0  0  0  0  0  0  0  0  0  0  0
  141.0430   78.7710  219.7250 O   0  0  0  0  0  0  0  0  0  0  0  0
  142.3910   76.7710  219.9110 C   0  0  2  0  0  0  0  0  0  0  0  0
  143.0130   77.0480  218.5920 C   0  0  0  0  0  0  0  0  0  0  0  0
  142.0290   77.2880  217.4640 C   0  0  0  0  0  0  0  0  0  0  0  0
  140.8660   76.3070  217.5430 C   0  0  0  0  0  0  0  0  0  0  0  0
  141.3230   75.1520  218.4080 C   0  0  0  0  0  0  0  0  0  0  0  0
  141.4450   75.6340  219.7610 N   0  0  0  0  0  0  0  0  0  0  0  0
  140.8090   75.1980  220.9080 C   0  0  0  0  0  0  0  0  0  0  0  0
  141.4150   75.5220  222.0340 O   0  0  0  0  0  0  0  0  0  0  0  0
  139.5870   74.4390  221.1390 C   0  0  0  0  0  0  0  0  0  0  0  0
  139.4750   73.5610  222.2410 N   0  0  0  0  0  0  0  0  0  0  0  0
  140.3180   72.4110  222.3840 C   0  0  0  0  0  0  0  0  0  0  0  0
  141.1590   72.2240  221.4750 O   0  0  0  0  0  0  0  0  0  0  0  0
  140.1880   71.5150  223.5430 C   0  0  0  0  0  0  0  0  0  0  0  0
  139.5500   70.3110  223.3340 C   0  0  0  0  0  0  0  0  0  0  0  0
  139.4350   69.4760  224.4390 C   0  0  0  0  0  0  0  0  0  0  0  0
  139.9410   69.8440  225.6840 C   0  0  0  0  0  0  0  0  0  0  0  0
  139.8120   68.9840  226.7780 C   0  0  0  0  0  0  0  0  0  0  0  0
  140.3320   69.3890  228.0120 C   0  0  0  0  0  0  0  0  0  0  0  0
  140.2300   68.5800  229.1140 F   0  0  0  0  0  0  0  0  0  0  0  0
  140.9630   70.6130  228.1510 C   0  0  0  0  0  0  0  0  0  0  0  0
  141.0860   71.4650  227.0520 C   0  0  0  0  0  0  0  0  0  0  0  0
  140.5700   71.0650  225.8230 C   0  0  0  0  0  0  0  0  0  0  0  0
  140.6780   71.8710  224.7470 N   0  0  0  0  0  0  0  0  0  0  0  0
  139.5560   78.8850  222.6480 C   0  0  0  0  0  0  0  0  0  0  0  0
  138.6240   79.8480  222.9490 C   0  0  0  0  0  0  0  0  0  0  0  0
  137.2950   79.5670  223.1500 C   0  0  0  0  0  0  0  0  0  0  0  0
  136.9190   78.2340  223.0330 C   0  0  0  0  0  0  0  0  0  0  0  0
  137.8420   77.2480  222.7310 C   0  0  0  0  0  0  0  0  0  0  0  0
  139.1900   77.5600  222.5310 C   0  0  0  0  0  0  0  0  0  0  0  0
  140.8386   79.1880  224.5957 H   0  0  0  0  0  0  0  0  0  0  0  0
  142.5070   78.9806  223.9631 H   0  0  0  0  0  0  0  0  0  0  0  0
  141.7420   80.6059  223.9631 H   0  0  0  0  0  0  0  0  0  0  0  0
  141.1107   80.1344  221.7793 H   0  0  0  0  0  0  0  0  0  0  0  0
  142.1930   77.4730  222.4890 H   0  0  0  0  0  0  0  0  0  0  0  0
  143.1935   76.5267  220.6226 H   0  0  0  0  0  0  0  0  0  0  0  0
  143.6439   77.9435  218.6923 H   0  0  0  0  0  0  0  0  0  0  0  0
  143.5809   76.1456  218.3213 H   0  0  0  0  0  0  0  0  0  0  0  0
  141.6405   78.3146  217.5366 H   0  0  0  0  0  0  0  0  0  0  0  0
  142.5488   77.1423  216.5056 H   0  0  0  0  0  0  0  0  0  0  0  0
  139.9898   76.7947  217.9952 H   0  0  0  0  0  0  0  0  0  0  0  0
  140.5766   75.9579  216.5408 H   0  0  0  0  0  0  0  0  0  0  0  0
  140.5840   74.3383  218.3662 H   0  0  0  0  0  0  0  0  0  0  0  0
  142.2882   74.7637  218.0507 H   0  0  0  0  0  0  0  0  0  0  0  0
  138.7759   75.1749  221.2412 H   0  0  0  0  0  0  0  0  0  0  0  0
  139.5604   73.7538  220.2789 H   0  0  0  0  0  0  0  0  0  0  0  0
  138.7730   73.6790  223.0310 H   0  0  0  0  0  0  0  0  0  0  0  0
  139.1541   70.0270  222.3478 H   0  0  0  0  0  0  0  0  0  0  0  0
  138.9335   68.5032  224.3283 H   0  0  0  0  0  0  0  0  0  0  0  0
  139.3124   68.0098  226.6711 H   0  0  0  0  0  0  0  0  0  0  0  0
  141.3679   70.9147  229.1283 H   0  0  0  0  0  0  0  0  0  0  0  0
  141.5844   72.4401  227.1561 H   0  0  0  0  0  0  0  0  0  0  0  0
  138.9577   80.8928  223.0330 H   0  0  0  0  0  0  0  0  0  0  0  0
  136.5665   80.3552  223.3909 H   0  0  0  0  0  0  0  0  0  0  0  0
  135.8652   77.9568  223.1837 H   0  0  0  0  0  0  0  0  0  0  0  0
  137.5098   76.2027  222.6470 H   0  0  0  0  0  0  0  0  0  0  0  0
  139.9284   76.7811  222.2903 H   0  0  0  0  0  0  0  0  0  0  0  0
  1  2  1  0
  2  3  1  0
  3  4  1  0
  4  5  2  0
  4  6  1  0
  6  7  1  0
  7  8  1  0
  8  9  1  0
  9 10  1  0
 10 11  1  0
 11 12  1  0
 12 13  2  0
 12 14  1  0
 14 15  1  0
 15 16  1  0
 16 17  2  0
 16 18  1  0
 18 19  2  0
 19 20  1  0
 20 21  2  0
 21 22  1  0
 22 23  2  0
 23 24  1  0
 23 25  1  0
 25 26  2  0
 26 27  1  0
 27 28  2  0
  2 29  1  0
 29 30  2  0
 30 31  1  0
 31 32  2  0
 32 33  1  0
 33 34  2  0
 11  6  1  0
 28 18  1  0
 34 29  1  0
 27 21  1  0
  1 35  1  0
  1 36  1  0
  1 37  1  0
  2 38  1  6
  3 39  1  0
  6 40  1  1
  7 41  1  0
  7 42  1  0
  8 43  1  0
  8 44  1  0
  9 45  1  0
  9 46  1  0
 10 47  1  0
 10 48  1  0
 14 49  1  0
 14 50  1  0
 15 51  1  0
 19 52  1  0
 20 53  1  0
 22 54  1  0
 25 55  1  0
 26 56  1  0
 30 57  1  0
 31 58  1  0
 32 59  1  0
 33 60  1  0
 34 61  1  0
M  END
>  <smiles>  (33) 
C[C@@H](NC(=O)C1CCCCN1C(=O)CNC(=O)c1ccc2cc(F)ccc2n1)c1ccccc1

>  <score_type>  (33) 
oracle

>  <origin>  (33) 
autodockgpu

>  <m_score__min__energy>  (33) 
-9.4299999999999997

>  <m_primary>  (33) 
energy

>  <rmsd>  (33) 
2.474116587604965

>  <m_score__min__rmsd>  (33) 
2.474116587604965

>  <meeko>  (33) 
{"free_energy": -8.83, "intermolecular_energy": -10.91, "internal_energy": -2.76, "cluster_size": 32, "cluster_id": 1, "rank_in_cluster": 14}

>  <energy>  (33) 
-8.82

>  <cluster_rmsd>  (33) 
0.0

>  <cluster>  (33) 
2

$$$$

     RDKit          3D

 61 64  0  0  1  0  0  0  0  0999 V2000
  138.8220   78.2260  222.7750 C   0  0  0  0  0  0  0  0  0  0  0  0
  140.2640   78.6000  223.1240 C   0  0  1  0  0  0  0  0  0  0  0  0
  141.1640   77.7150  222.4070 N   0  0  0  0  0  0  0  0  0  0  0  0
  141.0500   77.6270  220.9920 C   0  0  0  0  0  0  0  0  0  0  0  0
  140.1850   78.3040  220.3810 O   0  0  0  0  0  0  0  0  0  0  0  0
  141.9970   76.7030  220.3040 C   0  0  2  0  0  0  0  0  0  0  0  0
  142.5130   77.2700  219.0340 C   0  0  0  0  0  0  0  0  0  0  0  0
  141.4740   77.4370  217.9440 C   0  0  0  0  0  0  0  0  0  0  0  0
  140.5440   76.2310  217.8920 C   0  0  0  0  0  0  0  0  0  0  0  0
  141.2540   75.0980  218.6020 C   0  0  0  0  0  0  0  0  0  0  0  0
  141.3060   75.4200  220.0060 N   0  0  0  0  0  0  0  0  0  0  0  0
  140.8040   74.7180  221.0860 C   0  0  0  0  0  0  0  0  0  0  0  0
  141.0680   75.2510  222.2630 O   0  0  0  0  0  0  0  0  0  0  0  0
  140.0320   73.4880  221.2000 C   0  0  0  0  0  0  0  0  0  0  0  0
  140.0750   72.7090  222.3780 N   0  0  0  0  0  0  0  0  0  0  0  0
  139.6330   71.3460  222.4030 C   0  0  0  0  0  0  0  0  0  0  0  0
  139.2020   70.8840  221.3220 O   0  0  0  0  0  0  0  0  0  0  0  0
  139.6920   70.5520  223.6400 C   0  0  0  0  0  0  0  0  0  0  0  0
  139.1440   69.2890  223.5980 C   0  0  0  0  0  0  0  0  0  0  0  0
  139.2070   68.5520  224.7760 C   0  0  0  0  0  0  0  0  0  0  0  0
  139.7950   69.0710  225.9270 C   0  0  0  0  0  0  0  0  0  0  0  0
  139.8460   68.3080  227.0970 C   0  0  0  0  0  0  0  0  0  0  0  0
  140.4430   68.8630  228.2330 C   0  0  0  0  0  0  0  0  0  0  0  0
  140.5170   68.1540  229.4040 F   0  0  0  0  0  0  0  0  0  0  0  0
  140.9760   70.1410  228.2040 C   0  0  0  0  0  0  0  0  0  0  0  0
  140.9200   70.8950  227.0300 C   0  0  0  0  0  0  0  0  0  0  0  0
  140.3260   70.3450  225.8990 C   0  0  0  0  0  0  0  0  0  0  0  0
  140.2610   71.0550  224.7530 N   0  0  0  0  0  0  0  0  0  0  0  0
  140.4580   80.0000  222.6050 C   0  0  0  0  0  0  0  0  0  0  0  0
  139.3710   80.7700  222.2680 C   0  0  0  0  0  0  0  0  0  0  0  0
  139.4820   82.0520  221.7900 C   0  0  0  0  0  0  0  0  0  0  0  0
  140.7720   82.5540  221.6560 C   0  0  0  0  0  0  0  0  0  0  0  0
  141.8800   81.7960  221.9890 C   0  0  0  0  0  0  0  0  0  0  0  0
  141.7400   80.4910  222.4750 C   0  0  0  0  0  0  0  0  0  0  0  0
  138.2475   78.0770  223.7011 H   0  0  0  0  0  0  0  0  0  0  0  0
  138.3654   79.0354  222.1865 H   0  0  0  0  0  0  0  0  0  0  0  0
  138.8164   77.2967  222.1865 H   0  0  0  0  0  0  0  0  0  0  0  0
  140.4600   78.5233  224.2037 H   0  0  0  0  0  0  0  0  0  0  0  0
  141.8630   77.1710  222.9380 H   0  0  0  0  0  0  0  0  0  0  0  0
  142.8505   76.5449  220.9797 H   0  0  0  0  0  0  0  0  0  0  0  0
  142.9435   78.2588  219.2507 H   0  0  0  0  0  0  0  0  0  0  0  0
  143.2508   76.5498  218.6506 H   0  0  0  0  0  0  0  0  0  0  0  0
  140.8810   78.3410  218.1468 H   0  0  0  0  0  0  0  0  0  0  0  0
  141.9898   77.5258  216.9765 H   0  0  0  0  0  0  0  0  0  0  0  0
  139.5964   76.4617  218.4008 H   0  0  0  0  0  0  0  0  0  0  0  0
  140.3094   75.9589  216.8523 H   0  0  0  0  0  0  0  0  0  0  0  0
  140.7007   74.1589  218.4540 H   0  0  0  0  0  0  0  0  0  0  0  0
  142.2698   74.9699  218.1999 H   0  0  0  0  0  0  0  0  0  0  0  0
  138.9785   73.7644  221.0460 H   0  0  0  0  0  0  0  0  0  0  0  0
  140.5109   72.8319  220.4582 H   0  0  0  0  0  0  0  0  0  0  0  0
  140.4260   73.0640  223.3170 H   0  0  0  0  0  0  0  0  0  0  0  0
  138.6826   68.8859  222.6844 H   0  0  0  0  0  0  0  0  0  0  0  0
  138.7832   67.5372  224.7990 H   0  0  0  0  0  0  0  0  0  0  0  0
  139.4252   67.2920  227.1235 H   0  0  0  0  0  0  0  0  0  0  0  0
  141.4436   70.5622  229.1061 H   0  0  0  0  0  0  0  0  0  0  0  0
  141.3403   71.9111  227.0001 H   0  0  0  0  0  0  0  0  0  0  0  0
  138.3658   80.3394  222.3867 H   0  0  0  0  0  0  0  0  0  0  0  0
  138.5974   82.6506  221.5269 H   0  0  0  0  0  0  0  0  0  0  0  0
  140.9144   83.5767  221.2767 H   0  0  0  0  0  0  0  0  0  0  0  0
  142.8859   82.2251  221.8701 H   0  0  0  0  0  0  0  0  0  0  0  0
  142.6163   79.8822  222.7422 H   0  0  0  0  0  0  0  0  0  0  0  0
  1  2  1  0
  2  3  1  0
  3  4  1  0
  4  5  2  0
  4  6  1  0
  6  7  1  0
  7  8  1  0
  8  9  1  0
  9 10  1  0
 10 11  1  0
 11 12  1  0
 12 13  2  0
 12 14  1  0
 14 15  1  0
 15 16  1  0
 16 17  2  0
 16 18  1  0
 18 19  2  0
 19 20  1  0
 20 21  2  0
 21 22  1  0
 22 23  2  0
 23 24  1  0
 23 25  1  0
 25 26  2  0
 26 27  1  0
 27 28  2  0
  2 29  1  0
 29 30  2  0
 30 31  1  0
 31 32  2  0
 32 33  1  0
 33 34  2  0
 11  6  1  0
 28 18  1  0
 34 29  1  0
 27 21  1  0
  1 35  1  0
  1 36  1  0
  1 37  1  0
  2 38  1  1
  3 39  1  0
  6 40  1  1
  7 41  1  0
  7 42  1  0
  8 43  1  0
  8 44  1  0
  9 45  1  0
  9 46  1  0
 10 47  1  0
 10 48  1  0
 14 49  1  0
 14 50  1  0
 15 51  1  0
 19 52  1  0
 20 53  1  0
 22 54  1  0
 25 55  1  0
 26 56  1  0
 30 57  1  0
 31 58  1  0
 32 59  1  0
 33 60  1  0
 34 61  1  0
M  END
>  <smiles>  (34) 
C[C@@H](NC(=O)C1CCCCN1C(=O)CNC(=O)c1ccc2cc(F)ccc2n1)c1ccccc1

>  <score_type>  (34) 
oracle

>  <origin>  (34) 
autodockgpu

>  <m_score__min__energy>  (34) 
-9.4299999999999997

>  <m_primary>  (34) 
energy

>  <rmsd>  (34) 
2.032940106703144

>  <m_score__min__rmsd>  (34) 
2.032940106703144

>  <meeko>  (34) 
{"free_energy": -8.2, "intermolecular_energy": -10.29, "internal_energy": -2.61, "cluster_size": 32, "cluster_id": 1, "rank_in_cluster": 26}

>  <energy>  (34) 
-8.63

>  <cluster_rmsd>  (34) 
0.0

>  <cluster>  (34) 
3

$$$$

     RDKit          3D

 61 64  0  0  1  0  0  0  0  0999 V2000
  141.4280   79.4530  223.8230 C   0  0  0  0  0  0  0  0  0  0  0  0
  140.8830   79.1830  222.4190 C   0  0  1  0  0  0  0  0  0  0  0  0
  141.6310   78.0890  221.8280 N   0  0  0  0  0  0  0  0  0  0  0  0
  141.5780   77.9090  220.4190 C   0  0  0  0  0  0  0  0  0  0  0  0
  140.8940   78.6850  219.7040 O   0  0  0  0  0  0  0  0  0  0  0  0
  142.3640   76.7700  219.8630 C   0  0  2  0  0  0  0  0  0  0  0  0
  142.9520   77.0860  218.5370 C   0  0  0  0  0  0  0  0  0  0  0  0
  141.9420   77.2740  217.4230 C   0  0  0  0  0  0  0  0  0  0  0  0
  140.8360   76.2300  217.5130 C   0  0  0  0  0  0  0  0  0  0  0  0
  141.3670   75.0990  218.3680 C   0  0  0  0  0  0  0  0  0  0  0  0
  141.4810   75.5830  219.7200 N   0  0  0  0  0  0  0  0  0  0  0  0
  140.8840   75.1090  220.8740 C   0  0  0  0  0  0  0  0  0  0  0  0
  141.4250   75.5450  221.9950 O   0  0  0  0  0  0  0  0  0  0  0  0
  139.7650   74.2090  221.1170 C   0  0  0  0  0  0  0  0  0  0  0  0
  139.7350   73.3780  222.2590 N   0  0  0  0  0  0  0  0  0  0  0  0
  139.9130   71.9590  222.1690 C   0  0  0  0  0  0  0  0  0  0  0  0
  140.0920   71.4950  221.0190 O   0  0  0  0  0  0  0  0  0  0  0  0
  139.8840   71.1130  223.3720 C   0  0  0  0  0  0  0  0  0  0  0  0
  139.3270   69.8590  223.2420 C   0  0  0  0  0  0  0  0  0  0  0  0
  139.3070   69.0730  224.3880 C   0  0  0  0  0  0  0  0  0  0  0  0
  139.8250   69.5350  225.5950 C   0  0  0  0  0  0  0  0  0  0  0  0
  139.7930   68.7230  226.7330 C   0  0  0  0  0  0  0  0  0  0  0  0
  140.3220   69.2220  227.9270 C   0  0  0  0  0  0  0  0  0  0  0  0
  140.3130   68.4640  229.0690 F   0  0  0  0  0  0  0  0  0  0  0  0
  140.8690   70.4930  227.9860 C   0  0  0  0  0  0  0  0  0  0  0  0
  140.8960   71.2960  226.8450 C   0  0  0  0  0  0  0  0  0  0  0  0
  140.3700   70.8020  225.6550 C   0  0  0  0  0  0  0  0  0  0  0  0
  140.3860   71.5610  224.5400 N   0  0  0  0  0  0  0  0  0  0  0  0
  139.4580   78.7370  222.6140 C   0  0  0  0  0  0  0  0  0  0  0  0
  138.4760   79.6570  222.8900 C   0  0  0  0  0  0  0  0  0  0  0  0
  137.1600   79.3130  223.0790 C   0  0  0  0  0  0  0  0  0  0  0  0
  136.8530   77.9610  222.9760 C   0  0  0  0  0  0  0  0  0  0  0  0
  137.8260   77.0180  222.6980 C   0  0  0  0  0  0  0  0  0  0  0  0
  139.1600   77.3940  222.5100 C   0  0  0  0  0  0  0  0  0  0  0  0
  140.7059   79.0952  224.5717 H   0  0  0  0  0  0  0  0  0  0  0  0
  142.3837   78.9241  223.9533 H   0  0  0  0  0  0  0  0  0  0  0  0
  141.5862   80.5337  223.9533 H   0  0  0  0  0  0  0  0  0  0  0  0
  140.9586   80.0684  221.7706 H   0  0  0  0  0  0  0  0  0  0  0  0
  142.1840   77.4690  222.4430 H   0  0  0  0  0  0  0  0  0  0  0  0
  143.1877   76.5678  220.5635 H   0  0  0  0  0  0  0  0  0  0  0  0
  143.5329   78.0152  218.6328 H   0  0  0  0  0  0  0  0  0  0  0  0
  143.5659   76.2178  218.2554 H   0  0  0  0  0  0  0  0  0  0  0  0
  141.4983   78.2773  217.5042 H   0  0  0  0  0  0  0  0  0  0  0  0
  142.4568   77.1597  216.4576 H   0  0  0  0  0  0  0  0  0  0  0  0
  139.9401   76.6672  217.9780 H   0  0  0  0  0  0  0  0  0  0  0  0
  140.5536   75.8685  216.5132 H   0  0  0  0  0  0  0  0  0  0  0  0
  140.6728   74.2464  218.3334 H   0  0  0  0  0  0  0  0  0  0  0  0
  142.3469   74.7647  217.9964 H   0  0  0  0  0  0  0  0  0  0  0  0
  138.8629   74.8368  221.1631 H   0  0  0  0  0  0  0  0  0  0  0  0
  139.8530   73.4854  220.2932 H   0  0  0  0  0  0  0  0  0  0  0  0
  139.5790   73.7280  223.2500 H   0  0  0  0  0  0  0  0  0  0  0  0
  138.9209   69.5003  222.2847 H   0  0  0  0  0  0  0  0  0  0  0  0
  138.8724   68.0636  224.3404 H   0  0  0  0  0  0  0  0  0  0  0  0
  139.3605   67.7125  226.6896 H   0  0  0  0  0  0  0  0  0  0  0  0
  141.2825   70.8698  228.9331 H   0  0  0  0  0  0  0  0  0  0  0  0
  141.3277   72.3069  226.8857 H   0  0  0  0  0  0  0  0  0  0  0  0
  138.7567   80.7181  222.9630 H   0  0  0  0  0  0  0  0  0  0  0  0
  136.3900   80.0668  223.3000 H   0  0  0  0  0  0  0  0  0  0  0  0
  135.8126   77.6337  223.1188 H   0  0  0  0  0  0  0  0  0  0  0  0
  137.5465   75.9567  222.6237 H   0  0  0  0  0  0  0  0  0  0  0  0
  139.9392   76.6498  222.2884 H   0  0  0  0  0  0  0  0  0  0  0  0
  1  2  1  0
  2  3  1  0
  3  4  1  0
  4  5  2  0
  4  6  1  0
  6  7  1  0
  7  8  1  0
  8  9  1  0
  9 10  1  0
 10 11  1  0
 11 12  1  0
 12 13  2  0
 12 14  1  0
 14 15  1  0
 15 16  1  0
 16 17  2  0
 16 18  1  0
 18 19  2  0
 19 20  1  0
 20 21  2  0
 21 22  1  0
 22 23  2  0
 23 24  1  0
 23 25  1  0
 25 26  2  0
 26 27  1  0
 27 28  2  0
  2 29  1  0
 29 30  2  0
 30 31  1  0
 31 32  2  0
 32 33  1  0
 33 34  2  0
 11  6  1  0
 28 18  1  0
 34 29  1  0
 27 21  1  0
  1 35  1  0
  1 36  1  0
  1 37  1  0
  2 38  1  6
  3 39  1  0
  6 40  1  1
  7 41  1  0
  7 42  1  0
  8 43  1  0
  8 44  1  0
  9 45  1  0
  9 46  1  0
 10 47  1  0
 10 48  1  0
 14 49  1  0
 14 50  1  0
 15 51  1  0
 19 52  1  0
 20 53  1  0
 22 54  1  0
 25 55  1  0
 26 56  1  0
 30 57  1  0
 31 58  1  0
 32 59  1  0
 33 60  1  0
 34 61  1  0
M  END
>  <smiles>  (35) 
C[C@@H](NC(=O)C1CCCCN1C(=O)CNC(=O)c1ccc2cc(F)ccc2n1)c1ccccc1

>  <score_type>  (35) 
oracle

>  <origin>  (35) 
autodockgpu

>  <m_score__min__energy>  (35) 
-9.4299999999999997

>  <m_primary>  (35) 
energy

>  <rmsd>  (35) 
2.4720984100093175

>  <m_score__min__rmsd>  (35) 
2.4720984100093175

>  <meeko>  (35) 
{"free_energy": -8.51, "intermolecular_energy": -10.6, "internal_energy": -2.83, "cluster_size": 32, "cluster_id": 1, "rank_in_cluster": 17}

>  <energy>  (35) 
-8.54

>  <cluster_rmsd>  (35) 
1.76

>  <cluster>  (35) 
3

$$$$

     RDKit          3D

 61 64  0  0  1  0  0  0  0  0999 V2000
  135.6480   76.8190  222.7590 C   0  0  0  0  0  0  0  0  0  0  0  0
  136.6050   75.7020  222.3370 C   0  0  1  0  0  0  0  0  0  0  0  0
  137.9510   76.0610  222.7440 N   0  0  0  0  0  0  0  0  0  0  0  0
  138.6510   77.0450  221.9940 C   0  0  0  0  0  0  0  0  0  0  0  0
  138.1100   77.5890  220.9980 O   0  0  0  0  0  0  0  0  0  0  0  0
  140.0310   77.3770  222.4530 C   0  0  2  0  0  0  0  0  0  0  0  0
  140.2180   78.8340  222.6660 C   0  0  0  0  0  0  0  0  0  0  0  0
  140.1540   79.6730  221.4050 C   0  0  0  0  0  0  0  0  0  0  0  0
  140.8940   78.9910  220.2620 C   0  0  0  0  0  0  0  0  0  0  0  0
  141.8230   77.9720  220.8860 C   0  0  0  0  0  0  0  0  0  0  0  0
  141.0140   76.9150  221.4380 N   0  0  0  0  0  0  0  0  0  0  0  0
  141.0210   75.5620  221.1500 C   0  0  0  0  0  0  0  0  0  0  0  0
  142.2010   75.0730  220.8210 O   0  0  0  0  0  0  0  0  0  0  0  0
  139.9780   74.5460  221.1290 C   0  0  0  0  0  0  0  0  0  0  0  0
  139.7700   73.6950  222.2390 N   0  0  0  0  0  0  0  0  0  0  0  0
  140.4000   72.4120  222.3380 C   0  0  0  0  0  0  0  0  0  0  0  0
  141.1420   72.0830  221.3850 O   0  0  0  0  0  0  0  0  0  0  0  0
  140.1750   71.5450  223.5050 C   0  0  0  0  0  0  0  0  0  0  0  0
  139.4560   70.3890  223.2960 C   0  0  0  0  0  0  0  0  0  0  0  0
  139.2510   69.5810  224.4100 C   0  0  0  0  0  0  0  0  0  0  0  0
  139.7500   69.9310  225.6620 C   0  0  0  0  0  0  0  0  0  0  0  0
  139.5310   69.1000  226.7650 C   0  0  0  0  0  0  0  0  0  0  0  0
  140.0470   69.4850  228.0060 C   0  0  0  0  0  0  0  0  0  0  0  0
  139.8580   68.7040  229.1160 F   0  0  0  0  0  0  0  0  0  0  0  0
  140.7630   70.6620  228.1440 C   0  0  0  0  0  0  0  0  0  0  0  0
  140.9770   71.4850  227.0370 C   0  0  0  0  0  0  0  0  0  0  0  0
  140.4640   71.1050  225.8010 C   0  0  0  0  0  0  0  0  0  0  0  0
  140.6580   71.8840  224.7170 N   0  0  0  0  0  0  0  0  0  0  0  0
  136.1800   74.4860  223.1160 C   0  0  0  0  0  0  0  0  0  0  0  0
  136.5730   73.2330  222.7130 C   0  0  0  0  0  0  0  0  0  0  0  0
  136.2180   72.0870  223.3790 C   0  0  0  0  0  0  0  0  0  0  0  0
  135.4230   72.2480  224.5090 C   0  0  0  0  0  0  0  0  0  0  0  0
  135.0160   73.5000  224.9330 C   0  0  0  0  0  0  0  0  0  0  0  0
  135.3920   74.6530  224.2350 C   0  0  0  0  0  0  0  0  0  0  0  0
  135.6048   76.8695  223.8570 H   0  0  0  0  0  0  0  0  0  0  0  0
  136.0077   77.7796  222.3617 H   0  0  0  0  0  0  0  0  0  0  0  0
  134.6436   76.6109  222.3617 H   0  0  0  0  0  0  0  0  0  0  0  0
  136.5850   75.5305  221.2506 H   0  0  0  0  0  0  0  0  0  0  0  0
  138.3690   75.5950  223.5670 H   0  0  0  0  0  0  0  0  0  0  0  0
  140.1876   76.8677  223.4153 H   0  0  0  0  0  0  0  0  0  0  0  0
  139.4310   79.1838  223.3503 H   0  0  0  0  0  0  0  0  0  0  0  0
  141.2327   78.9605  223.0716 H   0  0  0  0  0  0  0  0  0  0  0  0
  139.1012   79.8144  221.1192 H   0  0  0  0  0  0  0  0  0  0  0  0
  140.6312   80.6440  221.6036 H   0  0  0  0  0  0  0  0  0  0  0  0
  140.1783   78.4907  219.5931 H   0  0  0  0  0  0  0  0  0  0  0  0
  141.4569   79.7234  219.6647 H   0  0  0  0  0  0  0  0  0  0  0  0
  142.4991   77.5642  220.1201 H   0  0  0  0  0  0  0  0  0  0  0  0
  142.4317   78.4400  221.6737 H   0  0  0  0  0  0  0  0  0  0  0  0
  139.0289   75.0751  220.9579 H   0  0  0  0  0  0  0  0  0  0  0  0
  140.3318   73.8510  220.3533 H   0  0  0  0  0  0  0  0  0  0  0  0
  139.1450   73.9310  223.0650 H   0  0  0  0  0  0  0  0  0  0  0  0
  139.0655   70.1195  222.3036 H   0  0  0  0  0  0  0  0  0  0  0  0
  138.6826   68.6457  224.2993 H   0  0  0  0  0  0  0  0  0  0  0  0
  138.9646   68.1630  226.6585 H   0  0  0  0  0  0  0  0  0  0  0  0
  141.1638   70.9490  229.1274 H   0  0  0  0  0  0  0  0  0  0  0  0
  141.5440   72.4219  227.1407 H   0  0  0  0  0  0  0  0  0  0  0  0
  137.2015   73.1442  221.8146 H   0  0  0  0  0  0  0  0  0  0  0  0
  136.5448   71.0937  223.0374 H   0  0  0  0  0  0  0  0  0  0  0  0
  135.1111   71.3598  225.0781 H   0  0  0  0  0  0  0  0  0  0  0  0
  134.3879   73.5906  225.8315 H   0  0  0  0  0  0  0  0  0  0  0  0
  135.0719   75.6521  224.5656 H   0  0  0  0  0  0  0  0  0  0  0  0
  1  2  1  0
  2  3  1  0
  3  4  1  0
  4  5  2  0
  4  6  1  0
  6  7  1  0
  7  8  1  0
  8  9  1  0
  9 10  1  0
 10 11  1  0
 11 12  1  0
 12 13  2  0
 12 14  1  0
 14 15  1  0
 15 16  1  0
 16 17  2  0
 16 18  1  0
 18 19  2  0
 19 20  1  0
 20 21  2  0
 21 22  1  0
 22 23  2  0
 23 24  1  0
 23 25  1  0
 25 26  2  0
 26 27  1  0
 27 28  2  0
  2 29  1  0
 29 30  2  0
 30 31  1  0
 31 32  2  0
 32 33  1  0
 33 34  2  0
 11  6  1  0
 28 18  1  0
 34 29  1  0
 27 21  1  0
  1 35  1  0
  1 36  1  0
  1 37  1  0
  2 38  1  6
  3 39  1  0
  6 40  1  1
  7 41  1  0
  7 42  1  0
  8 43  1  0
  8 44  1  0
  9 45  1  0
  9 46  1  0
 10 47  1  0
 10 48  1  0
 14 49  1  0
 14 50  1  0
 15 51  1  0
 19 52  1  0
 20 53  1  0
 22 54  1  0
 25 55  1  0
 26 56  1  0
 30 57  1  0
 31 58  1  0
 32 59  1  0
 33 60  1  0
 34 61  1  0
M  END
>  <smiles>  (36) 
C[C@@H](NC(=O)C1CCCCN1C(=O)CNC(=O)c1ccc2cc(F)ccc2n1)c1ccccc1

>  <score_type>  (36) 
oracle

>  <origin>  (36) 
autodockgpu

>  <m_score__min__energy>  (36) 
-9.4299999999999997

>  <m_primary>  (36) 
energy

>  <rmsd>  (36) 
5.497239663533271

>  <m_score__min__rmsd>  (36) 
5.497239663533271

>  <meeko>  (36) 
{"free_energy": -8.19, "intermolecular_energy": -10.28, "internal_energy": -2.36, "cluster_size": 1, "cluster_id": 5, "rank_in_cluster": 1}

>  <energy>  (36) 
-8.42

>  <cluster_rmsd>  (36) 
0.0

>  <cluster>  (36) 
4

$$$$

     RDKit          3D

 61 64  0  0  1  0  0  0  0  0999 V2000
  138.7290   75.8590  222.3430 C   0  0  0  0  0  0  0  0  0  0  0  0
  139.8400   75.5870  221.3270 C   0  0  1  0  0  0  0  0  0  0  0  0
  140.9590   76.4670  221.6110 N   0  0  0  0  0  0  0  0  0  0  0  0
  140.8250   77.8530  221.3270 C   0  0  0  0  0  0  0  0  0  0  0  0
  139.7570   78.3030  220.8400 O   0  0  0  0  0  0  0  0  0  0  0  0
  142.0040   78.7130  221.6360 C   0  0  2  0  0  0  0  0  0  0  0  0
  142.1510   78.9650  223.0910 C   0  0  0  0  0  0  0  0  0  0  0  0
  141.0480   79.8050  223.7050 C   0  0  0  0  0  0  0  0  0  0  0  0
  140.6740   80.9610  222.7870 C   0  0  0  0  0  0  0  0  0  0  0  0
  141.8290   81.1530  221.8280 C   0  0  0  0  0  0  0  0  0  0  0  0
  141.8590   80.0190  220.9390 N   0  0  0  0  0  0  0  0  0  0  0  0
  141.7640   79.9810  219.5610 C   0  0  0  0  0  0  0  0  0  0  0  0
  141.2920   81.0820  219.0080 O   0  0  0  0  0  0  0  0  0  0  0  0
  142.0780   78.9590  218.5710 C   0  0  0  0  0  0  0  0  0  0  0  0
  142.8650   77.8360  218.9110 N   0  0  0  0  0  0  0  0  0  0  0  0
  142.4460   76.4980  218.6140 C   0  0  0  0  0  0  0  0  0  0  0  0
  141.3390   76.3790  218.0390 O   0  0  0  0  0  0  0  0  0  0  0  0
  143.2840   75.3430  218.9710 C   0  0  0  0  0  0  0  0  0  0  0  0
  144.0600   75.4610  220.1040 C   0  0  0  0  0  0  0  0  0  0  0  0
  144.8480   74.3610  220.4270 C   0  0  0  0  0  0  0  0  0  0  0  0
  144.8440   73.2100  219.6440 C   0  0  0  0  0  0  0  0  0  0  0  0
  145.6440   72.1180  219.9920 C   0  0  0  0  0  0  0  0  0  0  0  0
  145.6140   70.9800  219.1810 C   0  0  0  0  0  0  0  0  0  0  0  0
  146.3820   69.8840  219.4810 F   0  0  0  0  0  0  0  0  0  0  0  0
  144.8090   70.9300  218.0550 C   0  0  0  0  0  0  0  0  0  0  0  0
  144.0130   72.0250  217.7160 C   0  0  0  0  0  0  0  0  0  0  0  0
  144.0410   73.1590  218.5210 C   0  0  0  0  0  0  0  0  0  0  0  0
  143.2800   74.2300  218.2130 N   0  0  0  0  0  0  0  0  0  0  0  0
  140.2760   74.1670  221.5700 C   0  0  0  0  0  0  0  0  0  0  0  0
  141.4480   73.7000  221.0270 C   0  0  0  0  0  0  0  0  0  0  0  0
  141.8990   72.4160  221.2120 C   0  0  0  0  0  0  0  0  0  0  0  0
  141.1020   71.5850  221.9910 C   0  0  0  0  0  0  0  0  0  0  0  0
  139.9180   72.0350  222.5480 C   0  0  0  0  0  0  0  0  0  0  0  0
  139.4800   73.3480  222.3440 C   0  0  0  0  0  0  0  0  0  0  0  0
  139.1317   75.7604  223.3619 H   0  0  0  0  0  0  0  0  0  0  0  0
  138.3418   76.8785  222.1988 H   0  0  0  0  0  0  0  0  0  0  0  0
  137.9147   75.1337  222.1988 H   0  0  0  0  0  0  0  0  0  0  0  0
  139.5014   75.7484  220.2929 H   0  0  0  0  0  0  0  0  0  0  0  0
  141.8240   76.0670  222.0110 H   0  0  0  0  0  0  0  0  0  0  0  0
  142.9003   78.1775  221.2897 H   0  0  0  0  0  0  0  0  0  0  0  0
  142.1687   77.9935  223.6066 H   0  0  0  0  0  0  0  0  0  0  0  0
  143.0818   79.5382  223.2137 H   0  0  0  0  0  0  0  0  0  0  0  0
  140.1624   79.1734  223.8687 H   0  0  0  0  0  0  0  0  0  0  0  0
  141.4075   80.2154  224.6602 H   0  0  0  0  0  0  0  0  0  0  0  0
  139.7563   80.7202  222.2304 H   0  0  0  0  0  0  0  0  0  0  0  0
  140.4861   81.8777  223.3652 H   0  0  0  0  0  0  0  0  0  0  0  0
  141.6851   82.0776  221.2498 H   0  0  0  0  0  0  0  0  0  0  0  0
  142.7769   81.2324  222.3804 H   0  0  0  0  0  0  0  0  0  0  0  0
  141.1158   78.5686  218.2080 H   0  0  0  0  0  0  0  0  0  0  0  0
  142.7204   79.4992  217.8600 H   0  0  0  0  0  0  0  0  0  0  0  0
  143.8050   77.8910  219.4040 H   0  0  0  0  0  0  0  0  0  0  0  0
  144.0564   76.3735  220.7182 H   0  0  0  0  0  0  0  0  0  0  0  0
  145.4882   74.4016  221.3206 H   0  0  0  0  0  0  0  0  0  0  0  0
  146.2841   72.1534  220.8859 H   0  0  0  0  0  0  0  0  0  0  0  0
  144.7971   70.0266  217.4275 H   0  0  0  0  0  0  0  0  0  0  0  0
  143.3713   71.9917  216.8232 H   0  0  0  0  0  0  0  0  0  0  0  0
  142.0531   74.3858  220.4159 H   0  0  0  0  0  0  0  0  0  0  0  0
  142.8413   72.0637  220.7672 H   0  0  0  0  0  0  0  0  0  0  0  0
  141.4196   70.5469  222.1685 H   0  0  0  0  0  0  0  0  0  0  0  0
  139.3123   71.3505  223.1601 H   0  0  0  0  0  0  0  0  0  0  0  0
  138.5394   73.7124  222.7828 H   0  0  0  0  0  0  0  0  0  0  0  0
  1  2  1  0
  2  3  1  0
  3  4  1  0
  4  5  2  0
  4  6  1  0
  6  7  1  0
  7  8  1  0
  8  9  1  0
  9 10  1  0
 10 11  1  0
 11 12  1  0
 12 13  2  0
 12 14  1  0
 14 15  1  0
 15 16  1  0
 16 17  2  0
 16 18  1  0
 18 19  2  0
 19 20  1  0
 20 21  2  0
 21 22  1  0
 22 23  2  0
 23 24  1  0
 23 25  1  0
 25 26  2  0
 26 27  1  0
 27 28  2  0
  2 29  1  0
 29 30  2  0
 30 31  1  0
 31 32  2  0
 32 33  1  0
 33 34  2  0
 11  6  1  0
 28 18  1  0
 34 29  1  0
 27 21  1  0
  1 35  1  0
  1 36  1  0
  1 37  1  0
  2 38  1  6
  3 39  1  0
  6 40  1  6
  7 41  1  0
  7 42  1  0
  8 43  1  0
  8 44  1  0
  9 45  1  0
  9 46  1  0
 10 47  1  0
 10 48  1  0
 14 49  1  0
 14 50  1  0
 15 51  1  0
 19 52  1  0
 20 53  1  0
 22 54  1  0
 25 55  1  0
 26 56  1  0
 30 57  1  0
 31 58  1  0
 32 59  1  0
 33 60  1  0
 34 61  1  0
M  END
>  <smiles>  (37) 
C[C@@H](NC(=O)C1CCCCN1C(=O)CNC(=O)c1ccc2cc(F)ccc2n1)c1ccccc1

>  <score_type>  (37) 
oracle

>  <origin>  (37) 
autodockgpu

>  <m_score__min__energy>  (37) 
-9.4299999999999997

>  <m_primary>  (37) 
energy

>  <rmsd>  (37) 
7.918943686028428

>  <m_score__min__rmsd>  (37) 
7.918943686028428

>  <meeko>  (37) 
{"free_energy": -7.41, "intermolecular_energy": -9.5, "internal_energy": -3.1, "cluster_size": 1, "cluster_id": 10, "rank_in_cluster": 1}

>  <energy>  (37) 
-8.38

>  <cluster_rmsd>  (37) 
0.89

>  <cluster>  (37) 
4

$$$$

     RDKit          3D

 61 64  0  0  1  0  0  0  0  0999 V2000
  141.8220   78.6600  219.3730 C   0  0  0  0  0  0  0  0  0  0  0  0
  141.2270   77.9500  220.5910 C   0  0  1  0  0  0  0  0  0  0  0  0
  141.8490   76.6460  220.7230 N   0  0  0  0  0  0  0  0  0  0  0  0
  141.0480   75.4860  220.5360 C   0  0  0  0  0  0  0  0  0  0  0  0
  139.8260   75.5950  220.2620 O   0  0  0  0  0  0  0  0  0  0  0  0
  141.7350   74.1710  220.6830 C   0  0  2  0  0  0  0  0  0  0  0  0
  143.2030   74.3170  220.8450 C   0  0  0  0  0  0  0  0  0  0  0  0
  143.9260   74.8530  219.6260 C   0  0  0  0  0  0  0  0  0  0  0  0
  143.3810   74.2210  218.3520 C   0  0  0  0  0  0  0  0  0  0  0  0
  142.6600   72.9550  218.7620 C   0  0  0  0  0  0  0  0  0  0  0  0
  141.4700   73.3370  219.4800 N   0  0  0  0  0  0  0  0  0  0  0  0
  140.1470   73.0490  219.2020 C   0  0  0  0  0  0  0  0  0  0  0  0
  139.8120   73.1580  217.9320 O   0  0  0  0  0  0  0  0  0  0  0  0
  139.0220   72.6460  220.0360 C   0  0  0  0  0  0  0  0  0  0  0  0
  139.2100   71.7960  221.1490 N   0  0  0  0  0  0  0  0  0  0  0  0
  139.5570   72.3050  222.4420 C   0  0  0  0  0  0  0  0  0  0  0  0
  139.6890   73.5470  222.5320 O   0  0  0  0  0  0  0  0  0  0  0  0
  139.7410   71.4020  223.5890 C   0  0  0  0  0  0  0  0  0  0  0  0
  139.3760   70.0850  223.4120 C   0  0  0  0  0  0  0  0  0  0  0  0
  139.5570   69.2450  224.5050 C   0  0  0  0  0  0  0  0  0  0  0  0
  140.0780   69.7180  225.7070 C   0  0  0  0  0  0  0  0  0  0  0  0
  140.2500   68.8510  226.7900 C   0  0  0  0  0  0  0  0  0  0  0  0
  140.7750   69.3630  227.9810 C   0  0  0  0  0  0  0  0  0  0  0  0
  140.9610   68.5530  229.0700 F   0  0  0  0  0  0  0  0  0  0  0  0
  141.1210   70.7000  228.0880 C   0  0  0  0  0  0  0  0  0  0  0  0
  140.9470   71.5570  227.0010 C   0  0  0  0  0  0  0  0  0  0  0  0
  140.4230   71.0500  225.8150 C   0  0  0  0  0  0  0  0  0  0  0  0
  140.2460   71.8600  224.7510 N   0  0  0  0  0  0  0  0  0  0  0  0
  141.6160   78.7870  221.7800 C   0  0  0  0  0  0  0  0  0  0  0  0
  141.4400   78.3030  223.0540 C   0  0  0  0  0  0  0  0  0  0  0  0
  141.7750   79.0170  224.1780 C   0  0  0  0  0  0  0  0  0  0  0  0
  142.3120   80.2830  223.9710 C   0  0  0  0  0  0  0  0  0  0  0  0
  142.4970   80.7890  222.6970 C   0  0  0  0  0  0  0  0  0  0  0  0
  142.1480   80.0410  221.5680 C   0  0  0  0  0  0  0  0  0  0  0  0
  142.4948   79.4628  219.7090 H   0  0  0  0  0  0  0  0  0  0  0  0
  142.3879   77.9369  218.7672 H   0  0  0  0  0  0  0  0  0  0  0  0
  141.0111   79.0907  218.7672 H   0  0  0  0  0  0  0  0  0  0  0  0
  140.1373   77.8272  220.5049 H   0  0  0  0  0  0  0  0  0  0  0  0
  142.8560   76.5900  220.9490 H   0  0  0  0  0  0  0  0  0  0  0  0
  141.3368   73.6937  221.5905 H   0  0  0  0  0  0  0  0  0  0  0  0
  143.3882   75.0052  221.6829 H   0  0  0  0  0  0  0  0  0  0  0  0
  143.5977   73.3052  221.0195 H   0  0  0  0  0  0  0  0  0  0  0  0
  143.7879   75.9431  219.5753 H   0  0  0  0  0  0  0  0  0  0  0  0
  144.9943   74.6057  219.7129 H   0  0  0  0  0  0  0  0  0  0  0  0
  142.6818   74.9109  217.8568 H   0  0  0  0  0  0  0  0  0  0  0  0
  144.1933   73.9995  217.6441 H   0  0  0  0  0  0  0  0  0  0  0  0
  142.3874   72.3739  217.8687 H   0  0  0  0  0  0  0  0  0  0  0  0
  143.3080   72.3328  219.3968 H   0  0  0  0  0  0  0  0  0  0  0  0
  138.5712   73.5721  220.4221 H   0  0  0  0  0  0  0  0  0  0  0  0
  138.4253   72.0231  219.3534 H   0  0  0  0  0  0  0  0  0  0  0  0
  139.1140   70.7380  221.1160 H   0  0  0  0  0  0  0  0  0  0  0  0
  138.9647   69.7190  222.4597 H   0  0  0  0  0  0  0  0  0  0  0  0
  139.2827   68.1833  224.4186 H   0  0  0  0  0  0  0  0  0  0  0  0
  139.9781   67.7883  226.7072 H   0  0  0  0  0  0  0  0  0  0  0  0
  141.5336   71.0866  229.0315 H   0  0  0  0  0  0  0  0  0  0  0  0
  141.2203   72.6196  227.0800 H   0  0  0  0  0  0  0  0  0  0  0  0
  141.0112   77.2978  223.1791 H   0  0  0  0  0  0  0  0  0  0  0  0
  141.6265   78.6092  225.1887 H   0  0  0  0  0  0  0  0  0  0  0  0
  142.5959   80.8955  224.8395 H   0  0  0  0  0  0  0  0  0  0  0  0
  142.9249   81.7944  222.5700 H   0  0  0  0  0  0  0  0  0  0  0  0
  142.2922   80.4372  220.5520 H   0  0  0  0  0  0  0  0  0  0  0  0
  1  2  1  0
  2  3  1  0
  3  4  1  0
  4  5  2  0
  4  6  1  0
  6  7  1  0
  7  8  1  0
  8  9  1  0
  9 10  1  0
 10 11  1  0
 11 12  1  0
 12 13  2  0
 12 14  1  0
 14 15  1  0
 15 16  1  0
 16 17  2  0
 16 18  1  0
 18 19  2  0
 19 20  1  0
 20 21  2  0
 21 22  1  0
 22 23  2  0
 23 24  1  0
 23 25  1  0
 25 26  2  0
 26 27  1  0
 27 28  2  0
  2 29  1  0
 29 30  2  0
 30 31  1  0
 31 32  2  0
 32 33  1  0
 33 34  2  0
 11  6  1  0
 28 18  1  0
 34 29  1  0
 27 21  1  0
  1 35  1  0
  1 36  1  0
  1 37  1  0
  2 38  1  6
  3 39  1  0
  6 40  1  1
  7 41  1  0
  7 42  1  0
  8 43  1  0
  8 44  1  0
  9 45  1  0
  9 46  1  0
 10 47  1  0
 10 48  1  0
 14 49  1  0
 14 50  1  0
 15 51  1  0
 19 52  1  0
 20 53  1  0
 22 54  1  0
 25 55  1  0
 26 56  1  0
 30 57  1  0
 31 58  1  0
 32 59  1  0
 33 60  1  0
 34 61  1  0
M  END
>  <smiles>  (38) 
C[C@@H](NC(=O)C1CCCCN1C(=O)CNC(=O)c1ccc2cc(F)ccc2n1)c1ccccc1

>  <score_type>  (38) 
oracle

>  <origin>  (38) 
autodockgpu

>  <m_score__min__energy>  (38) 
-9.4299999999999997

>  <m_primary>  (38) 
energy

>  <rmsd>  (38) 
3.0944619087492677

>  <m_score__min__rmsd>  (38) 
3.0944619087492677

>  <meeko>  (38) 
{"free_energy": -9.03, "intermolecular_energy": -11.11, "internal_energy": -1.95, "cluster_size": 32, "cluster_id": 1, "rank_in_cluster": 8}

>  <energy>  (38) 
-8.19

>  <cluster_rmsd>  (38) 
0.0

>  <cluster>  (38) 
5

$$$$

     RDKit          3D

 61 64  0  0  1  0  0  0  0  0999 V2000
  139.3070   77.5250  222.1790 C   0  0  0  0  0  0  0  0  0  0  0  0
  140.7160   77.2590  222.7120 C   0  0  1  0  0  0  0  0  0  0  0  0
  141.4400   76.4580  221.7420 N   0  0  0  0  0  0  0  0  0  0  0  0
  140.9710   75.1470  221.4540 C   0  0  0  0  0  0  0  0  0  0  0  0
  139.9500   74.6960  222.0320 O   0  0  0  0  0  0  0  0  0  0  0  0
  141.7510   74.3660  220.4510 C   0  0  2  0  0  0  0  0  0  0  0  0
  143.0340   75.0230  220.0980 C   0  0  0  0  0  0  0  0  0  0  0  0
  142.8900   76.3350  219.3520 C   0  0  0  0  0  0  0  0  0  0  0  0
  141.7910   76.2430  218.3010 C   0  0  0  0  0  0  0  0  0  0  0  0
  141.5560   74.7700  218.0390 C   0  0  0  0  0  0  0  0  0  0  0  0
  140.9430   74.2040  219.2140 N   0  0  0  0  0  0  0  0  0  0  0  0
  139.7290   73.5560  219.3440 C   0  0  0  0  0  0  0  0  0  0  0  0
  138.7160   74.1530  218.7450 O   0  0  0  0  0  0  0  0  0  0  0  0
  139.3240   72.3310  220.0200 C   0  0  0  0  0  0  0  0  0  0  0  0
  139.7010   72.0810  221.3590 N   0  0  0  0  0  0  0  0  0  0  0  0
  139.3330   70.8740  222.0380 C   0  0  0  0  0  0  0  0  0  0  0  0
  138.6530   70.0530  221.3800 O   0  0  0  0  0  0  0  0  0  0  0  0
  139.7420   70.6320  223.4300 C   0  0  0  0  0  0  0  0  0  0  0  0
  140.3440   71.6780  224.0960 C   0  0  0  0  0  0  0  0  0  0  0  0
  140.7250   71.4320  225.4100 C   0  0  0  0  0  0  0  0  0  0  0  0
  140.5060   70.1940  226.0110 C   0  0  0  0  0  0  0  0  0  0  0  0
  140.8980   69.9740  227.3340 C   0  0  0  0  0  0  0  0  0  0  0  0
  140.6630   68.7190  227.9030 C   0  0  0  0  0  0  0  0  0  0  0  0
  141.0300   68.4550  229.1970 F   0  0  0  0  0  0  0  0  0  0  0  0
  140.0520   67.7120  227.1750 C   0  0  0  0  0  0  0  0  0  0  0  0
  139.6630   67.9410  225.8540 C   0  0  0  0  0  0  0  0  0  0  0  0
  139.8970   69.1900  225.2860 C   0  0  0  0  0  0  0  0  0  0  0  0
  139.5300   69.4340  224.0110 N   0  0  0  0  0  0  0  0  0  0  0  0
  141.3770   78.6080  222.8050 C   0  0  0  0  0  0  0  0  0  0  0  0
  141.5180   79.3890  221.6830 C   0  0  0  0  0  0  0  0  0  0  0  0
  142.1120   80.6270  221.7030 C   0  0  0  0  0  0  0  0  0  0  0  0
  142.5760   81.0720  222.9360 C   0  0  0  0  0  0  0  0  0  0  0  0
  142.4430   80.3020  224.0780 C   0  0  0  0  0  0  0  0  0  0  0  0
  141.8340   79.0430  224.0310 C   0  0  0  0  0  0  0  0  0  0  0  0
  138.6142   77.6558  223.0233 H   0  0  0  0  0  0  0  0  0  0  0  0
  139.3134   78.4378  221.5652 H   0  0  0  0  0  0  0  0  0  0  0  0
  138.9802   76.6727  221.5652 H   0  0  0  0  0  0  0  0  0  0  0  0
  140.6989   76.7343  223.6787 H   0  0  0  0  0  0  0  0  0  0  0  0
  142.2760   76.8570  221.2850 H   0  0  0  0  0  0  0  0  0  0  0  0
  141.9810   73.3901  220.9035 H   0  0  0  0  0  0  0  0  0  0  0  0
  143.5870   75.2171  221.0289 H   0  0  0  0  0  0  0  0  0  0  0  0
  143.5584   74.3352  219.4183 H   0  0  0  0  0  0  0  0  0  0  0  0
  142.6382   77.1311  220.0681 H   0  0  0  0  0  0  0  0  0  0  0  0
  143.8415   76.5598  218.8479 H   0  0  0  0  0  0  0  0  0  0  0  0
  140.8693   76.7125  218.6752 H   0  0  0  0  0  0  0  0  0  0  0  0
  142.0835   76.7656  217.3783 H   0  0  0  0  0  0  0  0  0  0  0  0
  140.8893   74.6460  217.1729 H   0  0  0  0  0  0  0  0  0  0  0  0
  142.5074   74.2628  217.8208 H   0  0  0  0  0  0  0  0  0  0  0  0
  138.2245   72.3086  219.9950 H   0  0  0  0  0  0  0  0  0  0  0  0
  139.8720   71.5553  219.4650 H   0  0  0  0  0  0  0  0  0  0  0  0
  140.2720   72.7510  221.9550 H   0  0  0  0  0  0  0  0  0  0  0  0
  140.5134   72.6525  223.6147 H   0  0  0  0  0  0  0  0  0  0  0  0
  141.2101   72.2323  225.9882 H   0  0  0  0  0  0  0  0  0  0  0  0
  141.3818   70.7723  227.9160 H   0  0  0  0  0  0  0  0  0  0  0  0
  139.8729   66.7304  227.6381 H   0  0  0  0  0  0  0  0  0  0  0  0
  139.1780   67.1451  225.2698 H   0  0  0  0  0  0  0  0  0  0  0  0
  141.1376   79.0049  220.7250 H   0  0  0  0  0  0  0  0  0  0  0  0
  142.2153   81.2345  220.7918 H   0  0  0  0  0  0  0  0  0  0  0  0
  143.0594   82.0577  223.0051 H   0  0  0  0  0  0  0  0  0  0  0  0
  142.8216   80.6853  225.0370 H   0  0  0  0  0  0  0  0  0  0  0  0
  141.7244   78.4258  224.9349 H   0  0  0  0  0  0  0  0  0  0  0  0
  1  2  1  0
  2  3  1  0
  3  4  1  0
  4  5  2  0
  4  6  1  0
  6  7  1  0
  7  8  1  0
  8  9  1  0
  9 10  1  0
 10 11  1  0
 11 12  1  0
 12 13  2  0
 12 14  1  0
 14 15  1  0
 15 16  1  0
 16 17  2  0
 16 18  1  0
 18 19  2  0
 19 20  1  0
 20 21  2  0
 21 22  1  0
 22 23  2  0
 23 24  1  0
 23 25  1  0
 25 26  2  0
 26 27  1  0
 27 28  2  0
  2 29  1  0
 29 30  2  0
 30 31  1  0
 31 32  2  0
 32 33  1  0
 33 34  2  0
 11  6  1  0
 28 18  1  0
 34 29  1  0
 27 21  1  0
  1 35  1  0
  1 36  1  0
  1 37  1  0
  2 38  1  1
  3 39  1  0
  6 40  1  1
  7 41  1  0
  7 42  1  0
  8 43  1  0
  8 44  1  0
  9 45  1  0
  9 46  1  0
 10 47  1  0
 10 48  1  0
 14 49  1  0
 14 50  1  0
 15 51  1  0
 19 52  1  0
 20 53  1  0
 22 54  1  0
 25 55  1  0
 26 56  1  0
 30 57  1  0
 31 58  1  0
 32 59  1  0
 33 60  1  0
 34 61  1  0
M  END
>  <smiles>  (39) 
C[C@@H](NC(=O)C1CCCCN1C(=O)CNC(=O)c1ccc2cc(F)ccc2n1)c1ccccc1

>  <score_type>  (39) 
oracle

>  <origin>  (39) 
autodockgpu

>  <m_score__min__energy>  (39) 
-9.4299999999999997

>  <m_primary>  (39) 
energy

>  <rmsd>  (39) 
3.44800379141278

>  <m_score__min__rmsd>  (39) 
3.44800379141278

>  <meeko>  (39) 
{"free_energy": -9.13, "intermolecular_energy": -11.22, "internal_energy": -2.4, "cluster_size": 32, "cluster_id": 1, "rank_in_cluster": 7}

>  <energy>  (39) 
-7.7

>  <cluster_rmsd>  (39) 
0.0

>  <cluster>  (39) 
6

$$$$

     RDKit          3D

 61 64  0  0  1  0  0  0  0  0999 V2000
  139.1540   77.6740  222.0060 C   0  0  0  0  0  0  0  0  0  0  0  0
  140.5010   77.4750  222.7040 C   0  0  1  0  0  0  0  0  0  0  0  0
  141.4380   76.9020  221.7560 N   0  0  0  0  0  0  0  0  0  0  0  0
  141.6350   77.5580  220.5100 C   0  0  0  0  0  0  0  0  0  0  0  0
  141.0060   78.6130  220.2400 O   0  0  0  0  0  0  0  0  0  0  0  0
  142.6090   76.9290  219.5720 C   0  0  2  0  0  0  0  0  0  0  0  0
  142.8420   77.7570  218.3630 C   0  0  0  0  0  0  0  0  0  0  0  0
  141.6440   77.8910  217.4440 C   0  0  0  0  0  0  0  0  0  0  0  0
  140.9200   76.5590  217.3000 C   0  0  0  0  0  0  0  0  0  0  0  0
  141.8960   75.4810  217.7240 C   0  0  0  0  0  0  0  0  0  0  0  0
  142.0960   75.6000  219.1460 N   0  0  0  0  0  0  0  0  0  0  0  0
  141.8710   74.6710  220.1440 C   0  0  0  0  0  0  0  0  0  0  0  0
  142.9060   74.4390  220.9280 O   0  0  0  0  0  0  0  0  0  0  0  0
  140.7080   73.8750  220.5180 C   0  0  0  0  0  0  0  0  0  0  0  0
  140.7000   73.1160  221.7100 N   0  0  0  0  0  0  0  0  0  0  0  0
  139.6740   72.1570  221.9900 C   0  0  0  0  0  0  0  0  0  0  0  0
  138.7800   72.0300  221.1210 O   0  0  0  0  0  0  0  0  0  0  0  0
  139.6880   71.3720  223.2350 C   0  0  0  0  0  0  0  0  0  0  0  0
  139.0100   70.1720  223.2250 C   0  0  0  0  0  0  0  0  0  0  0  0
  139.0330   69.4440  224.4100 C   0  0  0  0  0  0  0  0  0  0  0  0
  139.7060   69.9100  225.5360 C   0  0  0  0  0  0  0  0  0  0  0  0
  139.7130   69.1570  226.7140 C   0  0  0  0  0  0  0  0  0  0  0  0
  140.3990   69.6580  227.8250 C   0  0  0  0  0  0  0  0  0  0  0  0
  140.4350   68.9560  229.0020 F   0  0  0  0  0  0  0  0  0  0  0  0
  141.0600   70.8730  227.7640 C   0  0  0  0  0  0  0  0  0  0  0  0
  141.0470   71.6180  226.5830 C   0  0  0  0  0  0  0  0  0  0  0  0
  140.3650   71.1220  225.4760 C   0  0  0  0  0  0  0  0  0  0  0  0
  140.3390   71.8240  224.3250 N   0  0  0  0  0  0  0  0  0  0  0  0
  140.9760   78.8550  223.0720 C   0  0  0  0  0  0  0  0  0  0  0  0
  140.1090   79.9200  223.0300 C   0  0  0  0  0  0  0  0  0  0  0  0
  140.4810   81.2010  223.3530 C   0  0  0  0  0  0  0  0  0  0  0  0
  141.8060   81.3840  223.7340 C   0  0  0  0  0  0  0  0  0  0  0  0
  142.6960   80.3250  223.7820 C   0  0  0  0  0  0  0  0  0  0  0  0
  142.2910   79.0290  223.4480 C   0  0  0  0  0  0  0  0  0  0  0  0
  138.3632   77.7908  222.7616 H   0  0  0  0  0  0  0  0  0  0  0  0
  139.1965   78.5756  221.3773 H   0  0  0  0  0  0  0  0  0  0  0  0
  138.9340   76.7986  221.3773 H   0  0  0  0  0  0  0  0  0  0  0  0
  140.4189   76.8148  223.5800 H   0  0  0  0  0  0  0  0  0  0  0  0
  141.9400   76.0340  222.0070 H   0  0  0  0  0  0  0  0  0  0  0  0
  143.5643   76.8313  220.1085 H   0  0  0  0  0  0  0  0  0  0  0  0
  143.1368   78.7650  218.6902 H   0  0  0  0  0  0  0  0  0  0  0  0
  143.6223   77.2439  217.7818 H   0  0  0  0  0  0  0  0  0  0  0  0
  140.9502   78.6350  217.8624 H   0  0  0  0  0  0  0  0  0  0  0  0
  141.9954   78.2099  216.4516 H   0  0  0  0  0  0  0  0  0  0  0  0
  140.0305   76.5399  217.9468 H   0  0  0  0  0  0  0  0  0  0  0  0
  140.5851   76.4023  216.2640 H   0  0  0  0  0  0  0  0  0  0  0  0
  141.4841   74.4892  217.4861 H   0  0  0  0  0  0  0  0  0  0  0  0
  142.8513   75.5976  217.1913 H   0  0  0  0  0  0  0  0  0  0  0  0
  139.8599   74.5723  220.5852 H   0  0  0  0  0  0  0  0  0  0  0  0
  140.6828   73.1006  219.7372 H   0  0  0  0  0  0  0  0  0  0  0  0
  141.4330   73.1960  222.4750 H   0  0  0  0  0  0  0  0  0  0  0  0
  138.4809   69.8106  222.3309 H   0  0  0  0  0  0  0  0  0  0  0  0
  138.5078   68.4787  224.4585 H   0  0  0  0  0  0  0  0  0  0  0  0
  139.1899   68.1907  226.7659 H   0  0  0  0  0  0  0  0  0  0  0  0
  141.5959   71.2519  228.6468 H   0  0  0  0  0  0  0  0  0  0  0  0
  141.5692   72.5846  226.5284 H   0  0  0  0  0  0  0  0  0  0  0  0
  139.0685   79.7375  222.7233 H   0  0  0  0  0  0  0  0  0  0  0  0
  139.7690   82.0385  223.3127 H   0  0  0  0  0  0  0  0  0  0  0  0
  142.1542   82.3922  224.0030 H   0  0  0  0  0  0  0  0  0  0  0  0
  143.7372   80.5056  224.0874 H   0  0  0  0  0  0  0  0  0  0  0  0
  142.9929   78.1828  223.4838 H   0  0  0  0  0  0  0  0  0  0  0  0
  1  2  1  0
  2  3  1  0
  3  4  1  0
  4  5  2  0
  4  6  1  0
  6  7  1  0
  7  8  1  0
  8  9  1  0
  9 10  1  0
 10 11  1  0
 11 12  1  0
 12 13  2  0
 12 14  1  0
 14 15  1  0
 15 16  1  0
 16 17  2  0
 16 18  1  0
 18 19  2  0
 19 20  1  0
 20 21  2  0
 21 22  1  0
 22 23  2  0
 23 24  1  0
 23 25  1  0
 25 26  2  0
 26 27  1  0
 27 28  2  0
  2 29  1  0
 29 30  2  0
 30 31  1  0
 31 32  2  0
 32 33  1  0
 33 34  2  0
 11  6  1  0
 28 18  1  0
 34 29  1  0
 27 21  1  0
  1 35  1  0
  1 36  1  0
  1 37  1  0
  2 38  1  1
  3 39  1  0
  6 40  1  1
  7 41  1  0
  7 42  1  0
  8 43  1  0
  8 44  1  0
  9 45  1  0
  9 46  1  0
 10 47  1  0
 10 48  1  0
 14 49  1  0
 14 50  1  0
 15 51  1  0
 19 52  1  0
 20 53  1  0
 22 54  1  0
 25 55  1  0
 26 56  1  0
 30 57  1  0
 31 58  1  0
 32 59  1  0
 33 60  1  0
 34 61  1  0
M  END
>  <smiles>  (40) 
C[C@@H](NC(=O)C1CCCCN1C(=O)CNC(=O)c1ccc2cc(F)ccc2n1)c1ccccc1

>  <score_type>  (40) 
oracle

>  <origin>  (40) 
autodockgpu

>  <m_score__min__energy>  (40) 
-9.4299999999999997

>  <m_primary>  (40) 
energy

>  <rmsd>  (40) 
2.6849929825549665

>  <m_score__min__rmsd>  (40) 
2.6849929825549665

>  <meeko>  (40) 
{"free_energy": -8.81, "intermolecular_energy": -10.9, "internal_energy": -2.87, "cluster_size": 32, "cluster_id": 1, "rank_in_cluster": 15}

>  <energy>  (40) 
-7.53

>  <cluster_rmsd>  (40) 
1.97

>  <cluster>  (40) 
6

$$$$

     RDKit          3D

 61 64  0  0  1  0  0  0  0  0999 V2000
  142.8190   74.5000  216.9010 C   0  0  0  0  0  0  0  0  0  0  0  0
  143.2310   75.3350  218.1140 C   0  0  1  0  0  0  0  0  0  0  0  0
  142.0350   75.8050  218.7880 N   0  0  0  0  0  0  0  0  0  0  0  0
  141.9750   77.1630  219.2040 C   0  0  0  0  0  0  0  0  0  0  0  0
  142.9440   77.9370  218.9920 O   0  0  0  0  0  0  0  0  0  0  0  0
  140.7240   77.5960  219.8920 C   0  0  2  0  0  0  0  0  0  0  0  0
  140.6860   79.0610  220.1220 C   0  0  0  0  0  0  0  0  0  0  0  0
  141.7160   79.5760  221.1080 C   0  0  0  0  0  0  0  0  0  0  0  0
  141.8360   78.6410  222.3050 C   0  0  0  0  0  0  0  0  0  0  0  0
  140.5770   77.8000  222.3330 C   0  0  0  0  0  0  0  0  0  0  0  0
  140.6180   76.9050  221.2040 N   0  0  0  0  0  0  0  0  0  0  0  0
  140.5830   75.5230  221.1790 C   0  0  0  0  0  0  0  0  0  0  0  0
  141.7610   74.9420  221.0630 O   0  0  0  0  0  0  0  0  0  0  0  0
  139.4960   74.5550  221.2500 C   0  0  0  0  0  0  0  0  0  0  0  0
  139.4180   73.6280  222.3140 N   0  0  0  0  0  0  0  0  0  0  0  0
  140.3370   72.5350  222.4360 C   0  0  0  0  0  0  0  0  0  0  0  0
  141.2110   72.4440  221.5440 O   0  0  0  0  0  0  0  0  0  0  0  0
  140.2410   71.5850  223.5550 C   0  0  0  0  0  0  0  0  0  0  0  0
  139.6640   70.3620  223.2890 C   0  0  0  0  0  0  0  0  0  0  0  0
  139.5800   69.4760  224.3580 C   0  0  0  0  0  0  0  0  0  0  0  0
  140.0570   69.8160  225.6220 C   0  0  0  0  0  0  0  0  0  0  0  0
  139.9620   68.9060  226.6780 C   0  0  0  0  0  0  0  0  0  0  0  0
  140.4510   69.2820  227.9330 C   0  0  0  0  0  0  0  0  0  0  0  0
  140.3790   68.4250  229.0000 F   0  0  0  0  0  0  0  0  0  0  0  0
  141.0200   70.5290  228.1290 C   0  0  0  0  0  0  0  0  0  0  0  0
  141.1120   71.4310  227.0670 C   0  0  0  0  0  0  0  0  0  0  0  0
  140.6250   71.0590  225.8180 C   0  0  0  0  0  0  0  0  0  0  0  0
  140.7030   71.9140  224.7770 N   0  0  0  0  0  0  0  0  0  0  0  0
  143.9550   74.3880  219.0340 C   0  0  0  0  0  0  0  0  0  0  0  0
  143.9760   73.0410  218.7640 C   0  0  0  0  0  0  0  0  0  0  0  0
  144.6170   72.1280  219.5630 C   0  0  0  0  0  0  0  0  0  0  0  0
  145.2630   72.6320  220.6860 C   0  0  0  0  0  0  0  0  0  0  0  0
  145.2550   73.9850  220.9760 C   0  0  0  0  0  0  0  0  0  0  0  0
  144.5940   74.8960  220.1460 C   0  0  0  0  0  0  0  0  0  0  0  0
  142.3562   73.5620  217.2416 H   0  0  0  0  0  0  0  0  0  0  0  0
  142.0968   75.0661  216.2944 H   0  0  0  0  0  0  0  0  0  0  0  0
  143.7077   74.2712  216.2944 H   0  0  0  0  0  0  0  0  0  0  0  0
  143.8517   76.1970  217.8282 H   0  0  0  0  0  0  0  0  0  0  0  0
  141.2560   75.1450  218.9480 H   0  0  0  0  0  0  0  0  0  0  0  0
  139.8810   77.3317  219.2367 H   0  0  0  0  0  0  0  0  0  0  0  0
  140.8539   79.5633  219.1579 H   0  0  0  0  0  0  0  0  0  0  0  0
  139.7010   79.2806  220.5597 H   0  0  0  0  0  0  0  0  0  0  0  0
  142.6922   79.6457  220.6059 H   0  0  0  0  0  0  0  0  0  0  0  0
  141.3969   80.5662  221.4654 H   0  0  0  0  0  0  0  0  0  0  0  0
  142.7198   77.9956  222.1940 H   0  0  0  0  0  0  0  0  0  0  0  0
  141.9508   79.2098  223.2395 H   0  0  0  0  0  0  0  0  0  0  0  0
  140.5346   77.2213  223.2675 H   0  0  0  0  0  0  0  0  0  0  0  0
  139.6855   78.4423  222.2811 H   0  0  0  0  0  0  0  0  0  0  0  0
  138.5613   75.1346  221.2704 H   0  0  0  0  0  0  0  0  0  0  0  0
  139.6875   73.9103  220.3796 H   0  0  0  0  0  0  0  0  0  0  0  0
  138.6890   73.6640  223.0870 H   0  0  0  0  0  0  0  0  0  0  0  0
  139.2909   70.1012  222.2876 H   0  0  0  0  0  0  0  0  0  0  0  0
  139.1273   68.4857  224.2020 H   0  0  0  0  0  0  0  0  0  0  0  0
  139.5118   67.9141  226.5253 H   0  0  0  0  0  0  0  0  0  0  0  0
  141.4000   70.8094  229.1224 H   0  0  0  0  0  0  0  0  0  0  0  0
  141.5637   72.4229  227.2160 H   0  0  0  0  0  0  0  0  0  0  0  0
  143.4549   72.6777  217.8659 H   0  0  0  0  0  0  0  0  0  0  0  0
  144.6196   71.0536  219.3272 H   0  0  0  0  0  0  0  0  0  0  0  0
  145.7918   71.9405  221.3585 H   0  0  0  0  0  0  0  0  0  0  0  0
  145.7766   74.3496  221.8732 H   0  0  0  0  0  0  0  0  0  0  0  0
  144.5840   75.9728  220.3705 H   0  0  0  0  0  0  0  0  0  0  0  0
  1  2  1  0
  2  3  1  0
  3  4  1  0
  4  5  2  0
  4  6  1  0
  6  7  1  0
  7  8  1  0
  8  9  1  0
  9 10  1  0
 10 11  1  0
 11 12  1  0
 12 13  2  0
 12 14  1  0
 14 15  1  0
 15 16  1  0
 16 17  2  0
 16 18  1  0
 18 19  2  0
 19 20  1  0
 20 21  2  0
 21 22  1  0
 22 23  2  0
 23 24  1  0
 23 25  1  0
 25 26  2  0
 26 27  1  0
 27 28  2  0
  2 29  1  0
 29 30  2  0
 30 31  1  0
 31 32  2  0
 32 33  1  0
 33 34  2  0
 11  6  1  0
 28 18  1  0
 34 29  1  0
 27 21  1  0
  1 35  1  0
  1 36  1  0
  1 37  1  0
  2 38  1  6
  3 39  1  0
  6 40  1  6
  7 41  1  0
  7 42  1  0
  8 43  1  0
  8 44  1  0
  9 45  1  0
  9 46  1  0
 10 47  1  0
 10 48  1  0
 14 49  1  0
 14 50  1  0
 15 51  1  0
 19 52  1  0
 20 53  1  0
 22 54  1  0
 25 55  1  0
 26 56  1  0
 30 57  1  0
 31 58  1  0
 32 59  1  0
 33 60  1  0
 34 61  1  0
M  END
>  <smiles>  (41) 
C[C@@H](NC(=O)C1CCCCN1C(=O)CNC(=O)c1ccc2cc(F)ccc2n1)c1ccccc1

>  <score_type>  (41) 
oracle

>  <origin>  (41) 
autodockgpu

>  <m_score__min__energy>  (41) 
-9.4299999999999997

>  <m_primary>  (41) 
energy

>  <rmsd>  (41) 
5.400418416363811

>  <m_score__min__rmsd>  (41) 
5.400418416363811

>  <meeko>  (41) 
{"free_energy": -8.63, "intermolecular_energy": -10.72, "internal_energy": -2.55, "cluster_size": 2, "cluster_id": 3, "rank_in_cluster": 1}

>  <energy>  (41) 
-7.57

>  <cluster_rmsd>  (41) 
0.0

>  <cluster>  (41) 
7

$$$$

     RDKit          3D

 61 64  0  0  1  0  0  0  0  0999 V2000
  143.2240   77.4390  217.8890 C   0  0  0  0  0  0  0  0  0  0  0  0
  142.0130   76.9830  218.7050 C   0  0  1  0  0  0  0  0  0  0  0  0
  142.4780   76.1910  219.8290 N   0  0  0  0  0  0  0  0  0  0  0  0
  143.0350   74.9080  219.5750 C   0  0  0  0  0  0  0  0  0  0  0  0
  143.1200   74.4730  218.3980 O   0  0  0  0  0  0  0  0  0  0  0  0
  143.4960   74.1340  220.7630 C   0  0  2  0  0  0  0  0  0  0  0  0
  144.9740   74.0200  220.8220 C   0  0  0  0  0  0  0  0  0  0  0  0
  145.5910   73.1880  219.7140 C   0  0  0  0  0  0  0  0  0  0  0  0
  144.7620   71.9390  219.4490 C   0  0  0  0  0  0  0  0  0  0  0  0
  143.9000   71.7150  220.6730 C   0  0  0  0  0  0  0  0  0  0  0  0
  142.9150   72.7660  220.7180 N   0  0  0  0  0  0  0  0  0  0  0  0
  141.5350   72.6760  220.7150 C   0  0  0  0  0  0  0  0  0  0  0  0
  141.0510   71.6260  220.0820 O   0  0  0  0  0  0  0  0  0  0  0  0
  140.4840   73.5170  221.2710 C   0  0  0  0  0  0  0  0  0  0  0  0
  140.7670   74.8200  221.7420 N   0  0  0  0  0  0  0  0  0  0  0  0
  139.7330   75.7820  221.9790 C   0  0  0  0  0  0  0  0  0  0  0  0
  138.5620   75.4070  221.7420 O   0  0  0  0  0  0  0  0  0  0  0  0
  140.0500   77.1300  222.4750 C   0  0  0  0  0  0  0  0  0  0  0  0
  138.9960   77.8960  222.9220 C   0  0  0  0  0  0  0  0  0  0  0  0
  139.3130   79.1680  223.3860 C   0  0  0  0  0  0  0  0  0  0  0  0
  140.6260   79.6320  223.3950 C   0  0  0  0  0  0  0  0  0  0  0  0
  140.9170   80.9140  223.8690 C   0  0  0  0  0  0  0  0  0  0  0  0
  142.2470   81.3450  223.8620 C   0  0  0  0  0  0  0  0  0  0  0  0
  142.5820   82.5940  224.3160 F   0  0  0  0  0  0  0  0  0  0  0  0
  143.2590   80.5210  223.3980 C   0  0  0  0  0  0  0  0  0  0  0  0
  142.9580   79.2410  222.9280 C   0  0  0  0  0  0  0  0  0  0  0  0
  141.6350   78.8110  222.9330 C   0  0  0  0  0  0  0  0  0  0  0  0
  141.3210   77.5780  222.4840 N   0  0  0  0  0  0  0  0  0  0  0  0
  141.3840   78.2430  219.2380 C   0  0  0  0  0  0  0  0  0  0  0  0
  142.1570   79.3520  219.4830 C   0  0  0  0  0  0  0  0  0  0  0  0
  141.6430   80.5300  219.9680 C   0  0  0  0  0  0  0  0  0  0  0  0
  140.2740   80.5560  220.2080 C   0  0  0  0  0  0  0  0  0  0  0  0
  139.4770   79.4500  219.9680 C   0  0  0  0  0  0  0  0  0  0  0  0
  140.0260   78.2620  219.4730 C   0  0  0  0  0  0  0  0  0  0  0  0
  144.0319   77.7432  218.5707 H   0  0  0  0  0  0  0  0  0  0  0  0
  143.5719   76.6103  217.2548 H   0  0  0  0  0  0  0  0  0  0  0  0
  142.9389   78.2914  217.2548 H   0  0  0  0  0  0  0  0  0  0  0  0
  141.3109   76.3871  218.1033 H   0  0  0  0  0  0  0  0  0  0  0  0
  142.3930   76.5750  220.7840 H   0  0  0  0  0  0  0  0  0  0  0  0
  143.1591   74.6772  221.6582 H   0  0  0  0  0  0  0  0  0  0  0  0
  145.3982   75.0334  220.7661 H   0  0  0  0  0  0  0  0  0  0  0  0
  145.2080   73.5038  221.7648 H   0  0  0  0  0  0  0  0  0  0  0  0
  145.6390   73.7905  218.7949 H   0  0  0  0  0  0  0  0  0  0  0  0
  146.6007   72.8812  220.0245 H   0  0  0  0  0  0  0  0  0  0  0  0
  144.1283   72.0868  218.5621 H   0  0  0  0  0  0  0  0  0  0  0  0
  145.4092   71.0701  219.2591 H   0  0  0  0  0  0  0  0  0  0  0  0
  143.4007   70.7372  220.6049 H   0  0  0  0  0  0  0  0  0  0  0  0
  144.5164   71.7276  221.5840 H   0  0  0  0  0  0  0  0  0  0  0  0
  139.7227   73.6271  220.4847 H   0  0  0  0  0  0  0  0  0  0  0  0
  140.2072   72.9818  222.1913 H   0  0  0  0  0  0  0  0  0  0  0  0
  141.7450   75.1810  221.9490 H   0  0  0  0  0  0  0  0  0  0  0  0
  137.9614   77.5224  222.9124 H   0  0  0  0  0  0  0  0  0  0  0  0
  138.5089   79.8221  223.7541 H   0  0  0  0  0  0  0  0  0  0  0  0
  140.1161   81.5705  224.2400 H   0  0  0  0  0  0  0  0  0  0  0  0
  144.3004   80.8751  223.3997 H   0  0  0  0  0  0  0  0  0  0  0  0
  143.7568   78.5811  222.5585 H   0  0  0  0  0  0  0  0  0  0  0  0
  143.2368   79.2940  219.2816 H   0  0  0  0  0  0  0  0  0  0  0  0
  142.2808   81.4062  220.1565 H   0  0  0  0  0  0  0  0  0  0  0  0
  139.8138   81.4761  220.5973 H   0  0  0  0  0  0  0  0  0  0  0  0
  138.3970   79.5058  220.1692 H   0  0  0  0  0  0  0  0  0  0  0  0
  139.3992   77.3790  219.2793 H   0  0  0  0  0  0  0  0  0  0  0  0
  1  2  1  0
  2  3  1  0
  3  4  1  0
  4  5  2  0
  4  6  1  0
  6  7  1  0
  7  8  1  0
  8  9  1  0
  9 10  1  0
 10 11  1  0
 11 12  1  0
 12 13  2  0
 12 14  1  0
 14 15  1  0
 15 16  1  0
 16 17  2  0
 16 18  1  0
 18 19  2  0
 19 20  1  0
 20 21  2  0
 21 22  1  0
 22 23  2  0
 23 24  1  0
 23 25  1  0
 25 26  2  0
 26 27  1  0
 27 28  2  0
  2 29  1  0
 29 30  2  0
 30 31  1  0
 31 32  2  0
 32 33  1  0
 33 34  2  0
 11  6  1  0
 28 18  1  0
 34 29  1  0
 27 21  1  0
  1 35  1  0
  1 36  1  0
  1 37  1  0
  2 38  1  6
  3 39  1  0
  6 40  1  1
  7 41  1  0
  7 42  1  0
  8 43  1  0
  8 44  1  0
  9 45  1  0
  9 46  1  0
 10 47  1  0
 10 48  1  0
 14 49  1  0
 14 50  1  0
 15 51  1  0
 19 52  1  0
 20 53  1  0
 22 54  1  0
 25 55  1  0
 26 56  1  0
 30 57  1  0
 31 58  1  0
 32 59  1  0
 33 60  1  0
 34 61  1  0
M  END
>  <smiles>  (42) 
C[C@@H](NC(=O)C1CCCCN1C(=O)CNC(=O)c1ccc2cc(F)ccc2n1)c1ccccc1

>  <score_type>  (42) 
oracle

>  <origin>  (42) 
autodockgpu

>  <m_score__min__energy>  (42) 
-9.4299999999999997

>  <m_primary>  (42) 
energy

>  <rmsd>  (42) 
7.009441277802787

>  <m_score__min__rmsd>  (42) 
7.009441277802787

>  <meeko>  (42) 
{"free_energy": -6.86, "intermolecular_energy": -8.95, "internal_energy": -4.44, "cluster_size": 3, "cluster_id": 8, "rank_in_cluster": 2}

>  <energy>  (42) 
-7.44

>  <cluster_rmsd>  (42) 
0.0

>  <cluster>  (42) 
8

$$$$

     RDKit          3D

 61 64  0  0  1  0  0  0  0  0999 V2000
  139.3510   67.4490  226.6820 C   0  0  0  0  0  0  0  0  0  0  0  0
  140.2280   68.2780  225.7420 C   0  0  1  0  0  0  0  0  0  0  0  0
  139.5040   68.5050  224.5050 N   0  0  0  0  0  0  0  0  0  0  0  0
  138.1910   69.0460  224.5730 C   0  0  0  0  0  0  0  0  0  0  0  0
  137.6720   69.3190  225.6860 O   0  0  0  0  0  0  0  0  0  0  0  0
  137.4900   69.2590  223.2740 C   0  0  2  0  0  0  0  0  0  0  0  0
  137.0050   67.9890  222.6800 C   0  0  0  0  0  0  0  0  0  0  0  0
  138.0990   67.0390  222.2330 C   0  0  0  0  0  0  0  0  0  0  0  0
  139.2250   67.7970  221.5430 C   0  0  0  0  0  0  0  0  0  0  0  0
  138.6600   69.1370  221.1210 C   0  0  0  0  0  0  0  0  0  0  0  0
  138.4190   69.9100  222.3130 N   0  0  0  0  0  0  0  0  0  0  0  0
  138.9310   71.1410  222.6780 C   0  0  0  0  0  0  0  0  0  0  0  0
  138.6450   71.5160  223.9100 O   0  0  0  0  0  0  0  0  0  0  0  0
  139.7340   72.1320  221.9740 C   0  0  0  0  0  0  0  0  0  0  0  0
  139.7260   73.4880  222.3700 N   0  0  0  0  0  0  0  0  0  0  0  0
  139.9490   74.5520  221.4360 C   0  0  0  0  0  0  0  0  0  0  0  0
  140.1570   74.2130  220.2490 O   0  0  0  0  0  0  0  0  0  0  0  0
  139.9300   75.9580  221.8690 C   0  0  0  0  0  0  0  0  0  0  0  0
  138.7340   76.4490  222.3460 C   0  0  0  0  0  0  0  0  0  0  0  0
  138.7330   77.7790  222.7500 C   0  0  0  0  0  0  0  0  0  0  0  0
  139.8820   78.5630  222.6740 C   0  0  0  0  0  0  0  0  0  0  0  0
  139.8530   79.8980  223.0880 C   0  0  0  0  0  0  0  0  0  0  0  0
  141.0260   80.6530  222.9960 C   0  0  0  0  0  0  0  0  0  0  0  0
  141.0470   81.9660  223.3890 F   0  0  0  0  0  0  0  0  0  0  0  0
  142.1950   80.0940  222.5060 C   0  0  0  0  0  0  0  0  0  0  0  0
  142.2140   78.7600  222.0960 C   0  0  0  0  0  0  0  0  0  0  0  0
  141.0480   78.0070  222.1860 C   0  0  0  0  0  0  0  0  0  0  0  0
  141.0420   76.7160  221.7950 N   0  0  0  0  0  0  0  0  0  0  0  0
  140.4240   69.6020  226.4310 C   0  0  0  0  0  0  0  0  0  0  0  0
  141.0580   70.6330  225.7810 C   0  0  0  0  0  0  0  0  0  0  0  0
  141.2670   71.8630  226.3550 C   0  0  0  0  0  0  0  0  0  0  0  0
  140.7990   72.0290  227.6540 C   0  0  0  0  0  0  0  0  0  0  0  0
  140.1570   71.0040  228.3260 C   0  0  0  0  0  0  0  0  0  0  0  0
  139.9570   69.7600  227.7190 C   0  0  0  0  0  0  0  0  0  0  0  0
  139.6039   67.6881  227.7255 H   0  0  0  0  0  0  0  0  0  0  0  0
  138.2922   67.6841  226.4982 H   0  0  0  0  0  0  0  0  0  0  0  0
  139.5262   66.3787  226.4982 H   0  0  0  0  0  0  0  0  0  0  0  0
  141.1820   67.7777  225.5194 H   0  0  0  0  0  0  0  0  0  0  0  0
  139.9570   68.2700  223.6070 H   0  0  0  0  0  0  0  0  0  0  0  0
  136.6165   69.8971  223.4739 H   0  0  0  0  0  0  0  0  0  0  0  0
  136.3891   67.4729  223.4311 H   0  0  0  0  0  0  0  0  0  0  0  0
  136.4441   68.2642  221.7746 H   0  0  0  0  0  0  0  0  0  0  0  0
  138.5027   66.5149  223.1118 H   0  0  0  0  0  0  0  0  0  0  0  0
  137.6708   66.3185  221.5206 H   0  0  0  0  0  0  0  0  0  0  0  0
  140.0646   67.9427  222.2386 H   0  0  0  0  0  0  0  0  0  0  0  0
  139.6013   67.2374  220.6740 H   0  0  0  0  0  0  0  0  0  0  0  0
  139.3808   69.6602  220.4754 H   0  0  0  0  0  0  0  0  0  0  0  0
  137.7253   68.9990  220.5577 H   0  0  0  0  0  0  0  0  0  0  0  0
  140.7783   71.7928  222.0401 H   0  0  0  0  0  0  0  0  0  0  0  0
  139.2610   72.1666  220.9815 H   0  0  0  0  0  0  0  0  0  0  0  0
  139.5610   73.8200  223.3660 H   0  0  0  0  0  0  0  0  0  0  0  0
  137.8309   75.8236  222.4038 H   0  0  0  0  0  0  0  0  0  0  0  0
  137.8042   78.2223  223.1384 H   0  0  0  0  0  0  0  0  0  0  0  0
  138.9266   80.3450  223.4780 H   0  0  0  0  0  0  0  0  0  0  0  0
  143.1092   80.7021  222.4400 H   0  0  0  0  0  0  0  0  0  0  0  0
  143.1392   78.3100  221.7067 H   0  0  0  0  0  0  0  0  0  0  0  0
  141.4145   70.4657  224.7539 H   0  0  0  0  0  0  0  0  0  0  0  0
  141.7778   72.6743  225.8156 H   0  0  0  0  0  0  0  0  0  0  0  0
  140.9423   72.9961  228.1581 H   0  0  0  0  0  0  0  0  0  0  0  0
  139.7987   71.1699  229.3527 H   0  0  0  0  0  0  0  0  0  0  0  0
  139.4478   68.9407  228.2476 H   0  0  0  0  0  0  0  0  0  0  0  0
  1  2  1  0
  2  3  1  0
  3  4  1  0
  4  5  2  0
  4  6  1  0
  6  7  1  0
  7  8  1  0
  8  9  1  0
  9 10  1  0
 10 11  1  0
 11 12  1  0
 12 13  2  0
 12 14  1  0
 14 15  1  0
 15 16  1  0
 16 17  2  0
 16 18  1  0
 18 19  2  0
 19 20  1  0
 20 21  2  0
 21 22  1  0
 22 23  2  0
 23 24  1  0
 23 25  1  0
 25 26  2  0
 26 27  1  0
 27 28  2  0
  2 29  1  0
 29 30  2  0
 30 31  1  0
 31 32  2  0
 32 33  1  0
 33 34  2  0
 11  6  1  0
 28 18  1  0
 34 29  1  0
 27 21  1  0
  1 35  1  0
  1 36  1  0
  1 37  1  0
  2 38  1  6
  3 39  1  0
  6 40  1  1
  7 41  1  0
  7 42  1  0
  8 43  1  0
  8 44  1  0
  9 45  1  0
  9 46  1  0
 10 47  1  0
 10 48  1  0
 14 49  1  0
 14 50  1  0
 15 51  1  0
 19 52  1  0
 20 53  1  0
 22 54  1  0
 25 55  1  0
 26 56  1  0
 30 57  1  0
 31 58  1  0
 32 59  1  0
 33 60  1  0
 34 61  1  0
M  END
>  <smiles>  (43) 
C[C@@H](NC(=O)C1CCCCN1C(=O)CNC(=O)c1ccc2cc(F)ccc2n1)c1ccccc1

>  <score_type>  (43) 
oracle

>  <origin>  (43) 
autodockgpu

>  <m_score__min__energy>  (43) 
-9.4299999999999997

>  <m_primary>  (43) 
energy

>  <rmsd>  (43) 
10.08655413847984

>  <m_score__min__rmsd>  (43) 
10.08655413847984

>  <meeko>  (43) 
{"free_energy": -8.82, "intermolecular_energy": -10.91, "internal_energy": -2.03, "cluster_size": 1, "cluster_id": 2, "rank_in_cluster": 1}

>  <energy>  (43) 
-6.86

>  <cluster_rmsd>  (43) 
0.5

>  <cluster>  (43) 
8

$$$$

     RDKit          3D

 61 64  0  0  1  0  0  0  0  0999 V2000
  139.3060   78.6710  220.4850 C   0  0  0  0  0  0  0  0  0  0  0  0
  139.9680   77.8390  221.5850 C   0  0  1  0  0  0  0  0  0  0  0  0
  140.6570   76.7180  220.9730 N   0  0  0  0  0  0  0  0  0  0  0  0
  140.5970   75.4500  221.6120 C   0  0  0  0  0  0  0  0  0  0  0  0
  139.9590   75.3090  222.6870 O   0  0  0  0  0  0  0  0  0  0  0  0
  141.3220   74.3310  220.9430 C   0  0  2  0  0  0  0  0  0  0  0  0
  142.7560   74.6420  220.7220 C   0  0  0  0  0  0  0  0  0  0  0  0
  143.0180   75.7540  219.7260 C   0  0  0  0  0  0  0  0  0  0  0  0
  142.0920   75.6330  218.5230 C   0  0  0  0  0  0  0  0  0  0  0  0
  141.5770   74.2100  218.5060 C   0  0  0  0  0  0  0  0  0  0  0  0
  140.6880   74.0480  219.6290 N   0  0  0  0  0  0  0  0  0  0  0  0
  139.3540   73.6830  219.6470 C   0  0  0  0  0  0  0  0  0  0  0  0
  138.8350   73.4240  218.4620 O   0  0  0  0  0  0  0  0  0  0  0  0
  138.3820   73.5260  220.7200 C   0  0  0  0  0  0  0  0  0  0  0  0
  138.7330   72.8830  221.9300 N   0  0  0  0  0  0  0  0  0  0  0  0
  138.8190   71.4570  222.0330 C   0  0  0  0  0  0  0  0  0  0  0  0
  138.5620   70.8090  220.9920 O   0  0  0  0  0  0  0  0  0  0  0  0
  139.1930   70.8100  223.3000 C   0  0  0  0  0  0  0  0  0  0  0  0
  138.9250   69.4630  223.4160 C   0  0  0  0  0  0  0  0  0  0  0  0
  139.2830   68.8670  224.6200 C   0  0  0  0  0  0  0  0  0  0  0  0
  139.8790   69.5980  225.6450 C   0  0  0  0  0  0  0  0  0  0  0  0
  140.2300   68.9740  226.8450 C   0  0  0  0  0  0  0  0  0  0  0  0
  140.8250   69.7410  227.8500 C   0  0  0  0  0  0  0  0  0  0  0  0
  141.1870   69.1740  229.0450 F   0  0  0  0  0  0  0  0  0  0  0  0
  141.0660   71.0920  227.6650 C   0  0  0  0  0  0  0  0  0  0  0  0
  140.7120   71.7070  226.4630 C   0  0  0  0  0  0  0  0  0  0  0  0
  140.1190   70.9450  225.4610 C   0  0  0  0  0  0  0  0  0  0  0  0
  139.7690   71.5180  224.2910 N   0  0  0  0  0  0  0  0  0  0  0  0
  140.9930   78.7420  222.2170 C   0  0  0  0  0  0  0  0  0  0  0  0
  141.2810   78.6330  223.5560 C   0  0  0  0  0  0  0  0  0  0  0  0
  142.2050   79.4260  224.1900 C   0  0  0  0  0  0  0  0  0  0  0  0
  142.8550   80.3700  223.4030 C   0  0  0  0  0  0  0  0  0  0  0  0
  142.5810   80.4970  222.0530 C   0  0  0  0  0  0  0  0  0  0  0  0
  141.6350   79.6760  221.4300 C   0  0  0  0  0  0  0  0  0  0  0  0
  138.6830   79.4539  220.9421 H   0  0  0  0  0  0  0  0  0  0  0  0
  140.0823   79.1379  219.8610 H   0  0  0  0  0  0  0  0  0  0  0  0
  138.6767   78.0194  219.8610 H   0  0  0  0  0  0  0  0  0  0  0  0
  139.2359   77.4631  222.3149 H   0  0  0  0  0  0  0  0  0  0  0  0
  141.1730   76.8660  220.0900 H   0  0  0  0  0  0  0  0  0  0  0  0
  141.2609   73.4566  221.6075 H   0  0  0  0  0  0  0  0  0  0  0  0
  143.1952   74.9359  221.6867 H   0  0  0  0  0  0  0  0  0  0  0  0
  143.2087   73.7333  220.2985 H   0  0  0  0  0  0  0  0  0  0  0  0
  142.8478   76.7241  220.2158 H   0  0  0  0  0  0  0  0  0  0  0  0
  144.0588   75.6775  219.3784 H   0  0  0  0  0  0  0  0  0  0  0  0
  141.2529   76.3378  218.6191 H   0  0  0  0  0  0  0  0  0  0  0  0
  142.6250   75.8700  217.5904 H   0  0  0  0  0  0  0  0  0  0  0  0
  141.0336   74.0202  217.5686 H   0  0  0  0  0  0  0  0  0  0  0  0
  142.4133   73.4986  218.5732 H   0  0  0  0  0  0  0  0  0  0  0  0
  138.0465   74.5384  220.9892 H   0  0  0  0  0  0  0  0  0  0  0  0
  137.6465   72.8351  220.2823 H   0  0  0  0  0  0  0  0  0  0  0  0
  138.9520   73.3930  222.8360 H   0  0  0  0  0  0  0  0  0  0  0  0
  138.4545   68.8919  222.6021 H   0  0  0  0  0  0  0  0  0  0  0  0
  139.0912   67.7938  224.7664 H   0  0  0  0  0  0  0  0  0  0  0  0
  140.0417   67.9007  226.9954 H   0  0  0  0  0  0  0  0  0  0  0  0
  141.5368   71.6810  228.4659 H   0  0  0  0  0  0  0  0  0  0  0  0
  140.8994   72.7800  226.3098 H   0  0  0  0  0  0  0  0  0  0  0  0
  140.7464   77.8751  224.1475 H   0  0  0  0  0  0  0  0  0  0  0  0
  142.4197   79.3202  225.2636 H   0  0  0  0  0  0  0  0  0  0  0  0
  143.6039   81.0307  223.8641 H   0  0  0  0  0  0  0  0  0  0  0  0
  143.1148   81.2547  221.4606 H   0  0  0  0  0  0  0  0  0  0  0  0
  141.4122   79.7711  220.3570 H   0  0  0  0  0  0  0  0  0  0  0  0
  1  2  1  0
  2  3  1  0
  3  4  1  0
  4  5  2  0
  4  6  1  0
  6  7  1  0
  7  8  1  0
  8  9  1  0
  9 10  1  0
 10 11  1  0
 11 12  1  0
 12 13  2  0
 12 14  1  0
 14 15  1  0
 15 16  1  0
 16 17  2  0
 16 18  1  0
 18 19  2  0
 19 20  1  0
 20 21  2  0
 21 22  1  0
 22 23  2  0
 23 24  1  0
 23 25  1  0
 25 26  2  0
 26 27  1  0
 27 28  2  0
  2 29  1  0
 29 30  2  0
 30 31  1  0
 31 32  2  0
 32 33  1  0
 33 34  2  0
 11  6  1  0
 28 18  1  0
 34 29  1  0
 27 21  1  0
  1 35  1  0
  1 36  1  0
  1 37  1  0
  2 38  1  1
  3 39  1  0
  6 40  1  1
  7 41  1  0
  7 42  1  0
  8 43  1  0
  8 44  1  0
  9 45  1  0
  9 46  1  0
 10 47  1  0
 10 48  1  0
 14 49  1  0
 14 50  1  0
 15 51  1  0
 19 52  1  0
 20 53  1  0
 22 54  1  0
 25 55  1  0
 26 56  1  0
 30 57  1  0
 31 58  1  0
 32 59  1  0
 33 60  1  0
 34 61  1  0
M  END
>  <smiles>  (44) 
C[C@@H](NC(=O)C1CCCCN1C(=O)CNC(=O)c1ccc2cc(F)ccc2n1)c1ccccc1

>  <score_type>  (44) 
oracle

>  <origin>  (44) 
autodockgpu

>  <m_score__min__energy>  (44) 
-9.4299999999999997

>  <m_primary>  (44) 
energy

>  <rmsd>  (44) 
2.840368606652597

>  <m_score__min__rmsd>  (44) 
2.840368606652597

>  <meeko>  (44) 
{"free_energy": -8.37, "intermolecular_energy": -10.46, "internal_energy": -2.89, "cluster_size": 32, "cluster_id": 1, "rank_in_cluster": 20}

>  <energy>  (44) 
-6.47

>  <cluster_rmsd>  (44) 
1.12

>  <cluster>  (44) 
8

$$$$

     RDKit          3D

 61 64  0  0  1  0  0  0  0  0999 V2000
  139.1140   77.2780  221.6800 C   0  0  0  0  0  0  0  0  0  0  0  0
  140.4990   76.9180  222.2210 C   0  0  1  0  0  0  0  0  0  0  0  0
  141.2080   76.1470  221.2180 N   0  0  0  0  0  0  0  0  0  0  0  0
  141.2710   74.7340  221.3620 C   0  0  0  0  0  0  0  0  0  0  0  0
  140.7230   74.1700  222.3430 O   0  0  0  0  0  0  0  0  0  0  0  0
  142.0130   73.9880  220.3040 C   0  0  2  0  0  0  0  0  0  0  0  0
  143.4330   74.4060  220.2110 C   0  0  0  0  0  0  0  0  0  0  0  0
  143.6460   75.8270  219.7260 C   0  0  0  0  0  0  0  0  0  0  0  0
  142.7010   76.1550  218.5780 C   0  0  0  0  0  0  0  0  0  0  0  0
  142.2230   74.8350  218.0110 C   0  0  0  0  0  0  0  0  0  0  0  0
  141.3610   74.2200  218.9880 N   0  0  0  0  0  0  0  0  0  0  0  0
  140.0380   73.8350  218.8730 C   0  0  0  0  0  0  0  0  0  0  0  0
  139.2860   74.6460  218.1540 O   0  0  0  0  0  0  0  0  0  0  0  0
  139.2840   72.7010  219.3920 C   0  0  0  0  0  0  0  0  0  0  0  0
  139.4140   72.2990  220.7410 N   0  0  0  0  0  0  0  0  0  0  0  0
  139.2620   70.9320  221.1420 C   0  0  0  0  0  0  0  0  0  0  0  0
  139.0020   70.1120  220.2310 O   0  0  0  0  0  0  0  0  0  0  0  0
  139.4070   70.5340  222.5510 C   0  0  0  0  0  0  0  0  0  0  0  0
  138.8820   69.3120  222.9130 C   0  0  0  0  0  0  0  0  0  0  0  0
  139.0280   68.9520  224.2480 C   0  0  0  0  0  0  0  0  0  0  0  0
  139.6700   69.7860  225.1600 C   0  0  0  0  0  0  0  0  0  0  0  0
  139.8040   69.3990  226.4960 C   0  0  0  0  0  0  0  0  0  0  0  0
  140.4540   70.2630  227.3820 C   0  0  0  0  0  0  0  0  0  0  0  0
  140.6090   69.9270  228.7020 F   0  0  0  0  0  0  0  0  0  0  0  0
  140.9590   71.4770  226.9490 C   0  0  0  0  0  0  0  0  0  0  0  0
  140.8210   71.8550  225.6130 C   0  0  0  0  0  0  0  0  0  0  0  0
  140.1740   70.9970  224.7290 C   0  0  0  0  0  0  0  0  0  0  0  0
  140.0290   71.3410  223.4330 N   0  0  0  0  0  0  0  0  0  0  0  0
  141.2150   78.2290  222.4100 C   0  0  0  0  0  0  0  0  0  0  0  0
  141.5580   78.6540  223.6710 C   0  0  0  0  0  0  0  0  0  0  0  0
  142.2110   79.8390  223.9080 C   0  0  0  0  0  0  0  0  0  0  0  0
  142.5200   80.6110  222.7940 C   0  0  0  0  0  0  0  0  0  0  0  0
  142.1830   80.2010  221.5160 C   0  0  0  0  0  0  0  0  0  0  0  0
  141.5170   78.9890  221.3010 C   0  0  0  0  0  0  0  0  0  0  0  0
  138.4271   77.4565  222.5204 H   0  0  0  0  0  0  0  0  0  0  0  0
  139.1855   78.1874  221.0653 H   0  0  0  0  0  0  0  0  0  0  0  0
  138.7336   76.4489  221.0653 H   0  0  0  0  0  0  0  0  0  0  0  0
  140.4391   76.3362  223.1526 H   0  0  0  0  0  0  0  0  0  0  0  0
  141.6490   76.6400  220.4240 H   0  0  0  0  0  0  0  0  0  0  0  0
  141.9884   72.9223  220.5753 H   0  0  0  0  0  0  0  0  0  0  0  0
  143.8831   74.3142  221.2105 H   0  0  0  0  0  0  0  0  0  0  0  0
  143.9012   73.7495  219.4629 H   0  0  0  0  0  0  0  0  0  0  0  0
  143.4591   76.5233  220.5568 H   0  0  0  0  0  0  0  0  0  0  0  0
  144.6817   75.9256  219.3687 H   0  0  0  0  0  0  0  0  0  0  0  0
  141.8458   76.7399  218.9474 H   0  0  0  0  0  0  0  0  0  0  0  0
  143.2099   76.7532  217.8078 H   0  0  0  0  0  0  0  0  0  0  0  0
  141.6667   75.0084  217.0780 H   0  0  0  0  0  0  0  0  0  0  0  0
  143.0789   74.1807  217.7890 H   0  0  0  0  0  0  0  0  0  0  0  0
  138.2204   72.9342  219.2358 H   0  0  0  0  0  0  0  0  0  0  0  0
  139.7147   71.8509  218.8426 H   0  0  0  0  0  0  0  0  0  0  0  0
  139.6270   72.9610  221.5450 H   0  0  0  0  0  0  0  0  0  0  0  0
  138.3762   68.6586  222.1868 H   0  0  0  0  0  0  0  0  0  0  0  0
  138.6274   67.9868  224.5915 H   0  0  0  0  0  0  0  0  0  0  0  0
  139.4061   68.4341  226.8434 H   0  0  0  0  0  0  0  0  0  0  0  0
  141.4696   72.1443  227.6589 H   0  0  0  0  0  0  0  0  0  0  0  0
  141.2186   72.8191  225.2630 H   0  0  0  0  0  0  0  0  0  0  0  0
  141.2980   78.0167  224.5290 H   0  0  0  0  0  0  0  0  0  0  0  0
  142.4756   80.1603  224.9262 H   0  0  0  0  0  0  0  0  0  0  0  0
  143.0437   81.5685  222.9314 H   0  0  0  0  0  0  0  0  0  0  0  0
  142.4423   80.8369  220.6567 H   0  0  0  0  0  0  0  0  0  0  0  0
  141.2457   78.6567  220.2881 H   0  0  0  0  0  0  0  0  0  0  0  0
  1  2  1  0
  2  3  1  0
  3  4  1  0
  4  5  2  0
  4  6  1  0
  6  7  1  0
  7  8  1  0
  8  9  1  0
  9 10  1  0
 10 11  1  0
 11 12  1  0
 12 13  2  0
 12 14  1  0
 14 15  1  0
 15 16  1  0
 16 17  2  0
 16 18  1  0
 18 19  2  0
 19 20  1  0
 20 21  2  0
 21 22  1  0
 22 23  2  0
 23 24  1  0
 23 25  1  0
 25 26  2  0
 26 27  1  0
 27 28  2  0
  2 29  1  0
 29 30  2  0
 30 31  1  0
 31 32  2  0
 32 33  1  0
 33 34  2  0
 11  6  1  0
 28 18  1  0
 34 29  1  0
 27 21  1  0
  1 35  1  0
  1 36  1  0
  1 37  1  0
  2 38  1  1
  3 39  1  0
  6 40  1  1
  7 41  1  0
  7 42  1  0
  8 43  1  0
  8 44  1  0
  9 45  1  0
  9 46  1  0
 10 47  1  0
 10 48  1  0
 14 49  1  0
 14 50  1  0
 15 51  1  0
 19 52  1  0
 20 53  1  0
 22 54  1  0
 25 55  1  0
 26 56  1  0
 30 57  1  0
 31 58  1  0
 32 59  1  0
 33 60  1  0
 34 61  1  0
M  END
>  <smiles>  (45) 
C[C@@H](NC(=O)C1CCCCN1C(=O)CNC(=O)c1ccc2cc(F)ccc2n1)c1ccccc1

>  <score_type>  (45) 
oracle

>  <origin>  (45) 
autodockgpu

>  <m_score__min__energy>  (45) 
-9.4299999999999997

>  <m_primary>  (45) 
energy

>  <rmsd>  (45) 
3.105505055577878

>  <m_score__min__rmsd>  (45) 
3.105505055577878

>  <meeko>  (45) 
{"free_energy": -8.12, "intermolecular_energy": -10.2, "internal_energy": -3.13, "cluster_size": 32, "cluster_id": 1, "rank_in_cluster": 29}

>  <energy>  (45) 
-7.43

>  <cluster_rmsd>  (45) 
0.0

>  <cluster>  (45) 
9

$$$$

     RDKit          3D

 61 64  0  0  1  0  0  0  0  0999 V2000
  139.2050   77.7430  222.0050 C   0  0  0  0  0  0  0  0  0  0  0  0
  140.5680   77.4970  222.6550 C   0  0  1  0  0  0  0  0  0  0  0  0
  141.4280   76.8250  221.6990 N   0  0  0  0  0  0  0  0  0  0  0  0
  141.2060   75.4460  221.4330 C   0  0  0  0  0  0  0  0  0  0  0  0
  140.2810   74.8270  222.0180 O   0  0  0  0  0  0  0  0  0  0  0  0
  142.1180   74.8020  220.4440 C   0  0  2  0  0  0  0  0  0  0  0  0
  143.1070   75.7570  219.8860 C   0  0  0  0  0  0  0  0  0  0  0  0
  142.5150   76.8520  219.0210 C   0  0  0  0  0  0  0  0  0  0  0  0
  141.4290   76.2940  218.1100 C   0  0  0  0  0  0  0  0  0  0  0  0
  141.6420   74.7970  218.0370 C   0  0  0  0  0  0  0  0  0  0  0  0
  141.3150   74.2400  219.3250 N   0  0  0  0  0  0  0  0  0  0  0  0
  140.3720   73.2850  219.6550 C   0  0  0  0  0  0  0  0  0  0  0  0
  139.1300   73.7270  219.7020 O   0  0  0  0  0  0  0  0  0  0  0  0
  140.4640   71.8660  219.9710 C   0  0  0  0  0  0  0  0  0  0  0  0
  140.7220   71.4300  221.2900 N   0  0  0  0  0  0  0  0  0  0  0  0
  139.7210   71.4770  222.3140 C   0  0  0  0  0  0  0  0  0  0  0  0
  138.6030   71.9290  221.9750 O   0  0  0  0  0  0  0  0  0  0  0  0
  140.0090   71.0120  223.6790 C   0  0  0  0  0  0  0  0  0  0  0  0
  140.6760   71.8870  224.5090 C   0  0  0  0  0  0  0  0  0  0  0  0
  140.9410   71.4320  225.7960 C   0  0  0  0  0  0  0  0  0  0  0  0
  140.5510   70.1620  226.2130 C   0  0  0  0  0  0  0  0  0  0  0  0
  140.8300   69.7300  227.5130 C   0  0  0  0  0  0  0  0  0  0  0  0
  140.4230   68.4480  227.8940 C   0  0  0  0  0  0  0  0  0  0  0  0
  140.6750   67.9800  229.1580 F   0  0  0  0  0  0  0  0  0  0  0  0
  139.7560   67.6200  227.0070 C   0  0  0  0  0  0  0  0  0  0  0  0
  139.4810   68.0610  225.7120 C   0  0  0  0  0  0  0  0  0  0  0  0
  139.8860   69.3360  225.3290 C   0  0  0  0  0  0  0  0  0  0  0  0
  139.6310   69.7830  224.0820 N   0  0  0  0  0  0  0  0  0  0  0  0
  141.1380   78.8620  222.9330 C   0  0  0  0  0  0  0  0  0  0  0  0
  142.4960   79.0670  222.8890 C   0  0  0  0  0  0  0  0  0  0  0  0
  143.0770   80.2870  223.1330 C   0  0  0  0  0  0  0  0  0  0  0  0
  142.2140   81.3350  223.4330 C   0  0  0  0  0  0  0  0  0  0  0  0
  140.8440   81.1510  223.4820 C   0  0  0  0  0  0  0  0  0  0  0  0
  140.2770   79.8970  223.2300 C   0  0  0  0  0  0  0  0  0  0  0  0
  138.4448   77.8802  222.7881 H   0  0  0  0  0  0  0  0  0  0  0  0
  139.2547   78.6467  221.3798 H   0  0  0  0  0  0  0  0  0  0  0  0
  138.9356   76.8790  221.3798 H   0  0  0  0  0  0  0  0  0  0  0  0
  140.4864   76.8849  223.5653 H   0  0  0  0  0  0  0  0  0  0  0  0
  142.1800   77.3610  221.2350 H   0  0  0  0  0  0  0  0  0  0  0  0
  142.6685   74.0097  220.9724 H   0  0  0  0  0  0  0  0  0  0  0  0
  143.6353   76.2322  220.7257 H   0  0  0  0  0  0  0  0  0  0  0  0
  143.7696   75.1703  219.2327 H   0  0  0  0  0  0  0  0  0  0  0  0
  142.0794   77.6272  219.6685 H   0  0  0  0  0  0  0  0  0  0  0  0
  143.3138   77.2789  218.3968 H   0  0  0  0  0  0  0  0  0  0  0  0
  140.4353   76.5147  218.5270 H   0  0  0  0  0  0  0  0  0  0  0  0
  141.4826   76.7484  217.1097 H   0  0  0  0  0  0  0  0  0  0  0  0
  140.9885   74.3637  217.2655 H   0  0  0  0  0  0  0  0  0  0  0  0
  142.6862   74.5708  217.7755 H   0  0  0  0  0  0  0  0  0  0  0  0
  139.5046   71.4167  219.6750 H   0  0  0  0  0  0  0  0  0  0  0  0
  141.3713   71.5561  219.4317 H   0  0  0  0  0  0  0  0  0  0  0  0
  141.6560   71.0460  221.6210 H   0  0  0  0  0  0  0  0  0  0  0  0
  140.9815   72.8887  224.1724 H   0  0  0  0  0  0  0  0  0  0  0  0
  141.4706   72.0901  226.5005 H   0  0  0  0  0  0  0  0  0  0  0  0
  141.3586   70.3850  228.2212 H   0  0  0  0  0  0  0  0  0  0  0  0
  139.4427   66.6141  227.3234 H   0  0  0  0  0  0  0  0  0  0  0  0
  138.9506   67.4088  225.0026 H   0  0  0  0  0  0  0  0  0  0  0  0
  143.1477   78.2145  222.6472 H   0  0  0  0  0  0  0  0  0  0  0  0
  144.1672   80.4277  223.0932 H   0  0  0  0  0  0  0  0  0  0  0  0
  142.6301   82.3328  223.6359 H   0  0  0  0  0  0  0  0  0  0  0  0
  140.1909   82.0028  223.7225 H   0  0  0  0  0  0  0  0  0  0  0  0
  139.1884   79.7431  223.2673 H   0  0  0  0  0  0  0  0  0  0  0  0
  1  2  1  0
  2  3  1  0
  3  4  1  0
  4  5  2  0
  4  6  1  0
  6  7  1  0
  7  8  1  0
  8  9  1  0
  9 10  1  0
 10 11  1  0
 11 12  1  0
 12 13  2  0
 12 14  1  0
 14 15  1  0
 15 16  1  0
 16 17  2  0
 16 18  1  0
 18 19  2  0
 19 20  1  0
 20 21  2  0
 21 22  1  0
 22 23  2  0
 23 24  1  0
 23 25  1  0
 25 26  2  0
 26 27  1  0
 27 28  2  0
  2 29  1  0
 29 30  2  0
 30 31  1  0
 31 32  2  0
 32 33  1  0
 33 34  2  0
 11  6  1  0
 28 18  1  0
 34 29  1  0
 27 21  1  0
  1 35  1  0
  1 36  1  0
  1 37  1  0
  2 38  1  1
  3 39  1  0
  6 40  1  1
  7 41  1  0
  7 42  1  0
  8 43  1  0
  8 44  1  0
  9 45  1  0
  9 46  1  0
 10 47  1  0
 10 48  1  0
 14 49  1  0
 14 50  1  0
 15 51  1  0
 19 52  1  0
 20 53  1  0
 22 54  1  0
 25 55  1  0
 26 56  1  0
 30 57  1  0
 31 58  1  0
 32 59  1  0
 33 60  1  0
 34 61  1  0
M  END
>  <smiles>  (46) 
C[C@@H](NC(=O)C1CCCCN1C(=O)CNC(=O)c1ccc2cc(F)ccc2n1)c1ccccc1

>  <score_type>  (46) 
oracle

>  <origin>  (46) 
autodockgpu

>  <m_score__min__energy>  (46) 
-9.4299999999999997

>  <m_primary>  (46) 
energy

>  <rmsd>  (46) 
3.4556411270896534

>  <m_score__min__rmsd>  (46) 
3.4556411270896534

>  <meeko>  (46) 
{"free_energy": -9.25, "intermolecular_energy": -11.34, "internal_energy": -1.94, "cluster_size": 32, "cluster_id": 1, "rank_in_cluster": 3}

>  <energy>  (46) 
-7.41

>  <cluster_rmsd>  (46) 
0.0

>  <cluster>  (46) 
10

$$$$

     RDKit          3D

 61 64  0  0  1  0  0  0  0  0999 V2000
  141.6850   79.6550  223.8520 C   0  0  0  0  0  0  0  0  0  0  0  0
  141.1190   79.3710  222.4590 C   0  0  1  0  0  0  0  0  0  0  0  0
  141.7780   78.1980  221.9160 N   0  0  0  0  0  0  0  0  0  0  0  0
  141.7400   77.9830  220.5110 C   0  0  0  0  0  0  0  0  0  0  0  0
  141.1450   78.7960  219.7590 O   0  0  0  0  0  0  0  0  0  0  0  0
  142.4320   76.7630  220.0050 C   0  0  2  0  0  0  0  0  0  0  0  0
  143.0870   76.9900  218.6930 C   0  0  0  0  0  0  0  0  0  0  0  0
  142.1330   77.2450  217.5430 C   0  0  0  0  0  0  0  0  0  0  0  0
  140.9320   76.3110  217.6190 C   0  0  0  0  0  0  0  0  0  0  0  0
  141.3280   75.1560  218.5140 C   0  0  0  0  0  0  0  0  0  0  0  0
  141.4460   75.6600  219.8590 N   0  0  0  0  0  0  0  0  0  0  0  0
  140.7730   75.2720  221.0030 C   0  0  0  0  0  0  0  0  0  0  0  0
  141.3420   75.6440  222.1330 O   0  0  0  0  0  0  0  0  0  0  0  0
  139.5450   74.5200  221.2270 C   0  0  0  0  0  0  0  0  0  0  0  0
  139.4360   73.6090  222.3010 N   0  0  0  0  0  0  0  0  0  0  0  0
  140.3310   72.4990  222.4470 C   0  0  0  0  0  0  0  0  0  0  0  0
  141.2130   72.3780  221.5660 O   0  0  0  0  0  0  0  0  0  0  0  0
  140.2040   71.5660  223.5770 C   0  0  0  0  0  0  0  0  0  0  0  0
  139.5780   70.3630  223.3280 C   0  0  0  0  0  0  0  0  0  0  0  0
  139.4660   69.4930  224.4060 C   0  0  0  0  0  0  0  0  0  0  0  0
  139.9610   69.8270  225.6640 C   0  0  0  0  0  0  0  0  0  0  0  0
  139.8360   68.9330  226.7310 C   0  0  0  0  0  0  0  0  0  0  0  0
  140.3450   69.3050  227.9800 C   0  0  0  0  0  0  0  0  0  0  0  0
  140.2450   68.4620  229.0560 F   0  0  0  0  0  0  0  0  0  0  0  0
  140.9630   70.5300  228.1590 C   0  0  0  0  0  0  0  0  0  0  0  0
  141.0850   71.4160  227.0870 C   0  0  0  0  0  0  0  0  0  0  0  0
  140.5780   71.0500  225.8440 C   0  0  0  0  0  0  0  0  0  0  0  0
  140.6840   71.8900  224.7940 N   0  0  0  0  0  0  0  0  0  0  0  0
  139.6640   79.0470  222.6700 C   0  0  0  0  0  0  0  0  0  0  0  0
  138.7770   80.0370  223.0170 C   0  0  0  0  0  0  0  0  0  0  0  0
  137.4400   79.8040  223.2230 C   0  0  0  0  0  0  0  0  0  0  0  0
  137.0060   78.4930  223.0620 C   0  0  0  0  0  0  0  0  0  0  0  0
  137.8830   77.4810  222.7130 C   0  0  0  0  0  0  0  0  0  0  0  0
  139.2410   77.7440  222.5090 C   0  0  0  0  0  0  0  0  0  0  0  0
  140.9768   79.2996  224.6150 H   0  0  0  0  0  0  0  0  0  0  0  0
  142.6453   79.1320  223.9712 H   0  0  0  0  0  0  0  0  0  0  0  0
  141.8398   80.7375  223.9712 H   0  0  0  0  0  0  0  0  0  0  0  0
  141.2632   80.2197  221.7742 H   0  0  0  0  0  0  0  0  0  0  0  0
  142.2580   77.5480  222.5600 H   0  0  0  0  0  0  0  0  0  0  0  0
  143.2117   76.5024  220.7359 H   0  0  0  0  0  0  0  0  0  0  0  0
  143.7500   77.8626  218.7877 H   0  0  0  0  0  0  0  0  0  0  0  0
  143.6245   76.0615  218.4500 H   0  0  0  0  0  0  0  0  0  0  0  0
  141.7831   78.2868  217.5890 H   0  0  0  0  0  0  0  0  0  0  0  0
  142.6636   77.0607  216.5973 H   0  0  0  0  0  0  0  0  0  0  0  0
  140.0674   76.8407  218.0455 H   0  0  0  0  0  0  0  0  0  0  0  0
  140.6476   75.9536  216.6183 H   0  0  0  0  0  0  0  0  0  0  0  0
  140.5580   74.3714  218.4748 H   0  0  0  0  0  0  0  0  0  0  0  0
  142.2827   74.7225  218.1814 H   0  0  0  0  0  0  0  0  0  0  0  0
  138.7444   75.2618  221.3636 H   0  0  0  0  0  0  0  0  0  0  0  0
  139.4996   73.8625  220.3463 H   0  0  0  0  0  0  0  0  0  0  0  0
  138.7010   73.6700  223.0660 H   0  0  0  0  0  0  0  0  0  0  0  0
  139.1889   70.1062  222.3317 H   0  0  0  0  0  0  0  0  0  0  0  0
  138.9755   68.5190  224.2623 H   0  0  0  0  0  0  0  0  0  0  0  0
  139.3476   67.9573  226.5917 H   0  0  0  0  0  0  0  0  0  0  0  0
  141.3588   70.8062  229.1475 H   0  0  0  0  0  0  0  0  0  0  0  0
  141.5757   72.3910  227.2233 H   0  0  0  0  0  0  0  0  0  0  0  0
  139.1554   81.0631  223.1351 H   0  0  0  0  0  0  0  0  0  0  0  0
  136.7479   80.6125  223.5010 H   0  0  0  0  0  0  0  0  0  0  0  0
  135.9430   78.2551  223.2153 H   0  0  0  0  0  0  0  0  0  0  0  0
  137.5061   76.4544  222.5943 H   0  0  0  0  0  0  0  0  0  0  0  0
  139.9435   76.9443  222.2314 H   0  0  0  0  0  0  0  0  0  0  0  0
  1  2  1  0
  2  3  1  0
  3  4  1  0
  4  5  2  0
  4  6  1  0
  6  7  1  0
  7  8  1  0
  8  9  1  0
  9 10  1  0
 10 11  1  0
 11 12  1  0
 12 13  2  0
 12 14  1  0
 14 15  1  0
 15 16  1  0
 16 17  2  0
 16 18  1  0
 18 19  2  0
 19 20  1  0
 20 21  2  0
 21 22  1  0
 22 23  2  0
 23 24  1  0
 23 25  1  0
 25 26  2  0
 26 27  1  0
 27 28  2  0
  2 29  1  0
 29 30  2  0
 30 31  1  0
 31 32  2  0
 32 33  1  0
 33 34  2  0
 11  6  1  0
 28 18  1  0
 34 29  1  0
 27 21  1  0
  1 35  1  0
  1 36  1  0
  1 37  1  0
  2 38  1  6
  3 39  1  0
  6 40  1  1
  7 41  1  0
  7 42  1  0
  8 43  1  0
  8 44  1  0
  9 45  1  0
  9 46  1  0
 10 47  1  0
 10 48  1  0
 14 49  1  0
 14 50  1  0
 15 51  1  0
 19 52  1  0
 20 53  1  0
 22 54  1  0
 25 55  1  0
 26 56  1  0
 30 57  1  0
 31 58  1  0
 32 59  1  0
 33 60  1  0
 34 61  1  0
M  END
>  <smiles>  (47) 
C[C@@H](NC(=O)C1CCCCN1C(=O)CNC(=O)c1ccc2cc(F)ccc2n1)c1ccccc1

>  <score_type>  (47) 
oracle

>  <origin>  (47) 
autodockgpu

>  <m_score__min__energy>  (47) 
-9.4299999999999997

>  <m_primary>  (47) 
energy

>  <rmsd>  (47) 
2.4335050411893135

>  <m_score__min__rmsd>  (47) 
2.4335050411893135

>  <meeko>  (47) 
{"free_energy": -8.88, "intermolecular_energy": -10.96, "internal_energy": -2.69, "cluster_size": 32, "cluster_id": 1, "rank_in_cluster": 12}

>  <energy>  (47) 
-7.13

>  <cluster_rmsd>  (47) 
0.0

>  <cluster>  (47) 
11

$$$$

     RDKit          3D

 61 64  0  0  1  0  0  0  0  0999 V2000
  141.6930   79.4240  219.4340 C   0  0  0  0  0  0  0  0  0  0  0  0
  141.1500   78.7410  220.6900 C   0  0  1  0  0  0  0  0  0  0  0  0
  141.8300   77.4700  220.8630 N   0  0  0  0  0  0  0  0  0  0  0  0
  141.4570   76.3780  220.0320 C   0  0  0  0  0  0  0  0  0  0  0  0
  140.5540   76.5160  219.1680 O   0  0  0  0  0  0  0  0  0  0  0  0
  142.1850   75.0950  220.2510 C   0  0  2  0  0  0  0  0  0  0  0  0
  143.5780   75.1450  219.7420 C   0  0  0  0  0  0  0  0  0  0  0  0
  143.7000   75.2610  218.2350 C   0  0  0  0  0  0  0  0  0  0  0  0
  142.6900   74.3590  217.5390 C   0  0  0  0  0  0  0  0  0  0  0  0
  142.2520   73.3240  218.5540 C   0  0  0  0  0  0  0  0  0  0  0  0
  141.4650   73.9940  219.5580 N   0  0  0  0  0  0  0  0  0  0  0  0
  140.1590   73.7640  219.9470 C   0  0  0  0  0  0  0  0  0  0  0  0
  139.4200   73.1310  219.0570 O   0  0  0  0  0  0  0  0  0  0  0  0
  139.4120   74.0830  221.1570 C   0  0  0  0  0  0  0  0  0  0  0  0
  139.5130   73.2700  222.3090 N   0  0  0  0  0  0  0  0  0  0  0  0
  139.5380   71.8400  222.2280 C   0  0  0  0  0  0  0  0  0  0  0  0
  139.4610   71.3480  221.0790 O   0  0  0  0  0  0  0  0  0  0  0  0
  139.6510   71.0140  223.4400 C   0  0  0  0  0  0  0  0  0  0  0  0
  139.1680   69.7250  223.3650 C   0  0  0  0  0  0  0  0  0  0  0  0
  139.2820   68.9580  224.5190 C   0  0  0  0  0  0  0  0  0  0  0  0
  139.8530   69.4720  225.6800 C   0  0  0  0  0  0  0  0  0  0  0  0
  139.9550   68.6790  226.8260 C   0  0  0  0  0  0  0  0  0  0  0  0
  140.5340   69.2300  227.9730 C   0  0  0  0  0  0  0  0  0  0  0  0
  140.6560   68.4910  229.1210 F   0  0  0  0  0  0  0  0  0  0  0  0
  140.9990   70.5340  227.9780 C   0  0  0  0  0  0  0  0  0  0  0  0
  140.8930   71.3190  226.8290 C   0  0  0  0  0  0  0  0  0  0  0  0
  140.3170   70.7730  225.6860 C   0  0  0  0  0  0  0  0  0  0  0  0
  140.2040   71.5120  224.5630 N   0  0  0  0  0  0  0  0  0  0  0  0
  141.5240   79.6420  221.8370 C   0  0  0  0  0  0  0  0  0  0  0  0
  141.4810   81.0070  221.6870 C   0  0  0  0  0  0  0  0  0  0  0  0
  141.8100   81.8810  222.6940 C   0  0  0  0  0  0  0  0  0  0  0  0
  142.1980   81.3150  223.9030 C   0  0  0  0  0  0  0  0  0  0  0  0
  142.2480   79.9430  224.0750 C   0  0  0  0  0  0  0  0  0  0  0  0
  141.9080   79.0740  223.0330 C   0  0  0  0  0  0  0  0  0  0  0  0
  142.3532   80.2545  219.7246 H   0  0  0  0  0  0  0  0  0  0  0  0
  142.2612   78.6955  218.8370 H   0  0  0  0  0  0  0  0  0  0  0  0
  140.8551   79.8133  218.8370 H   0  0  0  0  0  0  0  0  0  0  0  0
  140.0651   78.5694  220.6296 H   0  0  0  0  0  0  0  0  0  0  0  0
  142.5680   77.3880  221.5820 H   0  0  0  0  0  0  0  0  0  0  0  0
  142.2232   74.9207  221.3364 H   0  0  0  0  0  0  0  0  0  0  0  0
  144.0765   76.0153  220.1938 H   0  0  0  0  0  0  0  0  0  0  0  0
  144.0433   74.1871  220.0178 H   0  0  0  0  0  0  0  0  0  0  0  0
  143.5167   76.3041  217.9377 H   0  0  0  0  0  0  0  0  0  0  0  0
  144.7127   74.9503  217.9386 H   0  0  0  0  0  0  0  0  0  0  0  0
  141.8246   74.9489  217.2027 H   0  0  0  0  0  0  0  0  0  0  0  0
  143.1343   73.8795  216.6543 H   0  0  0  0  0  0  0  0  0  0  0  0
  141.6471   72.5491  218.0605 H   0  0  0  0  0  0  0  0  0  0  0  0
  143.1281   72.8419  219.0124 H   0  0  0  0  0  0  0  0  0  0  0  0
  139.7226   75.0941  221.4592 H   0  0  0  0  0  0  0  0  0  0  0  0
  138.3682   73.9322  220.8445 H   0  0  0  0  0  0  0  0  0  0  0  0
  139.5750   73.6450  223.3020 H   0  0  0  0  0  0  0  0  0  0  0  0
  138.7178   69.3258  222.4441 H   0  0  0  0  0  0  0  0  0  0  0  0
  138.9128   67.9218  224.5146 H   0  0  0  0  0  0  0  0  0  0  0  0
  139.5872   67.6423  226.8257 H   0  0  0  0  0  0  0  0  0  0  0  0
  141.4526   70.9519  228.8888 H   0  0  0  0  0  0  0  0  0  0  0  0
  141.2601   72.3560  226.8269 H   0  0  0  0  0  0  0  0  0  0  0  0
  141.1688   81.4187  220.7159 H   0  0  0  0  0  0  0  0  0  0  0  0
  141.7687   82.9709  222.5515 H   0  0  0  0  0  0  0  0  0  0  0  0
  142.4713   81.9725  224.7415 H   0  0  0  0  0  0  0  0  0  0  0  0
  142.5597   79.5295  225.0455 H   0  0  0  0  0  0  0  0  0  0  0  0
  141.9455   77.9823  223.1625 H   0  0  0  0  0  0  0  0  0  0  0  0
  1  2  1  0
  2  3  1  0
  3  4  1  0
  4  5  2  0
  4  6  1  0
  6  7  1  0
  7  8  1  0
  8  9  1  0
  9 10  1  0
 10 11  1  0
 11 12  1  0
 12 13  2  0
 12 14  1  0
 14 15  1  0
 15 16  1  0
 16 17  2  0
 16 18  1  0
 18 19  2  0
 19 20  1  0
 20 21  2  0
 21 22  1  0
 22 23  2  0
 23 24  1  0
 23 25  1  0
 25 26  2  0
 26 27  1  0
 27 28  2  0
  2 29  1  0
 29 30  2  0
 30 31  1  0
 31 32  2  0
 32 33  1  0
 33 34  2  0
 11  6  1  0
 28 18  1  0
 34 29  1  0
 27 21  1  0
  1 35  1  0
  1 36  1  0
  1 37  1  0
  2 38  1  6
  3 39  1  0
  6 40  1  1
  7 41  1  0
  7 42  1  0
  8 43  1  0
  8 44  1  0
  9 45  1  0
  9 46  1  0
 10 47  1  0
 10 48  1  0
 14 49  1  0
 14 50  1  0
 15 51  1  0
 19 52  1  0
 20 53  1  0
 22 54  1  0
 25 55  1  0
 26 56  1  0
 30 57  1  0
 31 58  1  0
 32 59  1  0
 33 60  1  0
 34 61  1  0
M  END
>  <smiles>  (48) 
C[C@@H](NC(=O)C1CCCCN1C(=O)CNC(=O)c1ccc2cc(F)ccc2n1)c1ccccc1

>  <score_type>  (48) 
oracle

>  <origin>  (48) 
autodockgpu

>  <m_score__min__energy>  (48) 
-9.4299999999999997

>  <m_primary>  (48) 
energy

>  <rmsd>  (48) 
2.774137387385554

>  <m_score__min__rmsd>  (48) 
2.774137387385554

>  <meeko>  (48) 
{"free_energy": -9.0, "intermolecular_energy": -11.09, "internal_energy": -1.86, "cluster_size": 32, "cluster_id": 1, "rank_in_cluster": 10}

>  <energy>  (48) 
-7.12

>  <cluster_rmsd>  (48) 
0.18

>  <cluster>  (48) 
11

$$$$

     RDKit          3D

 61 64  0  0  1  0  0  0  0  0999 V2000
  142.1100   79.9780  219.3430 C   0  0  0  0  0  0  0  0  0  0  0  0
  141.4300   79.0600  220.3600 C   0  0  1  0  0  0  0  0  0  0  0  0
  142.0990   77.7720  220.3500 N   0  0  0  0  0  0  0  0  0  0  0  0
  142.2120   77.0720  219.1170 C   0  0  0  0  0  0  0  0  0  0  0  0
  141.7390   77.5640  218.0610 O   0  0  0  0  0  0  0  0  0  0  0  0
  142.9080   75.7540  219.1610 C   0  0  2  0  0  0  0  0  0  0  0  0
  143.6230   75.4520  217.8960 C   0  0  0  0  0  0  0  0  0  0  0  0
  142.7250   75.2340  216.6950 C   0  0  0  0  0  0  0  0  0  0  0  0
  141.5080   74.4000  217.0730 C   0  0  0  0  0  0  0  0  0  0  0  0
  141.8470   73.6880  218.3660 C   0  0  0  0  0  0  0  0  0  0  0  0
  141.9120   74.6780  219.4120 N   0  0  0  0  0  0  0  0  0  0  0  0
  141.1830   74.7660  220.5830 C   0  0  0  0  0  0  0  0  0  0  0  0
  141.8090   75.3590  221.5810 O   0  0  0  0  0  0  0  0  0  0  0  0
  139.8440   74.3280  220.9560 C   0  0  0  0  0  0  0  0  0  0  0  0
  139.6340   73.5230  222.0980 N   0  0  0  0  0  0  0  0  0  0  0  0
  140.4020   72.3390  222.3420 C   0  0  0  0  0  0  0  0  0  0  0  0
  141.2680   72.0530  221.4840 O   0  0  0  0  0  0  0  0  0  0  0  0
  140.1710   71.5190  223.5420 C   0  0  0  0  0  0  0  0  0  0  0  0
  139.4360   70.3650  223.3780 C   0  0  0  0  0  0  0  0  0  0  0  0
  139.2260   69.6020  224.5220 C   0  0  0  0  0  0  0  0  0  0  0  0
  139.7350   69.9910  225.7580 C   0  0  0  0  0  0  0  0  0  0  0  0
  139.5100   69.2050  226.8920 C   0  0  0  0  0  0  0  0  0  0  0  0
  140.0360   69.6290  228.1160 C   0  0  0  0  0  0  0  0  0  0  0  0
  139.8410   68.8920  229.2550 F   0  0  0  0  0  0  0  0  0  0  0  0
  140.7670   70.8010  228.2080 C   0  0  0  0  0  0  0  0  0  0  0  0
  140.9870   71.5790  227.0700 C   0  0  0  0  0  0  0  0  0  0  0  0
  140.4640   71.1600  225.8510 C   0  0  0  0  0  0  0  0  0  0  0  0
  140.6640   71.8960  224.7380 N   0  0  0  0  0  0  0  0  0  0  0  0
  141.6540   79.7030  221.7030 C   0  0  0  0  0  0  0  0  0  0  0  0
  141.7380   78.9300  222.8350 C   0  0  0  0  0  0  0  0  0  0  0  0
  141.9410   79.4570  224.0870 C   0  0  0  0  0  0  0  0  0  0  0  0
  142.0620   80.8400  224.1650 C   0  0  0  0  0  0  0  0  0  0  0  0
  141.9820   81.6370  223.0370 C   0  0  0  0  0  0  0  0  0  0  0  0
  141.7740   81.0750  221.7730 C   0  0  0  0  0  0  0  0  0  0  0  0
  142.6835   80.7522  219.8738 H   0  0  0  0  0  0  0  0  0  0  0  0
  142.7895   79.3864  218.7119 H   0  0  0  0  0  0  0  0  0  0  0  0
  141.3461   80.4556  218.7119 H   0  0  0  0  0  0  0  0  0  0  0  0
  140.3622   78.9184  220.1371 H   0  0  0  0  0  0  0  0  0  0  0  0
  142.4760   77.3940  221.2340 H   0  0  0  0  0  0  0  0  0  0  0  0
  143.6511   75.8027  219.9706 H   0  0  0  0  0  0  0  0  0  0  0  0
  144.2944   76.2943  217.6729 H   0  0  0  0  0  0  0  0  0  0  0  0
  144.1560   74.5039  218.0603 H   0  0  0  0  0  0  0  0  0  0  0  0
  142.3892   76.2098  216.3142 H   0  0  0  0  0  0  0  0  0  0  0  0
  143.2943   74.6964  215.9225 H   0  0  0  0  0  0  0  0  0  0  0  0
  140.6334   75.0512  217.2178 H   0  0  0  0  0  0  0  0  0  0  0  0
  141.2627   73.6791  216.2792 H   0  0  0  0  0  0  0  0  0  0  0  0
  141.0683   72.9472  218.6002 H   0  0  0  0  0  0  0  0  0  0  0  0
  142.8094   73.1633  218.2741 H   0  0  0  0  0  0  0  0  0  0  0  0
  139.2458   75.2396  221.1015 H   0  0  0  0  0  0  0  0  0  0  0  0
  139.5712   73.6537  220.1309 H   0  0  0  0  0  0  0  0  0  0  0  0
  138.9070   73.7250  222.8470 H   0  0  0  0  0  0  0  0  0  0  0  0
  139.0378   70.0641  222.3977 H   0  0  0  0  0  0  0  0  0  0  0  0
  138.6450   68.6709  224.4484 H   0  0  0  0  0  0  0  0  0  0  0  0
  138.9311   68.2722  226.8227 H   0  0  0  0  0  0  0  0  0  0  0  0
  141.1749   71.1195  229.1787 H   0  0  0  0  0  0  0  0  0  0  0  0
  141.5666   72.5116  227.1364 H   0  0  0  0  0  0  0  0  0  0  0  0
  141.6382   77.8392  222.7344 H   0  0  0  0  0  0  0  0  0  0  0  0
  142.0045   78.8188  224.9807 H   0  0  0  0  0  0  0  0  0  0  0  0
  142.2250   81.3110  225.1456 H   0  0  0  0  0  0  0  0  0  0  0  0
  142.0834   82.7279  223.1355 H   0  0  0  0  0  0  0  0  0  0  0  0
  141.7088   81.7020  220.8715 H   0  0  0  0  0  0  0  0  0  0  0  0
  1  2  1  0
  2  3  1  0
  3  4  1  0
  4  5  2  0
  4  6  1  0
  6  7  1  0
  7  8  1  0
  8  9  1  0
  9 10  1  0
 10 11  1  0
 11 12  1  0
 12 13  2  0
 12 14  1  0
 14 15  1  0
 15 16  1  0
 16 17  2  0
 16 18  1  0
 18 19  2  0
 19 20  1  0
 20 21  2  0
 21 22  1  0
 22 23  2  0
 23 24  1  0
 23 25  1  0
 25 26  2  0
 26 27  1  0
 27 28  2  0
  2 29  1  0
 29 30  2  0
 30 31  1  0
 31 32  2  0
 32 33  1  0
 33 34  2  0
 11  6  1  0
 28 18  1  0
 34 29  1  0
 27 21  1  0
  1 35  1  0
  1 36  1  0
  1 37  1  0
  2 38  1  6
  3 39  1  0
  6 40  1  1
  7 41  1  0
  7 42  1  0
  8 43  1  0
  8 44  1  0
  9 45  1  0
  9 46  1  0
 10 47  1  0
 10 48  1  0
 14 49  1  0
 14 50  1  0
 15 51  1  0
 19 52  1  0
 20 53  1  0
 22 54  1  0
 25 55  1  0
 26 56  1  0
 30 57  1  0
 31 58  1  0
 32 59  1  0
 33 60  1  0
 34 61  1  0
M  END
>  <smiles>  (49) 
C[C@@H](NC(=O)C1CCCCN1C(=O)CNC(=O)c1ccc2cc(F)ccc2n1)c1ccccc1

>  <score_type>  (49) 
oracle

>  <origin>  (49) 
autodockgpu

>  <m_score__min__energy>  (49) 
-9.4299999999999997

>  <m_primary>  (49) 
energy

>  <rmsd>  (49) 
2.6810983010589426

>  <m_score__min__rmsd>  (49) 
2.6810983010589426

>  <meeko>  (49) 
{"free_energy": -9.2, "intermolecular_energy": -11.29, "internal_energy": -2.31, "cluster_size": 32, "cluster_id": 1, "rank_in_cluster": 4}

>  <energy>  (49) 
-7.09

>  <cluster_rmsd>  (49) 
0.08

>  <cluster>  (49) 
11

$$$$

     RDKit          3D

 61 64  0  0  1  0  0  0  0  0999 V2000
  141.5080   78.5910  223.4460 C   0  0  0  0  0  0  0  0  0  0  0  0
  140.8770   78.4310  222.0620 C   0  0  1  0  0  0  0  0  0  0  0  0
  141.8130   77.7340  221.1990 N   0  0  0  0  0  0  0  0  0  0  0  0
  141.6600   77.8530  219.7900 C   0  0  0  0  0  0  0  0  0  0  0  0
  140.7290   78.5480  219.3080 O   0  0  0  0  0  0  0  0  0  0  0  0
  142.6470   77.1170  218.9480 C   0  0  2  0  0  0  0  0  0  0  0  0
  142.9260   77.8150  217.6680 C   0  0  0  0  0  0  0  0  0  0  0  0
  141.7550   77.8710  216.7080 C   0  0  0  0  0  0  0  0  0  0  0  0
  141.0130   76.5410  216.6800 C   0  0  0  0  0  0  0  0  0  0  0  0
  141.9580   75.4980  217.2380 C   0  0  0  0  0  0  0  0  0  0  0  0
  142.1230   75.7590  218.6450 N   0  0  0  0  0  0  0  0  0  0  0  0
  141.8570   74.9400  219.7270 C   0  0  0  0  0  0  0  0  0  0  0  0
  142.5940   75.1760  220.7940 O   0  0  0  0  0  0  0  0  0  0  0  0
  140.9160   73.8470  219.9370 C   0  0  0  0  0  0  0  0  0  0  0  0
  140.8050   73.2160  221.1970 N   0  0  0  0  0  0  0  0  0  0  0  0
  139.9070   72.1220  221.4200 C   0  0  0  0  0  0  0  0  0  0  0  0
  139.2220   71.7580  220.4370 O   0  0  0  0  0  0  0  0  0  0  0  0
  139.8120   71.4760  222.7380 C   0  0  0  0  0  0  0  0  0  0  0  0
  138.9850   70.3790  222.8390 C   0  0  0  0  0  0  0  0  0  0  0  0
  138.9060   69.7810  224.0910 C   0  0  0  0  0  0  0  0  0  0  0  0
  139.6270   70.2710  225.1770 C   0  0  0  0  0  0  0  0  0  0  0  0
  139.5290   69.6500  226.4260 C   0  0  0  0  0  0  0  0  0  0  0  0
  140.2680   70.1710  227.4930 C   0  0  0  0  0  0  0  0  0  0  0  0
  140.2040   69.5970  228.7360 F   0  0  0  0  0  0  0  0  0  0  0  0
  141.0810   71.2780  227.3210 C   0  0  0  0  0  0  0  0  0  0  0  0
  141.1720   71.8920  226.0700 C   0  0  0  0  0  0  0  0  0  0  0  0
  140.4380   71.3750  225.0070 C   0  0  0  0  0  0  0  0  0  0  0  0
  140.5100   71.9510  223.7890 N   0  0  0  0  0  0  0  0  0  0  0  0
  139.6710   77.5530  222.2640 C   0  0  0  0  0  0  0  0  0  0  0  0
  139.7840   76.1870  222.1660 C   0  0  0  0  0  0  0  0  0  0  0  0
  138.7220   75.3340  222.3390 C   0  0  0  0  0  0  0  0  0  0  0  0
  137.4950   75.9220  222.6250 C   0  0  0  0  0  0  0  0  0  0  0  0
  137.3590   77.2950  222.7280 C   0  0  0  0  0  0  0  0  0  0  0  0
  138.4570   78.1430  222.5470 C   0  0  0  0  0  0  0  0  0  0  0  0
  140.7496   78.3987  224.2192 H   0  0  0  0  0  0  0  0  0  0  0  0
  142.3349   77.8741  223.5571 H   0  0  0  0  0  0  0  0  0  0  0  0
  141.8933   79.6153  223.5571 H   0  0  0  0  0  0  0  0  0  0  0  0
  140.6177   79.4009  221.6124 H   0  0  0  0  0  0  0  0  0  0  0  0
  142.5670   77.1710  221.6250 H   0  0  0  0  0  0  0  0  0  0  0  0
  143.5860   77.0598  219.5181 H   0  0  0  0  0  0  0  0  0  0  0  0
  143.2287   78.8469  217.8995 H   0  0  0  0  0  0  0  0  0  0  0  0
  143.7132   77.2354  217.1637 H   0  0  0  0  0  0  0  0  0  0  0  0
  141.0629   78.6632  217.0296 H   0  0  0  0  0  0  0  0  0  0  0  0
  142.1372   78.0823  215.6984 H   0  0  0  0  0  0  0  0  0  0  0  0
  140.1065   76.6005  217.3002 H   0  0  0  0  0  0  0  0  0  0  0  0
  140.7037   76.2843  215.6560 H   0  0  0  0  0  0  0  0  0  0  0  0
  141.5349   74.4933  217.0912 H   0  0  0  0  0  0  0  0  0  0  0  0
  142.9287   75.5450  216.7227 H   0  0  0  0  0  0  0  0  0  0  0  0
  139.9182   74.2422  219.6957 H   0  0  0  0  0  0  0  0  0  0  0  0
  141.3256   73.0485  219.3009 H   0  0  0  0  0  0  0  0  0  0  0  0
  141.3620   73.4970  222.0570 H   0  0  0  0  0  0  0  0  0  0  0  0
  138.4186   69.9975  221.9766 H   0  0  0  0  0  0  0  0  0  0  0  0
  138.2598   68.9013  224.2272 H   0  0  0  0  0  0  0  0  0  0  0  0
  138.8841   68.7700  226.5664 H   0  0  0  0  0  0  0  0  0  0  0  0
  141.6561   71.6746  228.1707 H   0  0  0  0  0  0  0  0  0  0  0  0
  141.8154   72.7727  225.9269 H   0  0  0  0  0  0  0  0  0  0  0  0
  140.7706   75.7571  221.9385 H   0  0  0  0  0  0  0  0  0  0  0  0
  138.8360   74.2431  222.2557 H   0  0  0  0  0  0  0  0  0  0  0  0
  136.6130   75.2815  222.7726 H   0  0  0  0  0  0  0  0  0  0  0  0
  136.3730   77.7263  222.9556 H   0  0  0  0  0  0  0  0  0  0  0  0
  138.3561   79.2354  222.6271 H   0  0  0  0  0  0  0  0  0  0  0  0
  1  2  1  0
  2  3  1  0
  3  4  1  0
  4  5  2  0
  4  6  1  0
  6  7  1  0
  7  8  1  0
  8  9  1  0
  9 10  1  0
 10 11  1  0
 11 12  1  0
 12 13  2  0
 12 14  1  0
 14 15  1  0
 15 16  1  0
 16 17  2  0
 16 18  1  0
 18 19  2  0
 19 20  1  0
 20 21  2  0
 21 22  1  0
 22 23  2  0
 23 24  1  0
 23 25  1  0
 25 26  2  0
 26 27  1  0
 27 28  2  0
  2 29  1  0
 29 30  2  0
 30 31  1  0
 31 32  2  0
 32 33  1  0
 33 34  2  0
 11  6  1  0
 28 18  1  0
 34 29  1  0
 27 21  1  0
  1 35  1  0
  1 36  1  0
  1 37  1  0
  2 38  1  6
  3 39  1  0
  6 40  1  1
  7 41  1  0
  7 42  1  0
  8 43  1  0
  8 44  1  0
  9 45  1  0
  9 46  1  0
 10 47  1  0
 10 48  1  0
 14 49  1  0
 14 50  1  0
 15 51  1  0
 19 52  1  0
 20 53  1  0
 22 54  1  0
 25 55  1  0
 26 56  1  0
 30 57  1  0
 31 58  1  0
 32 59  1  0
 33 60  1  0
 34 61  1  0
M  END
>  <smiles>  (50) 
C[C@@H](NC(=O)C1CCCCN1C(=O)CNC(=O)c1ccc2cc(F)ccc2n1)c1ccccc1

>  <score_type>  (50) 
oracle

>  <origin>  (50) 
autodockgpu

>  <m_score__min__energy>  (50) 
-9.4299999999999997

>  <m_primary>  (50) 
energy

>  <rmsd>  (50) 
3.1610335689333593

>  <m_score__min__rmsd>  (50) 
3.1610335689333593

>  <meeko>  (50) 
{"free_energy": -7.17, "intermolecular_energy": -9.26, "internal_energy": -3.72, "cluster_size": 32, "cluster_id": 1, "rank_in_cluster": 32}

>  <energy>  (50) 
-7.09

>  <cluster_rmsd>  (50) 
0.19

>  <cluster>  (50) 
11

$$$$

     RDKit          3D

 61 64  0  0  1  0  0  0  0  0999 V2000
  142.1760   79.7710  223.9130 C   0  0  0  0  0  0  0  0  0  0  0  0
  142.2110   79.3120  222.4770 C   0  0  1  0  0  0  0  0  0  0  0  0
  141.3990   78.1220  222.3540 N   0  0  0  0  0  0  0  0  0  0  0  0
  140.0020   78.1120  222.6280 C   0  0  0  0  0  0  0  0  0  0  0  0
  139.4700   79.2000  222.9940 O   0  0  0  0  0  0  0  0  0  0  0  0
  139.1750   76.9100  222.5040 C   0  0  1  0  0  0  0  0  0  0  0  0
  137.6960   77.1620  222.6550 C   0  0  0  0  0  0  0  0  0  0  0  0
  137.0520   77.7850  221.4790 C   0  0  0  0  0  0  0  0  0  0  0  0
  137.7220   77.5840  220.1670 C   0  0  0  0  0  0  0  0  0  0  0  0
  138.7180   76.4970  220.0750 C   0  0  0  0  0  0  0  0  0  0  0  0
  139.3520   76.1280  221.3240 N   0  0  0  0  0  0  0  0  0  0  0  0
  140.1570   74.9420  221.2980 C   0  0  0  0  0  0  0  0  0  0  0  0
  141.4180   75.1200  221.3570 O   0  0  0  0  0  0  0  0  0  0  0  0
  139.5480   73.5960  221.2090 C   0  0  0  0  0  0  0  0  0  0  0  0
  139.7000   72.9810  222.5210 N   0  0  0  0  0  0  0  0  0  0  0  0
  140.0490   71.6110  222.6810 C   0  0  0  0  0  0  0  0  0  0  0  0
  140.2430   70.8550  221.6700 O   0  0  0  0  0  0  0  0  0  0  0  0
  140.1850   71.0630  224.0320 C   0  0  0  0  0  0  0  0  0  0  0  0
  140.6990   71.8410  225.0480 C   0  0  0  0  0  0  0  0  0  0  0  0
  140.8440   71.3610  226.3420 C   0  0  0  0  0  0  0  0  0  0  0  0
  140.4600   70.0710  226.5970 C   0  0  0  0  0  0  0  0  0  0  0  0
  140.5920   69.5680  227.8660 C   0  0  0  0  0  0  0  0  0  0  0  0
  140.2020   68.2580  228.1280 C   0  0  0  0  0  0  0  0  0  0  0  0
  140.3580   67.8270  229.3940 F   0  0  0  0  0  0  0  0  0  0  0  0
  139.6950   67.5030  227.1090 C   0  0  0  0  0  0  0  0  0  0  0  0
  139.5440   67.9740  225.8070 C   0  0  0  0  0  0  0  0  0  0  0  0
  139.9420   69.2800  225.5830 C   0  0  0  0  0  0  0  0  0  0  0  0
  139.8250   69.8030  224.3440 N   0  0  0  0  0  0  0  0  0  0  0  0
  141.7760   80.3830  221.5430 C   0  0  0  0  0  0  0  0  0  0  0  0
  141.7170   80.2010  220.1700 C   0  0  0  0  0  0  0  0  0  0  0  0
  141.3140   81.1930  219.3020 C   0  0  0  0  0  0  0  0  0  0  0  0
  140.9480   82.4230  219.7930 C   0  0  0  0  0  0  0  0  0  0  0  0
  140.9940   82.6460  221.1720 C   0  0  0  0  0  0  0  0  0  0  0  0
  141.4050   81.6320  222.0390 C   0  0  0  0  0  0  0  0  0  0  0  0
  142.2426   78.8979  224.5787 H   0  0  0  0  0  0  0  0  0  0  0  0
  143.0255   80.4433  224.1039 H   0  0  0  0  0  0  0  0  0  0  0  0
  141.2344   80.3067  224.1039 H   0  0  0  0  0  0  0  0  0  0  0  0
  143.2472   79.0735  222.1951 H   0  0  0  0  0  0  0  0  0  0  0  0
  141.8890   77.2510  222.0470 H   0  0  0  0  0  0  0  0  0  0  0  0
  139.5613   76.3281  223.3538 H   0  0  0  0  0  0  0  0  0  0  0  0
  137.2019   76.1979  222.8455 H   0  0  0  0  0  0  0  0  0  0  0  0
  137.5857   77.8763  223.4842 H   0  0  0  0  0  0  0  0  0  0  0  0
  136.0343   77.3751  221.4000 H   0  0  0  0  0  0  0  0  0  0  0  0
  137.0975   78.8683  221.6642 H   0  0  0  0  0  0  0  0  0  0  0  0
  136.9379   77.3776  219.4236 H   0  0  0  0  0  0  0  0  0  0  0  0
  138.2951   78.5075  219.9979 H   0  0  0  0  0  0  0  0  0  0  0  0
  138.2119   75.6060  219.6750 H   0  0  0  0  0  0  0  0  0  0  0  0
  139.5221   76.8767  219.4275 H   0  0  0  0  0  0  0  0  0  0  0  0
  138.4821   73.6784  220.9500 H   0  0  0  0  0  0  0  0  0  0  0  0
  140.0351   72.9917  220.4296 H   0  0  0  0  0  0  0  0  0  0  0  0
  139.5540   73.5470  223.4090 H   0  0  0  0  0  0  0  0  0  0  0  0
  141.0036   72.8744  224.8258 H   0  0  0  0  0  0  0  0  0  0  0  0
  141.2551   71.9976  227.1393 H   0  0  0  0  0  0  0  0  0  0  0  0
  141.0030   70.1953  228.6707 H   0  0  0  0  0  0  0  0  0  0  0  0
  139.3901   66.4691  227.3280 H   0  0  0  0  0  0  0  0  0  0  0  0
  139.1325   67.3447  225.0041 H   0  0  0  0  0  0  0  0  0  0  0  0
  142.0040   79.2233  219.7556 H   0  0  0  0  0  0  0  0  0  0  0  0
  141.2855   81.0005  218.2193 H   0  0  0  0  0  0  0  0  0  0  0  0
  140.6231   83.2216  219.1098 H   0  0  0  0  0  0  0  0  0  0  0  0
  140.7045   83.6270  221.5768 H   0  0  0  0  0  0  0  0  0  0  0  0
  141.4364   81.8200  223.1224 H   0  0  0  0  0  0  0  0  0  0  0  0
  1  2  1  0
  2  3  1  0
  3  4  1  0
  4  5  2  0
  4  6  1  0
  6  7  1  0
  7  8  1  0
  8  9  1  0
  9 10  1  0
 10 11  1  0
 11 12  1  0
 12 13  2  0
 12 14  1  0
 14 15  1  0
 15 16  1  0
 16 17  2  0
 16 18  1  0
 18 19  2  0
 19 20  1  0
 20 21  2  0
 21 22  1  0
 22 23  2  0
 23 24  1  0
 23 25  1  0
 25 26  2  0
 26 27  1  0
 27 28  2  0
  2 29  1  0
 29 30  2  0
 30 31  1  0
 31 32  2  0
 32 33  1  0
 33 34  2  0
 11  6  1  0
 28 18  1  0
 34 29  1  0
 27 21  1  0
  1 35  1  0
  1 36  1  0
  1 37  1  0
  2 38  1  6
  3 39  1  0
  6 40  1  1
  7 41  1  0
  7 42  1  0
  8 43  1  0
  8 44  1  0
  9 45  1  0
  9 46  1  0
 10 47  1  0
 10 48  1  0
 14 49  1  0
 14 50  1  0
 15 51  1  0
 19 52  1  0
 20 53  1  0
 22 54  1  0
 25 55  1  0
 26 56  1  0
 30 57  1  0
 31 58  1  0
 32 59  1  0
 33 60  1  0
 34 61  1  0
M  END
>  <smiles>  (51) 
C[C@@H](NC(=O)C1CCCCN1C(=O)CNC(=O)c1ccc2cc(F)ccc2n1)c1ccccc1

>  <score_type>  (51) 
oracle

>  <origin>  (51) 
autodockgpu

>  <m_score__min__energy>  (51) 
-9.5999999999999996

>  <m_primary>  (51) 
energy

>  <rmsd>  (51) 
3.226902419189371

>  <m_score__min__rmsd>  (51) 
3.226902419189371

>  <meeko>  (51) 
{"free_energy": -9.07, "intermolecular_energy": -11.16, "internal_energy": -2.47, "cluster_size": 17, "cluster_id": 2, "rank_in_cluster": 6}

>  <energy>  (51) 
-9.6

>  <cluster_rmsd>  (51) 
0.0

>  <cluster>  (51) 
1

$$$$

     RDKit          3D

 61 64  0  0  1  0  0  0  0  0999 V2000
  138.6300   79.8770  222.0130 C   0  0  0  0  0  0  0  0  0  0  0  0
  139.6930   78.8870  222.4210 C   0  0  1  0  0  0  0  0  0  0  0  0
  139.9440   77.9970  221.3090 N   0  0  0  0  0  0  0  0  0  0  0  0
  140.2430   76.6160  221.4810 C   0  0  0  0  0  0  0  0  0  0  0  0
  140.2870   76.1700  222.6640 O   0  0  0  0  0  0  0  0  0  0  0  0
  140.4980   75.7110  220.3580 C   0  0  1  0  0  0  0  0  0  0  0  0
  140.5310   76.3930  219.0130 C   0  0  0  0  0  0  0  0  0  0  0  0
  141.7650   77.1580  218.7380 C   0  0  0  0  0  0  0  0  0  0  0  0
  142.9850   76.7460  219.4820 C   0  0  0  0  0  0  0  0  0  0  0  0
  142.9740   75.4110  220.1140 C   0  0  0  0  0  0  0  0  0  0  0  0
  141.6630   74.8920  220.4450 N   0  0  0  0  0  0  0  0  0  0  0  0
  141.6120   73.5200  220.8600 C   0  0  0  0  0  0  0  0  0  0  0  0
  142.7350   72.9620  221.0870 O   0  0  0  0  0  0  0  0  0  0  0  0
  140.3240   72.8060  221.0110 C   0  0  0  0  0  0  0  0  0  0  0  0
  140.4460   71.9720  222.1990 N   0  0  0  0  0  0  0  0  0  0  0  0
  139.3320   71.2940  222.7680 C   0  0  0  0  0  0  0  0  0  0  0  0
  138.1660   71.3920  222.2560 O   0  0  0  0  0  0  0  0  0  0  0  0
  139.5310   70.4730  223.9630 C   0  0  0  0  0  0  0  0  0  0  0  0
  139.0510   69.1800  224.0030 C   0  0  0  0  0  0  0  0  0  0  0  0
  139.2190   68.3670  225.1160 C   0  0  0  0  0  0  0  0  0  0  0  0
  139.8830   68.8830  226.1970 C   0  0  0  0  0  0  0  0  0  0  0  0
  140.0630   68.1040  227.3100 C   0  0  0  0  0  0  0  0  0  0  0  0
  140.7390   68.6260  228.4110 C   0  0  0  0  0  0  0  0  0  0  0  0
  140.8810   67.8080  229.4710 F   0  0  0  0  0  0  0  0  0  0  0  0
  141.2060   69.9080  228.3510 C   0  0  0  0  0  0  0  0  0  0  0  0
  141.0440   70.7320  227.2410 C   0  0  0  0  0  0  0  0  0  0  0  0
  140.3690   70.1810  226.1670 C   0  0  0  0  0  0  0  0  0  0  0  0
  140.1750   70.9240  225.0560 N   0  0  0  0  0  0  0  0  0  0  0  0
  140.9320   79.5650  222.8840 C   0  0  0  0  0  0  0  0  0  0  0  0
  142.1970   79.1730  222.4730 C   0  0  0  0  0  0  0  0  0  0  0  0
  143.3480   79.8000  222.9020 C   0  0  0  0  0  0  0  0  0  0  0  0
  143.2650   80.8610  223.7710 C   0  0  0  0  0  0  0  0  0  0  0  0
  142.0060   81.2850  224.2070 C   0  0  0  0  0  0  0  0  0  0  0  0
  140.8490   80.6410  223.7660 C   0  0  0  0  0  0  0  0  0  0  0  0
  138.1665   80.3087  222.9123 H   0  0  0  0  0  0  0  0  0  0  0  0
  139.0864   80.6793  221.4146 H   0  0  0  0  0  0  0  0  0  0  0  0
  137.8622   79.3648  221.4146 H   0  0  0  0  0  0  0  0  0  0  0  0
  139.3357   78.3004  223.2802 H   0  0  0  0  0  0  0  0  0  0  0  0
  139.8950   78.4180  220.3540 H   0  0  0  0  0  0  0  0  0  0  0  0
  139.6192   75.0549  220.4426 H   0  0  0  0  0  0  0  0  0  0  0  0
  140.4255   75.6221  218.2354 H   0  0  0  0  0  0  0  0  0  0  0  0
  139.7075   77.1223  219.0145 H   0  0  0  0  0  0  0  0  0  0  0  0
  141.9824   77.0654  217.6637 H   0  0  0  0  0  0  0  0  0  0  0  0
  141.5518   78.1827  219.0764 H   0  0  0  0  0  0  0  0  0  0  0  0
  143.8272   76.7700  218.7748 H   0  0  0  0  0  0  0  0  0  0  0  0
  143.0578   77.4548  220.3200 H   0  0  0  0  0  0  0  0  0  0  0  0
  143.4543   74.7037  219.4219 H   0  0  0  0  0  0  0  0  0  0  0  0
  143.5061   75.5235  221.0701 H   0  0  0  0  0  0  0  0  0  0  0  0
  139.5029   73.5272  221.1365 H   0  0  0  0  0  0  0  0  0  0  0  0
  140.1011   72.1984  220.1215 H   0  0  0  0  0  0  0  0  0  0  0  0
  141.3840   71.8420  222.6810 H   0  0  0  0  0  0  0  0  0  0  0  0
  138.5191   68.7812  223.1266 H   0  0  0  0  0  0  0  0  0  0  0  0
  138.8300   67.3382  225.1291 H   0  0  0  0  0  0  0  0  0  0  0  0
  139.6767   67.0743  227.3341 H   0  0  0  0  0  0  0  0  0  0  0  0
  141.7380   70.3104  229.2257 H   0  0  0  0  0  0  0  0  0  0  0  0
  141.4304   71.7617  227.2193 H   0  0  0  0  0  0  0  0  0  0  0  0
  142.2862   78.3268  221.7759 H   0  0  0  0  0  0  0  0  0  0  0  0
  144.3300   79.4516  222.5493 H   0  0  0  0  0  0  0  0  0  0  0  0
  144.1762   81.3697  224.1188 H   0  0  0  0  0  0  0  0  0  0  0  0
  141.9268   82.1330  224.9032 H   0  0  0  0  0  0  0  0  0  0  0  0
  139.8649   80.9850  224.1169 H   0  0  0  0  0  0  0  0  0  0  0  0
  1  2  1  0
  2  3  1  0
  3  4  1  0
  4  5  2  0
  4  6  1  0
  6  7  1  0
  7  8  1  0
  8  9  1  0
  9 10  1  0
 10 11  1  0
 11 12  1  0
 12 13  2  0
 12 14  1  0
 14 15  1  0
 15 16  1  0
 16 17  2  0
 16 18  1  0
 18 19  2  0
 19 20  1  0
 20 21  2  0
 21 22  1  0
 22 23  2  0
 23 24  1  0
 23 25  1  0
 25 26  2  0
 26 27  1  0
 27 28  2  0
  2 29  1  0
 29 30  2  0
 30 31  1  0
 31 32  2  0
 32 33  1  0
 33 34  2  0
 11  6  1  0
 28 18  1  0
 34 29  1  0
 27 21  1  0
  1 35  1  0
  1 36  1  0
  1 37  1  0
  2 38  1  1
  3 39  1  0
  6 40  1  6
  7 41  1  0
  7 42  1  0
  8 43  1  0
  8 44  1  0
  9 45  1  0
  9 46  1  0
 10 47  1  0
 10 48  1  0
 14 49  1  0
 14 50  1  0
 15 51  1  0
 19 52  1  0
 20 53  1  0
 22 54  1  0
 25 55  1  0
 26 56  1  0
 30 57  1  0
 31 58  1  0
 32 59  1  0
 33 60  1  0
 34 61  1  0
M  END
>  <smiles>  (52) 
C[C@@H](NC(=O)C1CCCCN1C(=O)CNC(=O)c1ccc2cc(F)ccc2n1)c1ccccc1

>  <score_type>  (52) 
oracle

>  <origin>  (52) 
autodockgpu

>  <m_score__min__energy>  (52) 
-9.5999999999999996

>  <m_primary>  (52) 
energy

>  <rmsd>  (52) 
2.9964194435339553

>  <m_score__min__rmsd>  (52) 
2.9964194435339553

>  <meeko>  (52) 
{"free_energy": -8.81, "intermolecular_energy": -10.9, "internal_energy": -2.41, "cluster_size": 26, "cluster_id": 1, "rank_in_cluster": 13}

>  <energy>  (52) 
-9.23

>  <cluster_rmsd>  (52) 
0.58

>  <cluster>  (52) 
1

$$$$

     RDKit          3D

 61 64  0  0  1  0  0  0  0  0999 V2000
  142.1480   79.7800  223.9240 C   0  0  0  0  0  0  0  0  0  0  0  0
  142.1960   79.3460  222.4800 C   0  0  1  0  0  0  0  0  0  0  0  0
  141.3760   78.1650  222.3270 N   0  0  0  0  0  0  0  0  0  0  0  0
  139.9890   78.1440  222.6490 C   0  0  0  0  0  0  0  0  0  0  0  0
  139.4740   79.2140  223.0880 O   0  0  0  0  0  0  0  0  0  0  0  0
  139.1530   76.9510  222.4950 C   0  0  1  0  0  0  0  0  0  0  0  0
  137.6730   77.2190  222.5990 C   0  0  0  0  0  0  0  0  0  0  0  0
  137.0740   77.8520  221.4050 C   0  0  0  0  0  0  0  0  0  0  0  0
  137.7840   77.6480  220.1140 C   0  0  0  0  0  0  0  0  0  0  0  0
  138.7710   76.5510  220.0510 C   0  0  0  0  0  0  0  0  0  0  0  0
  139.3600   76.1710  221.3180 N   0  0  0  0  0  0  0  0  0  0  0  0
  140.1540   74.9760  221.3150 C   0  0  0  0  0  0  0  0  0  0  0  0
  141.4160   75.1430  221.3740 O   0  0  0  0  0  0  0  0  0  0  0  0
  139.5300   73.6360  221.2460 C   0  0  0  0  0  0  0  0  0  0  0  0
  139.7120   73.0230  222.5550 N   0  0  0  0  0  0  0  0  0  0  0  0
  140.0440   71.6490  222.7100 C   0  0  0  0  0  0  0  0  0  0  0  0
  140.1970   70.8860  221.6970 O   0  0  0  0  0  0  0  0  0  0  0  0
  140.2110   71.1030  224.0580 C   0  0  0  0  0  0  0  0  0  0  0  0
  140.6700   71.9070  225.0800 C   0  0  0  0  0  0  0  0  0  0  0  0
  140.8430   71.4300  226.3720 C   0  0  0  0  0  0  0  0  0  0  0  0
  140.5420   70.1170  226.6190 C   0  0  0  0  0  0  0  0  0  0  0  0
  140.7030   69.6170  227.8850 C   0  0  0  0  0  0  0  0  0  0  0  0
  140.3980   68.2820  228.1400 C   0  0  0  0  0  0  0  0  0  0  0  0
  140.5780   67.8550  229.4040 F   0  0  0  0  0  0  0  0  0  0  0  0
  139.9450   67.5010  227.1150 C   0  0  0  0  0  0  0  0  0  0  0  0
  139.7680   67.9690  225.8150 C   0  0  0  0  0  0  0  0  0  0  0  0
  140.0800   69.2990  225.5990 C   0  0  0  0  0  0  0  0  0  0  0  0
  139.9330   69.8210  224.3620 N   0  0  0  0  0  0  0  0  0  0  0  0
  141.7800   80.4370  221.5610 C   0  0  0  0  0  0  0  0  0  0  0  0
  141.7000   80.2680  220.1870 C   0  0  0  0  0  0  0  0  0  0  0  0
  141.3160   81.2780  219.3310 C   0  0  0  0  0  0  0  0  0  0  0  0
  140.9910   82.5150  219.8370 C   0  0  0  0  0  0  0  0  0  0  0  0
  141.0600   82.7240  221.2170 C   0  0  0  0  0  0  0  0  0  0  0  0
  141.4510   81.6920  222.0710 C   0  0  0  0  0  0  0  0  0  0  0  0
  142.2455   78.8988  224.5751 H   0  0  0  0  0  0  0  0  0  0  0  0
  142.9745   80.4776  224.1249 H   0  0  0  0  0  0  0  0  0  0  0  0
  141.1891   80.2801  224.1249 H   0  0  0  0  0  0  0  0  0  0  0  0
  143.2332   79.1039  222.2051 H   0  0  0  0  0  0  0  0  0  0  0  0
  141.8510   77.3100  221.9600 H   0  0  0  0  0  0  0  0  0  0  0  0
  139.5045   76.3620  223.3550 H   0  0  0  0  0  0  0  0  0  0  0  0
  137.1625   76.2599  222.7707 H   0  0  0  0  0  0  0  0  0  0  0  0
  137.5441   77.9325  223.4263 H   0  0  0  0  0  0  0  0  0  0  0  0
  136.0552   77.4530  221.2918 H   0  0  0  0  0  0  0  0  0  0  0  0
  137.1249   78.9342  221.5952 H   0  0  0  0  0  0  0  0  0  0  0  0
  137.0222   77.4520  219.3451 H   0  0  0  0  0  0  0  0  0  0  0  0
  138.3716   78.5661  219.9661 H   0  0  0  0  0  0  0  0  0  0  0  0
  138.2690   75.6667  219.6315 H   0  0  0  0  0  0  0  0  0  0  0  0
  139.5998   76.9247  219.4318 H   0  0  0  0  0  0  0  0  0  0  0  0
  138.4583   73.7280  221.0159 H   0  0  0  0  0  0  0  0  0  0  0  0
  139.9896   73.0251  220.4551 H   0  0  0  0  0  0  0  0  0  0  0  0
  139.6010   73.5940  223.4450 H   0  0  0  0  0  0  0  0  0  0  0  0
  140.9065   72.9595  224.8646 H   0  0  0  0  0  0  0  0  0  0  0  0
  141.2110   72.0871  227.1737 H   0  0  0  0  0  0  0  0  0  0  0  0
  141.0705   70.2654  228.6940 H   0  0  0  0  0  0  0  0  0  0  0  0
  139.7077   66.4480  227.3271 H   0  0  0  0  0  0  0  0  0  0  0  0
  139.4014   67.3186  225.0072 H   0  0  0  0  0  0  0  0  0  0  0  0
  141.9539   79.2858  219.7618 H   0  0  0  0  0  0  0  0  0  0  0  0
  141.2697   81.0953  218.2473 H   0  0  0  0  0  0  0  0  0  0  0  0
  140.6810   83.3286  219.1647 H   0  0  0  0  0  0  0  0  0  0  0  0
  140.8041   83.7095  221.6332 H   0  0  0  0  0  0  0  0  0  0  0  0
  141.5000   81.8702  223.1554 H   0  0  0  0  0  0  0  0  0  0  0  0
  1  2  1  0
  2  3  1  0
  3  4  1  0
  4  5  2  0
  4  6  1  0
  6  7  1  0
  7  8  1  0
  8  9  1  0
  9 10  1  0
 10 11  1  0
 11 12  1  0
 12 13  2  0
 12 14  1  0
 14 15  1  0
 15 16  1  0
 16 17  2  0
 16 18  1  0
 18 19  2  0
 19 20  1  0
 20 21  2  0
 21 22  1  0
 22 23  2  0
 23 24  1  0
 23 25  1  0
 25 26  2  0
 26 27  1  0
 27 28  2  0
  2 29  1  0
 29 30  2  0
 30 31  1  0
 31 32  2  0
 32 33  1  0
 33 34  2  0
 11  6  1  0
 28 18  1  0
 34 29  1  0
 27 21  1  0
  1 35  1  0
  1 36  1  0
  1 37  1  0
  2 38  1  6
  3 39  1  0
  6 40  1  1
  7 41  1  0
  7 42  1  0
  8 43  1  0
  8 44  1  0
  9 45  1  0
  9 46  1  0
 10 47  1  0
 10 48  1  0
 14 49  1  0
 14 50  1  0
 15 51  1  0
 19 52  1  0
 20 53  1  0
 22 54  1  0
 25 55  1  0
 26 56  1  0
 30 57  1  0
 31 58  1  0
 32 59  1  0
 33 60  1  0
 34 61  1  0
M  END
>  <smiles>  (53) 
C[C@@H](NC(=O)C1CCCCN1C(=O)CNC(=O)c1ccc2cc(F)ccc2n1)c1ccccc1

>  <score_type>  (53) 
oracle

>  <origin>  (53) 
autodockgpu

>  <m_score__min__energy>  (53) 
-9.5999999999999996

>  <m_primary>  (53) 
energy

>  <rmsd>  (53) 
3.2236476074517135

>  <m_score__min__rmsd>  (53) 
3.2236476074517135

>  <meeko>  (53) 
{"free_energy": -9.08, "intermolecular_energy": -11.17, "internal_energy": -2.47, "cluster_size": 17, "cluster_id": 2, "rank_in_cluster": 4}

>  <energy>  (53) 
-9.19

>  <cluster_rmsd>  (53) 
1.75

>  <cluster>  (53) 
1

$$$$

     RDKit          3D

 61 64  0  0  1  0  0  0  0  0999 V2000
  138.0420   77.6610  222.2570 C   0  0  0  0  0  0  0  0  0  0  0  0
  139.4180   77.2460  222.7180 C   0  0  1  0  0  0  0  0  0  0  0  0
  139.9700   76.3260  221.7490 N   0  0  0  0  0  0  0  0  0  0  0  0
  140.2240   76.6920  220.3970 C   0  0  0  0  0  0  0  0  0  0  0  0
  139.9450   77.8770  220.0500 O   0  0  0  0  0  0  0  0  0  0  0  0
  140.7840   75.7640  219.4120 C   0  0  1  0  0  0  0  0  0  0  0  0
  141.0610   76.3870  218.0680 C   0  0  0  0  0  0  0  0  0  0  0  0
  142.2670   77.2410  218.0190 C   0  0  0  0  0  0  0  0  0  0  0  0
  143.3210   76.9650  219.0320 C   0  0  0  0  0  0  0  0  0  0  0  0
  143.2680   75.6630  219.7270 C   0  0  0  0  0  0  0  0  0  0  0  0
  141.9570   75.0500  219.7980 N   0  0  0  0  0  0  0  0  0  0  0  0
  141.9160   73.6980  220.2740 C   0  0  0  0  0  0  0  0  0  0  0  0
  142.9820   73.2660  220.8240 O   0  0  0  0  0  0  0  0  0  0  0  0
  140.7010   72.8650  220.1290 C   0  0  0  0  0  0  0  0  0  0  0  0
  140.6410   72.0080  221.3060 N   0  0  0  0  0  0  0  0  0  0  0  0
  140.1280   72.4650  222.5520 C   0  0  0  0  0  0  0  0  0  0  0  0
  139.6970   73.6590  222.6930 O   0  0  0  0  0  0  0  0  0  0  0  0
  140.0980   71.5460  223.6910 C   0  0  0  0  0  0  0  0  0  0  0  0
  139.5590   70.2830  223.5500 C   0  0  0  0  0  0  0  0  0  0  0  0
  139.5110   69.3820  224.6030 C   0  0  0  0  0  0  0  0  0  0  0  0
  140.0200   69.7760  225.8130 C   0  0  0  0  0  0  0  0  0  0  0  0
  139.9860   68.9070  226.8730 C   0  0  0  0  0  0  0  0  0  0  0  0
  140.5020   69.3050  228.1030 C   0  0  0  0  0  0  0  0  0  0  0  0
  140.4370   68.4040  229.1010 F   0  0  0  0  0  0  0  0  0  0  0  0
  141.0300   70.5590  228.2230 C   0  0  0  0  0  0  0  0  0  0  0  0
  141.0840   71.4720  227.1730 C   0  0  0  0  0  0  0  0  0  0  0  0
  140.5630   71.0420  225.9660 C   0  0  0  0  0  0  0  0  0  0  0  0
  140.5810   71.8760  224.9040 N   0  0  0  0  0  0  0  0  0  0  0  0
  140.3030   78.4190  222.9410 C   0  0  0  0  0  0  0  0  0  0  0  0
  141.6860   78.3370  222.8700 C   0  0  0  0  0  0  0  0  0  0  0  0
  142.5090   79.4230  223.0760 C   0  0  0  0  0  0  0  0  0  0  0  0
  141.9620   80.6500  223.3650 C   0  0  0  0  0  0  0  0  0  0  0  0
  140.5720   80.7730  223.4450 C   0  0  0  0  0  0  0  0  0  0  0  0
  139.7500   79.6640  223.2340 C   0  0  0  0  0  0  0  0  0  0  0  0
  137.4045   77.8533  223.1325 H   0  0  0  0  0  0  0  0  0  0  0  0
  138.1187   78.5760  221.6512 H   0  0  0  0  0  0  0  0  0  0  0  0
  137.6000   76.8562  221.6512 H   0  0  0  0  0  0  0  0  0  0  0  0
  139.3406   76.7412  223.6922 H   0  0  0  0  0  0  0  0  0  0  0  0
  140.1820   75.3610  222.0890 H   0  0  0  0  0  0  0  0  0  0  0  0
  139.9582   75.0405  219.3440 H   0  0  0  0  0  0  0  0  0  0  0  0
  141.1848   75.5771  217.3340 H   0  0  0  0  0  0  0  0  0  0  0  0
  140.2064   77.0438  217.8482 H   0  0  0  0  0  0  0  0  0  0  0  0
  142.7207   77.1207  217.0242 H   0  0  0  0  0  0  0  0  0  0  0  0
  141.9111   78.2579  218.2408 H   0  0  0  0  0  0  0  0  0  0  0  0
  144.2938   77.0282  218.5224 H   0  0  0  0  0  0  0  0  0  0  0  0
  143.1570   77.7134  219.8213 H   0  0  0  0  0  0  0  0  0  0  0  0
  143.9391   74.9691  219.1996 H   0  0  0  0  0  0  0  0  0  0  0  0
  143.5667   75.8618  220.7669 H   0  0  0  0  0  0  0  0  0  0  0  0
  139.8068   73.5036  220.0785 H   0  0  0  0  0  0  0  0  0  0  0  0
  140.7368   72.2686  219.2054 H   0  0  0  0  0  0  0  0  0  0  0  0
  140.9810   71.0020  221.2660 H   0  0  0  0  0  0  0  0  0  0  0  0
  139.1551   69.9820  222.5721 H   0  0  0  0  0  0  0  0  0  0  0  0
  139.0769   68.3799  224.4710 H   0  0  0  0  0  0  0  0  0  0  0  0
  139.5541   67.9026  226.7523 H   0  0  0  0  0  0  0  0  0  0  0  0
  141.4336   70.8635  229.2000 H   0  0  0  0  0  0  0  0  0  0  0  0
  141.5156   72.4762  227.2962 H   0  0  0  0  0  0  0  0  0  0  0  0
  142.1450   77.3643  222.6396 H   0  0  0  0  0  0  0  0  0  0  0  0
  143.6009   79.3079  223.0093 H   0  0  0  0  0  0  0  0  0  0  0  0
  142.6094   81.5237  223.5312 H   0  0  0  0  0  0  0  0  0  0  0  0
  140.1225   81.7501  223.6758 H   0  0  0  0  0  0  0  0  0  0  0  0
  138.6575   79.7741  223.2996 H   0  0  0  0  0  0  0  0  0  0  0  0
  1  2  1  0
  2  3  1  0
  3  4  1  0
  4  5  2  0
  4  6  1  0
  6  7  1  0
  7  8  1  0
  8  9  1  0
  9 10  1  0
 10 11  1  0
 11 12  1  0
 12 13  2  0
 12 14  1  0
 14 15  1  0
 15 16  1  0
 16 17  2  0
 16 18  1  0
 18 19  2  0
 19 20  1  0
 20 21  2  0
 21 22  1  0
 22 23  2  0
 23 24  1  0
 23 25  1  0
 25 26  2  0
 26 27  1  0
 27 28  2  0
  2 29  1  0
 29 30  2  0
 30 31  1  0
 31 32  2  0
 32 33  1  0
 33 34  2  0
 11  6  1  0
 28 18  1  0
 34 29  1  0
 27 21  1  0
  1 35  1  0
  1 36  1  0
  1 37  1  0
  2 38  1  1
  3 39  1  0
  6 40  1  6
  7 41  1  0
  7 42  1  0
  8 43  1  0
  8 44  1  0
  9 45  1  0
  9 46  1  0
 10 47  1  0
 10 48  1  0
 14 49  1  0
 14 50  1  0
 15 51  1  0
 19 52  1  0
 20 53  1  0
 22 54  1  0
 25 55  1  0
 26 56  1  0
 30 57  1  0
 31 58  1  0
 32 59  1  0
 33 60  1  0
 34 61  1  0
M  END
>  <smiles>  (54) 
C[C@@H](NC(=O)C1CCCCN1C(=O)CNC(=O)c1ccc2cc(F)ccc2n1)c1ccccc1

>  <score_type>  (54) 
oracle

>  <origin>  (54) 
autodockgpu

>  <m_score__min__energy>  (54) 
-9.5999999999999996

>  <m_primary>  (54) 
energy

>  <rmsd>  (54) 
3.160762843346352

>  <m_score__min__rmsd>  (54) 
3.160762843346352

>  <meeko>  (54) 
{"free_energy": -8.8, "intermolecular_energy": -10.89, "internal_energy": -2.95, "cluster_size": 26, "cluster_id": 1, "rank_in_cluster": 14}

>  <energy>  (54) 
-9.12

>  <cluster_rmsd>  (54) 
2.0

>  <cluster>  (54) 
1

$$$$

     RDKit          3D

 61 64  0  0  1  0  0  0  0  0999 V2000
  138.7050   68.7380  223.9560 C   0  0  0  0  0  0  0  0  0  0  0  0
  138.8310   70.2230  224.1950 C   0  0  1  0  0  0  0  0  0  0  0  0
  137.5130   70.8130  224.1270 N   0  0  0  0  0  0  0  0  0  0  0  0
  137.1530   71.7810  223.1470 C   0  0  0  0  0  0  0  0  0  0  0  0
  138.0390   72.1250  222.3110 O   0  0  0  0  0  0  0  0  0  0  0  0
  135.8190   72.3820  223.0740 C   0  0  1  0  0  0  0  0  0  0  0  0
  134.7520   71.4490  222.5590 C   0  0  0  0  0  0  0  0  0  0  0  0
  134.2940   70.4360  223.5320 C   0  0  0  0  0  0  0  0  0  0  0  0
  134.4760   70.7630  224.9720 C   0  0  0  0  0  0  0  0  0  0  0  0
  134.7240   72.1770  225.3180 C   0  0  0  0  0  0  0  0  0  0  0  0
  135.3180   72.9790  224.2690 N   0  0  0  0  0  0  0  0  0  0  0  0
  135.3700   74.3930  224.5050 C   0  0  0  0  0  0  0  0  0  0  0  0
  135.1700   74.7670  225.7070 O   0  0  0  0  0  0  0  0  0  0  0  0
  135.6410   75.3490  223.4080 C   0  0  0  0  0  0  0  0  0  0  0  0
  136.9590   75.0200  222.8830 N   0  0  0  0  0  0  0  0  0  0  0  0
  137.9200   76.0200  222.5650 C   0  0  0  0  0  0  0  0  0  0  0  0
  137.6630   77.2610  222.7260 O   0  0  0  0  0  0  0  0  0  0  0  0
  139.2260   75.6140  222.0420 C   0  0  0  0  0  0  0  0  0  0  0  0
  140.0920   76.5580  221.5310 C   0  0  0  0  0  0  0  0  0  0  0  0
  141.3390   76.2170  221.0260 C   0  0  0  0  0  0  0  0  0  0  0  0
  141.7020   74.8950  221.0450 C   0  0  0  0  0  0  0  0  0  0  0  0
  142.9270   74.5270  220.5520 C   0  0  0  0  0  0  0  0  0  0  0  0
  143.2990   73.1850  220.5700 C   0  0  0  0  0  0  0  0  0  0  0  0
  144.5140   72.8920  220.0710 F   0  0  0  0  0  0  0  0  0  0  0  0
  142.4270   72.2660  221.0790 C   0  0  0  0  0  0  0  0  0  0  0  0
  141.1740   72.5970  221.5890 C   0  0  0  0  0  0  0  0  0  0  0  0
  140.8380   73.9380  221.5550 C   0  0  0  0  0  0  0  0  0  0  0  0
  139.6380   74.3320  222.0330 N   0  0  0  0  0  0  0  0  0  0  0  0
  139.5100   70.5200  225.4830 C   0  0  0  0  0  0  0  0  0  0  0  0
  139.3030   69.7670  226.6290 C   0  0  0  0  0  0  0  0  0  0  0  0
  139.9310   70.0410  227.8250 C   0  0  0  0  0  0  0  0  0  0  0  0
  140.8050   71.0980  227.9120 C   0  0  0  0  0  0  0  0  0  0  0  0
  141.0400   71.8810  226.7770 C   0  0  0  0  0  0  0  0  0  0  0  0
  140.3970   71.5920  225.5730 C   0  0  0  0  0  0  0  0  0  0  0  0
  138.6605   68.2136  224.9219 H   0  0  0  0  0  0  0  0  0  0  0  0
  137.7864   68.5350  223.3859 H   0  0  0  0  0  0  0  0  0  0  0  0
  139.5763   68.3831  223.3859 H   0  0  0  0  0  0  0  0  0  0  0  0
  139.4664   70.6667  223.4143 H   0  0  0  0  0  0  0  0  0  0  0  0
  136.8210   70.4930  224.8410 H   0  0  0  0  0  0  0  0  0  0  0  0
  136.0147   73.1889  222.3525 H   0  0  0  0  0  0  0  0  0  0  0  0
  133.8833   72.0540  222.2601 H   0  0  0  0  0  0  0  0  0  0  0  0
  135.2024   70.8943  221.7226 H   0  0  0  0  0  0  0  0  0  0  0  0
  133.2200   70.2708  223.3608 H   0  0  0  0  0  0  0  0  0  0  0  0
  134.9283   69.5553  223.3529 H   0  0  0  0  0  0  0  0  0  0  0  0
  133.5640   70.4483  225.5004 H   0  0  0  0  0  0  0  0  0  0  0  0
  135.3937   70.2339  225.2686 H   0  0  0  0  0  0  0  0  0  0  0  0
  133.7609   72.6336  225.5899 H   0  0  0  0  0  0  0  0  0  0  0  0
  135.4552   72.1638  226.1397 H   0  0  0  0  0  0  0  0  0  0  0  0
  134.8818   75.2457  222.6187 H   0  0  0  0  0  0  0  0  0  0  0  0
  135.6069   76.3871  223.7701 H   0  0  0  0  0  0  0  0  0  0  0  0
  137.2470   74.0100  222.7230 H   0  0  0  0  0  0  0  0  0  0  0  0
  139.7848   77.6142  221.5235 H   0  0  0  0  0  0  0  0  0  0  0  0
  142.0159   76.9845  220.6226 H   0  0  0  0  0  0  0  0  0  0  0  0
  143.6112   75.2861  220.1451 H   0  0  0  0  0  0  0  0  0  0  0  0
  142.7300   71.2086  221.0867 H   0  0  0  0  0  0  0  0  0  0  0  0
  140.4914   71.8361  221.9952 H   0  0  0  0  0  0  0  0  0  0  0  0
  138.6085   68.9153  226.5815 H   0  0  0  0  0  0  0  0  0  0  0  0
  139.7331   69.4151  228.7077 H   0  0  0  0  0  0  0  0  0  0  0  0
  141.3127   71.3251  228.8610 H   0  0  0  0  0  0  0  0  0  0  0  0
  141.7365   72.7304  226.8341 H   0  0  0  0  0  0  0  0  0  0  0  0
  140.5914   72.2150  224.6875 H   0  0  0  0  0  0  0  0  0  0  0  0
  1  2  1  0
  2  3  1  0
  3  4  1  0
  4  5  2  0
  4  6  1  0
  6  7  1  0
  7  8  1  0
  8  9  1  0
  9 10  1  0
 10 11  1  0
 11 12  1  0
 12 13  2  0
 12 14  1  0
 14 15  1  0
 15 16  1  0
 16 17  2  0
 16 18  1  0
 18 19  2  0
 19 20  1  0
 20 21  2  0
 21 22  1  0
 22 23  2  0
 23 24  1  0
 23 25  1  0
 25 26  2  0
 26 27  1  0
 27 28  2  0
  2 29  1  0
 29 30  2  0
 30 31  1  0
 31 32  2  0
 32 33  1  0
 33 34  2  0
 11  6  1  0
 28 18  1  0
 34 29  1  0
 27 21  1  0
  1 35  1  0
  1 36  1  0
  1 37  1  0
  2 38  1  6
  3 39  1  0
  6 40  1  6
  7 41  1  0
  7 42  1  0
  8 43  1  0
  8 44  1  0
  9 45  1  0
  9 46  1  0
 10 47  1  0
 10 48  1  0
 14 49  1  0
 14 50  1  0
 15 51  1  0
 19 52  1  0
 20 53  1  0
 22 54  1  0
 25 55  1  0
 26 56  1  0
 30 57  1  0
 31 58  1  0
 32 59  1  0
 33 60  1  0
 34 61  1  0
M  END
>  <smiles>  (55) 
C[C@@H](NC(=O)C1CCCCN1C(=O)CNC(=O)c1ccc2cc(F)ccc2n1)c1ccccc1

>  <score_type>  (55) 
oracle

>  <origin>  (55) 
autodockgpu

>  <m_score__min__energy>  (55) 
-9.5999999999999996

>  <m_primary>  (55) 
energy

>  <rmsd>  (55) 
9.11124347539278

>  <m_score__min__rmsd>  (55) 
9.11124347539278

>  <meeko>  (55) 
{"free_energy": -7.58, "intermolecular_energy": -9.67, "internal_energy": -3.38, "cluster_size": 1, "cluster_id": 5, "rank_in_cluster": 1}

>  <energy>  (55) 
-9.04

>  <cluster_rmsd>  (55) 
1.3

>  <cluster>  (55) 
1

$$$$

     RDKit          3D

 61 64  0  0  1  0  0  0  0  0999 V2000
  138.1770   80.1920  222.9830 C   0  0  0  0  0  0  0  0  0  0  0  0
  139.1750   79.1640  223.4560 C   0  0  1  0  0  0  0  0  0  0  0  0
  139.0480   77.9850  222.6280 N   0  0  0  0  0  0  0  0  0  0  0  0
  139.4210   77.9660  221.2540 C   0  0  0  0  0  0  0  0  0  0  0  0
  139.8780   79.0360  220.7560 O   0  0  0  0  0  0  0  0  0  0  0  0
  139.2950   76.7740  220.4120 C   0  0  1  0  0  0  0  0  0  0  0  0
  139.9930   76.8860  219.0800 C   0  0  0  0  0  0  0  0  0  0  0  0
  141.4630   76.7470  219.1390 C   0  0  0  0  0  0  0  0  0  0  0  0
  142.0170   75.9970  220.2980 C   0  0  0  0  0  0  0  0  0  0  0  0
  141.0830   75.1420  221.0590 C   0  0  0  0  0  0  0  0  0  0  0  0
  139.6900   75.5330  220.9940 N   0  0  0  0  0  0  0  0  0  0  0  0
  138.7460   74.6040  221.5430 C   0  0  0  0  0  0  0  0  0  0  0  0
  137.9180   75.0800  222.3870 O   0  0  0  0  0  0  0  0  0  0  0  0
  138.7440   73.1780  221.1460 C   0  0  0  0  0  0  0  0  0  0  0  0
  138.9800   72.4060  222.3580 N   0  0  0  0  0  0  0  0  0  0  0  0
  139.1190   70.9900  222.3420 C   0  0  0  0  0  0  0  0  0  0  0  0
  139.0410   70.3300  221.2510 O   0  0  0  0  0  0  0  0  0  0  0  0
  139.3550   70.2820  223.6000 C   0  0  0  0  0  0  0  0  0  0  0  0
  139.0010   68.9540  223.7260 C   0  0  0  0  0  0  0  0  0  0  0  0
  139.2070   68.2450  224.9010 C   0  0  0  0  0  0  0  0  0  0  0  0
  139.7820   68.9020  225.9570 C   0  0  0  0  0  0  0  0  0  0  0  0
  139.9980   68.2280  227.1310 C   0  0  0  0  0  0  0  0  0  0  0  0
  140.5820   68.8920  228.2070 C   0  0  0  0  0  0  0  0  0  0  0  0
  140.7660   68.1720  229.3290 F   0  0  0  0  0  0  0  0  0  0  0  0
  140.9250   70.2060  228.0630 C   0  0  0  0  0  0  0  0  0  0  0  0
  140.7240   70.9270  226.8890 C   0  0  0  0  0  0  0  0  0  0  0  0
  140.1420   70.2360  225.8420 C   0  0  0  0  0  0  0  0  0  0  0  0
  139.9150   70.8730  224.6730 N   0  0  0  0  0  0  0  0  0  0  0  0
  140.5620   79.6990  223.4550 C   0  0  0  0  0  0  0  0  0  0  0  0
  141.6630   78.9230  223.1240 C   0  0  0  0  0  0  0  0  0  0  0  0
  142.9500   79.4170  223.1240 C   0  0  0  0  0  0  0  0  0  0  0  0
  143.1790   80.7300  223.4600 C   0  0  0  0  0  0  0  0  0  0  0  0
  142.0940   81.5430  223.8000 C   0  0  0  0  0  0  0  0  0  0  0  0
  140.7960   81.0300  223.7970 C   0  0  0  0  0  0  0  0  0  0  0  0
  137.7080   80.6751  223.8529 H   0  0  0  0  0  0  0  0  0  0  0  0
  138.6921   80.9508  222.3756 H   0  0  0  0  0  0  0  0  0  0  0  0
  137.4033   79.6996  222.3756 H   0  0  0  0  0  0  0  0  0  0  0  0
  138.9584   78.8976  224.5010 H   0  0  0  0  0  0  0  0  0  0  0  0
  138.6660   77.1290  223.0890 H   0  0  0  0  0  0  0  0  0  0  0  0
  138.2032   76.7501  220.2804 H   0  0  0  0  0  0  0  0  0  0  0  0
  139.6006   76.0980  218.4203 H   0  0  0  0  0  0  0  0  0  0  0  0
  139.7919   77.9017  218.7085 H   0  0  0  0  0  0  0  0  0  0  0  0
  141.7861   76.2310  218.2228 H   0  0  0  0  0  0  0  0  0  0  0  0
  141.8462   77.7723  219.2482 H   0  0  0  0  0  0  0  0  0  0  0  0
  142.8228   75.3511  219.9193 H   0  0  0  0  0  0  0  0  0  0  0  0
  142.3357   76.7721  221.0105 H   0  0  0  0  0  0  0  0  0  0  0  0
  141.1664   74.1170  220.6687 H   0  0  0  0  0  0  0  0  0  0  0  0
  141.3759   75.2379  222.1149 H   0  0  0  0  0  0  0  0  0  0  0  0
  137.7719   72.9079  220.7077 H   0  0  0  0  0  0  0  0  0  0  0  0
  139.5184   72.9763  220.3913 H   0  0  0  0  0  0  0  0  0  0  0  0
  139.0570   72.8850  223.3040 H   0  0  0  0  0  0  0  0  0  0  0  0
  138.5412   68.4415  222.8682 H   0  0  0  0  0  0  0  0  0  0  0  0
  138.9173   67.1870  224.9822 H   0  0  0  0  0  0  0  0  0  0  0  0
  139.7120   67.1698  227.2226 H   0  0  0  0  0  0  0  0  0  0  0  0
  141.3841   70.7217  228.9193 H   0  0  0  0  0  0  0  0  0  0  0  0
  141.0115   71.9850  226.7995 H   0  0  0  0  0  0  0  0  0  0  0  0
  141.5025   77.8698  222.8501 H   0  0  0  0  0  0  0  0  0  0  0  0
  143.7919   78.7618  222.8557 H   0  0  0  0  0  0  0  0  0  0  0  0
  144.2016   81.1352  223.4613 H   0  0  0  0  0  0  0  0  0  0  0  0
  142.2644   82.5951  224.0720 H   0  0  0  0  0  0  0  0  0  0  0  0
  139.9512   81.6809  224.0665 H   0  0  0  0  0  0  0  0  0  0  0  0
  1  2  1  0
  2  3  1  0
  3  4  1  0
  4  5  2  0
  4  6  1  0
  6  7  1  0
  7  8  1  0
  8  9  1  0
  9 10  1  0
 10 11  1  0
 11 12  1  0
 12 13  2  0
 12 14  1  0
 14 15  1  0
 15 16  1  0
 16 17  2  0
 16 18  1  0
 18 19  2  0
 19 20  1  0
 20 21  2  0
 21 22  1  0
 22 23  2  0
 23 24  1  0
 23 25  1  0
 25 26  2  0
 26 27  1  0
 27 28  2  0
  2 29  1  0
 29 30  2  0
 30 31  1  0
 31 32  2  0
 32 33  1  0
 33 34  2  0
 11  6  1  0
 28 18  1  0
 34 29  1  0
 27 21  1  0
  1 35  1  0
  1 36  1  0
  1 37  1  0
  2 38  1  1
  3 39  1  0
  6 40  1  6
  7 41  1  0
  7 42  1  0
  8 43  1  0
  8 44  1  0
  9 45  1  0
  9 46  1  0
 10 47  1  0
 10 48  1  0
 14 49  1  0
 14 50  1  0
 15 51  1  0
 19 52  1  0
 20 53  1  0
 22 54  1  0
 25 55  1  0
 26 56  1  0
 30 57  1  0
 31 58  1  0
 32 59  1  0
 33 60  1  0
 34 61  1  0
M  END
>  <smiles>  (56) 
C[C@@H](NC(=O)C1CCCCN1C(=O)CNC(=O)c1ccc2cc(F)ccc2n1)c1ccccc1

>  <score_type>  (56) 
oracle

>  <origin>  (56) 
autodockgpu

>  <m_score__min__energy>  (56) 
-9.5999999999999996

>  <m_primary>  (56) 
energy

>  <rmsd>  (56) 
2.8296226770905055

>  <m_score__min__rmsd>  (56) 
2.8296226770905055

>  <meeko>  (56) 
{"free_energy": -8.6, "intermolecular_energy": -10.69, "internal_energy": -2.77, "cluster_size": 26, "cluster_id": 1, "rank_in_cluster": 22}

>  <energy>  (56) 
-9.03

>  <cluster_rmsd>  (56) 
1.24

>  <cluster>  (56) 
1

$$$$

     RDKit          3D

 61 64  0  0  1  0  0  0  0  0999 V2000
  142.2010   79.7960  223.9840 C   0  0  0  0  0  0  0  0  0  0  0  0
  142.3210   79.3800  222.5380 C   0  0  1  0  0  0  0  0  0  0  0  0
  141.5610   78.1660  222.3440 N   0  0  0  0  0  0  0  0  0  0  0  0
  140.1510   78.1020  222.5320 C   0  0  0  0  0  0  0  0  0  0  0  0
  139.5590   79.1630  222.8860 O   0  0  0  0  0  0  0  0  0  0  0  0
  139.3770   76.8750  222.3360 C   0  0  1  0  0  0  0  0  0  0  0  0
  137.8860   77.0930  222.2640 C   0  0  0  0  0  0  0  0  0  0  0  0
  137.4050   77.6580  220.9860 C   0  0  0  0  0  0  0  0  0  0  0  0
  138.2620   77.4310  219.7920 C   0  0  0  0  0  0  0  0  0  0  0  0
  139.2840   76.3690  219.8830 C   0  0  0  0  0  0  0  0  0  0  0  0
  139.7390   76.0580  221.2230 N   0  0  0  0  0  0  0  0  0  0  0  0
  140.5650   74.8940  221.3570 C   0  0  0  0  0  0  0  0  0  0  0  0
  141.8040   75.1080  221.5680 O   0  0  0  0  0  0  0  0  0  0  0  0
  139.9990   73.5300  221.2550 C   0  0  0  0  0  0  0  0  0  0  0  0
  140.3370   72.8440  222.4940 N   0  0  0  0  0  0  0  0  0  0  0  0
  139.5000   71.8420  223.0600 C   0  0  0  0  0  0  0  0  0  0  0  0
  138.4050   71.5010  222.4990 O   0  0  0  0  0  0  0  0  0  0  0  0
  139.9050   71.1950  224.3090 C   0  0  0  0  0  0  0  0  0  0  0  0
  140.6860   71.8760  225.2210 C   0  0  0  0  0  0  0  0  0  0  0  0
  141.0920   71.3000  226.4170 C   0  0  0  0  0  0  0  0  0  0  0  0
  140.6950   70.0150  226.6810 C   0  0  0  0  0  0  0  0  0  0  0  0
  141.0810   69.4190  227.8540 C   0  0  0  0  0  0  0  0  0  0  0  0
  140.6800   68.1140  228.1250 C   0  0  0  0  0  0  0  0  0  0  0  0
  141.0930   67.5890  229.2940 F   0  0  0  0  0  0  0  0  0  0  0  0
  139.9080   67.4570  227.2090 C   0  0  0  0  0  0  0  0  0  0  0  0
  139.4940   68.0250  226.0070 C   0  0  0  0  0  0  0  0  0  0  0  0
  139.9120   69.3220  225.7710 C   0  0  0  0  0  0  0  0  0  0  0  0
  139.5480   69.9360  224.6240 N   0  0  0  0  0  0  0  0  0  0  0  0
  141.8900   80.4620  221.6140 C   0  0  0  0  0  0  0  0  0  0  0  0
  141.5170   81.7210  222.0590 C   0  0  0  0  0  0  0  0  0  0  0  0
  141.1160   82.7250  221.2040 C   0  0  0  0  0  0  0  0  0  0  0  0
  141.0780   82.4950  219.8490 C   0  0  0  0  0  0  0  0  0  0  0  0
  141.4460   81.2380  219.3630 C   0  0  0  0  0  0  0  0  0  0  0  0
  141.8500   80.2300  220.2400 C   0  0  0  0  0  0  0  0  0  0  0  0
  142.4472   78.9425  224.6327 H   0  0  0  0  0  0  0  0  0  0  0  0
  142.8971   80.6233  224.1865 H   0  0  0  0  0  0  0  0  0  0  0  0
  141.1712   80.1254  224.1865 H   0  0  0  0  0  0  0  0  0  0  0  0
  143.3773   79.1871  222.2994 H   0  0  0  0  0  0  0  0  0  0  0  0
  142.0990   77.3190  222.0520 H   0  0  0  0  0  0  0  0  0  0  0  0
  139.6494   76.3324  223.2533 H   0  0  0  0  0  0  0  0  0  0  0  0
  137.3902   76.1232  222.4180 H   0  0  0  0  0  0  0  0  0  0  0  0
  137.6424   77.8321  223.0414 H   0  0  0  0  0  0  0  0  0  0  0  0
  136.4187   77.2181  220.7771 H   0  0  0  0  0  0  0  0  0  0  0  0
  137.3991   78.7478  221.1352 H   0  0  0  0  0  0  0  0  0  0  0  0
  137.5980   77.1793  218.9519 H   0  0  0  0  0  0  0  0  0  0  0  0
  138.8338   78.3633  219.6739 H   0  0  0  0  0  0  0  0  0  0  0  0
  138.8606   75.4522  219.4470 H   0  0  0  0  0  0  0  0  0  0  0  0
  140.1646   76.7487  219.3442 H   0  0  0  0  0  0  0  0  0  0  0  0
  138.9067   73.5806  221.1353 H   0  0  0  0  0  0  0  0  0  0  0  0
  140.4058   72.9966  220.3833 H   0  0  0  0  0  0  0  0  0  0  0  0
  141.2320   73.0740  223.0190 H   0  0  0  0  0  0  0  0  0  0  0  0
  140.9961   72.9065  224.9931 H   0  0  0  0  0  0  0  0  0  0  0  0
  141.7141   71.8585  227.1319 H   0  0  0  0  0  0  0  0  0  0  0  0
  141.7032   69.9684  228.5758 H   0  0  0  0  0  0  0  0  0  0  0  0
  139.5974   66.4258  227.4327 H   0  0  0  0  0  0  0  0  0  0  0  0
  138.8708   67.4742  225.2871 H   0  0  0  0  0  0  0  0  0  0  0  0
  141.5421   81.9272  223.1392 H   0  0  0  0  0  0  0  0  0  0  0  0
  140.8271   83.7078  221.6047 H   0  0  0  0  0  0  0  0  0  0  0  0
  140.7622   83.2898  219.1572 H   0  0  0  0  0  0  0  0  0  0  0  0
  141.4172   81.0411  218.2812 H   0  0  0  0  0  0  0  0  0  0  0  0
  142.1390   79.2453  219.8440 H   0  0  0  0  0  0  0  0  0  0  0  0
  1  2  1  0
  2  3  1  0
  3  4  1  0
  4  5  2  0
  4  6  1  0
  6  7  1  0
  7  8  1  0
  8  9  1  0
  9 10  1  0
 10 11  1  0
 11 12  1  0
 12 13  2  0
 12 14  1  0
 14 15  1  0
 15 16  1  0
 16 17  2  0
 16 18  1  0
 18 19  2  0
 19 20  1  0
 20 21  2  0
 21 22  1  0
 22 23  2  0
 23 24  1  0
 23 25  1  0
 25 26  2  0
 26 27  1  0
 27 28  2  0
  2 29  1  0
 29 30  2  0
 30 31  1  0
 31 32  2  0
 32 33  1  0
 33 34  2  0
 11  6  1  0
 28 18  1  0
 34 29  1  0
 27 21  1  0
  1 35  1  0
  1 36  1  0
  1 37  1  0
  2 38  1  6
  3 39  1  0
  6 40  1  1
  7 41  1  0
  7 42  1  0
  8 43  1  0
  8 44  1  0
  9 45  1  0
  9 46  1  0
 10 47  1  0
 10 48  1  0
 14 49  1  0
 14 50  1  0
 15 51  1  0
 19 52  1  0
 20 53  1  0
 22 54  1  0
 25 55  1  0
 26 56  1  0
 30 57  1  0
 31 58  1  0
 32 59  1  0
 33 60  1  0
 34 61  1  0
M  END
>  <smiles>  (57) 
C[C@@H](NC(=O)C1CCCCN1C(=O)CNC(=O)c1ccc2cc(F)ccc2n1)c1ccccc1

>  <score_type>  (57) 
oracle

>  <origin>  (57) 
autodockgpu

>  <m_score__min__energy>  (57) 
-9.5999999999999996

>  <m_primary>  (57) 
energy

>  <rmsd>  (57) 
3.0428030931258814

>  <m_score__min__rmsd>  (57) 
3.0428030931258814

>  <meeko>  (57) 
{"free_energy": -8.55, "intermolecular_energy": -10.64, "internal_energy": -2.72, "cluster_size": 17, "cluster_id": 2, "rank_in_cluster": 16}

>  <energy>  (57) 
-8.91

>  <cluster_rmsd>  (57) 
1.36

>  <cluster>  (57) 
1

$$$$

     RDKit          3D

 61 64  0  0  1  0  0  0  0  0999 V2000
  139.2110   77.1710  222.3820 C   0  0  0  0  0  0  0  0  0  0  0  0
  140.7160   77.0680  222.4180 C   0  0  1  0  0  0  0  0  0  0  0  0
  141.1650   76.4570  221.1870 N   0  0  0  0  0  0  0  0  0  0  0  0
  141.2770   75.0470  221.0250 C   0  0  0  0  0  0  0  0  0  0  0  0
  140.9670   74.3180  222.0110 O   0  0  0  0  0  0  0  0  0  0  0  0
  141.7310   74.4230  219.7800 C   0  0  1  0  0  0  0  0  0  0  0  0
  143.1690   74.7170  219.4330 C   0  0  0  0  0  0  0  0  0  0  0  0
  144.1630   73.9660  220.2280 C   0  0  0  0  0  0  0  0  0  0  0  0
  143.7070   72.6840  220.8270 C   0  0  0  0  0  0  0  0  0  0  0  0
  142.4740   72.0820  220.2810 C   0  0  0  0  0  0  0  0  0  0  0  0
  141.5490   73.0120  219.6660 N   0  0  0  0  0  0  0  0  0  0  0  0
  140.4540   72.4320  218.9440 C   0  0  0  0  0  0  0  0  0  0  0  0
  140.5790   72.3880  217.6770 O   0  0  0  0  0  0  0  0  0  0  0  0
  139.2550   71.9170  219.6440 C   0  0  0  0  0  0  0  0  0  0  0  0
  139.6340   71.7290  221.0380 N   0  0  0  0  0  0  0  0  0  0  0  0
  139.2440   70.5800  221.7810 C   0  0  0  0  0  0  0  0  0  0  0  0
  138.5380   69.6570  221.2520 O   0  0  0  0  0  0  0  0  0  0  0  0
  139.6630   70.4590  223.1790 C   0  0  0  0  0  0  0  0  0  0  0  0
  140.2550   71.5280  223.8210 C   0  0  0  0  0  0  0  0  0  0  0  0
  140.6650   71.4560  225.1440 C   0  0  0  0  0  0  0  0  0  0  0  0
  140.4680   70.2780  225.8170 C   0  0  0  0  0  0  0  0  0  0  0  0
  140.8650   70.1760  227.1250 C   0  0  0  0  0  0  0  0  0  0  0  0
  140.6660   68.9820  227.8120 C   0  0  0  0  0  0  0  0  0  0  0  0
  141.0770   68.9490  229.0930 F   0  0  0  0  0  0  0  0  0  0  0  0
  140.0780   67.9350  227.1590 C   0  0  0  0  0  0  0  0  0  0  0  0
  139.6620   67.9960  225.8310 C   0  0  0  0  0  0  0  0  0  0  0  0
  139.8750   69.1980  225.1810 C   0  0  0  0  0  0  0  0  0  0  0  0
  139.4960   69.3290  223.8910 N   0  0  0  0  0  0  0  0  0  0  0  0
  141.3540   78.3900  222.6500 C   0  0  0  0  0  0  0  0  0  0  0  0
  141.7660   78.8120  223.9050 C   0  0  0  0  0  0  0  0  0  0  0  0
  142.3580   80.0380  224.1230 C   0  0  0  0  0  0  0  0  0  0  0  0
  142.5610   80.8960  223.0690 C   0  0  0  0  0  0  0  0  0  0  0  0
  142.1590   80.5060  221.7880 C   0  0  0  0  0  0  0  0  0  0  0  0
  141.5600   79.2620  221.5820 C   0  0  0  0  0  0  0  0  0  0  0  0
  138.8206   77.1977  223.4101 H   0  0  0  0  0  0  0  0  0  0  0  0
  138.9190   78.0912  221.8549 H   0  0  0  0  0  0  0  0  0  0  0  0
  138.7963   76.2991  221.8549 H   0  0  0  0  0  0  0  0  0  0  0  0
  141.0197   76.4368  223.2662 H   0  0  0  0  0  0  0  0  0  0  0  0
  141.4080   77.1050  220.4050 H   0  0  0  0  0  0  0  0  0  0  0  0
  141.0492   74.9088  219.0664 H   0  0  0  0  0  0  0  0  0  0  0  0
  143.3225   74.4708  218.3719 H   0  0  0  0  0  0  0  0  0  0  0  0
  143.3313   75.7813  219.6587 H   0  0  0  0  0  0  0  0  0  0  0  0
  145.0157   73.7420  219.5702 H   0  0  0  0  0  0  0  0  0  0  0  0
  144.4010   74.6163  221.0827 H   0  0  0  0  0  0  0  0  0  0  0  0
  144.5176   71.9519  220.6972 H   0  0  0  0  0  0  0  0  0  0  0  0
  143.4624   72.9311  221.8706 H   0  0  0  0  0  0  0  0  0  0  0  0
  142.7652   71.3409  219.5221 H   0  0  0  0  0  0  0  0  0  0  0  0
  141.9418   71.6482  221.1404 H   0  0  0  0  0  0  0  0  0  0  0  0
  138.4314   72.6423  219.5693 H   0  0  0  0  0  0  0  0  0  0  0  0
  138.9099   70.9732  219.1966 H   0  0  0  0  0  0  0  0  0  0  0  0
  140.2210   72.4540  221.5470 H   0  0  0  0  0  0  0  0  0  0  0  0
  140.4062   72.4658  223.2663 H   0  0  0  0  0  0  0  0  0  0  0  0
  141.1345   72.3189  225.6388 H   0  0  0  0  0  0  0  0  0  0  0  0
  141.3378   71.0322  227.6284 H   0  0  0  0  0  0  0  0  0  0  0  0
  139.9254   66.9957  227.7107 H   0  0  0  0  0  0  0  0  0  0  0  0
  139.1915   67.1380  225.3285 H   0  0  0  0  0  0  0  0  0  0  0  0
  141.6141   78.1403  224.7628 H   0  0  0  0  0  0  0  0  0  0  0  0
  142.6670   80.3285  225.1380 H   0  0  0  0  0  0  0  0  0  0  0  0
  143.0333   81.8762  223.2309 H   0  0  0  0  0  0  0  0  0  0  0  0
  142.3158   81.1843  220.9363 H   0  0  0  0  0  0  0  0  0  0  0  0
  141.2481   78.9675  220.5691 H   0  0  0  0  0  0  0  0  0  0  0  0
  1  2  1  0
  2  3  1  0
  3  4  1  0
  4  5  2  0
  4  6  1  0
  6  7  1  0
  7  8  1  0
  8  9  1  0
  9 10  1  0
 10 11  1  0
 11 12  1  0
 12 13  2  0
 12 14  1  0
 14 15  1  0
 15 16  1  0
 16 17  2  0
 16 18  1  0
 18 19  2  0
 19 20  1  0
 20 21  2  0
 21 22  1  0
 22 23  2  0
 23 24  1  0
 23 25  1  0
 25 26  2  0
 26 27  1  0
 27 28  2  0
  2 29  1  0
 29 30  2  0
 30 31  1  0
 31 32  2  0
 32 33  1  0
 33 34  2  0
 11  6  1  0
 28 18  1  0
 34 29  1  0
 27 21  1  0
  1 35  1  0
  1 36  1  0
  1 37  1  0
  2 38  1  1
  3 39  1  0
  6 40  1  6
  7 41  1  0
  7 42  1  0
  8 43  1  0
  8 44  1  0
  9 45  1  0
  9 46  1  0
 10 47  1  0
 10 48  1  0
 14 49  1  0
 14 50  1  0
 15 51  1  0
 19 52  1  0
 20 53  1  0
 22 54  1  0
 25 55  1  0
 26 56  1  0
 30 57  1  0
 31 58  1  0
 32 59  1  0
 33 60  1  0
 34 61  1  0
M  END
>  <smiles>  (58) 
C[C@@H](NC(=O)C1CCCCN1C(=O)CNC(=O)c1ccc2cc(F)ccc2n1)c1ccccc1

>  <score_type>  (58) 
oracle

>  <origin>  (58) 
autodockgpu

>  <m_score__min__energy>  (58) 
-9.5999999999999996

>  <m_primary>  (58) 
energy

>  <rmsd>  (58) 
3.6227313208062957

>  <m_score__min__rmsd>  (58) 
3.6227313208062957

>  <meeko>  (58) 
{"free_energy": -8.74, "intermolecular_energy": -10.83, "internal_energy": -2.72, "cluster_size": 26, "cluster_id": 1, "rank_in_cluster": 16}

>  <energy>  (58) 
-8.91

>  <cluster_rmsd>  (58) 
1.29

>  <cluster>  (58) 
1

$$$$

     RDKit          3D

 61 64  0  0  1  0  0  0  0  0999 V2000
  142.1830   79.7230  224.0700 C   0  0  0  0  0  0  0  0  0  0  0  0
  142.1990   79.2610  222.6340 C   0  0  1  0  0  0  0  0  0  0  0  0
  141.2910   78.1440  222.5000 N   0  0  0  0  0  0  0  0  0  0  0  0
  139.8830   78.2720  222.6710 C   0  0  0  0  0  0  0  0  0  0  0  0
  139.4300   79.4190  222.9540 O   0  0  0  0  0  0  0  0  0  0  0  0
  138.9590   77.1430  222.5360 C   0  0  1  0  0  0  0  0  0  0  0  0
  137.5060   77.5420  222.4790 C   0  0  0  0  0  0  0  0  0  0  0  0
  137.0720   78.1140  221.1870 C   0  0  0  0  0  0  0  0  0  0  0  0
  137.8700   77.7390  219.9890 C   0  0  0  0  0  0  0  0  0  0  0  0
  138.7540   76.5630  220.1070 C   0  0  0  0  0  0  0  0  0  0  0  0
  139.1950   76.2480  221.4500 N   0  0  0  0  0  0  0  0  0  0  0  0
  139.8740   74.9960  221.6170 C   0  0  0  0  0  0  0  0  0  0  0  0
  141.0790   75.0630  222.0250 O   0  0  0  0  0  0  0  0  0  0  0  0
  139.2020   73.7090  221.3270 C   0  0  0  0  0  0  0  0  0  0  0  0
  139.4270   72.8520  222.4840 N   0  0  0  0  0  0  0  0  0  0  0  0
  139.1580   71.4550  222.4570 C   0  0  0  0  0  0  0  0  0  0  0  0
  138.7020   70.8890  221.4060 O   0  0  0  0  0  0  0  0  0  0  0  0
  139.4100   70.6560  223.6570 C   0  0  0  0  0  0  0  0  0  0  0  0
  139.0530   69.3240  223.6910 C   0  0  0  0  0  0  0  0  0  0  0  0
  139.2740   68.5310  224.8090 C   0  0  0  0  0  0  0  0  0  0  0  0
  139.8650   69.1090  225.9020 C   0  0  0  0  0  0  0  0  0  0  0  0
  140.0950   68.3510  227.0210 C   0  0  0  0  0  0  0  0  0  0  0  0
  140.6960   68.9340  228.1330 C   0  0  0  0  0  0  0  0  0  0  0  0
  140.8930   68.1350  229.1980 F   0  0  0  0  0  0  0  0  0  0  0  0
  141.0410   70.2550  228.0800 C   0  0  0  0  0  0  0  0  0  0  0  0
  140.8250   71.0600  226.9640 C   0  0  0  0  0  0  0  0  0  0  0  0
  140.2270   70.4470  225.8790 C   0  0  0  0  0  0  0  0  0  0  0  0
  139.9860   71.1670  224.7620 N   0  0  0  0  0  0  0  0  0  0  0  0
  141.8680   80.3650  221.6950 C   0  0  0  0  0  0  0  0  0  0  0  0
  141.5700   81.6490  222.1250 C   0  0  0  0  0  0  0  0  0  0  0  0
  141.2620   82.6740  221.2560 C   0  0  0  0  0  0  0  0  0  0  0  0
  141.2430   82.4400  219.9020 C   0  0  0  0  0  0  0  0  0  0  0  0
  141.5370   81.1580  219.4300 C   0  0  0  0  0  0  0  0  0  0  0  0
  141.8470   80.1290  220.3210 C   0  0  0  0  0  0  0  0  0  0  0  0
  142.2133   78.8487  224.7368 H   0  0  0  0  0  0  0  0  0  0  0  0
  143.0596   80.3597  224.2601 H   0  0  0  0  0  0  0  0  0  0  0  0
  141.2644   80.2975  224.2601 H   0  0  0  0  0  0  0  0  0  0  0  0
  143.2148   78.9352  222.3656 H   0  0  0  0  0  0  0  0  0  0  0  0
  141.7180   77.2200  222.2650 H   0  0  0  0  0  0  0  0  0  0  0  0
  139.1803   76.6043  223.4692 H   0  0  0  0  0  0  0  0  0  0  0  0
  136.8972   76.6480  222.6795 H   0  0  0  0  0  0  0  0  0  0  0  0
  137.3722   78.3346  223.2299 H   0  0  0  0  0  0  0  0  0  0  0  0
  136.0351   77.7916  221.0112 H   0  0  0  0  0  0  0  0  0  0  0  0
  137.2032   79.2010  221.2933 H   0  0  0  0  0  0  0  0  0  0  0  0
  137.1632   77.5405  219.1698 H   0  0  0  0  0  0  0  0  0  0  0  0
  138.5494   78.5883  219.8243 H   0  0  0  0  0  0  0  0  0  0  0  0
  138.2114   75.6902  219.7148 H   0  0  0  0  0  0  0  0  0  0  0  0
  139.6637   76.8103  219.5401 H   0  0  0  0  0  0  0  0  0  0  0  0
  138.1241   73.8690  221.1770 H   0  0  0  0  0  0  0  0  0  0  0  0
  139.6012   73.2507  220.4102 H   0  0  0  0  0  0  0  0  0  0  0  0
  139.8050   73.2500  223.3930 H   0  0  0  0  0  0  0  0  0  0  0  0
  138.5787   68.8764  222.8052 H   0  0  0  0  0  0  0  0  0  0  0  0
  138.9833   67.4701  224.8172 H   0  0  0  0  0  0  0  0  0  0  0  0
  139.8066   67.2896  227.0399 H   0  0  0  0  0  0  0  0  0  0  0  0
  141.5139   70.7062  228.9647 H   0  0  0  0  0  0  0  0  0  0  0  0
  141.1134   72.1214  226.9471 H   0  0  0  0  0  0  0  0  0  0  0  0
  141.5798   81.8587  223.2048 H   0  0  0  0  0  0  0  0  0  0  0  0
  141.0320   83.6767  221.6455 H   0  0  0  0  0  0  0  0  0  0  0  0
  140.9997   83.2507  219.1994 H   0  0  0  0  0  0  0  0  0  0  0  0
  141.5241   80.9582  218.3484 H   0  0  0  0  0  0  0  0  0  0  0  0
  142.0764   79.1244  219.9362 H   0  0  0  0  0  0  0  0  0  0  0  0
  1  2  1  0
  2  3  1  0
  3  4  1  0
  4  5  2  0
  4  6  1  0
  6  7  1  0
  7  8  1  0
  8  9  1  0
  9 10  1  0
 10 11  1  0
 11 12  1  0
 12 13  2  0
 12 14  1  0
 14 15  1  0
 15 16  1  0
 16 17  2  0
 16 18  1  0
 18 19  2  0
 19 20  1  0
 20 21  2  0
 21 22  1  0
 22 23  2  0
 23 24  1  0
 23 25  1  0
 25 26  2  0
 26 27  1  0
 27 28  2  0
  2 29  1  0
 29 30  2  0
 30 31  1  0
 31 32  2  0
 32 33  1  0
 33 34  2  0
 11  6  1  0
 28 18  1  0
 34 29  1  0
 27 21  1  0
  1 35  1  0
  1 36  1  0
  1 37  1  0
  2 38  1  6
  3 39  1  0
  6 40  1  1
  7 41  1  0
  7 42  1  0
  8 43  1  0
  8 44  1  0
  9 45  1  0
  9 46  1  0
 10 47  1  0
 10 48  1  0
 14 49  1  0
 14 50  1  0
 15 51  1  0
 19 52  1  0
 20 53  1  0
 22 54  1  0
 25 55  1  0
 26 56  1  0
 30 57  1  0
 31 58  1  0
 32 59  1  0
 33 60  1  0
 34 61  1  0
M  END
>  <smiles>  (59) 
C[C@@H](NC(=O)C1CCCCN1C(=O)CNC(=O)c1ccc2cc(F)ccc2n1)c1ccccc1

>  <score_type>  (59) 
oracle

>  <origin>  (59) 
autodockgpu

>  <m_score__min__energy>  (59) 
-9.5999999999999996

>  <m_primary>  (59) 
energy

>  <rmsd>  (59) 
2.5009891103818926

>  <m_score__min__rmsd>  (59) 
2.5009891103818926

>  <meeko>  (59) 
{"free_energy": -9.03, "intermolecular_energy": -11.12, "internal_energy": -2.97, "cluster_size": 17, "cluster_id": 2, "rank_in_cluster": 8}

>  <energy>  (59) 
-8.9

>  <cluster_rmsd>  (59) 
1.09

>  <cluster>  (59) 
1

$$$$

     RDKit          3D

 61 64  0  0  1  0  0  0  0  0999 V2000
  138.2080   79.6080  222.3640 C   0  0  0  0  0  0  0  0  0  0  0  0
  139.2610   78.7430  223.0110 C   0  0  1  0  0  0  0  0  0  0  0  0
  139.4020   77.5310  222.2350 N   0  0  0  0  0  0  0  0  0  0  0  0
  139.8010   77.5350  220.8680 C   0  0  0  0  0  0  0  0  0  0  0  0
  140.0350   78.6560  220.3300 O   0  0  0  0  0  0  0  0  0  0  0  0
  139.9450   76.3110  220.0770 C   0  0  1  0  0  0  0  0  0  0  0  0
  140.5600   76.5260  218.7170 C   0  0  0  0  0  0  0  0  0  0  0  0
  142.0220   76.7490  218.7280 C   0  0  0  0  0  0  0  0  0  0  0  0
  142.7710   76.2080  219.8930 C   0  0  0  0  0  0  0  0  0  0  0  0
  142.0920   75.1900  220.7210 C   0  0  0  0  0  0  0  0  0  0  0  0
  140.6450   75.2290  220.6910 N   0  0  0  0  0  0  0  0  0  0  0  0
  139.9690   74.1260  221.3110 C   0  0  0  0  0  0  0  0  0  0  0  0
  139.2480   74.4090  222.3240 O   0  0  0  0  0  0  0  0  0  0  0  0
  140.1080   72.7460  220.7930 C   0  0  0  0  0  0  0  0  0  0  0  0
  140.3060   71.8850  221.9510 N   0  0  0  0  0  0  0  0  0  0  0  0
  139.2410   71.5290  222.8240 C   0  0  0  0  0  0  0  0  0  0  0  0
  138.0530   71.9560  222.6260 O   0  0  0  0  0  0  0  0  0  0  0  0
  139.5150   70.6580  223.9680 C   0  0  0  0  0  0  0  0  0  0  0  0
  139.1850   69.3200  223.9160 C   0  0  0  0  0  0  0  0  0  0  0  0
  139.4280   68.4590  224.9770 C   0  0  0  0  0  0  0  0  0  0  0  0
  140.0150   68.9750  226.1030 C   0  0  0  0  0  0  0  0  0  0  0  0
  140.2670   68.1500  227.1680 C   0  0  0  0  0  0  0  0  0  0  0  0
  140.8640   68.6700  228.3130 C   0  0  0  0  0  0  0  0  0  0  0  0
  141.0840   67.8060  229.3220 F   0  0  0  0  0  0  0  0  0  0  0  0
  141.1830   69.9980  228.3460 C   0  0  0  0  0  0  0  0  0  0  0  0
  140.9440   70.8700  227.2870 C   0  0  0  0  0  0  0  0  0  0  0  0
  140.3510   70.3180  226.1660 C   0  0  0  0  0  0  0  0  0  0  0  0
  140.0890   71.1060  225.1000 N   0  0  0  0  0  0  0  0  0  0  0  0
  140.5530   79.4620  223.1600 C   0  0  0  0  0  0  0  0  0  0  0  0
  141.7750   78.8760  222.8670 C   0  0  0  0  0  0  0  0  0  0  0  0
  142.9740   79.5410  223.0050 C   0  0  0  0  0  0  0  0  0  0  0  0
  142.9870   80.8410  223.4490 C   0  0  0  0  0  0  0  0  0  0  0  0
  141.7760   81.4670  223.7560 C   0  0  0  0  0  0  0  0  0  0  0  0
  140.5680   80.7810  223.6120 C   0  0  0  0  0  0  0  0  0  0  0  0
  137.6083   80.1006  223.1436 H   0  0  0  0  0  0  0  0  0  0  0  0
  138.6940   80.3711  221.7383 H   0  0  0  0  0  0  0  0  0  0  0  0
  137.5538   78.9831  221.7383 H   0  0  0  0  0  0  0  0  0  0  0  0
  138.9437   78.4845  224.0320 H   0  0  0  0  0  0  0  0  0  0  0  0
  139.1960   76.6330  222.7280 H   0  0  0  0  0  0  0  0  0  0  0  0
  138.8881   76.0198  219.9866 H   0  0  0  0  0  0  0  0  0  0  0  0
  140.3537   75.6368  218.1032 H   0  0  0  0  0  0  0  0  0  0  0  0
  140.1087   77.4445  218.3137 H   0  0  0  0  0  0  0  0  0  0  0  0
  142.4367   76.2856  217.8207 H   0  0  0  0  0  0  0  0  0  0  0  0
  142.1477   77.8403  218.7849 H   0  0  0  0  0  0  0  0  0  0  0  0
  143.6982   75.7573  219.5094 H   0  0  0  0  0  0  0  0  0  0  0  0
  142.9120   77.0690  220.5629 H   0  0  0  0  0  0  0  0  0  0  0  0
  142.4121   74.1981  220.3694 H   0  0  0  0  0  0  0  0  0  0  0  0
  142.3793   75.4045  221.7609 H   0  0  0  0  0  0  0  0  0  0  0  0
  139.1974   72.4503  220.2514 H   0  0  0  0  0  0  0  0  0  0  0  0
  140.9521   72.6685  220.0920 H   0  0  0  0  0  0  0  0  0  0  0  0
  141.2660   71.4910  222.1810 H   0  0  0  0  0  0  0  0  0  0  0  0
  138.7143   68.9226  223.0047 H   0  0  0  0  0  0  0  0  0  0  0  0
  139.1576   67.3945  224.9161 H   0  0  0  0  0  0  0  0  0  0  0  0
  139.9993   67.0842  227.1183 H   0  0  0  0  0  0  0  0  0  0  0  0
  141.6529   70.3991  229.2561 H   0  0  0  0  0  0  0  0  0  0  0  0
  141.2113   71.9358  227.3390 H   0  0  0  0  0  0  0  0  0  0  0  0
  141.7879   77.8359  222.5091 H   0  0  0  0  0  0  0  0  0  0  0  0
  143.9181   79.0323  222.7603 H   0  0  0  0  0  0  0  0  0  0  0  0
  143.9382   81.3820  223.5614 H   0  0  0  0  0  0  0  0  0  0  0  0
  141.7741   82.5073  224.1135 H   0  0  0  0  0  0  0  0  0  0  0  0
  139.6214   81.2850  223.8570 H   0  0  0  0  0  0  0  0  0  0  0  0
  1  2  1  0
  2  3  1  0
  3  4  1  0
  4  5  2  0
  4  6  1  0
  6  7  1  0
  7  8  1  0
  8  9  1  0
  9 10  1  0
 10 11  1  0
 11 12  1  0
 12 13  2  0
 12 14  1  0
 14 15  1  0
 15 16  1  0
 16 17  2  0
 16 18  1  0
 18 19  2  0
 19 20  1  0
 20 21  2  0
 21 22  1  0
 22 23  2  0
 23 24  1  0
 23 25  1  0
 25 26  2  0
 26 27  1  0
 27 28  2  0
  2 29  1  0
 29 30  2  0
 30 31  1  0
 31 32  2  0
 32 33  1  0
 33 34  2  0
 11  6  1  0
 28 18  1  0
 34 29  1  0
 27 21  1  0
  1 35  1  0
  1 36  1  0
  1 37  1  0
  2 38  1  1
  3 39  1  0
  6 40  1  6
  7 41  1  0
  7 42  1  0
  8 43  1  0
  8 44  1  0
  9 45  1  0
  9 46  1  0
 10 47  1  0
 10 48  1  0
 14 49  1  0
 14 50  1  0
 15 51  1  0
 19 52  1  0
 20 53  1  0
 22 54  1  0
 25 55  1  0
 26 56  1  0
 30 57  1  0
 31 58  1  0
 32 59  1  0
 33 60  1  0
 34 61  1  0
M  END
>  <smiles>  (60) 
C[C@@H](NC(=O)C1CCCCN1C(=O)CNC(=O)c1ccc2cc(F)ccc2n1)c1ccccc1

>  <score_type>  (60) 
oracle

>  <origin>  (60) 
autodockgpu

>  <m_score__min__energy>  (60) 
-9.5999999999999996

>  <m_primary>  (60) 
energy

>  <rmsd>  (60) 
2.9067210719697174

>  <m_score__min__rmsd>  (60) 
2.9067210719697174

>  <meeko>  (60) 
{"free_energy": -8.91, "intermolecular_energy": -11.0, "internal_energy": -2.47, "cluster_size": 26, "cluster_id": 1, "rank_in_cluster": 8}

>  <energy>  (60) 
-8.88

>  <cluster_rmsd>  (60) 
1.31

>  <cluster>  (60) 
1

$$$$

     RDKit          3D

 61 64  0  0  1  0  0  0  0  0999 V2000
  139.1600   77.3130  222.6940 C   0  0  0  0  0  0  0  0  0  0  0  0
  140.6680   77.3470  222.7140 C   0  0  1  0  0  0  0  0  0  0  0  0
  141.1580   76.8100  221.4640 N   0  0  0  0  0  0  0  0  0  0  0  0
  141.0930   75.4230  221.1450 C   0  0  0  0  0  0  0  0  0  0  0  0
  140.5850   74.6480  222.0050 O   0  0  0  0  0  0  0  0  0  0  0  0
  141.5860   74.8740  219.8800 C   0  0  1  0  0  0  0  0  0  0  0  0
  142.8840   75.4810  219.4100 C   0  0  0  0  0  0  0  0  0  0  0  0
  144.0840   75.0120  220.1360 C   0  0  0  0  0  0  0  0  0  0  0  0
  143.9880   73.6830  220.7950 C   0  0  0  0  0  0  0  0  0  0  0  0
  142.8920   72.7910  220.3640 C   0  0  0  0  0  0  0  0  0  0  0  0
  141.7310   73.4570  219.8090 N   0  0  0  0  0  0  0  0  0  0  0  0
  140.7520   72.6110  219.1910 C   0  0  0  0  0  0  0  0  0  0  0  0
  141.1210   72.0090  218.1300 O   0  0  0  0  0  0  0  0  0  0  0  0
  139.3960   72.4540  219.7630 C   0  0  0  0  0  0  0  0  0  0  0  0
  139.5710   71.9560  221.1210 N   0  0  0  0  0  0  0  0  0  0  0  0
  139.2280   70.6250  221.4910 C   0  0  0  0  0  0  0  0  0  0  0  0
  138.7470   69.8050  220.6380 O   0  0  0  0  0  0  0  0  0  0  0  0
  139.4330   70.1940  222.8740 C   0  0  0  0  0  0  0  0  0  0  0  0
  138.9820   68.9580  223.2900 C   0  0  0  0  0  0  0  0  0  0  0  0
  139.1560   68.5100  224.5920 C   0  0  0  0  0  0  0  0  0  0  0  0
  139.7950   69.3370  225.4770 C   0  0  0  0  0  0  0  0  0  0  0  0
  139.9810   68.9230  226.7710 C   0  0  0  0  0  0  0  0  0  0  0  0
  140.6310   69.7600  227.6730 C   0  0  0  0  0  0  0  0  0  0  0  0
  140.7800   69.2920  228.9270 F   0  0  0  0  0  0  0  0  0  0  0  0
  141.0690   70.9810  227.2440 C   0  0  0  0  0  0  0  0  0  0  0  0
  140.9010   71.4400  225.9400 C   0  0  0  0  0  0  0  0  0  0  0  0
  140.2510   70.5820  225.0710 C   0  0  0  0  0  0  0  0  0  0  0  0
  140.0530   70.9620  223.7900 N   0  0  0  0  0  0  0  0  0  0  0  0
  141.1870   78.7150  222.9740 C   0  0  0  0  0  0  0  0  0  0  0  0
  140.3850   79.7420  223.4490 C   0  0  0  0  0  0  0  0  0  0  0  0
  140.8640   81.0120  223.6900 C   0  0  0  0  0  0  0  0  0  0  0  0
  142.1880   81.2990  223.4590 C   0  0  0  0  0  0  0  0  0  0  0  0
  143.0280   80.2900  222.9800 C   0  0  0  0  0  0  0  0  0  0  0  0
  142.5300   79.0080  222.7400 C   0  0  0  0  0  0  0  0  0  0  0  0
  138.7797   77.3044  223.7261 H   0  0  0  0  0  0  0  0  0  0  0  0
  138.7801   78.2028  222.1706 H   0  0  0  0  0  0  0  0  0  0  0  0
  138.8206   76.4070  222.1706 H   0  0  0  0  0  0  0  0  0  0  0  0
  141.0358   76.7253  223.5436 H   0  0  0  0  0  0  0  0  0  0  0  0
  141.5670   77.4940  220.7890 H   0  0  0  0  0  0  0  0  0  0  0  0
  140.7577   75.1601  219.2151 H   0  0  0  0  0  0  0  0  0  0  0  0
  143.0106   75.2368  218.3449 H   0  0  0  0  0  0  0  0  0  0  0  0
  142.8084   76.5618  219.6001 H   0  0  0  0  0  0  0  0  0  0  0  0
  144.9137   74.9675  219.4151 H   0  0  0  0  0  0  0  0  0  0  0  0
  144.2260   75.7318  220.9556 H   0  0  0  0  0  0  0  0  0  0  0  0
  144.9353   73.1545  220.6127 H   0  0  0  0  0  0  0  0  0  0  0  0
  143.7725   73.9058  221.8504 H   0  0  0  0  0  0  0  0  0  0  0  0
  143.2905   72.1091  219.5983 H   0  0  0  0  0  0  0  0  0  0  0  0
  142.5424   72.2791  221.2727 H   0  0  0  0  0  0  0  0  0  0  0  0
  138.8762   73.4233  219.7785 H   0  0  0  0  0  0  0  0  0  0  0  0
  138.7901   71.7603  219.1616 H   0  0  0  0  0  0  0  0  0  0  0  0
  139.9660   72.5800  221.8850 H   0  0  0  0  0  0  0  0  0  0  0  0
  138.4684   68.3073  222.5669 H   0  0  0  0  0  0  0  0  0  0  0  0
  138.7915   67.5201  224.9038 H   0  0  0  0  0  0  0  0  0  0  0  0
  139.6188   67.9358  227.0939 H   0  0  0  0  0  0  0  0  0  0  0  0
  141.5805   71.6350  227.9656 H   0  0  0  0  0  0  0  0  0  0  0  0
  141.2641   72.4276  225.6195 H   0  0  0  0  0  0  0  0  0  0  0  0
  139.3220   79.5344  223.6415 H   0  0  0  0  0  0  0  0  0  0  0  0
  140.1880   81.7939  224.0664 H   0  0  0  0  0  0  0  0  0  0  0  0
  142.5811   82.3088  223.6485 H   0  0  0  0  0  0  0  0  0  0  0  0
  144.0895   80.5075  222.7906 H   0  0  0  0  0  0  0  0  0  0  0  0
  143.2023   78.2230  222.3634 H   0  0  0  0  0  0  0  0  0  0  0  0
  1  2  1  0
  2  3  1  0
  3  4  1  0
  4  5  2  0
  4  6  1  0
  6  7  1  0
  7  8  1  0
  8  9  1  0
  9 10  1  0
 10 11  1  0
 11 12  1  0
 12 13  2  0
 12 14  1  0
 14 15  1  0
 15 16  1  0
 16 17  2  0
 16 18  1  0
 18 19  2  0
 19 20  1  0
 20 21  2  0
 21 22  1  0
 22 23  2  0
 23 24  1  0
 23 25  1  0
 25 26  2  0
 26 27  1  0
 27 28  2  0
  2 29  1  0
 29 30  2  0
 30 31  1  0
 31 32  2  0
 32 33  1  0
 33 34  2  0
 11  6  1  0
 28 18  1  0
 34 29  1  0
 27 21  1  0
  1 35  1  0
  1 36  1  0
  1 37  1  0
  2 38  1  1
  3 39  1  0
  6 40  1  6
  7 41  1  0
  7 42  1  0
  8 43  1  0
  8 44  1  0
  9 45  1  0
  9 46  1  0
 10 47  1  0
 10 48  1  0
 14 49  1  0
 14 50  1  0
 15 51  1  0
 19 52  1  0
 20 53  1  0
 22 54  1  0
 25 55  1  0
 26 56  1  0
 30 57  1  0
 31 58  1  0
 32 59  1  0
 33 60  1  0
 34 61  1  0
M  END
>  <smiles>  (61) 
C[C@@H](NC(=O)C1CCCCN1C(=O)CNC(=O)c1ccc2cc(F)ccc2n1)c1ccccc1

>  <score_type>  (61) 
oracle

>  <origin>  (61) 
autodockgpu

>  <m_score__min__energy>  (61) 
-9.5999999999999996

>  <m_primary>  (61) 
energy

>  <rmsd>  (61) 
3.0401578351209584

>  <m_score__min__rmsd>  (61) 
3.0401578351209584

>  <meeko>  (61) 
{"free_energy": -8.67, "intermolecular_energy": -10.76, "internal_energy": -2.9, "cluster_size": 26, "cluster_id": 1, "rank_in_cluster": 19}

>  <energy>  (61) 
-8.86

>  <cluster_rmsd>  (61) 
0.97

>  <cluster>  (61) 
1

$$$$

     RDKit          3D

 61 64  0  0  1  0  0  0  0  0999 V2000
  137.9310   77.1490  221.7960 C   0  0  0  0  0  0  0  0  0  0  0  0
  139.2840   76.7840  222.3560 C   0  0  1  0  0  0  0  0  0  0  0  0
  139.9750   75.9600  221.3890 N   0  0  0  0  0  0  0  0  0  0  0  0
  140.3190   76.4240  220.0880 C   0  0  0  0  0  0  0  0  0  0  0  0
  139.9950   77.6100  219.7850 O   0  0  0  0  0  0  0  0  0  0  0  0
  141.0200   75.5940  219.1060 C   0  0  1  0  0  0  0  0  0  0  0  0
  141.7780   76.3800  218.0660 C   0  0  0  0  0  0  0  0  0  0  0  0
  143.0460   76.9720  218.5420 C   0  0  0  0  0  0  0  0  0  0  0  0
  143.6910   76.3160  219.7100 C   0  0  0  0  0  0  0  0  0  0  0  0
  143.2500   74.9480  220.0480 C   0  0  0  0  0  0  0  0  0  0  0  0
  141.9090   74.6040  219.6200 N   0  0  0  0  0  0  0  0  0  0  0  0
  141.5390   73.2250  219.7450 C   0  0  0  0  0  0  0  0  0  0  0  0
  142.4850   72.3780  219.6320 O   0  0  0  0  0  0  0  0  0  0  0  0
  140.1360   72.8210  219.9920 C   0  0  0  0  0  0  0  0  0  0  0  0
  140.1500   71.9580  221.1650 N   0  0  0  0  0  0  0  0  0  0  0  0
  140.0550   72.4730  222.4870 C   0  0  0  0  0  0  0  0  0  0  0  0
  139.9530   73.7280  222.7030 O   0  0  0  0  0  0  0  0  0  0  0  0
  140.0750   71.5440  223.6180 C   0  0  0  0  0  0  0  0  0  0  0  0
  139.5900   70.2610  223.4710 C   0  0  0  0  0  0  0  0  0  0  0  0
  139.5910   69.3480  224.5170 C   0  0  0  0  0  0  0  0  0  0  0  0
  140.0940   69.7540  225.7250 C   0  0  0  0  0  0  0  0  0  0  0  0
  140.1070   68.8760  226.7770 C   0  0  0  0  0  0  0  0  0  0  0  0
  140.6170   69.2850  228.0070 C   0  0  0  0  0  0  0  0  0  0  0  0
  140.6010   68.3730  228.9970 F   0  0  0  0  0  0  0  0  0  0  0  0
  141.0920   70.5590  228.1330 C   0  0  0  0  0  0  0  0  0  0  0  0
  141.0970   71.4830  227.0900 C   0  0  0  0  0  0  0  0  0  0  0  0
  140.5830   71.0410  225.8850 C   0  0  0  0  0  0  0  0  0  0  0  0
  140.5550   71.8840  224.8290 N   0  0  0  0  0  0  0  0  0  0  0  0
  140.0720   77.9880  222.7270 C   0  0  0  0  0  0  0  0  0  0  0  0
  141.4580   78.0030  222.7330 C   0  0  0  0  0  0  0  0  0  0  0  0
  142.1920   79.1180  223.0780 C   0  0  0  0  0  0  0  0  0  0  0  0
  141.5450   80.2780  223.4320 C   0  0  0  0  0  0  0  0  0  0  0  0
  140.1470   80.3030  223.4370 C   0  0  0  0  0  0  0  0  0  0  0  0
  139.4180   79.1660  223.0870 C   0  0  0  0  0  0  0  0  0  0  0  0
  137.2307   77.3379  222.6230 H   0  0  0  0  0  0  0  0  0  0  0  0
  138.0220   78.0547  221.1784 H   0  0  0  0  0  0  0  0  0  0  0  0
  137.5541   76.3204  221.1784 H   0  0  0  0  0  0  0  0  0  0  0  0
  139.1524   76.2149  223.2881 H   0  0  0  0  0  0  0  0  0  0  0  0
  140.2200   74.9900  221.6910 H   0  0  0  0  0  0  0  0  0  0  0  0
  140.1632   75.0725  218.6543 H   0  0  0  0  0  0  0  0  0  0  0  0
  142.0080   75.7061  217.2275 H   0  0  0  0  0  0  0  0  0  0  0  0
  141.1303   77.2217  217.7796 H   0  0  0  0  0  0  0  0  0  0  0  0
  143.7613   76.9442  217.7068 H   0  0  0  0  0  0  0  0  0  0  0  0
  142.7822   77.9827  218.8867 H   0  0  0  0  0  0  0  0  0  0  0  0
  144.7719   76.2747  219.5103 H   0  0  0  0  0  0  0  0  0  0  0  0
  143.3978   76.9288  220.5752 H   0  0  0  0  0  0  0  0  0  0  0  0
  143.9485   74.2403  219.5776 H   0  0  0  0  0  0  0  0  0  0  0  0
  143.2405   74.8952  221.1467 H   0  0  0  0  0  0  0  0  0  0  0  0
  139.5137   73.7081  220.1813 H   0  0  0  0  0  0  0  0  0  0  0  0
  139.7153   72.2979  219.1206 H   0  0  0  0  0  0  0  0  0  0  0  0
  140.2320   70.9030  221.0650 H   0  0  0  0  0  0  0  0  0  0  0  0
  139.1898   69.9515  222.4942 H   0  0  0  0  0  0  0  0  0  0  0  0
  139.1997   68.3291  224.3799 H   0  0  0  0  0  0  0  0  0  0  0  0
  139.7173   67.8551  226.6510 H   0  0  0  0  0  0  0  0  0  0  0  0
  141.4916   70.8722  229.1088 H   0  0  0  0  0  0  0  0  0  0  0  0
  141.4868   72.5036  227.2178 H   0  0  0  0  0  0  0  0  0  0  0  0
  141.9955   77.0858  222.4503 H   0  0  0  0  0  0  0  0  0  0  0  0
  143.2913   79.0794  223.0700 H   0  0  0  0  0  0  0  0  0  0  0  0
  142.1194   81.1747  223.7077 H   0  0  0  0  0  0  0  0  0  0  0  0
  139.6182   81.2255  223.7188 H   0  0  0  0  0  0  0  0  0  0  0  0
  138.3185   79.1990  223.0951 H   0  0  0  0  0  0  0  0  0  0  0  0
  1  2  1  0
  2  3  1  0
  3  4  1  0
  4  5  2  0
  4  6  1  0
  6  7  1  0
  7  8  1  0
  8  9  1  0
  9 10  1  0
 10 11  1  0
 11 12  1  0
 12 13  2  0
 12 14  1  0
 14 15  1  0
 15 16  1  0
 16 17  2  0
 16 18  1  0
 18 19  2  0
 19 20  1  0
 20 21  2  0
 21 22  1  0
 22 23  2  0
 23 24  1  0
 23 25  1  0
 25 26  2  0
 26 27  1  0
 27 28  2  0
  2 29  1  0
 29 30  2  0
 30 31  1  0
 31 32  2  0
 32 33  1  0
 33 34  2  0
 11  6  1  0
 28 18  1  0
 34 29  1  0
 27 21  1  0
  1 35  1  0
  1 36  1  0
  1 37  1  0
  2 38  1  1
  3 39  1  0
  6 40  1  6
  7 41  1  0
  7 42  1  0
  8 43  1  0
  8 44  1  0
  9 45  1  0
  9 46  1  0
 10 47  1  0
 10 48  1  0
 14 49  1  0
 14 50  1  0
 15 51  1  0
 19 52  1  0
 20 53  1  0
 22 54  1  0
 25 55  1  0
 26 56  1  0
 30 57  1  0
 31 58  1  0
 32 59  1  0
 33 60  1  0
 34 61  1  0
M  END
>  <smiles>  (62) 
C[C@@H](NC(=O)C1CCCCN1C(=O)CNC(=O)c1ccc2cc(F)ccc2n1)c1ccccc1

>  <score_type>  (62) 
oracle

>  <origin>  (62) 
autodockgpu

>  <m_score__min__energy>  (62) 
-9.5999999999999996

>  <m_primary>  (62) 
energy

>  <rmsd>  (62) 
3.291851563245663

>  <m_score__min__rmsd>  (62) 
3.291851563245663

>  <meeko>  (62) 
{"free_energy": -8.61, "intermolecular_energy": -10.7, "internal_energy": -3.03, "cluster_size": 26, "cluster_id": 1, "rank_in_cluster": 21}

>  <energy>  (62) 
-8.84

>  <cluster_rmsd>  (62) 
0.98

>  <cluster>  (62) 
1

$$$$

     RDKit          3D

 61 64  0  0  1  0  0  0  0  0999 V2000
  142.2550   79.7680  224.0000 C   0  0  0  0  0  0  0  0  0  0  0  0
  142.2590   79.2760  222.5740 C   0  0  1  0  0  0  0  0  0  0  0  0
  141.3830   78.1300  222.4790 N   0  0  0  0  0  0  0  0  0  0  0  0
  139.9780   78.2160  222.6920 C   0  0  0  0  0  0  0  0  0  0  0  0
  139.4980   79.3520  222.9770 O   0  0  0  0  0  0  0  0  0  0  0  0
  139.0860   77.0590  222.5960 C   0  0  1  0  0  0  0  0  0  0  0  0
  137.6190   77.4070  222.6320 C   0  0  0  0  0  0  0  0  0  0  0  0
  137.0890   77.9810  221.3780 C   0  0  0  0  0  0  0  0  0  0  0  0
  137.8240   77.6480  220.1290 C   0  0  0  0  0  0  0  0  0  0  0  0
  138.7530   76.5010  220.1760 C   0  0  0  0  0  0  0  0  0  0  0  0
  139.2850   76.1850  221.4860 N   0  0  0  0  0  0  0  0  0  0  0  0
  140.0140   74.9550  221.5930 C   0  0  0  0  0  0  0  0  0  0  0  0
  141.2250   75.0540  221.9790 O   0  0  0  0  0  0  0  0  0  0  0  0
  139.3850   73.6540  221.2720 C   0  0  0  0  0  0  0  0  0  0  0  0
  139.6620   72.7680  222.3950 N   0  0  0  0  0  0  0  0  0  0  0  0
  138.8480   71.6390  222.6890 C   0  0  0  0  0  0  0  0  0  0  0  0
  137.8290   71.3530  221.9730 O   0  0  0  0  0  0  0  0  0  0  0  0
  139.1880   70.7940  223.8340 C   0  0  0  0  0  0  0  0  0  0  0  0
  138.8860   69.4470  223.8160 C   0  0  0  0  0  0  0  0  0  0  0  0
  139.1910   68.6100  224.8800 C   0  0  0  0  0  0  0  0  0  0  0  0
  139.8100   69.1570  225.9740 C   0  0  0  0  0  0  0  0  0  0  0  0
  140.1230   68.3550  227.0410 C   0  0  0  0  0  0  0  0  0  0  0  0
  140.7530   68.9080  228.1530 C   0  0  0  0  0  0  0  0  0  0  0  0
  141.0320   68.0660  229.1650 F   0  0  0  0  0  0  0  0  0  0  0  0
  141.0420   70.2430  228.1520 C   0  0  0  0  0  0  0  0  0  0  0  0
  140.7420   71.0920  227.0900 C   0  0  0  0  0  0  0  0  0  0  0  0
  140.1170   70.5090  226.0030 C   0  0  0  0  0  0  0  0  0  0  0  0
  139.7950   71.2730  224.9360 N   0  0  0  0  0  0  0  0  0  0  0  0
  141.8800   80.3490  221.6180 C   0  0  0  0  0  0  0  0  0  0  0  0
  141.8360   80.1480  220.2470 C   0  0  0  0  0  0  0  0  0  0  0  0
  141.4850   81.1420  219.3580 C   0  0  0  0  0  0  0  0  0  0  0  0
  141.1590   82.3930  219.8250 C   0  0  0  0  0  0  0  0  0  0  0  0
  141.1920   82.6340  221.2020 C   0  0  0  0  0  0  0  0  0  0  0  0
  141.5500   81.6190  222.0900 C   0  0  0  0  0  0  0  0  0  0  0  0
  142.2620   78.9072  224.6849 H   0  0  0  0  0  0  0  0  0  0  0  0
  143.1482   80.3851  224.1775 H   0  0  0  0  0  0  0  0  0  0  0  0
  141.3519   80.3705  224.1775 H   0  0  0  0  0  0  0  0  0  0  0  0
  143.2793   78.9743  222.2948 H   0  0  0  0  0  0  0  0  0  0  0  0
  141.8310   77.2170  222.2400 H   0  0  0  0  0  0  0  0  0  0  0  0
  139.3824   76.5186  223.5071 H   0  0  0  0  0  0  0  0  0  0  0  0
  137.0546   76.4893  222.8540 H   0  0  0  0  0  0  0  0  0  0  0  0
  137.5031   78.1838  223.4022 H   0  0  0  0  0  0  0  0  0  0  0  0
  136.0542   77.6270  221.2604 H   0  0  0  0  0  0  0  0  0  0  0  0
  137.1913   79.0702  221.4924 H   0  0  0  0  0  0  0  0  0  0  0  0
  137.0754   77.4354  219.3516 H   0  0  0  0  0  0  0  0  0  0  0  0
  138.4634   78.5220  219.9356 H   0  0  0  0  0  0  0  0  0  0  0  0
  138.2172   75.6150  219.8046 H   0  0  0  0  0  0  0  0  0  0  0  0
  139.6176   76.7860  219.5586 H   0  0  0  0  0  0  0  0  0  0  0  0
  138.2994   73.7784  221.1458 H   0  0  0  0  0  0  0  0  0  0  0  0
  139.7847   73.2414  220.3339 H   0  0  0  0  0  0  0  0  0  0  0  0
  140.4920   72.9420  223.0360 H   0  0  0  0  0  0  0  0  0  0  0  0
  138.3882   69.0241  222.9309 H   0  0  0  0  0  0  0  0  0  0  0  0
  138.9433   67.5388  224.8465 H   0  0  0  0  0  0  0  0  0  0  0  0
  139.8783   67.2828  227.0189 H   0  0  0  0  0  0  0  0  0  0  0  0
  141.5377   70.6697  229.0364 H   0  0  0  0  0  0  0  0  0  0  0  0
  140.9878   72.1639  227.1143 H   0  0  0  0  0  0  0  0  0  0  0  0
  142.0918   79.1539  219.8517 H   0  0  0  0  0  0  0  0  0  0  0  0
  141.4659   80.9343  218.2780 H   0  0  0  0  0  0  0  0  0  0  0  0
  140.8761   83.1933  219.1253 H   0  0  0  0  0  0  0  0  0  0  0  0
  140.9338   83.6312  221.5880 H   0  0  0  0  0  0  0  0  0  0  0  0
  141.5721   81.8222  223.1708 H   0  0  0  0  0  0  0  0  0  0  0  0
  1  2  1  0
  2  3  1  0
  3  4  1  0
  4  5  2  0
  4  6  1  0
  6  7  1  0
  7  8  1  0
  8  9  1  0
  9 10  1  0
 10 11  1  0
 11 12  1  0
 12 13  2  0
 12 14  1  0
 14 15  1  0
 15 16  1  0
 16 17  2  0
 16 18  1  0
 18 19  2  0
 19 20  1  0
 20 21  2  0
 21 22  1  0
 22 23  2  0
 23 24  1  0
 23 25  1  0
 25 26  2  0
 26 27  1  0
 27 28  2  0
  2 29  1  0
 29 30  2  0
 30 31  1  0
 31 32  2  0
 32 33  1  0
 33 34  2  0
 11  6  1  0
 28 18  1  0
 34 29  1  0
 27 21  1  0
  1 35  1  0
  1 36  1  0
  1 37  1  0
  2 38  1  6
  3 39  1  0
  6 40  1  1
  7 41  1  0
  7 42  1  0
  8 43  1  0
  8 44  1  0
  9 45  1  0
  9 46  1  0
 10 47  1  0
 10 48  1  0
 14 49  1  0
 14 50  1  0
 15 51  1  0
 19 52  1  0
 20 53  1  0
 22 54  1  0
 25 55  1  0
 26 56  1  0
 30 57  1  0
 31 58  1  0
 32 59  1  0
 33 60  1  0
 34 61  1  0
M  END
>  <smiles>  (63) 
C[C@@H](NC(=O)C1CCCCN1C(=O)CNC(=O)c1ccc2cc(F)ccc2n1)c1ccccc1

>  <score_type>  (63) 
oracle

>  <origin>  (63) 
autodockgpu

>  <m_score__min__energy>  (63) 
-9.5999999999999996

>  <m_primary>  (63) 
energy

>  <rmsd>  (63) 
2.6856018808014044

>  <m_score__min__rmsd>  (63) 
2.6856018808014044

>  <meeko>  (63) 
{"free_energy": -8.81, "intermolecular_energy": -10.9, "internal_energy": -2.99, "cluster_size": 17, "cluster_id": 2, "rank_in_cluster": 14}

>  <energy>  (63) 
-8.81

>  <cluster_rmsd>  (63) 
0.99

>  <cluster>  (63) 
1

$$$$

     RDKit          3D

 61 64  0  0  1  0  0  0  0  0999 V2000
  138.1730   80.3330  223.0300 C   0  0  0  0  0  0  0  0  0  0  0  0
  139.1630   79.2740  223.4470 C   0  0  1  0  0  0  0  0  0  0  0  0
  139.0110   78.1320  222.5740 N   0  0  0  0  0  0  0  0  0  0  0  0
  139.2940   78.1870  221.1790 C   0  0  0  0  0  0  0  0  0  0  0  0
  139.6910   79.2910  220.7060 O   0  0  0  0  0  0  0  0  0  0  0  0
  139.1420   77.0330  220.2910 C   0  0  1  0  0  0  0  0  0  0  0  0
  139.7510   77.2240  218.9250 C   0  0  0  0  0  0  0  0  0  0  0  0
  141.2250   77.1210  218.8850 C   0  0  0  0  0  0  0  0  0  0  0  0
  141.8680   76.3330  219.9700 C   0  0  0  0  0  0  0  0  0  0  0  0
  141.0050   75.4200  220.7460 C   0  0  0  0  0  0  0  0  0  0  0  0
  139.6020   75.7760  220.7870 N   0  0  0  0  0  0  0  0  0  0  0  0
  138.7170   74.7980  221.3490 C   0  0  0  0  0  0  0  0  0  0  0  0
  138.0270   75.1780  222.3510 O   0  0  0  0  0  0  0  0  0  0  0  0
  138.6190   73.4320  220.7890 C   0  0  0  0  0  0  0  0  0  0  0  0
  138.7170   72.5110  221.9140 N   0  0  0  0  0  0  0  0  0  0  0  0
  139.9090   72.3720  222.6790 C   0  0  0  0  0  0  0  0  0  0  0  0
  140.9540   73.0550  222.4060 O   0  0  0  0  0  0  0  0  0  0  0  0
  139.9330   71.4270  223.7960 C   0  0  0  0  0  0  0  0  0  0  0  0
  139.4080   70.1600  223.6450 C   0  0  0  0  0  0  0  0  0  0  0  0
  139.4110   69.2340  224.6780 C   0  0  0  0  0  0  0  0  0  0  0  0
  139.9560   69.6090  225.8780 C   0  0  0  0  0  0  0  0  0  0  0  0
  139.9730   68.7150  226.9180 C   0  0  0  0  0  0  0  0  0  0  0  0
  140.5270   69.0930  228.1380 C   0  0  0  0  0  0  0  0  0  0  0  0
  140.5110   68.1680  229.1170 F   0  0  0  0  0  0  0  0  0  0  0  0
  141.0410   70.3520  228.2680 C   0  0  0  0  0  0  0  0  0  0  0  0
  141.0440   71.2890  227.2390 C   0  0  0  0  0  0  0  0  0  0  0  0
  140.4860   70.8790  226.0410 C   0  0  0  0  0  0  0  0  0  0  0  0
  140.4540   71.7370  224.9990 N   0  0  0  0  0  0  0  0  0  0  0  0
  140.5570   79.7910  223.4520 C   0  0  0  0  0  0  0  0  0  0  0  0
  140.8680   81.0990  223.7920 C   0  0  0  0  0  0  0  0  0  0  0  0
  142.1600   81.5820  223.7960 C   0  0  0  0  0  0  0  0  0  0  0  0
  143.2000   80.7520  223.4540 C   0  0  0  0  0  0  0  0  0  0  0  0
  142.9260   79.4260  223.1040 C   0  0  0  0  0  0  0  0  0  0  0  0
  141.6130   78.9510  223.1040 C   0  0  0  0  0  0  0  0  0  0  0  0
  137.7366   80.7998  223.9253 H   0  0  0  0  0  0  0  0  0  0  0  0
  138.6864   81.0990  222.4303 H   0  0  0  0  0  0  0  0  0  0  0  0
  137.3742   79.8724  222.4303 H   0  0  0  0  0  0  0  0  0  0  0  0
  138.9550   78.9673  224.4827 H   0  0  0  0  0  0  0  0  0  0  0  0
  138.6810   77.2460  223.0170 H   0  0  0  0  0  0  0  0  0  0  0  0
  138.0448   76.9876  220.2275 H   0  0  0  0  0  0  0  0  0  0  0  0
  139.3358   76.4570  218.2547 H   0  0  0  0  0  0  0  0  0  0  0  0
  139.5032   78.2501  218.6155 H   0  0  0  0  0  0  0  0  0  0  0  0
  141.5010   76.6565  217.9269 H   0  0  0  0  0  0  0  0  0  0  0  0
  141.5909   78.1497  219.0183 H   0  0  0  0  0  0  0  0  0  0  0  0
  142.6629   75.7265  219.5114 H   0  0  0  0  0  0  0  0  0  0  0  0
  142.2127   77.0826  220.6975 H   0  0  0  0  0  0  0  0  0  0  0  0
  141.0876   74.4166  220.3030 H   0  0  0  0  0  0  0  0  0  0  0  0
  141.3621   75.4755  221.7849 H   0  0  0  0  0  0  0  0  0  0  0  0
  137.6555   73.3012  220.2746 H   0  0  0  0  0  0  0  0  0  0  0  0
  139.4170   73.2468  220.0549 H   0  0  0  0  0  0  0  0  0  0  0  0
  137.8890   71.9100  222.2010 H   0  0  0  0  0  0  0  0  0  0  0  0
  138.9736   69.8753  222.6754 H   0  0  0  0  0  0  0  0  0  0  0  0
  138.9883   68.2282  224.5379 H   0  0  0  0  0  0  0  0  0  0  0  0
  139.5521   67.7069  226.7891 H   0  0  0  0  0  0  0  0  0  0  0  0
  141.4752   70.6402  229.2367 H   0  0  0  0  0  0  0  0  0  0  0  0
  141.4653   72.2966  227.3703 H   0  0  0  0  0  0  0  0  0  0  0  0
  140.0500   81.7799  224.0702 H   0  0  0  0  0  0  0  0  0  0  0  0
  142.3570   82.6284  224.0721 H   0  0  0  0  0  0  0  0  0  0  0  0
  144.2346   81.1255  223.4554 H   0  0  0  0  0  0  0  0  0  0  0  0
  143.7505   78.7527  222.8268 H   0  0  0  0  0  0  0  0  0  0  0  0
  141.4107   77.9058  222.8272 H   0  0  0  0  0  0  0  0  0  0  0  0
  1  2  1  0
  2  3  1  0
  3  4  1  0
  4  5  2  0
  4  6  1  0
  6  7  1  0
  7  8  1  0
  8  9  1  0
  9 10  1  0
 10 11  1  0
 11 12  1  0
 12 13  2  0
 12 14  1  0
 14 15  1  0
 15 16  1  0
 16 17  2  0
 16 18  1  0
 18 19  2  0
 19 20  1  0
 20 21  2  0
 21 22  1  0
 22 23  2  0
 23 24  1  0
 23 25  1  0
 25 26  2  0
 26 27  1  0
 27 28  2  0
  2 29  1  0
 29 30  2  0
 30 31  1  0
 31 32  2  0
 32 33  1  0
 33 34  2  0
 11  6  1  0
 28 18  1  0
 34 29  1  0
 27 21  1  0
  1 35  1  0
  1 36  1  0
  1 37  1  0
  2 38  1  1
  3 39  1  0
  6 40  1  6
  7 41  1  0
  7 42  1  0
  8 43  1  0
  8 44  1  0
  9 45  1  0
  9 46  1  0
 10 47  1  0
 10 48  1  0
 14 49  1  0
 14 50  1  0
 15 51  1  0
 19 52  1  0
 20 53  1  0
 22 54  1  0
 25 55  1  0
 26 56  1  0
 30 57  1  0
 31 58  1  0
 32 59  1  0
 33 60  1  0
 34 61  1  0
M  END
>  <smiles>  (64) 
C[C@@H](NC(=O)C1CCCCN1C(=O)CNC(=O)c1ccc2cc(F)ccc2n1)c1ccccc1

>  <score_type>  (64) 
oracle

>  <origin>  (64) 
autodockgpu

>  <m_score__min__energy>  (64) 
-9.5999999999999996

>  <m_primary>  (64) 
energy

>  <rmsd>  (64) 
2.784681189416203

>  <m_score__min__rmsd>  (64) 
2.784681189416203

>  <meeko>  (64) 
{"free_energy": -8.77, "intermolecular_energy": -10.85, "internal_energy": -2.62, "cluster_size": 26, "cluster_id": 1, "rank_in_cluster": 15}

>  <energy>  (64) 
-8.8

>  <cluster_rmsd>  (64) 
0.96

>  <cluster>  (64) 
1

$$$$

     RDKit          3D

 61 64  0  0  1  0  0  0  0  0999 V2000
  138.4450   77.0110  222.3990 C   0  0  0  0  0  0  0  0  0  0  0  0
  139.9200   76.9460  222.7080 C   0  0  1  0  0  0  0  0  0  0  0  0
  140.5670   76.1400  221.6980 N   0  0  0  0  0  0  0  0  0  0  0  0
  140.3900   76.3650  220.3030 C   0  0  0  0  0  0  0  0  0  0  0  0
  139.6290   77.3140  219.9560 O   0  0  0  0  0  0  0  0  0  0  0  0
  141.0440   75.5510  219.2760 C   0  0  1  0  0  0  0  0  0  0  0  0
  141.6830   76.3530  218.1700 C   0  0  0  0  0  0  0  0  0  0  0  0
  142.9580   77.0030  218.5350 C   0  0  0  0  0  0  0  0  0  0  0  0
  143.7230   76.3910  219.6550 C   0  0  0  0  0  0  0  0  0  0  0  0
  143.3690   75.0110  220.0410 C   0  0  0  0  0  0  0  0  0  0  0  0
  142.0140   74.6060  219.7270 N   0  0  0  0  0  0  0  0  0  0  0  0
  141.7140   73.2140  219.8970 C   0  0  0  0  0  0  0  0  0  0  0  0
  142.7160   72.4270  219.9450 O   0  0  0  0  0  0  0  0  0  0  0  0
  140.3180   72.7330  220.0070 C   0  0  0  0  0  0  0  0  0  0  0  0
  140.2580   71.8990  221.2000 N   0  0  0  0  0  0  0  0  0  0  0  0
  140.0720   72.4460  222.5000 C   0  0  0  0  0  0  0  0  0  0  0  0
  139.9500   73.7060  222.6770 O   0  0  0  0  0  0  0  0  0  0  0  0
  140.0210   71.5460  223.6530 C   0  0  0  0  0  0  0  0  0  0  0  0
  139.4200   70.3090  223.5410 C   0  0  0  0  0  0  0  0  0  0  0  0
  139.3500   69.4250  224.6080 C   0  0  0  0  0  0  0  0  0  0  0  0
  139.9000   69.8120  225.8020 C   0  0  0  0  0  0  0  0  0  0  0  0
  139.8460   68.9600  226.8750 C   0  0  0  0  0  0  0  0  0  0  0  0
  140.4050   69.3500  228.0890 C   0  0  0  0  0  0  0  0  0  0  0  0
  140.3170   68.4670  229.1020 F   0  0  0  0  0  0  0  0  0  0  0  0
  140.9940   70.5780  228.1800 C   0  0  0  0  0  0  0  0  0  0  0  0
  141.0710   71.4730  227.1160 C   0  0  0  0  0  0  0  0  0  0  0  0
  140.5060   71.0520  225.9260 C   0  0  0  0  0  0  0  0  0  0  0  0
  140.5430   71.8700  224.8510 N   0  0  0  0  0  0  0  0  0  0  0  0
  140.5230   78.3010  222.8110 C   0  0  0  0  0  0  0  0  0  0  0  0
  139.8610   79.3720  223.3920 C   0  0  0  0  0  0  0  0  0  0  0  0
  140.4180   80.6300  223.4870 C   0  0  0  0  0  0  0  0  0  0  0  0
  141.6800   80.8580  222.9950 C   0  0  0  0  0  0  0  0  0  0  0  0
  142.3790   79.8030  222.4010 C   0  0  0  0  0  0  0  0  0  0  0  0
  141.8030   78.5340  222.3110 C   0  0  0  0  0  0  0  0  0  0  0  0
  137.8742   77.0362  223.3390 H   0  0  0  0  0  0  0  0  0  0  0  0
  138.2321   77.9194  221.8163 H   0  0  0  0  0  0  0  0  0  0  0  0
  138.1530   76.1249  221.8163 H   0  0  0  0  0  0  0  0  0  0  0  0
  140.0669   76.4779  223.6925 H   0  0  0  0  0  0  0  0  0  0  0  0
  141.1850   75.3700  222.0400 H   0  0  0  0  0  0  0  0  0  0  0  0
  140.1762   74.9888  218.9009 H   0  0  0  0  0  0  0  0  0  0  0  0
  141.8732   75.6774  217.3230 H   0  0  0  0  0  0  0  0  0  0  0  0
  140.9796   77.1635  217.9283 H   0  0  0  0  0  0  0  0  0  0  0  0
  143.6043   76.9926  217.6449 H   0  0  0  0  0  0  0  0  0  0  0  0
  142.6800   78.0067  218.8890 H   0  0  0  0  0  0  0  0  0  0  0  0
  144.7853   76.3922  219.3693 H   0  0  0  0  0  0  0  0  0  0  0  0
  143.4750   77.0031  220.5346 H   0  0  0  0  0  0  0  0  0  0  0  0
  144.0565   74.3266  219.5224 H   0  0  0  0  0  0  0  0  0  0  0  0
  143.4504   74.9727  221.1373 H   0  0  0  0  0  0  0  0  0  0  0  0
  139.6295   73.5853  220.1047 H   0  0  0  0  0  0  0  0  0  0  0  0
  140.0218   72.1667  219.1117 H   0  0  0  0  0  0  0  0  0  0  0  0
  140.3510   70.8420  221.1330 H   0  0  0  0  0  0  0  0  0  0  0  0
  138.9827   70.0145  222.5756 H   0  0  0  0  0  0  0  0  0  0  0  0
  138.8673   68.4426  224.4988 H   0  0  0  0  0  0  0  0  0  0  0  0
  139.3646   67.9757  226.7774 H   0  0  0  0  0  0  0  0  0  0  0  0
  141.4308   70.8763  229.1445 H   0  0  0  0  0  0  0  0  0  0  0  0
  141.5528   72.4568  227.2161 H   0  0  0  0  0  0  0  0  0  0  0  0
  138.8496   79.2115  223.7938 H   0  0  0  0  0  0  0  0  0  0  0  0
  139.8529   81.4491  223.9558 H   0  0  0  0  0  0  0  0  0  0  0  0
  142.1345   81.8571  223.0674 H   0  0  0  0  0  0  0  0  0  0  0  0
  143.3897   79.9736  222.0018 H   0  0  0  0  0  0  0  0  0  0  0  0
  142.3637   77.7121  221.8420 H   0  0  0  0  0  0  0  0  0  0  0  0
  1  2  1  0
  2  3  1  0
  3  4  1  0
  4  5  2  0
  4  6  1  0
  6  7  1  0
  7  8  1  0
  8  9  1  0
  9 10  1  0
 10 11  1  0
 11 12  1  0
 12 13  2  0
 12 14  1  0
 14 15  1  0
 15 16  1  0
 16 17  2  0
 16 18  1  0
 18 19  2  0
 19 20  1  0
 20 21  2  0
 21 22  1  0
 22 23  2  0
 23 24  1  0
 23 25  1  0
 25 26  2  0
 26 27  1  0
 27 28  2  0
  2 29  1  0
 29 30  2  0
 30 31  1  0
 31 32  2  0
 32 33  1  0
 33 34  2  0
 11  6  1  0
 28 18  1  0
 34 29  1  0
 27 21  1  0
  1 35  1  0
  1 36  1  0
  1 37  1  0
  2 38  1  1
  3 39  1  0
  6 40  1  6
  7 41  1  0
  7 42  1  0
  8 43  1  0
  8 44  1  0
  9 45  1  0
  9 46  1  0
 10 47  1  0
 10 48  1  0
 14 49  1  0
 14 50  1  0
 15 51  1  0
 19 52  1  0
 20 53  1  0
 22 54  1  0
 25 55  1  0
 26 56  1  0
 30 57  1  0
 31 58  1  0
 32 59  1  0
 33 60  1  0
 34 61  1  0
M  END
>  <smiles>  (65) 
C[C@@H](NC(=O)C1CCCCN1C(=O)CNC(=O)c1ccc2cc(F)ccc2n1)c1ccccc1

>  <score_type>  (65) 
oracle

>  <origin>  (65) 
autodockgpu

>  <m_score__min__energy>  (65) 
-9.5999999999999996

>  <m_primary>  (65) 
energy

>  <rmsd>  (65) 
2.987093219633754

>  <m_score__min__rmsd>  (65) 
2.987093219633754

>  <meeko>  (65) 
{"free_energy": -8.84, "intermolecular_energy": -10.93, "internal_energy": -2.94, "cluster_size": 26, "cluster_id": 1, "rank_in_cluster": 12}

>  <energy>  (65) 
-8.77

>  <cluster_rmsd>  (65) 
1.58

>  <cluster>  (65) 
1

$$$$

     RDKit          3D

 61 64  0  0  1  0  0  0  0  0999 V2000
  137.7890   79.4500  222.4150 C   0  0  0  0  0  0  0  0  0  0  0  0
  138.8330   78.5940  223.0900 C   0  0  1  0  0  0  0  0  0  0  0  0
  138.9520   77.3520  222.3580 N   0  0  0  0  0  0  0  0  0  0  0  0
  139.5910   77.2660  221.0880 C   0  0  0  0  0  0  0  0  0  0  0  0
  140.0640   78.3320  220.5980 O   0  0  0  0  0  0  0  0  0  0  0  0
  139.7150   76.0110  220.3440 C   0  0  1  0  0  0  0  0  0  0  0  0
  140.2960   76.1710  218.9620 C   0  0  0  0  0  0  0  0  0  0  0  0
  141.7570   76.3930  218.9270 C   0  0  0  0  0  0  0  0  0  0  0  0
  142.5350   75.8980  220.0940 C   0  0  0  0  0  0  0  0  0  0  0  0
  141.8780   74.9140  220.9780 C   0  0  0  0  0  0  0  0  0  0  0  0
  140.4300   74.9540  220.9830 N   0  0  0  0  0  0  0  0  0  0  0  0
  139.7700   73.8780  221.6620 C   0  0  0  0  0  0  0  0  0  0  0  0
  140.3840   73.3890  222.6670 O   0  0  0  0  0  0  0  0  0  0  0  0
  138.4520   73.3730  221.2140 C   0  0  0  0  0  0  0  0  0  0  0  0
  137.5150   73.6330  222.2980 N   0  0  0  0  0  0  0  0  0  0  0  0
  136.7800   74.8480  222.3900 C   0  0  0  0  0  0  0  0  0  0  0  0
  136.9140   75.7710  221.5180 O   0  0  0  0  0  0  0  0  0  0  0  0
  135.8540   75.0380  223.5080 C   0  0  0  0  0  0  0  0  0  0  0  0
  135.5010   76.3110  223.9070 C   0  0  0  0  0  0  0  0  0  0  0  0
  134.6270   76.5360  224.9610 C   0  0  0  0  0  0  0  0  0  0  0  0
  134.1100   75.4480  225.6140 C   0  0  0  0  0  0  0  0  0  0  0  0
  133.2450   75.6390  226.6590 C   0  0  0  0  0  0  0  0  0  0  0  0
  132.7170   74.5350  227.3240 C   0  0  0  0  0  0  0  0  0  0  0  0
  131.8740   74.7930  228.3410 F   0  0  0  0  0  0  0  0  0  0  0  0
  133.0800   73.2830  226.9150 C   0  0  0  0  0  0  0  0  0  0  0  0
  133.9550   73.0450  225.8580 C   0  0  0  0  0  0  0  0  0  0  0  0
  134.4590   74.1650  225.2220 C   0  0  0  0  0  0  0  0  0  0  0  0
  135.3140   74.0090  224.1880 N   0  0  0  0  0  0  0  0  0  0  0  0
  140.1350   79.3000  223.2080 C   0  0  0  0  0  0  0  0  0  0  0  0
  141.3380   78.6280  223.3670 C   0  0  0  0  0  0  0  0  0  0  0  0
  142.5480   79.2810  223.4770 C   0  0  0  0  0  0  0  0  0  0  0  0
  142.5910   80.6530  223.4290 C   0  0  0  0  0  0  0  0  0  0  0  0
  141.3990   81.3650  223.2690 C   0  0  0  0  0  0  0  0  0  0  0  0
  140.1810   80.6920  223.1590 C   0  0  0  0  0  0  0  0  0  0  0  0
  137.1767   79.9520  223.1786 H   0  0  0  0  0  0  0  0  0  0  0  0
  138.2842   80.2054  221.7872 H   0  0  0  0  0  0  0  0  0  0  0  0
  137.1452   78.8164  221.7872 H   0  0  0  0  0  0  0  0  0  0  0  0
  138.5180   78.3772  224.1214 H   0  0  0  0  0  0  0  0  0  0  0  0
  138.5450   76.5030  222.8100 H   0  0  0  0  0  0  0  0  0  0  0  0
  138.6563   75.7170  220.2922 H   0  0  0  0  0  0  0  0  0  0  0  0
  140.0745   75.2581  218.3896 H   0  0  0  0  0  0  0  0  0  0  0  0
  139.8348   77.0733  218.5341 H   0  0  0  0  0  0  0  0  0  0  0  0
  142.1488   75.8933  218.0288 H   0  0  0  0  0  0  0  0  0  0  0  0
  141.8842   77.4856  218.9366 H   0  0  0  0  0  0  0  0  0  0  0  0
  143.4528   75.4323  219.7057 H   0  0  0  0  0  0  0  0  0  0  0  0
  142.6915   76.7848  220.7257 H   0  0  0  0  0  0  0  0  0  0  0  0
  142.1888   73.9087  220.6573 H   0  0  0  0  0  0  0  0  0  0  0  0
  142.1922   75.1679  222.0011 H   0  0  0  0  0  0  0  0  0  0  0  0
  138.1335   73.9004  220.3027 H   0  0  0  0  0  0  0  0  0  0  0  0
  138.4981   72.2993  220.9792 H   0  0  0  0  0  0  0  0  0  0  0  0
  137.3490   72.9120  223.0610 H   0  0  0  0  0  0  0  0  0  0  0  0
  135.9256   77.1739  223.3731 H   0  0  0  0  0  0  0  0  0  0  0  0
  134.3569   77.5585  225.2636 H   0  0  0  0  0  0  0  0  0  0  0  0
  132.9693   76.6573  226.9707 H   0  0  0  0  0  0  0  0  0  0  0  0
  132.6592   72.4179  227.4484 H   0  0  0  0  0  0  0  0  0  0  0  0
  134.2292   72.0261  225.5472 H   0  0  0  0  0  0  0  0  0  0  0  0
  141.3266   77.5288  223.4070 H   0  0  0  0  0  0  0  0  0  0  0  0
  143.4763   78.7044  223.6029 H   0  0  0  0  0  0  0  0  0  0  0  0
  143.5504   81.1841  223.5153 H   0  0  0  0  0  0  0  0  0  0  0  0
  141.4208   82.4641  223.2294 H   0  0  0  0  0  0  0  0  0  0  0  0
  139.2504   81.2648  223.0327 H   0  0  0  0  0  0  0  0  0  0  0  0
  1  2  1  0
  2  3  1  0
  3  4  1  0
  4  5  2  0
  4  6  1  0
  6  7  1  0
  7  8  1  0
  8  9  1  0
  9 10  1  0
 10 11  1  0
 11 12  1  0
 12 13  2  0
 12 14  1  0
 14 15  1  0
 15 16  1  0
 16 17  2  0
 16 18  1  0
 18 19  2  0
 19 20  1  0
 20 21  2  0
 21 22  1  0
 22 23  2  0
 23 24  1  0
 23 25  1  0
 25 26  2  0
 26 27  1  0
 27 28  2  0
  2 29  1  0
 29 30  2  0
 30 31  1  0
 31 32  2  0
 32 33  1  0
 33 34  2  0
 11  6  1  0
 28 18  1  0
 34 29  1  0
 27 21  1  0
  1 35  1  0
  1 36  1  0
  1 37  1  0
  2 38  1  1
  3 39  1  0
  6 40  1  6
  7 41  1  0
  7 42  1  0
  8 43  1  0
  8 44  1  0
  9 45  1  0
  9 46  1  0
 10 47  1  0
 10 48  1  0
 14 49  1  0
 14 50  1  0
 15 51  1  0
 19 52  1  0
 20 53  1  0
 22 54  1  0
 25 55  1  0
 26 56  1  0
 30 57  1  0
 31 58  1  0
 32 59  1  0
 33 60  1  0
 34 61  1  0
M  END
>  <smiles>  (66) 
C[C@@H](NC(=O)C1CCCCN1C(=O)CNC(=O)c1ccc2cc(F)ccc2n1)c1ccccc1

>  <score_type>  (66) 
oracle

>  <origin>  (66) 
autodockgpu

>  <m_score__min__energy>  (66) 
-9.5999999999999996

>  <m_primary>  (66) 
energy

>  <rmsd>  (66) 
5.495494678403275

>  <m_score__min__rmsd>  (66) 
5.495494678403275

>  <meeko>  (66) 
{"free_energy": -7.31, "intermolecular_energy": -9.4, "internal_energy": -3.36, "cluster_size": 1, "cluster_id": 6, "rank_in_cluster": 1}

>  <energy>  (66) 
-8.74

>  <cluster_rmsd>  (66) 
1.57

>  <cluster>  (66) 
1

$$$$

     RDKit          3D

 61 64  0  0  1  0  0  0  0  0999 V2000
  138.2560   78.5000  222.4090 C   0  0  0  0  0  0  0  0  0  0  0  0
  139.6420   77.9150  222.5180 C   0  0  1  0  0  0  0  0  0  0  0  0
  139.9550   77.2360  221.2800 N   0  0  0  0  0  0  0  0  0  0  0  0
  140.7700   76.0700  221.2260 C   0  0  0  0  0  0  0  0  0  0  0  0
  141.2320   75.6280  222.3180 O   0  0  0  0  0  0  0  0  0  0  0  0
  141.0890   75.3780  219.9750 C   0  0  1  0  0  0  0  0  0  0  0  0
  141.2790   76.2980  218.7950 C   0  0  0  0  0  0  0  0  0  0  0  0
  142.5670   77.0230  218.7780 C   0  0  0  0  0  0  0  0  0  0  0  0
  143.6920   76.4020  219.5280 C   0  0  0  0  0  0  0  0  0  0  0  0
  143.5610   74.9760  219.8880 C   0  0  0  0  0  0  0  0  0  0  0  0
  142.2020   74.4860  220.0000 N   0  0  0  0  0  0  0  0  0  0  0  0
  142.0500   73.0670  220.1370 C   0  0  0  0  0  0  0  0  0  0  0  0
  143.1260   72.4010  220.2910 O   0  0  0  0  0  0  0  0  0  0  0  0
  140.7170   72.4260  220.0980 C   0  0  0  0  0  0  0  0  0  0  0  0
  140.6160   71.6020  221.2960 N   0  0  0  0  0  0  0  0  0  0  0  0
  140.2280   72.1380  222.5550 C   0  0  0  0  0  0  0  0  0  0  0  0
  139.9510   73.3780  222.6900 O   0  0  0  0  0  0  0  0  0  0  0  0
  140.1470   71.2490  223.7150 C   0  0  0  0  0  0  0  0  0  0  0  0
  139.5580   70.0070  223.5980 C   0  0  0  0  0  0  0  0  0  0  0  0
  139.4620   69.1330  224.6710 C   0  0  0  0  0  0  0  0  0  0  0  0
  139.9730   69.5360  225.8780 C   0  0  0  0  0  0  0  0  0  0  0  0
  139.8920   68.6950  226.9570 C   0  0  0  0  0  0  0  0  0  0  0  0
  140.4100   69.1000  228.1840 C   0  0  0  0  0  0  0  0  0  0  0  0
  140.2980   68.2270  229.2020 F   0  0  0  0  0  0  0  0  0  0  0  0
  140.9890   70.3340  228.2800 C   0  0  0  0  0  0  0  0  0  0  0  0
  141.0920   71.2180  227.2090 C   0  0  0  0  0  0  0  0  0  0  0  0
  140.5660   70.7820  226.0070 C   0  0  0  0  0  0  0  0  0  0  0  0
  140.6310   71.5880  224.9250 N   0  0  0  0  0  0  0  0  0  0  0  0
  140.6540   78.9490  222.8570 C   0  0  0  0  0  0  0  0  0  0  0  0
  140.3260   80.1350  223.4970 C   0  0  0  0  0  0  0  0  0  0  0  0
  141.2620   81.0970  223.8120 C   0  0  0  0  0  0  0  0  0  0  0  0
  142.5830   80.8960  223.4900 C   0  0  0  0  0  0  0  0  0  0  0  0
  142.9520   79.7130  222.8430 C   0  0  0  0  0  0  0  0  0  0  0  0
  141.9940   78.7480  222.5300 C   0  0  0  0  0  0  0  0  0  0  0  0
  137.8500   78.6714  223.4169 H   0  0  0  0  0  0  0  0  0  0  0  0
  138.3028   79.4551  221.8653 H   0  0  0  0  0  0  0  0  0  0  0  0
  137.6043   77.8002  221.8653 H   0  0  0  0  0  0  0  0  0  0  0  0
  139.6673   77.1898  223.3447 H   0  0  0  0  0  0  0  0  0  0  0  0
  139.5470   77.6430  220.4080 H   0  0  0  0  0  0  0  0  0  0  0  0
  140.1779   74.7730  219.8569 H   0  0  0  0  0  0  0  0  0  0  0  0
  141.2127   75.6958  217.8769 H   0  0  0  0  0  0  0  0  0  0  0  0
  140.4926   77.0636  218.8682 H   0  0  0  0  0  0  0  0  0  0  0  0
  142.8803   77.1218  217.7282 H   0  0  0  0  0  0  0  0  0  0  0  0
  142.3694   77.9766  219.2895 H   0  0  0  0  0  0  0  0  0  0  0  0
  144.5970   76.5052  218.9113 H   0  0  0  0  0  0  0  0  0  0  0  0
  143.7179   76.9347  220.4901 H   0  0  0  0  0  0  0  0  0  0  0  0
  144.0733   74.3826  219.1163 H   0  0  0  0  0  0  0  0  0  0  0  0
  144.0036   74.8742  220.8899 H   0  0  0  0  0  0  0  0  0  0  0  0
  139.9274   73.1919  220.0965 H   0  0  0  0  0  0  0  0  0  0  0  0
  140.5947   71.8200  219.1882 H   0  0  0  0  0  0  0  0  0  0  0  0
  140.8300   70.5620  221.2630 H   0  0  0  0  0  0  0  0  0  0  0  0
  139.1516   69.7000  222.6230 H   0  0  0  0  0  0  0  0  0  0  0  0
  138.9900   68.1460  224.5570 H   0  0  0  0  0  0  0  0  0  0  0  0
  139.4207   67.7064  226.8542 H   0  0  0  0  0  0  0  0  0  0  0  0
  141.3948   70.6452  229.2539 H   0  0  0  0  0  0  0  0  0  0  0  0
  141.5644   72.2059  227.3132 H   0  0  0  0  0  0  0  0  0  0  0  0
  139.2745   80.3157  223.7646 H   0  0  0  0  0  0  0  0  0  0  0  0
  140.9525   82.0226  224.3195 H   0  0  0  0  0  0  0  0  0  0  0  0
  143.3392   81.6554  223.7379 H   0  0  0  0  0  0  0  0  0  0  0  0
  144.0059   79.5415  222.5786 H   0  0  0  0  0  0  0  0  0  0  0  0
  142.2986   77.8215  222.0213 H   0  0  0  0  0  0  0  0  0  0  0  0
  1  2  1  0
  2  3  1  0
  3  4  1  0
  4  5  2  0
  4  6  1  0
  6  7  1  0
  7  8  1  0
  8  9  1  0
  9 10  1  0
 10 11  1  0
 11 12  1  0
 12 13  2  0
 12 14  1  0
 14 15  1  0
 15 16  1  0
 16 17  2  0
 16 18  1  0
 18 19  2  0
 19 20  1  0
 20 21  2  0
 21 22  1  0
 22 23  2  0
 23 24  1  0
 23 25  1  0
 25 26  2  0
 26 27  1  0
 27 28  2  0
  2 29  1  0
 29 30  2  0
 30 31  1  0
 31 32  2  0
 32 33  1  0
 33 34  2  0
 11  6  1  0
 28 18  1  0
 34 29  1  0
 27 21  1  0
  1 35  1  0
  1 36  1  0
  1 37  1  0
  2 38  1  1
  3 39  1  0
  6 40  1  6
  7 41  1  0
  7 42  1  0
  8 43  1  0
  8 44  1  0
  9 45  1  0
  9 46  1  0
 10 47  1  0
 10 48  1  0
 14 49  1  0
 14 50  1  0
 15 51  1  0
 19 52  1  0
 20 53  1  0
 22 54  1  0
 25 55  1  0
 26 56  1  0
 30 57  1  0
 31 58  1  0
 32 59  1  0
 33 60  1  0
 34 61  1  0
M  END
>  <smiles>  (67) 
C[C@@H](NC(=O)C1CCCCN1C(=O)CNC(=O)c1ccc2cc(F)ccc2n1)c1ccccc1

>  <score_type>  (67) 
oracle

>  <origin>  (67) 
autodockgpu

>  <m_score__min__energy>  (67) 
-9.5999999999999996

>  <m_primary>  (67) 
energy

>  <rmsd>  (67) 
3.036231754336265

>  <m_score__min__rmsd>  (67) 
3.036231754336265

>  <meeko>  (67) 
{"free_energy": -9.6, "intermolecular_energy": -11.69, "internal_energy": -2.14, "cluster_size": 26, "cluster_id": 1, "rank_in_cluster": 1}

>  <energy>  (67) 
-8.73

>  <cluster_rmsd>  (67) 
1.68

>  <cluster>  (67) 
1

$$$$

     RDKit          3D

 61 64  0  0  1  0  0  0  0  0999 V2000
  142.5520   79.7640  223.6740 C   0  0  0  0  0  0  0  0  0  0  0  0
  142.2300   79.9640  222.2130 C   0  0  1  0  0  0  0  0  0  0  0  0
  141.7750   78.7050  221.6650 N   0  0  0  0  0  0  0  0  0  0  0  0
  141.3940   78.5520  220.3020 C   0  0  0  0  0  0  0  0  0  0  0  0
  141.4630   79.5730  219.5570 O   0  0  0  0  0  0  0  0  0  0  0  0
  140.9340   77.2800  219.7420 C   0  0  1  0  0  0  0  0  0  0  0  0
  141.1750   77.1360  218.2600 C   0  0  0  0  0  0  0  0  0  0  0  0
  142.5750   76.8490  217.8860 C   0  0  0  0  0  0  0  0  0  0  0  0
  143.4240   76.2050  218.9240 C   0  0  0  0  0  0  0  0  0  0  0  0
  142.7340   75.5650  220.0620 C   0  0  0  0  0  0  0  0  0  0  0  0
  141.4180   76.0910  220.3660 N   0  0  0  0  0  0  0  0  0  0  0  0
  140.6460   75.3510  221.3200 C   0  0  0  0  0  0  0  0  0  0  0  0
  140.6150   75.8250  222.5030 O   0  0  0  0  0  0  0  0  0  0  0  0
  139.9310   74.1120  220.9410 C   0  0  0  0  0  0  0  0  0  0  0  0
  139.8430   73.2960  222.1450 N   0  0  0  0  0  0  0  0  0  0  0  0
  140.0490   71.8890  222.1250 C   0  0  0  0  0  0  0  0  0  0  0  0
  140.3220   71.2750  221.0380 O   0  0  0  0  0  0  0  0  0  0  0  0
  139.9450   71.1340  223.3750 C   0  0  0  0  0  0  0  0  0  0  0  0
  139.3550   69.8870  223.3850 C   0  0  0  0  0  0  0  0  0  0  0  0
  139.2360   69.1380  224.5470 C   0  0  0  0  0  0  0  0  0  0  0  0
  139.7260   69.6720  225.7110 C   0  0  0  0  0  0  0  0  0  0  0  0
  139.6220   68.9560  226.8750 C   0  0  0  0  0  0  0  0  0  0  0  0
  140.1190   69.4950  228.0590 C   0  0  0  0  0  0  0  0  0  0  0  0
  139.9850   68.7410  229.1650 F   0  0  0  0  0  0  0  0  0  0  0  0
  140.6990   70.7320  228.0280 C   0  0  0  0  0  0  0  0  0  0  0  0
  140.8240   71.4920  226.8680 C   0  0  0  0  0  0  0  0  0  0  0  0
  140.3200   70.9240  225.7120 C   0  0  0  0  0  0  0  0  0  0  0  0
  140.4060   71.6060  224.5490 N   0  0  0  0  0  0  0  0  0  0  0  0
  141.2380   81.0510  222.0100 C   0  0  0  0  0  0  0  0  0  0  0  0
  139.9360   80.9740  222.4810 C   0  0  0  0  0  0  0  0  0  0  0  0
  139.0130   81.9820  222.2930 C   0  0  0  0  0  0  0  0  0  0  0  0
  139.3740   83.1210  221.6140 C   0  0  0  0  0  0  0  0  0  0  0  0
  140.6780   83.2350  221.1230 C   0  0  0  0  0  0  0  0  0  0  0  0
  141.6020   82.2080  221.3210 C   0  0  0  0  0  0  0  0  0  0  0  0
  141.7775   80.2451  224.2894 H   0  0  0  0  0  0  0  0  0  0  0  0
  142.5827   78.6876  223.8987 H   0  0  0  0  0  0  0  0  0  0  0  0
  143.5305   80.2136  223.8987 H   0  0  0  0  0  0  0  0  0  0  0  0
  143.1371   80.2838  221.6793 H   0  0  0  0  0  0  0  0  0  0  0  0
  141.7390   77.8950  222.3240 H   0  0  0  0  0  0  0  0  0  0  0  0
  139.8582   77.3589  219.9575 H   0  0  0  0  0  0  0  0  0  0  0  0
  140.5460   76.3133  217.8892 H   0  0  0  0  0  0  0  0  0  0  0  0
  140.9268   78.1084  217.8096 H   0  0  0  0  0  0  0  0  0  0  0  0
  142.5566   76.1837  217.0102 H   0  0  0  0  0  0  0  0  0  0  0  0
  143.0340   77.8323  217.7056 H   0  0  0  0  0  0  0  0  0  0  0  0
  144.0260   75.4312  218.4251 H   0  0  0  0  0  0  0  0  0  0  0  0
  143.9990   77.0298  219.3701 H   0  0  0  0  0  0  0  0  0  0  0  0
  142.6274   74.4939  219.8355 H   0  0  0  0  0  0  0  0  0  0  0  0
  143.3544   75.7698  220.9470 H   0  0  0  0  0  0  0  0  0  0  0  0
  138.9233   74.3534  220.5718 H   0  0  0  0  0  0  0  0  0  0  0  0
  140.4612   73.5783  220.1385 H   0  0  0  0  0  0  0  0  0  0  0  0
  139.6210   73.7350  223.0870 H   0  0  0  0  0  0  0  0  0  0  0  0
  138.9668   69.4736  222.4424 H   0  0  0  0  0  0  0  0  0  0  0  0
  138.7625   68.1452  224.5347 H   0  0  0  0  0  0  0  0  0  0  0  0
  139.1493   67.9627  226.8740 H   0  0  0  0  0  0  0  0  0  0  0  0
  141.0875   71.1492  228.9688 H   0  0  0  0  0  0  0  0  0  0  0  0
  141.2958   72.4857  226.8708 H   0  0  0  0  0  0  0  0  0  0  0  0
  139.6261   80.0711  223.0276 H   0  0  0  0  0  0  0  0  0  0  0  0
  137.9910   81.8743  222.6855 H   0  0  0  0  0  0  0  0  0  0  0  0
  138.6469   83.9318  221.4590 H   0  0  0  0  0  0  0  0  0  0  0  0
  140.9780   84.1412  220.5764 H   0  0  0  0  0  0  0  0  0  0  0  0
  142.6252   82.3117  220.9307 H   0  0  0  0  0  0  0  0  0  0  0  0
  1  2  1  0
  2  3  1  0
  3  4  1  0
  4  5  2  0
  4  6  1  0
  6  7  1  0
  7  8  1  0
  8  9  1  0
  9 10  1  0
 10 11  1  0
 11 12  1  0
 12 13  2  0
 12 14  1  0
 14 15  1  0
 15 16  1  0
 16 17  2  0
 16 18  1  0
 18 19  2  0
 19 20  1  0
 20 21  2  0
 21 22  1  0
 22 23  2  0
 23 24  1  0
 23 25  1  0
 25 26  2  0
 26 27  1  0
 27 28  2  0
  2 29  1  0
 29 30  2  0
 30 31  1  0
 31 32  2  0
 32 33  1  0
 33 34  2  0
 11  6  1  0
 28 18  1  0
 34 29  1  0
 27 21  1  0
  1 35  1  0
  1 36  1  0
  1 37  1  0
  2 38  1  6
  3 39  1  0
  6 40  1  6
  7 41  1  0
  7 42  1  0
  8 43  1  0
  8 44  1  0
  9 45  1  0
  9 46  1  0
 10 47  1  0
 10 48  1  0
 14 49  1  0
 14 50  1  0
 15 51  1  0
 19 52  1  0
 20 53  1  0
 22 54  1  0
 25 55  1  0
 26 56  1  0
 30 57  1  0
 31 58  1  0
 32 59  1  0
 33 60  1  0
 34 61  1  0
M  END
>  <smiles>  (68) 
C[C@@H](NC(=O)C1CCCCN1C(=O)CNC(=O)c1ccc2cc(F)ccc2n1)c1ccccc1

>  <score_type>  (68) 
oracle

>  <origin>  (68) 
autodockgpu

>  <m_score__min__energy>  (68) 
-9.5999999999999996

>  <m_primary>  (68) 
energy

>  <rmsd>  (68) 
1.7588613546679859

>  <m_score__min__rmsd>  (68) 
1.7588613546679859

>  <meeko>  (68) 
{"free_energy": -8.9, "intermolecular_energy": -10.99, "internal_energy": -2.78, "cluster_size": 17, "cluster_id": 2, "rank_in_cluster": 13}

>  <energy>  (68) 
-8.68

>  <cluster_rmsd>  (68) 
1.94

>  <cluster>  (68) 
1

$$$$

     RDKit          3D

 61 64  0  0  1  0  0  0  0  0999 V2000
  138.2510   80.9060  222.7390 C   0  0  0  0  0  0  0  0  0  0  0  0
  138.9580   79.8610  223.5670 C   0  0  1  0  0  0  0  0  0  0  0  0
  138.5440   78.5540  223.1100 N   0  0  0  0  0  0  0  0  0  0  0  0
  137.1770   78.1640  223.0290 C   0  0  0  0  0  0  0  0  0  0  0  0
  136.3050   79.0120  223.3770 O   0  0  0  0  0  0  0  0  0  0  0  0
  136.7520   76.8410  222.5650 C   0  0  1  0  0  0  0  0  0  0  0  0
  135.3210   76.7840  222.0960 C   0  0  0  0  0  0  0  0  0  0  0  0
  135.0820   77.3790  220.7640 C   0  0  0  0  0  0  0  0  0  0  0  0
  136.2480   77.4420  219.8430 C   0  0  0  0  0  0  0  0  0  0  0  0
  137.4080   76.5850  220.1600 C   0  0  0  0  0  0  0  0  0  0  0  0
  137.5530   76.2270  221.5560 N   0  0  0  0  0  0  0  0  0  0  0  0
  138.5390   75.2300  221.8550 C   0  0  0  0  0  0  0  0  0  0  0  0
  139.4420   75.5670  222.6890 O   0  0  0  0  0  0  0  0  0  0  0  0
  138.4980   73.8910  221.2250 C   0  0  0  0  0  0  0  0  0  0  0  0
  138.6420   72.9190  222.3000 N   0  0  0  0  0  0  0  0  0  0  0  0
  139.9130   72.5280  222.8050 C   0  0  0  0  0  0  0  0  0  0  0  0
  140.9930   73.0180  222.3300 O   0  0  0  0  0  0  0  0  0  0  0  0
  139.9800   71.5460  223.8890 C   0  0  0  0  0  0  0  0  0  0  0  0
  139.5450   70.2530  223.6810 C   0  0  0  0  0  0  0  0  0  0  0  0
  139.5910   69.2910  224.6800 C   0  0  0  0  0  0  0  0  0  0  0  0
  140.0870   69.6570  225.9040 C   0  0  0  0  0  0  0  0  0  0  0  0
  140.1440   68.7280  226.9110 C   0  0  0  0  0  0  0  0  0  0  0  0
  140.6480   69.0960  228.1550 C   0  0  0  0  0  0  0  0  0  0  0  0
  140.6760   68.1370  229.0990 F   0  0  0  0  0  0  0  0  0  0  0  0
  141.0730   70.3810  228.3420 C   0  0  0  0  0  0  0  0  0  0  0  0
  141.0320   71.3540  227.3470 C   0  0  0  0  0  0  0  0  0  0  0  0
  140.5260   70.9530  226.1240 C   0  0  0  0  0  0  0  0  0  0  0  0
  140.4560   71.8450  225.1120 N   0  0  0  0  0  0  0  0  0  0  0  0
  140.4340   80.0260  223.5220 C   0  0  0  0  0  0  0  0  0  0  0  0
  141.0650   81.2160  223.8540 C   0  0  0  0  0  0  0  0  0  0  0  0
  142.4340   81.3720  223.8120 C   0  0  0  0  0  0  0  0  0  0  0  0
  143.2300   80.3190  223.4300 C   0  0  0  0  0  0  0  0  0  0  0  0
  142.6310   79.1040  223.0870 C   0  0  0  0  0  0  0  0  0  0  0  0
  141.2440   78.9600  223.1340 C   0  0  0  0  0  0  0  0  0  0  0  0
  137.7604   81.6312  223.4049 H   0  0  0  0  0  0  0  0  0  0  0  0
  138.9826   81.4275  222.1043 H   0  0  0  0  0  0  0  0  0  0  0  0
  137.4948   80.4210  222.1043 H   0  0  0  0  0  0  0  0  0  0  0  0
  138.6766   79.9801  224.6237 H   0  0  0  0  0  0  0  0  0  0  0  0
  139.3040   77.8930  222.8330 H   0  0  0  0  0  0  0  0  0  0  0  0
  136.8820   76.2654  223.4933 H   0  0  0  0  0  0  0  0  0  0  0  0
  135.0145   75.7282  222.0593 H   0  0  0  0  0  0  0  0  0  0  0  0
  134.7362   77.3806  222.8116 H   0  0  0  0  0  0  0  0  0  0  0  0
  134.2981   76.7863  220.2697 H   0  0  0  0  0  0  0  0  0  0  0  0
  134.8103   78.4269  220.9594 H   0  0  0  0  0  0  0  0  0  0  0  0
  135.8931   77.1603  218.8407 H   0  0  0  0  0  0  0  0  0  0  0  0
  136.6243   78.4717  219.9335 H   0  0  0  0  0  0  0  0  0  0  0  0
  137.3120   75.6556  219.5795 H   0  0  0  0  0  0  0  0  0  0  0  0
  138.3000   77.1757  219.9044 H   0  0  0  0  0  0  0  0  0  0  0  0
  137.5385   73.7446  220.7074 H   0  0  0  0  0  0  0  0  0  0  0  0
  139.2995   73.7792  220.4800 H   0  0  0  0  0  0  0  0  0  0  0  0
  137.7890   72.4680  222.7470 H   0  0  0  0  0  0  0  0  0  0  0  0
  139.1495   69.9763  222.6926 H   0  0  0  0  0  0  0  0  0  0  0  0
  139.2398   68.2651  224.4950 H   0  0  0  0  0  0  0  0  0  0  0  0
  139.7941   67.6998  226.7369 H   0  0  0  0  0  0  0  0  0  0  0  0
  141.4679   70.6613  229.3297 H   0  0  0  0  0  0  0  0  0  0  0  0
  141.3817   72.3819  227.5234 H   0  0  0  0  0  0  0  0  0  0  0  0
  140.4467   82.0714  224.1639 H   0  0  0  0  0  0  0  0  0  0  0  0
  142.8879   82.3365  224.0835 H   0  0  0  0  0  0  0  0  0  0  0  0
  144.3237   80.4310  223.3947 H   0  0  0  0  0  0  0  0  0  0  0  0
  143.2577   78.2546  222.7776 H   0  0  0  0  0  0  0  0  0  0  0  0
  140.7860   77.9974  222.8627 H   0  0  0  0  0  0  0  0  0  0  0  0
  1  2  1  0
  2  3  1  0
  3  4  1  0
  4  5  2  0
  4  6  1  0
  6  7  1  0
  7  8  1  0
  8  9  1  0
  9 10  1  0
 10 11  1  0
 11 12  1  0
 12 13  2  0
 12 14  1  0
 14 15  1  0
 15 16  1  0
 16 17  2  0
 16 18  1  0
 18 19  2  0
 19 20  1  0
 20 21  2  0
 21 22  1  0
 22 23  2  0
 23 24  1  0
 23 25  1  0
 25 26  2  0
 26 27  1  0
 27 28  2  0
  2 29  1  0
 29 30  2  0
 30 31  1  0
 31 32  2  0
 32 33  1  0
 33 34  2  0
 11  6  1  0
 28 18  1  0
 34 29  1  0
 27 21  1  0
  1 35  1  0
  1 36  1  0
  1 37  1  0
  2 38  1  1
  3 39  1  0
  6 40  1  1
  7 41  1  0
  7 42  1  0
  8 43  1  0
  8 44  1  0
  9 45  1  0
  9 46  1  0
 10 47  1  0
 10 48  1  0
 14 49  1  0
 14 50  1  0
 15 51  1  0
 19 52  1  0
 20 53  1  0
 22 54  1  0
 25 55  1  0
 26 56  1  0
 30 57  1  0
 31 58  1  0
 32 59  1  0
 33 60  1  0
 34 61  1  0
M  END
>  <smiles>  (69) 
C[C@@H](NC(=O)C1CCCCN1C(=O)CNC(=O)c1ccc2cc(F)ccc2n1)c1ccccc1

>  <score_type>  (69) 
oracle

>  <origin>  (69) 
autodockgpu

>  <m_score__min__energy>  (69) 
-9.5999999999999996

>  <m_primary>  (69) 
energy

>  <rmsd>  (69) 
3.6935820886305755

>  <m_score__min__rmsd>  (69) 
3.6935820886305755

>  <meeko>  (69) 
{"free_energy": -8.77, "intermolecular_energy": -10.86, "internal_energy": -2.18, "cluster_size": 2, "cluster_id": 3, "rank_in_cluster": 1}

>  <energy>  (69) 
-8.67

>  <cluster_rmsd>  (69) 
1.37

>  <cluster>  (69) 
1

$$$$

     RDKit          3D

 61 64  0  0  1  0  0  0  0  0999 V2000
  142.1780   79.5670  224.0530 C   0  0  0  0  0  0  0  0  0  0  0  0
  142.1990   79.0360  222.6410 C   0  0  1  0  0  0  0  0  0  0  0  0
  141.2610   77.9400  222.5480 N   0  0  0  0  0  0  0  0  0  0  0  0
  139.8580   78.1100  222.7220 C   0  0  0  0  0  0  0  0  0  0  0  0
  139.4370   79.2770  222.9710 O   0  0  0  0  0  0  0  0  0  0  0  0
  138.9040   77.0020  222.6280 C   0  0  1  0  0  0  0  0  0  0  0  0
  137.4600   77.4350  222.6130 C   0  0  0  0  0  0  0  0  0  0  0  0
  136.9980   78.0050  221.3300 C   0  0  0  0  0  0  0  0  0  0  0  0
  137.7480   77.6000  220.1110 C   0  0  0  0  0  0  0  0  0  0  0  0
  138.6080   76.4030  220.2120 C   0  0  0  0  0  0  0  0  0  0  0  0
  139.0840   76.0910  221.5450 N   0  0  0  0  0  0  0  0  0  0  0  0
  139.7380   74.8250  221.7020 C   0  0  0  0  0  0  0  0  0  0  0  0
  140.9730   74.8680  222.0170 O   0  0  0  0  0  0  0  0  0  0  0  0
  139.0110   73.5510  221.5080 C   0  0  0  0  0  0  0  0  0  0  0  0
  139.3440   72.7030  222.6450 N   0  0  0  0  0  0  0  0  0  0  0  0
  138.8990   71.3550  222.7420 C   0  0  0  0  0  0  0  0  0  0  0  0
  138.1810   70.8270  221.8270 O   0  0  0  0  0  0  0  0  0  0  0  0
  139.2730   70.5630  223.9150 C   0  0  0  0  0  0  0  0  0  0  0  0
  139.0580   69.2000  223.9290 C   0  0  0  0  0  0  0  0  0  0  0  0
  139.3990   68.4130  225.0200 C   0  0  0  0  0  0  0  0  0  0  0  0
  139.9630   69.0270  226.1070 C   0  0  0  0  0  0  0  0  0  0  0  0
  140.3090   68.2750  227.2000 C   0  0  0  0  0  0  0  0  0  0  0  0
  140.8840   68.8950  228.3060 C   0  0  0  0  0  0  0  0  0  0  0  0
  141.2000   68.0990  229.3440 F   0  0  0  0  0  0  0  0  0  0  0  0
  141.0880   70.2450  228.2730 C   0  0  0  0  0  0  0  0  0  0  0  0
  140.7510   71.0460  227.1840 C   0  0  0  0  0  0  0  0  0  0  0  0
  140.1830   70.3950  226.1040 C   0  0  0  0  0  0  0  0  0  0  0  0
  139.8310   71.1090  225.0130 N   0  0  0  0  0  0  0  0  0  0  0  0
  141.9110   80.1020  221.6460 C   0  0  0  0  0  0  0  0  0  0  0  0
  141.7060   81.4260  222.0060 C   0  0  0  0  0  0  0  0  0  0  0  0
  141.4380   82.4160  221.0850 C   0  0  0  0  0  0  0  0  0  0  0  0
  141.3680   82.1060  219.7480 C   0  0  0  0  0  0  0  0  0  0  0  0
  141.5690   80.7820  219.3470 C   0  0  0  0  0  0  0  0  0  0  0  0
  141.8390   79.7890  220.2900 C   0  0  0  0  0  0  0  0  0  0  0  0
  142.2113   78.7262  224.7615 H   0  0  0  0  0  0  0  0  0  0  0  0
  143.0511   80.2165  224.2135 H   0  0  0  0  0  0  0  0  0  0  0  0
  141.2563   80.1455  224.2135 H   0  0  0  0  0  0  0  0  0  0  0  0
  143.2084   78.6695  222.4028 H   0  0  0  0  0  0  0  0  0  0  0  0
  141.6630   76.9980  222.3400 H   0  0  0  0  0  0  0  0  0  0  0  0
  139.1425   76.4672  223.5592 H   0  0  0  0  0  0  0  0  0  0  0  0
  136.8371   76.5577  222.8419 H   0  0  0  0  0  0  0  0  0  0  0  0
  137.3693   78.2378  223.3595 H   0  0  0  0  0  0  0  0  0  0  0  0
  135.9487   77.7056  221.1907 H   0  0  0  0  0  0  0  0  0  0  0  0
  137.1578   79.0895  221.4210 H   0  0  0  0  0  0  0  0  0  0  0  0
  137.0108   77.4113  219.3167 H   0  0  0  0  0  0  0  0  0  0  0  0
  138.4419   78.4311  219.9167 H   0  0  0  0  0  0  0  0  0  0  0  0
  138.0327   75.5397  219.8463 H   0  0  0  0  0  0  0  0  0  0  0  0
  139.5044   76.6220  219.6133 H   0  0  0  0  0  0  0  0  0  0  0  0
  137.9268   73.7340  221.4760 H   0  0  0  0  0  0  0  0  0  0  0  0
  139.2966   73.0723  220.5597 H   0  0  0  0  0  0  0  0  0  0  0  0
  139.9370   73.0720  223.4460 H   0  0  0  0  0  0  0  0  0  0  0  0
  138.6025   68.7228  223.0487 H   0  0  0  0  0  0  0  0  0  0  0  0
  139.2215   67.3274  225.0122 H   0  0  0  0  0  0  0  0  0  0  0  0
  140.1335   67.1891  227.2030 H   0  0  0  0  0  0  0  0  0  0  0  0
  141.5422   70.7251  229.1523 H   0  0  0  0  0  0  0  0  0  0  0  0
  140.9263   72.1319  227.1832 H   0  0  0  0  0  0  0  0  0  0  0  0
  141.7595   81.6971  223.0707 H   0  0  0  0  0  0  0  0  0  0  0  0
  141.2805   83.4520  221.4195 H   0  0  0  0  0  0  0  0  0  0  0  0
  141.1569   82.8884  219.0041 H   0  0  0  0  0  0  0  0  0  0  0  0
  141.5139   80.5207  218.2799 H   0  0  0  0  0  0  0  0  0  0  0  0
  141.9962   78.7514  219.9603 H   0  0  0  0  0  0  0  0  0  0  0  0
  1  2  1  0
  2  3  1  0
  3  4  1  0
  4  5  2  0
  4  6  1  0
  6  7  1  0
  7  8  1  0
  8  9  1  0
  9 10  1  0
 10 11  1  0
 11 12  1  0
 12 13  2  0
 12 14  1  0
 14 15  1  0
 15 16  1  0
 16 17  2  0
 16 18  1  0
 18 19  2  0
 19 20  1  0
 20 21  2  0
 21 22  1  0
 22 23  2  0
 23 24  1  0
 23 25  1  0
 25 26  2  0
 26 27  1  0
 27 28  2  0
  2 29  1  0
 29 30  2  0
 30 31  1  0
 31 32  2  0
 32 33  1  0
 33 34  2  0
 11  6  1  0
 28 18  1  0
 34 29  1  0
 27 21  1  0
  1 35  1  0
  1 36  1  0
  1 37  1  0
  2 38  1  6
  3 39  1  0
  6 40  1  1
  7 41  1  0
  7 42  1  0
  8 43  1  0
  8 44  1  0
  9 45  1  0
  9 46  1  0
 10 47  1  0
 10 48  1  0
 14 49  1  0
 14 50  1  0
 15 51  1  0
 19 52  1  0
 20 53  1  0
 22 54  1  0
 25 55  1  0
 26 56  1  0
 30 57  1  0
 31 58  1  0
 32 59  1  0
 33 60  1  0
 34 61  1  0
M  END
>  <smiles>  (70) 
C[C@@H](NC(=O)C1CCCCN1C(=O)CNC(=O)c1ccc2cc(F)ccc2n1)c1ccccc1

>  <score_type>  (70) 
oracle

>  <origin>  (70) 
autodockgpu

>  <m_score__min__energy>  (70) 
-9.5999999999999996

>  <m_primary>  (70) 
energy

>  <rmsd>  (70) 
2.5918407415043574

>  <m_score__min__rmsd>  (70) 
2.5918407415043574

>  <meeko>  (70) 
{"free_energy": -9.02, "intermolecular_energy": -11.11, "internal_energy": -3.02, "cluster_size": 17, "cluster_id": 2, "rank_in_cluster": 9}

>  <energy>  (70) 
-8.64

>  <cluster_rmsd>  (70) 
1.64

>  <cluster>  (70) 
1

$$$$

     RDKit          3D

 61 64  0  0  1  0  0  0  0  0999 V2000
  139.1280   77.2490  222.6730 C   0  0  0  0  0  0  0  0  0  0  0  0
  140.6370   77.2760  222.6860 C   0  0  1  0  0  0  0  0  0  0  0  0
  141.1220   76.4350  221.6140 N   0  0  0  0  0  0  0  0  0  0  0  0
  140.7000   76.5900  220.2630 C   0  0  0  0  0  0  0  0  0  0  0  0
  139.8650   77.5070  220.0130 O   0  0  0  0  0  0  0  0  0  0  0  0
  141.1890   75.7410  219.1740 C   0  0  1  0  0  0  0  0  0  0  0  0
  142.3170   76.3490  218.3800 C   0  0  0  0  0  0  0  0  0  0  0  0
  143.6320   76.3230  219.0550 C   0  0  0  0  0  0  0  0  0  0  0  0
  143.8270   75.2780  220.0950 C   0  0  0  0  0  0  0  0  0  0  0  0
  142.8820   74.1430  220.1010 C   0  0  0  0  0  0  0  0  0  0  0  0
  141.5820   74.4150  219.5210 N   0  0  0  0  0  0  0  0  0  0  0  0
  140.7290   73.2800  219.3220 C   0  0  0  0  0  0  0  0  0  0  0  0
  141.2250   72.3180  218.6490 O   0  0  0  0  0  0  0  0  0  0  0  0
  139.3550   73.2410  219.8720 C   0  0  0  0  0  0  0  0  0  0  0  0
  139.3970   72.3720  221.0400 N   0  0  0  0  0  0  0  0  0  0  0  0
  140.0840   72.7350  222.2320 C   0  0  0  0  0  0  0  0  0  0  0  0
  140.7000   73.8500  222.3270 O   0  0  0  0  0  0  0  0  0  0  0  0
  140.0830   71.8100  223.3660 C   0  0  0  0  0  0  0  0  0  0  0  0
  139.5790   70.5340  223.2200 C   0  0  0  0  0  0  0  0  0  0  0  0
  139.5600   69.6260  224.2690 C   0  0  0  0  0  0  0  0  0  0  0  0
  140.0600   70.0290  225.4800 C   0  0  0  0  0  0  0  0  0  0  0  0
  140.0530   69.1540  226.5350 C   0  0  0  0  0  0  0  0  0  0  0  0
  140.5610   69.5600  227.7670 C   0  0  0  0  0  0  0  0  0  0  0  0
  140.5250   68.6530  228.7600 F   0  0  0  0  0  0  0  0  0  0  0  0
  141.0540   70.8280  227.8910 C   0  0  0  0  0  0  0  0  0  0  0  0
  141.0800   71.7470  226.8450 C   0  0  0  0  0  0  0  0  0  0  0  0
  140.5670   71.3090  225.6380 C   0  0  0  0  0  0  0  0  0  0  0  0
  140.5590   72.1480  224.5790 N   0  0  0  0  0  0  0  0  0  0  0  0
  141.1660   78.6620  222.5900 C   0  0  0  0  0  0  0  0  0  0  0  0
  140.5270   79.6580  221.8660 C   0  0  0  0  0  0  0  0  0  0  0  0
  141.0160   80.9440  221.7750 C   0  0  0  0  0  0  0  0  0  0  0  0
  142.1820   81.2790  222.4200 C   0  0  0  0  0  0  0  0  0  0  0  0
  142.8550   80.3010  223.1590 C   0  0  0  0  0  0  0  0  0  0  0  0
  142.3490   79.0030  223.2420 C   0  0  0  0  0  0  0  0  0  0  0  0
  138.7525   77.2423  223.7069 H   0  0  0  0  0  0  0  0  0  0  0  0
  138.7498   78.1405  222.1513 H   0  0  0  0  0  0  0  0  0  0  0  0
  138.7819   76.3445  222.1513 H   0  0  0  0  0  0  0  0  0  0  0  0
  141.0011   76.8832  223.6468 H   0  0  0  0  0  0  0  0  0  0  0  0
  141.8100   75.6940  221.8760 H   0  0  0  0  0  0  0  0  0  0  0  0
  140.2756   75.6709  218.5651 H   0  0  0  0  0  0  0  0  0  0  0  0
  142.4068   75.7958  217.4335 H   0  0  0  0  0  0  0  0  0  0  0  0
  142.0612   77.4095  218.2390 H   0  0  0  0  0  0  0  0  0  0  0  0
  144.4005   76.1723  218.2825 H   0  0  0  0  0  0  0  0  0  0  0  0
  143.7016   77.2813  219.5906 H   0  0  0  0  0  0  0  0  0  0  0  0
  144.8381   74.8653  219.9631 H   0  0  0  0  0  0  0  0  0  0  0  0
  143.6533   75.7948  221.0504 H   0  0  0  0  0  0  0  0  0  0  0  0
  143.3396   73.3171  219.5366 H   0  0  0  0  0  0  0  0  0  0  0  0
  142.6987   73.9060  221.1594 H   0  0  0  0  0  0  0  0  0  0  0  0
  139.0341   74.2521  220.1629 H   0  0  0  0  0  0  0  0  0  0  0  0
  138.6400   72.8660  219.1249 H   0  0  0  0  0  0  0  0  0  0  0  0
  138.9080   71.4280  221.0370 H   0  0  0  0  0  0  0  0  0  0  0  0
  139.1800   70.2271  222.2420 H   0  0  0  0  0  0  0  0  0  0  0  0
  139.1554   68.6122  224.1328 H   0  0  0  0  0  0  0  0  0  0  0  0
  139.6491   68.1385  226.4098 H   0  0  0  0  0  0  0  0  0  0  0  0
  141.4513   71.1394  228.8683 H   0  0  0  0  0  0  0  0  0  0  0  0
  141.4849   72.7619  226.9716 H   0  0  0  0  0  0  0  0  0  0  0  0
  139.5913   79.4116  221.3428 H   0  0  0  0  0  0  0  0  0  0  0  0
  140.4740   81.6998  221.1875 H   0  0  0  0  0  0  0  0  0  0  0  0
  142.5806   82.3023  222.3560 H   0  0  0  0  0  0  0  0  0  0  0  0
  143.7901   80.5567  223.6787 H   0  0  0  0  0  0  0  0  0  0  0  0
  142.8884   78.2433  223.8267 H   0  0  0  0  0  0  0  0  0  0  0  0
  1  2  1  0
  2  3  1  0
  3  4  1  0
  4  5  2  0
  4  6  1  0
  6  7  1  0
  7  8  1  0
  8  9  1  0
  9 10  1  0
 10 11  1  0
 11 12  1  0
 12 13  2  0
 12 14  1  0
 14 15  1  0
 15 16  1  0
 16 17  2  0
 16 18  1  0
 18 19  2  0
 19 20  1  0
 20 21  2  0
 21 22  1  0
 22 23  2  0
 23 24  1  0
 23 25  1  0
 25 26  2  0
 26 27  1  0
 27 28  2  0
  2 29  1  0
 29 30  2  0
 30 31  1  0
 31 32  2  0
 32 33  1  0
 33 34  2  0
 11  6  1  0
 28 18  1  0
 34 29  1  0
 27 21  1  0
  1 35  1  0
  1 36  1  0
  1 37  1  0
  2 38  1  1
  3 39  1  0
  6 40  1  6
  7 41  1  0
  7 42  1  0
  8 43  1  0
  8 44  1  0
  9 45  1  0
  9 46  1  0
 10 47  1  0
 10 48  1  0
 14 49  1  0
 14 50  1  0
 15 51  1  0
 19 52  1  0
 20 53  1  0
 22 54  1  0
 25 55  1  0
 26 56  1  0
 30 57  1  0
 31 58  1  0
 32 59  1  0
 33 60  1  0
 34 61  1  0
M  END
>  <smiles>  (71) 
C[C@@H](NC(=O)C1CCCCN1C(=O)CNC(=O)c1ccc2cc(F)ccc2n1)c1ccccc1

>  <score_type>  (71) 
oracle

>  <origin>  (71) 
autodockgpu

>  <m_score__min__energy>  (71) 
-9.5999999999999996

>  <m_primary>  (71) 
energy

>  <rmsd>  (71) 
2.9078257845523114

>  <m_score__min__rmsd>  (71) 
2.9078257845523114

>  <meeko>  (71) 
{"free_energy": -8.88, "intermolecular_energy": -10.97, "internal_energy": -2.92, "cluster_size": 26, "cluster_id": 1, "rank_in_cluster": 10}

>  <energy>  (71) 
-8.61

>  <cluster_rmsd>  (71) 
1.05

>  <cluster>  (71) 
1

$$$$

     RDKit          3D

 61 64  0  0  1  0  0  0  0  0999 V2000
  141.4960   79.0230  223.6450 C   0  0  0  0  0  0  0  0  0  0  0  0
  142.1910   79.3660  222.3510 C   0  0  1  0  0  0  0  0  0  0  0  0
  142.0680   78.2420  221.4490 N   0  0  0  0  0  0  0  0  0  0  0  0
  140.8270   77.8550  220.8660 C   0  0  0  0  0  0  0  0  0  0  0  0
  139.8030   78.5370  221.1640 O   0  0  0  0  0  0  0  0  0  0  0  0
  140.6970   76.7190  219.9530 C   0  0  1  0  0  0  0  0  0  0  0  0
  140.7910   77.0880  218.4940 C   0  0  0  0  0  0  0  0  0  0  0  0
  142.1590   77.3780  218.0160 C   0  0  0  0  0  0  0  0  0  0  0  0
  143.2770   76.7660  218.7820 C   0  0  0  0  0  0  0  0  0  0  0  0
  142.9460   75.6450  219.6840 C   0  0  0  0  0  0  0  0  0  0  0  0
  141.5800   75.6180  220.1670 N   0  0  0  0  0  0  0  0  0  0  0  0
  141.1790   74.4320  220.8660 C   0  0  0  0  0  0  0  0  0  0  0  0
  142.1150   73.6320  221.1940 O   0  0  0  0  0  0  0  0  0  0  0  0
  139.7570   74.1650  221.1810 C   0  0  0  0  0  0  0  0  0  0  0  0
  139.7450   73.2870  222.3430 N   0  0  0  0  0  0  0  0  0  0  0  0
  139.9620   71.8850  222.2370 C   0  0  0  0  0  0  0  0  0  0  0  0
  140.1760   71.3320  221.1050 O   0  0  0  0  0  0  0  0  0  0  0  0
  139.9360   71.0650  223.4490 C   0  0  0  0  0  0  0  0  0  0  0  0
  139.3900   69.7980  223.4180 C   0  0  0  0  0  0  0  0  0  0  0  0
  139.3460   68.9880  224.5440 C   0  0  0  0  0  0  0  0  0  0  0  0
  139.8650   69.4800  225.7130 C   0  0  0  0  0  0  0  0  0  0  0  0
  139.8350   68.7030  226.8420 C   0  0  0  0  0  0  0  0  0  0  0  0
  140.3620   69.2000  228.0310 C   0  0  0  0  0  0  0  0  0  0  0  0
  140.3010   68.3860  229.1010 F   0  0  0  0  0  0  0  0  0  0  0  0
  140.8970   70.4560  228.0410 C   0  0  0  0  0  0  0  0  0  0  0  0
  140.9480   71.2780  226.9180 C   0  0  0  0  0  0  0  0  0  0  0  0
  140.4150   70.7520  225.7550 C   0  0  0  0  0  0  0  0  0  0  0  0
  140.4300   71.4930  224.6260 N   0  0  0  0  0  0  0  0  0  0  0  0
  141.6600   80.6200  221.7540 C   0  0  0  0  0  0  0  0  0  0  0  0
  140.9530   81.5580  222.4910 C   0  0  0  0  0  0  0  0  0  0  0  0
  140.4580   82.7210  221.9400 C   0  0  0  0  0  0  0  0  0  0  0  0
  140.6630   82.9870  220.6070 C   0  0  0  0  0  0  0  0  0  0  0  0
  141.3710   82.0640  219.8310 C   0  0  0  0  0  0  0  0  0  0  0  0
  141.8660   80.8910  220.4020 C   0  0  0  0  0  0  0  0  0  0  0  0
  142.1249   79.3334  224.4924 H   0  0  0  0  0  0  0  0  0  0  0  0
  140.5306   79.5481  223.6931 H   0  0  0  0  0  0  0  0  0  0  0  0
  141.3256   77.9373  223.6931 H   0  0  0  0  0  0  0  0  0  0  0  0
  143.2563   79.5561  222.5483 H   0  0  0  0  0  0  0  0  0  0  0  0
  142.9440   77.7150  221.2370 H   0  0  0  0  0  0  0  0  0  0  0  0
  139.6795   76.3888  220.2091 H   0  0  0  0  0  0  0  0  0  0  0  0
  140.3920   76.2507  217.9027 H   0  0  0  0  0  0  0  0  0  0  0  0
  140.2161   78.0178  218.3716 H   0  0  0  0  0  0  0  0  0  0  0  0
  142.2319   77.0220  216.9778 H   0  0  0  0  0  0  0  0  0  0  0  0
  142.2844   78.4639  218.1388 H   0  0  0  0  0  0  0  0  0  0  0  0
  144.0139   76.3972  218.0533 H   0  0  0  0  0  0  0  0  0  0  0  0
  143.6357   77.5663  219.4460 H   0  0  0  0  0  0  0  0  0  0  0  0
  143.1327   74.7065  219.1415 H   0  0  0  0  0  0  0  0  0  0  0  0
  143.5795   75.7750  220.5739 H   0  0  0  0  0  0  0  0  0  0  0  0
  139.2363   75.1062  221.4113 H   0  0  0  0  0  0  0  0  0  0  0  0
  139.2426   73.6996  220.3273 H   0  0  0  0  0  0  0  0  0  0  0  0
  139.5740   73.6740  223.3180 H   0  0  0  0  0  0  0  0  0  0  0  0
  138.9770   69.4185  222.4718 H   0  0  0  0  0  0  0  0  0  0  0  0
  138.9072   67.9803  224.4995 H   0  0  0  0  0  0  0  0  0  0  0  0
  139.3977   67.6942  226.8088 H   0  0  0  0  0  0  0  0  0  0  0  0
  141.3096   70.8390  228.9860 H   0  0  0  0  0  0  0  0  0  0  0  0
  141.3864   72.2863  226.9537 H   0  0  0  0  0  0  0  0  0  0  0  0
  140.7798   81.3662  223.5602 H   0  0  0  0  0  0  0  0  0  0  0  0
  139.9006   83.4339  222.5653 H   0  0  0  0  0  0  0  0  0  0  0  0
  140.2755   83.9130  220.1571 H   0  0  0  0  0  0  0  0  0  0  0  0
  141.5390   82.2641  218.7625 H   0  0  0  0  0  0  0  0  0  0  0  0
  142.4231   80.1745  219.7805 H   0  0  0  0  0  0  0  0  0  0  0  0
  1  2  1  0
  2  3  1  0
  3  4  1  0
  4  5  2  0
  4  6  1  0
  6  7  1  0
  7  8  1  0
  8  9  1  0
  9 10  1  0
 10 11  1  0
 11 12  1  0
 12 13  2  0
 12 14  1  0
 14 15  1  0
 15 16  1  0
 16 17  2  0
 16 18  1  0
 18 19  2  0
 19 20  1  0
 20 21  2  0
 21 22  1  0
 22 23  2  0
 23 24  1  0
 23 25  1  0
 25 26  2  0
 26 27  1  0
 27 28  2  0
  2 29  1  0
 29 30  2  0
 30 31  1  0
 31 32  2  0
 32 33  1  0
 33 34  2  0
 11  6  1  0
 28 18  1  0
 34 29  1  0
 27 21  1  0
  1 35  1  0
  1 36  1  0
  1 37  1  0
  2 38  1  1
  3 39  1  0
  6 40  1  6
  7 41  1  0
  7 42  1  0
  8 43  1  0
  8 44  1  0
  9 45  1  0
  9 46  1  0
 10 47  1  0
 10 48  1  0
 14 49  1  0
 14 50  1  0
 15 51  1  0
 19 52  1  0
 20 53  1  0
 22 54  1  0
 25 55  1  0
 26 56  1  0
 30 57  1  0
 31 58  1  0
 32 59  1  0
 33 60  1  0
 34 61  1  0
M  END
>  <smiles>  (72) 
C[C@@H](NC(=O)C1CCCCN1C(=O)CNC(=O)c1ccc2cc(F)ccc2n1)c1ccccc1

>  <score_type>  (72) 
oracle

>  <origin>  (72) 
autodockgpu

>  <m_score__min__energy>  (72) 
-9.5999999999999996

>  <m_primary>  (72) 
energy

>  <rmsd>  (72) 
1.814065332813295

>  <m_score__min__rmsd>  (72) 
1.814065332813295

>  <meeko>  (72) 
{"free_energy": -9.12, "intermolecular_energy": -11.21, "internal_energy": -2.11, "cluster_size": 26, "cluster_id": 1, "rank_in_cluster": 4}

>  <energy>  (72) 
-8.6

>  <cluster_rmsd>  (72) 
1.7

>  <cluster>  (72) 
1

$$$$

     RDKit          3D

 61 64  0  0  1  0  0  0  0  0999 V2000
  137.8900   78.0470  222.3590 C   0  0  0  0  0  0  0  0  0  0  0  0
  139.2430   77.4850  222.7200 C   0  0  1  0  0  0  0  0  0  0  0  0
  139.6690   76.5960  221.6630 N   0  0  0  0  0  0  0  0  0  0  0  0
  139.9360   77.0470  220.3390 C   0  0  0  0  0  0  0  0  0  0  0  0
  139.7860   78.2810  220.0990 O   0  0  0  0  0  0  0  0  0  0  0  0
  140.3690   76.1510  219.2650 C   0  0  1  0  0  0  0  0  0  0  0  0
  141.1390   76.8360  218.1640 C   0  0  0  0  0  0  0  0  0  0  0  0
  142.5360   77.1780  218.5070 C   0  0  0  0  0  0  0  0  0  0  0  0
  143.1760   76.3700  219.5800 C   0  0  0  0  0  0  0  0  0  0  0  0
  142.5370   75.0870  219.9330 C   0  0  0  0  0  0  0  0  0  0  0  0
  141.1180   75.0000  219.6520 N   0  0  0  0  0  0  0  0  0  0  0  0
  140.5250   73.7020  219.7860 C   0  0  0  0  0  0  0  0  0  0  0  0
  139.2540   73.6750  219.8890 O   0  0  0  0  0  0  0  0  0  0  0  0
  141.3500   72.4730  219.8010 C   0  0  0  0  0  0  0  0  0  0  0  0
  140.9960   71.7490  221.0150 N   0  0  0  0  0  0  0  0  0  0  0  0
  140.6920   72.4140  222.2350 C   0  0  0  0  0  0  0  0  0  0  0  0
  140.7190   73.6890  222.3180 O   0  0  0  0  0  0  0  0  0  0  0  0
  140.3450   71.6200  223.4140 C   0  0  0  0  0  0  0  0  0  0  0  0
  139.4920   70.5420  223.2970 C   0  0  0  0  0  0  0  0  0  0  0  0
  139.1380   69.7620  224.3890 C   0  0  0  0  0  0  0  0  0  0  0  0
  139.6610   70.0900  225.6120 C   0  0  0  0  0  0  0  0  0  0  0  0
  139.3280   69.3390  226.7100 C   0  0  0  0  0  0  0  0  0  0  0  0
  139.8580   69.6690  227.9540 C   0  0  0  0  0  0  0  0  0  0  0  0
  139.4910   68.8910  228.9890 F   0  0  0  0  0  0  0  0  0  0  0  0
  140.7000   70.7410  228.0490 C   0  0  0  0  0  0  0  0  0  0  0  0
  141.0640   71.5290  226.9610 C   0  0  0  0  0  0  0  0  0  0  0  0
  140.5180   71.1720  225.7410 C   0  0  0  0  0  0  0  0  0  0  0  0
  140.8270   71.8930  224.6410 N   0  0  0  0  0  0  0  0  0  0  0  0
  140.2360   78.5600  222.9790 C   0  0  0  0  0  0  0  0  0  0  0  0
  139.8680   79.8520  223.3230 C   0  0  0  0  0  0  0  0  0  0  0  0
  140.7870   80.8510  223.5640 C   0  0  0  0  0  0  0  0  0  0  0  0
  142.1310   80.5810  223.4660 C   0  0  0  0  0  0  0  0  0  0  0  0
  142.5420   79.2900  223.1210 C   0  0  0  0  0  0  0  0  0  0  0  0
  141.6000   78.2880  222.8800 C   0  0  0  0  0  0  0  0  0  0  0  0
  137.3321   78.2787  223.2782 H   0  0  0  0  0  0  0  0  0  0  0  0
  138.0203   78.9654  221.7678 H   0  0  0  0  0  0  0  0  0  0  0  0
  137.3313   77.3065  221.7678 H   0  0  0  0  0  0  0  0  0  0  0  0
  139.1649   76.9179  223.6593 H   0  0  0  0  0  0  0  0  0  0  0  0
  139.7780   75.5880  221.9150 H   0  0  0  0  0  0  0  0  0  0  0  0
  139.3894   75.8075  218.9012 H   0  0  0  0  0  0  0  0  0  0  0  0
  141.1545   76.1681  217.2901 H   0  0  0  0  0  0  0  0  0  0  0  0
  140.6243   77.7889  217.9716 H   0  0  0  0  0  0  0  0  0  0  0  0
  143.1413   77.0618  217.5959 H   0  0  0  0  0  0  0  0  0  0  0  0
  142.4945   78.2037  218.9023 H   0  0  0  0  0  0  0  0  0  0  0  0
  144.2047   76.1496  219.2588 H   0  0  0  0  0  0  0  0  0  0  0  0
  143.0915   76.9868  220.4869 H   0  0  0  0  0  0  0  0  0  0  0  0
  143.0438   74.2895  219.3699 H   0  0  0  0  0  0  0  0  0  0  0  0
  142.6359   74.9899  221.0242 H   0  0  0  0  0  0  0  0  0  0  0  0
  141.1317   71.8584  218.9152 H   0  0  0  0  0  0  0  0  0  0  0  0
  142.4229   72.7151  219.7819 H   0  0  0  0  0  0  0  0  0  0  0  0
  140.9530   70.6870  221.0240 H   0  0  0  0  0  0  0  0  0  0  0  0
  139.0799   70.2931  222.3080 H   0  0  0  0  0  0  0  0  0  0  0  0
  138.4573   68.9054  224.2758 H   0  0  0  0  0  0  0  0  0  0  0  0
  138.6466   68.4815  226.6083 H   0  0  0  0  0  0  0  0  0  0  0  0
  141.1117   70.9945  229.0371 H   0  0  0  0  0  0  0  0  0  0  0  0
  141.7461   72.3857  227.0651 H   0  0  0  0  0  0  0  0  0  0  0  0
  138.7973   80.0899  223.4072 H   0  0  0  0  0  0  0  0  0  0  0  0
  140.4456   81.8612  223.8339 H   0  0  0  0  0  0  0  0  0  0  0  0
  142.8734   81.3701  223.6565 H   0  0  0  0  0  0  0  0  0  0  0  0
  143.6150   79.0621  223.0389 H   0  0  0  0  0  0  0  0  0  0  0  0
  141.9365   77.2762  222.6099 H   0  0  0  0  0  0  0  0  0  0  0  0
  1  2  1  0
  2  3  1  0
  3  4  1  0
  4  5  2  0
  4  6  1  0
  6  7  1  0
  7  8  1  0
  8  9  1  0
  9 10  1  0
 10 11  1  0
 11 12  1  0
 12 13  2  0
 12 14  1  0
 14 15  1  0
 15 16  1  0
 16 17  2  0
 16 18  1  0
 18 19  2  0
 19 20  1  0
 20 21  2  0
 21 22  1  0
 22 23  2  0
 23 24  1  0
 23 25  1  0
 25 26  2  0
 26 27  1  0
 27 28  2  0
  2 29  1  0
 29 30  2  0
 30 31  1  0
 31 32  2  0
 32 33  1  0
 33 34  2  0
 11  6  1  0
 28 18  1  0
 34 29  1  0
 27 21  1  0
  1 35  1  0
  1 36  1  0
  1 37  1  0
  2 38  1  1
  3 39  1  0
  6 40  1  6
  7 41  1  0
  7 42  1  0
  8 43  1  0
  8 44  1  0
  9 45  1  0
  9 46  1  0
 10 47  1  0
 10 48  1  0
 14 49  1  0
 14 50  1  0
 15 51  1  0
 19 52  1  0
 20 53  1  0
 22 54  1  0
 25 55  1  0
 26 56  1  0
 30 57  1  0
 31 58  1  0
 32 59  1  0
 33 60  1  0
 34 61  1  0
M  END
>  <smiles>  (73) 
C[C@@H](NC(=O)C1CCCCN1C(=O)CNC(=O)c1ccc2cc(F)ccc2n1)c1ccccc1

>  <score_type>  (73) 
oracle

>  <origin>  (73) 
autodockgpu

>  <m_score__min__energy>  (73) 
-9.5999999999999996

>  <m_primary>  (73) 
energy

>  <rmsd>  (73) 
3.091950751990658

>  <m_score__min__rmsd>  (73) 
3.091950751990658

>  <meeko>  (73) 
{"free_energy": -8.42, "intermolecular_energy": -10.51, "internal_energy": -2.72, "cluster_size": 26, "cluster_id": 1, "rank_in_cluster": 25}

>  <energy>  (73) 
-8.59

>  <cluster_rmsd>  (73) 
1.93

>  <cluster>  (73) 
1

$$$$

     RDKit          3D

 61 64  0  0  1  0  0  0  0  0999 V2000
  138.6500   78.1180  222.5680 C   0  0  0  0  0  0  0  0  0  0  0  0
  140.1200   77.7870  222.6520 C   0  0  1  0  0  0  0  0  0  0  0  0
  140.5280   77.1830  221.4040 N   0  0  0  0  0  0  0  0  0  0  0  0
  140.7210   75.7800  221.2540 C   0  0  0  0  0  0  0  0  0  0  0  0
  140.5230   75.0510  222.2690 O   0  0  0  0  0  0  0  0  0  0  0  0
  141.1330   75.1630  219.9920 C   0  0  1  0  0  0  0  0  0  0  0  0
  141.3300   76.1440  218.8630 C   0  0  0  0  0  0  0  0  0  0  0  0
  142.5770   76.9330  218.9400 C   0  0  0  0  0  0  0  0  0  0  0  0
  143.6970   76.3370  219.7170 C   0  0  0  0  0  0  0  0  0  0  0  0
  143.6250   74.8910  220.0080 C   0  0  0  0  0  0  0  0  0  0  0  0
  142.2900   74.3280  220.0330 N   0  0  0  0  0  0  0  0  0  0  0  0
  142.2070   72.8980  220.1000 C   0  0  0  0  0  0  0  0  0  0  0  0
  143.3180   72.2740  220.1230 O   0  0  0  0  0  0  0  0  0  0  0  0
  140.9020   72.2010  220.1400 C   0  0  0  0  0  0  0  0  0  0  0  0
  140.8620   71.4630  221.3950 N   0  0  0  0  0  0  0  0  0  0  0  0
  139.7290   71.4900  222.2560 C   0  0  0  0  0  0  0  0  0  0  0  0
  138.6900   72.1720  221.9610 O   0  0  0  0  0  0  0  0  0  0  0  0
  139.7610   70.7220  223.5010 C   0  0  0  0  0  0  0  0  0  0  0  0
  139.1830   69.4700  223.5590 C   0  0  0  0  0  0  0  0  0  0  0  0
  139.1910   68.7090  224.7190 C   0  0  0  0  0  0  0  0  0  0  0  0
  139.7960   69.2340  225.8310 C   0  0  0  0  0  0  0  0  0  0  0  0
  139.8190   68.5050  226.9920 C   0  0  0  0  0  0  0  0  0  0  0  0
  140.4340   69.0350  228.1230 C   0  0  0  0  0  0  0  0  0  0  0  0
  140.4210   68.2680  229.2290 F   0  0  0  0  0  0  0  0  0  0  0  0
  141.0000   70.2760  228.0460 C   0  0  0  0  0  0  0  0  0  0  0  0
  140.9980   71.0490  226.8870 C   0  0  0  0  0  0  0  0  0  0  0  0
  140.3790   70.4900  225.7840 C   0  0  0  0  0  0  0  0  0  0  0  0
  140.3400   71.1840  224.6260 N   0  0  0  0  0  0  0  0  0  0  0  0
  140.9370   78.9820  222.9870 C   0  0  0  0  0  0  0  0  0  0  0  0
  142.3120   79.0210  222.8110 C   0  0  0  0  0  0  0  0  0  0  0  0
  143.0730   80.1280  223.1210 C   0  0  0  0  0  0  0  0  0  0  0  0
  142.4670   81.2540  223.6270 C   0  0  0  0  0  0  0  0  0  0  0  0
  141.0830   81.2520  223.8190 C   0  0  0  0  0  0  0  0  0  0  0  0
  140.3250   80.1240  223.5000 C   0  0  0  0  0  0  0  0  0  0  0  0
  138.2365   78.2111  223.5831 H   0  0  0  0  0  0  0  0  0  0  0  0
  138.5183   79.0683  222.0298 H   0  0  0  0  0  0  0  0  0  0  0  0
  138.1237   77.3159  222.0298 H   0  0  0  0  0  0  0  0  0  0  0  0
  140.2875   77.0720  223.4709 H   0  0  0  0  0  0  0  0  0  0  0  0
  140.6770   77.8300  220.5980 H   0  0  0  0  0  0  0  0  0  0  0  0
  140.2609   74.5195  219.8038 H   0  0  0  0  0  0  0  0  0  0  0  0
  141.3386   75.5812  217.9179 H   0  0  0  0  0  0  0  0  0  0  0  0
  140.5020   76.8650  218.9304 H   0  0  0  0  0  0  0  0  0  0  0  0
  142.9333   77.0947  217.9119 H   0  0  0  0  0  0  0  0  0  0  0  0
  142.3055   77.8512  219.4815 H   0  0  0  0  0  0  0  0  0  0  0  0
  144.6232   76.5144  219.1507 H   0  0  0  0  0  0  0  0  0  0  0  0
  143.6496   76.8259  220.7012 H   0  0  0  0  0  0  0  0  0  0  0  0
  144.2027   74.3604  219.2368 H   0  0  0  0  0  0  0  0  0  0  0  0
  144.0259   74.7660  221.0247 H   0  0  0  0  0  0  0  0  0  0  0  0
  140.0804   72.9315  220.1030 H   0  0  0  0  0  0  0  0  0  0  0  0
  140.7866   71.5259  219.2793 H   0  0  0  0  0  0  0  0  0  0  0  0
  141.6880   70.8720  221.7080 H   0  0  0  0  0  0  0  0  0  0  0  0
  138.7012   69.0630  222.6578 H   0  0  0  0  0  0  0  0  0  0  0  0
  138.7251   67.7129  224.7454 H   0  0  0  0  0  0  0  0  0  0  0  0
  139.3548   67.5084  227.0296 H   0  0  0  0  0  0  0  0  0  0  0  0
  141.4822   70.6861  228.9456 H   0  0  0  0  0  0  0  0  0  0  0  0
  141.4617   72.0458  226.8513 H   0  0  0  0  0  0  0  0  0  0  0  0
  142.8168   78.1311  222.4070 H   0  0  0  0  0  0  0  0  0  0  0  0
  144.1616   80.1106  222.9641 H   0  0  0  0  0  0  0  0  0  0  0  0
  143.0635   82.1438  223.8771 H   0  0  0  0  0  0  0  0  0  0  0  0
  140.5869   82.1461  224.2246 H   0  0  0  0  0  0  0  0  0  0  0  0
  139.2360   80.1367  223.6548 H   0  0  0  0  0  0  0  0  0  0  0  0
  1  2  1  0
  2  3  1  0
  3  4  1  0
  4  5  2  0
  4  6  1  0
  6  7  1  0
  7  8  1  0
  8  9  1  0
  9 10  1  0
 10 11  1  0
 11 12  1  0
 12 13  2  0
 12 14  1  0
 14 15  1  0
 15 16  1  0
 16 17  2  0
 16 18  1  0
 18 19  2  0
 19 20  1  0
 20 21  2  0
 21 22  1  0
 22 23  2  0
 23 24  1  0
 23 25  1  0
 25 26  2  0
 26 27  1  0
 27 28  2  0
  2 29  1  0
 29 30  2  0
 30 31  1  0
 31 32  2  0
 32 33  1  0
 33 34  2  0
 11  6  1  0
 28 18  1  0
 34 29  1  0
 27 21  1  0
  1 35  1  0
  1 36  1  0
  1 37  1  0
  2 38  1  1
  3 39  1  0
  6 40  1  6
  7 41  1  0
  7 42  1  0
  8 43  1  0
  8 44  1  0
  9 45  1  0
  9 46  1  0
 10 47  1  0
 10 48  1  0
 14 49  1  0
 14 50  1  0
 15 51  1  0
 19 52  1  0
 20 53  1  0
 22 54  1  0
 25 55  1  0
 26 56  1  0
 30 57  1  0
 31 58  1  0
 32 59  1  0
 33 60  1  0
 34 61  1  0
M  END
>  <smiles>  (74) 
C[C@@H](NC(=O)C1CCCCN1C(=O)CNC(=O)c1ccc2cc(F)ccc2n1)c1ccccc1

>  <score_type>  (74) 
oracle

>  <origin>  (74) 
autodockgpu

>  <m_score__min__energy>  (74) 
-9.5999999999999996

>  <m_primary>  (74) 
energy

>  <rmsd>  (74) 
3.145634037282708

>  <m_score__min__rmsd>  (74) 
3.145634037282708

>  <meeko>  (74) 
{"free_energy": -9.23, "intermolecular_energy": -11.32, "internal_energy": -2.17, "cluster_size": 26, "cluster_id": 1, "rank_in_cluster": 2}

>  <energy>  (74) 
-8.5

>  <cluster_rmsd>  (74) 
1.49

>  <cluster>  (74) 
1

$$$$

     RDKit          3D

 61 64  0  0  1  0  0  0  0  0999 V2000
  138.2470   80.3280  222.9450 C   0  0  0  0  0  0  0  0  0  0  0  0
  139.2270   79.2910  223.4340 C   0  0  1  0  0  0  0  0  0  0  0  0
  139.1080   78.1150  222.6010 N   0  0  0  0  0  0  0  0  0  0  0  0
  139.4060   78.1250  221.2080 C   0  0  0  0  0  0  0  0  0  0  0  0
  139.7870   79.2190  220.6990 O   0  0  0  0  0  0  0  0  0  0  0  0
  139.2870   76.9370  220.3600 C   0  0  1  0  0  0  0  0  0  0  0  0
  139.8300   77.1200  218.9660 C   0  0  0  0  0  0  0  0  0  0  0  0
  141.3050   77.1000  218.8690 C   0  0  0  0  0  0  0  0  0  0  0  0
  142.0350   76.3840  219.9490 C   0  0  0  0  0  0  0  0  0  0  0  0
  141.2570   75.4480  220.7860 C   0  0  0  0  0  0  0  0  0  0  0  0
  139.8380   75.7250  220.8730 N   0  0  0  0  0  0  0  0  0  0  0  0
  139.0340   74.7170  221.4990 C   0  0  0  0  0  0  0  0  0  0  0  0
  138.2510   75.1180  222.4220 O   0  0  0  0  0  0  0  0  0  0  0  0
  139.1180   73.2970  221.0880 C   0  0  0  0  0  0  0  0  0  0  0  0
  139.1780   72.5110  222.3130 N   0  0  0  0  0  0  0  0  0  0  0  0
  139.7360   71.2030  222.3490 C   0  0  0  0  0  0  0  0  0  0  0  0
  140.2100   70.6560  221.2960 O   0  0  0  0  0  0  0  0  0  0  0  0
  139.7630   70.4730  223.6170 C   0  0  0  0  0  0  0  0  0  0  0  0
  139.2170   69.2090  223.7020 C   0  0  0  0  0  0  0  0  0  0  0  0
  139.2220   68.4820  224.8840 C   0  0  0  0  0  0  0  0  0  0  0  0
  139.7920   69.0560  225.9910 C   0  0  0  0  0  0  0  0  0  0  0  0
  139.8120   68.3620  227.1730 C   0  0  0  0  0  0  0  0  0  0  0  0
  140.3910   68.9420  228.2990 C   0  0  0  0  0  0  0  0  0  0  0  0
  140.3770   68.2080  229.4270 F   0  0  0  0  0  0  0  0  0  0  0  0
  140.9260   70.1950  228.1950 C   0  0  0  0  0  0  0  0  0  0  0  0
  140.9270   70.9320  227.0140 C   0  0  0  0  0  0  0  0  0  0  0  0
  140.3440   70.3250  225.9170 C   0  0  0  0  0  0  0  0  0  0  0  0
  140.3080   70.9830  224.7380 N   0  0  0  0  0  0  0  0  0  0  0  0
  140.6180   79.8150  223.4620 C   0  0  0  0  0  0  0  0  0  0  0  0
  140.9210   81.1130  223.8470 C   0  0  0  0  0  0  0  0  0  0  0  0
  142.2090   81.6020  223.8730 C   0  0  0  0  0  0  0  0  0  0  0  0
  143.2560   80.7890  223.5090 C   0  0  0  0  0  0  0  0  0  0  0  0
  142.9910   79.4740  223.1150 C   0  0  0  0  0  0  0  0  0  0  0  0
  141.6810   78.9930  223.0930 C   0  0  0  0  0  0  0  0  0  0  0  0
  137.7778   80.8245  223.8072 H   0  0  0  0  0  0  0  0  0  0  0  0
  138.7770   81.0748  222.3356 H   0  0  0  0  0  0  0  0  0  0  0  0
  137.4715   79.8410  222.3356 H   0  0  0  0  0  0  0  0  0  0  0  0
  138.9869   79.0236  224.4736 H   0  0  0  0  0  0  0  0  0  0  0  0
  138.7890   77.2390  223.0720 H   0  0  0  0  0  0  0  0  0  0  0  0
  138.1927   76.8270  220.3419 H   0  0  0  0  0  0  0  0  0  0  0  0
  139.4343   76.3103  218.3353 H   0  0  0  0  0  0  0  0  0  0  0  0
  139.5110   78.1202  218.6377 H   0  0  0  0  0  0  0  0  0  0  0  0
  141.5699   76.6225  217.9141 H   0  0  0  0  0  0  0  0  0  0  0  0
  141.6152   78.1516  218.9579 H   0  0  0  0  0  0  0  0  0  0  0  0
  142.8450   75.8094  219.4759 H   0  0  0  0  0  0  0  0  0  0  0  0
  142.3644   77.1742  220.6397 H   0  0  0  0  0  0  0  0  0  0  0  0
  141.3806   74.4374  220.3697 H   0  0  0  0  0  0  0  0  0  0  0  0
  141.6502   75.5563  221.8076 H   0  0  0  0  0  0  0  0  0  0  0  0
  138.2299   73.0186  220.5017 H   0  0  0  0  0  0  0  0  0  0  0  0
  140.0024   73.1182  220.4588 H   0  0  0  0  0  0  0  0  0  0  0  0
  138.8040   72.8980  223.2300 H   0  0  0  0  0  0  0  0  0  0  0  0
  138.7633   68.7633  222.8045 H   0  0  0  0  0  0  0  0  0  0  0  0
  138.7817   67.4751  224.9314 H   0  0  0  0  0  0  0  0  0  0  0  0
  139.3740   67.3547  227.2317 H   0  0  0  0  0  0  0  0  0  0  0  0
  141.3793   70.6446  229.0908 H   0  0  0  0  0  0  0  0  0  0  0  0
  141.3662   71.9389  226.9569 H   0  0  0  0  0  0  0  0  0  0  0  0
  140.0983   81.7800  224.1441 H   0  0  0  0  0  0  0  0  0  0  0  0
  142.3988   82.6399  224.1841 H   0  0  0  0  0  0  0  0  0  0  0  0
  144.2885   81.1680  223.5275 H   0  0  0  0  0  0  0  0  0  0  0  0
  143.8204   78.8142  222.8204 H   0  0  0  0  0  0  0  0  0  0  0  0
  141.4860   77.9561  222.7817 H   0  0  0  0  0  0  0  0  0  0  0  0
  1  2  1  0
  2  3  1  0
  3  4  1  0
  4  5  2  0
  4  6  1  0
  6  7  1  0
  7  8  1  0
  8  9  1  0
  9 10  1  0
 10 11  1  0
 11 12  1  0
 12 13  2  0
 12 14  1  0
 14 15  1  0
 15 16  1  0
 16 17  2  0
 16 18  1  0
 18 19  2  0
 19 20  1  0
 20 21  2  0
 21 22  1  0
 22 23  2  0
 23 24  1  0
 23 25  1  0
 25 26  2  0
 26 27  1  0
 27 28  2  0
  2 29  1  0
 29 30  2  0
 30 31  1  0
 31 32  2  0
 32 33  1  0
 33 34  2  0
 11  6  1  0
 28 18  1  0
 34 29  1  0
 27 21  1  0
  1 35  1  0
  1 36  1  0
  1 37  1  0
  2 38  1  1
  3 39  1  0
  6 40  1  6
  7 41  1  0
  7 42  1  0
  8 43  1  0
  8 44  1  0
  9 45  1  0
  9 46  1  0
 10 47  1  0
 10 48  1  0
 14 49  1  0
 14 50  1  0
 15 51  1  0
 19 52  1  0
 20 53  1  0
 22 54  1  0
 25 55  1  0
 26 56  1  0
 30 57  1  0
 31 58  1  0
 32 59  1  0
 33 60  1  0
 34 61  1  0
M  END
>  <smiles>  (75) 
C[C@@H](NC(=O)C1CCCCN1C(=O)CNC(=O)c1ccc2cc(F)ccc2n1)c1ccccc1

>  <score_type>  (75) 
oracle

>  <origin>  (75) 
autodockgpu

>  <m_score__min__energy>  (75) 
-9.5999999999999996

>  <m_primary>  (75) 
energy

>  <rmsd>  (75) 
2.729733651961612

>  <m_score__min__rmsd>  (75) 
2.729733651961612

>  <meeko>  (75) 
{"free_energy": -8.64, "intermolecular_energy": -10.73, "internal_energy": -2.84, "cluster_size": 26, "cluster_id": 1, "rank_in_cluster": 20}

>  <energy>  (75) 
-8.42

>  <cluster_rmsd>  (75) 
1.16

>  <cluster>  (75) 
1

$$$$

     RDKit          3D

 61 64  0  0  1  0  0  0  0  0999 V2000
  142.1610   79.6300  224.1060 C   0  0  0  0  0  0  0  0  0  0  0  0
  142.2160   79.2760  222.6400 C   0  0  1  0  0  0  0  0  0  0  0  0
  141.3830   78.1160  222.4150 N   0  0  0  0  0  0  0  0  0  0  0  0
  139.9800   78.1180  222.6540 C   0  0  0  0  0  0  0  0  0  0  0  0
  139.4610   79.1900  223.0830 O   0  0  0  0  0  0  0  0  0  0  0  0
  139.1320   76.9460  222.4270 C   0  0  1  0  0  0  0  0  0  0  0  0
  137.6550   77.2500  222.4080 C   0  0  0  0  0  0  0  0  0  0  0  0
  137.1730   77.8980  221.1700 C   0  0  0  0  0  0  0  0  0  0  0  0
  137.9830   77.6790  219.9430 C   0  0  0  0  0  0  0  0  0  0  0  0
  138.9450   76.5590  219.9580 C   0  0  0  0  0  0  0  0  0  0  0  0
  139.4170   76.1620  221.2690 N   0  0  0  0  0  0  0  0  0  0  0  0
  140.1790   74.9490  221.3270 C   0  0  0  0  0  0  0  0  0  0  0  0
  141.4420   75.0850  221.4350 O   0  0  0  0  0  0  0  0  0  0  0  0
  139.5240   73.6230  221.2660 C   0  0  0  0  0  0  0  0  0  0  0  0
  139.7000   73.0100  222.5760 N   0  0  0  0  0  0  0  0  0  0  0  0
  140.0580   71.6420  222.7320 C   0  0  0  0  0  0  0  0  0  0  0  0
  140.2420   70.8860  221.7190 O   0  0  0  0  0  0  0  0  0  0  0  0
  140.2170   71.0960  224.0810 C   0  0  0  0  0  0  0  0  0  0  0  0
  140.6910   71.8940  225.1010 C   0  0  0  0  0  0  0  0  0  0  0  0
  140.8570   71.4160  226.3940 C   0  0  0  0  0  0  0  0  0  0  0  0
  140.5340   70.1080  226.6430 C   0  0  0  0  0  0  0  0  0  0  0  0
  140.6870   69.6070  227.9100 C   0  0  0  0  0  0  0  0  0  0  0  0
  140.3600   68.2790  228.1670 C   0  0  0  0  0  0  0  0  0  0  0  0
  140.5340   67.8510  229.4320 F   0  0  0  0  0  0  0  0  0  0  0  0
  139.8920   67.5040  227.1440 C   0  0  0  0  0  0  0  0  0  0  0  0
  139.7220   67.9730  225.8440 C   0  0  0  0  0  0  0  0  0  0  0  0
  140.0570   69.2970  225.6250 C   0  0  0  0  0  0  0  0  0  0  0  0
  139.9170   69.8190  224.3870 N   0  0  0  0  0  0  0  0  0  0  0  0
  141.8220   80.4220  221.7800 C   0  0  0  0  0  0  0  0  0  0  0  0
  141.4840   81.6640  222.2960 C   0  0  0  0  0  0  0  0  0  0  0  0
  141.1160   82.7280  221.5000 C   0  0  0  0  0  0  0  0  0  0  0  0
  141.0770   82.5780  220.1340 C   0  0  0  0  0  0  0  0  0  0  0  0
  141.4110   81.3400  219.5760 C   0  0  0  0  0  0  0  0  0  0  0  0
  141.7800   80.2710  220.3940 C   0  0  0  0  0  0  0  0  0  0  0  0
  142.3023   78.7205  224.7084 H   0  0  0  0  0  0  0  0  0  0  0  0
  142.9578   80.3517  224.3391 H   0  0  0  0  0  0  0  0  0  0  0  0
  141.1828   80.0758  224.3391 H   0  0  0  0  0  0  0  0  0  0  0  0
  143.2523   79.0358  222.3601 H   0  0  0  0  0  0  0  0  0  0  0  0
  141.8630   77.2580  222.0600 H   0  0  0  0  0  0  0  0  0  0  0  0
  139.3971   76.3477  223.3112 H   0  0  0  0  0  0  0  0  0  0  0  0
  137.1089   76.3035  222.5342 H   0  0  0  0  0  0  0  0  0  0  0  0
  137.4750   77.9660  223.2235 H   0  0  0  0  0  0  0  0  0  0  0  0
  136.1582   77.5230  220.9708 H   0  0  0  0  0  0  0  0  0  0  0  0
  137.2331   78.9785  221.3670 H   0  0  0  0  0  0  0  0  0  0  0  0
  137.2837   77.5029  219.1124 H   0  0  0  0  0  0  0  0  0  0  0  0
  138.6030   78.5827  219.8487 H   0  0  0  0  0  0  0  0  0  0  0  0
  138.4589   75.6880  219.4943 H   0  0  0  0  0  0  0  0  0  0  0  0
  139.8314   76.9138  219.4117 H   0  0  0  0  0  0  0  0  0  0  0  0
  138.4533   73.7387  221.0421 H   0  0  0  0  0  0  0  0  0  0  0  0
  139.9647   72.9994  220.4743 H   0  0  0  0  0  0  0  0  0  0  0  0
  139.5640   73.5750  223.4660 H   0  0  0  0  0  0  0  0  0  0  0  0
  140.9455   72.9418  224.8835 H   0  0  0  0  0  0  0  0  0  0  0  0
  141.2365   72.0680  227.1945 H   0  0  0  0  0  0  0  0  0  0  0  0
  141.0656   70.2504  228.7179 H   0  0  0  0  0  0  0  0  0  0  0  0
  139.6364   66.4558  227.3582 H   0  0  0  0  0  0  0  0  0  0  0  0
  139.3431   67.3278  225.0377 H   0  0  0  0  0  0  0  0  0  0  0  0
  141.5106   81.8064  223.3864 H   0  0  0  0  0  0  0  0  0  0  0  0
  140.8544   83.6940  221.9566 H   0  0  0  0  0  0  0  0  0  0  0  0
  140.7870   83.4203  219.4887 H   0  0  0  0  0  0  0  0  0  0  0  0
  141.3827   81.2077  218.4844 H   0  0  0  0  0  0  0  0  0  0  0  0
  142.0396   79.3022  219.9423 H   0  0  0  0  0  0  0  0  0  0  0  0
  1  2  1  0
  2  3  1  0
  3  4  1  0
  4  5  2  0
  4  6  1  0
  6  7  1  0
  7  8  1  0
  8  9  1  0
  9 10  1  0
 10 11  1  0
 11 12  1  0
 12 13  2  0
 12 14  1  0
 14 15  1  0
 15 16  1  0
 16 17  2  0
 16 18  1  0
 18 19  2  0
 19 20  1  0
 20 21  2  0
 21 22  1  0
 22 23  2  0
 23 24  1  0
 23 25  1  0
 25 26  2  0
 26 27  1  0
 27 28  2  0
  2 29  1  0
 29 30  2  0
 30 31  1  0
 31 32  2  0
 32 33  1  0
 33 34  2  0
 11  6  1  0
 28 18  1  0
 34 29  1  0
 27 21  1  0
  1 35  1  0
  1 36  1  0
  1 37  1  0
  2 38  1  6
  3 39  1  0
  6 40  1  1
  7 41  1  0
  7 42  1  0
  8 43  1  0
  8 44  1  0
  9 45  1  0
  9 46  1  0
 10 47  1  0
 10 48  1  0
 14 49  1  0
 14 50  1  0
 15 51  1  0
 19 52  1  0
 20 53  1  0
 22 54  1  0
 25 55  1  0
 26 56  1  0
 30 57  1  0
 31 58  1  0
 32 59  1  0
 33 60  1  0
 34 61  1  0
M  END
>  <smiles>  (76) 
C[C@@H](NC(=O)C1CCCCN1C(=O)CNC(=O)c1ccc2cc(F)ccc2n1)c1ccccc1

>  <score_type>  (76) 
oracle

>  <origin>  (76) 
autodockgpu

>  <m_score__min__energy>  (76) 
-9.5999999999999996

>  <m_primary>  (76) 
energy

>  <rmsd>  (76) 
3.065261994922812

>  <m_score__min__rmsd>  (76) 
3.065261994922812

>  <meeko>  (76) 
{"free_energy": -9.14, "intermolecular_energy": -11.23, "internal_energy": -2.48, "cluster_size": 17, "cluster_id": 2, "rank_in_cluster": 3}

>  <energy>  (76) 
-8.37

>  <cluster_rmsd>  (76) 
1.61

>  <cluster>  (76) 
1

$$$$

     RDKit          3D

 61 64  0  0  1  0  0  0  0  0999 V2000
  142.1740   79.5290  224.0650 C   0  0  0  0  0  0  0  0  0  0  0  0
  142.1950   79.0180  222.6450 C   0  0  1  0  0  0  0  0  0  0  0  0
  141.2660   77.9150  222.5390 N   0  0  0  0  0  0  0  0  0  0  0  0
  139.8610   78.0730  222.7120 C   0  0  0  0  0  0  0  0  0  0  0  0
  139.4300   79.2340  222.9700 O   0  0  0  0  0  0  0  0  0  0  0  0
  138.9160   76.9590  222.6050 C   0  0  1  0  0  0  0  0  0  0  0  0
  137.4690   77.3810  222.5820 C   0  0  0  0  0  0  0  0  0  0  0  0
  137.0120   77.9550  221.2980 C   0  0  0  0  0  0  0  0  0  0  0  0
  137.7740   77.5610  220.0830 C   0  0  0  0  0  0  0  0  0  0  0  0
  138.6420   76.3710  220.1840 C   0  0  0  0  0  0  0  0  0  0  0  0
  139.1110   76.0550  221.5180 N   0  0  0  0  0  0  0  0  0  0  0  0
  139.7730   74.7930  221.6740 C   0  0  0  0  0  0  0  0  0  0  0  0
  141.0020   74.8430  222.0100 O   0  0  0  0  0  0  0  0  0  0  0  0
  139.0600   73.5140  221.4550 C   0  0  0  0  0  0  0  0  0  0  0  0
  139.3540   72.6700  222.6050 N   0  0  0  0  0  0  0  0  0  0  0  0
  138.9290   71.3140  222.6800 C   0  0  0  0  0  0  0  0  0  0  0  0
  138.2640   70.7760  221.7320 O   0  0  0  0  0  0  0  0  0  0  0  0
  139.2620   70.5270  223.8680 C   0  0  0  0  0  0  0  0  0  0  0  0
  138.9660   69.1800  223.9130 C   0  0  0  0  0  0  0  0  0  0  0  0
  139.2640   68.3970  225.0190 C   0  0  0  0  0  0  0  0  0  0  0  0
  139.8710   68.9990  226.0900 C   0  0  0  0  0  0  0  0  0  0  0  0
  140.1780   68.2510  227.1970 C   0  0  0  0  0  0  0  0  0  0  0  0
  140.7940   68.8600  228.2870 C   0  0  0  0  0  0  0  0  0  0  0  0
  141.0680   68.0690  229.3410 F   0  0  0  0  0  0  0  0  0  0  0  0
  141.0790   70.1940  228.2240 C   0  0  0  0  0  0  0  0  0  0  0  0
  140.7840   70.9900  227.1190 C   0  0  0  0  0  0  0  0  0  0  0  0
  140.1720   70.3510  226.0560 C   0  0  0  0  0  0  0  0  0  0  0  0
  139.8570   71.0620  224.9510 N   0  0  0  0  0  0  0  0  0  0  0  0
  141.8960   80.0950  221.6660 C   0  0  0  0  0  0  0  0  0  0  0  0
  141.8090   79.8620  220.3010 C   0  0  0  0  0  0  0  0  0  0  0  0
  141.5330   80.8590  219.3900 C   0  0  0  0  0  0  0  0  0  0  0  0
  141.3300   82.1470  219.8270 C   0  0  0  0  0  0  0  0  0  0  0  0
  141.4100   82.4210  221.1950 C   0  0  0  0  0  0  0  0  0  0  0  0
  141.6910   81.4010  222.1060 C   0  0  0  0  0  0  0  0  0  0  0  0
  142.2090   78.6782  224.7614 H   0  0  0  0  0  0  0  0  0  0  0  0
  143.0462   80.1775  224.2343 H   0  0  0  0  0  0  0  0  0  0  0  0
  141.2515   80.1037  224.2343 H   0  0  0  0  0  0  0  0  0  0  0  0
  143.2068   78.6634  222.3989 H   0  0  0  0  0  0  0  0  0  0  0  0
  141.6750   76.9780  222.3240 H   0  0  0  0  0  0  0  0  0  0  0  0
  139.1514   76.4210  223.5352 H   0  0  0  0  0  0  0  0  0  0  0  0
  136.8512   76.4977  222.8014 H   0  0  0  0  0  0  0  0  0  0  0  0
  137.3665   78.1788  223.3324 H   0  0  0  0  0  0  0  0  0  0  0  0
  135.9658   77.6492  221.1494 H   0  0  0  0  0  0  0  0  0  0  0  0
  137.1632   79.0402  221.3956 H   0  0  0  0  0  0  0  0  0  0  0  0
  137.0440   77.3704  219.2825 H   0  0  0  0  0  0  0  0  0  0  0  0
  138.4632   78.3982  219.8982 H   0  0  0  0  0  0  0  0  0  0  0  0
  138.0760   75.5054  219.8094 H   0  0  0  0  0  0  0  0  0  0  0  0
  139.5410   76.6007  219.5933 H   0  0  0  0  0  0  0  0  0  0  0  0
  137.9769   73.6913  221.3816 H   0  0  0  0  0  0  0  0  0  0  0  0
  139.3838   73.0352  220.5191 H   0  0  0  0  0  0  0  0  0  0  0  0
  139.9030   73.0470  223.4330 H   0  0  0  0  0  0  0  0  0  0  0  0
  138.4785   68.7123  223.0449 H   0  0  0  0  0  0  0  0  0  0  0  0
  139.0202   67.3245  225.0356 H   0  0  0  0  0  0  0  0  0  0  0  0
  139.9394   67.1775  227.2239 H   0  0  0  0  0  0  0  0  0  0  0  0
  141.5667   70.6646  229.0904 H   0  0  0  0  0  0  0  0  0  0  0  0
  141.0237   72.0633  227.0936 H   0  0  0  0  0  0  0  0  0  0  0  0
  141.9669   78.8385  219.9302 H   0  0  0  0  0  0  0  0  0  0  0  0
  141.4753   80.6251  218.3167 H   0  0  0  0  0  0  0  0  0  0  0  0
  141.1077   82.9506  219.1095 H   0  0  0  0  0  0  0  0  0  0  0  0
  141.2505   83.4475  221.5566 H   0  0  0  0  0  0  0  0  0  0  0  0
  141.7510   81.6304  223.1801 H   0  0  0  0  0  0  0  0  0  0  0  0
  1  2  1  0
  2  3  1  0
  3  4  1  0
  4  5  2  0
  4  6  1  0
  6  7  1  0
  7  8  1  0
  8  9  1  0
  9 10  1  0
 10 11  1  0
 11 12  1  0
 12 13  2  0
 12 14  1  0
 14 15  1  0
 15 16  1  0
 16 17  2  0
 16 18  1  0
 18 19  2  0
 19 20  1  0
 20 21  2  0
 21 22  1  0
 22 23  2  0
 23 24  1  0
 23 25  1  0
 25 26  2  0
 26 27  1  0
 27 28  2  0
  2 29  1  0
 29 30  2  0
 30 31  1  0
 31 32  2  0
 32 33  1  0
 33 34  2  0
 11  6  1  0
 28 18  1  0
 34 29  1  0
 27 21  1  0
  1 35  1  0
  1 36  1  0
  1 37  1  0
  2 38  1  6
  3 39  1  0
  6 40  1  1
  7 41  1  0
  7 42  1  0
  8 43  1  0
  8 44  1  0
  9 45  1  0
  9 46  1  0
 10 47  1  0
 10 48  1  0
 14 49  1  0
 14 50  1  0
 15 51  1  0
 19 52  1  0
 20 53  1  0
 22 54  1  0
 25 55  1  0
 26 56  1  0
 30 57  1  0
 31 58  1  0
 32 59  1  0
 33 60  1  0
 34 61  1  0
M  END
>  <smiles>  (77) 
C[C@@H](NC(=O)C1CCCCN1C(=O)CNC(=O)c1ccc2cc(F)ccc2n1)c1ccccc1

>  <score_type>  (77) 
oracle

>  <origin>  (77) 
autodockgpu

>  <m_score__min__energy>  (77) 
-9.5999999999999996

>  <m_primary>  (77) 
energy

>  <rmsd>  (77) 
2.6979082389172624

>  <m_score__min__rmsd>  (77) 
2.6979082389172624

>  <meeko>  (77) 
{"free_energy": -9.05, "intermolecular_energy": -11.14, "internal_energy": -3.01, "cluster_size": 17, "cluster_id": 2, "rank_in_cluster": 7}

>  <energy>  (77) 
-9.21

>  <cluster_rmsd>  (77) 
0.0

>  <cluster>  (77) 
2

$$$$

     RDKit          3D

 61 64  0  0  1  0  0  0  0  0999 V2000
  138.2640   79.9890  222.5420 C   0  0  0  0  0  0  0  0  0  0  0  0
  139.2400   79.0550  223.2130 C   0  0  1  0  0  0  0  0  0  0  0  0
  139.2610   77.8080  222.4820 N   0  0  0  0  0  0  0  0  0  0  0  0
  139.5150   77.7410  221.0820 C   0  0  0  0  0  0  0  0  0  0  0  0
  139.7270   78.8300  220.4730 O   0  0  0  0  0  0  0  0  0  0  0  0
  139.5390   76.4810  220.3370 C   0  0  1  0  0  0  0  0  0  0  0  0
  139.7130   76.6490  218.8490 C   0  0  0  0  0  0  0  0  0  0  0  0
  141.0880   76.9830  218.4210 C   0  0  0  0  0  0  0  0  0  0  0  0
  142.1880   76.5810  219.3390 C   0  0  0  0  0  0  0  0  0  0  0  0
  141.8740   75.5730  220.3710 C   0  0  0  0  0  0  0  0  0  0  0  0
  140.4820   75.4990  220.7650 N   0  0  0  0  0  0  0  0  0  0  0  0
  140.1180   74.3930  221.6010 C   0  0  0  0  0  0  0  0  0  0  0  0
  139.5750   74.6890  222.7160 O   0  0  0  0  0  0  0  0  0  0  0  0
  140.3640   72.9950  221.1820 C   0  0  0  0  0  0  0  0  0  0  0  0
  140.3630   72.1890  222.3960 N   0  0  0  0  0  0  0  0  0  0  0  0
  139.7220   70.9210  222.4650 C   0  0  0  0  0  0  0  0  0  0  0  0
  139.1130   70.4320  221.4540 O   0  0  0  0  0  0  0  0  0  0  0  0
  139.7630   70.1680  223.7190 C   0  0  0  0  0  0  0  0  0  0  0  0
  139.2020   68.9090  223.7910 C   0  0  0  0  0  0  0  0  0  0  0  0
  139.2190   68.1610  224.9600 C   0  0  0  0  0  0  0  0  0  0  0  0
  139.8160   68.7070  226.0660 C   0  0  0  0  0  0  0  0  0  0  0  0
  139.8480   67.9920  227.2350 C   0  0  0  0  0  0  0  0  0  0  0  0
  140.4540   68.5440  228.3600 C   0  0  0  0  0  0  0  0  0  0  0  0
  140.4510   67.7900  229.4750 F   0  0  0  0  0  0  0  0  0  0  0  0
  141.0040   69.7920  228.2690 C   0  0  0  0  0  0  0  0  0  0  0  0
  140.9930   70.5510  227.1020 C   0  0  0  0  0  0  0  0  0  0  0  0
  140.3820   69.9710  226.0050 C   0  0  0  0  0  0  0  0  0  0  0  0
  140.3340   70.6510  224.8390 N   0  0  0  0  0  0  0  0  0  0  0  0
  140.5940   79.6590  223.3260 C   0  0  0  0  0  0  0  0  0  0  0  0
  141.7510   78.9670  222.9990 C   0  0  0  0  0  0  0  0  0  0  0  0
  143.0080   79.5240  223.1040 C   0  0  0  0  0  0  0  0  0  0  0  0
  143.1470   80.8180  223.5470 C   0  0  0  0  0  0  0  0  0  0  0  0
  142.0040   81.5470  223.8870 C   0  0  0  0  0  0  0  0  0  0  0  0
  140.7380   80.9700  223.7760 C   0  0  0  0  0  0  0  0  0  0  0  0
  137.6934   80.5350  223.3077 H   0  0  0  0  0  0  0  0  0  0  0  0
  138.8144   80.7055  221.9145 H   0  0  0  0  0  0  0  0  0  0  0  0
  137.5724   79.4077  221.9145 H   0  0  0  0  0  0  0  0  0  0  0  0
  138.9118   78.8628  224.2452 H   0  0  0  0  0  0  0  0  0  0  0  0
  139.0810   76.9400  223.0330 H   0  0  0  0  0  0  0  0  0  0  0  0
  138.5327   76.1048  220.5731 H   0  0  0  0  0  0  0  0  0  0  0  0
  139.4219   75.7068  218.3616 H   0  0  0  0  0  0  0  0  0  0  0  0
  139.0814   77.5009  218.5569 H   0  0  0  0  0  0  0  0  0  0  0  0
  141.2648   76.4914  217.4530 H   0  0  0  0  0  0  0  0  0  0  0  0
  141.1231   78.0820  218.3902 H   0  0  0  0  0  0  0  0  0  0  0  0
  143.0037   76.1780  218.7208 H   0  0  0  0  0  0  0  0  0  0  0  0
  142.4345   77.4937  219.9013 H   0  0  0  0  0  0  0  0  0  0  0  0
  142.1697   74.5870  219.9832 H   0  0  0  0  0  0  0  0  0  0  0  0
  142.4276   75.8786  221.2711 H   0  0  0  0  0  0  0  0  0  0  0  0
  139.5682   72.6573  220.5018 H   0  0  0  0  0  0  0  0  0  0  0  0
  141.3208   72.9043  220.6470 H   0  0  0  0  0  0  0  0  0  0  0  0
  140.8490   72.5300  223.2780 H   0  0  0  0  0  0  0  0  0  0  0  0
  138.7267   68.4853  222.8941 H   0  0  0  0  0  0  0  0  0  0  0  0
  138.7664   67.1591  224.9976 H   0  0  0  0  0  0  0  0  0  0  0  0
  139.3981   66.9894  227.2837 H   0  0  0  0  0  0  0  0  0  0  0  0
  141.4800   70.2187  229.1642 H   0  0  0  0  0  0  0  0  0  0  0  0
  141.4438   71.5533  227.0551 H   0  0  0  0  0  0  0  0  0  0  0  0
  141.6620   77.9307  222.6410 H   0  0  0  0  0  0  0  0  0  0  0  0
  143.8968   78.9348  222.8341 H   0  0  0  0  0  0  0  0  0  0  0  0
  144.1445   81.2736  223.6327 H   0  0  0  0  0  0  0  0  0  0  0  0
  142.1029   82.5826  224.2445 H   0  0  0  0  0  0  0  0  0  0  0  0
  139.8464   81.5550  224.0460 H   0  0  0  0  0  0  0  0  0  0  0  0
  1  2  1  0
  2  3  1  0
  3  4  1  0
  4  5  2  0
  4  6  1  0
  6  7  1  0
  7  8  1  0
  8  9  1  0
  9 10  1  0
 10 11  1  0
 11 12  1  0
 12 13  2  0
 12 14  1  0
 14 15  1  0
 15 16  1  0
 16 17  2  0
 16 18  1  0
 18 19  2  0
 19 20  1  0
 20 21  2  0
 21 22  1  0
 22 23  2  0
 23 24  1  0
 23 25  1  0
 25 26  2  0
 26 27  1  0
 27 28  2  0
  2 29  1  0
 29 30  2  0
 30 31  1  0
 31 32  2  0
 32 33  1  0
 33 34  2  0
 11  6  1  0
 28 18  1  0
 34 29  1  0
 27 21  1  0
  1 35  1  0
  1 36  1  0
  1 37  1  0
  2 38  1  1
  3 39  1  0
  6 40  1  6
  7 41  1  0
  7 42  1  0
  8 43  1  0
  8 44  1  0
  9 45  1  0
  9 46  1  0
 10 47  1  0
 10 48  1  0
 14 49  1  0
 14 50  1  0
 15 51  1  0
 19 52  1  0
 20 53  1  0
 22 54  1  0
 25 55  1  0
 26 56  1  0
 30 57  1  0
 31 58  1  0
 32 59  1  0
 33 60  1  0
 34 61  1  0
M  END
>  <smiles>  (78) 
C[C@@H](NC(=O)C1CCCCN1C(=O)CNC(=O)c1ccc2cc(F)ccc2n1)c1ccccc1

>  <score_type>  (78) 
oracle

>  <origin>  (78) 
autodockgpu

>  <m_score__min__energy>  (78) 
-9.5999999999999996

>  <m_primary>  (78) 
energy

>  <rmsd>  (78) 
2.88052286195497

>  <m_score__min__rmsd>  (78) 
2.88052286195497

>  <meeko>  (78) 
{"free_energy": -8.5, "intermolecular_energy": -10.58, "internal_energy": -2.8, "cluster_size": 26, "cluster_id": 1, "rank_in_cluster": 24}

>  <energy>  (78) 
-9.19

>  <cluster_rmsd>  (78) 
1.51

>  <cluster>  (78) 
2

$$$$

     RDKit          3D

 61 64  0  0  1  0  0  0  0  0999 V2000
  138.3060   79.8310  222.0840 C   0  0  0  0  0  0  0  0  0  0  0  0
  139.1300   79.0600  223.0860 C   0  0  1  0  0  0  0  0  0  0  0  0
  139.1150   77.6620  222.7170 N   0  0  0  0  0  0  0  0  0  0  0  0
  137.9270   76.8780  222.7190 C   0  0  0  0  0  0  0  0  0  0  0  0
  136.8510   77.4470  223.0640 O   0  0  0  0  0  0  0  0  0  0  0  0
  137.9070   75.4620  222.3450 C   0  0  1  0  0  0  0  0  0  0  0  0
  136.5320   74.9280  222.0330 C   0  0  0  0  0  0  0  0  0  0  0  0
  135.9960   75.3330  220.7160 C   0  0  0  0  0  0  0  0  0  0  0  0
  136.9910   75.7010  219.6750 C   0  0  0  0  0  0  0  0  0  0  0  0
  138.3880   75.2740  219.8930 C   0  0  0  0  0  0  0  0  0  0  0  0
  138.7670   75.0690  221.2760 N   0  0  0  0  0  0  0  0  0  0  0  0
  140.0420   74.4540  221.4980 C   0  0  0  0  0  0  0  0  0  0  0  0
  140.8970   75.1510  222.1370 O   0  0  0  0  0  0  0  0  0  0  0  0
  140.3370   73.0880  221.0090 C   0  0  0  0  0  0  0  0  0  0  0  0
  140.4430   72.2370  222.1860 N   0  0  0  0  0  0  0  0  0  0  0  0
  139.3190   71.5590  222.7360 C   0  0  0  0  0  0  0  0  0  0  0  0
  138.1580   71.6710  222.2150 O   0  0  0  0  0  0  0  0  0  0  0  0
  139.5020   70.7190  223.9210 C   0  0  0  0  0  0  0  0  0  0  0  0
  139.0380   69.4200  223.9300 C   0  0  0  0  0  0  0  0  0  0  0  0
  139.1910   68.5910  225.0320 C   0  0  0  0  0  0  0  0  0  0  0  0
  139.8250   69.0970  226.1360 C   0  0  0  0  0  0  0  0  0  0  0  0
  139.9900   68.3010  227.2400 C   0  0  0  0  0  0  0  0  0  0  0  0
  140.6340   68.8120  228.3640 C   0  0  0  0  0  0  0  0  0  0  0  0
  140.7630   67.9790  229.4130 F   0  0  0  0  0  0  0  0  0  0  0  0
  141.0860   70.1010  228.3360 C   0  0  0  0  0  0  0  0  0  0  0  0
  140.9390   70.9420  227.2360 C   0  0  0  0  0  0  0  0  0  0  0  0
  140.2950   70.4010  226.1380 C   0  0  0  0  0  0  0  0  0  0  0  0
  140.1160   71.1600  225.0360 N   0  0  0  0  0  0  0  0  0  0  0  0
  140.5120   79.5950  223.1930 C   0  0  0  0  0  0  0  0  0  0  0  0
  141.6210   78.8980  222.7370 C   0  0  0  0  0  0  0  0  0  0  0  0
  142.9050   79.3910  222.8350 C   0  0  0  0  0  0  0  0  0  0  0  0
  143.1220   80.6240  223.4030 C   0  0  0  0  0  0  0  0  0  0  0  0
  142.0290   81.3570  223.8740 C   0  0  0  0  0  0  0  0  0  0  0  0
  140.7350   80.8450  223.7690 C   0  0  0  0  0  0  0  0  0  0  0  0
  137.6030   80.4888  222.6160 H   0  0  0  0  0  0  0  0  0  0  0  0
  138.9708   80.4389  221.4528 H   0  0  0  0  0  0  0  0  0  0  0  0
  137.7436   79.1273  221.4528 H   0  0  0  0  0  0  0  0  0  0  0  0
  138.6884   79.1733  224.0871 H   0  0  0  0  0  0  0  0  0  0  0  0
  140.0310   77.2430  222.4400 H   0  0  0  0  0  0  0  0  0  0  0  0
  138.2981   75.0161  223.2714 H   0  0  0  0  0  0  0  0  0  0  0  0
  136.5765   73.8293  222.0616 H   0  0  0  0  0  0  0  0  0  0  0  0
  135.8548   75.3536  222.7882 H   0  0  0  0  0  0  0  0  0  0  0  0
  135.4005   74.4943  220.3262 H   0  0  0  0  0  0  0  0  0  0  0  0
  135.4239   76.2529  220.9072 H   0  0  0  0  0  0  0  0  0  0  0  0
  136.6547   75.2592  218.7254 H   0  0  0  0  0  0  0  0  0  0  0  0
  137.0254   76.8003  219.6929 H   0  0  0  0  0  0  0  0  0  0  0  0
  138.5410   74.3267  219.3553 H   0  0  0  0  0  0  0  0  0  0  0  0
  139.0173   76.0979  219.5255 H   0  0  0  0  0  0  0  0  0  0  0  0
  139.5242   72.7346  220.3574 H   0  0  0  0  0  0  0  0  0  0  0  0
  141.2671   73.0697  220.4220 H   0  0  0  0  0  0  0  0  0  0  0  0
  141.3760   72.0940  222.6750 H   0  0  0  0  0  0  0  0  0  0  0  0
  138.5308   69.0292  223.0355 H   0  0  0  0  0  0  0  0  0  0  0  0
  138.8142   67.5576  225.0196 H   0  0  0  0  0  0  0  0  0  0  0  0
  139.6165   67.2664  227.2379 H   0  0  0  0  0  0  0  0  0  0  0  0
  141.5926   70.4951  229.2293 H   0  0  0  0  0  0  0  0  0  0  0  0
  141.3132   71.9764  227.2400 H   0  0  0  0  0  0  0  0  0  0  0  0
  141.4698   77.9100  222.2777 H   0  0  0  0  0  0  0  0  0  0  0  0
  143.7532   78.7995  222.4598 H   0  0  0  0  0  0  0  0  0  0  0  0
  144.1417   81.0281  223.4857 H   0  0  0  0  0  0  0  0  0  0  0  0
  142.1900   82.3447  224.3308 H   0  0  0  0  0  0  0  0  0  0  0  0
  139.8839   81.4325  224.1438 H   0  0  0  0  0  0  0  0  0  0  0  0
  1  2  1  0
  2  3  1  0
  3  4  1  0
  4  5  2  0
  4  6  1  0
  6  7  1  0
  7  8  1  0
  8  9  1  0
  9 10  1  0
 10 11  1  0
 11 12  1  0
 12 13  2  0
 12 14  1  0
 14 15  1  0
 15 16  1  0
 16 17  2  0
 16 18  1  0
 18 19  2  0
 19 20  1  0
 20 21  2  0
 21 22  1  0
 22 23  2  0
 23 24  1  0
 23 25  1  0
 25 26  2  0
 26 27  1  0
 27 28  2  0
  2 29  1  0
 29 30  2  0
 30 31  1  0
 31 32  2  0
 32 33  1  0
 33 34  2  0
 11  6  1  0
 28 18  1  0
 34 29  1  0
 27 21  1  0
  1 35  1  0
  1 36  1  0
  1 37  1  0
  2 38  1  1
  3 39  1  0
  6 40  1  1
  7 41  1  0
  7 42  1  0
  8 43  1  0
  8 44  1  0
  9 45  1  0
  9 46  1  0
 10 47  1  0
 10 48  1  0
 14 49  1  0
 14 50  1  0
 15 51  1  0
 19 52  1  0
 20 53  1  0
 22 54  1  0
 25 55  1  0
 26 56  1  0
 30 57  1  0
 31 58  1  0
 32 59  1  0
 33 60  1  0
 34 61  1  0
M  END
>  <smiles>  (79) 
C[C@@H](NC(=O)C1CCCCN1C(=O)CNC(=O)c1ccc2cc(F)ccc2n1)c1ccccc1

>  <score_type>  (79) 
oracle

>  <origin>  (79) 
autodockgpu

>  <m_score__min__energy>  (79) 
-9.5999999999999996

>  <m_primary>  (79) 
energy

>  <rmsd>  (79) 
3.4603399700826714

>  <m_score__min__rmsd>  (79) 
3.4603399700826714

>  <meeko>  (79) 
{"free_energy": -8.59, "intermolecular_energy": -10.67, "internal_energy": -2.66, "cluster_size": 26, "cluster_id": 1, "rank_in_cluster": 23}

>  <energy>  (79) 
-9.14

>  <cluster_rmsd>  (79) 
1.38

>  <cluster>  (79) 
2

$$$$

     RDKit          3D

 61 64  0  0  1  0  0  0  0  0999 V2000
  138.0540   77.8710  222.2320 C   0  0  0  0  0  0  0  0  0  0  0  0
  139.4010   77.4020  222.7240 C   0  0  1  0  0  0  0  0  0  0  0  0
  139.9320   76.4500  221.7740 N   0  0  0  0  0  0  0  0  0  0  0  0
  140.2800   76.8050  220.4400 C   0  0  0  0  0  0  0  0  0  0  0  0
  140.1090   78.0100  220.0920 O   0  0  0  0  0  0  0  0  0  0  0  0
  140.8190   75.8440  219.4750 C   0  0  1  0  0  0  0  0  0  0  0  0
  141.0120   76.4070  218.0890 C   0  0  0  0  0  0  0  0  0  0  0  0
  142.1870   77.2900  217.9390 C   0  0  0  0  0  0  0  0  0  0  0  0
  143.2970   77.0950  218.9090 C   0  0  0  0  0  0  0  0  0  0  0  0
  143.3170   75.8290  219.6690 C   0  0  0  0  0  0  0  0  0  0  0  0
  142.0310   75.1840  219.8360 N   0  0  0  0  0  0  0  0  0  0  0  0
  142.0540   73.8570  220.3790 C   0  0  0  0  0  0  0  0  0  0  0  0
  143.0480   73.5750  221.1260 O   0  0  0  0  0  0  0  0  0  0  0  0
  140.9800   72.8820  220.0830 C   0  0  0  0  0  0  0  0  0  0  0  0
  140.8470   72.0380  221.2620 N   0  0  0  0  0  0  0  0  0  0  0  0
  140.3090   72.5230  222.4870 C   0  0  0  0  0  0  0  0  0  0  0  0
  139.9180   73.7340  222.6040 O   0  0  0  0  0  0  0  0  0  0  0  0
  140.2050   71.6150  223.6300 C   0  0  0  0  0  0  0  0  0  0  0  0
  139.6020   70.3830  223.4850 C   0  0  0  0  0  0  0  0  0  0  0  0
  139.4830   69.4920  224.5420 C   0  0  0  0  0  0  0  0  0  0  0  0
  139.9850   69.8670  225.7610 C   0  0  0  0  0  0  0  0  0  0  0  0
  139.8820   69.0090  226.8240 C   0  0  0  0  0  0  0  0  0  0  0  0
  140.3910   69.3870  228.0640 C   0  0  0  0  0  0  0  0  0  0  0  0
  140.2570   68.4980  229.0650 F   0  0  0  0  0  0  0  0  0  0  0  0
  140.9830   70.6120  228.1880 C   0  0  0  0  0  0  0  0  0  0  0  0
  141.1090   71.5130  227.1340 C   0  0  0  0  0  0  0  0  0  0  0  0
  140.5920   71.1040  225.9180 C   0  0  0  0  0  0  0  0  0  0  0  0
  140.6780   71.9280  224.8510 N   0  0  0  0  0  0  0  0  0  0  0  0
  140.3320   78.5380  222.9530 C   0  0  0  0  0  0  0  0  0  0  0  0
  141.7100   78.3970  222.9100 C   0  0  0  0  0  0  0  0  0  0  0  0
  142.5760   79.4480  223.1240 C   0  0  0  0  0  0  0  0  0  0  0  0
  142.0770   80.7010  223.3900 C   0  0  0  0  0  0  0  0  0  0  0  0
  140.6920   80.8830  223.4430 C   0  0  0  0  0  0  0  0  0  0  0  0
  139.8270   79.8090  223.2250 C   0  0  0  0  0  0  0  0  0  0  0  0
  137.4073   78.0962  223.0928 H   0  0  0  0  0  0  0  0  0  0  0  0
  138.1817   78.7776  221.6222 H   0  0  0  0  0  0  0  0  0  0  0  0
  137.5910   77.0812  221.6222 H   0  0  0  0  0  0  0  0  0  0  0  0
  139.2822   76.9109  223.7011 H   0  0  0  0  0  0  0  0  0  0  0  0
  140.0540   75.4690  222.1140 H   0  0  0  0  0  0  0  0  0  0  0  0
  140.0134   75.0951  219.4842 H   0  0  0  0  0  0  0  0  0  0  0  0
  141.1246   75.5652  217.3899 H   0  0  0  0  0  0  0  0  0  0  0  0
  140.1283   77.0279  217.8803 H   0  0  0  0  0  0  0  0  0  0  0  0
  142.5950   77.1332  216.9296 H   0  0  0  0  0  0  0  0  0  0  0  0
  141.8113   78.3061  218.1300 H   0  0  0  0  0  0  0  0  0  0  0  0
  144.2411   77.1588  218.3481 H   0  0  0  0  0  0  0  0  0  0  0  0
  143.1502   77.8778  219.6677 H   0  0  0  0  0  0  0  0  0  0  0  0
  143.9824   75.1282  219.1435 H   0  0  0  0  0  0  0  0  0  0  0  0
  143.6594   76.0889  220.6816 H   0  0  0  0  0  0  0  0  0  0  0  0
  140.0345   73.4078  219.8841 H   0  0  0  0  0  0  0  0  0  0  0  0
  141.2222   72.2836  219.1924 H   0  0  0  0  0  0  0  0  0  0  0  0
  141.1500   71.0190  221.2420 H   0  0  0  0  0  0  0  0  0  0  0  0
  139.2029   70.0979  222.5004 H   0  0  0  0  0  0  0  0  0  0  0  0
  138.9999   68.5132  224.4056 H   0  0  0  0  0  0  0  0  0  0  0  0
  139.4004   68.0280  226.6990 H   0  0  0  0  0  0  0  0  0  0  0  0
  141.3808   70.9016  229.1718 H   0  0  0  0  0  0  0  0  0  0  0  0
  141.5917   72.4932  227.2610 H   0  0  0  0  0  0  0  0  0  0  0  0
  142.1309   77.4035  222.6959 H   0  0  0  0  0  0  0  0  0  0  0  0
  143.6630   79.2845  223.0820 H   0  0  0  0  0  0  0  0  0  0  0  0
  142.7578   81.5483  223.5587 H   0  0  0  0  0  0  0  0  0  0  0  0
  140.2805   81.8802  223.6581 H   0  0  0  0  0  0  0  0  0  0  0  0
  138.7392   79.9666  223.2681 H   0  0  0  0  0  0  0  0  0  0  0  0
  1  2  1  0
  2  3  1  0
  3  4  1  0
  4  5  2  0
  4  6  1  0
  6  7  1  0
  7  8  1  0
  8  9  1  0
  9 10  1  0
 10 11  1  0
 11 12  1  0
 12 13  2  0
 12 14  1  0
 14 15  1  0
 15 16  1  0
 16 17  2  0
 16 18  1  0
 18 19  2  0
 19 20  1  0
 20 21  2  0
 21 22  1  0
 22 23  2  0
 23 24  1  0
 23 25  1  0
 25 26  2  0
 26 27  1  0
 27 28  2  0
  2 29  1  0
 29 30  2  0
 30 31  1  0
 31 32  2  0
 32 33  1  0
 33 34  2  0
 11  6  1  0
 28 18  1  0
 34 29  1  0
 27 21  1  0
  1 35  1  0
  1 36  1  0
  1 37  1  0
  2 38  1  1
  3 39  1  0
  6 40  1  6
  7 41  1  0
  7 42  1  0
  8 43  1  0
  8 44  1  0
  9 45  1  0
  9 46  1  0
 10 47  1  0
 10 48  1  0
 14 49  1  0
 14 50  1  0
 15 51  1  0
 19 52  1  0
 20 53  1  0
 22 54  1  0
 25 55  1  0
 26 56  1  0
 30 57  1  0
 31 58  1  0
 32 59  1  0
 33 60  1  0
 34 61  1  0
M  END
>  <smiles>  (80) 
C[C@@H](NC(=O)C1CCCCN1C(=O)CNC(=O)c1ccc2cc(F)ccc2n1)c1ccccc1

>  <score_type>  (80) 
oracle

>  <origin>  (80) 
autodockgpu

>  <m_score__min__energy>  (80) 
-9.5999999999999996

>  <m_primary>  (80) 
energy

>  <rmsd>  (80) 
3.1686965689726208

>  <m_score__min__rmsd>  (80) 
3.1686965689726208

>  <meeko>  (80) 
{"free_energy": -8.86, "intermolecular_energy": -10.95, "internal_energy": -2.93, "cluster_size": 26, "cluster_id": 1, "rank_in_cluster": 11}

>  <energy>  (80) 
-9.08

>  <cluster_rmsd>  (80) 
1.41

>  <cluster>  (80) 
2

$$$$

     RDKit          3D

 61 64  0  0  1  0  0  0  0  0999 V2000
  139.0520   77.3270  222.6920 C   0  0  0  0  0  0  0  0  0  0  0  0
  140.5470   77.1500  222.6030 C   0  0  1  0  0  0  0  0  0  0  0  0
  140.8590   76.4840  221.3580 N   0  0  0  0  0  0  0  0  0  0  0  0
  140.7950   75.0700  221.2050 C   0  0  0  0  0  0  0  0  0  0  0  0
  140.4510   74.3870  222.2130 O   0  0  0  0  0  0  0  0  0  0  0  0
  141.1090   74.3910  219.9460 C   0  0  1  0  0  0  0  0  0  0  0  0
  142.5000   74.6610  219.4310 C   0  0  0  0  0  0  0  0  0  0  0  0
  143.5750   73.9390  220.1440 C   0  0  0  0  0  0  0  0  0  0  0  0
  143.1850   72.6850  220.8430 C   0  0  0  0  0  0  0  0  0  0  0  0
  141.8980   72.0690  220.4620 C   0  0  0  0  0  0  0  0  0  0  0  0
  140.9130   72.9780  219.9120 N   0  0  0  0  0  0  0  0  0  0  0  0
  139.7450   72.3750  219.3410 C   0  0  0  0  0  0  0  0  0  0  0  0
  139.8470   71.9950  218.1280 O   0  0  0  0  0  0  0  0  0  0  0  0
  138.5000   72.2080  220.1240 C   0  0  0  0  0  0  0  0  0  0  0  0
  138.8990   71.7610  221.4520 N   0  0  0  0  0  0  0  0  0  0  0  0
  138.6750   70.4310  221.9040 C   0  0  0  0  0  0  0  0  0  0  0  0
  138.1070   69.5640  221.1570 O   0  0  0  0  0  0  0  0  0  0  0  0
  139.1050   70.0530  223.2520 C   0  0  0  0  0  0  0  0  0  0  0  0
  138.8800   68.7740  223.7190 C   0  0  0  0  0  0  0  0  0  0  0  0
  139.2720   68.3750  224.9890 C   0  0  0  0  0  0  0  0  0  0  0  0
  139.8980   69.2940  225.7890 C   0  0  0  0  0  0  0  0  0  0  0  0
  140.2950   68.9290  227.0490 C   0  0  0  0  0  0  0  0  0  0  0  0
  140.9320   69.8610  227.8650 C   0  0  0  0  0  0  0  0  0  0  0  0
  141.2960   69.4380  229.0900 F   0  0  0  0  0  0  0  0  0  0  0  0
  141.1440   71.1220  227.3850 C   0  0  0  0  0  0  0  0  0  0  0  0
  140.7570   71.5340  226.1120 C   0  0  0  0  0  0  0  0  0  0  0  0
  140.1270   70.5820  225.3300 C   0  0  0  0  0  0  0  0  0  0  0  0
  139.7230   70.9120  224.0840 N   0  0  0  0  0  0  0  0  0  0  0  0
  141.2660   78.4440  222.7390 C   0  0  0  0  0  0  0  0  0  0  0  0
  141.4230   79.3270  221.6810 C   0  0  0  0  0  0  0  0  0  0  0  0
  142.0890   80.5270  221.8040 C   0  0  0  0  0  0  0  0  0  0  0  0
  142.6300   80.8880  223.0150 C   0  0  0  0  0  0  0  0  0  0  0  0
  142.4930   80.0230  224.1050 C   0  0  0  0  0  0  0  0  0  0  0  0
  141.8160   78.8110  223.9660 C   0  0  0  0  0  0  0  0  0  0  0  0
  138.7493   77.3628  223.7489 H   0  0  0  0  0  0  0  0  0  0  0  0
  138.7637   78.2656  222.1960 H   0  0  0  0  0  0  0  0  0  0  0  0
  138.5525   76.4817  222.1960 H   0  0  0  0  0  0  0  0  0  0  0  0
  140.8916   76.5275  223.4419 H   0  0  0  0  0  0  0  0  0  0  0  0
  141.1360   77.0960  220.5580 H   0  0  0  0  0  0  0  0  0  0  0  0
  140.3535   74.8509  219.2919 H   0  0  0  0  0  0  0  0  0  0  0  0
  142.5355   74.3684  218.3712 H   0  0  0  0  0  0  0  0  0  0  0  0
  142.6873   75.7330  219.5912 H   0  0  0  0  0  0  0  0  0  0  0  0
  144.3507   73.6830  219.4072 H   0  0  0  0  0  0  0  0  0  0  0  0
  143.9062   74.6233  220.9390 H   0  0  0  0  0  0  0  0  0  0  0  0
  143.9749   71.9428  220.6553 H   0  0  0  0  0  0  0  0  0  0  0  0
  143.0575   72.9767  221.8959 H   0  0  0  0  0  0  0  0  0  0  0  0
  142.1025   71.2939  219.7088 H   0  0  0  0  0  0  0  0  0  0  0  0
  141.4623   71.6767  221.3927 H   0  0  0  0  0  0  0  0  0  0  0  0
  137.9630   73.1656  220.1915 H   0  0  0  0  0  0  0  0  0  0  0  0
  137.8264   71.4809  219.6469 H   0  0  0  0  0  0  0  0  0  0  0  0
  139.3780   72.4240  222.1310 H   0  0  0  0  0  0  0  0  0  0  0  0
  138.3745   68.0487  223.0645 H   0  0  0  0  0  0  0  0  0  0  0  0
  139.0854   67.3504  225.3430 H   0  0  0  0  0  0  0  0  0  0  0  0
  140.1119   67.9073  227.4133 H   0  0  0  0  0  0  0  0  0  0  0  0
  141.6468   71.8505  228.0381 H   0  0  0  0  0  0  0  0  0  0  0  0
  140.9414   72.5561  225.7496 H   0  0  0  0  0  0  0  0  0  0  0  0
  140.9980   79.0581  220.7027 H   0  0  0  0  0  0  0  0  0  0  0  0
  142.1875   81.1945  220.9352 H   0  0  0  0  0  0  0  0  0  0  0  0
  143.1632   81.8438  223.1250 H   0  0  0  0  0  0  0  0  0  0  0  0
  142.9221   80.3001  225.0792 H   0  0  0  0  0  0  0  0  0  0  0  0
  141.7155   78.1397  224.8316 H   0  0  0  0  0  0  0  0  0  0  0  0
  1  2  1  0
  2  3  1  0
  3  4  1  0
  4  5  2  0
  4  6  1  0
  6  7  1  0
  7  8  1  0
  8  9  1  0
  9 10  1  0
 10 11  1  0
 11 12  1  0
 12 13  2  0
 12 14  1  0
 14 15  1  0
 15 16  1  0
 16 17  2  0
 16 18  1  0
 18 19  2  0
 19 20  1  0
 20 21  2  0
 21 22  1  0
 22 23  2  0
 23 24  1  0
 23 25  1  0
 25 26  2  0
 26 27  1  0
 27 28  2  0
  2 29  1  0
 29 30  2  0
 30 31  1  0
 31 32  2  0
 32 33  1  0
 33 34  2  0
 11  6  1  0
 28 18  1  0
 34 29  1  0
 27 21  1  0
  1 35  1  0
  1 36  1  0
  1 37  1  0
  2 38  1  1
  3 39  1  0
  6 40  1  6
  7 41  1  0
  7 42  1  0
  8 43  1  0
  8 44  1  0
  9 45  1  0
  9 46  1  0
 10 47  1  0
 10 48  1  0
 14 49  1  0
 14 50  1  0
 15 51  1  0
 19 52  1  0
 20 53  1  0
 22 54  1  0
 25 55  1  0
 26 56  1  0
 30 57  1  0
 31 58  1  0
 32 59  1  0
 33 60  1  0
 34 61  1  0
M  END
>  <smiles>  (81) 
C[C@@H](NC(=O)C1CCCCN1C(=O)CNC(=O)c1ccc2cc(F)ccc2n1)c1ccccc1

>  <score_type>  (81) 
oracle

>  <origin>  (81) 
autodockgpu

>  <m_score__min__energy>  (81) 
-9.5999999999999996

>  <m_primary>  (81) 
energy

>  <rmsd>  (81) 
3.258221450612156

>  <m_score__min__rmsd>  (81) 
3.258221450612156

>  <meeko>  (81) 
{"free_energy": -8.37, "intermolecular_energy": -10.45, "internal_energy": -2.92, "cluster_size": 26, "cluster_id": 1, "rank_in_cluster": 26}

>  <energy>  (81) 
-9.08

>  <cluster_rmsd>  (81) 
1.4

>  <cluster>  (81) 
2

$$$$

     RDKit          3D

 61 64  0  0  1  0  0  0  0  0999 V2000
  138.9920   77.6100  222.7160 C   0  0  0  0  0  0  0  0  0  0  0  0
  140.4980   77.5050  222.7130 C   0  0  1  0  0  0  0  0  0  0  0  0
  140.9210   76.9980  221.4270 N   0  0  0  0  0  0  0  0  0  0  0  0
  140.9300   75.6090  221.1130 C   0  0  0  0  0  0  0  0  0  0  0  0
  140.5480   74.8030  222.0110 O   0  0  0  0  0  0  0  0  0  0  0  0
  141.3570   75.0900  219.8120 C   0  0  1  0  0  0  0  0  0  0  0  0
  142.3060   75.9960  219.0690 C   0  0  0  0  0  0  0  0  0  0  0  0
  143.6930   75.9910  219.5800 C   0  0  0  0  0  0  0  0  0  0  0  0
  144.1260   74.7770  220.3230 C   0  0  0  0  0  0  0  0  0  0  0  0
  143.3090   73.5580  220.1610 C   0  0  0  0  0  0  0  0  0  0  0  0
  141.9240   73.7810  219.7980 N   0  0  0  0  0  0  0  0  0  0  0  0
  141.1720   72.6170  219.4290 C   0  0  0  0  0  0  0  0  0  0  0  0
  141.7120   71.8520  218.5650 O   0  0  0  0  0  0  0  0  0  0  0  0
  139.8460   72.3340  220.0250 C   0  0  0  0  0  0  0  0  0  0  0  0
  140.0790   72.0100  221.4260 N   0  0  0  0  0  0  0  0  0  0  0  0
  139.5460   70.8390  222.0320 C   0  0  0  0  0  0  0  0  0  0  0  0
  138.8310   70.0150  221.3670 O   0  0  0  0  0  0  0  0  0  0  0  0
  139.8220   70.5790  223.4460 C   0  0  0  0  0  0  0  0  0  0  0  0
  140.3630   71.5680  224.2410 C   0  0  0  0  0  0  0  0  0  0  0  0
  140.6400   71.3630  225.5850 C   0  0  0  0  0  0  0  0  0  0  0  0
  140.3610   70.1330  226.1210 C   0  0  0  0  0  0  0  0  0  0  0  0
  140.6240   69.9010  227.4460 C   0  0  0  0  0  0  0  0  0  0  0  0
  140.3410   68.6530  227.9930 C   0  0  0  0  0  0  0  0  0  0  0  0
  140.6240   68.4910  229.2990 F   0  0  0  0  0  0  0  0  0  0  0  0
  139.8060   67.6860  227.1900 C   0  0  0  0  0  0  0  0  0  0  0  0
  139.5240   67.8800  225.8400 C   0  0  0  0  0  0  0  0  0  0  0  0
  139.8180   69.1320  225.3310 C   0  0  0  0  0  0  0  0  0  0  0  0
  139.5700   69.3910  224.0290 N   0  0  0  0  0  0  0  0  0  0  0  0
  141.1420   78.8040  223.0400 C   0  0  0  0  0  0  0  0  0  0  0  0
  142.5080   79.0130  222.9190 C   0  0  0  0  0  0  0  0  0  0  0  0
  143.1090   80.2160  223.2220 C   0  0  0  0  0  0  0  0  0  0  0  0
  142.3440   81.2700  223.6630 C   0  0  0  0  0  0  0  0  0  0  0  0
  140.9630   81.0980  223.7980 C   0  0  0  0  0  0  0  0  0  0  0  0
  140.3690   79.8740  223.4880 C   0  0  0  0  0  0  0  0  0  0  0  0
  138.6283   77.6354  223.7538 H   0  0  0  0  0  0  0  0  0  0  0  0
  138.6877   78.5315  222.1982 H   0  0  0  0  0  0  0  0  0  0  0  0
  138.5627   76.7396  222.1982 H   0  0  0  0  0  0  0  0  0  0  0  0
  140.8182   76.8062  223.4999 H   0  0  0  0  0  0  0  0  0  0  0  0
  141.2250   77.7060  220.7220 H   0  0  0  0  0  0  0  0  0  0  0  0
  140.3840   75.0401  219.3013 H   0  0  0  0  0  0  0  0  0  0  0  0
  142.3278   75.6794  218.0158 H   0  0  0  0  0  0  0  0  0  0  0  0
  141.9285   77.0201  219.2056 H   0  0  0  0  0  0  0  0  0  0  0  0
  144.3662   76.1126  218.7186 H   0  0  0  0  0  0  0  0  0  0  0  0
  143.7341   76.8095  220.3137 H   0  0  0  0  0  0  0  0  0  0  0  0
  145.1481   74.5360  219.9955 H   0  0  0  0  0  0  0  0  0  0  0  0
  144.0268   75.0450  221.3852 H   0  0  0  0  0  0  0  0  0  0  0  0
  143.7707   72.9421  219.3752 H   0  0  0  0  0  0  0  0  0  0  0  0
  143.2890   73.0735  221.1483 H   0  0  0  0  0  0  0  0  0  0  0  0
  139.1967   73.2181  219.9430 H   0  0  0  0  0  0  0  0  0  0  0  0
  139.3463   71.5040  219.5041 H   0  0  0  0  0  0  0  0  0  0  0  0
  140.6640   72.6470  222.0440 H   0  0  0  0  0  0  0  0  0  0  0  0
  140.5816   72.5497  223.7956 H   0  0  0  0  0  0  0  0  0  0  0  0
  141.0712   72.1647  226.2026 H   0  0  0  0  0  0  0  0  0  0  0  0
  141.0556   70.6955  228.0725 H   0  0  0  0  0  0  0  0  0  0  0  0
  139.5866   66.7032  227.6326 H   0  0  0  0  0  0  0  0  0  0  0  0
  139.0927   67.0841  225.2151 H   0  0  0  0  0  0  0  0  0  0  0  0
  143.1384   78.1835  222.5663 H   0  0  0  0  0  0  0  0  0  0  0  0
  144.1972   80.3324  223.1113 H   0  0  0  0  0  0  0  0  0  0  0  0
  142.8120   82.2353  223.9062 H   0  0  0  0  0  0  0  0  0  0  0  0
  140.3405   81.9334  224.1510 H   0  0  0  0  0  0  0  0  0  0  0  0
  139.2813   79.7524  223.5981 H   0  0  0  0  0  0  0  0  0  0  0  0
  1  2  1  0
  2  3  1  0
  3  4  1  0
  4  5  2  0
  4  6  1  0
  6  7  1  0
  7  8  1  0
  8  9  1  0
  9 10  1  0
 10 11  1  0
 11 12  1  0
 12 13  2  0
 12 14  1  0
 14 15  1  0
 15 16  1  0
 16 17  2  0
 16 18  1  0
 18 19  2  0
 19 20  1  0
 20 21  2  0
 21 22  1  0
 22 23  2  0
 23 24  1  0
 23 25  1  0
 25 26  2  0
 26 27  1  0
 27 28  2  0
  2 29  1  0
 29 30  2  0
 30 31  1  0
 31 32  2  0
 32 33  1  0
 33 34  2  0
 11  6  1  0
 28 18  1  0
 34 29  1  0
 27 21  1  0
  1 35  1  0
  1 36  1  0
  1 37  1  0
  2 38  1  1
  3 39  1  0
  6 40  1  6
  7 41  1  0
  7 42  1  0
  8 43  1  0
  8 44  1  0
  9 45  1  0
  9 46  1  0
 10 47  1  0
 10 48  1  0
 14 49  1  0
 14 50  1  0
 15 51  1  0
 19 52  1  0
 20 53  1  0
 22 54  1  0
 25 55  1  0
 26 56  1  0
 30 57  1  0
 31 58  1  0
 32 59  1  0
 33 60  1  0
 34 61  1  0
M  END
>  <smiles>  (82) 
C[C@@H](NC(=O)C1CCCCN1C(=O)CNC(=O)c1ccc2cc(F)ccc2n1)c1ccccc1

>  <score_type>  (82) 
oracle

>  <origin>  (82) 
autodockgpu

>  <m_score__min__energy>  (82) 
-9.5999999999999996

>  <m_primary>  (82) 
energy

>  <rmsd>  (82) 
3.5767722327441644

>  <m_score__min__rmsd>  (82) 
3.5767722327441644

>  <meeko>  (82) 
{"free_energy": -9.03, "intermolecular_energy": -11.12, "internal_energy": -2.57, "cluster_size": 26, "cluster_id": 1, "rank_in_cluster": 6}

>  <energy>  (82) 
-9.07

>  <cluster_rmsd>  (82) 
1.41

>  <cluster>  (82) 
2

$$$$

     RDKit          3D

 61 64  0  0  1  0  0  0  0  0999 V2000
  142.5330   80.4600  218.7840 C   0  0  0  0  0  0  0  0  0  0  0  0
  141.6250   79.6780  219.7020 C   0  0  1  0  0  0  0  0  0  0  0  0
  141.8360   78.2670  219.4650 N   0  0  0  0  0  0  0  0  0  0  0  0
  140.7950   77.3950  219.0360 C   0  0  0  0  0  0  0  0  0  0  0  0
  139.6460   77.8970  218.8620 O   0  0  0  0  0  0  0  0  0  0  0  0
  141.0030   75.9660  218.7940 C   0  0  1  0  0  0  0  0  0  0  0  0
  142.0410   75.6650  217.7420 C   0  0  0  0  0  0  0  0  0  0  0  0
  143.4400   75.8420  218.1860 C   0  0  0  0  0  0  0  0  0  0  0  0
  143.6950   75.7380  219.6470 C   0  0  0  0  0  0  0  0  0  0  0  0
  142.6500   75.1000  220.4730 C   0  0  0  0  0  0  0  0  0  0  0  0
  141.3070   75.1600  219.9310 N   0  0  0  0  0  0  0  0  0  0  0  0
  140.3180   74.3690  220.6020 C   0  0  0  0  0  0  0  0  0  0  0  0
  140.7600   73.4250  221.3360 O   0  0  0  0  0  0  0  0  0  0  0  0
  138.8720   74.6430  220.4440 C   0  0  0  0  0  0  0  0  0  0  0  0
  138.6850   76.0630  220.7080 N   0  0  0  0  0  0  0  0  0  0  0  0
  139.0800   76.6650  221.9350 C   0  0  0  0  0  0  0  0  0  0  0  0
  139.6190   75.9770  222.8670 O   0  0  0  0  0  0  0  0  0  0  0  0
  138.8610   78.1000  222.1300 C   0  0  0  0  0  0  0  0  0  0  0  0
  138.9580   78.6520  223.3910 C   0  0  0  0  0  0  0  0  0  0  0  0
  138.7580   80.0060  223.6190 C   0  0  0  0  0  0  0  0  0  0  0  0
  138.4570   80.8020  222.5450 C   0  0  0  0  0  0  0  0  0  0  0  0
  138.2540   82.1440  222.7390 C   0  0  0  0  0  0  0  0  0  0  0  0
  137.9490   82.9570  221.6510 C   0  0  0  0  0  0  0  0  0  0  0  0
  137.7620   84.2640  221.9110 F   0  0  0  0  0  0  0  0  0  0  0  0
  137.8580   82.3920  220.4110 C   0  0  0  0  0  0  0  0  0  0  0  0
  138.0560   81.0340  220.1700 C   0  0  0  0  0  0  0  0  0  0  0  0
  138.3580   80.2580  221.2740 C   0  0  0  0  0  0  0  0  0  0  0  0
  138.5620   78.9330  221.1150 N   0  0  0  0  0  0  0  0  0  0  0  0
  141.8350   80.0420  221.1280 C   0  0  0  0  0  0  0  0  0  0  0  0
  141.7040   81.3400  221.5950 C   0  0  0  0  0  0  0  0  0  0  0  0
  141.8990   81.6810  222.9170 C   0  0  0  0  0  0  0  0  0  0  0  0
  142.2360   80.7100  223.8300 C   0  0  0  0  0  0  0  0  0  0  0  0
  142.3770   79.3890  223.3960 C   0  0  0  0  0  0  0  0  0  0  0  0
  142.1770   79.0590  222.0550 C   0  0  0  0  0  0  0  0  0  0  0  0
  143.2314   81.0615  219.3843 H   0  0  0  0  0  0  0  0  0  0  0  0
  143.1007   79.7636  218.1494 H   0  0  0  0  0  0  0  0  0  0  0  0
  141.9285   81.1247  218.1494 H   0  0  0  0  0  0  0  0  0  0  0  0
  140.5770   79.9289  219.4812 H   0  0  0  0  0  0  0  0  0  0  0  0
  142.8030   77.9060  219.6230 H   0  0  0  0  0  0  0  0  0  0  0  0
  139.9985   75.6864  218.4436 H   0  0  0  0  0  0  0  0  0  0  0  0
  141.9124   74.6202  217.4228 H   0  0  0  0  0  0  0  0  0  0  0  0
  141.8790   76.3888  216.9297 H   0  0  0  0  0  0  0  0  0  0  0  0
  144.0481   75.0738  217.6860 H   0  0  0  0  0  0  0  0  0  0  0  0
  143.6988   76.8776  217.9204 H   0  0  0  0  0  0  0  0  0  0  0  0
  144.6209   75.1593  219.7805 H   0  0  0  0  0  0  0  0  0  0  0  0
  143.7388   76.7786  220.0009 H   0  0  0  0  0  0  0  0  0  0  0  0
  142.9176   74.0407  220.6004 H   0  0  0  0  0  0  0  0  0  0  0  0
  142.6219   75.6651  221.4163 H   0  0  0  0  0  0  0  0  0  0  0  0
  138.5499   74.4019  219.4202 H   0  0  0  0  0  0  0  0  0  0  0  0
  138.2748   74.0296  221.1347 H   0  0  0  0  0  0  0  0  0  0  0  0
  138.2440   76.7010  219.9810 H   0  0  0  0  0  0  0  0  0  0  0  0
  139.2014   77.9985  224.2417 H   0  0  0  0  0  0  0  0  0  0  0  0
  138.8387   80.4278  224.6317 H   0  0  0  0  0  0  0  0  0  0  0  0
  138.3316   82.5754  223.7479 H   0  0  0  0  0  0  0  0  0  0  0  0
  137.6158   83.0429  219.5580 H   0  0  0  0  0  0  0  0  0  0  0  0
  137.9767   80.6043  219.1605 H   0  0  0  0  0  0  0  0  0  0  0  0
  141.4330   82.1318  220.8812 H   0  0  0  0  0  0  0  0  0  0  0  0
  141.7853   82.7264  223.2398 H   0  0  0  0  0  0  0  0  0  0  0  0
  142.3925   80.9692  224.8875 H   0  0  0  0  0  0  0  0  0  0  0  0
  142.6477   78.6035  224.1169 H   0  0  0  0  0  0  0  0  0  0  0  0
  142.2901   78.0151  221.7270 H   0  0  0  0  0  0  0  0  0  0  0  0
  1  2  1  0
  2  3  1  0
  3  4  1  0
  4  5  2  0
  4  6  1  0
  6  7  1  0
  7  8  1  0
  8  9  1  0
  9 10  1  0
 10 11  1  0
 11 12  1  0
 12 13  2  0
 12 14  1  0
 14 15  1  0
 15 16  1  0
 16 17  2  0
 16 18  1  0
 18 19  2  0
 19 20  1  0
 20 21  2  0
 21 22  1  0
 22 23  2  0
 23 24  1  0
 23 25  1  0
 25 26  2  0
 26 27  1  0
 27 28  2  0
  2 29  1  0
 29 30  2  0
 30 31  1  0
 31 32  2  0
 32 33  1  0
 33 34  2  0
 11  6  1  0
 28 18  1  0
 34 29  1  0
 27 21  1  0
  1 35  1  0
  1 36  1  0
  1 37  1  0
  2 38  1  6
  3 39  1  0
  6 40  1  6
  7 41  1  0
  7 42  1  0
  8 43  1  0
  8 44  1  0
  9 45  1  0
  9 46  1  0
 10 47  1  0
 10 48  1  0
 14 49  1  0
 14 50  1  0
 15 51  1  0
 19 52  1  0
 20 53  1  0
 22 54  1  0
 25 55  1  0
 26 56  1  0
 30 57  1  0
 31 58  1  0
 32 59  1  0
 33 60  1  0
 34 61  1  0
M  END
>  <smiles>  (83) 
C[C@@H](NC(=O)C1CCCCN1C(=O)CNC(=O)c1ccc2cc(F)ccc2n1)c1ccccc1

>  <score_type>  (83) 
oracle

>  <origin>  (83) 
autodockgpu

>  <m_score__min__energy>  (83) 
-9.5999999999999996

>  <m_primary>  (83) 
energy

>  <rmsd>  (83) 
7.42118002520745

>  <m_score__min__rmsd>  (83) 
7.42118002520745

>  <meeko>  (83) 
{"free_energy": -5.58, "intermolecular_energy": -7.67, "internal_energy": -5.12, "cluster_size": 1, "cluster_id": 7, "rank_in_cluster": 1}

>  <energy>  (83) 
-9.05

>  <cluster_rmsd>  (83) 
1.42

>  <cluster>  (83) 
2

$$$$

     RDKit          3D

 61 64  0  0  1  0  0  0  0  0999 V2000
  138.2280   78.8770  222.2740 C   0  0  0  0  0  0  0  0  0  0  0  0
  139.4000   78.1580  222.8960 C   0  0  1  0  0  0  0  0  0  0  0  0
  139.7250   77.0120  222.0770 N   0  0  0  0  0  0  0  0  0  0  0  0
  140.1500   77.1300  220.7230 C   0  0  0  0  0  0  0  0  0  0  0  0
  140.2380   78.2950  220.2370 O   0  0  0  0  0  0  0  0  0  0  0  0
  140.4810   75.9720  219.8880 C   0  0  1  0  0  0  0  0  0  0  0  0
  140.9710   76.3290  218.5080 C   0  0  0  0  0  0  0  0  0  0  0  0
  142.3620   76.8260  218.4550 C   0  0  0  0  0  0  0  0  0  0  0  0
  143.2600   76.4130  219.5660 C   0  0  0  0  0  0  0  0  0  0  0  0
  142.8320   75.2670  220.3930 C   0  0  0  0  0  0  0  0  0  0  0  0
  141.4030   75.0310  220.4340 N   0  0  0  0  0  0  0  0  0  0  0  0
  140.9820   73.8070  221.0510 C   0  0  0  0  0  0  0  0  0  0  0  0
  141.8600   72.8860  221.1250 O   0  0  0  0  0  0  0  0  0  0  0  0
  139.6050   73.6360  221.5670 C   0  0  0  0  0  0  0  0  0  0  0  0
  139.6990   72.7560  222.7240 N   0  0  0  0  0  0  0  0  0  0  0  0
  139.5620   71.3440  222.6170 C   0  0  0  0  0  0  0  0  0  0  0  0
  139.3470   70.7840  221.4890 O   0  0  0  0  0  0  0  0  0  0  0  0
  139.6700   70.5230  223.8230 C   0  0  0  0  0  0  0  0  0  0  0  0
  139.1680   69.2370  223.8340 C   0  0  0  0  0  0  0  0  0  0  0  0
  139.2490   68.4250  224.9570 C   0  0  0  0  0  0  0  0  0  0  0  0
  139.8490   68.9340  226.0780 C   0  0  0  0  0  0  0  0  0  0  0  0
  139.9440   68.1550  227.2030 C   0  0  0  0  0  0  0  0  0  0  0  0
  140.5530   68.6690  228.3440 C   0  0  0  0  0  0  0  0  0  0  0  0
  140.6130   67.8530  229.4130 F   0  0  0  0  0  0  0  0  0  0  0  0
  141.0430   69.9440  228.3140 C   0  0  0  0  0  0  0  0  0  0  0  0
  140.9680   70.7680  227.1930 C   0  0  0  0  0  0  0  0  0  0  0  0
  140.3560   70.2240  226.0780 C   0  0  0  0  0  0  0  0  0  0  0  0
  140.2470   70.9670  224.9560 N   0  0  0  0  0  0  0  0  0  0  0  0
  140.5670   79.0600  223.0820 C   0  0  0  0  0  0  0  0  0  0  0  0
  141.8740   78.6400  222.8910 C   0  0  0  0  0  0  0  0  0  0  0  0
  142.9590   79.4740  223.0630 C   0  0  0  0  0  0  0  0  0  0  0  0
  142.7620   80.7810  223.4370 C   0  0  0  0  0  0  0  0  0  0  0  0
  141.4580   81.2420  223.6400 C   0  0  0  0  0  0  0  0  0  0  0  0
  140.3690   80.3860  223.4630 C   0  0  0  0  0  0  0  0  0  0  0  0
  137.5789   79.2752  223.0678 H   0  0  0  0  0  0  0  0  0  0  0  0
  138.5951   79.7055  221.6504 H   0  0  0  0  0  0  0  0  0  0  0  0
  137.6558   78.1744  221.6504 H   0  0  0  0  0  0  0  0  0  0  0  0
  139.1245   77.8150  223.9042 H   0  0  0  0  0  0  0  0  0  0  0  0
  139.6350   76.0740  222.5280 H   0  0  0  0  0  0  0  0  0  0  0  0
  139.4951   75.4866  219.8390 H   0  0  0  0  0  0  0  0  0  0  0  0
  140.9043   75.4300  217.8777 H   0  0  0  0  0  0  0  0  0  0  0  0
  140.3333   77.1533  218.1559 H   0  0  0  0  0  0  0  0  0  0  0  0
  142.8082   76.4690  217.5151 H   0  0  0  0  0  0  0  0  0  0  0  0
  142.2822   77.9199  218.5383 H   0  0  0  0  0  0  0  0  0  0  0  0
  144.2345   76.1565  219.1250 H   0  0  0  0  0  0  0  0  0  0  0  0
  143.2691   77.2704  220.2550 H   0  0  0  0  0  0  0  0  0  0  0  0
  143.3144   74.3621  219.9950 H   0  0  0  0  0  0  0  0  0  0  0  0
  143.1295   75.5087  221.4241 H   0  0  0  0  0  0  0  0  0  0  0  0
  139.1875   74.6095  221.8638 H   0  0  0  0  0  0  0  0  0  0  0  0
  138.9438   73.2100  220.7980 H   0  0  0  0  0  0  0  0  0  0  0  0
  139.8770   73.1480  223.6960 H   0  0  0  0  0  0  0  0  0  0  0  0
  138.6892   68.8437  222.9251 H   0  0  0  0  0  0  0  0  0  0  0  0
  138.8431   67.4027  224.9468 H   0  0  0  0  0  0  0  0  0  0  0  0
  139.5417   67.1312  227.2034 H   0  0  0  0  0  0  0  0  0  0  0  0
  141.5214   70.3404  229.2217 H   0  0  0  0  0  0  0  0  0  0  0  0
  141.3718   71.7912  227.1945 H   0  0  0  0  0  0  0  0  0  0  0  0
  142.0535   77.5975  222.5895 H   0  0  0  0  0  0  0  0  0  0  0  0
  143.9785   79.0939  222.9013 H   0  0  0  0  0  0  0  0  0  0  0  0
  143.6193   81.4562  223.5750 H   0  0  0  0  0  0  0  0  0  0  0  0
  141.2885   82.2863  223.9413 H   0  0  0  0  0  0  0  0  0  0  0  0
  139.3477   80.7609  223.6254 H   0  0  0  0  0  0  0  0  0  0  0  0
  1  2  1  0
  2  3  1  0
  3  4  1  0
  4  5  2  0
  4  6  1  0
  6  7  1  0
  7  8  1  0
  8  9  1  0
  9 10  1  0
 10 11  1  0
 11 12  1  0
 12 13  2  0
 12 14  1  0
 14 15  1  0
 15 16  1  0
 16 17  2  0
 16 18  1  0
 18 19  2  0
 19 20  1  0
 20 21  2  0
 21 22  1  0
 22 23  2  0
 23 24  1  0
 23 25  1  0
 25 26  2  0
 26 27  1  0
 27 28  2  0
  2 29  1  0
 29 30  2  0
 30 31  1  0
 31 32  2  0
 32 33  1  0
 33 34  2  0
 11  6  1  0
 28 18  1  0
 34 29  1  0
 27 21  1  0
  1 35  1  0
  1 36  1  0
  1 37  1  0
  2 38  1  1
  3 39  1  0
  6 40  1  6
  7 41  1  0
  7 42  1  0
  8 43  1  0
  8 44  1  0
  9 45  1  0
  9 46  1  0
 10 47  1  0
 10 48  1  0
 14 49  1  0
 14 50  1  0
 15 51  1  0
 19 52  1  0
 20 53  1  0
 22 54  1  0
 25 55  1  0
 26 56  1  0
 30 57  1  0
 31 58  1  0
 32 59  1  0
 33 60  1  0
 34 61  1  0
M  END
>  <smiles>  (84) 
C[C@@H](NC(=O)C1CCCCN1C(=O)CNC(=O)c1ccc2cc(F)ccc2n1)c1ccccc1

>  <score_type>  (84) 
oracle

>  <origin>  (84) 
autodockgpu

>  <m_score__min__energy>  (84) 
-9.5999999999999996

>  <m_primary>  (84) 
energy

>  <rmsd>  (84) 
2.9039046853130737

>  <m_score__min__rmsd>  (84) 
2.9039046853130737

>  <meeko>  (84) 
{"free_energy": -8.91, "intermolecular_energy": -11.0, "internal_energy": -2.2, "cluster_size": 26, "cluster_id": 1, "rank_in_cluster": 7}

>  <energy>  (84) 
-9.03

>  <cluster_rmsd>  (84) 
1.34

>  <cluster>  (84) 
2

$$$$

     RDKit          3D

 61 64  0  0  1  0  0  0  0  0999 V2000
  138.1940   80.2300  221.9100 C   0  0  0  0  0  0  0  0  0  0  0  0
  138.8330   79.4870  223.0570 C   0  0  1  0  0  0  0  0  0  0  0  0
  138.6340   78.0690  222.8550 N   0  0  0  0  0  0  0  0  0  0  0  0
  137.3510   77.4540  222.9310 C   0  0  0  0  0  0  0  0  0  0  0  0
  136.3600   78.1970  223.1880 O   0  0  0  0  0  0  0  0  0  0  0  0
  137.1440   76.0180  222.7270 C   0  0  1  0  0  0  0  0  0  0  0  0
  135.6950   75.6150  222.6210 C   0  0  0  0  0  0  0  0  0  0  0  0
  135.0560   75.9400  221.3280 C   0  0  0  0  0  0  0  0  0  0  0  0
  135.9580   76.0820  220.1550 C   0  0  0  0  0  0  0  0  0  0  0  0
  137.3200   75.5240  220.2760 C   0  0  0  0  0  0  0  0  0  0  0  0
  137.8300   75.4210  221.6280 N   0  0  0  0  0  0  0  0  0  0  0  0
  139.0530   74.6890  221.7890 C   0  0  0  0  0  0  0  0  0  0  0  0
  140.0160   75.3220  222.3340 O   0  0  0  0  0  0  0  0  0  0  0  0
  139.1770   73.2830  221.3420 C   0  0  0  0  0  0  0  0  0  0  0  0
  139.3810   72.4820  222.5410 N   0  0  0  0  0  0  0  0  0  0  0  0
  139.2910   71.0620  222.5290 C   0  0  0  0  0  0  0  0  0  0  0  0
  139.0240   70.4250  221.4550 O   0  0  0  0  0  0  0  0  0  0  0  0
  139.5100   70.3220  223.7740 C   0  0  0  0  0  0  0  0  0  0  0  0
  139.1330   68.9980  223.8690 C   0  0  0  0  0  0  0  0  0  0  0  0
  139.3220   68.2610  225.0290 C   0  0  0  0  0  0  0  0  0  0  0  0
  139.9020   68.8850  226.1020 C   0  0  0  0  0  0  0  0  0  0  0  0
  140.1010   68.1830  227.2620 C   0  0  0  0  0  0  0  0  0  0  0  0
  140.6900   68.8140  228.3550 C   0  0  0  0  0  0  0  0  0  0  0  0
  140.8570   68.0670  229.4620 F   0  0  0  0  0  0  0  0  0  0  0  0
  141.0550   70.1250  228.2410 C   0  0  0  0  0  0  0  0  0  0  0  0
  140.8710   70.8750  227.0820 C   0  0  0  0  0  0  0  0  0  0  0  0
  140.2830   70.2150  226.0180 C   0  0  0  0  0  0  0  0  0  0  0  0
  140.0740   70.8810  224.8610 N   0  0  0  0  0  0  0  0  0  0  0  0
  140.2710   79.8320  223.2060 C   0  0  0  0  0  0  0  0  0  0  0  0
  141.2860   78.9060  223.0170 C   0  0  0  0  0  0  0  0  0  0  0  0
  142.6210   79.2230  223.1550 C   0  0  0  0  0  0  0  0  0  0  0  0
  142.9870   80.5040  223.4920 C   0  0  0  0  0  0  0  0  0  0  0  0
  141.9920   81.4660  223.6900 C   0  0  0  0  0  0  0  0  0  0  0  0
  140.6450   81.1300  223.5480 C   0  0  0  0  0  0  0  0  0  0  0  0
  137.5246   81.0084  222.3049 H   0  0  0  0  0  0  0  0  0  0  0  0
  138.9767   80.6973  221.2944 H   0  0  0  0  0  0  0  0  0  0  0  0
  137.6148   79.5260  221.2944 H   0  0  0  0  0  0  0  0  0  0  0  0
  138.3538   79.7888  224.0000 H   0  0  0  0  0  0  0  0  0  0  0  0
  139.4860   77.5020  222.6450 H   0  0  0  0  0  0  0  0  0  0  0  0
  137.5916   75.6292  223.6536 H   0  0  0  0  0  0  0  0  0  0  0  0
  135.6301   74.5273  222.7714 H   0  0  0  0  0  0  0  0  0  0  0  0
  135.1557   76.1910  223.3874 H   0  0  0  0  0  0  0  0  0  0  0  0
  134.3371   75.1390  221.1007 H   0  0  0  0  0  0  0  0  0  0  0  0
  134.6065   76.9340  221.4693 H   0  0  0  0  0  0  0  0  0  0  0  0
  135.4719   75.5851  219.3025 H   0  0  0  0  0  0  0  0  0  0  0  0
  136.1061   77.1662  220.0425 H   0  0  0  0  0  0  0  0  0  0  0  0
  137.3139   74.5152  219.8375 H   0  0  0  0  0  0  0  0  0  0  0  0
  137.9843   76.2282  219.7537 H   0  0  0  0  0  0  0  0  0  0  0  0
  138.2587   72.9664  220.8257 H   0  0  0  0  0  0  0  0  0  0  0  0
  140.0132   73.1629  220.6375 H   0  0  0  0  0  0  0  0  0  0  0  0
  139.6070   72.9400  223.4730 H   0  0  0  0  0  0  0  0  0  0  0  0
  138.6684   68.5121  222.9983 H   0  0  0  0  0  0  0  0  0  0  0  0
  139.0151   67.2062  225.0857 H   0  0  0  0  0  0  0  0  0  0  0  0
  139.7975   67.1279  227.3294 H   0  0  0  0  0  0  0  0  0  0  0  0
  141.5187   70.6143  229.1102 H   0  0  0  0  0  0  0  0  0  0  0  0
  141.1753   71.9300  227.0166 H   0  0  0  0  0  0  0  0  0  0  0  0
  141.0147   77.8751  222.7455 H   0  0  0  0  0  0  0  0  0  0  0  0
  143.3903   78.4531  222.9959 H   0  0  0  0  0  0  0  0  0  0  0  0
  144.0487   80.7690  223.6045 H   0  0  0  0  0  0  0  0  0  0  0  0
  142.2728   82.4948  223.9596 H   0  0  0  0  0  0  0  0  0  0  0  0
  139.8720   81.8962  223.7074 H   0  0  0  0  0  0  0  0  0  0  0  0
  1  2  1  0
  2  3  1  0
  3  4  1  0
  4  5  2  0
  4  6  1  0
  6  7  1  0
  7  8  1  0
  8  9  1  0
  9 10  1  0
 10 11  1  0
 11 12  1  0
 12 13  2  0
 12 14  1  0
 14 15  1  0
 15 16  1  0
 16 17  2  0
 16 18  1  0
 18 19  2  0
 19 20  1  0
 20 21  2  0
 21 22  1  0
 22 23  2  0
 23 24  1  0
 23 25  1  0
 25 26  2  0
 26 27  1  0
 27 28  2  0
  2 29  1  0
 29 30  2  0
 30 31  1  0
 31 32  2  0
 32 33  1  0
 33 34  2  0
 11  6  1  0
 28 18  1  0
 34 29  1  0
 27 21  1  0
  1 35  1  0
  1 36  1  0
  1 37  1  0
  2 38  1  1
  3 39  1  0
  6 40  1  1
  7 41  1  0
  7 42  1  0
  8 43  1  0
  8 44  1  0
  9 45  1  0
  9 46  1  0
 10 47  1  0
 10 48  1  0
 14 49  1  0
 14 50  1  0
 15 51  1  0
 19 52  1  0
 20 53  1  0
 22 54  1  0
 25 55  1  0
 26 56  1  0
 30 57  1  0
 31 58  1  0
 32 59  1  0
 33 60  1  0
 34 61  1  0
M  END
>  <smiles>  (85) 
C[C@@H](NC(=O)C1CCCCN1C(=O)CNC(=O)c1ccc2cc(F)ccc2n1)c1ccccc1

>  <score_type>  (85) 
oracle

>  <origin>  (85) 
autodockgpu

>  <m_score__min__energy>  (85) 
-9.5999999999999996

>  <m_primary>  (85) 
energy

>  <rmsd>  (85) 
3.661159615499771

>  <m_score__min__rmsd>  (85) 
3.661159615499771

>  <meeko>  (85) 
{"free_energy": -8.65, "intermolecular_energy": -10.74, "internal_energy": -2.68, "cluster_size": 2, "cluster_id": 3, "rank_in_cluster": 2}

>  <energy>  (85) 
-9.02

>  <cluster_rmsd>  (85) 
1.44

>  <cluster>  (85) 
2

$$$$

     RDKit          3D

 61 64  0  0  1  0  0  0  0  0999 V2000
  138.8560   69.1660  224.2230 C   0  0  0  0  0  0  0  0  0  0  0  0
  139.6870   70.4220  224.3210 C   0  0  1  0  0  0  0  0  0  0  0  0
  138.9130   71.5280  223.8050 N   0  0  0  0  0  0  0  0  0  0  0  0
  139.1280   72.0800  222.5100 C   0  0  0  0  0  0  0  0  0  0  0  0
  140.0410   71.5670  221.8000 O   0  0  0  0  0  0  0  0  0  0  0  0
  138.3460   73.2000  221.9820 C   0  0  1  0  0  0  0  0  0  0  0  0
  138.8390   73.7240  220.6560 C   0  0  0  0  0  0  0  0  0  0  0  0
  138.5020   72.8770  219.4930 C   0  0  0  0  0  0  0  0  0  0  0  0
  137.3210   71.9850  219.6370 C   0  0  0  0  0  0  0  0  0  0  0  0
  136.3770   72.2840  220.7320 C   0  0  0  0  0  0  0  0  0  0  0  0
  136.9390   72.9990  221.8590 N   0  0  0  0  0  0  0  0  0  0  0  0
  136.0030   73.4850  222.8310 C   0  0  0  0  0  0  0  0  0  0  0  0
  135.4530   72.6020  223.5690 O   0  0  0  0  0  0  0  0  0  0  0  0
  135.7020   74.9280  222.9590 C   0  0  0  0  0  0  0  0  0  0  0  0
  136.9820   75.6090  223.1080 N   0  0  0  0  0  0  0  0  0  0  0  0
  137.3680   76.6910  222.2690 C   0  0  0  0  0  0  0  0  0  0  0  0
  136.6000   77.1140  221.3390 O   0  0  0  0  0  0  0  0  0  0  0  0
  138.6690   77.3270  222.4780 C   0  0  0  0  0  0  0  0  0  0  0  0
  139.8310   76.6370  222.2020 C   0  0  0  0  0  0  0  0  0  0  0  0
  141.0850   77.2020  222.3860 C   0  0  0  0  0  0  0  0  0  0  0  0
  141.1490   78.4880  222.8560 C   0  0  0  0  0  0  0  0  0  0  0  0
  142.3740   79.0730  223.0480 C   0  0  0  0  0  0  0  0  0  0  0  0
  142.4430   80.3790  223.5260 C   0  0  0  0  0  0  0  0  0  0  0  0
  143.6760   80.8940  223.6920 F   0  0  0  0  0  0  0  0  0  0  0  0
  141.2810   81.0460  223.7930 C   0  0  0  0  0  0  0  0  0  0  0  0
  140.0180   80.4890  223.6130 C   0  0  0  0  0  0  0  0  0  0  0  0
  139.9880   79.1900  223.1370 C   0  0  0  0  0  0  0  0  0  0  0  0
  138.7970   78.5860  222.9380 N   0  0  0  0  0  0  0  0  0  0  0  0
  140.1530   70.6680  225.7110 C   0  0  0  0  0  0  0  0  0  0  0  0
  139.9690   69.7520  226.7350 C   0  0  0  0  0  0  0  0  0  0  0  0
  140.3990   69.9790  228.0250 C   0  0  0  0  0  0  0  0  0  0  0  0
  141.0430   71.1530  228.3350 C   0  0  0  0  0  0  0  0  0  0  0  0
  141.2470   72.1020  227.3290 C   0  0  0  0  0  0  0  0  0  0  0  0
  140.8050   71.8590  226.0270 C   0  0  0  0  0  0  0  0  0  0  0  0
  138.6170   68.8047  225.2341 H   0  0  0  0  0  0  0  0  0  0  0  0
  137.9236   69.3845  223.6817 H   0  0  0  0  0  0  0  0  0  0  0  0
  139.4217   68.3933  223.6817 H   0  0  0  0  0  0  0  0  0  0  0  0
  140.5982   70.3058  223.7159 H   0  0  0  0  0  0  0  0  0  0  0  0
  138.1710   71.9130  224.4320 H   0  0  0  0  0  0  0  0  0  0  0  0
  138.5118   73.9377  222.7809 H   0  0  0  0  0  0  0  0  0  0  0  0
  138.3972   74.7184  220.4950 H   0  0  0  0  0  0  0  0  0  0  0  0
  139.9371   73.7429  220.7185 H   0  0  0  0  0  0  0  0  0  0  0  0
  138.3142   73.5436  218.6384 H   0  0  0  0  0  0  0  0  0  0  0  0
  139.3612   72.2016  219.3683 H   0  0  0  0  0  0  0  0  0  0  0  0
  136.7572   72.0281  218.6935 H   0  0  0  0  0  0  0  0  0  0  0  0
  137.7401   70.9990  219.8864 H   0  0  0  0  0  0  0  0  0  0  0  0
  135.5589   72.8919  220.3182 H   0  0  0  0  0  0  0  0  0  0  0  0
  136.0494   71.3099  221.1241 H   0  0  0  0  0  0  0  0  0  0  0  0
  135.1828   75.2887  222.0588 H   0  0  0  0  0  0  0  0  0  0  0  0
  135.0470   75.1215  223.8213 H   0  0  0  0  0  0  0  0  0  0  0  0
  137.6730   75.3140  223.8590 H   0  0  0  0  0  0  0  0  0  0  0  0
  139.7614   75.6063  221.8241 H   0  0  0  0  0  0  0  0  0  0  0  0
  142.0003   76.6348  222.1614 H   0  0  0  0  0  0  0  0  0  0  0  0
  143.2955   78.5148  222.8261 H   0  0  0  0  0  0  0  0  0  0  0  0
  141.3469   82.0773  224.1700 H   0  0  0  0  0  0  0  0  0  0  0  0
  139.0977   81.0487  223.8361 H   0  0  0  0  0  0  0  0  0  0  0  0
  139.4585   68.8043  226.5088 H   0  0  0  0  0  0  0  0  0  0  0  0
  140.2271   69.2222  228.8045 H   0  0  0  0  0  0  0  0  0  0  0  0
  141.3930   71.3432  229.3604 H   0  0  0  0  0  0  0  0  0  0  0  0
  141.7592   73.0465  227.5647 H   0  0  0  0  0  0  0  0  0  0  0  0
  140.9726   72.6135  225.2442 H   0  0  0  0  0  0  0  0  0  0  0  0
  1  2  1  0
  2  3  1  0
  3  4  1  0
  4  5  2  0
  4  6  1  0
  6  7  1  0
  7  8  1  0
  8  9  1  0
  9 10  1  0
 10 11  1  0
 11 12  1  0
 12 13  2  0
 12 14  1  0
 14 15  1  0
 15 16  1  0
 16 17  2  0
 16 18  1  0
 18 19  2  0
 19 20  1  0
 20 21  2  0
 21 22  1  0
 22 23  2  0
 23 24  1  0
 23 25  1  0
 25 26  2  0
 26 27  1  0
 27 28  2  0
  2 29  1  0
 29 30  2  0
 30 31  1  0
 31 32  2  0
 32 33  1  0
 33 34  2  0
 11  6  1  0
 28 18  1  0
 34 29  1  0
 27 21  1  0
  1 35  1  0
  1 36  1  0
  1 37  1  0
  2 38  1  6
  3 39  1  0
  6 40  1  1
  7 41  1  0
  7 42  1  0
  8 43  1  0
  8 44  1  0
  9 45  1  0
  9 46  1  0
 10 47  1  0
 10 48  1  0
 14 49  1  0
 14 50  1  0
 15 51  1  0
 19 52  1  0
 20 53  1  0
 22 54  1  0
 25 55  1  0
 26 56  1  0
 30 57  1  0
 31 58  1  0
 32 59  1  0
 33 60  1  0
 34 61  1  0
M  END
>  <smiles>  (86) 
C[C@@H](NC(=O)C1CCCCN1C(=O)CNC(=O)c1ccc2cc(F)ccc2n1)c1ccccc1

>  <score_type>  (86) 
oracle

>  <origin>  (86) 
autodockgpu

>  <m_score__min__energy>  (86) 
-9.5999999999999996

>  <m_primary>  (86) 
energy

>  <rmsd>  (86) 
8.906030873056558

>  <m_score__min__rmsd>  (86) 
8.906030873056558

>  <meeko>  (86) 
{"free_energy": -8.66, "intermolecular_energy": -10.75, "internal_energy": -2.23, "cluster_size": 2, "cluster_id": 4, "rank_in_cluster": 1}

>  <energy>  (86) 
-9.01

>  <cluster_rmsd>  (86) 
1.39

>  <cluster>  (86) 
2

$$$$

     RDKit          3D

 61 64  0  0  1  0  0  0  0  0999 V2000
  141.8510   78.6610  223.8940 C   0  0  0  0  0  0  0  0  0  0  0  0
  142.0070   79.3400  222.5560 C   0  0  1  0  0  0  0  0  0  0  0  0
  141.9260   78.3370  221.5180 N   0  0  0  0  0  0  0  0  0  0  0  0
  140.8320   77.4310  221.4070 C   0  0  0  0  0  0  0  0  0  0  0  0
  139.9060   77.5260  222.2640 O   0  0  0  0  0  0  0  0  0  0  0  0
  140.7450   76.4140  220.3570 C   0  0  1  0  0  0  0  0  0  0  0  0
  140.9310   76.9530  218.9610 C   0  0  0  0  0  0  0  0  0  0  0  0
  142.3290   77.2710  218.6030 C   0  0  0  0  0  0  0  0  0  0  0  0
  143.3910   76.5510  219.3560 C   0  0  0  0  0  0  0  0  0  0  0  0
  142.9920   75.3370  220.0950 C   0  0  0  0  0  0  0  0  0  0  0  0
  141.5990   75.2790  220.4900 N   0  0  0  0  0  0  0  0  0  0  0  0
  141.1420   74.0270  221.0150 C   0  0  0  0  0  0  0  0  0  0  0  0
  142.0130   73.0990  221.0910 O   0  0  0  0  0  0  0  0  0  0  0  0
  139.7370   73.8350  221.4420 C   0  0  0  0  0  0  0  0  0  0  0  0
  139.7720   72.9720  222.6160 N   0  0  0  0  0  0  0  0  0  0  0  0
  139.7630   71.5530  222.5150 C   0  0  0  0  0  0  0  0  0  0  0  0
  139.7230   70.9700  221.3790 O   0  0  0  0  0  0  0  0  0  0  0  0
  139.8000   70.7510  223.7380 C   0  0  0  0  0  0  0  0  0  0  0  0
  139.2600   69.4810  223.7520 C   0  0  0  0  0  0  0  0  0  0  0  0
  139.2740   68.6870  224.8900 C   0  0  0  0  0  0  0  0  0  0  0  0
  139.8470   69.1980  226.0250 C   0  0  0  0  0  0  0  0  0  0  0  0
  139.8750   68.4370  227.1650 C   0  0  0  0  0  0  0  0  0  0  0  0
  140.4570   68.9530  228.3200 C   0  0  0  0  0  0  0  0  0  0  0  0
  140.4510   68.1540  229.4030 F   0  0  0  0  0  0  0  0  0  0  0  0
  140.9860   70.2120  228.2870 C   0  0  0  0  0  0  0  0  0  0  0  0
  140.9780   71.0170  227.1510 C   0  0  0  0  0  0  0  0  0  0  0  0
  140.3920   70.4720  226.0230 C   0  0  0  0  0  0  0  0  0  0  0  0
  140.3480   71.1980  224.8840 N   0  0  0  0  0  0  0  0  0  0  0  0
  141.0070   80.4220  222.3650 C   0  0  0  0  0  0  0  0  0  0  0  0
  139.7790   80.4290  223.0100 C   0  0  0  0  0  0  0  0  0  0  0  0
  138.8490   81.4310  222.8340 C   0  0  0  0  0  0  0  0  0  0  0  0
  139.1270   82.4810  221.9910 C   0  0  0  0  0  0  0  0  0  0  0  0
  140.3540   82.5090  221.3230 C   0  0  0  0  0  0  0  0  0  0  0  0
  141.2860   81.4870  221.5100 C   0  0  0  0  0  0  0  0  0  0  0  0
  142.0191   79.3925  224.6982 H   0  0  0  0  0  0  0  0  0  0  0  0
  140.8347   78.2488  223.9797 H   0  0  0  0  0  0  0  0  0  0  0  0
  142.5854   77.8466  223.9797 H   0  0  0  0  0  0  0  0  0  0  0  0
  142.9903   79.8308  222.5083 H   0  0  0  0  0  0  0  0  0  0  0  0
  142.7170   78.3030  220.8370 H   0  0  0  0  0  0  0  0  0  0  0  0
  139.7100   76.0744  220.5100 H   0  0  0  0  0  0  0  0  0  0  0  0
  140.5581   76.2004  218.2506 H   0  0  0  0  0  0  0  0  0  0  0  0
  140.3758   77.9016  218.9177 H   0  0  0  0  0  0  0  0  0  0  0  0
  142.4610   77.0388  217.5359 H   0  0  0  0  0  0  0  0  0  0  0  0
  142.4597   78.3322  218.8614 H   0  0  0  0  0  0  0  0  0  0  0  0
  144.1674   76.2581  218.6339 H   0  0  0  0  0  0  0  0  0  0  0  0
  143.7171   77.2595  220.1317 H   0  0  0  0  0  0  0  0  0  0  0  0
  143.1997   74.4667  219.4552 H   0  0  0  0  0  0  0  0  0  0  0  0
  143.5717   75.3472  221.0298 H   0  0  0  0  0  0  0  0  0  0  0  0
  139.2821   74.8036  221.6966 H   0  0  0  0  0  0  0  0  0  0  0  0
  139.1361   73.3857  220.6376 H   0  0  0  0  0  0  0  0  0  0  0  0
  139.8060   73.3840  223.5950 H   0  0  0  0  0  0  0  0  0  0  0  0
  138.8042   69.0858  222.8322 H   0  0  0  0  0  0  0  0  0  0  0  0
  138.8380   67.6771  224.8812 H   0  0  0  0  0  0  0  0  0  0  0  0
  139.4409   67.4263  227.1673 H   0  0  0  0  0  0  0  0  0  0  0  0
  141.4419   70.6104  229.2054 H   0  0  0  0  0  0  0  0  0  0  0  0
  141.4124   72.0276  227.1507 H   0  0  0  0  0  0  0  0  0  0  0  0
  139.5371   79.5996  223.6909 H   0  0  0  0  0  0  0  0  0  0  0  0
  137.8873   81.3907  223.3664 H   0  0  0  0  0  0  0  0  0  0  0  0
  138.3937   83.2877  221.8445 H   0  0  0  0  0  0  0  0  0  0  0  0
  140.5872   83.3429  220.6446 H   0  0  0  0  0  0  0  0  0  0  0  0
  142.2484   81.5222  220.9784 H   0  0  0  0  0  0  0  0  0  0  0  0
  1  2  1  0
  2  3  1  0
  3  4  1  0
  4  5  2  0
  4  6  1  0
  6  7  1  0
  7  8  1  0
  8  9  1  0
  9 10  1  0
 10 11  1  0
 11 12  1  0
 12 13  2  0
 12 14  1  0
 14 15  1  0
 15 16  1  0
 16 17  2  0
 16 18  1  0
 18 19  2  0
 19 20  1  0
 20 21  2  0
 21 22  1  0
 22 23  2  0
 23 24  1  0
 23 25  1  0
 25 26  2  0
 26 27  1  0
 27 28  2  0
  2 29  1  0
 29 30  2  0
 30 31  1  0
 31 32  2  0
 32 33  1  0
 33 34  2  0
 11  6  1  0
 28 18  1  0
 34 29  1  0
 27 21  1  0
  1 35  1  0
  1 36  1  0
  1 37  1  0
  2 38  1  1
  3 39  1  0
  6 40  1  6
  7 41  1  0
  7 42  1  0
  8 43  1  0
  8 44  1  0
  9 45  1  0
  9 46  1  0
 10 47  1  0
 10 48  1  0
 14 49  1  0
 14 50  1  0
 15 51  1  0
 19 52  1  0
 20 53  1  0
 22 54  1  0
 25 55  1  0
 26 56  1  0
 30 57  1  0
 31 58  1  0
 32 59  1  0
 33 60  1  0
 34 61  1  0
M  END
>  <smiles>  (87) 
C[C@@H](NC(=O)C1CCCCN1C(=O)CNC(=O)c1ccc2cc(F)ccc2n1)c1ccccc1

>  <score_type>  (87) 
oracle

>  <origin>  (87) 
autodockgpu

>  <m_score__min__energy>  (87) 
-9.5999999999999996

>  <m_primary>  (87) 
energy

>  <rmsd>  (87) 
1.8344442129648089

>  <m_score__min__rmsd>  (87) 
1.8344442129648089

>  <meeko>  (87) 
{"free_energy": -9.19, "intermolecular_energy": -11.28, "internal_energy": -1.99, "cluster_size": 26, "cluster_id": 1, "rank_in_cluster": 3}

>  <energy>  (87) 
-8.98

>  <cluster_rmsd>  (87) 
1.43

>  <cluster>  (87) 
2

$$$$

     RDKit          3D

 61 64  0  0  1  0  0  0  0  0999 V2000
  142.2340   79.7600  224.0170 C   0  0  0  0  0  0  0  0  0  0  0  0
  142.2070   79.2550  222.5960 C   0  0  1  0  0  0  0  0  0  0  0  0
  141.2890   78.1410  222.5200 N   0  0  0  0  0  0  0  0  0  0  0  0
  139.8890   78.2810  222.7400 C   0  0  0  0  0  0  0  0  0  0  0  0
  139.4530   79.4370  223.0130 O   0  0  0  0  0  0  0  0  0  0  0  0
  138.9550   77.1560  222.6640 C   0  0  1  0  0  0  0  0  0  0  0  0
  137.5030   77.5620  222.6590 C   0  0  0  0  0  0  0  0  0  0  0  0
  137.0190   78.1130  221.3750 C   0  0  0  0  0  0  0  0  0  0  0  0
  137.7650   77.7110  220.1530 C   0  0  0  0  0  0  0  0  0  0  0  0
  138.6480   76.5310  220.2560 C   0  0  0  0  0  0  0  0  0  0  0  0
  139.1410   76.2390  221.5860 N   0  0  0  0  0  0  0  0  0  0  0  0
  139.8200   74.9870  221.7490 C   0  0  0  0  0  0  0  0  0  0  0  0
  141.0290   75.0520  222.1470 O   0  0  0  0  0  0  0  0  0  0  0  0
  139.1440   73.7000  221.4670 C   0  0  0  0  0  0  0  0  0  0  0  0
  139.4110   72.8300  222.6040 N   0  0  0  0  0  0  0  0  0  0  0  0
  139.0270   71.4610  222.6190 C   0  0  0  0  0  0  0  0  0  0  0  0
  138.4240   70.9320  221.6250 O   0  0  0  0  0  0  0  0  0  0  0  0
  139.3300   70.6470  223.7980 C   0  0  0  0  0  0  0  0  0  0  0  0
  139.0110   69.3050  223.8150 C   0  0  0  0  0  0  0  0  0  0  0  0
  139.2800   68.4980  224.9120 C   0  0  0  0  0  0  0  0  0  0  0  0
  139.8820   69.0710  226.0010 C   0  0  0  0  0  0  0  0  0  0  0  0
  140.1610   68.3000  227.0990 C   0  0  0  0  0  0  0  0  0  0  0  0
  140.7720   68.8790  228.2080 C   0  0  0  0  0  0  0  0  0  0  0  0
  141.0180   68.0650  229.2520 F   0  0  0  0  0  0  0  0  0  0  0  0
  141.0800   70.2090  228.1720 C   0  0  0  0  0  0  0  0  0  0  0  0
  140.8150   71.0280  227.0770 C   0  0  0  0  0  0  0  0  0  0  0  0
  140.2070   70.4190  225.9950 C   0  0  0  0  0  0  0  0  0  0  0  0
  139.9190   71.1530  224.8980 N   0  0  0  0  0  0  0  0  0  0  0  0
  141.8580   80.3330  221.6330 C   0  0  0  0  0  0  0  0  0  0  0  0
  141.8290   80.1300  220.2620 C   0  0  0  0  0  0  0  0  0  0  0  0
  141.5060   81.1280  219.3670 C   0  0  0  0  0  0  0  0  0  0  0  0
  141.1940   82.3850  219.8280 C   0  0  0  0  0  0  0  0  0  0  0  0
  141.2130   82.6280  221.2040 C   0  0  0  0  0  0  0  0  0  0  0  0
  141.5420   81.6080  222.0990 C   0  0  0  0  0  0  0  0  0  0  0  0
  142.1884   78.9071  224.7102 H   0  0  0  0  0  0  0  0  0  0  0  0
  143.1635   80.3227  224.1886 H   0  0  0  0  0  0  0  0  0  0  0  0
  141.3698   80.4185  224.1886 H   0  0  0  0  0  0  0  0  0  0  0  0
  143.2129   78.9136  222.3103 H   0  0  0  0  0  0  0  0  0  0  0  0
  141.7020   77.2100  222.2900 H   0  0  0  0  0  0  0  0  0  0  0  0
  139.2124   76.6339  223.5974 H   0  0  0  0  0  0  0  0  0  0  0  0
  136.8986   76.6752  222.9007 H   0  0  0  0  0  0  0  0  0  0  0  0
  137.4039   78.3689  223.3999 H   0  0  0  0  0  0  0  0  0  0  0  0
  135.9740   77.7938  221.2479 H   0  0  0  0  0  0  0  0  0  0  0  0
  137.1600   79.2010  221.4554 H   0  0  0  0  0  0  0  0  0  0  0  0
  137.0241   77.5017  219.3674 H   0  0  0  0  0  0  0  0  0  0  0  0
  138.4417   78.5530  219.9453 H   0  0  0  0  0  0  0  0  0  0  0  0
  138.0856   75.6543  219.9023 H   0  0  0  0  0  0  0  0  0  0  0  0
  139.5349   76.7618  219.6476 H   0  0  0  0  0  0  0  0  0  0  0  0
  138.0610   73.8569  221.3556 H   0  0  0  0  0  0  0  0  0  0  0  0
  139.5146   73.2546  220.5320 H   0  0  0  0  0  0  0  0  0  0  0  0
  139.9090   73.1990  223.4680 H   0  0  0  0  0  0  0  0  0  0  0  0
  138.5285   68.8606  222.9320 H   0  0  0  0  0  0  0  0  0  0  0  0
  139.0175   67.4298  224.9070 H   0  0  0  0  0  0  0  0  0  0  0  0
  139.9038   67.2305  227.1042 H   0  0  0  0  0  0  0  0  0  0  0  0
  141.5624   70.6566  229.0534 H   0  0  0  0  0  0  0  0  0  0  0  0
  141.0744   72.0970  227.0733 H   0  0  0  0  0  0  0  0  0  0  0  0
  142.0739   79.1311  219.8718 H   0  0  0  0  0  0  0  0  0  0  0  0
  141.4980   80.9189  218.2871 H   0  0  0  0  0  0  0  0  0  0  0  0
  140.9330   83.1884  219.1235 H   0  0  0  0  0  0  0  0  0  0  0  0
  140.9669   83.6302  221.5849 H   0  0  0  0  0  0  0  0  0  0  0  0
  141.5519   81.8122  223.1798 H   0  0  0  0  0  0  0  0  0  0  0  0
  1  2  1  0
  2  3  1  0
  3  4  1  0
  4  5  2  0
  4  6  1  0
  6  7  1  0
  7  8  1  0
  8  9  1  0
  9 10  1  0
 10 11  1  0
 11 12  1  0
 12 13  2  0
 12 14  1  0
 14 15  1  0
 15 16  1  0
 16 17  2  0
 16 18  1  0
 18 19  2  0
 19 20  1  0
 20 21  2  0
 21 22  1  0
 22 23  2  0
 23 24  1  0
 23 25  1  0
 25 26  2  0
 26 27  1  0
 27 28  2  0
  2 29  1  0
 29 30  2  0
 30 31  1  0
 31 32  2  0
 32 33  1  0
 33 34  2  0
 11  6  1  0
 28 18  1  0
 34 29  1  0
 27 21  1  0
  1 35  1  0
  1 36  1  0
  1 37  1  0
  2 38  1  6
  3 39  1  0
  6 40  1  1
  7 41  1  0
  7 42  1  0
  8 43  1  0
  8 44  1  0
  9 45  1  0
  9 46  1  0
 10 47  1  0
 10 48  1  0
 14 49  1  0
 14 50  1  0
 15 51  1  0
 19 52  1  0
 20 53  1  0
 22 54  1  0
 25 55  1  0
 26 56  1  0
 30 57  1  0
 31 58  1  0
 32 59  1  0
 33 60  1  0
 34 61  1  0
M  END
>  <smiles>  (88) 
C[C@@H](NC(=O)C1CCCCN1C(=O)CNC(=O)c1ccc2cc(F)ccc2n1)c1ccccc1

>  <score_type>  (88) 
oracle

>  <origin>  (88) 
autodockgpu

>  <m_score__min__energy>  (88) 
-9.5999999999999996

>  <m_primary>  (88) 
energy

>  <rmsd>  (88) 
2.706671072916903

>  <m_score__min__rmsd>  (88) 
2.706671072916903

>  <meeko>  (88) 
{"free_energy": -9.01, "intermolecular_energy": -11.09, "internal_energy": -3.0, "cluster_size": 17, "cluster_id": 2, "rank_in_cluster": 10}

>  <energy>  (88) 
-8.96

>  <cluster_rmsd>  (88) 
1.55

>  <cluster>  (88) 
2

$$$$

     RDKit          3D

 61 64  0  0  1  0  0  0  0  0999 V2000
  137.9150   80.4840  222.8280 C   0  0  0  0  0  0  0  0  0  0  0  0
  138.7800   79.4160  223.4510 C   0  0  1  0  0  0  0  0  0  0  0  0
  138.5590   78.1740  222.7430 N   0  0  0  0  0  0  0  0  0  0  0  0
  138.9820   77.9690  221.3990 C   0  0  0  0  0  0  0  0  0  0  0  0
  139.5720   78.9260  220.8190 O   0  0  0  0  0  0  0  0  0  0  0  0
  138.7620   76.7130  220.6790 C   0  0  1  0  0  0  0  0  0  0  0  0
  139.6000   76.5630  219.4340 C   0  0  0  0  0  0  0  0  0  0  0  0
  141.0190   76.2290  219.6800 C   0  0  0  0  0  0  0  0  0  0  0  0
  141.3320   75.5560  220.9680 C   0  0  0  0  0  0  0  0  0  0  0  0
  140.2070   74.9390  221.7000 C   0  0  0  0  0  0  0  0  0  0  0  0
  138.9030   75.5090  221.4310 N   0  0  0  0  0  0  0  0  0  0  0  0
  137.7790   74.7940  221.9610 C   0  0  0  0  0  0  0  0  0  0  0  0
  137.0570   75.4280  222.7980 O   0  0  0  0  0  0  0  0  0  0  0  0
  137.4850   73.4030  221.5500 C   0  0  0  0  0  0  0  0  0  0  0  0
  137.8680   72.5490  222.6660 N   0  0  0  0  0  0  0  0  0  0  0  0
  138.8730   71.5480  222.5450 C   0  0  0  0  0  0  0  0  0  0  0  0
  139.4850   71.3550  221.4410 O   0  0  0  0  0  0  0  0  0  0  0  0
  139.2060   70.7280  223.7110 C   0  0  0  0  0  0  0  0  0  0  0  0
  138.8960   69.3830  223.7240 C   0  0  0  0  0  0  0  0  0  0  0  0
  139.1940   68.5700  224.8080 C   0  0  0  0  0  0  0  0  0  0  0  0
  139.8170   69.1380  225.8880 C   0  0  0  0  0  0  0  0  0  0  0  0
  140.1240   68.3600  226.9740 C   0  0  0  0  0  0  0  0  0  0  0  0
  140.7570   68.9340  228.0730 C   0  0  0  0  0  0  0  0  0  0  0  0
  141.0300   68.1140  229.1050 F   0  0  0  0  0  0  0  0  0  0  0  0
  141.0550   70.2660  228.0410 C   0  0  0  0  0  0  0  0  0  0  0  0
  140.7610   71.0920  226.9590 C   0  0  0  0  0  0  0  0  0  0  0  0
  140.1330   70.4880  225.8860 C   0  0  0  0  0  0  0  0  0  0  0  0
  139.8170   71.2290  224.8010 N   0  0  0  0  0  0  0  0  0  0  0  0
  140.2140   79.8040  223.4630 C   0  0  0  0  0  0  0  0  0  0  0  0
  141.2410   78.8720  223.4520 C   0  0  0  0  0  0  0  0  0  0  0  0
  142.5730   79.2290  223.4640 C   0  0  0  0  0  0  0  0  0  0  0  0
  142.9240   80.5570  223.4870 C   0  0  0  0  0  0  0  0  0  0  0  0
  141.9170   81.5260  223.4990 C   0  0  0  0  0  0  0  0  0  0  0  0
  140.5730   81.1510  223.4870 C   0  0  0  0  0  0  0  0  0  0  0  0
  137.4353   81.0762  223.6212 H   0  0  0  0  0  0  0  0  0  0  0  0
  138.5375   81.1424  222.2043 H   0  0  0  0  0  0  0  0  0  0  0  0
  137.1416   80.0119  222.2043 H   0  0  0  0  0  0  0  0  0  0  0  0
  138.4977   79.2858  224.5062 H   0  0  0  0  0  0  0  0  0  0  0  0
  138.0690   77.4170  223.2700 H   0  0  0  0  0  0  0  0  0  0  0  0
  137.6981   76.8263  220.4234 H   0  0  0  0  0  0  0  0  0  0  0  0
  139.1612   75.7626  218.8202 H   0  0  0  0  0  0  0  0  0  0  0  0
  139.5939   77.5437  218.9359 H   0  0  0  0  0  0  0  0  0  0  0  0
  141.3511   75.5656  218.8678 H   0  0  0  0  0  0  0  0  0  0  0  0
  141.5406   77.1965  219.7247 H   0  0  0  0  0  0  0  0  0  0  0  0
  142.0640   74.7625  220.7570 H   0  0  0  0  0  0  0  0  0  0  0  0
  141.6912   76.3600  221.6272 H   0  0  0  0  0  0  0  0  0  0  0  0
  140.1727   73.8725  221.4329 H   0  0  0  0  0  0  0  0  0  0  0  0
  140.4032   75.1218  222.7668 H   0  0  0  0  0  0  0  0  0  0  0  0
  136.4120   73.2893  221.3360 H   0  0  0  0  0  0  0  0  0  0  0  0
  138.0371   73.1341  220.6374 H   0  0  0  0  0  0  0  0  0  0  0  0
  137.4040   72.6500  223.6160 H   0  0  0  0  0  0  0  0  0  0  0  0
  138.3974   68.9423  222.8481 H   0  0  0  0  0  0  0  0  0  0  0  0
  138.9375   67.5003  224.8006 H   0  0  0  0  0  0  0  0  0  0  0  0
  139.8719   67.2893  226.9771 H   0  0  0  0  0  0  0  0  0  0  0  0
  141.5533   70.7099  228.9155 H   0  0  0  0  0  0  0  0  0  0  0  0
  141.0138   72.1626  226.9583 H   0  0  0  0  0  0  0  0  0  0  0  0
  140.9822   77.8031  223.4329 H   0  0  0  0  0  0  0  0  0  0  0  0
  143.3522   78.4526  223.4552 H   0  0  0  0  0  0  0  0  0  0  0  0
  143.9832   80.8536  223.4959 H   0  0  0  0  0  0  0  0  0  0  0  0
  142.1860   82.5924  223.5180 H   0  0  0  0  0  0  0  0  0  0  0  0
  139.7906   81.9242  223.4966 H   0  0  0  0  0  0  0  0  0  0  0  0
  1  2  1  0
  2  3  1  0
  3  4  1  0
  4  5  2  0
  4  6  1  0
  6  7  1  0
  7  8  1  0
  8  9  1  0
  9 10  1  0
 10 11  1  0
 11 12  1  0
 12 13  2  0
 12 14  1  0
 14 15  1  0
 15 16  1  0
 16 17  2  0
 16 18  1  0
 18 19  2  0
 19 20  1  0
 20 21  2  0
 21 22  1  0
 22 23  2  0
 23 24  1  0
 23 25  1  0
 25 26  2  0
 26 27  1  0
 27 28  2  0
  2 29  1  0
 29 30  2  0
 30 31  1  0
 31 32  2  0
 32 33  1  0
 33 34  2  0
 11  6  1  0
 28 18  1  0
 34 29  1  0
 27 21  1  0
  1 35  1  0
  1 36  1  0
  1 37  1  0
  2 38  1  1
  3 39  1  0
  6 40  1  6
  7 41  1  0
  7 42  1  0
  8 43  1  0
  8 44  1  0
  9 45  1  0
  9 46  1  0
 10 47  1  0
 10 48  1  0
 14 49  1  0
 14 50  1  0
 15 51  1  0
 19 52  1  0
 20 53  1  0
 22 54  1  0
 25 55  1  0
 26 56  1  0
 30 57  1  0
 31 58  1  0
 32 59  1  0
 33 60  1  0
 34 61  1  0
M  END
>  <smiles>  (89) 
C[C@@H](NC(=O)C1CCCCN1C(=O)CNC(=O)c1ccc2cc(F)ccc2n1)c1ccccc1

>  <score_type>  (89) 
oracle

>  <origin>  (89) 
autodockgpu

>  <m_score__min__energy>  (89) 
-9.5999999999999996

>  <m_primary>  (89) 
energy

>  <rmsd>  (89) 
2.9427602009771237

>  <m_score__min__rmsd>  (89) 
2.9427602009771237

>  <meeko>  (89) 
{"free_energy": -8.68, "intermolecular_energy": -10.77, "internal_energy": -2.73, "cluster_size": 26, "cluster_id": 1, "rank_in_cluster": 18}

>  <energy>  (89) 
-8.9

>  <cluster_rmsd>  (89) 
1.02

>  <cluster>  (89) 
2

$$$$

     RDKit          3D

 61 64  0  0  1  0  0  0  0  0999 V2000
  138.1970   80.3990  222.9910 C   0  0  0  0  0  0  0  0  0  0  0  0
  139.1590   79.3420  223.4750 C   0  0  1  0  0  0  0  0  0  0  0  0
  138.9970   78.1620  222.6560 N   0  0  0  0  0  0  0  0  0  0  0  0
  139.3690   78.1210  221.2820 C   0  0  0  0  0  0  0  0  0  0  0  0
  139.8580   79.1730  220.7770 O   0  0  0  0  0  0  0  0  0  0  0  0
  139.2080   76.9280  220.4490 C   0  0  1  0  0  0  0  0  0  0  0  0
  139.8850   77.0200  219.1050 C   0  0  0  0  0  0  0  0  0  0  0  0
  141.3530   76.8560  219.1390 C   0  0  0  0  0  0  0  0  0  0  0  0
  141.9130   76.1020  220.2920 C   0  0  0  0  0  0  0  0  0  0  0  0
  140.9780   75.2680  221.0740 C   0  0  0  0  0  0  0  0  0  0  0  0
  139.5900   75.6820  221.0300 N   0  0  0  0  0  0  0  0  0  0  0  0
  138.6400   74.7730  221.6010 C   0  0  0  0  0  0  0  0  0  0  0  0
  137.8810   75.2520  222.5070 O   0  0  0  0  0  0  0  0  0  0  0  0
  138.5540   73.3640  221.1540 C   0  0  0  0  0  0  0  0  0  0  0  0
  138.6770   72.5400  222.3490 N   0  0  0  0  0  0  0  0  0  0  0  0
  139.6860   71.5460  222.4840 C   0  0  0  0  0  0  0  0  0  0  0  0
  140.5340   71.3320  221.5530 O   0  0  0  0  0  0  0  0  0  0  0  0
  139.7480   70.7550  223.7150 C   0  0  0  0  0  0  0  0  0  0  0  0
  139.1900   69.4940  223.7580 C   0  0  0  0  0  0  0  0  0  0  0  0
  139.2280   68.7120  224.9040 C   0  0  0  0  0  0  0  0  0  0  0  0
  139.8420   69.2260  226.0160 C   0  0  0  0  0  0  0  0  0  0  0  0
  139.8940   68.4770  227.1620 C   0  0  0  0  0  0  0  0  0  0  0  0
  140.5180   68.9960  228.2940 C   0  0  0  0  0  0  0  0  0  0  0  0
  140.5340   68.2090  229.3850 F   0  0  0  0  0  0  0  0  0  0  0  0
  141.0640   70.2470  228.2310 C   0  0  0  0  0  0  0  0  0  0  0  0
  141.0330   71.0400  227.0870 C   0  0  0  0  0  0  0  0  0  0  0  0
  140.4050   70.4920  225.9830 C   0  0  0  0  0  0  0  0  0  0  0  0
  140.3370   71.2060  224.8390 N   0  0  0  0  0  0  0  0  0  0  0  0
  140.5630   79.8310  223.4770 C   0  0  0  0  0  0  0  0  0  0  0  0
  141.6390   79.0170  223.1600 C   0  0  0  0  0  0  0  0  0  0  0  0
  142.9420   79.4680  223.1610 C   0  0  0  0  0  0  0  0  0  0  0  0
  143.2120   80.7760  223.4850 C   0  0  0  0  0  0  0  0  0  0  0  0
  142.1530   81.6280  223.8110 C   0  0  0  0  0  0  0  0  0  0  0  0
  140.8390   81.1580  223.8060 C   0  0  0  0  0  0  0  0  0  0  0  0
  137.7393   80.9019  223.8557 H   0  0  0  0  0  0  0  0  0  0  0  0
  138.7394   81.1374  222.3822 H   0  0  0  0  0  0  0  0  0  0  0  0
  137.4110   79.9283  222.3822 H   0  0  0  0  0  0  0  0  0  0  0  0
  138.9291   79.0905  224.5209 H   0  0  0  0  0  0  0  0  0  0  0  0
  138.5890   77.3210  223.1230 H   0  0  0  0  0  0  0  0  0  0  0  0
  138.1137   76.9244  220.3368 H   0  0  0  0  0  0  0  0  0  0  0  0
  139.4678   76.2351  218.4571 H   0  0  0  0  0  0  0  0  0  0  0  0
  139.6953   78.0370  218.7313 H   0  0  0  0  0  0  0  0  0  0  0  0
  141.6513   76.3302  218.2200 H   0  0  0  0  0  0  0  0  0  0  0  0
  141.7561   77.8749  219.2359 H   0  0  0  0  0  0  0  0  0  0  0  0
  142.7003   75.4397  219.9028 H   0  0  0  0  0  0  0  0  0  0  0  0
  142.2574   76.8751  220.9947 H   0  0  0  0  0  0  0  0  0  0  0  0
  141.0376   74.2393  220.6891 H   0  0  0  0  0  0  0  0  0  0  0  0
  141.2903   75.3659  222.1242 H   0  0  0  0  0  0  0  0  0  0  0  0
  137.5867   73.1797  220.6638 H   0  0  0  0  0  0  0  0  0  0  0  0
  139.3456   73.1294  220.4272 H   0  0  0  0  0  0  0  0  0  0  0  0
  138.0090   72.6600  223.1660 H   0  0  0  0  0  0  0  0  0  0  0  0
  138.7002   69.0964  222.8569 H   0  0  0  0  0  0  0  0  0  0  0  0
  138.7781   67.7083  224.9192 H   0  0  0  0  0  0  0  0  0  0  0  0
  139.4460   67.4727  227.1880 H   0  0  0  0  0  0  0  0  0  0  0  0
  141.5534   70.6484  229.1307 H   0  0  0  0  0  0  0  0  0  0  0  0
  141.4818   72.0440  227.0625 H   0  0  0  0  0  0  0  0  0  0  0  0
  141.4453   77.9667  222.8965 H   0  0  0  0  0  0  0  0  0  0  0  0
  143.7630   78.7828  222.9032 H   0  0  0  0  0  0  0  0  0  0  0  0
  144.2474   81.1473  223.4877 H   0  0  0  0  0  0  0  0  0  0  0  0
  142.3568   82.6766  224.0734 H   0  0  0  0  0  0  0  0  0  0  0  0
  140.0147   81.8393  224.0635 H   0  0  0  0  0  0  0  0  0  0  0  0
  1  2  1  0
  2  3  1  0
  3  4  1  0
  4  5  2  0
  4  6  1  0
  6  7  1  0
  7  8  1  0
  8  9  1  0
  9 10  1  0
 10 11  1  0
 11 12  1  0
 12 13  2  0
 12 14  1  0
 14 15  1  0
 15 16  1  0
 16 17  2  0
 16 18  1  0
 18 19  2  0
 19 20  1  0
 20 21  2  0
 21 22  1  0
 22 23  2  0
 23 24  1  0
 23 25  1  0
 25 26  2  0
 26 27  1  0
 27 28  2  0
  2 29  1  0
 29 30  2  0
 30 31  1  0
 31 32  2  0
 32 33  1  0
 33 34  2  0
 11  6  1  0
 28 18  1  0
 34 29  1  0
 27 21  1  0
  1 35  1  0
  1 36  1  0
  1 37  1  0
  2 38  1  1
  3 39  1  0
  6 40  1  6
  7 41  1  0
  7 42  1  0
  8 43  1  0
  8 44  1  0
  9 45  1  0
  9 46  1  0
 10 47  1  0
 10 48  1  0
 14 49  1  0
 14 50  1  0
 15 51  1  0
 19 52  1  0
 20 53  1  0
 22 54  1  0
 25 55  1  0
 26 56  1  0
 30 57  1  0
 31 58  1  0
 32 59  1  0
 33 60  1  0
 34 61  1  0
M  END
>  <smiles>  (90) 
C[C@@H](NC(=O)C1CCCCN1C(=O)CNC(=O)c1ccc2cc(F)ccc2n1)c1ccccc1

>  <score_type>  (90) 
oracle

>  <origin>  (90) 
autodockgpu

>  <m_score__min__energy>  (90) 
-9.5999999999999996

>  <m_primary>  (90) 
energy

>  <rmsd>  (90) 
2.846642193031791

>  <m_score__min__rmsd>  (90) 
2.846642193031791

>  <meeko>  (90) 
{"free_energy": -8.73, "intermolecular_energy": -10.82, "internal_energy": -2.66, "cluster_size": 26, "cluster_id": 1, "rank_in_cluster": 17}

>  <energy>  (90) 
-8.81

>  <cluster_rmsd>  (90) 
1.4

>  <cluster>  (90) 
2

$$$$

     RDKit          3D

 61 64  0  0  1  0  0  0  0  0999 V2000
  141.8070   79.1410  223.8730 C   0  0  0  0  0  0  0  0  0  0  0  0
  142.0680   79.0410  222.3900 C   0  0  1  0  0  0  0  0  0  0  0  0
  141.2940   77.9420  221.8600 N   0  0  0  0  0  0  0  0  0  0  0  0
  139.8710   77.9020  221.9210 C   0  0  0  0  0  0  0  0  0  0  0  0
  139.2820   78.8790  222.4690 O   0  0  0  0  0  0  0  0  0  0  0  0
  139.0820   76.7920  221.3840 C   0  0  1  0  0  0  0  0  0  0  0  0
  138.0490   77.2070  220.3680 C   0  0  0  0  0  0  0  0  0  0  0  0
  138.5910   77.5300  219.0310 C   0  0  0  0  0  0  0  0  0  0  0  0
  139.8950   76.9120  218.6730 C   0  0  0  0  0  0  0  0  0  0  0  0
  140.3420   75.7590  219.4800 C   0  0  0  0  0  0  0  0  0  0  0  0
  139.8090   75.6980  220.8260 N   0  0  0  0  0  0  0  0  0  0  0  0
  140.0560   74.4860  221.5500 C   0  0  0  0  0  0  0  0  0  0  0  0
  141.0740   74.4900  222.3180 O   0  0  0  0  0  0  0  0  0  0  0  0
  139.1730   73.3070  221.4060 C   0  0  0  0  0  0  0  0  0  0  0  0
  139.4060   72.4660  222.5720 N   0  0  0  0  0  0  0  0  0  0  0  0
  139.0360   71.0920  222.6030 C   0  0  0  0  0  0  0  0  0  0  0  0
  138.4760   70.5350  221.6000 O   0  0  0  0  0  0  0  0  0  0  0  0
  139.3020   70.3090  223.8110 C   0  0  0  0  0  0  0  0  0  0  0  0
  138.9380   68.9790  223.8690 C   0  0  0  0  0  0  0  0  0  0  0  0
  139.1720   68.2000  224.9930 C   0  0  0  0  0  0  0  0  0  0  0  0
  139.7860   68.7890  226.0680 C   0  0  0  0  0  0  0  0  0  0  0  0
  140.0300   68.0450  227.1940 C   0  0  0  0  0  0  0  0  0  0  0  0
  140.6540   68.6390  228.2870 C   0  0  0  0  0  0  0  0  0  0  0  0
  140.8640   67.8530  229.3590 F   0  0  0  0  0  0  0  0  0  0  0  0
  141.0060   69.9560  228.2100 C   0  0  0  0  0  0  0  0  0  0  0  0
  140.7770   70.7470  227.0870 C   0  0  0  0  0  0  0  0  0  0  0  0
  140.1560   70.1240  226.0200 C   0  0  0  0  0  0  0  0  0  0  0  0
  139.9010   70.8310  224.8980 N   0  0  0  0  0  0  0  0  0  0  0  0
  141.7760   80.3190  221.6900 C   0  0  0  0  0  0  0  0  0  0  0  0
  141.4440   81.4840  222.3670 C   0  0  0  0  0  0  0  0  0  0  0  0
  141.1710   82.6700  221.7200 C   0  0  0  0  0  0  0  0  0  0  0  0
  141.2240   82.7280  220.3480 C   0  0  0  0  0  0  0  0  0  0  0  0
  141.5550   81.5750  219.6310 C   0  0  0  0  0  0  0  0  0  0  0  0
  141.8280   80.3800  220.2990 C   0  0  0  0  0  0  0  0  0  0  0  0
  142.6953   78.8007  224.4254 H   0  0  0  0  0  0  0  0  0  0  0  0
  141.5891   80.1863  224.1373 H   0  0  0  0  0  0  0  0  0  0  0  0
  140.9464   78.5089  224.1373 H   0  0  0  0  0  0  0  0  0  0  0  0
  143.1369   78.8454  222.2189 H   0  0  0  0  0  0  0  0  0  0  0  0
  141.8300   77.1620  221.4180 H   0  0  0  0  0  0  0  0  0  0  0  0
  138.6015   76.4386  222.3082 H   0  0  0  0  0  0  0  0  0  0  0  0
  137.3289   76.3831  220.2557 H   0  0  0  0  0  0  0  0  0  0  0  0
  137.5928   78.1323  220.7496 H   0  0  0  0  0  0  0  0  0  0  0  0
  137.8517   77.2051  218.2841 H   0  0  0  0  0  0  0  0  0  0  0  0
  138.7794   78.6136  219.0491 H   0  0  0  0  0  0  0  0  0  0  0  0
  139.8259   76.5768  217.6276 H   0  0  0  0  0  0  0  0  0  0  0  0
  140.6416   77.6970  218.8641 H   0  0  0  0  0  0  0  0  0  0  0  0
  140.0422   74.8404  218.9544 H   0  0  0  0  0  0  0  0  0  0  0  0
  141.4308   75.8703  219.5901 H   0  0  0  0  0  0  0  0  0  0  0  0
  138.1202   73.6237  221.3710 H   0  0  0  0  0  0  0  0  0  0  0  0
  139.3885   72.7620  220.4751 H   0  0  0  0  0  0  0  0  0  0  0  0
  139.8680   72.8580  223.4450 H   0  0  0  0  0  0  0  0  0  0  0  0
  138.4471   68.5224  222.9969 H   0  0  0  0  0  0  0  0  0  0  0  0
  138.8738   67.1415  225.0208 H   0  0  0  0  0  0  0  0  0  0  0  0
  139.7345   66.9861  227.2329 H   0  0  0  0  0  0  0  0  0  0  0  0
  141.4961   70.4163  229.0806 H   0  0  0  0  0  0  0  0  0  0  0  0
  141.0729   71.8058  227.0508 H   0  0  0  0  0  0  0  0  0  0  0  0
  141.3967   81.4599  223.4657 H   0  0  0  0  0  0  0  0  0  0  0  0
  140.9114   83.5677  222.3003 H   0  0  0  0  0  0  0  0  0  0  0  0
  141.0088   83.6694  219.8212 H   0  0  0  0  0  0  0  0  0  0  0  0
  141.6007   81.6093  218.5325 H   0  0  0  0  0  0  0  0  0  0  0  0
  142.0862   79.4794  219.7226 H   0  0  0  0  0  0  0  0  0  0  0  0
  1  2  1  0
  2  3  1  0
  3  4  1  0
  4  5  2  0
  4  6  1  0
  6  7  1  0
  7  8  1  0
  8  9  1  0
  9 10  1  0
 10 11  1  0
 11 12  1  0
 12 13  2  0
 12 14  1  0
 14 15  1  0
 15 16  1  0
 16 17  2  0
 16 18  1  0
 18 19  2  0
 19 20  1  0
 20 21  2  0
 21 22  1  0
 22 23  2  0
 23 24  1  0
 23 25  1  0
 25 26  2  0
 26 27  1  0
 27 28  2  0
  2 29  1  0
 29 30  2  0
 30 31  1  0
 31 32  2  0
 32 33  1  0
 33 34  2  0
 11  6  1  0
 28 18  1  0
 34 29  1  0
 27 21  1  0
  1 35  1  0
  1 36  1  0
  1 37  1  0
  2 38  1  1
  3 39  1  0
  6 40  1  1
  7 41  1  0
  7 42  1  0
  8 43  1  0
  8 44  1  0
  9 45  1  0
  9 46  1  0
 10 47  1  0
 10 48  1  0
 14 49  1  0
 14 50  1  0
 15 51  1  0
 19 52  1  0
 20 53  1  0
 22 54  1  0
 25 55  1  0
 26 56  1  0
 30 57  1  0
 31 58  1  0
 32 59  1  0
 33 60  1  0
 34 61  1  0
M  END
>  <smiles>  (91) 
C[C@@H](NC(=O)C1CCCCN1C(=O)CNC(=O)c1ccc2cc(F)ccc2n1)c1ccccc1

>  <score_type>  (91) 
oracle

>  <origin>  (91) 
autodockgpu

>  <m_score__min__energy>  (91) 
-9.5999999999999996

>  <m_primary>  (91) 
energy

>  <rmsd>  (91) 
1.9317722706941065

>  <m_score__min__rmsd>  (91) 
1.9317722706941065

>  <meeko>  (91) 
{"free_energy": -8.49, "intermolecular_energy": -10.58, "internal_energy": -2.79, "cluster_size": 17, "cluster_id": 2, "rank_in_cluster": 17}

>  <energy>  (91) 
-8.72

>  <cluster_rmsd>  (91) 
1.19

>  <cluster>  (91) 
2

$$$$

     RDKit          3D

 61 64  0  0  1  0  0  0  0  0999 V2000
  138.8920   69.5210  223.9800 C   0  0  0  0  0  0  0  0  0  0  0  0
  139.9060   70.6260  224.1450 C   0  0  1  0  0  0  0  0  0  0  0  0
  139.3800   71.8280  223.5370 N   0  0  0  0  0  0  0  0  0  0  0  0
  140.1090   72.5880  222.5790 C   0  0  0  0  0  0  0  0  0  0  0  0
  141.2630   72.1780  222.2620 O   0  0  0  0  0  0  0  0  0  0  0  0
  139.5800   73.8050  221.9590 C   0  0  1  0  0  0  0  0  0  0  0  0
  140.5870   74.9210  221.8380 C   0  0  0  0  0  0  0  0  0  0  0  0
  141.5790   74.7440  220.7560 C   0  0  0  0  0  0  0  0  0  0  0  0
  141.1800   73.8690  219.6220 C   0  0  0  0  0  0  0  0  0  0  0  0
  139.7410   73.5730  219.4690 C   0  0  0  0  0  0  0  0  0  0  0  0
  138.9570   73.6580  220.6840 N   0  0  0  0  0  0  0  0  0  0  0  0
  137.5340   73.5850  220.5250 C   0  0  0  0  0  0  0  0  0  0  0  0
  137.0800   72.5020  220.0300 O   0  0  0  0  0  0  0  0  0  0  0  0
  136.6540   74.7100  220.9180 C   0  0  0  0  0  0  0  0  0  0  0  0
  137.5290   75.7960  221.3380 N   0  0  0  0  0  0  0  0  0  0  0  0
  137.1520   76.7280  222.3450 C   0  0  0  0  0  0  0  0  0  0  0  0
  136.0180   76.6500  222.9270 O   0  0  0  0  0  0  0  0  0  0  0  0
  138.0840   77.7940  222.7160 C   0  0  0  0  0  0  0  0  0  0  0  0
  137.6060   79.0280  223.1060 C   0  0  0  0  0  0  0  0  0  0  0  0
  138.4540   80.0660  223.4660 C   0  0  0  0  0  0  0  0  0  0  0  0
  139.8050   79.8380  223.4260 C   0  0  0  0  0  0  0  0  0  0  0  0
  140.6680   80.8440  223.7750 C   0  0  0  0  0  0  0  0  0  0  0  0
  142.0400   80.6150  223.7360 C   0  0  0  0  0  0  0  0  0  0  0  0
  142.8310   81.6450  224.0910 F   0  0  0  0  0  0  0  0  0  0  0  0
  142.4940   79.3870  223.3470 C   0  0  0  0  0  0  0  0  0  0  0  0
  141.6520   78.3380  222.9840 C   0  0  0  0  0  0  0  0  0  0  0  0
  140.2950   78.6010  223.0350 C   0  0  0  0  0  0  0  0  0  0  0  0
  139.4200   77.6300  222.6960 N   0  0  0  0  0  0  0  0  0  0  0  0
  140.2680   70.8360  225.5710 C   0  0  0  0  0  0  0  0  0  0  0  0
  141.0430   71.9040  225.9980 C   0  0  0  0  0  0  0  0  0  0  0  0
  141.3800   72.1000  227.3200 C   0  0  0  0  0  0  0  0  0  0  0  0
  140.9430   71.2150  228.2760 C   0  0  0  0  0  0  0  0  0  0  0  0
  140.1600   70.1250  227.8840 C   0  0  0  0  0  0  0  0  0  0  0  0
  139.8260   69.9380  226.5420 C   0  0  0  0  0  0  0  0  0  0  0  0
  138.5689   69.1689  224.9708 H   0  0  0  0  0  0  0  0  0  0  0  0
  138.0222   69.9015  223.4245 H   0  0  0  0  0  0  0  0  0  0  0  0
  139.3457   68.6870  223.4245 H   0  0  0  0  0  0  0  0  0  0  0  0
  140.8403   70.3428  223.6382 H   0  0  0  0  0  0  0  0  0  0  0  0
  138.4220   72.1210  223.8340 H   0  0  0  0  0  0  0  0  0  0  0  0
  138.7966   74.0615  222.6874 H   0  0  0  0  0  0  0  0  0  0  0  0
  140.0402   75.8571  221.6516 H   0  0  0  0  0  0  0  0  0  0  0  0
  141.1541   74.9311  222.7805 H   0  0  0  0  0  0  0  0  0  0  0  0
  141.8060   75.7390  220.3456 H   0  0  0  0  0  0  0  0  0  0  0  0
  142.4335   74.2359  221.2269 H   0  0  0  0  0  0  0  0  0  0  0  0
  141.5179   74.3550  218.6948 H   0  0  0  0  0  0  0  0  0  0  0  0
  141.6472   72.8967  219.8374 H   0  0  0  0  0  0  0  0  0  0  0  0
  139.3227   74.2872  218.7444 H   0  0  0  0  0  0  0  0  0  0  0  0
  139.6802   72.5246  219.1415 H   0  0  0  0  0  0  0  0  0  0  0  0
  136.0389   75.0273  220.0630 H   0  0  0  0  0  0  0  0  0  0  0  0
  135.9711   74.4150  221.7283 H   0  0  0  0  0  0  0  0  0  0  0  0
  138.4880   75.9260  220.8990 H   0  0  0  0  0  0  0  0  0  0  0  0
  136.5190   79.1944  223.1324 H   0  0  0  0  0  0  0  0  0  0  0  0
  138.0536   81.0430  223.7744 H   0  0  0  0  0  0  0  0  0  0  0  0
  140.2788   81.8254  224.0837 H   0  0  0  0  0  0  0  0  0  0  0  0
  143.5805   79.2174  223.3189 H   0  0  0  0  0  0  0  0  0  0  0  0
  142.0436   77.3577  222.6748 H   0  0  0  0  0  0  0  0  0  0  0  0
  141.4040   72.6252  225.2499 H   0  0  0  0  0  0  0  0  0  0  0  0
  141.9975   72.9631  227.6092 H   0  0  0  0  0  0  0  0  0  0  0  0
  141.2053   71.3619  229.3341 H   0  0  0  0  0  0  0  0  0  0  0  0
  139.8044   69.4090  228.6396 H   0  0  0  0  0  0  0  0  0  0  0  0
  139.2095   69.0758  226.2479 H   0  0  0  0  0  0  0  0  0  0  0  0
  1  2  1  0
  2  3  1  0
  3  4  1  0
  4  5  2  0
  4  6  1  0
  6  7  1  0
  7  8  1  0
  8  9  1  0
  9 10  1  0
 10 11  1  0
 11 12  1  0
 12 13  2  0
 12 14  1  0
 14 15  1  0
 15 16  1  0
 16 17  2  0
 16 18  1  0
 18 19  2  0
 19 20  1  0
 20 21  2  0
 21 22  1  0
 22 23  2  0
 23 24  1  0
 23 25  1  0
 25 26  2  0
 26 27  1  0
 27 28  2  0
  2 29  1  0
 29 30  2  0
 30 31  1  0
 31 32  2  0
 32 33  1  0
 33 34  2  0
 11  6  1  0
 28 18  1  0
 34 29  1  0
 27 21  1  0
  1 35  1  0
  1 36  1  0
  1 37  1  0
  2 38  1  6
  3 39  1  0
  6 40  1  1
  7 41  1  0
  7 42  1  0
  8 43  1  0
  8 44  1  0
  9 45  1  0
  9 46  1  0
 10 47  1  0
 10 48  1  0
 14 49  1  0
 14 50  1  0
 15 51  1  0
 19 52  1  0
 20 53  1  0
 22 54  1  0
 25 55  1  0
 26 56  1  0
 30 57  1  0
 31 58  1  0
 32 59  1  0
 33 60  1  0
 34 61  1  0
M  END
>  <smiles>  (92) 
C[C@@H](NC(=O)C1CCCCN1C(=O)CNC(=O)c1ccc2cc(F)ccc2n1)c1ccccc1

>  <score_type>  (92) 
oracle

>  <origin>  (92) 
autodockgpu

>  <m_score__min__energy>  (92) 
-9.5999999999999996

>  <m_primary>  (92) 
energy

>  <rmsd>  (92) 
9.000858056015247

>  <m_score__min__rmsd>  (92) 
9.000858056015247

>  <meeko>  (92) 
{"free_energy": -8.39, "intermolecular_energy": -10.48, "internal_energy": -2.37, "cluster_size": 2, "cluster_id": 4, "rank_in_cluster": 2}

>  <energy>  (92) 
-8.55

>  <cluster_rmsd>  (92) 
1.4

>  <cluster>  (92) 
2

$$$$

     RDKit          3D

 61 64  0  0  1  0  0  0  0  0999 V2000
  142.1310   79.5670  223.9700 C   0  0  0  0  0  0  0  0  0  0  0  0
  142.2040   79.1060  222.5350 C   0  0  1  0  0  0  0  0  0  0  0  0
  141.3390   77.9590  222.3760 N   0  0  0  0  0  0  0  0  0  0  0  0
  139.9250   78.0340  222.5270 C   0  0  0  0  0  0  0  0  0  0  0  0
  139.4270   79.1610  222.8150 O   0  0  0  0  0  0  0  0  0  0  0  0
  139.0440   76.8760  222.3650 C   0  0  1  0  0  0  0  0  0  0  0  0
  137.5830   77.2260  222.2420 C   0  0  0  0  0  0  0  0  0  0  0  0
  137.1870   77.7710  220.9260 C   0  0  0  0  0  0  0  0  0  0  0  0
  138.0470   77.4090  219.7680 C   0  0  0  0  0  0  0  0  0  0  0  0
  138.9630   76.2630  219.9370 C   0  0  0  0  0  0  0  0  0  0  0  0
  139.3550   75.9770  221.3020 N   0  0  0  0  0  0  0  0  0  0  0  0
  140.0650   74.7490  221.5120 C   0  0  0  0  0  0  0  0  0  0  0  0
  141.3000   74.8600  221.8080 O   0  0  0  0  0  0  0  0  0  0  0  0
  139.3910   73.4370  221.3900 C   0  0  0  0  0  0  0  0  0  0  0  0
  139.4950   72.7920  222.6920 N   0  0  0  0  0  0  0  0  0  0  0  0
  140.5230   71.8580  222.9970 C   0  0  0  0  0  0  0  0  0  0  0  0
  141.4080   71.5410  222.1320 O   0  0  0  0  0  0  0  0  0  0  0  0
  140.5640   71.2500  224.3290 C   0  0  0  0  0  0  0  0  0  0  0  0
  141.0260   71.9750  225.4080 C   0  0  0  0  0  0  0  0  0  0  0  0
  141.0810   71.4380  226.6860 C   0  0  0  0  0  0  0  0  0  0  0  0
  140.6590   70.1460  226.8610 C   0  0  0  0  0  0  0  0  0  0  0  0
  140.7020   69.5880  228.1120 C   0  0  0  0  0  0  0  0  0  0  0  0
  140.2730   68.2750  228.2930 C   0  0  0  0  0  0  0  0  0  0  0  0
  140.3410   67.7890  229.5460 F   0  0  0  0  0  0  0  0  0  0  0  0
  139.8190   67.5740  227.2120 C   0  0  0  0  0  0  0  0  0  0  0  0
  139.7590   68.1030  225.9260 C   0  0  0  0  0  0  0  0  0  0  0  0
  140.1930   69.4090  225.7830 C   0  0  0  0  0  0  0  0  0  0  0  0
  140.1630   69.9860  224.5630 N   0  0  0  0  0  0  0  0  0  0  0  0
  141.8640   80.1980  221.5860 C   0  0  0  0  0  0  0  0  0  0  0  0
  141.8230   80.0090  220.2130 C   0  0  0  0  0  0  0  0  0  0  0  0
  141.5080   81.0210  219.3300 C   0  0  0  0  0  0  0  0  0  0  0  0
  141.2180   82.2770  219.8060 C   0  0  0  0  0  0  0  0  0  0  0  0
  141.2500   82.5060  221.1840 C   0  0  0  0  0  0  0  0  0  0  0  0
  141.5700   81.4730  222.0660 C   0  0  0  0  0  0  0  0  0  0  0  0
  142.2675   78.7049  224.6395 H   0  0  0  0  0  0  0  0  0  0  0  0
  142.9232   80.3065  224.1583 H   0  0  0  0  0  0  0  0  0  0  0  0
  141.1490   80.0256  224.1583 H   0  0  0  0  0  0  0  0  0  0  0  0
  143.2375   78.8148  222.2961 H   0  0  0  0  0  0  0  0  0  0  0  0
  141.8020   77.0530  222.1370 H   0  0  0  0  0  0  0  0  0  0  0  0
  139.2420   76.3555  223.3136 H   0  0  0  0  0  0  0  0  0  0  0  0
  136.9956   76.3144  222.4262 H   0  0  0  0  0  0  0  0  0  0  0  0
  137.3909   78.0207  222.9779 H   0  0  0  0  0  0  0  0  0  0  0  0
  136.1691   77.4143  220.7099 H   0  0  0  0  0  0  0  0  0  0  0  0
  137.2793   78.8626  221.0251 H   0  0  0  0  0  0  0  0  0  0  0  0
  137.3826   77.1790  218.9221 H   0  0  0  0  0  0  0  0  0  0  0  0
  138.7056   78.2780  219.6227 H   0  0  0  0  0  0  0  0  0  0  0  0
  138.4663   75.3689  219.5321 H   0  0  0  0  0  0  0  0  0  0  0  0
  139.8878   76.5333  219.4063 H   0  0  0  0  0  0  0  0  0  0  0  0
  138.3341   73.5772  221.1194 H   0  0  0  0  0  0  0  0  0  0  0  0
  139.8575   72.8233  220.6053 H   0  0  0  0  0  0  0  0  0  0  0  0
  138.7950   73.0050  223.4640 H   0  0  0  0  0  0  0  0  0  0  0  0
  141.3611   73.0108  225.2501 H   0  0  0  0  0  0  0  0  0  0  0  0
  141.4525   72.0319  227.5341 H   0  0  0  0  0  0  0  0  0  0  0  0
  141.0725   70.1726  228.9669 H   0  0  0  0  0  0  0  0  0  0  0  0
  139.4835   66.5378  227.3659 H   0  0  0  0  0  0  0  0  0  0  0  0
  139.3879   67.5166  225.0725 H   0  0  0  0  0  0  0  0  0  0  0  0
  142.0511   79.0107  219.8112 H   0  0  0  0  0  0  0  0  0  0  0  0
  141.4890   80.8231  218.2481 H   0  0  0  0  0  0  0  0  0  0  0  0
  140.9641   83.0913  219.1115 H   0  0  0  0  0  0  0  0  0  0  0  0
  141.0213   83.5078  221.5765 H   0  0  0  0  0  0  0  0  0  0  0  0
  141.5904   81.6666  223.1486 H   0  0  0  0  0  0  0  0  0  0  0  0
  1  2  1  0
  2  3  1  0
  3  4  1  0
  4  5  2  0
  4  6  1  0
  6  7  1  0
  7  8  1  0
  8  9  1  0
  9 10  1  0
 10 11  1  0
 11 12  1  0
 12 13  2  0
 12 14  1  0
 14 15  1  0
 15 16  1  0
 16 17  2  0
 16 18  1  0
 18 19  2  0
 19 20  1  0
 20 21  2  0
 21 22  1  0
 22 23  2  0
 23 24  1  0
 23 25  1  0
 25 26  2  0
 26 27  1  0
 27 28  2  0
  2 29  1  0
 29 30  2  0
 30 31  1  0
 31 32  2  0
 32 33  1  0
 33 34  2  0
 11  6  1  0
 28 18  1  0
 34 29  1  0
 27 21  1  0
  1 35  1  0
  1 36  1  0
  1 37  1  0
  2 38  1  6
  3 39  1  0
  6 40  1  1
  7 41  1  0
  7 42  1  0
  8 43  1  0
  8 44  1  0
  9 45  1  0
  9 46  1  0
 10 47  1  0
 10 48  1  0
 14 49  1  0
 14 50  1  0
 15 51  1  0
 19 52  1  0
 20 53  1  0
 22 54  1  0
 25 55  1  0
 26 56  1  0
 30 57  1  0
 31 58  1  0
 32 59  1  0
 33 60  1  0
 34 61  1  0
M  END
>  <smiles>  (93) 
C[C@@H](NC(=O)C1CCCCN1C(=O)CNC(=O)c1ccc2cc(F)ccc2n1)c1ccccc1

>  <score_type>  (93) 
oracle

>  <origin>  (93) 
autodockgpu

>  <m_score__min__energy>  (93) 
-9.5999999999999996

>  <m_primary>  (93) 
energy

>  <rmsd>  (93) 
3.218249328261077

>  <m_score__min__rmsd>  (93) 
3.218249328261077

>  <meeko>  (93) 
{"free_energy": -9.08, "intermolecular_energy": -11.17, "internal_energy": -2.55, "cluster_size": 17, "cluster_id": 2, "rank_in_cluster": 5}

>  <energy>  (93) 
-8.49

>  <cluster_rmsd>  (93) 
0.98

>  <cluster>  (93) 
2

$$$$

     RDKit          3D

 61 64  0  0  1  0  0  0  0  0999 V2000
  141.8840   79.4120  224.1530 C   0  0  0  0  0  0  0  0  0  0  0  0
  142.0620   78.8610  222.7590 C   0  0  1  0  0  0  0  0  0  0  0  0
  141.1740   77.7320  222.5940 N   0  0  0  0  0  0  0  0  0  0  0  0
  139.7590   77.8400  222.7210 C   0  0  0  0  0  0  0  0  0  0  0  0
  139.2820   78.9800  222.9920 O   0  0  0  0  0  0  0  0  0  0  0  0
  138.8560   76.7000  222.5540 C   0  0  1  0  0  0  0  0  0  0  0  0
  137.3940   77.0690  222.5520 C   0  0  0  0  0  0  0  0  0  0  0  0
  136.9150   77.6930  221.3000 C   0  0  0  0  0  0  0  0  0  0  0  0
  137.6900   77.3930  220.0670 C   0  0  0  0  0  0  0  0  0  0  0  0
  138.6010   76.2310  220.1060 C   0  0  0  0  0  0  0  0  0  0  0  0
  139.0820   75.8620  221.4210 N   0  0  0  0  0  0  0  0  0  0  0  0
  139.7900   74.6190  221.5110 C   0  0  0  0  0  0  0  0  0  0  0  0
  141.0510   74.7030  221.6770 O   0  0  0  0  0  0  0  0  0  0  0  0
  139.0860   73.3200  221.4140 C   0  0  0  0  0  0  0  0  0  0  0  0
  139.2370   72.6670  222.7070 N   0  0  0  0  0  0  0  0  0  0  0  0
  140.4070   71.9370  223.0570 C   0  0  0  0  0  0  0  0  0  0  0  0
  141.3840   71.8220  222.2410 O   0  0  0  0  0  0  0  0  0  0  0  0
  140.4880   71.3070  224.3750 C   0  0  0  0  0  0  0  0  0  0  0  0
  141.0780   71.9750  225.4280 C   0  0  0  0  0  0  0  0  0  0  0  0
  141.1760   71.4150  226.6940 C   0  0  0  0  0  0  0  0  0  0  0  0
  140.6640   70.1570  226.8830 C   0  0  0  0  0  0  0  0  0  0  0  0
  140.7460   69.5770  228.1230 C   0  0  0  0  0  0  0  0  0  0  0  0
  140.2270   68.3010  228.3180 C   0  0  0  0  0  0  0  0  0  0  0  0
  140.3400   67.7900  229.5590 F   0  0  0  0  0  0  0  0  0  0  0  0
  139.6470   67.6550  227.2640 C   0  0  0  0  0  0  0  0  0  0  0  0
  139.5430   68.2080  225.9900 C   0  0  0  0  0  0  0  0  0  0  0  0
  140.0690   69.4770  225.8320 C   0  0  0  0  0  0  0  0  0  0  0  0
  140.0040   70.0750  224.6230 N   0  0  0  0  0  0  0  0  0  0  0  0
  141.8400   79.9010  221.7210 C   0  0  0  0  0  0  0  0  0  0  0  0
  141.6480   81.2390  222.0320 C   0  0  0  0  0  0  0  0  0  0  0  0
  141.4420   82.2060  221.0720 C   0  0  0  0  0  0  0  0  0  0  0  0
  141.4210   81.8560  219.7430 C   0  0  0  0  0  0  0  0  0  0  0  0
  141.6100   80.5160  219.3900 C   0  0  0  0  0  0  0  0  0  0  0  0
  141.8180   79.5480  220.3730 C   0  0  0  0  0  0  0  0  0  0  0  0
  142.1352   78.6345  224.8894 H   0  0  0  0  0  0  0  0  0  0  0  0
  142.5482   80.2776  224.2927 H   0  0  0  0  0  0  0  0  0  0  0  0
  140.8389   79.7255  224.2927 H   0  0  0  0  0  0  0  0  0  0  0  0
  143.1016   78.5261  222.6283 H   0  0  0  0  0  0  0  0  0  0  0  0
  141.6210   76.8140  222.3710 H   0  0  0  0  0  0  0  0  0  0  0  0
  139.1130   76.1230  223.4546 H   0  0  0  0  0  0  0  0  0  0  0  0
  136.8094   76.1531  222.7236 H   0  0  0  0  0  0  0  0  0  0  0  0
  137.2629   77.8215  223.3436 H   0  0  0  0  0  0  0  0  0  0  0  0
  135.8809   77.3568  221.1341 H   0  0  0  0  0  0  0  0  0  0  0  0
  137.0257   78.7763  221.4554 H   0  0  0  0  0  0  0  0  0  0  0  0
  136.9671   77.2192  219.2563 H   0  0  0  0  0  0  0  0  0  0  0  0
  138.3480   78.2635  219.9280 H   0  0  0  0  0  0  0  0  0  0  0  0
  138.0664   75.3665  219.6854 H   0  0  0  0  0  0  0  0  0  0  0  0
  139.4907   76.5243  219.5294 H   0  0  0  0  0  0  0  0  0  0  0  0
  138.0207   73.4813  221.1924 H   0  0  0  0  0  0  0  0  0  0  0  0
  139.5043   72.7016  220.6062 H   0  0  0  0  0  0  0  0  0  0  0  0
  138.4670   72.7180  223.4380 H   0  0  0  0  0  0  0  0  0  0  0  0
  141.4836   72.9834  225.2588 H   0  0  0  0  0  0  0  0  0  0  0  0
  141.6501   71.9638  227.5210 H   0  0  0  0  0  0  0  0  0  0  0  0
  141.2185   70.1165  228.9571 H   0  0  0  0  0  0  0  0  0  0  0  0
  139.2411   66.6461  227.4297 H   0  0  0  0  0  0  0  0  0  0  0  0
  139.0698   67.6666  225.1576 H   0  0  0  0  0  0  0  0  0  0  0  0
  141.6607   81.5410  223.0896 H   0  0  0  0  0  0  0  0  0  0  0  0
  141.2948   83.2550  221.3685 H   0  0  0  0  0  0  0  0  0  0  0  0
  141.2578   82.6192  218.9678 H   0  0  0  0  0  0  0  0  0  0  0  0
  141.5946   80.2232  218.3298 H   0  0  0  0  0  0  0  0  0  0  0  0
  141.9658   78.4976  220.0817 H   0  0  0  0  0  0  0  0  0  0  0  0
  1  2  1  0
  2  3  1  0
  3  4  1  0
  4  5  2  0
  4  6  1  0
  6  7  1  0
  7  8  1  0
  8  9  1  0
  9 10  1  0
 10 11  1  0
 11 12  1  0
 12 13  2  0
 12 14  1  0
 14 15  1  0
 15 16  1  0
 16 17  2  0
 16 18  1  0
 18 19  2  0
 19 20  1  0
 20 21  2  0
 21 22  1  0
 22 23  2  0
 23 24  1  0
 23 25  1  0
 25 26  2  0
 26 27  1  0
 27 28  2  0
  2 29  1  0
 29 30  2  0
 30 31  1  0
 31 32  2  0
 32 33  1  0
 33 34  2  0
 11  6  1  0
 28 18  1  0
 34 29  1  0
 27 21  1  0
  1 35  1  0
  1 36  1  0
  1 37  1  0
  2 38  1  1
  3 39  1  0
  6 40  1  1
  7 41  1  0
  7 42  1  0
  8 43  1  0
  8 44  1  0
  9 45  1  0
  9 46  1  0
 10 47  1  0
 10 48  1  0
 14 49  1  0
 14 50  1  0
 15 51  1  0
 19 52  1  0
 20 53  1  0
 22 54  1  0
 25 55  1  0
 26 56  1  0
 30 57  1  0
 31 58  1  0
 32 59  1  0
 33 60  1  0
 34 61  1  0
M  END
>  <smiles>  (94) 
C[C@@H](NC(=O)C1CCCCN1C(=O)CNC(=O)c1ccc2cc(F)ccc2n1)c1ccccc1

>  <score_type>  (94) 
oracle

>  <origin>  (94) 
autodockgpu

>  <m_score__min__energy>  (94) 
-9.5999999999999996

>  <m_primary>  (94) 
energy

>  <rmsd>  (94) 
3.235342606250559

>  <m_score__min__rmsd>  (94) 
3.235342606250559

>  <meeko>  (94) 
{"free_energy": -8.96, "intermolecular_energy": -11.05, "internal_energy": -2.54, "cluster_size": 17, "cluster_id": 2, "rank_in_cluster": 12}

>  <energy>  (94) 
-8.77

>  <cluster_rmsd>  (94) 
0.0

>  <cluster>  (94) 
3

$$$$

     RDKit          3D

 61 64  0  0  1  0  0  0  0  0999 V2000
  138.1900   79.4970  222.5250 C   0  0  0  0  0  0  0  0  0  0  0  0
  139.2930   78.6640  223.1310 C   0  0  1  0  0  0  0  0  0  0  0  0
  139.4540   77.4660  222.3370 N   0  0  0  0  0  0  0  0  0  0  0  0
  139.7660   77.4990  220.9480 C   0  0  0  0  0  0  0  0  0  0  0  0
  139.9030   78.6350  220.4060 O   0  0  0  0  0  0  0  0  0  0  0  0
  139.9320   76.2890  220.1410 C   0  0  1  0  0  0  0  0  0  0  0  0
  140.2930   76.5550  218.7010 C   0  0  0  0  0  0  0  0  0  0  0  0
  141.7000   76.9520  218.4800 C   0  0  0  0  0  0  0  0  0  0  0  0
  142.6830   76.5230  219.5100 C   0  0  0  0  0  0  0  0  0  0  0  0
  142.2730   75.4440  220.4310 C   0  0  0  0  0  0  0  0  0  0  0  0
  140.8450   75.3090  220.6320 N   0  0  0  0  0  0  0  0  0  0  0  0
  140.4140   74.1430  221.3470 C   0  0  0  0  0  0  0  0  0  0  0  0
  139.6700   74.3510  222.3610 O   0  0  0  0  0  0  0  0  0  0  0  0
  140.8160   72.7840  220.9210 C   0  0  0  0  0  0  0  0  0  0  0  0
  140.8240   71.9560  222.1190 N   0  0  0  0  0  0  0  0  0  0  0  0
  139.6410   71.3600  222.6370 C   0  0  0  0  0  0  0  0  0  0  0  0
  138.5100   71.5290  222.0680 O   0  0  0  0  0  0  0  0  0  0  0  0
  139.7260   70.5390  223.8470 C   0  0  0  0  0  0  0  0  0  0  0  0
  139.1810   69.2720  223.8650 C   0  0  0  0  0  0  0  0  0  0  0  0
  139.2390   68.4610  224.9900 C   0  0  0  0  0  0  0  0  0  0  0  0
  139.8620   68.9540  226.1070 C   0  0  0  0  0  0  0  0  0  0  0  0
  139.9350   68.1760  227.2340 C   0  0  0  0  0  0  0  0  0  0  0  0
  140.5660   68.6730  228.3700 C   0  0  0  0  0  0  0  0  0  0  0  0
  140.6030   67.8590  229.4420 F   0  0  0  0  0  0  0  0  0  0  0  0
  141.0990   69.9300  228.3330 C   0  0  0  0  0  0  0  0  0  0  0  0
  141.0470   70.7520  227.2100 C   0  0  0  0  0  0  0  0  0  0  0  0
  140.4120   70.2260  226.1000 C   0  0  0  0  0  0  0  0  0  0  0  0
  140.3230   70.9680  224.9750 N   0  0  0  0  0  0  0  0  0  0  0  0
  140.5610   79.4290  223.2500 C   0  0  0  0  0  0  0  0  0  0  0  0
  140.5990   80.7600  223.6370 C   0  0  0  0  0  0  0  0  0  0  0  0
  141.7740   81.4720  223.7480 C   0  0  0  0  0  0  0  0  0  0  0  0
  142.9730   80.8600  223.4690 C   0  0  0  0  0  0  0  0  0  0  0  0
  142.9760   79.5190  223.0750 C   0  0  0  0  0  0  0  0  0  0  0  0
  141.7780   78.8100  222.9670 C   0  0  0  0  0  0  0  0  0  0  0  0
  137.5897   79.9503  223.3276 H   0  0  0  0  0  0  0  0  0  0  0  0
  138.6295   80.2906  221.9029 H   0  0  0  0  0  0  0  0  0  0  0  0
  137.5469   78.8572  221.9029 H   0  0  0  0  0  0  0  0  0  0  0  0
  139.0170   78.3826  224.1579 H   0  0  0  0  0  0  0  0  0  0  0  0
  139.3310   76.5560  222.8350 H   0  0  0  0  0  0  0  0  0  0  0  0
  138.9177   75.8706  220.2196 H   0  0  0  0  0  0  0  0  0  0  0  0
  140.1012   75.6379  218.1246 H   0  0  0  0  0  0  0  0  0  0  0  0
  139.6756   77.4062  218.3781 H   0  0  0  0  0  0  0  0  0  0  0  0
  142.0192   76.5272  217.5168 H   0  0  0  0  0  0  0  0  0  0  0  0
  141.7005   78.0513  218.5190 H   0  0  0  0  0  0  0  0  0  0  0  0
  143.5861   76.1817  218.9827 H   0  0  0  0  0  0  0  0  0  0  0  0
  142.8210   77.4050  220.1527 H   0  0  0  0  0  0  0  0  0  0  0  0
  142.6507   74.4924  220.0287 H   0  0  0  0  0  0  0  0  0  0  0  0
  142.6941   75.7066  221.4127 H   0  0  0  0  0  0  0  0  0  0  0  0
  140.0958   72.3870  220.1904 H   0  0  0  0  0  0  0  0  0  0  0  0
  141.8058   72.7959  220.4413 H   0  0  0  0  0  0  0  0  0  0  0  0
  141.7270   71.7690  222.6480 H   0  0  0  0  0  0  0  0  0  0  0  0
  138.6849   68.8925  222.9596 H   0  0  0  0  0  0  0  0  0  0  0  0
  138.7983   67.4531  224.9853 H   0  0  0  0  0  0  0  0  0  0  0  0
  139.4979   67.1666  227.2397 H   0  0  0  0  0  0  0  0  0  0  0  0
  141.5950   70.3129  229.2370 H   0  0  0  0  0  0  0  0  0  0  0  0
  141.4855   71.7608  227.2062 H   0  0  0  0  0  0  0  0  0  0  0  0
  139.6511   81.2693  223.8651 H   0  0  0  0  0  0  0  0  0  0  0  0
  141.7524   82.5269  224.0590 H   0  0  0  0  0  0  0  0  0  0  0  0
  143.9171   81.4181  223.5547 H   0  0  0  0  0  0  0  0  0  0  0  0
  143.9290   79.0186  222.8484 H   0  0  0  0  0  0  0  0  0  0  0  0
  141.7944   77.7549  222.6562 H   0  0  0  0  0  0  0  0  0  0  0  0
  1  2  1  0
  2  3  1  0
  3  4  1  0
  4  5  2  0
  4  6  1  0
  6  7  1  0
  7  8  1  0
  8  9  1  0
  9 10  1  0
 10 11  1  0
 11 12  1  0
 12 13  2  0
 12 14  1  0
 14 15  1  0
 15 16  1  0
 16 17  2  0
 16 18  1  0
 18 19  2  0
 19 20  1  0
 20 21  2  0
 21 22  1  0
 22 23  2  0
 23 24  1  0
 23 25  1  0
 25 26  2  0
 26 27  1  0
 27 28  2  0
  2 29  1  0
 29 30  2  0
 30 31  1  0
 31 32  2  0
 32 33  1  0
 33 34  2  0
 11  6  1  0
 28 18  1  0
 34 29  1  0
 27 21  1  0
  1 35  1  0
  1 36  1  0
  1 37  1  0
  2 38  1  1
  3 39  1  0
  6 40  1  6
  7 41  1  0
  7 42  1  0
  8 43  1  0
  8 44  1  0
  9 45  1  0
  9 46  1  0
 10 47  1  0
 10 48  1  0
 14 49  1  0
 14 50  1  0
 15 51  1  0
 19 52  1  0
 20 53  1  0
 22 54  1  0
 25 55  1  0
 26 56  1  0
 30 57  1  0
 31 58  1  0
 32 59  1  0
 33 60  1  0
 34 61  1  0
M  END
>  <smiles>  (95) 
C[C@@H](NC(=O)C1CCCCN1C(=O)CNC(=O)c1ccc2cc(F)ccc2n1)c1ccccc1

>  <score_type>  (95) 
oracle

>  <origin>  (95) 
autodockgpu

>  <m_score__min__energy>  (95) 
-9.5999999999999996

>  <m_primary>  (95) 
energy

>  <rmsd>  (95) 
2.830979435691466

>  <m_score__min__rmsd>  (95) 
2.830979435691466

>  <meeko>  (95) 
{"free_energy": -9.04, "intermolecular_energy": -11.12, "internal_energy": -2.56, "cluster_size": 26, "cluster_id": 1, "rank_in_cluster": 5}

>  <energy>  (95) 
-8.65

>  <cluster_rmsd>  (95) 
1.03

>  <cluster>  (95) 
3

$$$$

     RDKit          3D

 61 64  0  0  1  0  0  0  0  0999 V2000
  141.6220   79.6170  223.6180 C   0  0  0  0  0  0  0  0  0  0  0  0
  142.2400   79.7160  222.2450 C   0  0  1  0  0  0  0  0  0  0  0  0
  141.9360   78.5060  221.5150 N   0  0  0  0  0  0  0  0  0  0  0  0
  140.6240   78.1890  221.0620 C   0  0  0  0  0  0  0  0  0  0  0  0
  139.7000   79.0150  221.3210 O   0  0  0  0  0  0  0  0  0  0  0  0
  140.3110   76.9650  220.3210 C   0  0  1  0  0  0  0  0  0  0  0  0
  140.7230   77.0010  218.8710 C   0  0  0  0  0  0  0  0  0  0  0  0
  142.1720   76.8310  218.6350 C   0  0  0  0  0  0  0  0  0  0  0  0
  142.9400   76.1190  219.6910 C   0  0  0  0  0  0  0  0  0  0  0  0
  142.1710   75.3210  220.6670 C   0  0  0  0  0  0  0  0  0  0  0  0
  140.7990   75.7410  220.8690 N   0  0  0  0  0  0  0  0  0  0  0  0
  139.9750   74.8600  221.6430 C   0  0  0  0  0  0  0  0  0  0  0  0
  139.4710   75.3530  222.7050 O   0  0  0  0  0  0  0  0  0  0  0  0
  139.7310   73.4620  221.2230 C   0  0  0  0  0  0  0  0  0  0  0  0
  139.7170   72.6570  222.4370 N   0  0  0  0  0  0  0  0  0  0  0  0
  139.8860   71.2450  222.4130 C   0  0  0  0  0  0  0  0  0  0  0  0
  140.0570   70.6170  221.3140 O   0  0  0  0  0  0  0  0  0  0  0  0
  139.8620   70.5020  223.6740 C   0  0  0  0  0  0  0  0  0  0  0  0
  139.2440   69.2700  223.7420 C   0  0  0  0  0  0  0  0  0  0  0  0
  139.1990   68.5330  224.9170 C   0  0  0  0  0  0  0  0  0  0  0  0
  139.7900   69.0620  226.0330 C   0  0  0  0  0  0  0  0  0  0  0  0
  139.7610   68.3570  227.2090 C   0  0  0  0  0  0  0  0  0  0  0  0
  140.3610   68.8930  228.3450 C   0  0  0  0  0  0  0  0  0  0  0  0
  140.2960   68.1490  229.4650 F   0  0  0  0  0  0  0  0  0  0  0  0
  140.9670   70.1140  228.2580 C   0  0  0  0  0  0  0  0  0  0  0  0
  141.0190   70.8620  227.0850 C   0  0  0  0  0  0  0  0  0  0  0  0
  140.4130   70.3000  225.9770 C   0  0  0  0  0  0  0  0  0  0  0  0
  140.4250   70.9700  224.8040 N   0  0  0  0  0  0  0  0  0  0  0  0
  141.7870   80.9330  221.5210 C   0  0  0  0  0  0  0  0  0  0  0  0
  141.8560   81.0510  220.1420 C   0  0  0  0  0  0  0  0  0  0  0  0
  141.4370   82.1790  219.4680 C   0  0  0  0  0  0  0  0  0  0  0  0
  140.9240   83.2430  220.1700 C   0  0  0  0  0  0  0  0  0  0  0  0
  140.8390   83.1610  221.5630 C   0  0  0  0  0  0  0  0  0  0  0  0
  141.2670   82.0140  222.2320 C   0  0  0  0  0  0  0  0  0  0  0  0
  142.4036   79.7422  224.3818 H   0  0  0  0  0  0  0  0  0  0  0  0
  140.8639   80.4051  223.7365 H   0  0  0  0  0  0  0  0  0  0  0  0
  141.1480   78.6315  223.7365 H   0  0  0  0  0  0  0  0  0  0  0  0
  143.3312   79.8153  222.3419 H   0  0  0  0  0  0  0  0  0  0  0  0
  142.7360   77.8600  221.3270 H   0  0  0  0  0  0  0  0  0  0  0  0
  139.2151   76.9625  220.4158 H   0  0  0  0  0  0  0  0  0  0  0  0
  140.1933   76.1935  218.3444 H   0  0  0  0  0  0  0  0  0  0  0  0
  140.4639   78.0035  218.4998 H   0  0  0  0  0  0  0  0  0  0  0  0
  142.2936   76.2687  217.6975 H   0  0  0  0  0  0  0  0  0  0  0  0
  142.5840   77.8507  218.6147 H   0  0  0  0  0  0  0  0  0  0  0  0
  143.6413   75.4378  219.1868 H   0  0  0  0  0  0  0  0  0  0  0  0
  143.4084   76.9171  220.2857 H   0  0  0  0  0  0  0  0  0  0  0  0
  142.1588   74.2779  220.3182 H   0  0  0  0  0  0  0  0  0  0  0  0
  142.6756   75.4573  221.6349 H   0  0  0  0  0  0  0  0  0  0  0  0
  138.7633   73.3849  220.7057 H   0  0  0  0  0  0  0  0  0  0  0  0
  140.5098   73.1159  220.5276 H   0  0  0  0  0  0  0  0  0  0  0  0
  139.5800   73.1080  223.3890 H   0  0  0  0  0  0  0  0  0  0  0  0
  138.7725   68.8595  222.8369 H   0  0  0  0  0  0  0  0  0  0  0  0
  138.7027   67.5519  224.9508 H   0  0  0  0  0  0  0  0  0  0  0  0
  139.2672   67.3751  227.2542 H   0  0  0  0  0  0  0  0  0  0  0  0
  141.4384   70.5278  229.1616 H   0  0  0  0  0  0  0  0  0  0  0  0
  141.5137   71.8435  227.0424 H   0  0  0  0  0  0  0  0  0  0  0  0
  142.2619   80.2100  219.5607 H   0  0  0  0  0  0  0  0  0  0  0  0
  141.5133   82.2267  218.3717 H   0  0  0  0  0  0  0  0  0  0  0  0
  140.5848   84.1470  219.6431 H   0  0  0  0  0  0  0  0  0  0  0  0
  140.4317   84.0071  222.1358 H   0  0  0  0  0  0  0  0  0  0  0  0
  141.1937   81.9620  223.3283 H   0  0  0  0  0  0  0  0  0  0  0  0
  1  2  1  0
  2  3  1  0
  3  4  1  0
  4  5  2  0
  4  6  1  0
  6  7  1  0
  7  8  1  0
  8  9  1  0
  9 10  1  0
 10 11  1  0
 11 12  1  0
 12 13  2  0
 12 14  1  0
 14 15  1  0
 15 16  1  0
 16 17  2  0
 16 18  1  0
 18 19  2  0
 19 20  1  0
 20 21  2  0
 21 22  1  0
 22 23  2  0
 23 24  1  0
 23 25  1  0
 25 26  2  0
 26 27  1  0
 27 28  2  0
  2 29  1  0
 29 30  2  0
 30 31  1  0
 31 32  2  0
 32 33  1  0
 33 34  2  0
 11  6  1  0
 28 18  1  0
 34 29  1  0
 27 21  1  0
  1 35  1  0
  1 36  1  0
  1 37  1  0
  2 38  1  1
  3 39  1  0
  6 40  1  6
  7 41  1  0
  7 42  1  0
  8 43  1  0
  8 44  1  0
  9 45  1  0
  9 46  1  0
 10 47  1  0
 10 48  1  0
 14 49  1  0
 14 50  1  0
 15 51  1  0
 19 52  1  0
 20 53  1  0
 22 54  1  0
 25 55  1  0
 26 56  1  0
 30 57  1  0
 31 58  1  0
 32 59  1  0
 33 60  1  0
 34 61  1  0
M  END
>  <smiles>  (96) 
C[C@@H](NC(=O)C1CCCCN1C(=O)CNC(=O)c1ccc2cc(F)ccc2n1)c1ccccc1

>  <score_type>  (96) 
oracle

>  <origin>  (96) 
autodockgpu

>  <m_score__min__energy>  (96) 
-9.5999999999999996

>  <m_primary>  (96) 
energy

>  <rmsd>  (96) 
2.071449238526623

>  <m_score__min__rmsd>  (96) 
2.071449238526623

>  <meeko>  (96) 
{"free_energy": -9.21, "intermolecular_energy": -11.29, "internal_energy": -2.41, "cluster_size": 17, "cluster_id": 2, "rank_in_cluster": 1}

>  <energy>  (96) 
-8.66

>  <cluster_rmsd>  (96) 
0.0

>  <cluster>  (96) 
4

$$$$

     RDKit          3D

 61 64  0  0  1  0  0  0  0  0999 V2000
  138.8440   76.9850  222.6160 C   0  0  0  0  0  0  0  0  0  0  0  0
  140.3490   77.0590  222.7030 C   0  0  1  0  0  0  0  0  0  0  0  0
  140.9110   76.2950  221.6110 N   0  0  0  0  0  0  0  0  0  0  0  0
  140.4270   76.3910  220.2750 C   0  0  0  0  0  0  0  0  0  0  0  0
  139.4640   77.1820  220.0570 O   0  0  0  0  0  0  0  0  0  0  0  0
  140.9940   75.6200  219.1670 C   0  0  1  0  0  0  0  0  0  0  0  0
  141.5670   76.4670  218.0580 C   0  0  0  0  0  0  0  0  0  0  0  0
  142.8770   77.0810  218.3640 C   0  0  0  0  0  0  0  0  0  0  0  0
  143.7070   76.4040  219.3950 C   0  0  0  0  0  0  0  0  0  0  0  0
  143.3570   75.0110  219.7380 C   0  0  0  0  0  0  0  0  0  0  0  0
  141.9760   74.6410  219.5020 N   0  0  0  0  0  0  0  0  0  0  0  0
  141.6650   73.2470  219.6240 C   0  0  0  0  0  0  0  0  0  0  0  0
  142.6610   72.4560  219.7070 O   0  0  0  0  0  0  0  0  0  0  0  0
  140.2640   72.7680  219.6510 C   0  0  0  0  0  0  0  0  0  0  0  0
  140.1130   71.9900  220.8730 N   0  0  0  0  0  0  0  0  0  0  0  0
  140.3300   72.5520  222.1620 C   0  0  0  0  0  0  0  0  0  0  0  0
  140.6710   73.7750  222.3020 O   0  0  0  0  0  0  0  0  0  0  0  0
  140.1580   71.7090  223.3460 C   0  0  0  0  0  0  0  0  0  0  0  0
  139.4270   70.5420  223.2670 C   0  0  0  0  0  0  0  0  0  0  0  0
  139.2410   69.7140  224.3650 C   0  0  0  0  0  0  0  0  0  0  0  0
  139.8070   70.0860  225.5560 C   0  0  0  0  0  0  0  0  0  0  0  0
  139.6400   69.2880  226.6580 C   0  0  0  0  0  0  0  0  0  0  0  0
  140.2140   69.6630  227.8700 C   0  0  0  0  0  0  0  0  0  0  0  0
  140.0110   68.8350  228.9120 F   0  0  0  0  0  0  0  0  0  0  0  0
  140.9340   70.8220  227.9280 C   0  0  0  0  0  0  0  0  0  0  0  0
  141.1280   71.6600  226.8330 C   0  0  0  0  0  0  0  0  0  0  0  0
  140.5430   71.2570  225.6470 C   0  0  0  0  0  0  0  0  0  0  0  0
  140.6900   72.0220  224.5430 N   0  0  0  0  0  0  0  0  0  0  0  0
  140.8330   78.4640  222.7080 C   0  0  0  0  0  0  0  0  0  0  0  0
  140.2010   79.4710  223.4220 C   0  0  0  0  0  0  0  0  0  0  0  0
  140.6470   80.7750  223.4270 C   0  0  0  0  0  0  0  0  0  0  0  0
  141.7650   81.1180  222.7040 C   0  0  0  0  0  0  0  0  0  0  0  0
  142.4290   80.1300  221.9710 C   0  0  0  0  0  0  0  0  0  0  0  0
  141.9660   78.8140  221.9740 C   0  0  0  0  0  0  0  0  0  0  0  0
  138.4187   76.9641  223.6302 H   0  0  0  0  0  0  0  0  0  0  0  0
  138.4641   77.8656  222.0772 H   0  0  0  0  0  0  0  0  0  0  0  0
  138.5523   76.0714  222.0772 H   0  0  0  0  0  0  0  0  0  0  0  0
  140.6825   76.6249  223.6571 H   0  0  0  0  0  0  0  0  0  0  0  0
  141.7040   75.6580  221.8470 H   0  0  0  0  0  0  0  0  0  0  0  0
  140.0928   75.0883  218.8276 H   0  0  0  0  0  0  0  0  0  0  0  0
  141.6858   75.8317  217.1679 H   0  0  0  0  0  0  0  0  0  0  0  0
  140.8623   77.2977  217.9054 H   0  0  0  0  0  0  0  0  0  0  0  0
  143.4593   77.1063  217.4311 H   0  0  0  0  0  0  0  0  0  0  0  0
  142.6417   78.0694  218.7855 H   0  0  0  0  0  0  0  0  0  0  0  0
  144.7465   76.4046  219.0352 H   0  0  0  0  0  0  0  0  0  0  0  0
  143.5317   76.9751  220.3187 H   0  0  0  0  0  0  0  0  0  0  0  0
  143.9942   74.3437  219.1391 H   0  0  0  0  0  0  0  0  0  0  0  0
  143.5148   74.9171  220.8226 H   0  0  0  0  0  0  0  0  0  0  0  0
  139.5710   73.6222  219.6570 H   0  0  0  0  0  0  0  0  0  0  0  0
  140.0358   72.1599  218.7632 H   0  0  0  0  0  0  0  0  0  0  0  0
  139.8310   70.9660  220.8380 H   0  0  0  0  0  0  0  0  0  0  0  0
  138.9775   70.2589  222.3038 H   0  0  0  0  0  0  0  0  0  0  0  0
  138.6562   68.7861  224.2816 H   0  0  0  0  0  0  0  0  0  0  0  0
  139.0568   68.3582  226.5854 H   0  0  0  0  0  0  0  0  0  0  0  0
  141.3842   71.1085  228.8899 H   0  0  0  0  0  0  0  0  0  0  0  0
  141.7128   72.5887  226.9073 H   0  0  0  0  0  0  0  0  0  0  0  0
  139.3058   79.2182  224.0092 H   0  0  0  0  0  0  0  0  0  0  0  0
  140.1100   81.5393  224.0079 H   0  0  0  0  0  0  0  0  0  0  0  0
  142.1318   82.1550  222.7023 H   0  0  0  0  0  0  0  0  0  0  0  0
  143.3236   80.3923  221.3872 H   0  0  0  0  0  0  0  0  0  0  0  0
  142.4986   78.0466  221.3931 H   0  0  0  0  0  0  0  0  0  0  0  0
  1  2  1  0
  2  3  1  0
  3  4  1  0
  4  5  2  0
  4  6  1  0
  6  7  1  0
  7  8  1  0
  8  9  1  0
  9 10  1  0
 10 11  1  0
 11 12  1  0
 12 13  2  0
 12 14  1  0
 14 15  1  0
 15 16  1  0
 16 17  2  0
 16 18  1  0
 18 19  2  0
 19 20  1  0
 20 21  2  0
 21 22  1  0
 22 23  2  0
 23 24  1  0
 23 25  1  0
 25 26  2  0
 26 27  1  0
 27 28  2  0
  2 29  1  0
 29 30  2  0
 30 31  1  0
 31 32  2  0
 32 33  1  0
 33 34  2  0
 11  6  1  0
 28 18  1  0
 34 29  1  0
 27 21  1  0
  1 35  1  0
  1 36  1  0
  1 37  1  0
  2 38  1  1
  3 39  1  0
  6 40  1  6
  7 41  1  0
  7 42  1  0
  8 43  1  0
  8 44  1  0
  9 45  1  0
  9 46  1  0
 10 47  1  0
 10 48  1  0
 14 49  1  0
 14 50  1  0
 15 51  1  0
 19 52  1  0
 20 53  1  0
 22 54  1  0
 25 55  1  0
 26 56  1  0
 30 57  1  0
 31 58  1  0
 32 59  1  0
 33 60  1  0
 34 61  1  0
M  END
>  <smiles>  (97) 
C[C@@H](NC(=O)C1CCCCN1C(=O)CNC(=O)c1ccc2cc(F)ccc2n1)c1ccccc1

>  <score_type>  (97) 
oracle

>  <origin>  (97) 
autodockgpu

>  <m_score__min__energy>  (97) 
-9.5999999999999996

>  <m_primary>  (97) 
energy

>  <rmsd>  (97) 
2.887114903689124

>  <m_score__min__rmsd>  (97) 
2.887114903689124

>  <meeko>  (97) 
{"free_energy": -8.9, "intermolecular_energy": -10.99, "internal_energy": -2.82, "cluster_size": 26, "cluster_id": 1, "rank_in_cluster": 9}

>  <energy>  (97) 
-8.39

>  <cluster_rmsd>  (97) 
1.53

>  <cluster>  (97) 
4

$$$$

     RDKit          3D

 61 64  0  0  1  0  0  0  0  0999 V2000
  142.1830   79.5270  224.0680 C   0  0  0  0  0  0  0  0  0  0  0  0
  142.1910   79.0100  222.6510 C   0  0  1  0  0  0  0  0  0  0  0  0
  141.2450   77.9210  222.5520 N   0  0  0  0  0  0  0  0  0  0  0  0
  139.8410   78.1060  222.7090 C   0  0  0  0  0  0  0  0  0  0  0  0
  139.4280   79.2780  222.9450 O   0  0  0  0  0  0  0  0  0  0  0  0
  138.8780   77.0070  222.6100 C   0  0  1  0  0  0  0  0  0  0  0  0
  137.4420   77.4550  222.5130 C   0  0  0  0  0  0  0  0  0  0  0  0
  137.0470   77.9840  221.1900 C   0  0  0  0  0  0  0  0  0  0  0  0
  137.8470   77.5260  220.0230 C   0  0  0  0  0  0  0  0  0  0  0  0
  138.6860   76.3240  220.2060 C   0  0  0  0  0  0  0  0  0  0  0  0
  139.0960   76.0550  221.5690 N   0  0  0  0  0  0  0  0  0  0  0  0
  139.7250   74.7880  221.8020 C   0  0  0  0  0  0  0  0  0  0  0  0
  140.9300   74.8290  222.2160 O   0  0  0  0  0  0  0  0  0  0  0  0
  139.0070   73.5150  221.5720 C   0  0  0  0  0  0  0  0  0  0  0  0
  139.3190   72.6490  222.7010 N   0  0  0  0  0  0  0  0  0  0  0  0
  138.8570   71.3060  222.7780 C   0  0  0  0  0  0  0  0  0  0  0  0
  138.1400   70.7980  221.8510 O   0  0  0  0  0  0  0  0  0  0  0  0
  139.2120   70.4950  223.9430 C   0  0  0  0  0  0  0  0  0  0  0  0
  138.9310   69.1440  223.9600 C   0  0  0  0  0  0  0  0  0  0  0  0
  139.2510   68.3390  225.0450 C   0  0  0  0  0  0  0  0  0  0  0  0
  139.8640   68.9230  226.1220 C   0  0  0  0  0  0  0  0  0  0  0  0
  140.1910   68.1530  227.2080 C   0  0  0  0  0  0  0  0  0  0  0  0
  140.8140   68.7430  228.3050 C   0  0  0  0  0  0  0  0  0  0  0  0
  141.1090   67.9310  229.3370 F   0  0  0  0  0  0  0  0  0  0  0  0
  141.0840   70.0820  228.2690 C   0  0  0  0  0  0  0  0  0  0  0  0
  140.7680   70.8990  227.1870 C   0  0  0  0  0  0  0  0  0  0  0  0
  140.1500   70.2790  226.1160 C   0  0  0  0  0  0  0  0  0  0  0  0
  139.8150   71.0110  225.0310 N   0  0  0  0  0  0  0  0  0  0  0  0
  141.9060   80.0870  221.6670 C   0  0  0  0  0  0  0  0  0  0  0  0
  141.8440   79.8560  220.3010 C   0  0  0  0  0  0  0  0  0  0  0  0
  141.5810   80.8540  219.3870 C   0  0  0  0  0  0  0  0  0  0  0  0
  141.3660   82.1400  219.8210 C   0  0  0  0  0  0  0  0  0  0  0  0
  141.4210   82.4120  221.1910 C   0  0  0  0  0  0  0  0  0  0  0  0
  141.6890   81.3930  222.1060 C   0  0  0  0  0  0  0  0  0  0  0  0
  142.1961   78.6785  224.7679 H   0  0  0  0  0  0  0  0  0  0  0  0
  143.0716   80.1536  224.2347 H   0  0  0  0  0  0  0  0  0  0  0  0
  141.2755   80.1259  224.2347 H   0  0  0  0  0  0  0  0  0  0  0  0
  143.1967   78.6389  222.4042 H   0  0  0  0  0  0  0  0  0  0  0  0
  141.6400   76.9750  222.3560 H   0  0  0  0  0  0  0  0  0  0  0  0
  139.0663   76.5038  223.5699 H   0  0  0  0  0  0  0  0  0  0  0  0
  136.7981   76.5934  222.7435 H   0  0  0  0  0  0  0  0  0  0  0  0
  137.3270   78.2848  223.2259 H   0  0  0  0  0  0  0  0  0  0  0  0
  136.0013   77.6922  221.0128 H   0  0  0  0  0  0  0  0  0  0  0  0
  137.2166   79.0692  221.2495 H   0  0  0  0  0  0  0  0  0  0  0  0
  137.1447   77.3168  219.2026 H   0  0  0  0  0  0  0  0  0  0  0  0
  138.5601   78.3415  219.8322 H   0  0  0  0  0  0  0  0  0  0  0  0
  138.1171   75.4546  219.8447 H   0  0  0  0  0  0  0  0  0  0  0  0
  139.6117   76.5114  219.6421 H   0  0  0  0  0  0  0  0  0  0  0  0
  137.9231   73.6950  221.5204 H   0  0  0  0  0  0  0  0  0  0  0  0
  139.3144   73.0532  220.6221 H   0  0  0  0  0  0  0  0  0  0  0  0
  139.9110   73.0000  223.5100 H   0  0  0  0  0  0  0  0  0  0  0  0
  138.4383   68.6910  223.0871 H   0  0  0  0  0  0  0  0  0  0  0  0
  139.0191   67.2637  225.0400 H   0  0  0  0  0  0  0  0  0  0  0  0
  139.9630   67.0769  227.2129 H   0  0  0  0  0  0  0  0  0  0  0  0
  141.5767   70.5381  229.1403 H   0  0  0  0  0  0  0  0  0  0  0  0
  140.9965   71.9750  227.1839 H   0  0  0  0  0  0  0  0  0  0  0  0
  142.0117   78.8337  219.9313 H   0  0  0  0  0  0  0  0  0  0  0  0
  141.5433   80.6214  218.3125 H   0  0  0  0  0  0  0  0  0  0  0  0
  141.1537   82.9438  219.1007 H   0  0  0  0  0  0  0  0  0  0  0  0
  141.2517   83.4376  221.5508 H   0  0  0  0  0  0  0  0  0  0  0  0
  141.7294   81.6214  223.1813 H   0  0  0  0  0  0  0  0  0  0  0  0
  1  2  1  0
  2  3  1  0
  3  4  1  0
  4  5  2  0
  4  6  1  0
  6  7  1  0
  7  8  1  0
  8  9  1  0
  9 10  1  0
 10 11  1  0
 11 12  1  0
 12 13  2  0
 12 14  1  0
 14 15  1  0
 15 16  1  0
 16 17  2  0
 16 18  1  0
 18 19  2  0
 19 20  1  0
 20 21  2  0
 21 22  1  0
 22 23  2  0
 23 24  1  0
 23 25  1  0
 25 26  2  0
 26 27  1  0
 27 28  2  0
  2 29  1  0
 29 30  2  0
 30 31  1  0
 31 32  2  0
 32 33  1  0
 33 34  2  0
 11  6  1  0
 28 18  1  0
 34 29  1  0
 27 21  1  0
  1 35  1  0
  1 36  1  0
  1 37  1  0
  2 38  1  6
  3 39  1  0
  6 40  1  1
  7 41  1  0
  7 42  1  0
  8 43  1  0
  8 44  1  0
  9 45  1  0
  9 46  1  0
 10 47  1  0
 10 48  1  0
 14 49  1  0
 14 50  1  0
 15 51  1  0
 19 52  1  0
 20 53  1  0
 22 54  1  0
 25 55  1  0
 26 56  1  0
 30 57  1  0
 31 58  1  0
 32 59  1  0
 33 60  1  0
 34 61  1  0
M  END
>  <smiles>  (98) 
C[C@@H](NC(=O)C1CCCCN1C(=O)CNC(=O)c1ccc2cc(F)ccc2n1)c1ccccc1

>  <score_type>  (98) 
oracle

>  <origin>  (98) 
autodockgpu

>  <m_score__min__energy>  (98) 
-9.5999999999999996

>  <m_primary>  (98) 
energy

>  <rmsd>  (98) 
2.698096793907577

>  <m_score__min__rmsd>  (98) 
2.698096793907577

>  <meeko>  (98) 
{"free_energy": -8.98, "intermolecular_energy": -11.07, "internal_energy": -3.07, "cluster_size": 17, "cluster_id": 2, "rank_in_cluster": 11}

>  <energy>  (98) 
-7.58

>  <cluster_rmsd>  (98) 
0.0

>  <cluster>  (98) 
5

$$$$

     RDKit          3D

 61 64  0  0  1  0  0  0  0  0999 V2000
  142.1990   79.5730  224.1680 C   0  0  0  0  0  0  0  0  0  0  0  0
  142.1450   79.1270  222.7280 C   0  0  1  0  0  0  0  0  0  0  0  0
  141.1400   78.0960  222.6020 N   0  0  0  0  0  0  0  0  0  0  0  0
  139.7460   78.3610  222.7240 C   0  0  0  0  0  0  0  0  0  0  0  0
  139.3960   79.5550  222.9540 O   0  0  0  0  0  0  0  0  0  0  0  0
  138.7230   77.3210  222.5970 C   0  0  1  0  0  0  0  0  0  0  0  0
  137.3140   77.8500  222.5180 C   0  0  0  0  0  0  0  0  0  0  0  0
  136.9460   78.4390  221.2130 C   0  0  0  0  0  0  0  0  0  0  0  0
  137.7160   77.9720  220.0300 C   0  0  0  0  0  0  0  0  0  0  0  0
  138.4880   76.7210  220.1750 C   0  0  0  0  0  0  0  0  0  0  0  0
  138.8850   76.3890  221.5280 N   0  0  0  0  0  0  0  0  0  0  0  0
  139.4440   75.0830  221.7220 C   0  0  0  0  0  0  0  0  0  0  0  0
  140.5780   75.0400  222.3030 O   0  0  0  0  0  0  0  0  0  0  0  0
  138.7360   73.8650  221.2680 C   0  0  0  0  0  0  0  0  0  0  0  0
  138.7920   72.9150  222.3710 N   0  0  0  0  0  0  0  0  0  0  0  0
  139.9950   72.2530  222.7420 C   0  0  0  0  0  0  0  0  0  0  0  0
  141.0880   72.4650  222.1150 O   0  0  0  0  0  0  0  0  0  0  0  0
  139.9750   71.3110  223.8620 C   0  0  0  0  0  0  0  0  0  0  0  0
  139.3820   70.0730  223.7180 C   0  0  0  0  0  0  0  0  0  0  0  0
  139.3420   69.1510  224.7530 C   0  0  0  0  0  0  0  0  0  0  0  0
  139.9140   69.4990  225.9490 C   0  0  0  0  0  0  0  0  0  0  0  0
  139.8890   68.6090  226.9910 C   0  0  0  0  0  0  0  0  0  0  0  0
  140.4690   68.9590  228.2070 C   0  0  0  0  0  0  0  0  0  0  0  0
  140.4100   68.0390  229.1880 F   0  0  0  0  0  0  0  0  0  0  0  0
  141.0510   70.1890  228.3310 C   0  0  0  0  0  0  0  0  0  0  0  0
  141.0980   71.1220  227.2980 C   0  0  0  0  0  0  0  0  0  0  0  0
  140.5120   70.7400  226.1050 C   0  0  0  0  0  0  0  0  0  0  0  0
  140.5200   71.5960  225.0600 N   0  0  0  0  0  0  0  0  0  0  0  0
  141.8950   80.2650  221.8050 C   0  0  0  0  0  0  0  0  0  0  0  0
  141.6780   81.5590  222.2560 C   0  0  0  0  0  0  0  0  0  0  0  0
  141.4450   82.6170  221.4030 C   0  0  0  0  0  0  0  0  0  0  0  0
  141.4240   82.4070  220.0440 C   0  0  0  0  0  0  0  0  0  0  0  0
  141.6380   81.1160  219.5520 C   0  0  0  0  0  0  0  0  0  0  0  0
  141.8720   80.0550  220.4280 C   0  0  0  0  0  0  0  0  0  0  0  0
  142.0931   78.6986  224.8269 H   0  0  0  0  0  0  0  0  0  0  0  0
  143.1633   80.0649  224.3636 H   0  0  0  0  0  0  0  0  0  0  0  0
  141.3800   80.2808  224.3636 H   0  0  0  0  0  0  0  0  0  0  0  0
  143.1229   78.7160  222.4368 H   0  0  0  0  0  0  0  0  0  0  0  0
  141.4840   77.1280  222.4110 H   0  0  0  0  0  0  0  0  0  0  0  0
  138.8854   76.7812  223.5416 H   0  0  0  0  0  0  0  0  0  0  0  0
  136.6241   77.0187  222.7251 H   0  0  0  0  0  0  0  0  0  0  0  0
  137.2465   78.6635  223.2554 H   0  0  0  0  0  0  0  0  0  0  0  0
  135.8852   78.2114  221.0316 H   0  0  0  0  0  0  0  0  0  0  0  0
  137.1763   79.5108  221.3037 H   0  0  0  0  0  0  0  0  0  0  0  0
  137.0009   77.8255  219.2071 H   0  0  0  0  0  0  0  0  0  0  0  0
  138.4722   78.7524  219.8592 H   0  0  0  0  0  0  0  0  0  0  0  0
  137.8716   75.8953  219.7899 H   0  0  0  0  0  0  0  0  0  0  0  0
  139.4218   76.8745  219.6142 H   0  0  0  0  0  0  0  0  0  0  0  0
  137.6899   74.1026  221.0246 H   0  0  0  0  0  0  0  0  0  0  0  0
  139.2025   73.4494  220.3627 H   0  0  0  0  0  0  0  0  0  0  0  0
  137.9230   72.6870  222.9400 H   0  0  0  0  0  0  0  0  0  0  0  0
  138.9268   69.8095  222.7519 H   0  0  0  0  0  0  0  0  0  0  0  0
  138.8651   68.1690  224.6181 H   0  0  0  0  0  0  0  0  0  0  0  0
  139.4138   67.6247  226.8672 H   0  0  0  0  0  0  0  0  0  0  0  0
  141.5058   70.4561  229.2963 H   0  0  0  0  0  0  0  0  0  0  0  0
  141.5737   72.1058  227.4238 H   0  0  0  0  0  0  0  0  0  0  0  0
  141.6924   81.7488  223.3394 H   0  0  0  0  0  0  0  0  0  0  0  0
  141.2765   83.6257  221.8082 H   0  0  0  0  0  0  0  0  0  0  0  0
  141.2413   83.2435  219.3535 H   0  0  0  0  0  0  0  0  0  0  0  0
  141.6218   80.9352  218.4671 H   0  0  0  0  0  0  0  0  0  0  0  0
  142.0397   79.0442  220.0277 H   0  0  0  0  0  0  0  0  0  0  0  0
  1  2  1  0
  2  3  1  0
  3  4  1  0
  4  5  2  0
  4  6  1  0
  6  7  1  0
  7  8  1  0
  8  9  1  0
  9 10  1  0
 10 11  1  0
 11 12  1  0
 12 13  2  0
 12 14  1  0
 14 15  1  0
 15 16  1  0
 16 17  2  0
 16 18  1  0
 18 19  2  0
 19 20  1  0
 20 21  2  0
 21 22  1  0
 22 23  2  0
 23 24  1  0
 23 25  1  0
 25 26  2  0
 26 27  1  0
 27 28  2  0
  2 29  1  0
 29 30  2  0
 30 31  1  0
 31 32  2  0
 32 33  1  0
 33 34  2  0
 11  6  1  0
 28 18  1  0
 34 29  1  0
 27 21  1  0
  1 35  1  0
  1 36  1  0
  1 37  1  0
  2 38  1  6
  3 39  1  0
  6 40  1  1
  7 41  1  0
  7 42  1  0
  8 43  1  0
  8 44  1  0
  9 45  1  0
  9 46  1  0
 10 47  1  0
 10 48  1  0
 14 49  1  0
 14 50  1  0
 15 51  1  0
 19 52  1  0
 20 53  1  0
 22 54  1  0
 25 55  1  0
 26 56  1  0
 30 57  1  0
 31 58  1  0
 32 59  1  0
 33 60  1  0
 34 61  1  0
M  END
>  <smiles>  (99) 
C[C@@H](NC(=O)C1CCCCN1C(=O)CNC(=O)c1ccc2cc(F)ccc2n1)c1ccccc1

>  <score_type>  (99) 
oracle

>  <origin>  (99) 
autodockgpu

>  <m_score__min__energy>  (99) 
-9.5999999999999996

>  <m_primary>  (99) 
energy

>  <rmsd>  (99) 
2.648593354585723

>  <m_score__min__rmsd>  (99) 
2.648593354585723

>  <meeko>  (99) 
{"free_energy": -9.19, "intermolecular_energy": -11.28, "internal_energy": -2.43, "cluster_size": 17, "cluster_id": 2, "rank_in_cluster": 2}

>  <energy>  (99) 
-7.31

>  <cluster_rmsd>  (99) 
0.0

>  <cluster>  (99) 
6

$$$$

     RDKit          3D

 61 64  0  0  1  0  0  0  0  0999 V2000
  141.7350   79.0160  224.2290 C   0  0  0  0  0  0  0  0  0  0  0  0
  142.0000   78.7980  222.7600 C   0  0  1  0  0  0  0  0  0  0  0  0
  141.1520   77.7240  222.2940 N   0  0  0  0  0  0  0  0  0  0  0  0
  139.7460   77.8720  222.1230 C   0  0  0  0  0  0  0  0  0  0  0  0
  139.2390   78.9990  222.3970 O   0  0  0  0  0  0  0  0  0  0  0  0
  138.8820   76.7880  221.6500 C   0  0  1  0  0  0  0  0  0  0  0  0
  137.7540   77.2440  220.7590 C   0  0  0  0  0  0  0  0  0  0  0  0
  138.1560   77.5900  219.3800 C   0  0  0  0  0  0  0  0  0  0  0  0
  139.4030   76.9590  218.8700 C   0  0  0  0  0  0  0  0  0  0  0  0
  139.9120   75.7790  219.6000 C   0  0  0  0  0  0  0  0  0  0  0  0
  139.5250   75.6960  220.9930 N   0  0  0  0  0  0  0  0  0  0  0  0
  139.8240   74.4630  221.6610 C   0  0  0  0  0  0  0  0  0  0  0  0
  140.9210   74.4300  222.3090 O   0  0  0  0  0  0  0  0  0  0  0  0
  138.9050   73.3050  221.5930 C   0  0  0  0  0  0  0  0  0  0  0  0
  139.2370   72.4430  222.7190 N   0  0  0  0  0  0  0  0  0  0  0  0
  138.7870   71.0950  222.8010 C   0  0  0  0  0  0  0  0  0  0  0  0
  138.0640   70.5820  221.8820 O   0  0  0  0  0  0  0  0  0  0  0  0
  139.1600   70.2880  223.9630 C   0  0  0  0  0  0  0  0  0  0  0  0
  138.8890   68.9350  223.9840 C   0  0  0  0  0  0  0  0  0  0  0  0
  139.2270   68.1330  225.0660 C   0  0  0  0  0  0  0  0  0  0  0  0
  139.8480   68.7230  226.1360 C   0  0  0  0  0  0  0  0  0  0  0  0
  140.1930   67.9560  227.2190 C   0  0  0  0  0  0  0  0  0  0  0  0
  140.8240   68.5520  228.3080 C   0  0  0  0  0  0  0  0  0  0  0  0
  141.1350   67.7430  229.3380 F   0  0  0  0  0  0  0  0  0  0  0  0
  141.0830   69.8920  228.2680 C   0  0  0  0  0  0  0  0  0  0  0  0
  140.7490   70.7060  227.1890 C   0  0  0  0  0  0  0  0  0  0  0  0
  140.1240   70.0810  226.1260 C   0  0  0  0  0  0  0  0  0  0  0  0
  139.7710   70.8100  225.0440 N   0  0  0  0  0  0  0  0  0  0  0  0
  141.8070   80.0430  221.9720 C   0  0  0  0  0  0  0  0  0  0  0  0
  141.6100   81.2810  222.5660 C   0  0  0  0  0  0  0  0  0  0  0  0
  141.4300   82.4380  221.8370 C   0  0  0  0  0  0  0  0  0  0  0  0
  141.4430   82.3890  220.4640 C   0  0  0  0  0  0  0  0  0  0  0  0
  141.6380   81.1590  219.8290 C   0  0  0  0  0  0  0  0  0  0  0  0
  141.8190   79.9960  220.5790 C   0  0  0  0  0  0  0  0  0  0  0  0
  142.4505   78.4274  224.8220 H   0  0  0  0  0  0  0  0  0  0  0  0
  141.8512   80.0834  224.4681 H   0  0  0  0  0  0  0  0  0  0  0  0
  140.7100   78.6962  224.4681 H   0  0  0  0  0  0  0  0  0  0  0  0
  143.0534   78.5154  222.6169 H   0  0  0  0  0  0  0  0  0  0  0  0
  141.6220   76.8150  222.0810 H   0  0  0  0  0  0  0  0  0  0  0  0
  138.4956   76.4213  222.6124 H   0  0  0  0  0  0  0  0  0  0  0  0
  137.0109   76.4347  220.7061 H   0  0  0  0  0  0  0  0  0  0  0  0
  137.3584   78.1672  221.2075 H   0  0  0  0  0  0  0  0  0  0  0  0
  137.3351   77.2957  218.7096 H   0  0  0  0  0  0  0  0  0  0  0  0
  138.3661   78.6695  219.4021 H   0  0  0  0  0  0  0  0  0  0  0  0
  139.2160   76.6497  217.8311 H   0  0  0  0  0  0  0  0  0  0  0  0
  140.1806   77.7268  218.9962 H   0  0  0  0  0  0  0  0  0  0  0  0
  139.5401   74.8780  219.0902 H   0  0  0  0  0  0  0  0  0  0  0  0
  141.0083   75.8690  219.5948 H   0  0  0  0  0  0  0  0  0  0  0  0
  137.8613   73.6439  221.6694 H   0  0  0  0  0  0  0  0  0  0  0  0
  139.0123   72.7692  220.6383 H   0  0  0  0  0  0  0  0  0  0  0  0
  139.8340   72.7990  223.5220 H   0  0  0  0  0  0  0  0  0  0  0  0
  138.3899   68.4778  223.1169 H   0  0  0  0  0  0  0  0  0  0  0  0
  139.0030   67.0561  225.0644 H   0  0  0  0  0  0  0  0  0  0  0  0
  139.9730   66.8783  227.2275 H   0  0  0  0  0  0  0  0  0  0  0  0
  141.5816   70.3525  229.1336 H   0  0  0  0  0  0  0  0  0  0  0  0
  140.9696   71.7836  227.1827 H   0  0  0  0  0  0  0  0  0  0  0  0
  141.5968   81.3426  223.6642 H   0  0  0  0  0  0  0  0  0  0  0  0
  141.2765   83.3971  222.3533 H   0  0  0  0  0  0  0  0  0  0  0  0
  141.3018   83.3055  219.8723 H   0  0  0  0  0  0  0  0  0  0  0  0
  141.6489   81.1074  218.7303 H   0  0  0  0  0  0  0  0  0  0  0  0
  141.9723   79.0347  220.0668 H   0  0  0  0  0  0  0  0  0  0  0  0
  1  2  1  0
  2  3  1  0
  3  4  1  0
  4  5  2  0
  4  6  1  0
  6  7  1  0
  7  8  1  0
  8  9  1  0
  9 10  1  0
 10 11  1  0
 11 12  1  0
 12 13  2  0
 12 14  1  0
 14 15  1  0
 15 16  1  0
 16 17  2  0
 16 18  1  0
 18 19  2  0
 19 20  1  0
 20 21  2  0
 21 22  1  0
 22 23  2  0
 23 24  1  0
 23 25  1  0
 25 26  2  0
 26 27  1  0
 27 28  2  0
  2 29  1  0
 29 30  2  0
 30 31  1  0
 31 32  2  0
 32 33  1  0
 33 34  2  0
 11  6  1  0
 28 18  1  0
 34 29  1  0
 27 21  1  0
  1 35  1  0
  1 36  1  0
  1 37  1  0
  2 38  1  1
  3 39  1  0
  6 40  1  1
  7 41  1  0
  7 42  1  0
  8 43  1  0
  8 44  1  0
  9 45  1  0
  9 46  1  0
 10 47  1  0
 10 48  1  0
 14 49  1  0
 14 50  1  0
 15 51  1  0
 19 52  1  0
 20 53  1  0
 22 54  1  0
 25 55  1  0
 26 56  1  0
 30 57  1  0
 31 58  1  0
 32 59  1  0
 33 60  1  0
 34 61  1  0
M  END
>  <smiles>  (100) 
C[C@@H](NC(=O)C1CCCCN1C(=O)CNC(=O)c1ccc2cc(F)ccc2n1)c1ccccc1

>  <score_type>  (100) 
oracle

>  <origin>  (100) 
autodockgpu

>  <m_score__min__energy>  (100) 
-9.5999999999999996

>  <m_primary>  (100) 
energy

>  <rmsd>  (100) 
2.1258373168643176

>  <m_score__min__rmsd>  (100) 
2.1258373168643176

>  <meeko>  (100) 
{"free_energy": -8.72, "intermolecular_energy": -10.81, "internal_energy": -2.98, "cluster_size": 17, "cluster_id": 2, "rank_in_cluster": 15}

>  <energy>  (100) 
-5.58

>  <cluster_rmsd>  (100) 
0.0

>  <cluster>  (100) 
7

$$$$
