
 66 71  0  0  1  0  0  0  0  0999 V2000
  141.5270   71.0700  224.8040 O   0  0  0  0  0  0  0  0  0  0  0  0
  140.2760   70.9570  224.7790 C   0  0  0  0  0  0  0  0  0  0  0  0
  139.5880   71.6430  223.7420 N   0  0  0  0  0  0  0  0  0  0  0  0
  140.2440   72.4300  222.7560 C   0  0  0  0  0  0  0  0  0  0  0  0
  141.1500   71.8780  221.9290 N   0  0  0  0  0  0  0  0  0  0  0  0
  141.7570   72.6670  220.9950 C   0  0  0  0  0  0  0  0  0  0  0  0
  142.7130   72.1030  220.1160 N   0  0  0  0  0  0  0  0  0  0  0  0
  143.7930   72.9310  219.6130 C   0  0  0  0  0  0  0  0  0  0  0  0
  145.0950   72.2680  220.0450 C   0  0  0  0  0  0  0  0  0  0  0  0
  145.0720   70.9000  219.4420 C   0  0  0  0  0  0  0  0  0  0  0  0
  146.2950   70.3710  219.0230 C   0  0  0  0  0  0  0  0  0  0  0  0
  146.2800   69.1100  218.4680 C   0  0  0  0  0  0  0  0  0  0  0  0
  145.1200   68.3810  218.3200 C   0  0  0  0  0  0  0  0  0  0  0  0
  143.9050   68.9060  218.7370 C   0  0  0  0  0  0  0  0  0  0  0  0
  143.9120   70.1740  219.2970 C   0  0  0  0  0  0  0  0  0  0  0  0
  142.6020   70.7170  219.7350 C   0  0  0  0  0  0  0  0  0  0  0  0
  141.4380   73.9810  220.9190 N   0  0  0  0  0  0  0  0  0  0  0  0
  140.5340   74.5430  221.7420 C   0  0  0  0  0  0  0  0  0  0  0  0
  140.2600   75.9310  221.5910 N   0  0  0  0  0  0  0  0  0  0  0  0
  138.8810   76.3560  221.4410 C   0  0  0  0  0  0  0  0  0  0  0  0
  138.5750   77.1390  222.7190 C   0  0  0  0  0  0  0  0  0  0  0  0
  139.4930   78.3240  222.6860 C   0  0  0  0  0  0  0  0  0  0  0  0
  139.0130   79.5060  223.2130 C   0  0  0  0  0  0  0  0  0  0  0  0
  139.8640   80.6130  223.1860 C   0  0  0  0  0  0  0  0  0  0  0  0
  141.1440   80.5250  222.6480 C   0  0  0  0  0  0  0  0  0  0  0  0
  141.6060   79.3310  222.1250 C   0  0  0  0  0  0  0  0  0  0  0  0
  140.7640   78.2410  222.1540 C   0  0  0  0  0  0  0  0  0  0  0  0
  141.2840   76.9490  221.5790 C   0  0  0  0  0  0  0  0  0  0  0  0
  139.9520   73.7600  222.6460 N   0  0  0  0  0  0  0  0  0  0  0  0
  139.5070   70.1550  225.7700 C   0  0  2  0  0  0  0  0  0  0  0  0
  140.4020   69.6200  226.8650 C   0  0  0  0  0  0  0  0  0  0  0  0
  139.6020   68.5890  227.6350 C   0  0  0  0  0  0  0  0  0  0  0  0
  139.4620   67.3750  226.7260 C   0  0  0  0  0  0  0  0  0  0  0  0
  139.2290   67.7340  225.3560 N   0  0  0  0  0  0  0  0  0  0  0  0
  138.7000   69.0550  225.1680 C   0  0  0  0  0  0  0  0  0  0  0  0
  138.5460   71.5880  223.6680 H   0  0  0  0  0  0  0  0  0  0  0  0
  143.7446   72.9908  218.5157 H   0  0  0  0  0  0  0  0  0  0  0  0
  143.7218   73.9550  220.0084 H   0  0  0  0  0  0  0  0  0  0  0  0
  145.9582   72.8378  219.6705 H   0  0  0  0  0  0  0  0  0  0  0  0
  145.1859   72.2273  221.1405 H   0  0  0  0  0  0  0  0  0  0  0  0
  147.2315   70.9378  219.1316 H   0  0  0  0  0  0  0  0  0  0  0  0
  147.2294   68.6687  218.1305 H   0  0  0  0  0  0  0  0  0  0  0  0
  145.1573   67.3783  217.8692 H   0  0  0  0  0  0  0  0  0  0  0  0
  142.9703   68.3366  218.6271 H   0  0  0  0  0  0  0  0  0  0  0  0
  141.8824   70.6289  218.9077 H   0  0  0  0  0  0  0  0  0  0  0  0
  142.2612   70.1419  220.6086 H   0  0  0  0  0  0  0  0  0  0  0  0
  138.7673   76.9988  220.5556 H   0  0  0  0  0  0  0  0  0  0  0  0
  138.1967   75.5065  221.2993 H   0  0  0  0  0  0  0  0  0  0  0  0
  137.5246   77.4654  222.7287 H   0  0  0  0  0  0  0  0  0  0  0  0
  138.7265   76.5277  223.6208 H   0  0  0  0  0  0  0  0  0  0  0  0
  138.0004   79.5734  223.6374 H   0  0  0  0  0  0  0  0  0  0  0  0
  139.5159   81.5719  223.5976 H   0  0  0  0  0  0  0  0  0  0  0  0
  141.7939   81.4124  222.6385 H   0  0  0  0  0  0  0  0  0  0  0  0
  142.6168   79.2538  221.6981 H   0  0  0  0  0  0  0  0  0  0  0  0
  141.6087   77.1210  220.5422 H   0  0  0  0  0  0  0  0  0  0  0  0
  142.1288   76.6052  222.1940 H   0  0  0  0  0  0  0  0  0  0  0  0
  138.7848   70.8588  226.2094 H   0  0  0  0  0  0  0  0  0  0  0  0
  141.2958   69.1524  226.4262 H   0  0  0  0  0  0  0  0  0  0  0  0
  140.7339   70.4317  227.5290 H   0  0  0  0  0  0  0  0  0  0  0  0
  140.1307   68.3118  228.5589 H   0  0  0  0  0  0  0  0  0  0  0  0
  138.6163   68.9854  227.9200 H   0  0  0  0  0  0  0  0  0  0  0  0
  140.3881   66.7841  226.7825 H   0  0  0  0  0  0  0  0  0  0  0  0
  138.5909   66.7991  227.0718 H   0  0  0  0  0  0  0  0  0  0  0  0
  140.0350   67.5830  224.7340 H   0  0  0  0  0  0  0  0  0  0  0  0
  138.6254   69.2407  224.0864 H   0  0  0  0  0  0  0  0  0  0  0  0
  137.7293   69.0710  225.6852 H   0  0  0  0  0  0  0  0  0  0  0  0
  1  2  2  0
  2  3  1  0
  3  4  1  0
  4  5  2  0
  5  6  1  0
  6  7  1  0
  7  8  1  0
  8  9  1  0
  9 10  1  0
 10 11  2  0
 11 12  1  0
 12 13  2  0
 13 14  1  0
 14 15  2  0
 15 16  1  0
  6 17  2  0
 17 18  1  0
 18 19  1  0
 19 20  1  0
 20 21  1  0
 21 22  1  0
 22 23  2  0
 23 24  1  0
 24 25  2  0
 25 26  1  0
 26 27  2  0
 27 28  1  0
 18 29  2  0
  2 30  1  0
 30 31  1  0
 31 32  1  0
 32 33  1  0
 33 34  1  0
 34 35  1  0
 29  4  1  0
 35 30  1  0
 16  7  1  0
 28 19  1  0
 15 10  1  0
 27 22  1  0
  3 36  1  0
  8 37  1  0
  8 38  1  0
  9 39  1  0
  9 40  1  0
 11 41  1  0
 12 42  1  0
 13 43  1  0
 14 44  1  0
 16 45  1  0
 16 46  1  0
 20 47  1  0
 20 48  1  0
 21 49  1  0
 21 50  1  0
 23 51  1  0
 24 52  1  0
 25 53  1  0
 26 54  1  0
 28 55  1  0
 28 56  1  0
 30 57  1  1
 31 58  1  0
 31 59  1  0
 32 60  1  0
 32 61  1  0
 33 62  1  0
 33 63  1  0
 34 64  1  0
 35 65  1  0
 35 66  1  0
M  END
