
     RDKit          3D

 65 70  0  0  1  0  0  0  0  0999 V2000
  139.9330   68.5680  227.9730 C   0  0  0  0  0  0  0  0  0  0  0  0
  140.6860   69.6860  228.3260 C   0  0  0  0  0  0  0  0  0  0  0  0
  141.0370   70.5890  227.3440 C   0  0  0  0  0  0  0  0  0  0  0  0
  140.6770   70.4400  226.0290 C   0  0  0  0  0  0  0  0  0  0  0  0
  139.9270   69.3140  225.7130 C   0  0  0  0  0  0  0  0  0  0  0  0
  139.5490   68.3790  226.6510 C   0  0  0  0  0  0  0  0  0  0  0  0
  139.5530   69.1900  224.2610 C   0  0  0  0  0  0  0  0  0  0  0  0
  139.0240   70.5900  223.9040 C   0  0  0  0  0  0  0  0  0  0  0  0
  140.1830   71.4510  223.8510 N   0  0  0  0  0  0  0  0  0  0  0  0
  140.5090   72.3090  222.7770 C   0  0  0  0  0  0  0  0  0  0  0  0
  141.5210   72.0520  221.8760 C   0  0  0  0  0  0  0  0  0  0  0  0
  141.8370   72.9000  220.8290 C   0  0  0  0  0  0  0  0  0  0  0  0
  142.8770   72.6430  219.9000 N   0  0  0  0  0  0  0  0  0  0  0  0
  143.6410   73.6750  219.2360 C   0  0  2  0  0  0  0  0  0  0  0  0
  143.9640   74.8510  220.1040 C   0  0  0  0  0  0  0  0  0  0  0  0
  143.2180   76.0890  219.6330 C   0  0  0  0  0  0  0  0  0  0  0  0
  143.4350   76.3570  218.1790 C   0  0  0  0  0  0  0  0  0  0  0  0
  143.7900   75.1780  217.4120 N   0  0  0  0  0  0  0  0  0  0  0  0
  143.0110   74.0710  217.9270 C   0  0  0  0  0  0  0  0  0  0  0  0
  141.0930   74.0180  220.7240 N   0  0  0  0  0  0  0  0  0  0  0  0
  140.0940   74.2640  221.6220 C   0  0  0  0  0  0  0  0  0  0  0  0
  139.3500   75.4640  221.4500 N   0  0  0  0  0  0  0  0  0  0  0  0
  140.0150   76.7410  221.6130 C   0  0  0  0  0  0  0  0  0  0  0  0
  139.0840   77.8990  221.7360 C   0  0  0  0  0  0  0  0  0  0  0  0
  137.7460   77.5820  222.2410 C   0  0  0  0  0  0  0  0  0  0  0  0
  137.0050   78.4560  223.0220 C   0  0  0  0  0  0  0  0  0  0  0  0
  135.7550   78.1710  223.4990 C   0  0  0  0  0  0  0  0  0  0  0  0
  135.1740   76.9460  223.1980 C   0  0  0  0  0  0  0  0  0  0  0  0
  135.8960   76.0660  222.4230 C   0  0  0  0  0  0  0  0  0  0  0  0
  137.1540   76.3700  221.9520 C   0  0  0  0  0  0  0  0  0  0  0  0
  137.9380   75.4240  221.1170 C   0  0  0  0  0  0  0  0  0  0  0  0
  139.8110   73.4300  222.6200 N   0  0  0  0  0  0  0  0  0  0  0  0
  141.0690   71.4160  225.0160 C   0  0  0  0  0  0  0  0  0  0  0  0
  139.6427   67.8354  228.7405 H   0  0  0  0  0  0  0  0  0  0  0  0
  140.9952   69.8457  229.3695 H   0  0  0  0  0  0  0  0  0  0  0  0
  141.6328   71.4687  227.6286 H   0  0  0  0  0  0  0  0  0  0  0  0
  138.9550   67.5002  226.3595 H   0  0  0  0  0  0  0  0  0  0  0  0
  140.4309   68.9340  223.6496 H   0  0  0  0  0  0  0  0  0  0  0  0
  138.8166   68.3942  224.0753 H   0  0  0  0  0  0  0  0  0  0  0  0
  138.5176   70.5699  222.9277 H   0  0  0  0  0  0  0  0  0  0  0  0
  138.2913   70.9450  224.6437 H   0  0  0  0  0  0  0  0  0  0  0  0
  142.1055   71.1279  221.9954 H   0  0  0  0  0  0  0  0  0  0  0  0
  143.1150   71.6550  219.6710 H   0  0  0  0  0  0  0  0  0  0  0  0
  144.6196   73.2270  219.0086 H   0  0  0  0  0  0  0  0  0  0  0  0
  143.6715   74.6258  221.1402 H   0  0  0  0  0  0  0  0  0  0  0  0
  145.0449   75.0466  220.0459 H   0  0  0  0  0  0  0  0  0  0  0  0
  142.1421   75.9436  219.8101 H   0  0  0  0  0  0  0  0  0  0  0  0
  143.6025   76.9513  220.1974 H   0  0  0  0  0  0  0  0  0  0  0  0
  142.5075   76.7758  217.7615 H   0  0  0  0  0  0  0  0  0  0  0  0
  144.2828   77.0540  218.1052 H   0  0  0  0  0  0  0  0  0  0  0  0
  144.8190   74.9650  217.4970 H   0  0  0  0  0  0  0  0  0  0  0  0
  141.9681   74.3823  218.0864 H   0  0  0  0  0  0  0  0  0  0  0  0
  143.0022   73.2286  217.2197 H   0  0  0  0  0  0  0  0  0  0  0  0
  140.6325   76.6957  222.5222 H   0  0  0  0  0  0  0  0  0  0  0  0
  140.6110   76.9074  220.7036 H   0  0  0  0  0  0  0  0  0  0  0  0
  139.5402   78.6294  222.4204 H   0  0  0  0  0  0  0  0  0  0  0  0
  138.9387   78.2793  220.7141 H   0  0  0  0  0  0  0  0  0  0  0  0
  137.4466   79.4320  223.2717 H   0  0  0  0  0  0  0  0  0  0  0  0
  135.2151   78.9051  224.1151 H   0  0  0  0  0  0  0  0  0  0  0  0
  134.1704   76.6873  223.5664 H   0  0  0  0  0  0  0  0  0  0  0  0
  135.4544   75.0902  222.1724 H   0  0  0  0  0  0  0  0  0  0  0  0
  137.5606   74.4041  221.2825 H   0  0  0  0  0  0  0  0  0  0  0  0
  137.8238   75.7180  220.0632 H   0  0  0  0  0  0  0  0  0  0  0  0
  142.0841   71.1690  224.6717 H   0  0  0  0  0  0  0  0  0  0  0  0
  141.0129   72.4073  225.4894 H   0  0  0  0  0  0  0  0  0  0  0  0
  1  2  2  0
  2  3  1  0
  3  4  2  0
  4  5  1  0
  5  6  2  0
  5  7  1  0
  7  8  1  0
  8  9  1  0
  9 10  1  0
 10 11  2  0
 11 12  1  0
 12 13  1  0
 13 14  1  0
 14 15  1  0
 15 16  1  0
 16 17  1  0
 17 18  1  0
 18 19  1  0
 12 20  2  0
 20 21  1  0
 21 22  1  0
 22 23  1  0
 23 24  1  0
 24 25  1  0
 25 26  2  0
 26 27  1  0
 27 28  2  0
 28 29  1  0
 29 30  2  0
 30 31  1  0
 21 32  2  0
  9 33  1  0
  6  1  1  0
 32 10  1  0
 33  4  1  0
 19 14  1  0
 31 22  1  0
 30 25  1  0
  1 34  1  0
  2 35  1  0
  3 36  1  0
  6 37  1  0
  7 38  1  0
  7 39  1  0
  8 40  1  0
  8 41  1  0
 11 42  1  0
 13 43  1  0
 14 44  1  6
 15 45  1  0
 15 46  1  0
 16 47  1  0
 16 48  1  0
 17 49  1  0
 17 50  1  0
 18 51  1  0
 19 52  1  0
 19 53  1  0
 23 54  1  0
 23 55  1  0
 24 56  1  0
 24 57  1  0
 26 58  1  0
 27 59  1  0
 28 60  1  0
 29 61  1  0
 31 62  1  0
 31 63  1  0
 33 64  1  0
 33 65  1  0
M  END
