@<TRIPOS>MOLECULE
*****
 54 57 0 0 0
SMALL
GASTEIGER

@<TRIPOS>ATOM
      1 N         136.1630   75.0020  223.5440 N.3     1  UNL1       -0.2035
      2 S         136.6600   75.9360  222.1980 S.O2    1  UNL1        0.0560
      3 O         136.3330   77.3750  222.4230 O.2     1  UNL1       -0.1533
      4 O         135.9000   75.5110  220.9580 O.2     1  UNL1       -0.1533
      5 C         138.3840   75.7920  221.9490 C.ar    1  UNL1        0.1056
      6 C         139.1750   76.8730  221.6180 C.ar    1  UNL1       -0.0353
      7 C         140.5460   76.6970  221.4320 C.ar    1  UNL1       -0.0594
      8 C         141.0820   75.4230  221.5860 C.ar    1  UNL1       -0.0545
      9 C         140.3190   74.3330  221.9130 C.ar    1  UNL1       -0.0231
     10 C         140.8550   72.9920  222.0790 C.2     1  UNL1       -0.0511
     11 C         140.1090   71.9120  222.2260 C.2     1  UNL1       -0.0185
     12 C         139.9650   71.3110  223.5680 C.ar    1  UNL1        0.1369
     13 N         140.7050   71.7720  224.5750 N.ar    1  UNL1       -0.2294
     14 C         140.6580   71.3030  225.8240 C.ar    1  UNL1        0.0785
     15 C         141.4440   71.8160  226.8260 C.ar    1  UNL1       -0.0355
     16 C         141.3640   71.3010  228.1080 C.ar    1  UNL1       -0.0597
     17 C         140.4800   70.2680  228.3440 C.ar    1  UNL1       -0.0609
     18 C         139.6840   69.7400  227.3560 C.ar    1  UNL1       -0.0474
     19 C         139.7800   70.2710  226.0800 C.ar    1  UNL1        0.0649
     20 C         139.0130   69.7920  225.0420 C.ar    1  UNL1        0.2620
     21 O         138.2210   68.8460  225.3170 O.2     1  UNL1       -0.2669
     22 N         139.0980   70.3060  223.7790 N.ar    1  UNL1       -0.2925
     23 C         138.2740   69.7610  222.7490 C.3     1  UNL1        0.0310
     24 C         137.0420   70.5730  222.4270 C.3     1  UNL1       -0.0206
     25 C         137.3860   71.4530  221.2230 C.3     1  UNL1       -0.0359
     26 C         136.1410   72.2300  220.8020 C.3     1  UNL1       -0.0038
     27 N         135.7760   73.0790  221.9110 N.3     1  UNL1       -0.3160
     28 C         135.3520   72.2040  223.0080 C.3     1  UNL1       -0.0038
     29 C         136.5570   71.4260  223.5460 C.3     1  UNL1       -0.0359
     30 C         138.9610   74.5530  222.0900 C.ar    1  UNL1       -0.0282
     31 H         135.1890   74.6540  223.3260 H       1  UNL1        0.1442
     32 H         136.7550   74.1270  223.5890 H       1  UNL1        0.1442
     33 H         138.7258   77.8703  221.5012 H       1  UNL1        0.0637
     34 H         141.1904   77.5487  221.1688 H       1  UNL1        0.0618
     35 H         142.1634   75.2847  221.4392 H       1  UNL1        0.0623
     36 H         141.9481   72.8693  222.0824 H       1  UNL1        0.0625
     37 H         139.6006   71.4650  221.3590 H       1  UNL1        0.0654
     38 H         142.1401   72.6396  226.6089 H       1  UNL1        0.0639
     39 H         141.9891   71.7047  228.9181 H       1  UNL1        0.0618
     40 H         140.4099   69.8521  229.3599 H       1  UNL1        0.0618
     41 H         138.9880   68.9163  227.5729 H       1  UNL1        0.0626
     42 H         138.8790   69.6797  221.8339 H       1  UNL1        0.0496
     43 H         137.9160   68.7895  223.1205 H       1  UNL1        0.0496
     44 H         136.2203   69.8711  222.2219 H       1  UNL1        0.0319
     45 H         138.1849   72.1576  221.4977 H       1  UNL1        0.0281
     46 H         137.7302   70.8234  220.3893 H       1  UNL1        0.0281
     47 H         136.3601   72.8418  219.9145 H       1  UNL1        0.0424
     48 H         135.3194   71.5447  220.5463 H       1  UNL1        0.0424
     49 H         134.9150   73.6500  221.6780 H       1  UNL1        0.1219
     50 H         134.9207   72.8136  223.8156 H       1  UNL1        0.0424
     51 H         134.5980   71.4946  222.6363 H       1  UNL1        0.0424
     52 H         137.3475   72.1217  223.8639 H       1  UNL1        0.0281
     53 H         136.2802   70.8174  224.4195 H       1  UNL1        0.0281
     54 H         138.3190   73.6998  222.3543 H       1  UNL1        0.0643
@<TRIPOS>BOND
     1     1     2    1
     2     2     3    2
     3     2     4    2
     4     2     5    1
     5     5     6   ar
     6     6     7   ar
     7     7     8   ar
     8     8     9   ar
     9     9    10    1
    10    10    11    2
    11    11    12    1
    12    12    13   ar
    13    13    14   ar
    14    14    15   ar
    15    15    16   ar
    16    16    17   ar
    17    17    18   ar
    18    18    19   ar
    19    19    20   ar
    20    20    21    2
    21    20    22   ar
    22    22    23    1
    23    23    24    1
    24    24    25    1
    25    25    26    1
    26    26    27    1
    27    27    28    1
    28    28    29    1
    29     9    30   ar
    30    30     5   ar
    31    22    12   ar
    32    29    24    1
    33    19    14   ar
    34     1    31    1
    35     1    32    1
    36     6    33    1
    37     7    34    1
    38     8    35    1
    39    10    36    1
    40    11    37    1
    41    15    38    1
    42    16    39    1
    43    17    40    1
    44    18    41    1
    45    23    42    1
    46    23    43    1
    47    24    44    1
    48    25    45    1
    49    25    46    1
    50    26    47    1
    51    26    48    1
    52    27    49    1
    53    28    50    1
    54    28    51    1
    55    29    52    1
    56    29    53    1
    57    30    54    1
