
 66 70  0  0  0  0  0  0  0  0999 V2000
  141.4270   72.3190  221.7510 O   0  0  0  0  0  0  0  0  0  0  0  0
  140.4680   72.3950  222.5610 C   0  0  0  0  0  0  0  0  0  0  0  0
  139.5340   73.4800  222.3060 N   0  0  0  0  0  0  0  0  0  0  0  0
  139.8070   74.3130  221.2010 C   0  0  0  0  0  0  0  0  0  0  0  0
  140.9300   75.2330  221.2030 C   0  0  0  0  0  0  0  0  0  0  0  0
  141.0160   75.9420  222.2880 O   0  0  0  0  0  0  0  0  0  0  0  0
  141.9240   75.4790  220.2470 N   0  0  0  0  0  0  0  0  0  0  0  0
  142.8370   74.4670  219.6090 C   0  0  0  0  0  0  0  0  0  0  0  0
  142.5340   74.7550  218.1700 C   0  0  0  0  0  0  0  0  0  0  0  0
  142.0700   76.2190  218.1190 C   0  0  0  0  0  0  0  0  0  0  0  0
  142.3660   76.6620  219.5540 C   0  0  1  0  0  0  0  0  0  0  0  0
  141.8770   77.9660  219.8680 C   0  0  0  0  0  0  0  0  0  0  0  0
  141.4180   78.8710  219.1590 O   0  0  0  0  0  0  0  0  0  0  0  0
  141.9150   78.3250  221.2960 N   0  0  0  0  0  0  0  0  0  0  0  0
  141.4390   79.6300  221.7090 C   0  0  2  0  0  0  0  0  0  0  0  0
  142.6100   80.5120  222.0510 C   0  0  0  0  0  0  0  0  0  0  0  0
  142.9300   80.3340  223.4970 C   0  0  0  0  0  0  0  0  0  0  0  0
  141.6870   79.7910  224.1220 C   0  0  0  0  0  0  0  0  0  0  0  0
  140.7240   79.4770  223.0170 C   0  0  1  0  0  0  0  0  0  0  0  0
  139.5170   80.3310  223.1500 C   0  0  0  0  0  0  0  0  0  0  0  0
  138.7230   80.1180  224.2650 C   0  0  0  0  0  0  0  0  0  0  0  0
  137.5770   80.8630  224.4780 C   0  0  0  0  0  0  0  0  0  0  0  0
  137.2500   81.8330  223.5360 C   0  0  0  0  0  0  0  0  0  0  0  0
  136.0980   82.5780  223.7560 O   0  0  0  0  0  0  0  0  0  0  0  0
  138.0620   82.0300  222.4210 C   0  0  0  0  0  0  0  0  0  0  0  0
  139.2080   81.2860  222.2070 C   0  0  0  0  0  0  0  0  0  0  0  0
  140.2780   71.4830  223.6790 C   0  0  0  0  0  0  0  0  0  0  0  0
  139.6130   70.3050  223.4200 C   0  0  0  0  0  0  0  0  0  0  0  0
  139.4340   69.4350  224.4970 C   0  0  0  0  0  0  0  0  0  0  0  0
  139.9150   69.7790  225.7480 C   0  0  0  0  0  0  0  0  0  0  0  0
  139.7600   68.9440  226.8480 C   0  0  0  0  0  0  0  0  0  0  0  0
  140.2330   69.2770  228.0900 C   0  0  0  0  0  0  0  0  0  0  0  0
  140.0710   68.4430  229.1610 F   0  0  0  0  0  0  0  0  0  0  0  0
  140.8910   70.4770  228.2760 C   0  0  0  0  0  0  0  0  0  0  0  0
  141.0700   71.3420  227.2050 C   0  0  0  0  0  0  0  0  0  0  0  0
  140.5810   70.9760  225.9700 C   0  0  0  0  0  0  0  0  0  0  0  0
  140.7410   71.7970  224.9160 N   0  0  0  0  0  0  0  0  0  0  0  0
  138.7110   73.5790  222.9610 H   0  0  0  0  0  0  0  0  0  0  0  0
  139.9539   73.6461  220.3386 H   0  0  0  0  0  0  0  0  0  0  0  0
  138.9435   74.9945  221.2000 H   0  0  0  0  0  0  0  0  0  0  0  0
  143.8934   74.6522  219.8534 H   0  0  0  0  0  0  0  0  0  0  0  0
  142.6842   73.4248  219.9259 H   0  0  0  0  0  0  0  0  0  0  0  0
  143.4356   74.6183  217.5549 H   0  0  0  0  0  0  0  0  0  0  0  0
  141.7643   74.0747  217.7766 H   0  0  0  0  0  0  0  0  0  0  0  0
  142.6487   76.8021  217.3875 H   0  0  0  0  0  0  0  0  0  0  0  0
  141.0243   76.3554  217.8061 H   0  0  0  0  0  0  0  0  0  0  0  0
  143.3992   76.9038  219.8439 H   0  0  0  0  0  0  0  0  0  0  0  0
  142.2800   77.6490  221.9940 H   0  0  0  0  0  0  0  0  0  0  0  0
  140.8159   80.0426  220.9018 H   0  0  0  0  0  0  0  0  0  0  0  0
  143.4797   80.2273  221.4407 H   0  0  0  0  0  0  0  0  0  0  0  0
  142.3620   81.5640  221.8465 H   0  0  0  0  0  0  0  0  0  0  0  0
  143.7626   79.6260  223.6212 H   0  0  0  0  0  0  0  0  0  0  0  0
  143.2391   81.2808  223.9640 H   0  0  0  0  0  0  0  0  0  0  0  0
  141.9201   78.8767  224.6875 H   0  0  0  0  0  0  0  0  0  0  0  0
  141.2519   80.5243  224.8169 H   0  0  0  0  0  0  0  0  0  0  0  0
  140.3651   78.4386  223.0710 H   0  0  0  0  0  0  0  0  0  0  0  0
  139.0084   79.3440  224.9927 H   0  0  0  0  0  0  0  0  0  0  0  0
  136.9454   80.6940  225.3626 H   0  0  0  0  0  0  0  0  0  0  0  0
  136.0260   83.4880  223.3460 H   0  0  0  0  0  0  0  0  0  0  0  0
  137.7828   82.8013  221.6881 H   0  0  0  0  0  0  0  0  0  0  0  0
  139.8435   81.4495  221.3242 H   0  0  0  0  0  0  0  0  0  0  0  0
  139.2412   70.0616  222.4138 H   0  0  0  0  0  0  0  0  0  0  0  0
  138.9117   68.4779  224.3514 H   0  0  0  0  0  0  0  0  0  0  0  0
  139.2401   67.9835  226.7172 H   0  0  0  0  0  0  0  0  0  0  0  0
  141.2728   70.7470  229.2716 H   0  0  0  0  0  0  0  0  0  0  0  0
  141.5920   72.3008  227.3398 H   0  0  0  0  0  0  0  0  0  0  0  0
  1  2  2  0
  2  3  1  0
  3  4  1  0
  4  5  1  0
  5  6  2  0
  5  7  1  0
  7  8  1  0
  8  9  1  0
  9 10  1  0
 10 11  1  0
 11 12  1  0
 12 13  2  0
 12 14  1  0
 14 15  1  0
 15 16  1  0
 16 17  1  0
 17 18  1  0
 18 19  1  0
 19 20  1  0
 20 21  2  0
 21 22  1  0
 22 23  2  0
 23 24  1  0
 23 25  1  0
 25 26  2  0
  2 27  1  0
 27 28  2  0
 28 29  1  0
 29 30  2  0
 30 31  1  0
 31 32  2  0
 32 33  1  0
 32 34  1  0
 34 35  2  0
 35 36  1  0
 36 37  2  0
 11  7  1  0
 19 15  1  0
 26 20  1  0
 37 27  1  0
 36 30  1  0
  3 38  1  0
  4 39  1  0
  4 40  1  0
  8 41  1  0
  8 42  1  0
  9 43  1  0
  9 44  1  0
 10 45  1  0
 10 46  1  0
 11 47  1  6
 14 48  1  0
 15 49  1  6
 16 50  1  0
 16 51  1  0
 17 52  1  0
 17 53  1  0
 18 54  1  0
 18 55  1  0
 19 56  1  1
 21 57  1  0
 22 58  1  0
 24 59  1  0
 25 60  1  0
 26 61  1  0
 28 62  1  0
 29 63  1  0
 31 64  1  0
 34 65  1  0
 35 66  1  0
M  END
