
 63 66  0  0  0  0  0  0  0  0999 V2000
  139.0140   85.2820  220.8140 C   0  0  0  0  0  0  0  0  0  0  0  0
  138.5240   84.0340  221.2070 O   0  0  0  0  0  0  0  0  0  0  0  0
  139.2820   82.9570  221.6240 C   0  0  0  0  0  0  0  0  0  0  0  0
  140.6550   82.9860  221.3910 C   0  0  0  0  0  0  0  0  0  0  0  0
  141.4750   81.9350  221.7870 C   0  0  0  0  0  0  0  0  0  0  0  0
  140.9490   80.8080  222.4340 C   0  0  0  0  0  0  0  0  0  0  0  0
  141.8810   79.7640  222.8230 C   0  0  2  0  0  0  0  0  0  0  0  0
  143.3340   80.1650  222.8250 C   0  0  0  0  0  0  0  0  0  0  0  0
  141.7530   78.5210  222.0790 N   0  0  0  0  0  0  0  0  0  0  0  0
  141.5740   78.4890  220.6620 C   0  0  0  0  0  0  0  0  0  0  0  0
  141.5160   79.5600  219.9680 O   0  0  0  0  0  0  0  0  0  0  0  0
  141.4590   77.1450  220.0380 C   0  0  2  0  0  0  0  0  0  0  0  0
  140.8900   77.2670  218.6140 C   0  0  0  0  0  0  0  0  0  0  0  0
  139.4980   77.7620  218.9480 C   0  0  1  0  0  0  0  0  0  0  0  0
  138.6040   77.5480  217.9080 O   0  0  0  0  0  0  0  0  0  0  0  0
  139.1070   77.0290  220.2190 C   0  0  0  0  0  0  0  0  0  0  0  0
  140.3670   76.3910  220.6300 N   0  0  0  0  0  0  0  0  0  0  0  0
  140.4910   75.2210  221.4660 C   0  0  0  0  0  0  0  0  0  0  0  0
  141.3900   75.1910  222.3440 O   0  0  0  0  0  0  0  0  0  0  0  0
  139.5350   74.1000  221.2380 C   0  0  0  0  0  0  0  0  0  0  0  0
  139.6120   73.1700  222.3480 N   0  0  0  0  0  0  0  0  0  0  0  0
  139.2630   71.8000  222.2470 C   0  0  0  0  0  0  0  0  0  0  0  0
  138.8540   71.3020  221.1470 O   0  0  0  0  0  0  0  0  0  0  0  0
  139.3720   70.9310  223.4290 C   0  0  0  0  0  0  0  0  0  0  0  0
  138.9050   69.6390  223.4470 C   0  0  0  0  0  0  0  0  0  0  0  0
  139.0140   68.8240  224.5680 C   0  0  0  0  0  0  0  0  0  0  0  0
  139.6180   69.3670  225.6760 C   0  0  0  0  0  0  0  0  0  0  0  0
  139.7620   68.6160  226.8310 C   0  0  0  0  0  0  0  0  0  0  0  0
  140.3650   69.1270  227.9720 C   0  0  0  0  0  0  0  0  0  0  0  0
  140.5150   68.4110  229.1080 F   0  0  0  0  0  0  0  0  0  0  0  0
  140.8250   70.4340  227.9180 C   0  0  0  0  0  0  0  0  0  0  0  0
  140.7060   71.2210  226.7970 C   0  0  0  0  0  0  0  0  0  0  0  0
  140.0920   70.6670  225.6720 C   0  0  0  0  0  0  0  0  0  0  0  0
  139.9500   71.3930  224.5500 N   0  0  0  0  0  0  0  0  0  0  0  0
  139.5780   80.7850  222.6630 C   0  0  0  0  0  0  0  0  0  0  0  0
  138.9040   79.3910  223.4630 Cl  0  0  0  0  0  0  0  0  0  0  0  0
  138.7700   81.8490  222.2590 C   0  0  0  0  0  0  0  0  0  0  0  0
  139.2492   85.8811  221.7061 H   0  0  0  0  0  0  0  0  0  0  0  0
  139.9253   85.1455  220.2132 H   0  0  0  0  0  0  0  0  0  0  0  0
  138.2533   85.8020  220.2132 H   0  0  0  0  0  0  0  0  0  0  0  0
  141.0986   83.8559  220.8846 H   0  0  0  0  0  0  0  0  0  0  0  0
  142.5557   81.9889  221.5890 H   0  0  0  0  0  0  0  0  0  0  0  0
  141.5678   79.5901  223.8630 H   0  0  0  0  0  0  0  0  0  0  0  0
  143.6861   80.2622  223.8626 H   0  0  0  0  0  0  0  0  0  0  0  0
  143.9271   79.3970  222.3069 H   0  0  0  0  0  0  0  0  0  0  0  0
  143.4492   81.1285  222.3069 H   0  0  0  0  0  0  0  0  0  0  0  0
  141.7950   77.6040  222.6200 H   0  0  0  0  0  0  0  0  0  0  0  0
  142.4602   76.6993  220.1324 H   0  0  0  0  0  0  0  0  0  0  0  0
  141.4506   77.9941  218.0081 H   0  0  0  0  0  0  0  0  0  0  0  0
  140.9300   76.3476  218.0114 H   0  0  0  0  0  0  0  0  0  0  0  0
  139.4783   78.8515  219.0980 H   0  0  0  0  0  0  0  0  0  0  0  0
  138.2030   76.6510  217.9850 H   0  0  0  0  0  0  0  0  0  0  0  0
  138.7497   77.7309  220.9869 H   0  0  0  0  0  0  0  0  0  0  0  0
  138.2847   76.3132  220.0727 H   0  0  0  0  0  0  0  0  0  0  0  0
  138.5125   74.4987  221.1632 H   0  0  0  0  0  0  0  0  0  0  0  0
  139.7934   73.5802  220.3037 H   0  0  0  0  0  0  0  0  0  0  0  0
  139.9390   73.4900  223.3030 H   0  0  0  0  0  0  0  0  0  0  0  0
  138.4278   69.2350  222.5420 H   0  0  0  0  0  0  0  0  0  0  0  0
  138.6341   67.7917  224.5678 H   0  0  0  0  0  0  0  0  0  0  0  0
  139.3866   67.5821  226.8444 H   0  0  0  0  0  0  0  0  0  0  0  0
  141.3061   70.8597  228.8110 H   0  0  0  0  0  0  0  0  0  0  0  0
  141.0826   72.2545  226.7867 H   0  0  0  0  0  0  0  0  0  0  0  0
  137.6887   81.8001  222.4547 H   0  0  0  0  0  0  0  0  0  0  0  0
  1  2  1  0
  2  3  1  0
  3  4  2  0
  4  5  1  0
  5  6  2  0
  6  7  1  0
  7  8  1  0
  7  9  1  0
  9 10  1  0
 10 11  2  0
 10 12  1  0
 12 13  1  0
 13 14  1  0
 14 15  1  0
 14 16  1  0
 16 17  1  0
 17 18  1  0
 18 19  2  0
 18 20  1  0
 20 21  1  0
 21 22  1  0
 22 23  2  0
 22 24  1  0
 24 25  2  0
 25 26  1  0
 26 27  2  0
 27 28  1  0
 28 29  2  0
 29 30  1  0
 29 31  1  0
 31 32  2  0
 32 33  1  0
 33 34  2  0
  6 35  1  0
 35 36  1  0
 35 37  2  0
 37  3  1  0
 17 12  1  0
 34 24  1  0
 33 27  1  0
  1 38  1  0
  1 39  1  0
  1 40  1  0
  4 41  1  0
  5 42  1  0
  7 43  1  1
  8 44  1  0
  8 45  1  0
  8 46  1  0
  9 47  1  0
 12 48  1  6
 13 49  1  0
 13 50  1  0
 14 51  1  1
 15 52  1  0
 16 53  1  0
 16 54  1  0
 20 55  1  0
 20 56  1  0
 21 57  1  0
 25 58  1  0
 26 59  1  0
 28 60  1  0
 31 61  1  0
 32 62  1  0
 37 63  1  0
M  END
