@<TRIPOS>MOLECULE
*****
 68 72 0 0 0
SMALL
GASTEIGER

@<TRIPOS>ATOM
      1 O         138.8060   70.4110  221.4190 O.2     1  UNL1       -0.2685
      2 C         139.1640   70.9770  222.4980 C.2     1  UNL1        0.2628
      3 N         139.3620   72.3650  222.5570 N.am    1  UNL1       -0.3015
      4 C         139.1600   73.2490  221.3760 C.3     1  UNL1        0.0887
      5 C         140.3010   74.1490  221.2370 C.2     1  UNL1        0.2334
      6 O         140.6750   74.7170  222.3450 O.2     1  UNL1       -0.2739
      7 N         141.0600   74.5030  220.1220 N.am    1  UNL1       -0.2886
      8 C         141.5470   73.3720  219.2290 C.3     1  UNL1        0.0156
      9 C         141.4180   73.9850  217.8370 C.3     1  UNL1       -0.0350
     10 C         140.9880   75.4460  218.0630 C.3     1  UNL1       -0.0243
     11 C         141.5820   75.6320  219.4700 C.3     1  UNL1        0.1022
     12 C         141.2870   76.9810  219.8940 C.2     1  UNL1        0.2338
     13 O         140.8860   77.9550  219.2440 O.2     1  UNL1       -0.2738
     14 N         141.4900   77.2570  221.3180 N.am    1  UNL1       -0.3109
     15 C         141.2290   78.5500  221.8570 C.3     1  UNL1        0.0234
     16 C         141.2070   78.6670  223.3380 C.3     1  UNL1       -0.0312
     17 C         141.8540   79.9450  223.8290 C.3     1  UNL1       -0.0141
     18 C         141.4080   81.1750  223.0860 C.3     1  UNL1        0.1003
     19 O         140.1610   81.6160  223.5170 O.3     1  UNL1       -0.4887
     20 C         138.9650   80.9650  223.4940 C.ar    1  UNL1        0.1238
     21 C         138.1110   81.1540  224.5850 C.ar    1  UNL1       -0.0018
     22 C         136.8690   80.5060  224.6130 C.ar    1  UNL1        0.0310
     23 N         136.4820   79.7070  223.6070 N.ar    1  UNL1       -0.2630
     24 C         137.2690   79.5120  222.5630 C.ar    1  UNL1        0.0310
     25 C         138.5120   80.1350  222.4950 C.ar    1  UNL1       -0.0018
     26 C         141.4690   80.9360  221.5870 C.3     1  UNL1       -0.0141
     27 C         142.1710   79.6150  221.2910 C.3     1  UNL1       -0.0312
     28 C         139.3810   70.1870  223.7270 C.ar    1  UNL1        0.1260
     29 C         138.9680   68.8590  223.7840 C.ar    1  UNL1       -0.0306
     30 C         139.1950   68.1680  224.9580 C.ar    1  UNL1       -0.0503
     31 C         139.8040   68.7500  226.0430 C.ar    1  UNL1        0.0031
     32 C         140.0530   68.1140  227.2350 C.ar    1  UNL1       -0.0173
     33 C         140.6680   68.7880  228.2670 C.ar    1  UNL1        0.1241
     34 F         140.9180   68.1670  229.4460 F       1  UNL1       -0.2055
     35 C         141.0620   70.1030  228.1730 C.ar    1  UNL1       -0.0244
     36 C         140.8130   70.7570  226.9630 C.ar    1  UNL1       -0.0330
     37 C         140.1950   70.0690  225.9390 C.ar    1  UNL1        0.0720
     38 N         139.9770   70.7460  224.7980 N.ar    1  UNL1       -0.2421
     39 H         139.6620   72.7980  223.4660 H       1  UNL1        0.1496
     40 H         139.0670   72.6331  220.4694 H       1  UNL1        0.0558
     41 H         138.2430   73.8405  221.5151 H       1  UNL1        0.0558
     42 H         142.5908   73.1073  219.4535 H       1  UNL1        0.0465
     43 H         140.9835   72.4356  219.3540 H       1  UNL1        0.0465
     44 H         142.3828   73.9464  217.3101 H       1  UNL1        0.0281
     45 H         140.6903   73.4388  217.2188 H       1  UNL1        0.0281
     46 H         141.4368   76.1304  217.3280 H       1  UNL1        0.0288
     47 H         139.9122   75.6524  217.9632 H       1  UNL1        0.0288
     48 H         142.6676   75.6218  219.6469 H       1  UNL1        0.0597
     49 H         141.8250   76.5090  221.9610 H       1  UNL1        0.1490
     50 H         140.1939   78.7253  221.5286 H       1  UNL1        0.0498
     51 H         141.7474   77.8106  223.7675 H       1  UNL1        0.0284
     52 H         140.1541   78.6821  223.6562 H       1  UNL1        0.0284
     53 H         142.9439   79.8477  223.7162 H       1  UNL1        0.0301
     54 H         141.5497   80.0760  224.8779 H       1  UNL1        0.0301
     55 H         142.1054   81.9945  223.3141 H       1  UNL1        0.0733
     56 H         138.4126   81.8078  225.4166 H       1  UNL1        0.0669
     57 H         136.2004   80.6547  225.4737 H       1  UNL1        0.0830
     58 H         136.9403   78.8547  221.7445 H       1  UNL1        0.0830
     59 H         139.1505   79.9584  221.6169 H       1  UNL1        0.0669
     60 H         142.0247   81.7572  221.1107 H       1  UNL1        0.0301
     61 H         140.4444   80.8944  221.1888 H       1  UNL1        0.0301
     62 H         143.1503   79.5739  221.7903 H       1  UNL1        0.0284
     63 H         142.3668   79.4748  220.2177 H       1  UNL1        0.0284
     64 H         138.4784   68.3772  222.9248 H       1  UNL1        0.0641
     65 H         138.8777   67.1170  225.0265 H       1  UNL1        0.0625
     66 H         139.7600   67.0619  227.3659 H       1  UNL1        0.0653
     67 H         141.5515   70.6171  229.0133 H       1  UNL1        0.0647
     68 H         141.1065   71.8086  226.8286 H       1  UNL1        0.0640
@<TRIPOS>BOND
     1     1     2    2
     2     2     3   am
     3     3     4    1
     4     4     5    1
     5     5     6    2
     6     5     7   am
     7     7     8    1
     8     8     9    1
     9     9    10    1
    10    10    11    1
    11    11    12    1
    12    12    13    2
    13    12    14   am
    14    14    15    1
    15    15    16    1
    16    16    17    1
    17    17    18    1
    18    18    19    1
    19    19    20    1
    20    20    21   ar
    21    21    22   ar
    22    22    23   ar
    23    23    24   ar
    24    24    25   ar
    25    18    26    1
    26    26    27    1
    27     2    28    1
    28    28    29   ar
    29    29    30   ar
    30    30    31   ar
    31    31    32   ar
    32    32    33   ar
    33    33    34    1
    34    33    35   ar
    35    35    36   ar
    36    36    37   ar
    37    37    38   ar
    38    11     7    1
    39    27    15    1
    40    38    28   ar
    41    25    20   ar
    42    37    31   ar
    43     3    39    1
    44     4    40    1
    45     4    41    1
    46     8    42    1
    47     8    43    1
    48     9    44    1
    49     9    45    1
    50    10    46    1
    51    10    47    1
    52    11    48    1
    53    14    49    1
    54    15    50    1
    55    16    51    1
    56    16    52    1
    57    17    53    1
    58    17    54    1
    59    18    55    1
    60    21    56    1
    61    22    57    1
    62    24    58    1
    63    25    59    1
    64    26    60    1
    65    26    61    1
    66    27    62    1
    67    27    63    1
    68    29    64    1
    69    30    65    1
    70    32    66    1
    71    35    67    1
    72    36    68    1
