
     RDKit          3D

 61 65  0  0  0  0  0  0  0  0999 V2000
  144.7730   73.9740  220.1160 N   0  0  0  0  0  0  0  0  0  0  0  0
  144.9390   72.5680  219.8360 C   0  0  0  0  0  0  0  0  0  0  0  0
  145.8020   72.2600  218.9880 O   0  0  0  0  0  0  0  0  0  0  0  0
  144.0770   71.6330  220.5780 C   0  0  0  0  0  0  0  0  0  0  0  0
  142.9310   71.0690  219.7800 C   0  0  0  0  0  0  0  0  0  0  0  0
  141.6460   71.2910  220.4960 C   0  0  0  0  0  0  0  0  0  0  0  0
  141.3480   72.7260  220.7360 C   0  0  0  0  0  0  0  0  0  0  0  0
  141.8570   73.7280  219.9010 C   0  0  0  0  0  0  0  0  0  0  0  0
  141.5980   75.0180  220.1280 N   0  0  0  0  0  0  0  0  0  0  0  0
  140.8310   75.4250  221.1780 C   0  0  0  0  0  0  0  0  0  0  0  0
  140.5550   76.7970  221.4220 N   0  0  0  0  0  0  0  0  0  0  0  0
  141.4050   77.8480  220.8820 C   0  0  0  0  0  0  0  0  0  0  0  0
  141.8740   78.6460  222.1000 C   0  0  0  0  0  0  0  0  0  0  0  0
  140.6390   79.2090  222.7320 C   0  0  0  0  0  0  0  0  0  0  0  0
  140.7320   80.4980  223.2590 C   0  0  0  0  0  0  0  0  0  0  0  0
  139.5910   81.0160  223.8420 C   0  0  0  0  0  0  0  0  0  0  0  0
  138.4090   80.3010  223.9040 C   0  0  0  0  0  0  0  0  0  0  0  0
  138.3350   79.0120  223.3710 C   0  0  0  0  0  0  0  0  0  0  0  0
  139.4640   78.5050  222.7970 C   0  0  0  0  0  0  0  0  0  0  0  0
  139.4090   77.1290  222.2200 C   0  0  0  0  0  0  0  0  0  0  0  0
  140.3350   74.4860  221.9870 N   0  0  0  0  0  0  0  0  0  0  0  0
  140.5760   73.1530  221.7910 C   0  0  0  0  0  0  0  0  0  0  0  0
  139.9660   72.2830  222.7320 N   0  0  0  0  0  0  0  0  0  0  0  0
  138.6540   71.7350  222.6330 C   0  0  0  0  0  0  0  0  0  0  0  0
  138.6930   70.2180  222.8430 C   0  0  0  0  0  0  0  0  0  0  0  0
  139.2170   69.9660  224.2340 C   0  0  0  0  0  0  0  0  0  0  0  0
  138.7240   68.9330  225.0110 C   0  0  0  0  0  0  0  0  0  0  0  0
  139.2060   68.7130  226.2820 C   0  0  0  0  0  0  0  0  0  0  0  0
  140.2030   69.5710  226.7390 C   0  0  0  0  0  0  0  0  0  0  0  0
  140.6900   70.6050  225.9490 C   0  0  0  0  0  0  0  0  0  0  0  0
  140.1980   70.8230  224.6660 C   0  0  0  0  0  0  0  0  0  0  0  0
  140.7650   71.9320  223.9010 C   0  0  0  0  0  0  0  0  0  0  0  0
  145.6440   74.5480  220.1700 H   0  0  0  0  0  0  0  0  0  0  0  0
  143.8310   74.4020  220.2570 H   0  0  0  0  0  0  0  0  0  0  0  0
  144.6989   70.7946  220.9249 H   0  0  0  0  0  0  0  0  0  0  0  0
  143.6298   72.2083  221.4020 H   0  0  0  0  0  0  0  0  0  0  0  0
  142.8913   71.5669  218.7999 H   0  0  0  0  0  0  0  0  0  0  0  0
  143.0849   69.9880  219.6469 H   0  0  0  0  0  0  0  0  0  0  0  0
  140.8319   70.8612  219.8938 H   0  0  0  0  0  0  0  0  0  0  0  0
  141.7333   70.8072  221.4800 H   0  0  0  0  0  0  0  0  0  0  0  0
  142.4826   73.4469  219.0410 H   0  0  0  0  0  0  0  0  0  0  0  0
  142.2646   77.4144  220.3500 H   0  0  0  0  0  0  0  0  0  0  0  0
  140.8702   78.4789  220.1568 H   0  0  0  0  0  0  0  0  0  0  0  0
  142.3984   77.9877  222.8082 H   0  0  0  0  0  0  0  0  0  0  0  0
  142.5751   79.4429  221.8111 H   0  0  0  0  0  0  0  0  0  0  0  0
  141.6681   81.0738  223.2126 H   0  0  0  0  0  0  0  0  0  0  0  0
  139.6242   82.0287  224.2701 H   0  0  0  0  0  0  0  0  0  0  0  0
  137.5223   80.7497  224.3756 H   0  0  0  0  0  0  0  0  0  0  0  0
  137.4033   78.4288  223.4124 H   0  0  0  0  0  0  0  0  0  0  0  0
  139.3396   76.4071  223.0470 H   0  0  0  0  0  0  0  0  0  0  0  0
  138.5313   77.0904  221.5580 H   0  0  0  0  0  0  0  0  0  0  0  0
  138.0116   72.1910  223.4007 H   0  0  0  0  0  0  0  0  0  0  0  0
  138.2529   71.9468  221.6309 H   0  0  0  0  0  0  0  0  0  0  0  0
  137.6811   69.7987  222.7412 H   0  0  0  0  0  0  0  0  0  0  0  0
  139.3400   69.7397  222.0929 H   0  0  0  0  0  0  0  0  0  0  0  0
  137.9367   68.2788  224.6082 H   0  0  0  0  0  0  0  0  0  0  0  0
  138.8204   67.8954  226.9088 H   0  0  0  0  0  0  0  0  0  0  0  0
  140.6146   69.4268  227.7489 H   0  0  0  0  0  0  0  0  0  0  0  0
  141.4781   71.2625  226.3447 H   0  0  0  0  0  0  0  0  0  0  0  0
  140.8327   72.8124  224.5570 H   0  0  0  0  0  0  0  0  0  0  0  0
  141.7540   71.6126  223.5408 H   0  0  0  0  0  0  0  0  0  0  0  0
  1  2  1  0
  2  3  2  0
  2  4  1  0
  4  5  1  0
  5  6  1  0
  6  7  1  0
  7  8  2  0
  8  9  1  0
  9 10  2  0
 10 11  1  0
 11 12  1  0
 12 13  1  0
 13 14  1  0
 14 15  2  0
 15 16  1  0
 16 17  2  0
 17 18  1  0
 18 19  2  0
 19 20  1  0
 10 21  1  0
 21 22  2  0
 22 23  1  0
 23 24  1  0
 24 25  1  0
 25 26  1  0
 26 27  2  0
 27 28  1  0
 28 29  2  0
 29 30  1  0
 30 31  2  0
 31 32  1  0
 22  7  1  0
 32 23  1  0
 20 11  1  0
 31 26  1  0
 19 14  1  0
  1 33  1  0
  1 34  1  0
  4 35  1  0
  4 36  1  0
  5 37  1  0
  5 38  1  0
  6 39  1  0
  6 40  1  0
  8 41  1  0
 12 42  1  0
 12 43  1  0
 13 44  1  0
 13 45  1  0
 15 46  1  0
 16 47  1  0
 17 48  1  0
 18 49  1  0
 20 50  1  0
 20 51  1  0
 24 52  1  0
 24 53  1  0
 25 54  1  0
 25 55  1  0
 27 56  1  0
 28 57  1  0
 29 58  1  0
 30 59  1  0
 32 60  1  0
 32 61  1  0
M  END
>  <smiles>  (1) 
NC(=O)CCCc1cnc(N2CCc3ccccc3C2)nc1N1CCc2ccccc2C1

>  <score_type>  (1) 
oracle

>  <origin>  (1) 
autodockgpu

>  <m_score__min__energy>  (1) 
-9.2200000000000006

>  <m_primary>  (1) 
energy

>  <rmsd>  (1) 
9.80609420421604

>  <m_score__min__rmsd>  (1) 
9.80609420421604

>  <meeko>  (1) 
{"free_energy": -8.61, "intermolecular_energy": -10.4, "internal_energy": -1.51, "cluster_size": 27, "cluster_id": 1, "rank_in_cluster": 19}

>  <energy>  (1) 
-9.22

>  <cluster_rmsd>  (1) 
0.0

>  <cluster>  (1) 
1

$$$$

     RDKit          3D

 61 65  0  0  0  0  0  0  0  0999 V2000
  142.9250   77.4680  219.4900 N   0  0  0  0  0  0  0  0  0  0  0  0
  142.5810   76.1120  219.1370 C   0  0  0  0  0  0  0  0  0  0  0  0
  143.2180   75.2020  219.7080 O   0  0  0  0  0  0  0  0  0  0  0  0
  141.5140   75.9310  218.1390 C   0  0  0  0  0  0  0  0  0  0  0  0
  140.9520   74.5350  218.0670 C   0  0  0  0  0  0  0  0  0  0  0  0
  139.6940   74.4470  218.8560 C   0  0  0  0  0  0  0  0  0  0  0  0
  139.8270   73.6240  220.0850 C   0  0  0  0  0  0  0  0  0  0  0  0
  139.9710   72.2330  220.0210 C   0  0  0  0  0  0  0  0  0  0  0  0
  140.0770   71.4950  221.1290 N   0  0  0  0  0  0  0  0  0  0  0  0
  140.0490   72.0520  222.3720 C   0  0  0  0  0  0  0  0  0  0  0  0
  140.1610   71.2690  223.5520 N   0  0  0  0  0  0  0  0  0  0  0  0
  139.7220   69.8820  223.5830 C   0  0  0  0  0  0  0  0  0  0  0  0
  138.6880   69.8190  224.7090 C   0  0  0  0  0  0  0  0  0  0  0  0
  139.4110   70.1940  225.9650 C   0  0  0  0  0  0  0  0  0  0  0  0
  139.0600   69.5050  227.1260 C   0  0  0  0  0  0  0  0  0  0  0  0
  139.7300   69.8530  228.2840 C   0  0  0  0  0  0  0  0  0  0  0  0
  140.7020   70.8350  228.3020 C   0  0  0  0  0  0  0  0  0  0  0  0
  141.0410   71.5150  227.1290 C   0  0  0  0  0  0  0  0  0  0  0  0
  140.3770   71.1680  225.9890 C   0  0  0  0  0  0  0  0  0  0  0  0
  140.7220   71.8800  224.7230 C   0  0  0  0  0  0  0  0  0  0  0  0
  139.9130   73.3790  222.4560 N   0  0  0  0  0  0  0  0  0  0  0  0
  139.8010   74.1710  221.3460 C   0  0  0  0  0  0  0  0  0  0  0  0
  139.6750   75.5610  221.6060 N   0  0  0  0  0  0  0  0  0  0  0  0
  138.4910   76.3370  221.4410 C   0  0  0  0  0  0  0  0  0  0  0  0
  138.2030   77.1480  222.7080 C   0  0  0  0  0  0  0  0  0  0  0  0
  139.3650   78.0830  222.9210 C   0  0  0  0  0  0  0  0  0  0  0  0
  139.1770   79.3640  223.4080 C   0  0  0  0  0  0  0  0  0  0  0  0
  140.2440   80.2130  223.5970 C   0  0  0  0  0  0  0  0  0  0  0  0
  141.5080   79.7220  223.2780 C   0  0  0  0  0  0  0  0  0  0  0  0
  141.6850   78.4340  222.7890 C   0  0  0  0  0  0  0  0  0  0  0  0
  140.6020   77.5820  222.5990 C   0  0  0  0  0  0  0  0  0  0  0  0
  140.8750   76.2420  222.0820 C   0  0  0  0  0  0  0  0  0  0  0  0
  143.1190   77.6550  220.4990 H   0  0  0  0  0  0  0  0  0  0  0  0
  142.9800   78.2280  218.7760 H   0  0  0  0  0  0  0  0  0  0  0  0
  140.6924   76.6192  218.3867 H   0  0  0  0  0  0  0  0  0  0  0  0
  141.9674   76.1352  217.1578 H   0  0  0  0  0  0  0  0  0  0  0  0
  140.7413   74.2817  217.0175 H   0  0  0  0  0  0  0  0  0  0  0  0
  141.6869   73.8300  218.4829 H   0  0  0  0  0  0  0  0  0  0  0  0
  139.3932   75.4640  219.1479 H   0  0  0  0  0  0  0  0  0  0  0  0
  138.9427   73.9594  218.2174 H   0  0  0  0  0  0  0  0  0  0  0  0
  139.9973   71.7382  219.0389 H   0  0  0  0  0  0  0  0  0  0  0  0
  139.2657   69.5994  222.6228 H   0  0  0  0  0  0  0  0  0  0  0  0
  140.5584   69.1875  223.7508 H   0  0  0  0  0  0  0  0  0  0  0  0
  137.8696   70.5278  224.5146 H   0  0  0  0  0  0  0  0  0  0  0  0
  138.2435   68.8159  224.7879 H   0  0  0  0  0  0  0  0  0  0  0  0
  138.2871   68.7223  227.1204 H   0  0  0  0  0  0  0  0  0  0  0  0
  139.4816   69.3319  229.2204 H   0  0  0  0  0  0  0  0  0  0  0  0
  141.2117   71.0829  229.2447 H   0  0  0  0  0  0  0  0  0  0  0  0
  141.8126   72.2989  227.1252 H   0  0  0  0  0  0  0  0  0  0  0  0
  140.3475   72.9121  224.7907 H   0  0  0  0  0  0  0  0  0  0  0  0
  141.8161   71.8396  224.6167 H   0  0  0  0  0  0  0  0  0  0  0  0
  138.6237   77.0247  220.5928 H   0  0  0  0  0  0  0  0  0  0  0  0
  137.6448   75.6605  221.2504 H   0  0  0  0  0  0  0  0  0  0  0  0
  137.2750   77.7249  222.5818 H   0  0  0  0  0  0  0  0  0  0  0  0
  138.0779   76.4818  223.5743 H   0  0  0  0  0  0  0  0  0  0  0  0
  138.1604   79.7092  223.6477 H   0  0  0  0  0  0  0  0  0  0  0  0
  140.1047   81.2337  223.9827 H   0  0  0  0  0  0  0  0  0  0  0  0
  142.3864   80.3694  223.4166 H   0  0  0  0  0  0  0  0  0  0  0  0
  142.6988   78.0818  222.5479 H   0  0  0  0  0  0  0  0  0  0  0  0
  141.5854   76.3263  221.2464 H   0  0  0  0  0  0  0  0  0  0  0  0
  141.2858   75.6462  222.9104 H   0  0  0  0  0  0  0  0  0  0  0  0
  1  2  1  0
  2  3  2  0
  2  4  1  0
  4  5  1  0
  5  6  1  0
  6  7  1  0
  7  8  2  0
  8  9  1  0
  9 10  2  0
 10 11  1  0
 11 12  1  0
 12 13  1  0
 13 14  1  0
 14 15  2  0
 15 16  1  0
 16 17  2  0
 17 18  1  0
 18 19  2  0
 19 20  1  0
 10 21  1  0
 21 22  2  0
 22 23  1  0
 23 24  1  0
 24 25  1  0
 25 26  1  0
 26 27  2  0
 27 28  1  0
 28 29  2  0
 29 30  1  0
 30 31  2  0
 31 32  1  0
 22  7  1  0
 32 23  1  0
 20 11  1  0
 31 26  1  0
 19 14  1  0
  1 33  1  0
  1 34  1  0
  4 35  1  0
  4 36  1  0
  5 37  1  0
  5 38  1  0
  6 39  1  0
  6 40  1  0
  8 41  1  0
 12 42  1  0
 12 43  1  0
 13 44  1  0
 13 45  1  0
 15 46  1  0
 16 47  1  0
 17 48  1  0
 18 49  1  0
 20 50  1  0
 20 51  1  0
 24 52  1  0
 24 53  1  0
 25 54  1  0
 25 55  1  0
 27 56  1  0
 28 57  1  0
 29 58  1  0
 30 59  1  0
 32 60  1  0
 32 61  1  0
M  END
>  <smiles>  (2) 
NC(=O)CCCc1cnc(N2CCc3ccccc3C2)nc1N1CCc2ccccc2C1

>  <score_type>  (2) 
oracle

>  <origin>  (2) 
autodockgpu

>  <m_score__min__energy>  (2) 
-9.2200000000000006

>  <m_primary>  (2) 
energy

>  <rmsd>  (2) 
3.444435566635862

>  <m_score__min__rmsd>  (2) 
3.444435566635862

>  <meeko>  (2) 
{"free_energy": -8.37, "intermolecular_energy": -10.16, "internal_energy": -1.6, "cluster_size": 6, "cluster_id": 3, "rank_in_cluster": 3}

>  <energy>  (2) 
-9.11

>  <cluster_rmsd>  (2) 
1.71

>  <cluster>  (2) 
1

$$$$

     RDKit          3D

 61 65  0  0  0  0  0  0  0  0999 V2000
  143.2870   76.7820  219.8490 N   0  0  0  0  0  0  0  0  0  0  0  0
  142.8990   75.5000  219.3120 C   0  0  0  0  0  0  0  0  0  0  0  0
  143.1400   74.4970  220.0160 O   0  0  0  0  0  0  0  0  0  0  0  0
  142.2560   75.4970  217.9870 C   0  0  0  0  0  0  0  0  0  0  0  0
  141.1380   74.4990  217.8350 C   0  0  0  0  0  0  0  0  0  0  0  0
  140.0570   74.7850  218.8160 C   0  0  0  0  0  0  0  0  0  0  0  0
  140.0960   73.9000  220.0080 C   0  0  0  0  0  0  0  0  0  0  0  0
  140.2520   72.5140  219.8850 C   0  0  0  0  0  0  0  0  0  0  0  0
  140.2730   71.7200  220.9590 N   0  0  0  0  0  0  0  0  0  0  0  0
  140.1440   72.2130  222.2220 C   0  0  0  0  0  0  0  0  0  0  0  0
  140.1660   71.3710  223.3660 N   0  0  0  0  0  0  0  0  0  0  0  0
  139.6250   70.0200  223.3210 C   0  0  0  0  0  0  0  0  0  0  0  0
  138.5590   69.9830  224.4170 C   0  0  0  0  0  0  0  0  0  0  0  0
  139.2730   70.2450  225.7060 C   0  0  0  0  0  0  0  0  0  0  0  0
  138.8410   69.5310  226.8240 C   0  0  0  0  0  0  0  0  0  0  0  0
  139.5030   69.7750  228.0130 C   0  0  0  0  0  0  0  0  0  0  0  0
  140.5430   70.6800  228.1010 C   0  0  0  0  0  0  0  0  0  0  0  0
  140.9630   71.3860  226.9710 C   0  0  0  0  0  0  0  0  0  0  0  0
  140.3070   71.1420  225.8000 C   0  0  0  0  0  0  0  0  0  0  0  0
  140.7380   71.8840  224.5780 C   0  0  0  0  0  0  0  0  0  0  0  0
  139.9950   73.5330  222.3630 N   0  0  0  0  0  0  0  0  0  0  0  0
  139.9680   74.3820  221.2900 C   0  0  0  0  0  0  0  0  0  0  0  0
  139.8150   75.7560  221.6100 N   0  0  0  0  0  0  0  0  0  0  0  0
  138.6200   76.5190  221.4610 C   0  0  0  0  0  0  0  0  0  0  0  0
  138.3000   77.2680  222.7580 C   0  0  0  0  0  0  0  0  0  0  0  0
  139.4430   78.2110  223.0310 C   0  0  0  0  0  0  0  0  0  0  0  0
  139.2260   79.4660  223.5720 C   0  0  0  0  0  0  0  0  0  0  0  0
  140.2760   80.3230  223.8150 C   0  0  0  0  0  0  0  0  0  0  0  0
  141.5520   79.8670  223.4940 C   0  0  0  0  0  0  0  0  0  0  0  0
  141.7580   78.6060  222.9510 C   0  0  0  0  0  0  0  0  0  0  0  0
  140.6930   77.7450  222.7070 C   0  0  0  0  0  0  0  0  0  0  0  0
  140.9950   76.4340  222.1350 C   0  0  0  0  0  0  0  0  0  0  0  0
  143.1240   76.9320  220.8700 H   0  0  0  0  0  0  0  0  0  0  0  0
  143.7100   77.5260  219.2520 H   0  0  0  0  0  0  0  0  0  0  0  0
  141.8471   76.5012  217.8018 H   0  0  0  0  0  0  0  0  0  0  0  0
  143.0329   75.2075  217.2640 H   0  0  0  0  0  0  0  0  0  0  0  0
  140.7298   74.5632  216.8156 H   0  0  0  0  0  0  0  0  0  0  0  0
  141.5315   73.4884  218.0191 H   0  0  0  0  0  0  0  0  0  0  0  0
  140.1573   75.8277  219.1519 H   0  0  0  0  0  0  0  0  0  0  0  0
  139.0989   74.6037  218.3069 H   0  0  0  0  0  0  0  0  0  0  0  0
  140.3594   72.0702  218.8842 H   0  0  0  0  0  0  0  0  0  0  0  0
  139.1757   69.8161  222.3378 H   0  0  0  0  0  0  0  0  0  0  0  0
  140.4032   69.2582  223.4761 H   0  0  0  0  0  0  0  0  0  0  0  0
  137.8006   70.7591  224.2371 H   0  0  0  0  0  0  0  0  0  0  0  0
  138.0398   69.0135  224.4373 H   0  0  0  0  0  0  0  0  0  0  0  0
  138.0136   68.8087  226.7625 H   0  0  0  0  0  0  0  0  0  0  0  0
  139.1918   69.2315  228.9173 H   0  0  0  0  0  0  0  0  0  0  0  0
  141.0434   70.8457  229.0665 H   0  0  0  0  0  0  0  0  0  0  0  0
  141.7897   72.1098  227.0234 H   0  0  0  0  0  0  0  0  0  0  0  0
  140.4385   72.9369  224.6861 H   0  0  0  0  0  0  0  0  0  0  0  0
  141.8287   71.7672  224.4961 H   0  0  0  0  0  0  0  0  0  0  0  0
  138.7532   77.2458  220.6461 H   0  0  0  0  0  0  0  0  0  0  0  0
  137.7884   75.8379  221.2276 H   0  0  0  0  0  0  0  0  0  0  0  0
  137.3646   77.8352  222.6430 H   0  0  0  0  0  0  0  0  0  0  0  0
  138.1732   76.5617  223.5917 H   0  0  0  0  0  0  0  0  0  0  0  0
  138.2003   79.7835  223.8113 H   0  0  0  0  0  0  0  0  0  0  0  0
  140.1141   81.3231  224.2435 H   0  0  0  0  0  0  0  0  0  0  0  0
  142.4174   80.5215  223.6750 H   0  0  0  0  0  0  0  0  0  0  0  0
  142.7811   78.2821  222.7095 H   0  0  0  0  0  0  0  0  0  0  0  0
  141.7166   76.5669  221.3155 H   0  0  0  0  0  0  0  0  0  0  0  0
  141.4020   75.8082  222.9429 H   0  0  0  0  0  0  0  0  0  0  0  0
  1  2  1  0
  2  3  2  0
  2  4  1  0
  4  5  1  0
  5  6  1  0
  6  7  1  0
  7  8  2  0
  8  9  1  0
  9 10  2  0
 10 11  1  0
 11 12  1  0
 12 13  1  0
 13 14  1  0
 14 15  2  0
 15 16  1  0
 16 17  2  0
 17 18  1  0
 18 19  2  0
 19 20  1  0
 10 21  1  0
 21 22  2  0
 22 23  1  0
 23 24  1  0
 24 25  1  0
 25 26  1  0
 26 27  2  0
 27 28  1  0
 28 29  2  0
 29 30  1  0
 30 31  2  0
 31 32  1  0
 22  7  1  0
 32 23  1  0
 20 11  1  0
 31 26  1  0
 19 14  1  0
  1 33  1  0
  1 34  1  0
  4 35  1  0
  4 36  1  0
  5 37  1  0
  5 38  1  0
  6 39  1  0
  6 40  1  0
  8 41  1  0
 12 42  1  0
 12 43  1  0
 13 44  1  0
 13 45  1  0
 15 46  1  0
 16 47  1  0
 17 48  1  0
 18 49  1  0
 20 50  1  0
 20 51  1  0
 24 52  1  0
 24 53  1  0
 25 54  1  0
 25 55  1  0
 27 56  1  0
 28 57  1  0
 29 58  1  0
 30 59  1  0
 32 60  1  0
 32 61  1  0
M  END
>  <smiles>  (3) 
NC(=O)CCCc1cnc(N2CCc3ccccc3C2)nc1N1CCc2ccccc2C1

>  <score_type>  (3) 
oracle

>  <origin>  (3) 
autodockgpu

>  <m_score__min__energy>  (3) 
-9.2200000000000006

>  <m_primary>  (3) 
energy

>  <rmsd>  (3) 
3.437166644548224

>  <m_score__min__rmsd>  (3) 
3.437166644548224

>  <meeko>  (3) 
{"free_energy": -8.74, "intermolecular_energy": -10.53, "internal_energy": -1.56, "cluster_size": 27, "cluster_id": 1, "rank_in_cluster": 13}

>  <energy>  (3) 
-9.03

>  <cluster_rmsd>  (3) 
1.67

>  <cluster>  (3) 
1

$$$$

     RDKit          3D

 61 65  0  0  0  0  0  0  0  0999 V2000
  145.0000   74.0310  220.0270 N   0  0  0  0  0  0  0  0  0  0  0  0
  145.0930   72.6450  219.6390 C   0  0  0  0  0  0  0  0  0  0  0  0
  145.9130   72.3640  218.7400 O   0  0  0  0  0  0  0  0  0  0  0  0
  144.2130   71.6940  220.3400 C   0  0  0  0  0  0  0  0  0  0  0  0
  142.9330   71.3720  219.6140 C   0  0  0  0  0  0  0  0  0  0  0  0
  141.7730   71.5060  220.5350 C   0  0  0  0  0  0  0  0  0  0  0  0
  141.4560   72.9150  220.8800 C   0  0  0  0  0  0  0  0  0  0  0  0
  141.9940   73.9840  220.1540 C   0  0  0  0  0  0  0  0  0  0  0  0
  141.7180   75.2500  220.4760 N   0  0  0  0  0  0  0  0  0  0  0  0
  140.9040   75.5670  221.5210 C   0  0  0  0  0  0  0  0  0  0  0  0
  140.6090   76.9130  221.8660 N   0  0  0  0  0  0  0  0  0  0  0  0
  139.5220   77.6380  221.2250 C   0  0  0  0  0  0  0  0  0  0  0  0
  140.1770   78.8760  220.6110 C   0  0  0  0  0  0  0  0  0  0  0  0
  140.7570   79.6530  221.7520 C   0  0  0  0  0  0  0  0  0  0  0  0
  140.6730   81.0440  221.6760 C   0  0  0  0  0  0  0  0  0  0  0  0
  141.2090   81.7580  222.7310 C   0  0  0  0  0  0  0  0  0  0  0  0
  141.8010   81.1360  223.8130 C   0  0  0  0  0  0  0  0  0  0  0  0
  141.8760   79.7420  223.8720 C   0  0  0  0  0  0  0  0  0  0  0  0
  141.3470   79.0410  222.8290 C   0  0  0  0  0  0  0  0  0  0  0  0
  141.4140   77.5500  222.8690 C   0  0  0  0  0  0  0  0  0  0  0  0
  140.3790   74.5620  222.2280 N   0  0  0  0  0  0  0  0  0  0  0  0
  140.6360   73.2510  221.9320 C   0  0  0  0  0  0  0  0  0  0  0  0
  139.9920   72.3040  222.7710 N   0  0  0  0  0  0  0  0  0  0  0  0
  138.7180   71.7100  222.5330 C   0  0  0  0  0  0  0  0  0  0  0  0
  138.8080   70.1870  222.6620 C   0  0  0  0  0  0  0  0  0  0  0  0
  139.2280   69.8760  224.0760 C   0  0  0  0  0  0  0  0  0  0  0  0
  138.7200   68.7810  224.7520 C   0  0  0  0  0  0  0  0  0  0  0  0
  139.1070   68.5070  226.0440 C   0  0  0  0  0  0  0  0  0  0  0  0
  140.0250   69.3760  226.6290 C   0  0  0  0  0  0  0  0  0  0  0  0
  140.5270   70.4730  225.9410 C   0  0  0  0  0  0  0  0  0  0  0  0
  140.1310   70.7450  224.6350 C   0  0  0  0  0  0  0  0  0  0  0  0
  140.7090   71.9180  223.9810 C   0  0  0  0  0  0  0  0  0  0  0  0
  145.8980   74.5610  220.0920 H   0  0  0  0  0  0  0  0  0  0  0  0
  144.0840   74.4870  220.2330 H   0  0  0  0  0  0  0  0  0  0  0  0
  144.7691   70.7564  220.4872 H   0  0  0  0  0  0  0  0  0  0  0  0
  143.9226   72.1763  221.2850 H   0  0  0  0  0  0  0  0  0  0  0  0
  142.8092   72.0667  218.7701 H   0  0  0  0  0  0  0  0  0  0  0  0
  142.9804   70.3371  219.2444 H   0  0  0  0  0  0  0  0  0  0  0  0
  140.8914   71.0577  220.0535 H   0  0  0  0  0  0  0  0  0  0  0  0
  142.0397   70.9937  221.4712 H   0  0  0  0  0  0  0  0  0  0  0  0
  142.6573   73.7769  219.3013 H   0  0  0  0  0  0  0  0  0  0  0  0
  139.0540   77.0210  220.4438 H   0  0  0  0  0  0  0  0  0  0  0  0
  138.7266   77.9027  221.9372 H   0  0  0  0  0  0  0  0  0  0  0  0
  140.9707   78.5789  219.9098 H   0  0  0  0  0  0  0  0  0  0  0  0
  139.4478   79.4766  220.0475 H   0  0  0  0  0  0  0  0  0  0  0  0
  140.2031   81.5475  220.8183 H   0  0  0  0  0  0  0  0  0  0  0  0
  141.1627   82.8568  222.7083 H   0  0  0  0  0  0  0  0  0  0  0  0
  142.2156   81.7413  224.6326 H   0  0  0  0  0  0  0  0  0  0  0  0
  142.3434   79.2303  224.7262 H   0  0  0  0  0  0  0  0  0  0  0  0
  142.4604   77.2445  222.7212 H   0  0  0  0  0  0  0  0  0  0  0  0
  141.0212   77.2349  223.8470 H   0  0  0  0  0  0  0  0  0  0  0  0
  137.9957   72.0942  223.2683 H   0  0  0  0  0  0  0  0  0  0  0  0
  138.3903   71.9635  221.5140 H   0  0  0  0  0  0  0  0  0  0  0  0
  137.8277   69.7338  222.4531 H   0  0  0  0  0  0  0  0  0  0  0  0
  139.5346   69.7796  221.9436 H   0  0  0  0  0  0  0  0  0  0  0  0
  137.9973   68.1207  224.2502 H   0  0  0  0  0  0  0  0  0  0  0  0
  138.7087   67.6396  226.5908 H   0  0  0  0  0  0  0  0  0  0  0  0
  140.3602   69.1891  227.6599 H   0  0  0  0  0  0  0  0  0  0  0  0
  141.2496   71.1379  226.4367 H   0  0  0  0  0  0  0  0  0  0  0  0
  140.6851   72.7610  224.6872 H   0  0  0  0  0  0  0  0  0  0  0  0
  141.7370   71.6592  223.6872 H   0  0  0  0  0  0  0  0  0  0  0  0
  1  2  1  0
  2  3  2  0
  2  4  1  0
  4  5  1  0
  5  6  1  0
  6  7  1  0
  7  8  2  0
  8  9  1  0
  9 10  2  0
 10 11  1  0
 11 12  1  0
 12 13  1  0
 13 14  1  0
 14 15  2  0
 15 16  1  0
 16 17  2  0
 17 18  1  0
 18 19  2  0
 19 20  1  0
 10 21  1  0
 21 22  2  0
 22 23  1  0
 23 24  1  0
 24 25  1  0
 25 26  1  0
 26 27  2  0
 27 28  1  0
 28 29  2  0
 29 30  1  0
 30 31  2  0
 31 32  1  0
 22  7  1  0
 32 23  1  0
 20 11  1  0
 31 26  1  0
 19 14  1  0
  1 33  1  0
  1 34  1  0
  4 35  1  0
  4 36  1  0
  5 37  1  0
  5 38  1  0
  6 39  1  0
  6 40  1  0
  8 41  1  0
 12 42  1  0
 12 43  1  0
 13 44  1  0
 13 45  1  0
 15 46  1  0
 16 47  1  0
 17 48  1  0
 18 49  1  0
 20 50  1  0
 20 51  1  0
 24 52  1  0
 24 53  1  0
 25 54  1  0
 25 55  1  0
 27 56  1  0
 28 57  1  0
 29 58  1  0
 30 59  1  0
 32 60  1  0
 32 61  1  0
M  END
>  <smiles>  (4) 
NC(=O)CCCc1cnc(N2CCc3ccccc3C2)nc1N1CCc2ccccc2C1

>  <score_type>  (4) 
oracle

>  <origin>  (4) 
autodockgpu

>  <m_score__min__energy>  (4) 
-9.2200000000000006

>  <m_primary>  (4) 
energy

>  <rmsd>  (4) 
9.835752558749217

>  <m_score__min__rmsd>  (4) 
9.835752558749217

>  <meeko>  (4) 
{"free_energy": -9.03, "intermolecular_energy": -10.82, "internal_energy": -1.3, "cluster_size": 27, "cluster_id": 1, "rank_in_cluster": 4}

>  <energy>  (4) 
-9.03

>  <cluster_rmsd>  (4) 
1.76

>  <cluster>  (4) 
1

$$$$

     RDKit          3D

 61 65  0  0  0  0  0  0  0  0999 V2000
  143.5330   76.5920  219.7790 N   0  0  0  0  0  0  0  0  0  0  0  0
  143.7480   75.1760  219.9470 C   0  0  0  0  0  0  0  0  0  0  0  0
  144.8470   74.8240  220.4230 O   0  0  0  0  0  0  0  0  0  0  0  0
  142.6500   74.2810  219.5410 C   0  0  0  0  0  0  0  0  0  0  0  0
  141.4950   74.9730  218.8640 C   0  0  0  0  0  0  0  0  0  0  0  0
  140.2470   74.1840  219.0440 C   0  0  0  0  0  0  0  0  0  0  0  0
  140.2020   73.4400  220.3280 C   0  0  0  0  0  0  0  0  0  0  0  0
  140.3490   72.0480  220.3720 C   0  0  0  0  0  0  0  0  0  0  0  0
  140.2940   71.3810  221.5270 N   0  0  0  0  0  0  0  0  0  0  0  0
  140.0920   72.0140  222.7170 C   0  0  0  0  0  0  0  0  0  0  0  0
  140.0320   71.3060  223.9470 N   0  0  0  0  0  0  0  0  0  0  0  0
  140.5070   71.9030  225.1870 C   0  0  0  0  0  0  0  0  0  0  0  0
  141.5730   70.9370  225.7090 C   0  0  0  0  0  0  0  0  0  0  0  0
  140.8740   69.6360  225.9570 C   0  0  0  0  0  0  0  0  0  0  0  0
  141.2740   68.9090  227.0800 C   0  0  0  0  0  0  0  0  0  0  0  0
  140.6280   67.7100  227.3070 C   0  0  0  0  0  0  0  0  0  0  0  0
  139.6310   67.2430  226.4710 C   0  0  0  0  0  0  0  0  0  0  0  0
  139.2440   67.9840  225.3510 C   0  0  0  0  0  0  0  0  0  0  0  0
  139.8850   69.1680  225.1310 C   0  0  0  0  0  0  0  0  0  0  0  0
  139.4880   69.9780  223.9410 C   0  0  0  0  0  0  0  0  0  0  0  0
  139.9490   73.3420  222.6980 N   0  0  0  0  0  0  0  0  0  0  0  0
  139.9990   74.0640  221.5370 C   0  0  0  0  0  0  0  0  0  0  0  0
  139.8420   75.4670  221.6890 N   0  0  0  0  0  0  0  0  0  0  0  0
  138.6480   76.2040  221.4430 C   0  0  0  0  0  0  0  0  0  0  0  0
  138.3180   77.1020  222.6400 C   0  0  0  0  0  0  0  0  0  0  0  0
  139.4580   78.0730  222.8050 C   0  0  0  0  0  0  0  0  0  0  0  0
  139.2360   79.3820  223.1910 C   0  0  0  0  0  0  0  0  0  0  0  0
  140.2830   80.2640  223.3370 C   0  0  0  0  0  0  0  0  0  0  0  0
  141.5620   79.7760  223.0800 C   0  0  0  0  0  0  0  0  0  0  0  0
  141.7730   78.4590  222.6930 C   0  0  0  0  0  0  0  0  0  0  0  0
  140.7100   77.5740  222.5460 C   0  0  0  0  0  0  0  0  0  0  0  0
  141.0190   76.2050  222.1370 C   0  0  0  0  0  0  0  0  0  0  0  0
  143.8820   77.2130  220.5430 H   0  0  0  0  0  0  0  0  0  0  0  0
  143.0540   76.9830  218.9380 H   0  0  0  0  0  0  0  0  0  0  0  0
  143.0569   73.5323  218.8454 H   0  0  0  0  0  0  0  0  0  0  0  0
  142.2502   73.8385  220.4653 H   0  0  0  0  0  0  0  0  0  0  0  0
  141.3605   75.9716  219.3053 H   0  0  0  0  0  0  0  0  0  0  0  0
  141.7107   75.0635  217.7892 H   0  0  0  0  0  0  0  0  0  0  0  0
  139.3903   74.8732  219.0097 H   0  0  0  0  0  0  0  0  0  0  0  0
  140.2130   73.4395  218.2350 H   0  0  0  0  0  0  0  0  0  0  0  0
  140.5130   71.4933  219.4363 H   0  0  0  0  0  0  0  0  0  0  0  0
  140.9438   72.8944  224.9963 H   0  0  0  0  0  0  0  0  0  0  0  0
  139.6934   72.0515  225.9122 H   0  0  0  0  0  0  0  0  0  0  0  0
  142.3680   70.8058  224.9601 H   0  0  0  0  0  0  0  0  0  0  0  0
  142.0450   71.3191  226.6262 H   0  0  0  0  0  0  0  0  0  0  0  0
  142.0654   69.2738  227.7513 H   0  0  0  0  0  0  0  0  0  0  0  0
  140.9159   67.1072  228.1809 H   0  0  0  0  0  0  0  0  0  0  0  0
  139.1397   66.2831  226.6884 H   0  0  0  0  0  0  0  0  0  0  0  0
  138.4541   67.6268  224.6739 H   0  0  0  0  0  0  0  0  0  0  0  0
  139.8389   69.4618  223.0353 H   0  0  0  0  0  0  0  0  0  0  0  0
  138.3927   70.0761  223.9663 H   0  0  0  0  0  0  0  0  0  0  0  0
  138.7857   76.8289  220.5482 H   0  0  0  0  0  0  0  0  0  0  0  0
  137.8188   75.4981  221.2873 H   0  0  0  0  0  0  0  0  0  0  0  0
  137.3825   77.6494  222.4523 H   0  0  0  0  0  0  0  0  0  0  0  0
  138.1864   76.5002  223.5514 H   0  0  0  0  0  0  0  0  0  0  0  0
  138.2083   79.7235  223.3841 H   0  0  0  0  0  0  0  0  0  0  0  0
  140.1169   81.3075  223.6430 H   0  0  0  0  0  0  0  0  0  0  0  0
  142.4252   80.4495  223.1860 H   0  0  0  0  0  0  0  0  0  0  0  0
  142.7980   78.1099  222.4994 H   0  0  0  0  0  0  0  0  0  0  0  0
  141.7459   76.2406  221.3122 H   0  0  0  0  0  0  0  0  0  0  0  0
  141.4227   75.6809  223.0158 H   0  0  0  0  0  0  0  0  0  0  0  0
  1  2  1  0
  2  3  2  0
  2  4  1  0
  4  5  1  0
  5  6  1  0
  6  7  1  0
  7  8  2  0
  8  9  1  0
  9 10  2  0
 10 11  1  0
 11 12  1  0
 12 13  1  0
 13 14  1  0
 14 15  2  0
 15 16  1  0
 16 17  2  0
 17 18  1  0
 18 19  2  0
 19 20  1  0
 10 21  1  0
 21 22  2  0
 22 23  1  0
 23 24  1  0
 24 25  1  0
 25 26  1  0
 26 27  2  0
 27 28  1  0
 28 29  2  0
 29 30  1  0
 30 31  2  0
 31 32  1  0
 22  7  1  0
 32 23  1  0
 20 11  1  0
 31 26  1  0
 19 14  1  0
  1 33  1  0
  1 34  1  0
  4 35  1  0
  4 36  1  0
  5 37  1  0
  5 38  1  0
  6 39  1  0
  6 40  1  0
  8 41  1  0
 12 42  1  0
 12 43  1  0
 13 44  1  0
 13 45  1  0
 15 46  1  0
 16 47  1  0
 17 48  1  0
 18 49  1  0
 20 50  1  0
 20 51  1  0
 24 52  1  0
 24 53  1  0
 25 54  1  0
 25 55  1  0
 27 56  1  0
 28 57  1  0
 29 58  1  0
 30 59  1  0
 32 60  1  0
 32 61  1  0
M  END
>  <smiles>  (5) 
NC(=O)CCCc1cnc(N2CCc3ccccc3C2)nc1N1CCc2ccccc2C1

>  <score_type>  (5) 
oracle

>  <origin>  (5) 
autodockgpu

>  <m_score__min__energy>  (5) 
-9.2200000000000006

>  <m_primary>  (5) 
energy

>  <rmsd>  (5) 
3.564093016978871

>  <m_score__min__rmsd>  (5) 
3.564093016978871

>  <meeko>  (5) 
{"free_energy": -8.81, "intermolecular_energy": -10.6, "internal_energy": -1.46, "cluster_size": 27, "cluster_id": 1, "rank_in_cluster": 10}

>  <energy>  (5) 
-8.99

>  <cluster_rmsd>  (5) 
1.67

>  <cluster>  (5) 
1

$$$$

     RDKit          3D

 61 65  0  0  0  0  0  0  0  0999 V2000
  136.2180   74.5180  223.1530 N   0  0  0  0  0  0  0  0  0  0  0  0
  136.0480   75.6770  222.3110 C   0  0  0  0  0  0  0  0  0  0  0  0
  134.9110   75.8600  221.8280 O   0  0  0  0  0  0  0  0  0  0  0  0
  137.2290   76.5310  222.1030 C   0  0  0  0  0  0  0  0  0  0  0  0
  137.5210   76.8580  220.6610 C   0  0  0  0  0  0  0  0  0  0  0  0
  137.9680   75.6380  219.9380 C   0  0  0  0  0  0  0  0  0  0  0  0
  138.4410   74.5590  220.8410 C   0  0  0  0  0  0  0  0  0  0  0  0
  137.7240   73.3650  220.9910 C   0  0  0  0  0  0  0  0  0  0  0  0
  138.1450   72.4020  221.8150 N   0  0  0  0  0  0  0  0  0  0  0  0
  139.2850   72.5300  222.5500 C   0  0  0  0  0  0  0  0  0  0  0  0
  139.7340   71.5070  223.4280 N   0  0  0  0  0  0  0  0  0  0  0  0
  139.6100   70.1000  223.0770 C   0  0  0  0  0  0  0  0  0  0  0  0
  138.7910   69.4790  224.2100 C   0  0  0  0  0  0  0  0  0  0  0  0
  139.5950   69.6640  225.4590 C   0  0  0  0  0  0  0  0  0  0  0  0
  139.5740   68.6190  226.3840 C   0  0  0  0  0  0  0  0  0  0  0  0
  140.3170   68.7930  227.5360 C   0  0  0  0  0  0  0  0  0  0  0  0
  141.0500   69.9410  227.7710 C   0  0  0  0  0  0  0  0  0  0  0  0
  141.0580   70.9770  226.8330 C   0  0  0  0  0  0  0  0  0  0  0  0
  140.3230   70.8020  225.6980 C   0  0  0  0  0  0  0  0  0  0  0  0
  140.3180   71.8950  224.6810 C   0  0  0  0  0  0  0  0  0  0  0  0
  139.9840   73.6610  222.4220 N   0  0  0  0  0  0  0  0  0  0  0  0
  139.5890   74.6720  221.5900 C   0  0  0  0  0  0  0  0  0  0  0  0
  140.4480   75.8010  221.5590 N   0  0  0  0  0  0  0  0  0  0  0  0
  141.3550   76.1300  220.5100 C   0  0  0  0  0  0  0  0  0  0  0  0
  141.1640   77.5870  220.0770 C   0  0  0  0  0  0  0  0  0  0  0  0
  141.4690   78.4580  221.2690 C   0  0  0  0  0  0  0  0  0  0  0  0
  142.1120   79.6740  221.1240 C   0  0  0  0  0  0  0  0  0  0  0  0
  142.3900   80.4610  222.2190 C   0  0  0  0  0  0  0  0  0  0  0  0
  141.9930   79.9780  223.4640 C   0  0  0  0  0  0  0  0  0  0  0  0
  141.3480   78.7560  223.5960 C   0  0  0  0  0  0  0  0  0  0  0  0
  141.0720   77.9640  222.4860 C   0  0  0  0  0  0  0  0  0  0  0  0
  140.3880   76.6920  222.7130 C   0  0  0  0  0  0  0  0  0  0  0  0
  135.4380   74.2970  223.8110 H   0  0  0  0  0  0  0  0  0  0  0  0
  137.0770   73.9250  223.1110 H   0  0  0  0  0  0  0  0  0  0  0  0
  137.0687   77.4757  222.6433 H   0  0  0  0  0  0  0  0  0  0  0  0
  138.0941   75.9625  222.4750 H   0  0  0  0  0  0  0  0  0  0  0  0
  136.6094   77.2487  220.1853 H   0  0  0  0  0  0  0  0  0  0  0  0
  138.3198   77.6130  220.6189 H   0  0  0  0  0  0  0  0  0  0  0  0
  137.1235   75.2534  219.3473 H   0  0  0  0  0  0  0  0  0  0  0  0
  138.8193   75.9287  219.3049 H   0  0  0  0  0  0  0  0  0  0  0  0
  136.7961   73.2177  220.4189 H   0  0  0  0  0  0  0  0  0  0  0  0
  139.0880   69.9861  222.1155 H   0  0  0  0  0  0  0  0  0  0  0  0
  140.5907   69.6151  222.9628 H   0  0  0  0  0  0  0  0  0  0  0  0
  137.8207   69.9889  224.3025 H   0  0  0  0  0  0  0  0  0  0  0  0
  138.5870   68.4150  224.0195 H   0  0  0  0  0  0  0  0  0  0  0  0
  138.9942   67.7016  226.2047 H   0  0  0  0  0  0  0  0  0  0  0  0
  140.3254   67.9923  228.2902 H   0  0  0  0  0  0  0  0  0  0  0  0
  141.6297   70.0397  228.7006 H   0  0  0  0  0  0  0  0  0  0  0  0
  141.6349   71.8979  227.0038 H   0  0  0  0  0  0  0  0  0  0  0  0
  139.7458   72.7435  225.0842 H   0  0  0  0  0  0  0  0  0  0  0  0
  141.3675   72.1574  224.4820 H   0  0  0  0  0  0  0  0  0  0  0  0
  142.3865   75.9896  220.8653 H   0  0  0  0  0  0  0  0  0  0  0  0
  141.1592   75.4732  219.6496 H   0  0  0  0  0  0  0  0  0  0  0  0
  141.8504   77.8265  219.2515 H   0  0  0  0  0  0  0  0  0  0  0  0
  140.1347   77.7554  219.7275 H   0  0  0  0  0  0  0  0  0  0  0  0
  142.4051   80.0168  220.1207 H   0  0  0  0  0  0  0  0  0  0  0  0
  142.9030   81.4285  222.1154 H   0  0  0  0  0  0  0  0  0  0  0  0
  142.1953   80.5788  224.3630 H   0  0  0  0  0  0  0  0  0  0  0  0
  141.0498   78.4077  224.5959 H   0  0  0  0  0  0  0  0  0  0  0  0
  140.8589   76.1884  223.5701 H   0  0  0  0  0  0  0  0  0  0  0  0
  139.3278   76.9165  222.9019 H   0  0  0  0  0  0  0  0  0  0  0  0
  1  2  1  0
  2  3  2  0
  2  4  1  0
  4  5  1  0
  5  6  1  0
  6  7  1  0
  7  8  2  0
  8  9  1  0
  9 10  2  0
 10 11  1  0
 11 12  1  0
 12 13  1  0
 13 14  1  0
 14 15  2  0
 15 16  1  0
 16 17  2  0
 17 18  1  0
 18 19  2  0
 19 20  1  0
 10 21  1  0
 21 22  2  0
 22 23  1  0
 23 24  1  0
 24 25  1  0
 25 26  1  0
 26 27  2  0
 27 28  1  0
 28 29  2  0
 29 30  1  0
 30 31  2  0
 31 32  1  0
 22  7  1  0
 32 23  1  0
 20 11  1  0
 31 26  1  0
 19 14  1  0
  1 33  1  0
  1 34  1  0
  4 35  1  0
  4 36  1  0
  5 37  1  0
  5 38  1  0
  6 39  1  0
  6 40  1  0
  8 41  1  0
 12 42  1  0
 12 43  1  0
 13 44  1  0
 13 45  1  0
 15 46  1  0
 16 47  1  0
 17 48  1  0
 18 49  1  0
 20 50  1  0
 20 51  1  0
 24 52  1  0
 24 53  1  0
 25 54  1  0
 25 55  1  0
 27 56  1  0
 28 57  1  0
 29 58  1  0
 30 59  1  0
 32 60  1  0
 32 61  1  0
M  END
>  <smiles>  (6) 
NC(=O)CCCc1cnc(N2CCc3ccccc3C2)nc1N1CCc2ccccc2C1

>  <score_type>  (6) 
oracle

>  <origin>  (6) 
autodockgpu

>  <m_score__min__energy>  (6) 
-9.2200000000000006

>  <m_primary>  (6) 
energy

>  <rmsd>  (6) 
4.223619363744773

>  <m_score__min__rmsd>  (6) 
4.223619363744773

>  <meeko>  (6) 
{"free_energy": -8.48, "intermolecular_energy": -10.27, "internal_energy": -1.77, "cluster_size": 14, "cluster_id": 2, "rank_in_cluster": 7}

>  <energy>  (6) 
-8.87

>  <cluster_rmsd>  (6) 
1.87

>  <cluster>  (6) 
1

$$$$

     RDKit          3D

 61 65  0  0  0  0  0  0  0  0999 V2000
  145.1840   74.4650  220.1550 N   0  0  0  0  0  0  0  0  0  0  0  0
  143.7560   74.2630  220.1240 C   0  0  0  0  0  0  0  0  0  0  0  0
  143.2280   73.8130  221.1620 O   0  0  0  0  0  0  0  0  0  0  0  0
  143.0600   74.6070  218.8730 C   0  0  0  0  0  0  0  0  0  0  0  0
  141.7180   75.2650  219.0630 C   0  0  0  0  0  0  0  0  0  0  0  0
  140.6380   74.2420  219.0540 C   0  0  0  0  0  0  0  0  0  0  0  0
  140.5210   73.5000  220.3350 C   0  0  0  0  0  0  0  0  0  0  0  0
  140.7320   72.1170  220.4000 C   0  0  0  0  0  0  0  0  0  0  0  0
  140.6130   71.4510  221.5510 N   0  0  0  0  0  0  0  0  0  0  0  0
  140.2790   72.0760  222.7150 C   0  0  0  0  0  0  0  0  0  0  0  0
  140.1500   71.3690  223.9400 N   0  0  0  0  0  0  0  0  0  0  0  0
  140.7180   71.8880  225.1760 C   0  0  0  0  0  0  0  0  0  0  0  0
  141.6610   70.7890  225.6710 C   0  0  0  0  0  0  0  0  0  0  0  0
  140.8060   69.5850  225.9220 C   0  0  0  0  0  0  0  0  0  0  0  0
  141.1290   68.8020  227.0310 C   0  0  0  0  0  0  0  0  0  0  0  0
  140.3380   67.6920  227.2600 C   0  0  0  0  0  0  0  0  0  0  0  0
  139.2760   67.3650  226.4380 C   0  0  0  0  0  0  0  0  0  0  0  0
  138.9680   68.1610  225.3320 C   0  0  0  0  0  0  0  0  0  0  0  0
  139.7510   69.2550  225.1090 C   0  0  0  0  0  0  0  0  0  0  0  0
  139.4410   70.1220  223.9340 C   0  0  0  0  0  0  0  0  0  0  0  0
  140.0730   73.3960  222.6750 N   0  0  0  0  0  0  0  0  0  0  0  0
  140.1850   74.1160  221.5170 C   0  0  0  0  0  0  0  0  0  0  0  0
  139.9460   75.5090  221.6470 N   0  0  0  0  0  0  0  0  0  0  0  0
  138.7160   76.1740  221.3680 C   0  0  0  0  0  0  0  0  0  0  0  0
  138.3140   77.0670  222.5460 C   0  0  0  0  0  0  0  0  0  0  0  0
  139.3940   78.1040  222.7170 C   0  0  0  0  0  0  0  0  0  0  0  0
  139.0910   79.4040  223.0800 C   0  0  0  0  0  0  0  0  0  0  0  0
  140.0830   80.3460  223.2320 C   0  0  0  0  0  0  0  0  0  0  0  0
  141.3930   79.9280  223.0050 C   0  0  0  0  0  0  0  0  0  0  0  0
  141.6850   78.6200  222.6410 C   0  0  0  0  0  0  0  0  0  0  0  0
  140.6770   77.6740  222.4880 C   0  0  0  0  0  0  0  0  0  0  0  0
  141.0700   76.3190  222.1040 C   0  0  0  0  0  0  0  0  0  0  0  0
  145.5840   74.8570  221.0370 H   0  0  0  0  0  0  0  0  0  0  0  0
  145.7930   74.2340  219.3390 H   0  0  0  0  0  0  0  0  0  0  0  0
  143.7012   75.2940  218.3013 H   0  0  0  0  0  0  0  0  0  0  0  0
  142.8709   73.6579  218.3501 H   0  0  0  0  0  0  0  0  0  0  0  0
  141.7070   75.7964  220.0261 H   0  0  0  0  0  0  0  0  0  0  0  0
  141.5467   75.9748  218.2403 H   0  0  0  0  0  0  0  0  0  0  0  0
  139.6811   74.7463  218.8540 H   0  0  0  0  0  0  0  0  0  0  0  0
  140.8908   73.5083  218.2744 H   0  0  0  0  0  0  0  0  0  0  0  0
  141.0010   71.5689  219.4850 H   0  0  0  0  0  0  0  0  0  0  0  0
  141.2742   72.8177  224.9854 H   0  0  0  0  0  0  0  0  0  0  0  0
  139.9422   72.1313  225.9169 H   0  0  0  0  0  0  0  0  0  0  0  0
  142.4197   70.5650  224.9067 H   0  0  0  0  0  0  0  0  0  0  0  0
  142.1936   71.0989  226.5822 H   0  0  0  0  0  0  0  0  0  0  0  0
  141.9719   69.0558  227.6907 H   0  0  0  0  0  0  0  0  0  0  0  0
  140.5607   67.0484  228.1238 H   0  0  0  0  0  0  0  0  0  0  0  0
  138.6700   66.4732  226.6559 H   0  0  0  0  0  0  0  0  0  0  0  0
  138.1269   67.9150  224.6671 H   0  0  0  0  0  0  0  0  0  0  0  0
  139.7070   69.5747  223.0177 H   0  0  0  0  0  0  0  0  0  0  0  0
  138.3680   70.3597  223.9815 H   0  0  0  0  0  0  0  0  0  0  0  0
  138.8351   76.7939  220.4671 H   0  0  0  0  0  0  0  0  0  0  0  0
  137.9310   75.4205  221.2066 H   0  0  0  0  0  0  0  0  0  0  0  0
  137.3524   77.5575  222.3345 H   0  0  0  0  0  0  0  0  0  0  0  0
  138.2005   76.4707  223.4634 H   0  0  0  0  0  0  0  0  0  0  0  0
  138.0422   79.6890  223.2496 H   0  0  0  0  0  0  0  0  0  0  0  0
  139.8522   81.3823  223.5197 H   0  0  0  0  0  0  0  0  0  0  0  0
  142.2146   80.6508  223.1167 H   0  0  0  0  0  0  0  0  0  0  0  0
  142.7315   78.3271  222.4708 H   0  0  0  0  0  0  0  0  0  0  0  0
  141.8083   76.3849  221.2913 H   0  0  0  0  0  0  0  0  0  0  0  0
  141.4865   75.8308  222.9974 H   0  0  0  0  0  0  0  0  0  0  0  0
  1  2  1  0
  2  3  2  0
  2  4  1  0
  4  5  1  0
  5  6  1  0
  6  7  1  0
  7  8  2  0
  8  9  1  0
  9 10  2  0
 10 11  1  0
 11 12  1  0
 12 13  1  0
 13 14  1  0
 14 15  2  0
 15 16  1  0
 16 17  2  0
 17 18  1  0
 18 19  2  0
 19 20  1  0
 10 21  1  0
 21 22  2  0
 22 23  1  0
 23 24  1  0
 24 25  1  0
 25 26  1  0
 26 27  2  0
 27 28  1  0
 28 29  2  0
 29 30  1  0
 30 31  2  0
 31 32  1  0
 22  7  1  0
 32 23  1  0
 20 11  1  0
 31 26  1  0
 19 14  1  0
  1 33  1  0
  1 34  1  0
  4 35  1  0
  4 36  1  0
  5 37  1  0
  5 38  1  0
  6 39  1  0
  6 40  1  0
  8 41  1  0
 12 42  1  0
 12 43  1  0
 13 44  1  0
 13 45  1  0
 15 46  1  0
 16 47  1  0
 17 48  1  0
 18 49  1  0
 20 50  1  0
 20 51  1  0
 24 52  1  0
 24 53  1  0
 25 54  1  0
 25 55  1  0
 27 56  1  0
 28 57  1  0
 29 58  1  0
 30 59  1  0
 32 60  1  0
 32 61  1  0
M  END
>  <smiles>  (7) 
NC(=O)CCCc1cnc(N2CCc3ccccc3C2)nc1N1CCc2ccccc2C1

>  <score_type>  (7) 
oracle

>  <origin>  (7) 
autodockgpu

>  <m_score__min__energy>  (7) 
-9.2200000000000006

>  <m_primary>  (7) 
energy

>  <rmsd>  (7) 
3.5704071674082347

>  <m_score__min__rmsd>  (7) 
3.5704071674082347

>  <meeko>  (7) 
{"free_energy": -8.6, "intermolecular_energy": -10.39, "internal_energy": -1.46, "cluster_size": 27, "cluster_id": 1, "rank_in_cluster": 20}

>  <energy>  (7) 
-8.87

>  <cluster_rmsd>  (7) 
1.44

>  <cluster>  (7) 
1

$$$$

     RDKit          3D

 61 65  0  0  0  0  0  0  0  0999 V2000
  145.3790   73.7460  219.7570 N   0  0  0  0  0  0  0  0  0  0  0  0
  145.2920   72.4570  219.1170 C   0  0  0  0  0  0  0  0  0  0  0  0
  145.9100   72.3180  218.0410 O   0  0  0  0  0  0  0  0  0  0  0  0
  144.4830   71.4290  219.7930 C   0  0  0  0  0  0  0  0  0  0  0  0
  142.9980   71.5490  219.5660 C   0  0  0  0  0  0  0  0  0  0  0  0
  142.2870   71.6700  220.8670 C   0  0  0  0  0  0  0  0  0  0  0  0
  141.7380   73.0270  221.1140 C   0  0  0  0  0  0  0  0  0  0  0  0
  142.2460   74.1520  220.4530 C   0  0  0  0  0  0  0  0  0  0  0  0
  141.7580   75.3730  220.6860 N   0  0  0  0  0  0  0  0  0  0  0  0
  140.7490   75.5880  221.5760 C   0  0  0  0  0  0  0  0  0  0  0  0
  140.2290   76.8860  221.8270 N   0  0  0  0  0  0  0  0  0  0  0  0
  141.0720   78.0690  221.7360 C   0  0  0  0  0  0  0  0  0  0  0  0
  140.9710   78.7350  223.1100 C   0  0  0  0  0  0  0  0  0  0  0  0
  139.5310   79.1000  223.2940 C   0  0  0  0  0  0  0  0  0  0  0  0
  139.2630   80.3100  223.9350 C   0  0  0  0  0  0  0  0  0  0  0  0
  137.9330   80.6450  224.1030 C   0  0  0  0  0  0  0  0  0  0  0  0
  136.9090   79.8280  223.6610 C   0  0  0  0  0  0  0  0  0  0  0  0
  137.1960   78.6190  223.0210 C   0  0  0  0  0  0  0  0  0  0  0  0
  138.5100   78.2930  222.8580 C   0  0  0  0  0  0  0  0  0  0  0  0
  138.8420   77.0070  222.1760 C   0  0  0  0  0  0  0  0  0  0  0  0
  140.2490   74.5280  222.2180 N   0  0  0  0  0  0  0  0  0  0  0  0
  140.7190   73.2600  222.0080 C   0  0  0  0  0  0  0  0  0  0  0  0
  140.0740   72.2440  222.7590 N   0  0  0  0  0  0  0  0  0  0  0  0
  138.8920   71.5450  222.3730 C   0  0  0  0  0  0  0  0  0  0  0  0
  139.1030   70.0330  222.4960 C   0  0  0  0  0  0  0  0  0  0  0  0
  139.3910   69.7310  223.9440 C   0  0  0  0  0  0  0  0  0  0  0  0
  138.9120   68.5820  224.5470 C   0  0  0  0  0  0  0  0  0  0  0  0
  139.1760   68.3160  225.8720 C   0  0  0  0  0  0  0  0  0  0  0  0
  139.9420   69.2510  226.5650 C   0  0  0  0  0  0  0  0  0  0  0  0
  140.4170   70.4010  225.9490 C   0  0  0  0  0  0  0  0  0  0  0  0
  140.1450   70.6640  224.6100 C   0  0  0  0  0  0  0  0  0  0  0  0
  140.6840   71.8970  224.0370 C   0  0  0  0  0  0  0  0  0  0  0  0
  146.3120   74.2160  219.7420 H   0  0  0  0  0  0  0  0  0  0  0  0
  144.5540   74.1940  220.2150 H   0  0  0  0  0  0  0  0  0  0  0  0
  144.8071   70.4430  219.4286 H   0  0  0  0  0  0  0  0  0  0  0  0
  144.6451   71.5650  220.8724 H   0  0  0  0  0  0  0  0  0  0  0  0
  142.7947   72.4419  218.9565 H   0  0  0  0  0  0  0  0  0  0  0  0
  142.6410   70.6487  219.0445 H   0  0  0  0  0  0  0  0  0  0  0  0
  141.4555   70.9499  220.8784 H   0  0  0  0  0  0  0  0  0  0  0  0
  143.0226   71.4677  221.6595 H   0  0  0  0  0  0  0  0  0  0  0  0
  143.0633   74.0276  219.7274 H   0  0  0  0  0  0  0  0  0  0  0  0
  142.1127   77.7862  221.5191 H   0  0  0  0  0  0  0  0  0  0  0  0
  140.7529   78.7420  220.9265 H   0  0  0  0  0  0  0  0  0  0  0  0
  141.2904   78.0358  223.8968 H   0  0  0  0  0  0  0  0  0  0  0  0
  141.6198   79.6210  223.1740 H   0  0  0  0  0  0  0  0  0  0  0  0
  140.0718   80.9659  224.2896 H   0  0  0  0  0  0  0  0  0  0  0  0
  137.6811   81.5913  224.6041 H   0  0  0  0  0  0  0  0  0  0  0  0
  135.8627   80.1311  223.8138 H   0  0  0  0  0  0  0  0  0  0  0  0
  136.3938   77.9569  222.6631 H   0  0  0  0  0  0  0  0  0  0  0  0
  138.5786   76.1777  222.8490 H   0  0  0  0  0  0  0  0  0  0  0  0
  138.2685   76.9807  221.2377 H   0  0  0  0  0  0  0  0  0  0  0  0
  138.0610   71.8495  223.0262 H   0  0  0  0  0  0  0  0  0  0  0  0
  138.6583   71.7891  221.3262 H   0  0  0  0  0  0  0  0  0  0  0  0
  138.1960   69.5000  222.1746 H   0  0  0  0  0  0  0  0  0  0  0  0
  139.9379   69.7057  221.8590 H   0  0  0  0  0  0  0  0  0  0  0  0
  138.3120   67.8710  223.9600 H   0  0  0  0  0  0  0  0  0  0  0  0
  138.7989   67.4059  226.3615 H   0  0  0  0  0  0  0  0  0  0  0  0
  140.1759   69.0739  227.6251 H   0  0  0  0  0  0  0  0  0  0  0  0
  141.0185   71.1162  226.5292 H   0  0  0  0  0  0  0  0  0  0  0  0
  140.5066   72.7198  224.7452 H   0  0  0  0  0  0  0  0  0  0  0  0
  141.7570   71.7352  223.8570 H   0  0  0  0  0  0  0  0  0  0  0  0
  1  2  1  0
  2  3  2  0
  2  4  1  0
  4  5  1  0
  5  6  1  0
  6  7  1  0
  7  8  2  0
  8  9  1  0
  9 10  2  0
 10 11  1  0
 11 12  1  0
 12 13  1  0
 13 14  1  0
 14 15  2  0
 15 16  1  0
 16 17  2  0
 17 18  1  0
 18 19  2  0
 19 20  1  0
 10 21  1  0
 21 22  2  0
 22 23  1  0
 23 24  1  0
 24 25  1  0
 25 26  1  0
 26 27  2  0
 27 28  1  0
 28 29  2  0
 29 30  1  0
 30 31  2  0
 31 32  1  0
 22  7  1  0
 32 23  1  0
 20 11  1  0
 31 26  1  0
 19 14  1  0
  1 33  1  0
  1 34  1  0
  4 35  1  0
  4 36  1  0
  5 37  1  0
  5 38  1  0
  6 39  1  0
  6 40  1  0
  8 41  1  0
 12 42  1  0
 12 43  1  0
 13 44  1  0
 13 45  1  0
 15 46  1  0
 16 47  1  0
 17 48  1  0
 18 49  1  0
 20 50  1  0
 20 51  1  0
 24 52  1  0
 24 53  1  0
 25 54  1  0
 25 55  1  0
 27 56  1  0
 28 57  1  0
 29 58  1  0
 30 59  1  0
 32 60  1  0
 32 61  1  0
M  END
>  <smiles>  (8) 
NC(=O)CCCc1cnc(N2CCc3ccccc3C2)nc1N1CCc2ccccc2C1

>  <score_type>  (8) 
oracle

>  <origin>  (8) 
autodockgpu

>  <m_score__min__energy>  (8) 
-9.2200000000000006

>  <m_primary>  (8) 
energy

>  <rmsd>  (8) 
9.93411203557469

>  <m_score__min__rmsd>  (8) 
9.93411203557469

>  <meeko>  (8) 
{"free_energy": -8.75, "intermolecular_energy": -10.54, "internal_energy": -1.15, "cluster_size": 27, "cluster_id": 1, "rank_in_cluster": 12}

>  <energy>  (8) 
-8.83

>  <cluster_rmsd>  (8) 
1.73

>  <cluster>  (8) 
1

$$$$

     RDKit          3D

 61 65  0  0  0  0  0  0  0  0999 V2000
  145.2670   73.1030  221.2060 N   0  0  0  0  0  0  0  0  0  0  0  0
  145.1340   73.5290  219.8350 C   0  0  0  0  0  0  0  0  0  0  0  0
  146.0450   73.1940  219.0490 O   0  0  0  0  0  0  0  0  0  0  0  0
  143.9380   74.3170  219.4930 C   0  0  0  0  0  0  0  0  0  0  0  0
  142.8920   73.5630  218.7130 C   0  0  0  0  0  0  0  0  0  0  0  0
  141.5350   73.8820  219.2320 C   0  0  0  0  0  0  0  0  0  0  0  0
  141.2240   73.2060  220.5170 C   0  0  0  0  0  0  0  0  0  0  0  0
  141.5420   71.8590  220.7300 C   0  0  0  0  0  0  0  0  0  0  0  0
  141.2480   71.2500  221.8810 N   0  0  0  0  0  0  0  0  0  0  0  0
  140.6260   71.9020  222.9030 C   0  0  0  0  0  0  0  0  0  0  0  0
  140.3110   71.2560  224.1290 N   0  0  0  0  0  0  0  0  0  0  0  0
  140.5850   71.8900  225.4100 C   0  0  0  0  0  0  0  0  0  0  0  0
  141.4900   70.9070  226.1540 C   0  0  0  0  0  0  0  0  0  0  0  0
  140.6950   69.6500  226.3220 C   0  0  0  0  0  0  0  0  0  0  0  0
  140.8500   68.9610  227.5260 C   0  0  0  0  0  0  0  0  0  0  0  0
  140.1150   67.8010  227.6790 C   0  0  0  0  0  0  0  0  0  0  0  0
  139.2630   67.3370  226.6940 C   0  0  0  0  0  0  0  0  0  0  0  0
  139.1200   68.0400  225.4950 C   0  0  0  0  0  0  0  0  0  0  0  0
  139.8480   69.1840  225.3490 C   0  0  0  0  0  0  0  0  0  0  0  0
  139.7120   69.9530  224.0760 C   0  0  0  0  0  0  0  0  0  0  0  0
  140.3130   73.1880  222.7210 N   0  0  0  0  0  0  0  0  0  0  0  0
  140.5970   73.8500  221.5580 C   0  0  0  0  0  0  0  0  0  0  0  0
  140.2110   75.2150  221.5290 N   0  0  0  0  0  0  0  0  0  0  0  0
  139.0110   75.7320  220.9580 C   0  0  0  0  0  0  0  0  0  0  0  0
  138.2940   76.6430  221.9590 C   0  0  0  0  0  0  0  0  0  0  0  0
  139.2160   77.7950  222.2650 C   0  0  0  0  0  0  0  0  0  0  0  0
  138.7270   79.0740  222.4590 C   0  0  0  0  0  0  0  0  0  0  0  0
  139.5770   80.1220  222.7340 C   0  0  0  0  0  0  0  0  0  0  0  0
  140.9370   79.8300  222.8090 C   0  0  0  0  0  0  0  0  0  0  0  0
  141.4160   78.5420  222.6130 C   0  0  0  0  0  0  0  0  0  0  0  0
  140.5520   77.4880  222.3330 C   0  0  0  0  0  0  0  0  0  0  0  0
  141.1370   76.1620  222.1410 C   0  0  0  0  0  0  0  0  0  0  0  0
  145.6280   72.1360  221.3640 H   0  0  0  0  0  0  0  0  0  0  0  0
  145.0170   73.7270  222.0060 H   0  0  0  0  0  0  0  0  0  0  0  0
  143.4802   74.6696  220.4290 H   0  0  0  0  0  0  0  0  0  0  0  0
  144.2799   75.1370  218.8443 H   0  0  0  0  0  0  0  0  0  0  0  0
  142.9523   73.8499  217.6528 H   0  0  0  0  0  0  0  0  0  0  0  0
  143.0728   72.4833  218.8207 H   0  0  0  0  0  0  0  0  0  0  0  0
  141.4659   74.9693  219.3837 H   0  0  0  0  0  0  0  0  0  0  0  0
  140.8087   73.5203  218.4893 H   0  0  0  0  0  0  0  0  0  0  0  0
  142.0442   71.2913  219.9328 H   0  0  0  0  0  0  0  0  0  0  0  0
  141.0977   72.8521  225.2632 H   0  0  0  0  0  0  0  0  0  0  0  0
  139.6627   72.1062  225.9692 H   0  0  0  0  0  0  0  0  0  0  0  0
  142.3991   70.7074  225.5677 H   0  0  0  0  0  0  0  0  0  0  0  0
  141.8076   71.3125  227.1260 H   0  0  0  0  0  0  0  0  0  0  0  0
  141.5249   69.3241  228.3151 H   0  0  0  0  0  0  0  0  0  0  0  0
  140.2107   67.2289  228.6136 H   0  0  0  0  0  0  0  0  0  0  0  0
  138.6945   66.4092  226.8551 H   0  0  0  0  0  0  0  0  0  0  0  0
  138.4471   67.6849  224.7005 H   0  0  0  0  0  0  0  0  0  0  0  0
  140.1940   69.3805  223.2699 H   0  0  0  0  0  0  0  0  0  0  0  0
  138.6362   70.0978  223.8982 H   0  0  0  0  0  0  0  0  0  0  0  0
  139.2585   76.3093  220.0550 H   0  0  0  0  0  0  0  0  0  0  0  0
  138.3479   74.8932  220.6998 H   0  0  0  0  0  0  0  0  0  0  0  0
  137.3571   77.0180  221.5212 H   0  0  0  0  0  0  0  0  0  0  0  0
  138.0469   76.0903  222.8774 H   0  0  0  0  0  0  0  0  0  0  0  0
  137.6443   79.2567  222.3927 H   0  0  0  0  0  0  0  0  0  0  0  0
  139.1991   81.1436  222.8875 H   0  0  0  0  0  0  0  0  0  0  0  0
  141.6485   80.6396  223.0289 H   0  0  0  0  0  0  0  0  0  0  0  0
  142.4973   78.3513  222.6802 H   0  0  0  0  0  0  0  0  0  0  0  0
  142.0198   76.2587  221.4919 H   0  0  0  0  0  0  0  0  0  0  0  0
  141.3998   75.7706  223.1349 H   0  0  0  0  0  0  0  0  0  0  0  0
  1  2  1  0
  2  3  2  0
  2  4  1  0
  4  5  1  0
  5  6  1  0
  6  7  1  0
  7  8  2  0
  8  9  1  0
  9 10  2  0
 10 11  1  0
 11 12  1  0
 12 13  1  0
 13 14  1  0
 14 15  2  0
 15 16  1  0
 16 17  2  0
 17 18  1  0
 18 19  2  0
 19 20  1  0
 10 21  1  0
 21 22  2  0
 22 23  1  0
 23 24  1  0
 24 25  1  0
 25 26  1  0
 26 27  2  0
 27 28  1  0
 28 29  2  0
 29 30  1  0
 30 31  2  0
 31 32  1  0
 22  7  1  0
 32 23  1  0
 20 11  1  0
 31 26  1  0
 19 14  1  0
  1 33  1  0
  1 34  1  0
  4 35  1  0
  4 36  1  0
  5 37  1  0
  5 38  1  0
  6 39  1  0
  6 40  1  0
  8 41  1  0
 12 42  1  0
 12 43  1  0
 13 44  1  0
 13 45  1  0
 15 46  1  0
 16 47  1  0
 17 48  1  0
 18 49  1  0
 20 50  1  0
 20 51  1  0
 24 52  1  0
 24 53  1  0
 25 54  1  0
 25 55  1  0
 27 56  1  0
 28 57  1  0
 29 58  1  0
 30 59  1  0
 32 60  1  0
 32 61  1  0
M  END
>  <smiles>  (9) 
NC(=O)CCCc1cnc(N2CCc3ccccc3C2)nc1N1CCc2ccccc2C1

>  <score_type>  (9) 
oracle

>  <origin>  (9) 
autodockgpu

>  <m_score__min__energy>  (9) 
-9.2200000000000006

>  <m_primary>  (9) 
energy

>  <rmsd>  (9) 
3.8310171119484786

>  <m_score__min__rmsd>  (9) 
3.8310171119484786

>  <meeko>  (9) 
{"free_energy": -9.22, "intermolecular_energy": -11.01, "internal_energy": -1.2, "cluster_size": 27, "cluster_id": 1, "rank_in_cluster": 1}

>  <energy>  (9) 
-8.82

>  <cluster_rmsd>  (9) 
0.46

>  <cluster>  (9) 
1

$$$$

     RDKit          3D

 61 65  0  0  0  0  0  0  0  0999 V2000
  137.5690   73.0460  220.8370 N   0  0  0  0  0  0  0  0  0  0  0  0
  137.5240   71.6600  220.4360 C   0  0  0  0  0  0  0  0  0  0  0  0
  136.6300   70.9540  220.9480 O   0  0  0  0  0  0  0  0  0  0  0  0
  138.5340   71.2130  219.4630 C   0  0  0  0  0  0  0  0  0  0  0  0
  139.4360   70.1120  219.9570 C   0  0  0  0  0  0  0  0  0  0  0  0
  140.6250   70.6890  220.6400 C   0  0  0  0  0  0  0  0  0  0  0  0
  140.4320   72.0980  221.0670 C   0  0  0  0  0  0  0  0  0  0  0  0
  140.6640   73.1650  220.1900 C   0  0  0  0  0  0  0  0  0  0  0  0
  140.5030   74.4320  220.5810 N   0  0  0  0  0  0  0  0  0  0  0  0
  140.1070   74.7510  221.8450 C   0  0  0  0  0  0  0  0  0  0  0  0
  139.9350   76.0980  222.2630 N   0  0  0  0  0  0  0  0  0  0  0  0
  138.6300   76.7410  222.2260 C   0  0  0  0  0  0  0  0  0  0  0  0
  138.8210   77.9760  221.3450 C   0  0  0  0  0  0  0  0  0  0  0  0
  139.8350   78.8320  222.0370 C   0  0  0  0  0  0  0  0  0  0  0  0
  139.6380   80.2130  221.9850 C   0  0  0  0  0  0  0  0  0  0  0  0
  140.5750   81.0010  222.6250 C   0  0  0  0  0  0  0  0  0  0  0  0
  141.6590   80.4580  223.2880 C   0  0  0  0  0  0  0  0  0  0  0  0
  141.8420   79.0730  223.3300 C   0  0  0  0  0  0  0  0  0  0  0  0
  140.9140   78.3000  222.6970 C   0  0  0  0  0  0  0  0  0  0  0  0
  141.0860   76.8170  222.7280 C   0  0  0  0  0  0  0  0  0  0  0  0
  139.8790   73.7480  222.6980 N   0  0  0  0  0  0  0  0  0  0  0  0
  140.0320   72.4370  222.3380 C   0  0  0  0  0  0  0  0  0  0  0  0
  139.7390   71.4920  223.3560 N   0  0  0  0  0  0  0  0  0  0  0  0
  138.6290   70.5980  223.3690 C   0  0  0  0  0  0  0  0  0  0  0  0
  139.1000   69.1670  223.6450 C   0  0  0  0  0  0  0  0  0  0  0  0
  139.7440   69.1560  225.0070 C   0  0  0  0  0  0  0  0  0  0  0  0
  139.6000   68.0770  225.8610 C   0  0  0  0  0  0  0  0  0  0  0  0
  140.1880   68.0770  227.1060 C   0  0  0  0  0  0  0  0  0  0  0  0
  140.9290   69.2030  227.4560 C   0  0  0  0  0  0  0  0  0  0  0  0
  141.0670   70.2810  226.5900 C   0  0  0  0  0  0  0  0  0  0  0  0
  140.4680   70.2750  225.3340 C   0  0  0  0  0  0  0  0  0  0  0  0
  140.6630   71.4480  224.4840 C   0  0  0  0  0  0  0  0  0  0  0  0
  136.6510   73.5340  220.9420 H   0  0  0  0  0  0  0  0  0  0  0  0
  138.4710   73.5410  221.0140 H   0  0  0  0  0  0  0  0  0  0  0  0
  138.0099   70.8509  218.5662 H   0  0  0  0  0  0  0  0  0  0  0  0
  139.1806   72.0803  219.2639 H   0  0  0  0  0  0  0  0  0  0  0  0
  138.8818   69.4787  220.6654 H   0  0  0  0  0  0  0  0  0  0  0  0
  139.7716   69.5111  219.0990 H   0  0  0  0  0  0  0  0  0  0  0  0
  140.8450   70.0816  221.5303 H   0  0  0  0  0  0  0  0  0  0  0  0
  141.4529   70.6790  219.9158 H   0  0  0  0  0  0  0  0  0  0  0  0
  140.9851   72.9555  219.1590 H   0  0  0  0  0  0  0  0  0  0  0  0
  137.8792   76.0666  221.7885 H   0  0  0  0  0  0  0  0  0  0  0  0
  138.2704   77.0032  223.2319 H   0  0  0  0  0  0  0  0  0  0  0  0
  139.1863   77.6815  220.3501 H   0  0  0  0  0  0  0  0  0  0  0  0
  137.8732   78.5154  221.2013 H   0  0  0  0  0  0  0  0  0  0  0  0
  138.7776   80.6529  221.4594 H   0  0  0  0  0  0  0  0  0  0  0  0
  140.4545   82.0942  222.6062 H   0  0  0  0  0  0  0  0  0  0  0  0
  142.3826   81.1201  223.7860 H   0  0  0  0  0  0  0  0  0  0  0  0
  142.6999   78.6247  223.8525 H   0  0  0  0  0  0  0  0  0  0  0  0
  141.9428   76.5524  222.0908 H   0  0  0  0  0  0  0  0  0  0  0  0
  141.2436   76.5313  223.7785 H   0  0  0  0  0  0  0  0  0  0  0  0
  137.9246   70.9060  224.1558 H   0  0  0  0  0  0  0  0  0  0  0  0
  138.1348   70.6281  222.3867 H   0  0  0  0  0  0  0  0  0  0  0  0
  138.2413   68.4797  223.6302 H   0  0  0  0  0  0  0  0  0  0  0  0
  139.8153   68.8399  222.8760 H   0  0  0  0  0  0  0  0  0  0  0  0
  139.0076   67.2072  225.5409 H   0  0  0  0  0  0  0  0  0  0  0  0
  140.0774   67.2255  227.7936 H   0  0  0  0  0  0  0  0  0  0  0  0
  141.4166   69.2400  228.4413 H   0  0  0  0  0  0  0  0  0  0  0  0
  141.6595   71.1535  226.9025 H   0  0  0  0  0  0  0  0  0  0  0  0
  140.5157   72.3516  225.0937 H   0  0  0  0  0  0  0  0  0  0  0  0
  141.6821   71.3924  224.0737 H   0  0  0  0  0  0  0  0  0  0  0  0
  1  2  1  0
  2  3  2  0
  2  4  1  0
  4  5  1  0
  5  6  1  0
  6  7  1  0
  7  8  2  0
  8  9  1  0
  9 10  2  0
 10 11  1  0
 11 12  1  0
 12 13  1  0
 13 14  1  0
 14 15  2  0
 15 16  1  0
 16 17  2  0
 17 18  1  0
 18 19  2  0
 19 20  1  0
 10 21  1  0
 21 22  2  0
 22 23  1  0
 23 24  1  0
 24 25  1  0
 25 26  1  0
 26 27  2  0
 27 28  1  0
 28 29  2  0
 29 30  1  0
 30 31  2  0
 31 32  1  0
 22  7  1  0
 32 23  1  0
 20 11  1  0
 31 26  1  0
 19 14  1  0
  1 33  1  0
  1 34  1  0
  4 35  1  0
  4 36  1  0
  5 37  1  0
  5 38  1  0
  6 39  1  0
  6 40  1  0
  8 41  1  0
 12 42  1  0
 12 43  1  0
 13 44  1  0
 13 45  1  0
 15 46  1  0
 16 47  1  0
 17 48  1  0
 18 49  1  0
 20 50  1  0
 20 51  1  0
 24 52  1  0
 24 53  1  0
 25 54  1  0
 25 55  1  0
 27 56  1  0
 28 57  1  0
 29 58  1  0
 30 59  1  0
 32 60  1  0
 32 61  1  0
M  END
>  <smiles>  (10) 
NC(=O)CCCc1cnc(N2CCc3ccccc3C2)nc1N1CCc2ccccc2C1

>  <score_type>  (10) 
oracle

>  <origin>  (10) 
autodockgpu

>  <m_score__min__energy>  (10) 
-9.2200000000000006

>  <m_primary>  (10) 
energy

>  <rmsd>  (10) 
10.279132037154314

>  <m_score__min__rmsd>  (10) 
10.279132037154314

>  <meeko>  (10) 
{"free_energy": -7.4, "intermolecular_energy": -9.19, "internal_energy": -2.24, "cluster_size": 1, "cluster_id": 6, "rank_in_cluster": 1}

>  <energy>  (10) 
-8.81

>  <cluster_rmsd>  (10) 
1.51

>  <cluster>  (10) 
1

$$$$

     RDKit          3D

 61 65  0  0  0  0  0  0  0  0999 V2000
  136.8760   75.6580  222.8730 N   0  0  0  0  0  0  0  0  0  0  0  0
  137.3600   76.9030  222.3280 C   0  0  0  0  0  0  0  0  0  0  0  0
  137.9520   77.6710  223.1150 O   0  0  0  0  0  0  0  0  0  0  0  0
  137.1090   77.1490  220.8980 C   0  0  0  0  0  0  0  0  0  0  0  0
  136.7640   75.9180  220.1010 C   0  0  0  0  0  0  0  0  0  0  0  0
  138.0050   75.2170  219.6760 C   0  0  0  0  0  0  0  0  0  0  0  0
  138.4800   74.2130  220.6620 C   0  0  0  0  0  0  0  0  0  0  0  0
  137.8000   73.0060  220.8610 C   0  0  0  0  0  0  0  0  0  0  0  0
  138.2220   72.1110  221.7580 N   0  0  0  0  0  0  0  0  0  0  0  0
  139.3280   72.3250  222.5230 C   0  0  0  0  0  0  0  0  0  0  0  0
  139.7790   71.3750  223.4790 N   0  0  0  0  0  0  0  0  0  0  0  0
  139.6840   69.9450  223.2270 C   0  0  0  0  0  0  0  0  0  0  0  0
  138.8560   69.3920  224.3880 C   0  0  0  0  0  0  0  0  0  0  0  0
  139.6350   69.6790  225.6340 C   0  0  0  0  0  0  0  0  0  0  0  0
  139.6150   68.7020  226.6300 C   0  0  0  0  0  0  0  0  0  0  0  0
  140.3360   68.9700  227.7790 C   0  0  0  0  0  0  0  0  0  0  0  0
  141.0460   70.1440  227.9430 C   0  0  0  0  0  0  0  0  0  0  0  0
  141.0540   71.1120  226.9340 C   0  0  0  0  0  0  0  0  0  0  0  0
  140.3410   70.8430  225.8020 C   0  0  0  0  0  0  0  0  0  0  0  0
  140.3350   71.8610  224.7100 C   0  0  0  0  0  0  0  0  0  0  0  0
  139.9930   73.4710  222.3500 N   0  0  0  0  0  0  0  0  0  0  0  0
  139.5950   74.4140  221.4420 C   0  0  0  0  0  0  0  0  0  0  0  0
  140.4160   75.5690  221.3710 N   0  0  0  0  0  0  0  0  0  0  0  0
  141.1930   75.9730  220.2460 C   0  0  0  0  0  0  0  0  0  0  0  0
  140.9170   77.4400  219.9050 C   0  0  0  0  0  0  0  0  0  0  0  0
  141.3280   78.2670  221.0960 C   0  0  0  0  0  0  0  0  0  0  0  0
  141.9200   79.5070  220.9400 C   0  0  0  0  0  0  0  0  0  0  0  0
  142.2960   80.2550  222.0330 C   0  0  0  0  0  0  0  0  0  0  0  0
  142.0520   79.7050  223.2900 C   0  0  0  0  0  0  0  0  0  0  0  0
  141.4580   78.4580  223.4340 C   0  0  0  0  0  0  0  0  0  0  0  0
  141.0810   77.7080  222.3250 C   0  0  0  0  0  0  0  0  0  0  0  0
  140.4600   76.4060  222.5650 C   0  0  0  0  0  0  0  0  0  0  0  0
  137.5010   75.1690  223.5520 H   0  0  0  0  0  0  0  0  0  0  0  0
  135.9480   75.2610  222.6060 H   0  0  0  0  0  0  0  0  0  0  0  0
  136.2723   77.8581  220.8135 H   0  0  0  0  0  0  0  0  0  0  0  0
  138.0486   77.5385  220.4790 H   0  0  0  0  0  0  0  0  0  0  0  0
  136.1587   75.2410  220.7217 H   0  0  0  0  0  0  0  0  0  0  0  0
  136.1962   76.2164  219.2073 H   0  0  0  0  0  0  0  0  0  0  0  0
  137.8074   74.7041  218.7232 H   0  0  0  0  0  0  0  0  0  0  0  0
  138.7931   75.9786  219.5813 H   0  0  0  0  0  0  0  0  0  0  0  0
  136.8999   72.7902  220.2666 H   0  0  0  0  0  0  0  0  0  0  0  0
  139.1805   69.7542  222.2678 H   0  0  0  0  0  0  0  0  0  0  0  0
  140.6742   69.4703  223.1631 H   0  0  0  0  0  0  0  0  0  0  0  0
  137.8761   69.8902  224.4282 H   0  0  0  0  0  0  0  0  0  0  0  0
  138.6729   68.3137  224.2705 H   0  0  0  0  0  0  0  0  0  0  0  0
  139.0531   67.7644  226.5071 H   0  0  0  0  0  0  0  0  0  0  0  0
  140.3446   68.2250  228.5882 H   0  0  0  0  0  0  0  0  0  0  0  0
  141.6080   70.3180  228.8724 H   0  0  0  0  0  0  0  0  0  0  0  0
  141.6127   72.0527  227.0482 H   0  0  0  0  0  0  0  0  0  0  0  0
  139.7420   72.7256  225.0429 H   0  0  0  0  0  0  0  0  0  0  0  0
  141.3832   72.1274  224.5094 H   0  0  0  0  0  0  0  0  0  0  0  0
  142.2607   75.8501  220.4801 H   0  0  0  0  0  0  0  0  0  0  0  0
  140.9209   75.3488  219.3821 H   0  0  0  0  0  0  0  0  0  0  0  0
  141.5019   77.7367  219.0219 H   0  0  0  0  0  0  0  0  0  0  0  0
  139.8514   77.5910  219.6776 H   0  0  0  0  0  0  0  0  0  0  0  0
  142.0930   79.9015  219.9279 H   0  0  0  0  0  0  0  0  0  0  0  0
  142.7677   81.2422  221.9192 H   0  0  0  0  0  0  0  0  0  0  0  0
  142.3365   80.2717  224.1889 H   0  0  0  0  0  0  0  0  0  0  0  0
  141.2826   78.0564  224.4429 H   0  0  0  0  0  0  0  0  0  0  0  0
  141.0357   75.8803  223.3410 H   0  0  0  0  0  0  0  0  0  0  0  0
  139.4215   76.5885  222.8785 H   0  0  0  0  0  0  0  0  0  0  0  0
  1  2  1  0
  2  3  2  0
  2  4  1  0
  4  5  1  0
  5  6  1  0
  6  7  1  0
  7  8  2  0
  8  9  1  0
  9 10  2  0
 10 11  1  0
 11 12  1  0
 12 13  1  0
 13 14  1  0
 14 15  2  0
 15 16  1  0
 16 17  2  0
 17 18  1  0
 18 19  2  0
 19 20  1  0
 10 21  1  0
 21 22  2  0
 22 23  1  0
 23 24  1  0
 24 25  1  0
 25 26  1  0
 26 27  2  0
 27 28  1  0
 28 29  2  0
 29 30  1  0
 30 31  2  0
 31 32  1  0
 22  7  1  0
 32 23  1  0
 20 11  1  0
 31 26  1  0
 19 14  1  0
  1 33  1  0
  1 34  1  0
  4 35  1  0
  4 36  1  0
  5 37  1  0
  5 38  1  0
  6 39  1  0
  6 40  1  0
  8 41  1  0
 12 42  1  0
 12 43  1  0
 13 44  1  0
 13 45  1  0
 15 46  1  0
 16 47  1  0
 17 48  1  0
 18 49  1  0
 20 50  1  0
 20 51  1  0
 24 52  1  0
 24 53  1  0
 25 54  1  0
 25 55  1  0
 27 56  1  0
 28 57  1  0
 29 58  1  0
 30 59  1  0
 32 60  1  0
 32 61  1  0
M  END
>  <smiles>  (11) 
NC(=O)CCCc1cnc(N2CCc3ccccc3C2)nc1N1CCc2ccccc2C1

>  <score_type>  (11) 
oracle

>  <origin>  (11) 
autodockgpu

>  <m_score__min__energy>  (11) 
-9.2200000000000006

>  <m_primary>  (11) 
energy

>  <rmsd>  (11) 
4.221658781171097

>  <m_score__min__rmsd>  (11) 
4.221658781171097

>  <meeko>  (11) 
{"free_energy": -8.31, "intermolecular_energy": -10.1, "internal_energy": -1.78, "cluster_size": 14, "cluster_id": 2, "rank_in_cluster": 12}

>  <energy>  (11) 
-8.79

>  <cluster_rmsd>  (11) 
1.86

>  <cluster>  (11) 
1

$$$$

     RDKit          3D

 61 65  0  0  0  0  0  0  0  0999 V2000
  144.5670   74.3370  217.4210 N   0  0  0  0  0  0  0  0  0  0  0  0
  144.8110   73.7990  218.7380 C   0  0  0  0  0  0  0  0  0  0  0  0
  145.5820   72.8200  218.8130 O   0  0  0  0  0  0  0  0  0  0  0  0
  144.1280   74.4570  219.8650 C   0  0  0  0  0  0  0  0  0  0  0  0
  142.8620   75.1850  219.4920 C   0  0  0  0  0  0  0  0  0  0  0  0
  141.7470   74.2170  219.3150 C   0  0  0  0  0  0  0  0  0  0  0  0
  141.3980   73.4860  220.5590 C   0  0  0  0  0  0  0  0  0  0  0  0
  141.7830   72.1550  220.7560 C   0  0  0  0  0  0  0  0  0  0  0  0
  141.4560   71.4960  221.8710 N   0  0  0  0  0  0  0  0  0  0  0  0
  140.7350   72.0800  222.8680 C   0  0  0  0  0  0  0  0  0  0  0  0
  140.3850   71.3810  224.0550 N   0  0  0  0  0  0  0  0  0  0  0  0
  140.6630   71.9380  225.3700 C   0  0  0  0  0  0  0  0  0  0  0  0
  141.5280   70.8880  226.0710 C   0  0  0  0  0  0  0  0  0  0  0  0
  140.6910   69.6500  226.1640 C   0  0  0  0  0  0  0  0  0  0  0  0
  140.8100   68.8940  227.3310 C   0  0  0  0  0  0  0  0  0  0  0  0
  140.0360   67.7520  227.4140 C   0  0  0  0  0  0  0  0  0  0  0  0
  139.1820   67.3680  226.3980 C   0  0  0  0  0  0  0  0  0  0  0  0
  139.0760   68.1380  225.2360 C   0  0  0  0  0  0  0  0  0  0  0  0
  139.8420   69.2640  225.1580 C   0  0  0  0  0  0  0  0  0  0  0  0
  139.7450   70.1030  223.9270 C   0  0  0  0  0  0  0  0  0  0  0  0
  140.3580   73.3510  222.7010 N   0  0  0  0  0  0  0  0  0  0  0  0
  140.6720   74.0620  221.5750 C   0  0  0  0  0  0  0  0  0  0  0  0
  140.2070   75.4030  221.5580 N   0  0  0  0  0  0  0  0  0  0  0  0
  138.9740   75.8520  221.0010 C   0  0  0  0  0  0  0  0  0  0  0  0
  138.2150   76.7150  222.0130 C   0  0  0  0  0  0  0  0  0  0  0  0
  139.0720   77.9170  222.3170 C   0  0  0  0  0  0  0  0  0  0  0  0
  138.5120   79.1650  222.5220 C   0  0  0  0  0  0  0  0  0  0  0  0
  139.3030   80.2580  222.7960 C   0  0  0  0  0  0  0  0  0  0  0  0
  140.6780   80.0460  222.8560 C   0  0  0  0  0  0  0  0  0  0  0  0
  141.2290   78.7880  222.6480 C   0  0  0  0  0  0  0  0  0  0  0  0
  140.4240   77.6880  222.3700 C   0  0  0  0  0  0  0  0  0  0  0  0
  141.0830   76.3990  222.1650 C   0  0  0  0  0  0  0  0  0  0  0  0
  145.3890   74.3940  216.7780 H   0  0  0  0  0  0  0  0  0  0  0  0
  143.6190   74.6540  217.1200 H   0  0  0  0  0  0  0  0  0  0  0  0
  143.8749   73.6877  220.6094 H   0  0  0  0  0  0  0  0  0  0  0  0
  144.8233   75.2174  220.2502 H   0  0  0  0  0  0  0  0  0  0  0  0
  142.6028   75.8960  220.2904 H   0  0  0  0  0  0  0  0  0  0  0  0
  143.0229   75.7244  218.5469 H   0  0  0  0  0  0  0  0  0  0  0  0
  140.8582   74.7676  218.9731 H   0  0  0  0  0  0  0  0  0  0  0  0
  142.0802   73.4685  218.5810 H   0  0  0  0  0  0  0  0  0  0  0  0
  142.3663   71.6415  219.9775 H   0  0  0  0  0  0  0  0  0  0  0  0
  141.2075   72.8895  225.2795 H   0  0  0  0  0  0  0  0  0  0  0  0
  139.7413   72.1543  225.9300 H   0  0  0  0  0  0  0  0  0  0  0  0
  142.4373   70.6901  225.4845 H   0  0  0  0  0  0  0  0  0  0  0  0
  141.8467   71.2315  227.0662 H   0  0  0  0  0  0  0  0  0  0  0  0
  141.4869   69.1925  228.1451 H   0  0  0  0  0  0  0  0  0  0  0  0
  140.1020   67.1288  228.3180 H   0  0  0  0  0  0  0  0  0  0  0  0
  138.5825   66.4518  226.5040 H   0  0  0  0  0  0  0  0  0  0  0  0
  138.4016   67.8474  224.4170 H   0  0  0  0  0  0  0  0  0  0  0  0
  140.2173   69.5585  223.0961 H   0  0  0  0  0  0  0  0  0  0  0  0
  138.6764   70.2922  223.7470 H   0  0  0  0  0  0  0  0  0  0  0  0
  139.1790   76.4469  220.0987 H   0  0  0  0  0  0  0  0  0  0  0  0
  138.3583   74.9773  220.7447 H   0  0  0  0  0  0  0  0  0  0  0  0
  137.2541   77.0374  221.5855 H   0  0  0  0  0  0  0  0  0  0  0  0
  138.0086   76.1445  222.9306 H   0  0  0  0  0  0  0  0  0  0  0  0
  137.4201   79.2858  222.4654 H   0  0  0  0  0  0  0  0  0  0  0  0
  138.8680   81.2549  222.9603 H   0  0  0  0  0  0  0  0  0  0  0  0
  141.3433   80.8946  223.0732 H   0  0  0  0  0  0  0  0  0  0  0  0
  142.3200   78.6594  222.7040 H   0  0  0  0  0  0  0  0  0  0  0  0
  141.9516   76.5497  221.5072 H   0  0  0  0  0  0  0  0  0  0  0  0
  141.3790   76.0190  223.1539 H   0  0  0  0  0  0  0  0  0  0  0  0
  1  2  1  0
  2  3  2  0
  2  4  1  0
  4  5  1  0
  5  6  1  0
  6  7  1  0
  7  8  2  0
  8  9  1  0
  9 10  2  0
 10 11  1  0
 11 12  1  0
 12 13  1  0
 13 14  1  0
 14 15  2  0
 15 16  1  0
 16 17  2  0
 17 18  1  0
 18 19  2  0
 19 20  1  0
 10 21  1  0
 21 22  2  0
 22 23  1  0
 23 24  1  0
 24 25  1  0
 25 26  1  0
 26 27  2  0
 27 28  1  0
 28 29  2  0
 29 30  1  0
 30 31  2  0
 31 32  1  0
 22  7  1  0
 32 23  1  0
 20 11  1  0
 31 26  1  0
 19 14  1  0
  1 33  1  0
  1 34  1  0
  4 35  1  0
  4 36  1  0
  5 37  1  0
  5 38  1  0
  6 39  1  0
  6 40  1  0
  8 41  1  0
 12 42  1  0
 12 43  1  0
 13 44  1  0
 13 45  1  0
 15 46  1  0
 16 47  1  0
 17 48  1  0
 18 49  1  0
 20 50  1  0
 20 51  1  0
 24 52  1  0
 24 53  1  0
 25 54  1  0
 25 55  1  0
 27 56  1  0
 28 57  1  0
 29 58  1  0
 30 59  1  0
 32 60  1  0
 32 61  1  0
M  END
>  <smiles>  (12) 
NC(=O)CCCc1cnc(N2CCc3ccccc3C2)nc1N1CCc2ccccc2C1

>  <score_type>  (12) 
oracle

>  <origin>  (12) 
autodockgpu

>  <m_score__min__energy>  (12) 
-9.2200000000000006

>  <m_primary>  (12) 
energy

>  <rmsd>  (12) 
3.8239715111537635

>  <m_score__min__rmsd>  (12) 
3.8239715111537635

>  <meeko>  (12) 
{"free_energy": -8.6, "intermolecular_energy": -10.39, "internal_energy": -1.24, "cluster_size": 27, "cluster_id": 1, "rank_in_cluster": 21}

>  <energy>  (12) 
-8.75

>  <cluster_rmsd>  (12) 
1.78

>  <cluster>  (12) 
1

$$$$

     RDKit          3D

 61 65  0  0  0  0  0  0  0  0999 V2000
  144.9030   74.6080  220.4310 N   0  0  0  0  0  0  0  0  0  0  0  0
  145.1100   73.2070  220.1560 C   0  0  0  0  0  0  0  0  0  0  0  0
  145.9390   72.9230  219.2670 O   0  0  0  0  0  0  0  0  0  0  0  0
  144.3230   72.2470  220.9490 C   0  0  0  0  0  0  0  0  0  0  0  0
  143.3830   71.3890  220.1420 C   0  0  0  0  0  0  0  0  0  0  0  0
  142.0030   71.4830  220.6900 C   0  0  0  0  0  0  0  0  0  0  0  0
  141.5670   72.8790  220.9480 C   0  0  0  0  0  0  0  0  0  0  0  0
  142.0870   73.9540  220.2170 C   0  0  0  0  0  0  0  0  0  0  0  0
  141.7030   75.2090  220.4610 N   0  0  0  0  0  0  0  0  0  0  0  0
  140.7920   75.5090  221.4290 C   0  0  0  0  0  0  0  0  0  0  0  0
  140.3820   76.8440  221.6910 N   0  0  0  0  0  0  0  0  0  0  0  0
  141.3000   77.9620  221.5300 C   0  0  0  0  0  0  0  0  0  0  0  0
  141.3310   78.6490  222.8970 C   0  0  0  0  0  0  0  0  0  0  0  0
  139.9350   79.1180  223.1620 C   0  0  0  0  0  0  0  0  0  0  0  0
  139.7940   80.3520  223.7990 C   0  0  0  0  0  0  0  0  0  0  0  0
  138.5040   80.7830  224.0420 C   0  0  0  0  0  0  0  0  0  0  0  0
  137.3990   80.0380  223.6760 C   0  0  0  0  0  0  0  0  0  0  0  0
  137.5590   78.8040  223.0390 C   0  0  0  0  0  0  0  0  0  0  0  0
  138.8350   78.3830  222.8010 C   0  0  0  0  0  0  0  0  0  0  0  0
  139.0320   77.0680  222.1210 C   0  0  0  0  0  0  0  0  0  0  0  0
  140.2830   74.4980  222.1380 N   0  0  0  0  0  0  0  0  0  0  0  0
  140.6490   73.1980  221.9200 C   0  0  0  0  0  0  0  0  0  0  0  0
  140.0060   72.2420  222.7500 N   0  0  0  0  0  0  0  0  0  0  0  0
  138.7540   71.6140  222.4850 C   0  0  0  0  0  0  0  0  0  0  0  0
  138.8780   70.0940  222.6290 C   0  0  0  0  0  0  0  0  0  0  0  0
  139.2690   69.8050  224.0560 C   0  0  0  0  0  0  0  0  0  0  0  0
  138.7710   68.7030  224.7280 C   0  0  0  0  0  0  0  0  0  0  0  0
  139.1310   68.4480  226.0320 C   0  0  0  0  0  0  0  0  0  0  0  0
  140.0120   69.3450  226.6320 C   0  0  0  0  0  0  0  0  0  0  0  0
  140.5050   70.4480  225.9480 C   0  0  0  0  0  0  0  0  0  0  0  0
  140.1360   70.7010  224.6300 C   0  0  0  0  0  0  0  0  0  0  0  0
  140.7010   71.8830  223.9820 C   0  0  0  0  0  0  0  0  0  0  0  0
  145.7530   75.2150  220.4360 H   0  0  0  0  0  0  0  0  0  0  0  0
  143.9540   75.0010  220.6170 H   0  0  0  0  0  0  0  0  0  0  0  0
  145.0230   71.5844  221.4790 H   0  0  0  0  0  0  0  0  0  0  0  0
  143.6958   72.8434  221.6280 H   0  0  0  0  0  0  0  0  0  0  0  0
  143.3833   71.7332  219.0972 H   0  0  0  0  0  0  0  0  0  0  0  0
  143.7189   70.3428  220.1928 H   0  0  0  0  0  0  0  0  0  0  0  0
  141.3089   71.0283  219.9679 H   0  0  0  0  0  0  0  0  0  0  0  0
  141.9997   70.9569  221.6560 H   0  0  0  0  0  0  0  0  0  0  0  0
  142.8266   73.7606  219.4260 H   0  0  0  0  0  0  0  0  0  0  0  0
  142.3026   77.6025  221.2551 H   0  0  0  0  0  0  0  0  0  0  0  0
  140.9809   78.6468  220.7305 H   0  0  0  0  0  0  0  0  0  0  0  0
  141.6479   77.9376  223.6739 H   0  0  0  0  0  0  0  0  0  0  0  0
  142.0435   79.4870  222.9077 H   0  0  0  0  0  0  0  0  0  0  0  0
  140.6676   80.9522  224.0932 H   0  0  0  0  0  0  0  0  0  0  0  0
  138.3515   81.7504  224.5430 H   0  0  0  0  0  0  0  0  0  0  0  0
  136.3885   80.4180  223.8870 H   0  0  0  0  0  0  0  0  0  0  0  0
  136.6913   78.1968  222.7416 H   0  0  0  0  0  0  0  0  0  0  0  0
  138.7524   76.2679  222.8222 H   0  0  0  0  0  0  0  0  0  0  0  0
  138.4012   77.0715  221.2198 H   0  0  0  0  0  0  0  0  0  0  0  0
  138.0038   71.9857  223.1985 H   0  0  0  0  0  0  0  0  0  0  0  0
  138.4467   71.8510  221.4558 H   0  0  0  0  0  0  0  0  0  0  0  0
  137.9148   69.6150  222.3990 H   0  0  0  0  0  0  0  0  0  0  0  0
  139.6324   69.6989  221.9327 H   0  0  0  0  0  0  0  0  0  0  0  0
  138.0779   68.0213  224.2133 H   0  0  0  0  0  0  0  0  0  0  0  0
  138.7406   67.5752  226.5758 H   0  0  0  0  0  0  0  0  0  0  0  0
  140.3246   69.1753  227.6729 H   0  0  0  0  0  0  0  0  0  0  0  0
  141.1990   71.1336  226.4563 H   0  0  0  0  0  0  0  0  0  0  0  0
  140.6374   72.7304  224.6805 H   0  0  0  0  0  0  0  0  0  0  0  0
  141.7425   71.6481  223.7171 H   0  0  0  0  0  0  0  0  0  0  0  0
  1  2  1  0
  2  3  2  0
  2  4  1  0
  4  5  1  0
  5  6  1  0
  6  7  1  0
  7  8  2  0
  8  9  1  0
  9 10  2  0
 10 11  1  0
 11 12  1  0
 12 13  1  0
 13 14  1  0
 14 15  2  0
 15 16  1  0
 16 17  2  0
 17 18  1  0
 18 19  2  0
 19 20  1  0
 10 21  1  0
 21 22  2  0
 22 23  1  0
 23 24  1  0
 24 25  1  0
 25 26  1  0
 26 27  2  0
 27 28  1  0
 28 29  2  0
 29 30  1  0
 30 31  2  0
 31 32  1  0
 22  7  1  0
 32 23  1  0
 20 11  1  0
 31 26  1  0
 19 14  1  0
  1 33  1  0
  1 34  1  0
  4 35  1  0
  4 36  1  0
  5 37  1  0
  5 38  1  0
  6 39  1  0
  6 40  1  0
  8 41  1  0
 12 42  1  0
 12 43  1  0
 13 44  1  0
 13 45  1  0
 15 46  1  0
 16 47  1  0
 17 48  1  0
 18 49  1  0
 20 50  1  0
 20 51  1  0
 24 52  1  0
 24 53  1  0
 25 54  1  0
 25 55  1  0
 27 56  1  0
 28 57  1  0
 29 58  1  0
 30 59  1  0
 32 60  1  0
 32 61  1  0
M  END
>  <smiles>  (13) 
NC(=O)CCCc1cnc(N2CCc3ccccc3C2)nc1N1CCc2ccccc2C1

>  <score_type>  (13) 
oracle

>  <origin>  (13) 
autodockgpu

>  <m_score__min__energy>  (13) 
-9.2200000000000006

>  <m_primary>  (13) 
energy

>  <rmsd>  (13) 
9.906202345240468

>  <m_score__min__rmsd>  (13) 
9.906202345240468

>  <meeko>  (13) 
{"free_energy": -9.11, "intermolecular_energy": -10.9, "internal_energy": -1.37, "cluster_size": 27, "cluster_id": 1, "rank_in_cluster": 2}

>  <energy>  (13) 
-8.74

>  <cluster_rmsd>  (13) 
1.82

>  <cluster>  (13) 
1

$$$$

     RDKit          3D

 61 65  0  0  0  0  0  0  0  0999 V2000
  137.5940   78.0570  222.7760 N   0  0  0  0  0  0  0  0  0  0  0  0
  137.0520   76.7460  222.5170 C   0  0  0  0  0  0  0  0  0  0  0  0
  136.8300   76.0210  223.5090 O   0  0  0  0  0  0  0  0  0  0  0  0
  136.8110   76.3880  221.1090 C   0  0  0  0  0  0  0  0  0  0  0  0
  137.9590   76.6900  220.1800 C   0  0  0  0  0  0  0  0  0  0  0  0
  138.4600   75.4360  219.5570 C   0  0  0  0  0  0  0  0  0  0  0  0
  138.8390   74.3980  220.5490 C   0  0  0  0  0  0  0  0  0  0  0  0
  138.1560   73.1780  220.6270 C   0  0  0  0  0  0  0  0  0  0  0  0
  138.4900   72.2520  221.5290 N   0  0  0  0  0  0  0  0  0  0  0  0
  139.5060   72.4450  222.4160 C   0  0  0  0  0  0  0  0  0  0  0  0
  139.8640   71.4610  223.3780 N   0  0  0  0  0  0  0  0  0  0  0  0
  139.6240   70.0460  223.1380 C   0  0  0  0  0  0  0  0  0  0  0  0
  138.7500   69.5880  224.3070 C   0  0  0  0  0  0  0  0  0  0  0  0
  139.5610   69.8050  225.5460 C   0  0  0  0  0  0  0  0  0  0  0  0
  139.4480   68.8420  226.5510 C   0  0  0  0  0  0  0  0  0  0  0  0
  140.1980   69.0450  227.6940 C   0  0  0  0  0  0  0  0  0  0  0  0
  141.0240   70.1430  227.8450 C   0  0  0  0  0  0  0  0  0  0  0  0
  141.1240   71.0970  226.8290 C   0  0  0  0  0  0  0  0  0  0  0  0
  140.3820   70.8930  225.7030 C   0  0  0  0  0  0  0  0  0  0  0  0
  140.4720   71.8970  224.6020 C   0  0  0  0  0  0  0  0  0  0  0  0
  140.1710   73.6020  222.3590 N   0  0  0  0  0  0  0  0  0  0  0  0
  139.8610   74.5760  221.4510 C   0  0  0  0  0  0  0  0  0  0  0  0
  140.6710   75.7400  221.5130 N   0  0  0  0  0  0  0  0  0  0  0  0
  141.6340   76.1390  220.5400 C   0  0  0  0  0  0  0  0  0  0  0  0
  141.4100   77.5990  220.1350 C   0  0  0  0  0  0  0  0  0  0  0  0
  141.5930   78.4450  221.3690 C   0  0  0  0  0  0  0  0  0  0  0  0
  142.1920   79.6900  221.3040 C   0  0  0  0  0  0  0  0  0  0  0  0
  142.3580   80.4550  222.4370 C   0  0  0  0  0  0  0  0  0  0  0  0
  141.8970   79.9180  223.6370 C   0  0  0  0  0  0  0  0  0  0  0  0
  141.2970   78.6660  223.6900 C   0  0  0  0  0  0  0  0  0  0  0  0
  141.1340   77.8980  222.5410 C   0  0  0  0  0  0  0  0  0  0  0  0
  140.4920   76.5920  222.6830 C   0  0  0  0  0  0  0  0  0  0  0  0
  137.2050   78.5720  223.5980 H   0  0  0  0  0  0  0  0  0  0  0  0
  138.3380   78.4760  222.1750 H   0  0  0  0  0  0  0  0  0  0  0  0
  136.6045   75.3087  221.0598 H   0  0  0  0  0  0  0  0  0  0  0  0
  135.9653   77.0047  220.7706 H   0  0  0  0  0  0  0  0  0  0  0  0
  137.6170   77.3761  219.3911 H   0  0  0  0  0  0  0  0  0  0  0  0
  138.7732   77.1548  220.7553 H   0  0  0  0  0  0  0  0  0  0  0  0
  137.6700   75.0281  218.9093 H   0  0  0  0  0  0  0  0  0  0  0  0
  139.3678   75.6932  218.9916 H   0  0  0  0  0  0  0  0  0  0  0  0
  137.3277   72.9786  219.9312 H   0  0  0  0  0  0  0  0  0  0  0  0
  139.0991   69.8997  222.1825 H   0  0  0  0  0  0  0  0  0  0  0  0
  140.5610   69.4734  223.0739 H   0  0  0  0  0  0  0  0  0  0  0  0
  137.8255   70.1827  224.3476 H   0  0  0  0  0  0  0  0  0  0  0  0
  138.4579   68.5330  224.1993 H   0  0  0  0  0  0  0  0  0  0  0  0
  138.7940   67.9647  226.4384 H   0  0  0  0  0  0  0  0  0  0  0  0
  140.1356   68.3094  228.5095 H   0  0  0  0  0  0  0  0  0  0  0  0
  141.6059   70.2664  228.7703 H   0  0  0  0  0  0  0  0  0  0  0  0
  141.7752   71.9774  226.9332 H   0  0  0  0  0  0  0  0  0  0  0  0
  139.9707   72.8195  224.9303 H   0  0  0  0  0  0  0  0  0  0  0  0
  141.5407   72.0538  224.3941 H   0  0  0  0  0  0  0  0  0  0  0  0
  142.6434   76.0311  220.9635 H   0  0  0  0  0  0  0  0  0  0  0  0
  141.5275   75.5013  219.6500 H   0  0  0  0  0  0  0  0  0  0  0  0
  142.1410   77.8920  219.3670 H   0  0  0  0  0  0  0  0  0  0  0  0
  140.4011   77.7349  219.7184 H   0  0  0  0  0  0  0  0  0  0  0  0
  142.5405   80.0743  220.3341 H   0  0  0  0  0  0  0  0  0  0  0  0
  142.8335   81.4461  222.3963 H   0  0  0  0  0  0  0  0  0  0  0  0
  142.0107   80.4988  224.5642 H   0  0  0  0  0  0  0  0  0  0  0  0
  140.9450   78.2754  224.6562 H   0  0  0  0  0  0  0  0  0  0  0  0
  140.9232   76.0824  223.5573 H   0  0  0  0  0  0  0  0  0  0  0  0
  139.4124   76.7667  222.8014 H   0  0  0  0  0  0  0  0  0  0  0  0
  1  2  1  0
  2  3  2  0
  2  4  1  0
  4  5  1  0
  5  6  1  0
  6  7  1  0
  7  8  2  0
  8  9  1  0
  9 10  2  0
 10 11  1  0
 11 12  1  0
 12 13  1  0
 13 14  1  0
 14 15  2  0
 15 16  1  0
 16 17  2  0
 17 18  1  0
 18 19  2  0
 19 20  1  0
 10 21  1  0
 21 22  2  0
 22 23  1  0
 23 24  1  0
 24 25  1  0
 25 26  1  0
 26 27  2  0
 27 28  1  0
 28 29  2  0
 29 30  1  0
 30 31  2  0
 31 32  1  0
 22  7  1  0
 32 23  1  0
 20 11  1  0
 31 26  1  0
 19 14  1  0
  1 33  1  0
  1 34  1  0
  4 35  1  0
  4 36  1  0
  5 37  1  0
  5 38  1  0
  6 39  1  0
  6 40  1  0
  8 41  1  0
 12 42  1  0
 12 43  1  0
 13 44  1  0
 13 45  1  0
 15 46  1  0
 16 47  1  0
 17 48  1  0
 18 49  1  0
 20 50  1  0
 20 51  1  0
 24 52  1  0
 24 53  1  0
 25 54  1  0
 25 55  1  0
 27 56  1  0
 28 57  1  0
 29 58  1  0
 30 59  1  0
 32 60  1  0
 32 61  1  0
M  END
>  <smiles>  (14) 
NC(=O)CCCc1cnc(N2CCc3ccccc3C2)nc1N1CCc2ccccc2C1

>  <score_type>  (14) 
oracle

>  <origin>  (14) 
autodockgpu

>  <m_score__min__energy>  (14) 
-9.2200000000000006

>  <m_primary>  (14) 
energy

>  <rmsd>  (14) 
3.993001033232465

>  <m_score__min__rmsd>  (14) 
3.993001033232465

>  <meeko>  (14) 
{"free_energy": -8.08, "intermolecular_energy": -9.87, "internal_energy": -1.78, "cluster_size": 14, "cluster_id": 2, "rank_in_cluster": 14}

>  <energy>  (14) 
-8.73

>  <cluster_rmsd>  (14) 
1.81

>  <cluster>  (14) 
1

$$$$

     RDKit          3D

 61 65  0  0  0  0  0  0  0  0999 V2000
  136.5690   74.7560  223.4380 N   0  0  0  0  0  0  0  0  0  0  0  0
  136.1880   76.0020  222.8200 C   0  0  0  0  0  0  0  0  0  0  0  0
  135.0010   76.3630  222.9640 O   0  0  0  0  0  0  0  0  0  0  0  0
  137.2330   76.7290  222.0790 C   0  0  0  0  0  0  0  0  0  0  0  0
  137.0230   76.7820  220.5880 C   0  0  0  0  0  0  0  0  0  0  0  0
  137.9680   75.8610  219.9020 C   0  0  0  0  0  0  0  0  0  0  0  0
  138.4240   74.7400  220.7620 C   0  0  0  0  0  0  0  0  0  0  0  0
  137.6890   73.5520  220.8650 C   0  0  0  0  0  0  0  0  0  0  0  0
  138.0950   72.5510  221.6490 N   0  0  0  0  0  0  0  0  0  0  0  0
  139.2370   72.6320  222.3890 C   0  0  0  0  0  0  0  0  0  0  0  0
  139.6700   71.5680  223.2260 N   0  0  0  0  0  0  0  0  0  0  0  0
  139.4620   70.1780  222.8500 C   0  0  0  0  0  0  0  0  0  0  0  0
  138.6600   69.5710  224.0030 C   0  0  0  0  0  0  0  0  0  0  0  0
  139.5230   69.6880  225.2210 C   0  0  0  0  0  0  0  0  0  0  0  0
  139.4880   68.6240  226.1240 C   0  0  0  0  0  0  0  0  0  0  0  0
  140.2860   68.7340  227.2470 C   0  0  0  0  0  0  0  0  0  0  0  0
  141.0830   69.8400  227.4750 C   0  0  0  0  0  0  0  0  0  0  0  0
  141.1050   70.8960  226.5600 C   0  0  0  0  0  0  0  0  0  0  0  0
  140.3160   70.7830  225.4530 C   0  0  0  0  0  0  0  0  0  0  0  0
  140.3230   71.8980  224.4600 C   0  0  0  0  0  0  0  0  0  0  0  0
  139.9530   73.7560  222.3060 N   0  0  0  0  0  0  0  0  0  0  0  0
  139.5730   74.8060  221.5140 C   0  0  0  0  0  0  0  0  0  0  0  0
  140.4490   75.9220  221.5290 N   0  0  0  0  0  0  0  0  0  0  0  0
  141.3380   76.2980  220.4790 C   0  0  0  0  0  0  0  0  0  0  0  0
  141.1590   77.7810  220.1360 C   0  0  0  0  0  0  0  0  0  0  0  0
  141.5050   78.5760  221.3680 C   0  0  0  0  0  0  0  0  0  0  0  0
  142.1640   79.7890  221.2790 C   0  0  0  0  0  0  0  0  0  0  0  0
  142.4790   80.5080  222.4100 C   0  0  0  0  0  0  0  0  0  0  0  0
  142.1030   79.9590  223.6340 C   0  0  0  0  0  0  0  0  0  0  0  0
  141.4420   78.7400  223.7110 C   0  0  0  0  0  0  0  0  0  0  0  0
  141.1280   78.0180  222.5640 C   0  0  0  0  0  0  0  0  0  0  0  0
  140.4290   76.7450  222.7330 C   0  0  0  0  0  0  0  0  0  0  0  0
  136.1820   74.5660  224.3890 H   0  0  0  0  0  0  0  0  0  0  0  0
  137.2010   74.0740  222.9630 H   0  0  0  0  0  0  0  0  0  0  0  0
  137.2669   77.7612  222.4576 H   0  0  0  0  0  0  0  0  0  0  0  0
  138.1712   76.1784  222.2423 H   0  0  0  0  0  0  0  0  0  0  0  0
  135.9905   76.4819  220.3558 H   0  0  0  0  0  0  0  0  0  0  0  0
  137.2044   77.8085  220.2368 H   0  0  0  0  0  0  0  0  0  0  0  0
  137.4662   75.4410  219.0178 H   0  0  0  0  0  0  0  0  0  0  0  0
  138.8583   76.4485  219.6333 H   0  0  0  0  0  0  0  0  0  0  0  0
  136.7588   73.4419  220.2883 H   0  0  0  0  0  0  0  0  0  0  0  0
  138.8961   70.1127  221.9090 H   0  0  0  0  0  0  0  0  0  0  0  0
  140.4118   69.6486  222.6840 H   0  0  0  0  0  0  0  0  0  0  0  0
  137.7206   70.1249  224.1469 H   0  0  0  0  0  0  0  0  0  0  0  0
  138.3959   68.5229  223.7987 H   0  0  0  0  0  0  0  0  0  0  0  0
  138.8559   67.7407  225.9501 H   0  0  0  0  0  0  0  0  0  0  0  0
  140.2869   67.9159  227.9823 H   0  0  0  0  0  0  0  0  0  0  0  0
  141.7035   69.8892  228.3819 H   0  0  0  0  0  0  0  0  0  0  0  0
  141.7337   71.7833  226.7259 H   0  0  0  0  0  0  0  0  0  0  0  0
  139.8105   72.7638  224.9047 H   0  0  0  0  0  0  0  0  0  0  0  0
  141.3751   72.1136  224.2223 H   0  0  0  0  0  0  0  0  0  0  0  0
  142.3750   76.1227  220.8013 H   0  0  0  0  0  0  0  0  0  0  0  0
  141.1136   75.6948  219.5869 H   0  0  0  0  0  0  0  0  0  0  0  0
  141.8294   78.0588  219.3093 H   0  0  0  0  0  0  0  0  0  0  0  0
  140.1244   77.9838  219.8221 H   0  0  0  0  0  0  0  0  0  0  0  0
  142.4403   80.1847  220.2905 H   0  0  0  0  0  0  0  0  0  0  0  0
  143.0041   81.4727  222.3499 H   0  0  0  0  0  0  0  0  0  0  0  0
  142.3351   80.5037  224.5610 H   0  0  0  0  0  0  0  0  0  0  0  0
  141.1619   78.3384  224.6960 H   0  0  0  0  0  0  0  0  0  0  0  0
  140.9108   76.1857  223.5485 H   0  0  0  0  0  0  0  0  0  0  0  0
  139.3770   76.9737  222.9590 H   0  0  0  0  0  0  0  0  0  0  0  0
  1  2  1  0
  2  3  2  0
  2  4  1  0
  4  5  1  0
  5  6  1  0
  6  7  1  0
  7  8  2  0
  8  9  1  0
  9 10  2  0
 10 11  1  0
 11 12  1  0
 12 13  1  0
 13 14  1  0
 14 15  2  0
 15 16  1  0
 16 17  2  0
 17 18  1  0
 18 19  2  0
 19 20  1  0
 10 21  1  0
 21 22  2  0
 22 23  1  0
 23 24  1  0
 24 25  1  0
 25 26  1  0
 26 27  2  0
 27 28  1  0
 28 29  2  0
 29 30  1  0
 30 31  2  0
 31 32  1  0
 22  7  1  0
 32 23  1  0
 20 11  1  0
 31 26  1  0
 19 14  1  0
  1 33  1  0
  1 34  1  0
  4 35  1  0
  4 36  1  0
  5 37  1  0
  5 38  1  0
  6 39  1  0
  6 40  1  0
  8 41  1  0
 12 42  1  0
 12 43  1  0
 13 44  1  0
 13 45  1  0
 15 46  1  0
 16 47  1  0
 17 48  1  0
 18 49  1  0
 20 50  1  0
 20 51  1  0
 24 52  1  0
 24 53  1  0
 25 54  1  0
 25 55  1  0
 27 56  1  0
 28 57  1  0
 29 58  1  0
 30 59  1  0
 32 60  1  0
 32 61  1  0
M  END
>  <smiles>  (15) 
NC(=O)CCCc1cnc(N2CCc3ccccc3C2)nc1N1CCc2ccccc2C1

>  <score_type>  (15) 
oracle

>  <origin>  (15) 
autodockgpu

>  <m_score__min__energy>  (15) 
-9.2200000000000006

>  <m_primary>  (15) 
energy

>  <rmsd>  (15) 
4.242643520859989

>  <m_score__min__rmsd>  (15) 
4.242643520859989

>  <meeko>  (15) 
{"free_energy": -8.58, "intermolecular_energy": -10.37, "internal_energy": -2.08, "cluster_size": 14, "cluster_id": 2, "rank_in_cluster": 2}

>  <energy>  (15) 
-8.72

>  <cluster_rmsd>  (15) 
1.91

>  <cluster>  (15) 
1

$$$$

     RDKit          3D

 61 65  0  0  0  0  0  0  0  0999 V2000
  143.6500   76.7590  219.7890 N   0  0  0  0  0  0  0  0  0  0  0  0
  142.8570   75.5760  219.5640 C   0  0  0  0  0  0  0  0  0  0  0  0
  143.0580   74.6080  220.3260 O   0  0  0  0  0  0  0  0  0  0  0  0
  141.8850   75.6230  218.4580 C   0  0  0  0  0  0  0  0  0  0  0  0
  140.4610   75.8690  218.8840 C   0  0  0  0  0  0  0  0  0  0  0  0
  139.6770   74.6080  218.8050 C   0  0  0  0  0  0  0  0  0  0  0  0
  139.8110   73.7550  220.0130 C   0  0  0  0  0  0  0  0  0  0  0  0
  139.9580   72.3670  219.9150 C   0  0  0  0  0  0  0  0  0  0  0  0
  140.0650   71.6010  221.0040 N   0  0  0  0  0  0  0  0  0  0  0  0
  140.0350   72.1280  222.2600 C   0  0  0  0  0  0  0  0  0  0  0  0
  140.1470   71.3160  223.4210 N   0  0  0  0  0  0  0  0  0  0  0  0
  139.6750   69.9390  223.4290 C   0  0  0  0  0  0  0  0  0  0  0  0
  138.6580   69.8750  224.5710 C   0  0  0  0  0  0  0  0  0  0  0  0
  139.4120   70.2050  225.8220 C   0  0  0  0  0  0  0  0  0  0  0  0
  139.0640   69.4980  226.9740 C   0  0  0  0  0  0  0  0  0  0  0  0
  139.7610   69.8040  228.1270 C   0  0  0  0  0  0  0  0  0  0  0  0
  140.7570   70.7620  228.1490 C   0  0  0  0  0  0  0  0  0  0  0  0
  141.0930   71.4600  226.9860 C   0  0  0  0  0  0  0  0  0  0  0  0
  140.4010   71.1550  225.8510 C   0  0  0  0  0  0  0  0  0  0  0  0
  140.7420   71.8870  224.5950 C   0  0  0  0  0  0  0  0  0  0  0  0
  139.8950   73.4510  222.3770 N   0  0  0  0  0  0  0  0  0  0  0  0
  139.7820   74.2710  221.2870 C   0  0  0  0  0  0  0  0  0  0  0  0
  139.6530   75.6530  221.5820 N   0  0  0  0  0  0  0  0  0  0  0  0
  138.4730   76.4350  221.4130 C   0  0  0  0  0  0  0  0  0  0  0  0
  138.1600   77.2130  222.6950 C   0  0  0  0  0  0  0  0  0  0  0  0
  139.3190   78.1400  222.9570 C   0  0  0  0  0  0  0  0  0  0  0  0
  139.1220   79.4080  223.4740 C   0  0  0  0  0  0  0  0  0  0  0  0
  140.1860   80.2500  223.7070 C   0  0  0  0  0  0  0  0  0  0  0  0
  141.4560   79.7650  223.4010 C   0  0  0  0  0  0  0  0  0  0  0  0
  141.6410   78.4910  222.8810 C   0  0  0  0  0  0  0  0  0  0  0  0
  140.5610   77.6450  222.6470 C   0  0  0  0  0  0  0  0  0  0  0  0
  140.8430   76.3190  222.1000 C   0  0  0  0  0  0  0  0  0  0  0  0
  143.8150   77.0310  220.7840 H   0  0  0  0  0  0  0  0  0  0  0  0
  144.0430   77.3200  219.0010 H   0  0  0  0  0  0  0  0  0  0  0  0
  142.1828   76.4311  217.7737 H   0  0  0  0  0  0  0  0  0  0  0  0
  141.9018   74.6296  217.9860 H   0  0  0  0  0  0  0  0  0  0  0  0
  140.4503   76.2394  219.9197 H   0  0  0  0  0  0  0  0  0  0  0  0
  140.0094   76.6154  218.2139 H   0  0  0  0  0  0  0  0  0  0  0  0
  138.6153   74.8648  218.6752 H   0  0  0  0  0  0  0  0  0  0  0  0
  140.0718   74.0323  217.9549 H   0  0  0  0  0  0  0  0  0  0  0  0
  139.9860   71.8970  218.9208 H   0  0  0  0  0  0  0  0  0  0  0  0
  139.1964   69.6889  222.4707 H   0  0  0  0  0  0  0  0  0  0  0  0
  140.4971   69.2214  223.5674 H   0  0  0  0  0  0  0  0  0  0  0  0
  137.8536   70.6070  224.4065 H   0  0  0  0  0  0  0  0  0  0  0  0
  138.1903   68.8815  224.6356 H   0  0  0  0  0  0  0  0  0  0  0  0
  138.2728   68.7339  226.9644 H   0  0  0  0  0  0  0  0  0  0  0  0
  139.5157   69.2687  229.0561 H   0  0  0  0  0  0  0  0  0  0  0  0
  141.2885   70.9763  229.0879 H   0  0  0  0  0  0  0  0  0  0  0  0
  141.8838   72.2246  226.9859 H   0  0  0  0  0  0  0  0  0  0  0  0
  140.3937   72.9259  224.6919 H   0  0  0  0  0  0  0  0  0  0  0  0
  141.8329   71.8231  224.4689 H   0  0  0  0  0  0  0  0  0  0  0  0
  138.6237   77.1445  220.5861 H   0  0  0  0  0  0  0  0  0  0  0  0
  137.6302   75.7651  221.1873 H   0  0  0  0  0  0  0  0  0  0  0  0
  137.2357   77.7949  222.5649 H   0  0  0  0  0  0  0  0  0  0  0  0
  138.0160   76.5243  223.5406 H   0  0  0  0  0  0  0  0  0  0  0  0
  138.1011   79.7482  223.7021 H   0  0  0  0  0  0  0  0  0  0  0  0
  140.0401   81.2605  224.1164 H   0  0  0  0  0  0  0  0  0  0  0  0
  142.3324   80.4065  223.5755 H   0  0  0  0  0  0  0  0  0  0  0  0
  142.6590   78.1443  222.6499 H   0  0  0  0  0  0  0  0  0  0  0  0
  141.5703   76.4245  221.2815 H   0  0  0  0  0  0  0  0  0  0  0  0
  141.2362   75.7006  222.9204 H   0  0  0  0  0  0  0  0  0  0  0  0
  1  2  1  0
  2  3  2  0
  2  4  1  0
  4  5  1  0
  5  6  1  0
  6  7  1  0
  7  8  2  0
  8  9  1  0
  9 10  2  0
 10 11  1  0
 11 12  1  0
 12 13  1  0
 13 14  1  0
 14 15  2  0
 15 16  1  0
 16 17  2  0
 17 18  1  0
 18 19  2  0
 19 20  1  0
 10 21  1  0
 21 22  2  0
 22 23  1  0
 23 24  1  0
 24 25  1  0
 25 26  1  0
 26 27  2  0
 27 28  1  0
 28 29  2  0
 29 30  1  0
 30 31  2  0
 31 32  1  0
 22  7  1  0
 32 23  1  0
 20 11  1  0
 31 26  1  0
 19 14  1  0
  1 33  1  0
  1 34  1  0
  4 35  1  0
  4 36  1  0
  5 37  1  0
  5 38  1  0
  6 39  1  0
  6 40  1  0
  8 41  1  0
 12 42  1  0
 12 43  1  0
 13 44  1  0
 13 45  1  0
 15 46  1  0
 16 47  1  0
 17 48  1  0
 18 49  1  0
 20 50  1  0
 20 51  1  0
 24 52  1  0
 24 53  1  0
 25 54  1  0
 25 55  1  0
 27 56  1  0
 28 57  1  0
 29 58  1  0
 30 59  1  0
 32 60  1  0
 32 61  1  0
M  END
>  <smiles>  (16) 
NC(=O)CCCc1cnc(N2CCc3ccccc3C2)nc1N1CCc2ccccc2C1

>  <score_type>  (16) 
oracle

>  <origin>  (16) 
autodockgpu

>  <m_score__min__energy>  (16) 
-9.2200000000000006

>  <m_primary>  (16) 
energy

>  <rmsd>  (16) 
3.475158711962247

>  <m_score__min__rmsd>  (16) 
3.475158711962247

>  <meeko>  (16) 
{"free_energy": -8.79, "intermolecular_energy": -10.58, "internal_energy": -1.51, "cluster_size": 27, "cluster_id": 1, "rank_in_cluster": 11}

>  <energy>  (16) 
-8.71

>  <cluster_rmsd>  (16) 
1.94

>  <cluster>  (16) 
1

$$$$

     RDKit          3D

 61 65  0  0  0  0  0  0  0  0999 V2000
  142.5240   78.1310  219.5430 N   0  0  0  0  0  0  0  0  0  0  0  0
  141.2700   77.6700  219.0000 C   0  0  0  0  0  0  0  0  0  0  0  0
  140.2300   78.1520  219.4950 O   0  0  0  0  0  0  0  0  0  0  0  0
  141.3360   76.6770  217.9150 C   0  0  0  0  0  0  0  0  0  0  0  0
  141.4180   75.2460  218.3780 C   0  0  0  0  0  0  0  0  0  0  0  0
  140.0760   74.7650  218.8020 C   0  0  0  0  0  0  0  0  0  0  0  0
  140.1170   73.8830  219.9950 C   0  0  0  0  0  0  0  0  0  0  0  0
  140.2810   72.4970  219.8740 C   0  0  0  0  0  0  0  0  0  0  0  0
  140.3040   71.7050  220.9490 N   0  0  0  0  0  0  0  0  0  0  0  0
  140.1690   72.1990  222.2120 C   0  0  0  0  0  0  0  0  0  0  0  0
  140.1920   71.3580  223.3560 N   0  0  0  0  0  0  0  0  0  0  0  0
  139.6580   70.0040  223.3120 C   0  0  0  0  0  0  0  0  0  0  0  0
  138.5900   69.9630  224.4060 C   0  0  0  0  0  0  0  0  0  0  0  0
  139.3000   70.2310  225.6960 C   0  0  0  0  0  0  0  0  0  0  0  0
  138.8690   69.5160  226.8140 C   0  0  0  0  0  0  0  0  0  0  0  0
  139.5270   69.7640  228.0040 C   0  0  0  0  0  0  0  0  0  0  0  0
  140.5630   70.6740  228.0930 C   0  0  0  0  0  0  0  0  0  0  0  0
  140.9810   71.3820  226.9630 C   0  0  0  0  0  0  0  0  0  0  0  0
  140.3290   71.1330  225.7910 C   0  0  0  0  0  0  0  0  0  0  0  0
  140.7590   71.8750  224.5690 C   0  0  0  0  0  0  0  0  0  0  0  0
  140.0120   73.5180  222.3500 N   0  0  0  0  0  0  0  0  0  0  0  0
  139.9830   74.3650  221.2760 C   0  0  0  0  0  0  0  0  0  0  0  0
  139.8210   75.7390  221.5940 N   0  0  0  0  0  0  0  0  0  0  0  0
  138.6190   76.4920  221.4530 C   0  0  0  0  0  0  0  0  0  0  0  0
  138.3040   77.2410  222.7520 C   0  0  0  0  0  0  0  0  0  0  0  0
  139.4420   78.1940  223.0120 C   0  0  0  0  0  0  0  0  0  0  0  0
  139.2190   79.4490  223.5520 C   0  0  0  0  0  0  0  0  0  0  0  0
  140.2640   80.3150  223.7830 C   0  0  0  0  0  0  0  0  0  0  0  0
  141.5410   79.8690  223.4520 C   0  0  0  0  0  0  0  0  0  0  0  0
  141.7520   78.6080  222.9100 C   0  0  0  0  0  0  0  0  0  0  0  0
  140.6920   77.7380  222.6780 C   0  0  0  0  0  0  0  0  0  0  0  0
  141.0000   76.4280  222.1060 C   0  0  0  0  0  0  0  0  0  0  0  0
  142.5940   79.1490  219.7650 H   0  0  0  0  0  0  0  0  0  0  0  0
  143.3260   77.4830  219.7080 H   0  0  0  0  0  0  0  0  0  0  0  0
  140.4338   76.7858  217.2952 H   0  0  0  0  0  0  0  0  0  0  0  0
  142.2659   76.8797  217.3634 H   0  0  0  0  0  0  0  0  0  0  0  0
  141.7851   74.6178  217.5530 H   0  0  0  0  0  0  0  0  0  0  0  0
  142.1076   75.1846  219.2328 H   0  0  0  0  0  0  0  0  0  0  0  0
  139.4499   75.6388  219.0355 H   0  0  0  0  0  0  0  0  0  0  0  0
  139.6664   74.1706  217.9720 H   0  0  0  0  0  0  0  0  0  0  0  0
  140.3930   72.0524  218.8741 H   0  0  0  0  0  0  0  0  0  0  0  0
  139.2117   69.7963  222.3283 H   0  0  0  0  0  0  0  0  0  0  0  0
  140.4399   69.2465  223.4698 H   0  0  0  0  0  0  0  0  0  0  0  0
  137.8277   70.7347  224.2233 H   0  0  0  0  0  0  0  0  0  0  0  0
  138.0760   68.9907  224.4269 H   0  0  0  0  0  0  0  0  0  0  0  0
  138.0451   68.7898  226.7514 H   0  0  0  0  0  0  0  0  0  0  0  0
  139.2163   69.2201  228.9082 H   0  0  0  0  0  0  0  0  0  0  0  0
  141.0616   70.8421  229.0590 H   0  0  0  0  0  0  0  0  0  0  0  0
  141.8030   72.1110  227.0165 H   0  0  0  0  0  0  0  0  0  0  0  0
  140.4545   72.9267  224.6751 H   0  0  0  0  0  0  0  0  0  0  0  0
  141.8504   71.7626  224.4896 H   0  0  0  0  0  0  0  0  0  0  0  0
  138.7398   77.2183  220.6357 H   0  0  0  0  0  0  0  0  0  0  0  0
  137.7908   75.8042  221.2273 H   0  0  0  0  0  0  0  0  0  0  0  0
  137.3628   77.8002  222.6445 H   0  0  0  0  0  0  0  0  0  0  0  0
  138.1902   76.5357  223.5884 H   0  0  0  0  0  0  0  0  0  0  0  0
  138.1929   79.7585  223.7999 H   0  0  0  0  0  0  0  0  0  0  0  0
  140.0976   81.3149  224.2101 H   0  0  0  0  0  0  0  0  0  0  0  0
  142.4026   80.5309  223.6238 H   0  0  0  0  0  0  0  0  0  0  0  0
  142.7754   78.2917  222.6598 H   0  0  0  0  0  0  0  0  0  0  0  0
  141.7126   76.5651  221.2793 H   0  0  0  0  0  0  0  0  0  0  0  0
  141.4202   75.8076  222.9113 H   0  0  0  0  0  0  0  0  0  0  0  0
  1  2  1  0
  2  3  2  0
  2  4  1  0
  4  5  1  0
  5  6  1  0
  6  7  1  0
  7  8  2  0
  8  9  1  0
  9 10  2  0
 10 11  1  0
 11 12  1  0
 12 13  1  0
 13 14  1  0
 14 15  2  0
 15 16  1  0
 16 17  2  0
 17 18  1  0
 18 19  2  0
 19 20  1  0
 10 21  1  0
 21 22  2  0
 22 23  1  0
 23 24  1  0
 24 25  1  0
 25 26  1  0
 26 27  2  0
 27 28  1  0
 28 29  2  0
 29 30  1  0
 30 31  2  0
 31 32  1  0
 22  7  1  0
 32 23  1  0
 20 11  1  0
 31 26  1  0
 19 14  1  0
  1 33  1  0
  1 34  1  0
  4 35  1  0
  4 36  1  0
  5 37  1  0
  5 38  1  0
  6 39  1  0
  6 40  1  0
  8 41  1  0
 12 42  1  0
 12 43  1  0
 13 44  1  0
 13 45  1  0
 15 46  1  0
 16 47  1  0
 17 48  1  0
 18 49  1  0
 20 50  1  0
 20 51  1  0
 24 52  1  0
 24 53  1  0
 25 54  1  0
 25 55  1  0
 27 56  1  0
 28 57  1  0
 29 58  1  0
 30 59  1  0
 32 60  1  0
 32 61  1  0
M  END
>  <smiles>  (17) 
NC(=O)CCCc1cnc(N2CCc3ccccc3C2)nc1N1CCc2ccccc2C1

>  <score_type>  (17) 
oracle

>  <origin>  (17) 
autodockgpu

>  <m_score__min__energy>  (17) 
-9.2200000000000006

>  <m_primary>  (17) 
energy

>  <rmsd>  (17) 
3.409943043694221

>  <m_score__min__rmsd>  (17) 
3.409943043694221

>  <meeko>  (17) 
{"free_energy": -8.08, "intermolecular_energy": -9.87, "internal_energy": -1.75, "cluster_size": 6, "cluster_id": 3, "rank_in_cluster": 5}

>  <energy>  (17) 
-8.66

>  <cluster_rmsd>  (17) 
1.79

>  <cluster>  (17) 
1

$$$$

     RDKit          3D

 61 65  0  0  0  0  0  0  0  0999 V2000
  143.4680   76.1220  220.0560 N   0  0  0  0  0  0  0  0  0  0  0  0
  142.9560   75.1620  219.1090 C   0  0  0  0  0  0  0  0  0  0  0  0
  143.3870   73.9940  219.2000 O   0  0  0  0  0  0  0  0  0  0  0  0
  141.9730   75.6520  218.1270 C   0  0  0  0  0  0  0  0  0  0  0  0
  140.6500   76.0670  218.7160 C   0  0  0  0  0  0  0  0  0  0  0  0
  139.6910   74.9310  218.6770 C   0  0  0  0  0  0  0  0  0  0  0  0
  139.8250   74.0090  219.8340 C   0  0  0  0  0  0  0  0  0  0  0  0
  139.9390   72.6250  219.6560 C   0  0  0  0  0  0  0  0  0  0  0  0
  140.0450   71.7980  220.6990 N   0  0  0  0  0  0  0  0  0  0  0  0
  140.0460   72.2530  221.9830 C   0  0  0  0  0  0  0  0  0  0  0  0
  140.1580   71.3750  223.0940 N   0  0  0  0  0  0  0  0  0  0  0  0
  139.7080   69.9940  223.0140 C   0  0  0  0  0  0  0  0  0  0  0  0
  138.6790   69.8460  224.1370 C   0  0  0  0  0  0  0  0  0  0  0  0
  139.4130   70.1120  225.4150 C   0  0  0  0  0  0  0  0  0  0  0  0
  139.0620   69.3320  226.5180 C   0  0  0  0  0  0  0  0  0  0  0  0
  139.7420   69.5790  227.6960 C   0  0  0  0  0  0  0  0  0  0  0  0
  140.7220   70.5480  227.7880 C   0  0  0  0  0  0  0  0  0  0  0  0
  141.0600   71.3200  226.6730 C   0  0  0  0  0  0  0  0  0  0  0  0
  140.3870   71.0730  225.5130 C   0  0  0  0  0  0  0  0  0  0  0  0
  140.7300   71.8840  224.3080 C   0  0  0  0  0  0  0  0  0  0  0  0
  139.9380   73.5710  222.1750 N   0  0  0  0  0  0  0  0  0  0  0  0
  139.8280   74.4530  221.1350 C   0  0  0  0  0  0  0  0  0  0  0  0
  139.7340   75.8190  221.5090 N   0  0  0  0  0  0  0  0  0  0  0  0
  138.5560   76.6200  221.4540 C   0  0  0  0  0  0  0  0  0  0  0  0
  138.3320   77.3320  222.7920 C   0  0  0  0  0  0  0  0  0  0  0  0
  139.5170   78.2330  223.0290 C   0  0  0  0  0  0  0  0  0  0  0  0
  139.3680   79.4730  223.6220 C   0  0  0  0  0  0  0  0  0  0  0  0
  140.4550   80.2920  223.8320 C   0  0  0  0  0  0  0  0  0  0  0  0
  141.6970   79.8120  223.4220 C   0  0  0  0  0  0  0  0  0  0  0  0
  141.8340   78.5650  222.8270 C   0  0  0  0  0  0  0  0  0  0  0  0
  140.7310   77.7430  222.6170 C   0  0  0  0  0  0  0  0  0  0  0  0
  140.9620   76.4450  221.9860 C   0  0  0  0  0  0  0  0  0  0  0  0
  143.5910   75.7920  221.0390 H   0  0  0  0  0  0  0  0  0  0  0  0
  143.7070   77.1000  219.7780 H   0  0  0  0  0  0  0  0  0  0  0  0
  142.4070   76.5217  217.6121 H   0  0  0  0  0  0  0  0  0  0  0  0
  141.7624   74.8103  217.4508 H   0  0  0  0  0  0  0  0  0  0  0  0
  140.7994   76.3806  219.7597 H   0  0  0  0  0  0  0  0  0  0  0  0
  140.2414   76.9018  218.1276 H   0  0  0  0  0  0  0  0  0  0  0  0
  138.6687   75.3371  218.6707 H   0  0  0  0  0  0  0  0  0  0  0  0
  139.9115   74.3495  217.7697 H   0  0  0  0  0  0  0  0  0  0  0  0
  139.9413   72.2108  218.6370 H   0  0  0  0  0  0  0  0  0  0  0  0
  139.2446   69.7946  222.0365 H   0  0  0  0  0  0  0  0  0  0  0  0
  140.5398   69.2820  223.1199 H   0  0  0  0  0  0  0  0  0  0  0  0
  137.8648   70.5741  224.0064 H   0  0  0  0  0  0  0  0  0  0  0  0
  138.2266   68.8433  224.1361 H   0  0  0  0  0  0  0  0  0  0  0  0
  138.2825   68.5586  226.4531 H   0  0  0  0  0  0  0  0  0  0  0  0
  139.4948   68.9851  228.5883 H   0  0  0  0  0  0  0  0  0  0  0  0
  141.2395   70.7131  228.7445 H   0  0  0  0  0  0  0  0  0  0  0  0
  141.8378   72.0958  226.7290 H   0  0  0  0  0  0  0  0  0  0  0  0
  140.3633   72.9095  224.4625 H   0  0  0  0  0  0  0  0  0  0  0  0
  141.8232   71.8451  224.1920 H   0  0  0  0  0  0  0  0  0  0  0  0
  138.6650   77.3709  220.6575 H   0  0  0  0  0  0  0  0  0  0  0  0
  137.6924   75.9712  221.2458 H   0  0  0  0  0  0  0  0  0  0  0  0
  137.4088   77.9287  222.7501 H   0  0  0  0  0  0  0  0  0  0  0  0
  138.2313   76.6012  223.6080 H   0  0  0  0  0  0  0  0  0  0  0  0
  138.3673   79.8101  223.9303 H   0  0  0  0  0  0  0  0  0  0  0  0
  140.3475   81.2806  224.3023 H   0  0  0  0  0  0  0  0  0  0  0  0
  142.5903   80.4358  223.5733 H   0  0  0  0  0  0  0  0  0  0  0  0
  142.8315   78.2210  222.5163 H   0  0  0  0  0  0  0  0  0  0  0  0
  141.6391   76.5861  221.1307 H   0  0  0  0  0  0  0  0  0  0  0  0
  141.3969   75.7807  222.7473 H   0  0  0  0  0  0  0  0  0  0  0  0
  1  2  1  0
  2  3  2  0
  2  4  1  0
  4  5  1  0
  5  6  1  0
  6  7  1  0
  7  8  2  0
  8  9  1  0
  9 10  2  0
 10 11  1  0
 11 12  1  0
 12 13  1  0
 13 14  1  0
 14 15  2  0
 15 16  1  0
 16 17  2  0
 17 18  1  0
 18 19  2  0
 19 20  1  0
 10 21  1  0
 21 22  2  0
 22 23  1  0
 23 24  1  0
 24 25  1  0
 25 26  1  0
 26 27  2  0
 27 28  1  0
 28 29  2  0
 29 30  1  0
 30 31  2  0
 31 32  1  0
 22  7  1  0
 32 23  1  0
 20 11  1  0
 31 26  1  0
 19 14  1  0
  1 33  1  0
  1 34  1  0
  4 35  1  0
  4 36  1  0
  5 37  1  0
  5 38  1  0
  6 39  1  0
  6 40  1  0
  8 41  1  0
 12 42  1  0
 12 43  1  0
 13 44  1  0
 13 45  1  0
 15 46  1  0
 16 47  1  0
 17 48  1  0
 18 49  1  0
 20 50  1  0
 20 51  1  0
 24 52  1  0
 24 53  1  0
 25 54  1  0
 25 55  1  0
 27 56  1  0
 28 57  1  0
 29 58  1  0
 30 59  1  0
 32 60  1  0
 32 61  1  0
M  END
>  <smiles>  (18) 
NC(=O)CCCc1cnc(N2CCc3ccccc3C2)nc1N1CCc2ccccc2C1

>  <score_type>  (18) 
oracle

>  <origin>  (18) 
autodockgpu

>  <m_score__min__energy>  (18) 
-9.2200000000000006

>  <m_primary>  (18) 
energy

>  <rmsd>  (18) 
3.431071034224326

>  <m_score__min__rmsd>  (18) 
3.431071034224326

>  <meeko>  (18) 
{"free_energy": -8.41, "intermolecular_energy": -10.2, "internal_energy": -1.53, "cluster_size": 27, "cluster_id": 1, "rank_in_cluster": 25}

>  <energy>  (18) 
-8.64

>  <cluster_rmsd>  (18) 
1.75

>  <cluster>  (18) 
1

$$$$

     RDKit          3D

 61 65  0  0  0  0  0  0  0  0999 V2000
  144.7210   74.2890  220.1260 N   0  0  0  0  0  0  0  0  0  0  0  0
  144.9370   72.8660  220.0310 C   0  0  0  0  0  0  0  0  0  0  0  0
  145.8360   72.4820  219.2540 O   0  0  0  0  0  0  0  0  0  0  0  0
  144.0780   72.0030  220.8590 C   0  0  0  0  0  0  0  0  0  0  0  0
  143.1350   71.1230  220.0800 C   0  0  0  0  0  0  0  0  0  0  0  0
  141.7470   71.2740  220.5950 C   0  0  0  0  0  0  0  0  0  0  0  0
  141.3710   72.6850  220.8640 C   0  0  0  0  0  0  0  0  0  0  0  0
  141.8450   73.7330  220.0660 C   0  0  0  0  0  0  0  0  0  0  0  0
  141.5150   75.0020  220.3200 N   0  0  0  0  0  0  0  0  0  0  0  0
  140.7070   75.3420  221.3630 C   0  0  0  0  0  0  0  0  0  0  0  0
  140.3560   76.6910  221.6350 N   0  0  0  0  0  0  0  0  0  0  0  0
  141.3210   77.7700  221.4820 C   0  0  0  0  0  0  0  0  0  0  0  0
  141.3830   78.4450  222.8540 C   0  0  0  0  0  0  0  0  0  0  0  0
  140.0080   78.9720  223.1240 C   0  0  0  0  0  0  0  0  0  0  0  0
  139.9210   80.2060  223.7710 C   0  0  0  0  0  0  0  0  0  0  0  0
  138.6510   80.6910  224.0190 C   0  0  0  0  0  0  0  0  0  0  0  0
  137.5150   79.9960  223.6480 C   0  0  0  0  0  0  0  0  0  0  0  0
  137.6210   78.7620  223.0020 C   0  0  0  0  0  0  0  0  0  0  0  0
  138.8770   78.2870  222.7590 C   0  0  0  0  0  0  0  0  0  0  0  0
  139.0160   76.9710  222.0690 C   0  0  0  0  0  0  0  0  0  0  0  0
  140.2440   74.3570  222.1370 N   0  0  0  0  0  0  0  0  0  0  0  0
  140.5560   73.0450  221.9120 C   0  0  0  0  0  0  0  0  0  0  0  0
  139.9730   72.1200  222.8180 N   0  0  0  0  0  0  0  0  0  0  0  0
  138.7480   71.4190  222.6200 C   0  0  0  0  0  0  0  0  0  0  0  0
  138.9460   69.9200  222.8670 C   0  0  0  0  0  0  0  0  0  0  0  0
  139.3730   69.7490  224.3020 C   0  0  0  0  0  0  0  0  0  0  0  0
  138.9380   68.6750  225.0580 C   0  0  0  0  0  0  0  0  0  0  0  0
  139.3300   68.5290  226.3700 C   0  0  0  0  0  0  0  0  0  0  0  0
  140.1770   69.5050  226.8900 C   0  0  0  0  0  0  0  0  0  0  0  0
  140.6060   70.5790  226.1220 C   0  0  0  0  0  0  0  0  0  0  0  0
  140.2050   70.7220  224.7970 C   0  0  0  0  0  0  0  0  0  0  0  0
  140.7030   71.8810  224.0580 C   0  0  0  0  0  0  0  0  0  0  0  0
  145.5730   74.8940  220.1320 H   0  0  0  0  0  0  0  0  0  0  0  0
  143.7630   74.7000  220.1850 H   0  0  0  0  0  0  0  0  0  0  0  0
  144.7268   71.3561  221.4678 H   0  0  0  0  0  0  0  0  0  0  0  0
  143.4501   72.6752  221.4622 H   0  0  0  0  0  0  0  0  0  0  0  0
  143.1621   71.4113  219.0188 H   0  0  0  0  0  0  0  0  0  0  0  0
  143.4473   70.0743  220.1925 H   0  0  0  0  0  0  0  0  0  0  0  0
  141.0510   70.8633  219.8487 H   0  0  0  0  0  0  0  0  0  0  0  0
  141.6939   70.7344  221.5521 H   0  0  0  0  0  0  0  0  0  0  0  0
  142.5020   73.5069  219.2132 H   0  0  0  0  0  0  0  0  0  0  0  0
  142.3070   77.3699  221.2033 H   0  0  0  0  0  0  0  0  0  0  0  0
  141.0304   78.4741  220.6884 H   0  0  0  0  0  0  0  0  0  0  0  0
  141.6696   77.7150  223.6253 H   0  0  0  0  0  0  0  0  0  0  0  0
  142.1311   79.2513  222.8701 H   0  0  0  0  0  0  0  0  0  0  0  0
  140.8201   80.7653  224.0690 H   0  0  0  0  0  0  0  0  0  0  0  0
  138.5405   81.6602  224.5274 H   0  0  0  0  0  0  0  0  0  0  0  0
  136.5218   80.4172  223.8628 H   0  0  0  0  0  0  0  0  0  0  0  0
  136.7274   78.1956  222.7011 H   0  0  0  0  0  0  0  0  0  0  0  0
  138.7023   76.1784  222.7642 H   0  0  0  0  0  0  0  0  0  0  0  0
  138.3854   77.0093  221.1685 H   0  0  0  0  0  0  0  0  0  0  0  0
  137.9920   71.8051  223.3196 H   0  0  0  0  0  0  0  0  0  0  0  0
  138.4139   71.5692  221.5828 H   0  0  0  0  0  0  0  0  0  0  0  0
  138.0029   69.3825  222.6894 H   0  0  0  0  0  0  0  0  0  0  0  0
  139.7073   69.5127  222.1855 H   0  0  0  0  0  0  0  0  0  0  0  0
  138.2700   67.9277  224.6049 H   0  0  0  0  0  0  0  0  0  0  0  0
  138.9894   67.6795  226.9802 H   0  0  0  0  0  0  0  0  0  0  0  0
  140.5139   69.4228  227.9339 H   0  0  0  0  0  0  0  0  0  0  0  0
  141.2744   71.3299  226.5685 H   0  0  0  0  0  0  0  0  0  0  0  0
  140.6100   72.7713  224.6973 H   0  0  0  0  0  0  0  0  0  0  0  0
  141.7502   71.6768  223.7904 H   0  0  0  0  0  0  0  0  0  0  0  0
  1  2  1  0
  2  3  2  0
  2  4  1  0
  4  5  1  0
  5  6  1  0
  6  7  1  0
  7  8  2  0
  8  9  1  0
  9 10  2  0
 10 11  1  0
 11 12  1  0
 12 13  1  0
 13 14  1  0
 14 15  2  0
 15 16  1  0
 16 17  2  0
 17 18  1  0
 18 19  2  0
 19 20  1  0
 10 21  1  0
 21 22  2  0
 22 23  1  0
 23 24  1  0
 24 25  1  0
 25 26  1  0
 26 27  2  0
 27 28  1  0
 28 29  2  0
 29 30  1  0
 30 31  2  0
 31 32  1  0
 22  7  1  0
 32 23  1  0
 20 11  1  0
 31 26  1  0
 19 14  1  0
  1 33  1  0
  1 34  1  0
  4 35  1  0
  4 36  1  0
  5 37  1  0
  5 38  1  0
  6 39  1  0
  6 40  1  0
  8 41  1  0
 12 42  1  0
 12 43  1  0
 13 44  1  0
 13 45  1  0
 15 46  1  0
 16 47  1  0
 17 48  1  0
 18 49  1  0
 20 50  1  0
 20 51  1  0
 24 52  1  0
 24 53  1  0
 25 54  1  0
 25 55  1  0
 27 56  1  0
 28 57  1  0
 29 58  1  0
 30 59  1  0
 32 60  1  0
 32 61  1  0
M  END
>  <smiles>  (19) 
NC(=O)CCCc1cnc(N2CCc3ccccc3C2)nc1N1CCc2ccccc2C1

>  <score_type>  (19) 
oracle

>  <origin>  (19) 
autodockgpu

>  <m_score__min__energy>  (19) 
-9.2200000000000006

>  <m_primary>  (19) 
energy

>  <rmsd>  (19) 
9.92910740193238

>  <m_score__min__rmsd>  (19) 
9.92910740193238

>  <meeko>  (19) 
{"free_energy": -9.03, "intermolecular_energy": -10.82, "internal_energy": -1.45, "cluster_size": 27, "cluster_id": 1, "rank_in_cluster": 3}

>  <energy>  (19) 
-8.61

>  <cluster_rmsd>  (19) 
1.71

>  <cluster>  (19) 
1

$$$$

     RDKit          3D

 61 65  0  0  0  0  0  0  0  0999 V2000
  143.2420   76.6710  220.0460 N   0  0  0  0  0  0  0  0  0  0  0  0
  142.7150   76.3170  218.7500 C   0  0  0  0  0  0  0  0  0  0  0  0
  143.1940   76.9160  217.7640 O   0  0  0  0  0  0  0  0  0  0  0  0
  141.6650   75.2850  218.7150 C   0  0  0  0  0  0  0  0  0  0  0  0
  140.2570   75.8220  218.7360 C   0  0  0  0  0  0  0  0  0  0  0  0
  139.2820   74.7030  218.8250 C   0  0  0  0  0  0  0  0  0  0  0  0
  139.5060   73.8190  219.9980 C   0  0  0  0  0  0  0  0  0  0  0  0
  139.5860   72.4280  219.8600 C   0  0  0  0  0  0  0  0  0  0  0  0
  139.7740   71.6360  220.9180 N   0  0  0  0  0  0  0  0  0  0  0  0
  139.8950   72.1360  222.1800 C   0  0  0  0  0  0  0  0  0  0  0  0
  140.0940   71.2950  223.3080 N   0  0  0  0  0  0  0  0  0  0  0  0
  139.6980   69.8940  223.2860 C   0  0  0  0  0  0  0  0  0  0  0  0
  138.7290   69.7370  224.4600 C   0  0  0  0  0  0  0  0  0  0  0  0
  139.5090   70.0690  225.6940 C   0  0  0  0  0  0  0  0  0  0  0  0
  139.2420   69.3070  226.8330 C   0  0  0  0  0  0  0  0  0  0  0  0
  139.9640   69.6150  227.9700 C   0  0  0  0  0  0  0  0  0  0  0  0
  140.9060   70.6250  227.9910 C   0  0  0  0  0  0  0  0  0  0  0  0
  141.1600   71.3780  226.8410 C   0  0  0  0  0  0  0  0  0  0  0  0
  140.4450   71.0710  225.7210 C   0  0  0  0  0  0  0  0  0  0  0  0
  140.6990   71.8600  224.4790 C   0  0  0  0  0  0  0  0  0  0  0  0
  139.8210   73.4600  222.3340 N   0  0  0  0  0  0  0  0  0  0  0  0
  139.6300   74.3080  221.2770 C   0  0  0  0  0  0  0  0  0  0  0  0
  139.5870   75.6870  221.6080 N   0  0  0  0  0  0  0  0  0  0  0  0
  138.4540   76.5420  221.4740 C   0  0  0  0  0  0  0  0  0  0  0  0
  138.2030   77.3030  222.7800 C   0  0  0  0  0  0  0  0  0  0  0  0
  139.4190   78.1530  223.0500 C   0  0  0  0  0  0  0  0  0  0  0  0
  139.3040   79.4160  223.6020 C   0  0  0  0  0  0  0  0  0  0  0  0
  140.4190   80.1860  223.8420 C   0  0  0  0  0  0  0  0  0  0  0  0
  141.6540   79.6350  223.5070 C   0  0  0  0  0  0  0  0  0  0  0  0
  141.7570   78.3660  222.9530 C   0  0  0  0  0  0  0  0  0  0  0  0
  140.6250   77.5930  222.7120 C   0  0  0  0  0  0  0  0  0  0  0  0
  140.8210   76.2670  222.1280 C   0  0  0  0  0  0  0  0  0  0  0  0
  144.2730   76.8290  220.1060 H   0  0  0  0  0  0  0  0  0  0  0  0
  142.6280   76.7650  220.8850 H   0  0  0  0  0  0  0  0  0  0  0  0
  141.7938   74.6955  217.7953 H   0  0  0  0  0  0  0  0  0  0  0  0
  141.7845   74.6873  219.6307 H   0  0  0  0  0  0  0  0  0  0  0  0
  140.1329   76.4822  219.6070 H   0  0  0  0  0  0  0  0  0  0  0  0
  140.0737   76.3849  217.8089 H   0  0  0  0  0  0  0  0  0  0  0  0
  138.2695   75.1271  218.8960 H   0  0  0  0  0  0  0  0  0  0  0  0
  139.4113   74.0863  217.9234 H   0  0  0  0  0  0  0  0  0  0  0  0
  139.4921   71.9790  218.8602 H   0  0  0  0  0  0  0  0  0  0  0  0
  139.1986   69.6484  222.3372 H   0  0  0  0  0  0  0  0  0  0  0  0
  140.5625   69.2192  223.3711 H   0  0  0  0  0  0  0  0  0  0  0  0
  137.8800   70.4275  224.3484 H   0  0  0  0  0  0  0  0  0  0  0  0
  138.3194   68.7172  224.5075 H   0  0  0  0  0  0  0  0  0  0  0  0
  138.4935   68.5009  226.8255 H   0  0  0  0  0  0  0  0  0  0  0  0
  139.7828   69.0371  228.8883 H   0  0  0  0  0  0  0  0  0  0  0  0
  141.4593   70.8379  228.9176 H   0  0  0  0  0  0  0  0  0  0  0  0
  141.9067   72.1858  226.8395 H   0  0  0  0  0  0  0  0  0  0  0  0
  140.2983   72.8743  224.6229 H   0  0  0  0  0  0  0  0  0  0  0  0
  141.7864   71.8604  224.3129 H   0  0  0  0  0  0  0  0  0  0  0  0
  138.6375   77.2629  220.6637 H   0  0  0  0  0  0  0  0  0  0  0  0
  137.5700   75.9299  221.2416 H   0  0  0  0  0  0  0  0  0  0  0  0
  137.3134   77.9419  222.6774 H   0  0  0  0  0  0  0  0  0  0  0  0
  138.0283   76.6020  223.6095 H   0  0  0  0  0  0  0  0  0  0  0  0
  138.3081   79.8102  223.8525 H   0  0  0  0  0  0  0  0  0  0  0  0
  140.3387   81.1922  224.2791 H   0  0  0  0  0  0  0  0  0  0  0  0
  142.5689   80.2190  223.6856 H   0  0  0  0  0  0  0  0  0  0  0  0
  142.7497   77.9650  222.7004 H   0  0  0  0  0  0  0  0  0  0  0  0
  141.5443   76.3501  221.3035 H   0  0  0  0  0  0  0  0  0  0  0  0
  141.1854   75.6050  222.9274 H   0  0  0  0  0  0  0  0  0  0  0  0
  1  2  1  0
  2  3  2  0
  2  4  1  0
  4  5  1  0
  5  6  1  0
  6  7  1  0
  7  8  2  0
  8  9  1  0
  9 10  2  0
 10 11  1  0
 11 12  1  0
 12 13  1  0
 13 14  1  0
 14 15  2  0
 15 16  1  0
 16 17  2  0
 17 18  1  0
 18 19  2  0
 19 20  1  0
 10 21  1  0
 21 22  2  0
 22 23  1  0
 23 24  1  0
 24 25  1  0
 25 26  1  0
 26 27  2  0
 27 28  1  0
 28 29  2  0
 29 30  1  0
 30 31  2  0
 31 32  1  0
 22  7  1  0
 32 23  1  0
 20 11  1  0
 31 26  1  0
 19 14  1  0
  1 33  1  0
  1 34  1  0
  4 35  1  0
  4 36  1  0
  5 37  1  0
  5 38  1  0
  6 39  1  0
  6 40  1  0
  8 41  1  0
 12 42  1  0
 12 43  1  0
 13 44  1  0
 13 45  1  0
 15 46  1  0
 16 47  1  0
 17 48  1  0
 18 49  1  0
 20 50  1  0
 20 51  1  0
 24 52  1  0
 24 53  1  0
 25 54  1  0
 25 55  1  0
 27 56  1  0
 28 57  1  0
 29 58  1  0
 30 59  1  0
 32 60  1  0
 32 61  1  0
M  END
>  <smiles>  (20) 
NC(=O)CCCc1cnc(N2CCc3ccccc3C2)nc1N1CCc2ccccc2C1

>  <score_type>  (20) 
oracle

>  <origin>  (20) 
autodockgpu

>  <m_score__min__energy>  (20) 
-9.2200000000000006

>  <m_primary>  (20) 
energy

>  <rmsd>  (20) 
3.494911311455251

>  <m_score__min__rmsd>  (20) 
3.494911311455251

>  <meeko>  (20) 
{"free_energy": -8.72, "intermolecular_energy": -10.51, "internal_energy": -1.36, "cluster_size": 27, "cluster_id": 1, "rank_in_cluster": 15}

>  <energy>  (20) 
-8.6

>  <cluster_rmsd>  (20) 
1.06

>  <cluster>  (20) 
1

$$$$

     RDKit          3D

 61 65  0  0  0  0  0  0  0  0999 V2000
  137.3400   76.1550  223.0130 N   0  0  0  0  0  0  0  0  0  0  0  0
  136.5670   76.8700  222.0270 C   0  0  0  0  0  0  0  0  0  0  0  0
  135.8090   77.7690  222.4470 O   0  0  0  0  0  0  0  0  0  0  0  0
  136.7470   76.4720  220.6200 C   0  0  0  0  0  0  0  0  0  0  0  0
  138.1630   76.5730  220.1160 C   0  0  0  0  0  0  0  0  0  0  0  0
  138.5930   75.2770  219.5280 C   0  0  0  0  0  0  0  0  0  0  0  0
  138.9470   74.2570  220.5480 C   0  0  0  0  0  0  0  0  0  0  0  0
  138.2790   73.0290  220.6150 C   0  0  0  0  0  0  0  0  0  0  0  0
  138.5910   72.1190  221.5420 N   0  0  0  0  0  0  0  0  0  0  0  0
  139.5680   72.3380  222.4670 C   0  0  0  0  0  0  0  0  0  0  0  0
  139.9000   71.3730  223.4540 N   0  0  0  0  0  0  0  0  0  0  0  0
  139.6020   69.9610  223.2630 C   0  0  0  0  0  0  0  0  0  0  0  0
  138.7280   69.5750  224.4580 C   0  0  0  0  0  0  0  0  0  0  0  0
  139.5650   69.7990  225.6790 C   0  0  0  0  0  0  0  0  0  0  0  0
  139.4290   68.8750  226.7160 C   0  0  0  0  0  0  0  0  0  0  0  0
  140.2020   69.0840  227.8420 C   0  0  0  0  0  0  0  0  0  0  0  0
  141.0710   70.1530  227.9470 C   0  0  0  0  0  0  0  0  0  0  0  0
  141.1940   71.0690  226.8990 C   0  0  0  0  0  0  0  0  0  0  0  0
  140.4290   70.8590  225.7900 C   0  0  0  0  0  0  0  0  0  0  0  0
  140.5430   71.8240  224.6560 C   0  0  0  0  0  0  0  0  0  0  0  0
  140.2180   73.5040  222.4200 N   0  0  0  0  0  0  0  0  0  0  0  0
  139.9310   74.4620  221.4870 C   0  0  0  0  0  0  0  0  0  0  0  0
  140.7210   75.6390  221.5650 N   0  0  0  0  0  0  0  0  0  0  0  0
  141.7350   76.0250  220.6410 C   0  0  0  0  0  0  0  0  0  0  0  0
  141.5180   77.4710  220.1840 C   0  0  0  0  0  0  0  0  0  0  0  0
  141.6160   78.3510  221.4030 C   0  0  0  0  0  0  0  0  0  0  0  0
  142.2020   79.6030  221.3400 C   0  0  0  0  0  0  0  0  0  0  0  0
  142.2910   80.3990  222.4590 C   0  0  0  0  0  0  0  0  0  0  0  0
  141.7660   79.8870  223.6440 C   0  0  0  0  0  0  0  0  0  0  0  0
  141.1800   78.6290  223.6950 C   0  0  0  0  0  0  0  0  0  0  0  0
  141.0940   77.8290  222.5600 C   0  0  0  0  0  0  0  0  0  0  0  0
  140.4610   76.5190  222.6990 C   0  0  0  0  0  0  0  0  0  0  0  0
  137.7450   76.7210  223.7920 H   0  0  0  0  0  0  0  0  0  0  0  0
  137.4890   75.1230  222.9570 H   0  0  0  0  0  0  0  0  0  0  0  0
  136.4188   75.4274  220.5142 H   0  0  0  0  0  0  0  0  0  0  0  0
  136.1512   77.1744  220.0186 H   0  0  0  0  0  0  0  0  0  0  0  0
  138.2197   77.3574  219.3469 H   0  0  0  0  0  0  0  0  0  0  0  0
  138.8262   76.8228  220.9573 H   0  0  0  0  0  0  0  0  0  0  0  0
  137.7712   74.8836  218.9116 H   0  0  0  0  0  0  0  0  0  0  0  0
  139.4989   75.4730  218.9355 H   0  0  0  0  0  0  0  0  0  0  0  0
  137.4814   72.8088  219.8902 H   0  0  0  0  0  0  0  0  0  0  0  0
  139.0580   69.8049  222.3198 H   0  0  0  0  0  0  0  0  0  0  0  0
  140.5151   69.3504  223.2049 H   0  0  0  0  0  0  0  0  0  0  0  0
  137.8281   70.2066  224.4917 H   0  0  0  0  0  0  0  0  0  0  0  0
  138.3936   68.5294  224.3882 H   0  0  0  0  0  0  0  0  0  0  0  0
  138.7395   68.0213  226.6406 H   0  0  0  0  0  0  0  0  0  0  0  0
  140.1231   68.3772  228.6811 H   0  0  0  0  0  0  0  0  0  0  0  0
  141.6694   70.2837  228.8607 H   0  0  0  0  0  0  0  0  0  0  0  0
  141.8808   71.9256  226.9660 H   0  0  0  0  0  0  0  0  0  0  0  0
  140.0832   72.7756  224.9609 H   0  0  0  0  0  0  0  0  0  0  0  0
  141.6139   71.9322  224.4293 H   0  0  0  0  0  0  0  0  0  0  0  0
  142.7186   75.9420  221.1265 H   0  0  0  0  0  0  0  0  0  0  0  0
  141.6896   75.3627  219.7639 H   0  0  0  0  0  0  0  0  0  0  0  0
  142.2903   77.7539  219.4536 H   0  0  0  0  0  0  0  0  0  0  0  0
  140.5344   77.5821  219.7042 H   0  0  0  0  0  0  0  0  0  0  0  0
  142.6022   79.9670  220.3822 H   0  0  0  0  0  0  0  0  0  0  0  0
  142.7559   81.3952  222.4198 H   0  0  0  0  0  0  0  0  0  0  0  0
  141.8170   80.4934  224.5603 H   0  0  0  0  0  0  0  0  0  0  0  0
  140.7769   78.2587  224.6492 H   0  0  0  0  0  0  0  0  0  0  0  0
  140.8451   76.0388  223.6111 H   0  0  0  0  0  0  0  0  0  0  0  0
  139.3742   76.6814  222.7480 H   0  0  0  0  0  0  0  0  0  0  0  0
  1  2  1  0
  2  3  2  0
  2  4  1  0
  4  5  1  0
  5  6  1  0
  6  7  1  0
  7  8  2  0
  8  9  1  0
  9 10  2  0
 10 11  1  0
 11 12  1  0
 12 13  1  0
 13 14  1  0
 14 15  2  0
 15 16  1  0
 16 17  2  0
 17 18  1  0
 18 19  2  0
 19 20  1  0
 10 21  1  0
 21 22  2  0
 22 23  1  0
 23 24  1  0
 24 25  1  0
 25 26  1  0
 26 27  2  0
 27 28  1  0
 28 29  2  0
 29 30  1  0
 30 31  2  0
 31 32  1  0
 22  7  1  0
 32 23  1  0
 20 11  1  0
 31 26  1  0
 19 14  1  0
  1 33  1  0
  1 34  1  0
  4 35  1  0
  4 36  1  0
  5 37  1  0
  5 38  1  0
  6 39  1  0
  6 40  1  0
  8 41  1  0
 12 42  1  0
 12 43  1  0
 13 44  1  0
 13 45  1  0
 15 46  1  0
 16 47  1  0
 17 48  1  0
 18 49  1  0
 20 50  1  0
 20 51  1  0
 24 52  1  0
 24 53  1  0
 25 54  1  0
 25 55  1  0
 27 56  1  0
 28 57  1  0
 29 58  1  0
 30 59  1  0
 32 60  1  0
 32 61  1  0
M  END
>  <smiles>  (21) 
NC(=O)CCCc1cnc(N2CCc3ccccc3C2)nc1N1CCc2ccccc2C1

>  <score_type>  (21) 
oracle

>  <origin>  (21) 
autodockgpu

>  <m_score__min__energy>  (21) 
-9.2200000000000006

>  <m_primary>  (21) 
energy

>  <rmsd>  (21) 
3.963486697010579

>  <m_score__min__rmsd>  (21) 
3.963486697010579

>  <meeko>  (21) 
{"free_energy": -8.19, "intermolecular_energy": -9.98, "internal_energy": -1.61, "cluster_size": 14, "cluster_id": 2, "rank_in_cluster": 13}

>  <energy>  (21) 
-8.6

>  <cluster_rmsd>  (21) 
1.48

>  <cluster>  (21) 
1

$$$$

     RDKit          3D

 61 65  0  0  0  0  0  0  0  0999 V2000
  144.9040   74.1440  220.0930 N   0  0  0  0  0  0  0  0  0  0  0  0
  145.0820   72.7630  219.7150 C   0  0  0  0  0  0  0  0  0  0  0  0
  145.8950   72.5300  218.7960 O   0  0  0  0  0  0  0  0  0  0  0  0
  144.2900   71.7620  220.4490 C   0  0  0  0  0  0  0  0  0  0  0  0
  143.0260   71.3290  219.7530 C   0  0  0  0  0  0  0  0  0  0  0  0
  141.8730   71.4010  220.6900 C   0  0  0  0  0  0  0  0  0  0  0  0
  141.4260   72.7890  220.9680 C   0  0  0  0  0  0  0  0  0  0  0  0
  141.8890   73.8710  220.2100 C   0  0  0  0  0  0  0  0  0  0  0  0
  141.4960   75.1200  220.4710 N   0  0  0  0  0  0  0  0  0  0  0  0
  140.6290   75.4060  221.4830 C   0  0  0  0  0  0  0  0  0  0  0  0
  140.2090   76.7340  221.7630 N   0  0  0  0  0  0  0  0  0  0  0  0
  141.1320   77.8550  221.6670 C   0  0  0  0  0  0  0  0  0  0  0  0
  141.1120   78.5070  223.0510 C   0  0  0  0  0  0  0  0  0  0  0  0
  139.7060   78.9710  223.2740 C   0  0  0  0  0  0  0  0  0  0  0  0
  139.5410   80.1880  223.9370 C   0  0  0  0  0  0  0  0  0  0  0  0
  138.2420   80.6140  224.1420 C   0  0  0  0  0  0  0  0  0  0  0  0
  137.1520   79.8780  223.7150 C   0  0  0  0  0  0  0  0  0  0  0  0
  137.3370   78.6610  223.0530 C   0  0  0  0  0  0  0  0  0  0  0  0
  138.6200   78.2450  222.8530 C   0  0  0  0  0  0  0  0  0  0  0  0
  138.8430   76.9490  222.1470 C   0  0  0  0  0  0  0  0  0  0  0  0
  140.1740   74.3880  222.2190 N   0  0  0  0  0  0  0  0  0  0  0  0
  140.5510   73.0940  221.9850 C   0  0  0  0  0  0  0  0  0  0  0  0
  139.9690   72.1290  222.8470 N   0  0  0  0  0  0  0  0  0  0  0  0
  138.7690   71.4010  222.5950 C   0  0  0  0  0  0  0  0  0  0  0  0
  139.0010   69.9020  222.8050 C   0  0  0  0  0  0  0  0  0  0  0  0
  139.3920   69.7010  224.2460 C   0  0  0  0  0  0  0  0  0  0  0  0
  138.9660   68.5940  224.9580 C   0  0  0  0  0  0  0  0  0  0  0  0
  139.3250   68.4200  226.2760 C   0  0  0  0  0  0  0  0  0  0  0  0
  140.1300   69.4030  226.8480 C   0  0  0  0  0  0  0  0  0  0  0  0
  140.5510   70.5100  226.1230 C   0  0  0  0  0  0  0  0  0  0  0  0
  140.1840   70.6800  224.7920 C   0  0  0  0  0  0  0  0  0  0  0  0
  140.6700   71.8720  224.1000 C   0  0  0  0  0  0  0  0  0  0  0  0
  145.7650   74.7350  220.1280 H   0  0  0  0  0  0  0  0  0  0  0  0
  143.9650   74.5380  220.3210 H   0  0  0  0  0  0  0  0  0  0  0  0
  144.9188   70.8727  220.6029 H   0  0  0  0  0  0  0  0  0  0  0  0
  143.9797   72.2392  221.3903 H   0  0  0  0  0  0  0  0  0  0  0  0
  142.8387   71.9912  218.8948 H   0  0  0  0  0  0  0  0  0  0  0  0
  143.1438   70.2912  219.4080 H   0  0  0  0  0  0  0  0  0  0  0  0
  141.0316   70.8449  220.2511 H   0  0  0  0  0  0  0  0  0  0  0  0
  142.2034   70.9683  221.6458 H   0  0  0  0  0  0  0  0  0  0  0  0
  142.5907   73.6885  219.3828 H   0  0  0  0  0  0  0  0  0  0  0  0
  142.1443   77.5018  221.4210 H   0  0  0  0  0  0  0  0  0  0  0  0
  140.8424   78.5608  220.8745 H   0  0  0  0  0  0  0  0  0  0  0  0
  141.3989   77.7759  223.8211 H   0  0  0  0  0  0  0  0  0  0  0  0
  141.8242   79.3432  223.1104 H   0  0  0  0  0  0  0  0  0  0  0  0
  140.4028   80.7795  224.2798 H   0  0  0  0  0  0  0  0  0  0  0  0
  138.0700   81.5684  224.6611 H   0  0  0  0  0  0  0  0  0  0  0  0
  136.1338   80.2523  223.8973 H   0  0  0  0  0  0  0  0  0  0  0  0
  136.4814   78.0625  222.7070 H   0  0  0  0  0  0  0  0  0  0  0  0
  138.5364   76.1311  222.8156 H   0  0  0  0  0  0  0  0  0  0  0  0
  138.2476   76.9775  221.2225 H   0  0  0  0  0  0  0  0  0  0  0  0
  137.9839   71.7464  223.2837 H   0  0  0  0  0  0  0  0  0  0  0  0
  138.4595   71.5721  221.5534 H   0  0  0  0  0  0  0  0  0  0  0  0
  138.0784   69.3449  222.5851 H   0  0  0  0  0  0  0  0  0  0  0  0
  139.7920   69.5350  222.1345 H   0  0  0  0  0  0  0  0  0  0  0  0
  138.3319   67.8426  224.4646 H   0  0  0  0  0  0  0  0  0  0  0  0
  138.9912   67.5441  226.8516 H   0  0  0  0  0  0  0  0  0  0  0  0
  140.4393   69.2997  227.8986 H   0  0  0  0  0  0  0  0  0  0  0  0
  141.1855   71.2654  226.6095 H   0  0  0  0  0  0  0  0  0  0  0  0
  140.5356   72.7406  224.7614 H   0  0  0  0  0  0  0  0  0  0  0  0
  141.7290   71.7019  223.8558 H   0  0  0  0  0  0  0  0  0  0  0  0
  1  2  1  0
  2  3  2  0
  2  4  1  0
  4  5  1  0
  5  6  1  0
  6  7  1  0
  7  8  2  0
  8  9  1  0
  9 10  2  0
 10 11  1  0
 11 12  1  0
 12 13  1  0
 13 14  1  0
 14 15  2  0
 15 16  1  0
 16 17  2  0
 17 18  1  0
 18 19  2  0
 19 20  1  0
 10 21  1  0
 21 22  2  0
 22 23  1  0
 23 24  1  0
 24 25  1  0
 25 26  1  0
 26 27  2  0
 27 28  1  0
 28 29  2  0
 29 30  1  0
 30 31  2  0
 31 32  1  0
 22  7  1  0
 32 23  1  0
 20 11  1  0
 31 26  1  0
 19 14  1  0
  1 33  1  0
  1 34  1  0
  4 35  1  0
  4 36  1  0
  5 37  1  0
  5 38  1  0
  6 39  1  0
  6 40  1  0
  8 41  1  0
 12 42  1  0
 12 43  1  0
 13 44  1  0
 13 45  1  0
 15 46  1  0
 16 47  1  0
 17 48  1  0
 18 49  1  0
 20 50  1  0
 20 51  1  0
 24 52  1  0
 24 53  1  0
 25 54  1  0
 25 55  1  0
 27 56  1  0
 28 57  1  0
 29 58  1  0
 30 59  1  0
 32 60  1  0
 32 61  1  0
M  END
>  <smiles>  (22) 
NC(=O)CCCc1cnc(N2CCc3ccccc3C2)nc1N1CCc2ccccc2C1

>  <score_type>  (22) 
oracle

>  <origin>  (22) 
autodockgpu

>  <m_score__min__energy>  (22) 
-9.2200000000000006

>  <m_primary>  (22) 
energy

>  <rmsd>  (22) 
9.955981867007157

>  <m_score__min__rmsd>  (22) 
9.955981867007157

>  <meeko>  (22) 
{"free_energy": -8.99, "intermolecular_energy": -10.78, "internal_energy": -1.31, "cluster_size": 27, "cluster_id": 1, "rank_in_cluster": 5}

>  <energy>  (22) 
-8.57

>  <cluster_rmsd>  (22) 
1.6

>  <cluster>  (22) 
1

$$$$

     RDKit          3D

 61 65  0  0  0  0  0  0  0  0999 V2000
  136.2220   74.5930  223.0780 N   0  0  0  0  0  0  0  0  0  0  0  0
  136.7010   75.8460  222.5470 C   0  0  0  0  0  0  0  0  0  0  0  0
  137.3580   76.5730  223.3210 O   0  0  0  0  0  0  0  0  0  0  0  0
  136.3690   76.1470  221.1440 C   0  0  0  0  0  0  0  0  0  0  0  0
  137.5110   76.7060  220.3350 C   0  0  0  0  0  0  0  0  0  0  0  0
  138.2660   75.6040  219.6810 C   0  0  0  0  0  0  0  0  0  0  0  0
  138.6760   74.5320  220.6230 C   0  0  0  0  0  0  0  0  0  0  0  0
  137.9810   73.3190  220.6970 C   0  0  0  0  0  0  0  0  0  0  0  0
  138.3450   72.3620  221.5550 N   0  0  0  0  0  0  0  0  0  0  0  0
  139.4040   72.5160  222.3990 C   0  0  0  0  0  0  0  0  0  0  0  0
  139.7920   71.5000  223.3130 N   0  0  0  0  0  0  0  0  0  0  0  0
  139.5900   70.0910  223.0090 C   0  0  0  0  0  0  0  0  0  0  0  0
  138.7340   69.5560  224.1590 C   0  0  0  0  0  0  0  0  0  0  0  0
  139.5440   69.7380  225.4050 C   0  0  0  0  0  0  0  0  0  0  0  0
  139.4620   68.7280  226.3640 C   0  0  0  0  0  0  0  0  0  0  0  0
  140.2110   68.8990  227.5130 C   0  0  0  0  0  0  0  0  0  0  0  0
  141.0060   70.0110  227.7120 C   0  0  0  0  0  0  0  0  0  0  0  0
  141.0760   71.0130  226.7410 C   0  0  0  0  0  0  0  0  0  0  0  0
  140.3350   70.8400  225.6080 C   0  0  0  0  0  0  0  0  0  0  0  0
  140.3930   71.8970  224.5550 C   0  0  0  0  0  0  0  0  0  0  0  0
  140.0810   73.6660  222.3450 N   0  0  0  0  0  0  0  0  0  0  0  0
  139.7420   74.6710  221.4810 C   0  0  0  0  0  0  0  0  0  0  0  0
  140.5690   75.8230  221.5390 N   0  0  0  0  0  0  0  0  0  0  0  0
  141.5480   76.1970  220.5710 C   0  0  0  0  0  0  0  0  0  0  0  0
  141.3500   77.6560  220.1500 C   0  0  0  0  0  0  0  0  0  0  0  0
  141.5350   78.5110  221.3770 C   0  0  0  0  0  0  0  0  0  0  0  0
  142.1540   79.7460  221.3060 C   0  0  0  0  0  0  0  0  0  0  0  0
  142.3210   80.5190  222.4320 C   0  0  0  0  0  0  0  0  0  0  0  0
  141.8410   80.0010  223.6330 C   0  0  0  0  0  0  0  0  0  0  0  0
  141.2220   78.7600  223.6930 C   0  0  0  0  0  0  0  0  0  0  0  0
  141.0560   77.9830  222.5500 C   0  0  0  0  0  0  0  0  0  0  0  0
  140.3930   76.6890  222.6990 C   0  0  0  0  0  0  0  0  0  0  0  0
  136.8750   74.0670  223.7010 H   0  0  0  0  0  0  0  0  0  0  0  0
  135.2700   74.2260  222.8560 H   0  0  0  0  0  0  0  0  0  0  0  0
  136.0317   75.2165  220.6640 H   0  0  0  0  0  0  0  0  0  0  0  0
  135.5930   76.9262  221.1676 H   0  0  0  0  0  0  0  0  0  0  0  0
  137.1131   77.3815  219.5634 H   0  0  0  0  0  0  0  0  0  0  0  0
  138.1884   77.2570  221.0040 H   0  0  0  0  0  0  0  0  0  0  0  0
  137.6295   75.1593  218.9019 H   0  0  0  0  0  0  0  0  0  0  0  0
  139.1858   76.0415  219.2656 H   0  0  0  0  0  0  0  0  0  0  0  0
  137.1183   73.1506  220.0357 H   0  0  0  0  0  0  0  0  0  0  0  0
  139.0650   69.9740  222.0495 H   0  0  0  0  0  0  0  0  0  0  0  0
  140.5421   69.5480  222.9156 H   0  0  0  0  0  0  0  0  0  0  0  0
  137.7938   70.1226  224.2297 H   0  0  0  0  0  0  0  0  0  0  0  0
  138.4708   68.4993  224.0038 H   0  0  0  0  0  0  0  0  0  0  0  0
  138.8320   67.8390  226.2131 H   0  0  0  0  0  0  0  0  0  0  0  0
  140.1728   68.1250  228.2937 H   0  0  0  0  0  0  0  0  0  0  0  0
  141.5875   70.1081  228.6407 H   0  0  0  0  0  0  0  0  0  0  0  0
  141.7031   71.9054  226.8839 H   0  0  0  0  0  0  0  0  0  0  0  0
  139.8673   72.7887  224.9271 H   0  0  0  0  0  0  0  0  0  0  0  0
  141.4560   72.0945  224.3522 H   0  0  0  0  0  0  0  0  0  0  0  0
  142.5516   76.0778  221.0053 H   0  0  0  0  0  0  0  0  0  0  0  0
  141.4407   75.5520  219.6864 H   0  0  0  0  0  0  0  0  0  0  0  0
  142.0921   77.9303  219.3858 H   0  0  0  0  0  0  0  0  0  0  0  0
  140.3470   77.8032  219.7231 H   0  0  0  0  0  0  0  0  0  0  0  0
  142.5178   80.1153  220.3358 H   0  0  0  0  0  0  0  0  0  0  0  0
  142.8117   81.5024  222.3860 H   0  0  0  0  0  0  0  0  0  0  0  0
  141.9553   80.5893  224.5554 H   0  0  0  0  0  0  0  0  0  0  0  0
  140.8565   78.3842  224.6601 H   0  0  0  0  0  0  0  0  0  0  0  0
  140.8088   76.1815  223.5819 H   0  0  0  0  0  0  0  0  0  0  0  0
  139.3153   76.8813  222.8062 H   0  0  0  0  0  0  0  0  0  0  0  0
  1  2  1  0
  2  3  2  0
  2  4  1  0
  4  5  1  0
  5  6  1  0
  6  7  1  0
  7  8  2  0
  8  9  1  0
  9 10  2  0
 10 11  1  0
 11 12  1  0
 12 13  1  0
 13 14  1  0
 14 15  2  0
 15 16  1  0
 16 17  2  0
 17 18  1  0
 18 19  2  0
 19 20  1  0
 10 21  1  0
 21 22  2  0
 22 23  1  0
 23 24  1  0
 24 25  1  0
 25 26  1  0
 26 27  2  0
 27 28  1  0
 28 29  2  0
 29 30  1  0
 30 31  2  0
 31 32  1  0
 22  7  1  0
 32 23  1  0
 20 11  1  0
 31 26  1  0
 19 14  1  0
  1 33  1  0
  1 34  1  0
  4 35  1  0
  4 36  1  0
  5 37  1  0
  5 38  1  0
  6 39  1  0
  6 40  1  0
  8 41  1  0
 12 42  1  0
 12 43  1  0
 13 44  1  0
 13 45  1  0
 15 46  1  0
 16 47  1  0
 17 48  1  0
 18 49  1  0
 20 50  1  0
 20 51  1  0
 24 52  1  0
 24 53  1  0
 25 54  1  0
 25 55  1  0
 27 56  1  0
 28 57  1  0
 29 58  1  0
 30 59  1  0
 32 60  1  0
 32 61  1  0
M  END
>  <smiles>  (23) 
NC(=O)CCCc1cnc(N2CCc3ccccc3C2)nc1N1CCc2ccccc2C1

>  <score_type>  (23) 
oracle

>  <origin>  (23) 
autodockgpu

>  <m_score__min__energy>  (23) 
-9.2200000000000006

>  <m_primary>  (23) 
energy

>  <rmsd>  (23) 
4.037674707333052

>  <m_score__min__rmsd>  (23) 
4.037674707333052

>  <meeko>  (23) 
{"free_energy": -8.64, "intermolecular_energy": -10.43, "internal_energy": -1.68, "cluster_size": 14, "cluster_id": 2, "rank_in_cluster": 1}

>  <energy>  (23) 
-8.56

>  <cluster_rmsd>  (23) 
1.83

>  <cluster>  (23) 
1

$$$$

     RDKit          3D

 61 65  0  0  0  0  0  0  0  0999 V2000
  145.3510   73.7220  219.8140 N   0  0  0  0  0  0  0  0  0  0  0  0
  145.1820   72.4660  219.1250 C   0  0  0  0  0  0  0  0  0  0  0  0
  145.6350   72.3950  217.9630 O   0  0  0  0  0  0  0  0  0  0  0  0
  144.4920   71.3900  219.8560 C   0  0  0  0  0  0  0  0  0  0  0  0
  143.0180   71.2790  219.5660 C   0  0  0  0  0  0  0  0  0  0  0  0
  142.2340   71.4430  220.8190 C   0  0  0  0  0  0  0  0  0  0  0  0
  141.7900   72.8400  221.0570 C   0  0  0  0  0  0  0  0  0  0  0  0
  142.3590   73.9150  220.3630 C   0  0  0  0  0  0  0  0  0  0  0  0
  141.9670   75.1720  220.5890 N   0  0  0  0  0  0  0  0  0  0  0  0
  141.0010   75.4720  221.5010 C   0  0  0  0  0  0  0  0  0  0  0  0
  140.5840   76.8090  221.7440 N   0  0  0  0  0  0  0  0  0  0  0  0
  139.5940   77.4580  220.8960 C   0  0  0  0  0  0  0  0  0  0  0  0
  140.2880   78.7150  220.3690 C   0  0  0  0  0  0  0  0  0  0  0  0
  140.6150   79.5490  221.5690 C   0  0  0  0  0  0  0  0  0  0  0  0
  140.4770   80.9310  221.4330 C   0  0  0  0  0  0  0  0  0  0  0  0
  140.7790   81.6980  222.5430 C   0  0  0  0  0  0  0  0  0  0  0  0
  141.1970   81.1340  223.7330 C   0  0  0  0  0  0  0  0  0  0  0  0
  141.3300   79.7480  223.8500 C   0  0  0  0  0  0  0  0  0  0  0  0
  141.0310   78.9950  222.7530 C   0  0  0  0  0  0  0  0  0  0  0  0
  141.1630   77.5110  222.8530 C   0  0  0  0  0  0  0  0  0  0  0  0
  140.4450   74.4620  222.1740 N   0  0  0  0  0  0  0  0  0  0  0  0
  140.8170   73.1600  221.9740 C   0  0  0  0  0  0  0  0  0  0  0  0
  140.1210   72.2050  222.7590 N   0  0  0  0  0  0  0  0  0  0  0  0
  138.9180   71.5360  222.3870 C   0  0  0  0  0  0  0  0  0  0  0  0
  139.0660   70.0240  222.5800 C   0  0  0  0  0  0  0  0  0  0  0  0
  139.3220   69.7770  224.0440 C   0  0  0  0  0  0  0  0  0  0  0  0
  138.7890   68.6760  224.6910 C   0  0  0  0  0  0  0  0  0  0  0  0
  139.0250   68.4590  226.0300 C   0  0  0  0  0  0  0  0  0  0  0  0
  139.8180   69.3930  226.6920 C   0  0  0  0  0  0  0  0  0  0  0  0
  140.3470   70.4950  226.0330 C   0  0  0  0  0  0  0  0  0  0  0  0
  140.1040   70.7090  224.6800 C   0  0  0  0  0  0  0  0  0  0  0  0
  140.6990   71.8920  224.0610 C   0  0  0  0  0  0  0  0  0  0  0  0
  146.2670   74.2080  219.6860 H   0  0  0  0  0  0  0  0  0  0  0  0
  144.5990   74.1300  220.4120 H   0  0  0  0  0  0  0  0  0  0  0  0
  144.9670   70.4345  219.5888 H   0  0  0  0  0  0  0  0  0  0  0  0
  144.5816   71.6327  220.9251 H   0  0  0  0  0  0  0  0  0  0  0  0
  142.7284   72.0631  218.8510 H   0  0  0  0  0  0  0  0  0  0  0  0
  142.8099   70.2865  219.1398 H   0  0  0  0  0  0  0  0  0  0  0  0
  141.3440   70.7992  220.7605 H   0  0  0  0  0  0  0  0  0  0  0  0
  142.8936   71.1646  221.6541 H   0  0  0  0  0  0  0  0  0  0  0  0
  143.1440   73.7207  219.6173 H   0  0  0  0  0  0  0  0  0  0  0  0
  139.3050   76.7984  220.0645 H   0  0  0  0  0  0  0  0  0  0  0  0
  138.6708   77.6949  221.4452 H   0  0  0  0  0  0  0  0  0  0  0  0
  141.2084   78.4446  219.8308 H   0  0  0  0  0  0  0  0  0  0  0  0
  139.6435   79.2623  219.6654 H   0  0  0  0  0  0  0  0  0  0  0  0
  140.1443   81.3876  220.4892 H   0  0  0  0  0  0  0  0  0  0  0  0
  140.6835   82.7918  222.4766 H   0  0  0  0  0  0  0  0  0  0  0  0
  141.4264   81.7799  224.5934 H   0  0  0  0  0  0  0  0  0  0  0  0
  141.6627   79.2827  224.7896 H   0  0  0  0  0  0  0  0  0  0  0  0
  142.2326   77.2593  222.9043 H   0  0  0  0  0  0  0  0  0  0  0  0
  140.6169   77.1977  223.7550 H   0  0  0  0  0  0  0  0  0  0  0  0
  138.0912   71.9021  223.0134 H   0  0  0  0  0  0  0  0  0  0  0  0
  138.7088   71.7415  221.3268 H   0  0  0  0  0  0  0  0  0  0  0  0
  138.1426   69.5136  222.2689 H   0  0  0  0  0  0  0  0  0  0  0  0
  139.8952   69.6351  221.9708 H   0  0  0  0  0  0  0  0  0  0  0  0
  138.1680   67.9641  224.1275 H   0  0  0  0  0  0  0  0  0  0  0  0
  138.6059   67.5870  226.5534 H   0  0  0  0  0  0  0  0  0  0  0  0
  140.0304   69.2545  227.7624 H   0  0  0  0  0  0  0  0  0  0  0  0
  140.9688   71.2110  226.5904 H   0  0  0  0  0  0  0  0  0  0  0  0
  140.5449   72.7523  224.7290 H   0  0  0  0  0  0  0  0  0  0  0  0
  141.7670   71.6799  223.9047 H   0  0  0  0  0  0  0  0  0  0  0  0
  1  2  1  0
  2  3  2  0
  2  4  1  0
  4  5  1  0
  5  6  1  0
  6  7  1  0
  7  8  2  0
  8  9  1  0
  9 10  2  0
 10 11  1  0
 11 12  1  0
 12 13  1  0
 13 14  1  0
 14 15  2  0
 15 16  1  0
 16 17  2  0
 17 18  1  0
 18 19  2  0
 19 20  1  0
 10 21  1  0
 21 22  2  0
 22 23  1  0
 23 24  1  0
 24 25  1  0
 25 26  1  0
 26 27  2  0
 27 28  1  0
 28 29  2  0
 29 30  1  0
 30 31  2  0
 31 32  1  0
 22  7  1  0
 32 23  1  0
 20 11  1  0
 31 26  1  0
 19 14  1  0
  1 33  1  0
  1 34  1  0
  4 35  1  0
  4 36  1  0
  5 37  1  0
  5 38  1  0
  6 39  1  0
  6 40  1  0
  8 41  1  0
 12 42  1  0
 12 43  1  0
 13 44  1  0
 13 45  1  0
 15 46  1  0
 16 47  1  0
 17 48  1  0
 18 49  1  0
 20 50  1  0
 20 51  1  0
 24 52  1  0
 24 53  1  0
 25 54  1  0
 25 55  1  0
 27 56  1  0
 28 57  1  0
 29 58  1  0
 30 59  1  0
 32 60  1  0
 32 61  1  0
M  END
>  <smiles>  (24) 
NC(=O)CCCc1cnc(N2CCc3ccccc3C2)nc1N1CCc2ccccc2C1

>  <score_type>  (24) 
oracle

>  <origin>  (24) 
autodockgpu

>  <m_score__min__energy>  (24) 
-9.2200000000000006

>  <m_primary>  (24) 
energy

>  <rmsd>  (24) 
9.936250812434947

>  <m_score__min__rmsd>  (24) 
9.936250812434947

>  <meeko>  (24) 
{"free_energy": -8.66, "intermolecular_energy": -10.45, "internal_energy": -1.14, "cluster_size": 27, "cluster_id": 1, "rank_in_cluster": 17}

>  <energy>  (24) 
-8.56

>  <cluster_rmsd>  (24) 
1.94

>  <cluster>  (24) 
1

$$$$

     RDKit          3D

 61 65  0  0  0  0  0  0  0  0999 V2000
  143.3420   68.2090  218.7700 N   0  0  0  0  0  0  0  0  0  0  0  0
  144.1050   69.0250  219.6830 C   0  0  0  0  0  0  0  0  0  0  0  0
  145.1970   68.5630  220.0740 O   0  0  0  0  0  0  0  0  0  0  0  0
  143.5230   70.3230  220.0650 C   0  0  0  0  0  0  0  0  0  0  0  0
  142.1090   70.5410  219.5920 C   0  0  0  0  0  0  0  0  0  0  0  0
  141.2090   70.7760  220.7520 C   0  0  0  0  0  0  0  0  0  0  0  0
  140.9150   72.2120  220.9860 C   0  0  0  0  0  0  0  0  0  0  0  0
  141.2520   73.1900  220.0420 C   0  0  0  0  0  0  0  0  0  0  0  0
  140.9980   74.4830  220.2610 N   0  0  0  0  0  0  0  0  0  0  0  0
  140.4030   74.9160  221.4080 C   0  0  0  0  0  0  0  0  0  0  0  0
  140.1330   76.2910  221.6440 N   0  0  0  0  0  0  0  0  0  0  0  0
  141.1570   77.3070  221.4500 C   0  0  0  0  0  0  0  0  0  0  0  0
  141.2730   78.0160  222.8000 C   0  0  0  0  0  0  0  0  0  0  0  0
  139.9330   78.6300  223.0680 C   0  0  0  0  0  0  0  0  0  0  0  0
  139.9250   79.8850  223.6790 C   0  0  0  0  0  0  0  0  0  0  0  0
  138.6870   80.4490  223.9240 C   0  0  0  0  0  0  0  0  0  0  0  0
  137.5090   79.8110  223.5850 C   0  0  0  0  0  0  0  0  0  0  0  0
  137.5370   78.5540  222.9740 C   0  0  0  0  0  0  0  0  0  0  0  0
  138.7610   78.0010  222.7340 C   0  0  0  0  0  0  0  0  0  0  0  0
  138.8170   76.6600  222.0810 C   0  0  0  0  0  0  0  0  0  0  0  0
  140.0730   74.0000  222.3220 N   0  0  0  0  0  0  0  0  0  0  0  0
  140.3150   72.6660  222.1370 C   0  0  0  0  0  0  0  0  0  0  0  0
  139.8920   71.8220  223.1970 N   0  0  0  0  0  0  0  0  0  0  0  0
  138.7690   70.9440  223.1670 C   0  0  0  0  0  0  0  0  0  0  0  0
  139.1790   69.5390  223.6210 C   0  0  0  0  0  0  0  0  0  0  0  0
  139.6690   69.6470  225.0420 C   0  0  0  0  0  0  0  0  0  0  0  0
  139.4090   68.6530  225.9690 C   0  0  0  0  0  0  0  0  0  0  0  0
  139.8570   68.7620  227.2660 C   0  0  0  0  0  0  0  0  0  0  0  0
  140.5770   69.9080  227.5940 C   0  0  0  0  0  0  0  0  0  0  0  0
  140.8310   70.9000  226.6550 C   0  0  0  0  0  0  0  0  0  0  0  0
  140.3740   70.7850  225.3460 C   0  0  0  0  0  0  0  0  0  0  0  0
  140.6860   71.8720  224.4200 C   0  0  0  0  0  0  0  0  0  0  0  0
  143.8790   67.7070  218.0290 H   0  0  0  0  0  0  0  0  0  0  0  0
  142.3040   68.1210  218.8430 H   0  0  0  0  0  0  0  0  0  0  0  0
  143.5321   70.3931  221.1627 H   0  0  0  0  0  0  0  0  0  0  0  0
  144.1368   71.0949  219.5778 H   0  0  0  0  0  0  0  0  0  0  0  0
  142.0796   71.4162  218.9263 H   0  0  0  0  0  0  0  0  0  0  0  0
  141.7699   69.6454  219.0508 H   0  0  0  0  0  0  0  0  0  0  0  0
  140.2600   70.2506  220.5696 H   0  0  0  0  0  0  0  0  0  0  0  0
  141.7261   70.3994  221.6469 H   0  0  0  0  0  0  0  0  0  0  0  0
  141.7355   72.8874  219.1014 H   0  0  0  0  0  0  0  0  0  0  0  0
  142.1151   76.8423  221.1739 H   0  0  0  0  0  0  0  0  0  0  0  0
  140.8990   78.0035  220.6387 H   0  0  0  0  0  0  0  0  0  0  0  0
  141.5256   77.2930  223.5896 H   0  0  0  0  0  0  0  0  0  0  0  0
  142.0664   78.7777  222.7851 H   0  0  0  0  0  0  0  0  0  0  0  0
  140.8579   80.3998  223.9521 H   0  0  0  0  0  0  0  0  0  0  0  0
  138.6379   81.4374  224.4042 H   0  0  0  0  0  0  0  0  0  0  0  0
  136.5442   80.2948  223.7971 H   0  0  0  0  0  0  0  0  0  0  0  0
  136.6092   78.0316  222.6977 H   0  0  0  0  0  0  0  0  0  0  0  0
  138.4654   75.9069  222.8015 H   0  0  0  0  0  0  0  0  0  0  0  0
  138.1805   76.7093  221.1852 H   0  0  0  0  0  0  0  0  0  0  0  0
  137.9891   71.3295  223.8401 H   0  0  0  0  0  0  0  0  0  0  0  0
  138.3855   70.8893  222.1375 H   0  0  0  0  0  0  0  0  0  0  0  0
  138.3139   68.8613  223.5725 H   0  0  0  0  0  0  0  0  0  0  0  0
  139.9678   69.1359  222.9688 H   0  0  0  0  0  0  0  0  0  0  0  0
  138.8367   67.7640  225.6654 H   0  0  0  0  0  0  0  0  0  0  0  0
  139.6551   67.9781  228.0108 H   0  0  0  0  0  0  0  0  0  0  0  0
  140.9534   70.0307  228.6203 H   0  0  0  0  0  0  0  0  0  0  0  0
  141.4031   71.7915  226.9516 H   0  0  0  0  0  0  0  0  0  0  0  0
  140.4924   72.8298  224.9252 H   0  0  0  0  0  0  0  0  0  0  0  0
  141.7424   71.7671  224.1320 H   0  0  0  0  0  0  0  0  0  0  0  0
  1  2  1  0
  2  3  2  0
  2  4  1  0
  4  5  1  0
  5  6  1  0
  6  7  1  0
  7  8  2  0
  8  9  1  0
  9 10  2  0
 10 11  1  0
 11 12  1  0
 12 13  1  0
 13 14  1  0
 14 15  2  0
 15 16  1  0
 16 17  2  0
 17 18  1  0
 18 19  2  0
 19 20  1  0
 10 21  1  0
 21 22  2  0
 22 23  1  0
 23 24  1  0
 24 25  1  0
 25 26  1  0
 26 27  2  0
 27 28  1  0
 28 29  2  0
 29 30  1  0
 30 31  2  0
 31 32  1  0
 22  7  1  0
 32 23  1  0
 20 11  1  0
 31 26  1  0
 19 14  1  0
  1 33  1  0
  1 34  1  0
  4 35  1  0
  4 36  1  0
  5 37  1  0
  5 38  1  0
  6 39  1  0
  6 40  1  0
  8 41  1  0
 12 42  1  0
 12 43  1  0
 13 44  1  0
 13 45  1  0
 15 46  1  0
 16 47  1  0
 17 48  1  0
 18 49  1  0
 20 50  1  0
 20 51  1  0
 24 52  1  0
 24 53  1  0
 25 54  1  0
 25 55  1  0
 27 56  1  0
 28 57  1  0
 29 58  1  0
 30 59  1  0
 32 60  1  0
 32 61  1  0
M  END
>  <smiles>  (25) 
NC(=O)CCCc1cnc(N2CCc3ccccc3C2)nc1N1CCc2ccccc2C1

>  <score_type>  (25) 
oracle

>  <origin>  (25) 
autodockgpu

>  <m_score__min__energy>  (25) 
-9.2200000000000006

>  <m_primary>  (25) 
energy

>  <rmsd>  (25) 
10.074350004611428

>  <m_score__min__rmsd>  (25) 
10.074350004611428

>  <meeko>  (25) 
{"free_energy": -8.41, "intermolecular_energy": -10.2, "internal_energy": -1.08, "cluster_size": 1, "cluster_id": 4, "rank_in_cluster": 1}

>  <energy>  (25) 
-8.41

>  <cluster_rmsd>  (25) 
1.72

>  <cluster>  (25) 
1

$$$$

     RDKit          3D

 61 65  0  0  0  0  0  0  0  0999 V2000
  137.0970   75.9600  222.9020 N   0  0  0  0  0  0  0  0  0  0  0  0
  137.4000   77.2530  222.3400 C   0  0  0  0  0  0  0  0  0  0  0  0
  137.9570   78.0790  223.0930 O   0  0  0  0  0  0  0  0  0  0  0  0
  137.0250   77.4750  220.9340 C   0  0  0  0  0  0  0  0  0  0  0  0
  136.8150   76.2150  220.1340 C   0  0  0  0  0  0  0  0  0  0  0  0
  138.1260   75.6180  219.7640 C   0  0  0  0  0  0  0  0  0  0  0  0
  138.5640   74.5420  220.6890 C   0  0  0  0  0  0  0  0  0  0  0  0
  137.8560   73.3390  220.7980 C   0  0  0  0  0  0  0  0  0  0  0  0
  138.2440   72.3790  221.6400 N   0  0  0  0  0  0  0  0  0  0  0  0
  139.3430   72.5180  222.4340 C   0  0  0  0  0  0  0  0  0  0  0  0
  139.7580   71.4980  223.3320 N   0  0  0  0  0  0  0  0  0  0  0  0
  139.6020   70.0890  223.0010 C   0  0  0  0  0  0  0  0  0  0  0  0
  138.7570   69.5060  224.1350 C   0  0  0  0  0  0  0  0  0  0  0  0
  139.5540   69.6910  225.3890 C   0  0  0  0  0  0  0  0  0  0  0  0
  139.4980   68.6610  226.3300 C   0  0  0  0  0  0  0  0  0  0  0  0
  140.2350   68.8340  227.4860 C   0  0  0  0  0  0  0  0  0  0  0  0
  140.9940   69.9670  227.7100 C   0  0  0  0  0  0  0  0  0  0  0  0
  141.0370   70.9880  226.7580 C   0  0  0  0  0  0  0  0  0  0  0  0
  140.3080   70.8130  225.6180 C   0  0  0  0  0  0  0  0  0  0  0  0
  140.3400   71.8900  224.5840 C   0  0  0  0  0  0  0  0  0  0  0  0
  140.0340   73.6580  222.3460 N   0  0  0  0  0  0  0  0  0  0  0  0
  139.6700   74.6670  221.4960 C   0  0  0  0  0  0  0  0  0  0  0  0
  140.5160   75.8060  221.5140 N   0  0  0  0  0  0  0  0  0  0  0  0
  141.3830   76.2170  220.4590 C   0  0  0  0  0  0  0  0  0  0  0  0
  141.1620   77.6970  220.1330 C   0  0  0  0  0  0  0  0  0  0  0  0
  141.4980   78.4890  221.3700 C   0  0  0  0  0  0  0  0  0  0  0  0
  142.1230   79.7200  221.2870 C   0  0  0  0  0  0  0  0  0  0  0  0
  142.4300   80.4360  222.4220 C   0  0  0  0  0  0  0  0  0  0  0  0
  142.0820   79.8650  223.6440 C   0  0  0  0  0  0  0  0  0  0  0  0
  141.4540   78.6280  223.7150 C   0  0  0  0  0  0  0  0  0  0  0  0
  141.1480   77.9100  222.5640 C   0  0  0  0  0  0  0  0  0  0  0  0
  140.4860   76.6160  222.7260 C   0  0  0  0  0  0  0  0  0  0  0  0
  137.8180   75.5400  223.5310 H   0  0  0  0  0  0  0  0  0  0  0  0
  136.2020   75.4630  222.6950 H   0  0  0  0  0  0  0  0  0  0  0  0
  136.0892   78.0530  220.9157 H   0  0  0  0  0  0  0  0  0  0  0  0
  137.8683   78.0042  220.4663 H   0  0  0  0  0  0  0  0  0  0  0  0
  136.2438   75.4931  220.7361 H   0  0  0  0  0  0  0  0  0  0  0  0
  136.2601   76.4603  219.2164 H   0  0  0  0  0  0  0  0  0  0  0  0
  138.0440   75.1960  218.7515 H   0  0  0  0  0  0  0  0  0  0  0  0
  138.8764   76.4204  219.8194 H   0  0  0  0  0  0  0  0  0  0  0  0
  136.9618   73.1819  220.1770 H   0  0  0  0  0  0  0  0  0  0  0  0
  139.0865   69.9735  222.0362 H   0  0  0  0  0  0  0  0  0  0  0  0
  140.5713   69.5781  222.9039 H   0  0  0  0  0  0  0  0  0  0  0  0
  137.7987   70.0409  224.2100 H   0  0  0  0  0  0  0  0  0  0  0  0
  138.5283   68.4445  223.9589 H   0  0  0  0  0  0  0  0  0  0  0  0
  138.8965   67.7560  226.1594 H   0  0  0  0  0  0  0  0  0  0  0  0
  140.2170   68.0449  228.2522 H   0  0  0  0  0  0  0  0  0  0  0  0
  141.5676   70.0652  228.6435 H   0  0  0  0  0  0  0  0  0  0  0  0
  141.6347   71.8970  226.9208 H   0  0  0  0  0  0  0  0  0  0  0  0
  139.7860   72.7589  224.9688 H   0  0  0  0  0  0  0  0  0  0  0  0
  141.3977   72.1223  224.3909 H   0  0  0  0  0  0  0  0  0  0  0  0
  142.4277   76.0660  220.7686 H   0  0  0  0  0  0  0  0  0  0  0  0
  141.1642   75.6175  219.5630 H   0  0  0  0  0  0  0  0  0  0  0  0
  141.8173   78.0006  219.3033 H   0  0  0  0  0  0  0  0  0  0  0  0
  140.1196   77.8753  219.8304 H   0  0  0  0  0  0  0  0  0  0  0  0
  142.3784   80.1329  220.2999 H   0  0  0  0  0  0  0  0  0  0  0  0
  142.9279   81.4153  222.3664 H   0  0  0  0  0  0  0  0  0  0  0  0
  142.3098   80.4061  224.5742 H   0  0  0  0  0  0  0  0  0  0  0  0
  141.1943   78.2092  224.6984 H   0  0  0  0  0  0  0  0  0  0  0  0
  140.9913   76.0619  223.5307 H   0  0  0  0  0  0  0  0  0  0  0  0
  139.4304   76.8135  222.9642 H   0  0  0  0  0  0  0  0  0  0  0  0
  1  2  1  0
  2  3  2  0
  2  4  1  0
  4  5  1  0
  5  6  1  0
  6  7  1  0
  7  8  2  0
  8  9  1  0
  9 10  2  0
 10 11  1  0
 11 12  1  0
 12 13  1  0
 13 14  1  0
 14 15  2  0
 15 16  1  0
 16 17  2  0
 17 18  1  0
 18 19  2  0
 19 20  1  0
 10 21  1  0
 21 22  2  0
 22 23  1  0
 23 24  1  0
 24 25  1  0
 25 26  1  0
 26 27  2  0
 27 28  1  0
 28 29  2  0
 29 30  1  0
 30 31  2  0
 31 32  1  0
 22  7  1  0
 32 23  1  0
 20 11  1  0
 31 26  1  0
 19 14  1  0
  1 33  1  0
  1 34  1  0
  4 35  1  0
  4 36  1  0
  5 37  1  0
  5 38  1  0
  6 39  1  0
  6 40  1  0
  8 41  1  0
 12 42  1  0
 12 43  1  0
 13 44  1  0
 13 45  1  0
 15 46  1  0
 16 47  1  0
 17 48  1  0
 18 49  1  0
 20 50  1  0
 20 51  1  0
 24 52  1  0
 24 53  1  0
 25 54  1  0
 25 55  1  0
 27 56  1  0
 28 57  1  0
 29 58  1  0
 30 59  1  0
 32 60  1  0
 32 61  1  0
M  END
>  <smiles>  (26) 
NC(=O)CCCc1cnc(N2CCc3ccccc3C2)nc1N1CCc2ccccc2C1

>  <score_type>  (26) 
oracle

>  <origin>  (26) 
autodockgpu

>  <m_score__min__energy>  (26) 
-9.2200000000000006

>  <m_primary>  (26) 
energy

>  <rmsd>  (26) 
4.2243539095841

>  <m_score__min__rmsd>  (26) 
4.2243539095841

>  <meeko>  (26) 
{"free_energy": -8.49, "intermolecular_energy": -10.28, "internal_energy": -1.78, "cluster_size": 14, "cluster_id": 2, "rank_in_cluster": 5}

>  <energy>  (26) 
-8.4

>  <cluster_rmsd>  (26) 
1.42

>  <cluster>  (26) 
1

$$$$

     RDKit          3D

 61 65  0  0  0  0  0  0  0  0999 V2000
  143.3160   77.2140  218.6240 N   0  0  0  0  0  0  0  0  0  0  0  0
  142.7460   75.8940  218.7400 C   0  0  0  0  0  0  0  0  0  0  0  0
  143.3750   75.0670  219.4320 O   0  0  0  0  0  0  0  0  0  0  0  0
  141.4780   75.6490  218.0320 C   0  0  0  0  0  0  0  0  0  0  0  0
  140.2410   75.9700  218.8310 C   0  0  0  0  0  0  0  0  0  0  0  0
  139.3250   74.7980  218.8530 C   0  0  0  0  0  0  0  0  0  0  0  0
  139.5290   73.9140  220.0280 C   0  0  0  0  0  0  0  0  0  0  0  0
  139.6160   72.5230  219.8900 C   0  0  0  0  0  0  0  0  0  0  0  0
  139.7860   71.7300  220.9510 N   0  0  0  0  0  0  0  0  0  0  0  0
  139.8810   72.2280  222.2160 C   0  0  0  0  0  0  0  0  0  0  0  0
  140.0600   71.3870  223.3460 N   0  0  0  0  0  0  0  0  0  0  0  0
  139.6350   69.9950  223.3280 C   0  0  0  0  0  0  0  0  0  0  0  0
  138.6610   69.8620  224.5000 C   0  0  0  0  0  0  0  0  0  0  0  0
  139.4460   70.1810  225.7350 C   0  0  0  0  0  0  0  0  0  0  0  0
  139.1610   69.4280  226.8750 C   0  0  0  0  0  0  0  0  0  0  0  0
  139.8880   69.7230  228.0130 C   0  0  0  0  0  0  0  0  0  0  0  0
  140.8520   70.7140  228.0320 C   0  0  0  0  0  0  0  0  0  0  0  0
  141.1230   71.4580  226.8810 C   0  0  0  0  0  0  0  0  0  0  0  0
  140.4040   71.1620  225.7600 C   0  0  0  0  0  0  0  0  0  0  0  0
  140.6760   71.9430  224.5170 C   0  0  0  0  0  0  0  0  0  0  0  0
  139.8000   73.5530  222.3700 N   0  0  0  0  0  0  0  0  0  0  0  0
  139.6270   74.4010  221.3100 C   0  0  0  0  0  0  0  0  0  0  0  0
  139.5740   75.7800  221.6420 N   0  0  0  0  0  0  0  0  0  0  0  0
  138.4160   76.6090  221.5780 C   0  0  0  0  0  0  0  0  0  0  0  0
  138.2300   77.3680  222.8960 C   0  0  0  0  0  0  0  0  0  0  0  0
  139.4400   78.2440  223.0890 C   0  0  0  0  0  0  0  0  0  0  0  0
  139.3320   79.5060  223.6460 C   0  0  0  0  0  0  0  0  0  0  0  0
  140.4430   80.3020  223.8150 C   0  0  0  0  0  0  0  0  0  0  0  0
  141.6660   79.7780  223.4040 C   0  0  0  0  0  0  0  0  0  0  0  0
  141.7620   78.5100  222.8460 C   0  0  0  0  0  0  0  0  0  0  0  0
  140.6360   77.7110  222.6770 C   0  0  0  0  0  0  0  0  0  0  0  0
  140.8240   76.3880  222.0830 C   0  0  0  0  0  0  0  0  0  0  0  0
  143.7390   77.6200  219.4890 H   0  0  0  0  0  0  0  0  0  0  0  0
  143.3090   77.7420  217.7240 H   0  0  0  0  0  0  0  0  0  0  0  0
  141.4684   76.2666  217.1218 H   0  0  0  0  0  0  0  0  0  0  0  0
  141.4419   74.5699  217.8216 H   0  0  0  0  0  0  0  0  0  0  0  0
  140.5299   76.2247  219.8614 H   0  0  0  0  0  0  0  0  0  0  0  0
  139.7234   76.8213  218.3647 H   0  0  0  0  0  0  0  0  0  0  0  0
  138.2883   75.1656  218.8687 H   0  0  0  0  0  0  0  0  0  0  0  0
  139.5399   74.2002  217.9549 H   0  0  0  0  0  0  0  0  0  0  0  0
  139.5429   72.0749  218.8881 H   0  0  0  0  0  0  0  0  0  0  0  0
  139.1325   69.7566  222.3790 H   0  0  0  0  0  0  0  0  0  0  0  0
  140.4852   69.3027  223.4173 H   0  0  0  0  0  0  0  0  0  0  0  0
  137.8271   70.5701  224.3849 H   0  0  0  0  0  0  0  0  0  0  0  0
  138.2296   68.8513  224.5495 H   0  0  0  0  0  0  0  0  0  0  0  0
  138.3952   68.6383  226.8682 H   0  0  0  0  0  0  0  0  0  0  0  0
  139.6935   69.1514  228.9325 H   0  0  0  0  0  0  0  0  0  0  0  0
  141.4087   70.9177  228.9586 H   0  0  0  0  0  0  0  0  0  0  0  0
  141.8856   72.2508  226.8787 H   0  0  0  0  0  0  0  0  0  0  0  0
  140.2962   72.9657  224.6581 H   0  0  0  0  0  0  0  0  0  0  0  0
  141.7634   71.9212  224.3523 H   0  0  0  0  0  0  0  0  0  0  0  0
  138.5323   77.3315  220.7568 H   0  0  0  0  0  0  0  0  0  0  0  0
  137.5333   75.9766  221.4024 H   0  0  0  0  0  0  0  0  0  0  0  0
  137.3220   77.9871  222.8479 H   0  0  0  0  0  0  0  0  0  0  0  0
  138.1225   76.6655  223.7356 H   0  0  0  0  0  0  0  0  0  0  0  0
  138.3452   79.8786  223.9581 H   0  0  0  0  0  0  0  0  0  0  0  0
  140.3677   81.3073  224.2552 H   0  0  0  0  0  0  0  0  0  0  0  0
  142.5771   80.3825  223.5242 H   0  0  0  0  0  0  0  0  0  0  0  0
  142.7457   78.1308  222.5321 H   0  0  0  0  0  0  0  0  0  0  0  0
  141.4924   76.4851  221.2147 H   0  0  0  0  0  0  0  0  0  0  0  0
  141.2519   75.7361  222.8588 H   0  0  0  0  0  0  0  0  0  0  0  0
  1  2  1  0
  2  3  2  0
  2  4  1  0
  4  5  1  0
  5  6  1  0
  6  7  1  0
  7  8  2  0
  8  9  1  0
  9 10  2  0
 10 11  1  0
 11 12  1  0
 12 13  1  0
 13 14  1  0
 14 15  2  0
 15 16  1  0
 16 17  2  0
 17 18  1  0
 18 19  2  0
 19 20  1  0
 10 21  1  0
 21 22  2  0
 22 23  1  0
 23 24  1  0
 24 25  1  0
 25 26  1  0
 26 27  2  0
 27 28  1  0
 28 29  2  0
 29 30  1  0
 30 31  2  0
 31 32  1  0
 22  7  1  0
 32 23  1  0
 20 11  1  0
 31 26  1  0
 19 14  1  0
  1 33  1  0
  1 34  1  0
  4 35  1  0
  4 36  1  0
  5 37  1  0
  5 38  1  0
  6 39  1  0
  6 40  1  0
  8 41  1  0
 12 42  1  0
 12 43  1  0
 13 44  1  0
 13 45  1  0
 15 46  1  0
 16 47  1  0
 17 48  1  0
 18 49  1  0
 20 50  1  0
 20 51  1  0
 24 52  1  0
 24 53  1  0
 25 54  1  0
 25 55  1  0
 27 56  1  0
 28 57  1  0
 29 58  1  0
 30 59  1  0
 32 60  1  0
 32 61  1  0
M  END
>  <smiles>  (27) 
NC(=O)CCCc1cnc(N2CCc3ccccc3C2)nc1N1CCc2ccccc2C1

>  <score_type>  (27) 
oracle

>  <origin>  (27) 
autodockgpu

>  <m_score__min__energy>  (27) 
-9.2200000000000006

>  <m_primary>  (27) 
energy

>  <rmsd>  (27) 
3.430480525022565

>  <m_score__min__rmsd>  (27) 
3.430480525022565

>  <meeko>  (27) 
{"free_energy": -8.38, "intermolecular_energy": -10.17, "internal_energy": -1.39, "cluster_size": 6, "cluster_id": 3, "rank_in_cluster": 2}

>  <energy>  (27) 
-7.87

>  <cluster_rmsd>  (27) 
1.51

>  <cluster>  (27) 
1

$$$$

     RDKit          3D

 61 65  0  0  0  0  0  0  0  0999 V2000
  145.0310   72.4200  220.9160 N   0  0  0  0  0  0  0  0  0  0  0  0
  144.6790   73.4690  219.9900 C   0  0  0  0  0  0  0  0  0  0  0  0
  145.2740   73.4750  218.8920 O   0  0  0  0  0  0  0  0  0  0  0  0
  143.6530   74.4300  220.4290 C   0  0  0  0  0  0  0  0  0  0  0  0
  142.7500   74.9280  219.3300 C   0  0  0  0  0  0  0  0  0  0  0  0
  141.5410   74.0680  219.2290 C   0  0  0  0  0  0  0  0  0  0  0  0
  141.2230   73.3510  220.4900 C   0  0  0  0  0  0  0  0  0  0  0  0
  141.5590   72.0040  220.6690 C   0  0  0  0  0  0  0  0  0  0  0  0
  141.2600   71.3580  221.7980 N   0  0  0  0  0  0  0  0  0  0  0  0
  140.6140   71.9710  222.8290 C   0  0  0  0  0  0  0  0  0  0  0  0
  140.2930   71.2850  224.0320 N   0  0  0  0  0  0  0  0  0  0  0  0
  140.5380   71.8870  225.3340 C   0  0  0  0  0  0  0  0  0  0  0  0
  141.4500   70.8990  226.0630 C   0  0  0  0  0  0  0  0  0  0  0  0
  140.6740   69.6240  226.1850 C   0  0  0  0  0  0  0  0  0  0  0  0
  140.8240   68.9040  227.3710 C   0  0  0  0  0  0  0  0  0  0  0  0
  140.1070   67.7280  227.4800 C   0  0  0  0  0  0  0  0  0  0  0  0
  139.2770   67.2780  226.4710 C   0  0  0  0  0  0  0  0  0  0  0  0
  139.1380   68.0120  225.2900 C   0  0  0  0  0  0  0  0  0  0  0  0
  139.8490   69.1720  225.1860 C   0  0  0  0  0  0  0  0  0  0  0  0
  139.7170   69.9750  223.9340 C   0  0  0  0  0  0  0  0  0  0  0  0
  140.2840   73.2570  222.6800 N   0  0  0  0  0  0  0  0  0  0  0  0
  140.5720   73.9550  221.5400 C   0  0  0  0  0  0  0  0  0  0  0  0
  140.1650   75.3150  221.5450 N   0  0  0  0  0  0  0  0  0  0  0  0
  138.9760   75.8320  220.9520 C   0  0  0  0  0  0  0  0  0  0  0  0
  138.2110   76.6980  221.9580 C   0  0  0  0  0  0  0  0  0  0  0  0
  139.1040   77.8520  222.3340 C   0  0  0  0  0  0  0  0  0  0  0  0
  138.5890   79.1170  222.5540 C   0  0  0  0  0  0  0  0  0  0  0  0
  139.4120   80.1670  222.8940 C   0  0  0  0  0  0  0  0  0  0  0  0
  140.7730   79.8940  223.0030 C   0  0  0  0  0  0  0  0  0  0  0  0
  141.2800   78.6210  222.7790 C   0  0  0  0  0  0  0  0  0  0  0  0
  140.4420   77.5640  222.4360 C   0  0  0  0  0  0  0  0  0  0  0  0
  141.0550   76.2540  222.2180 C   0  0  0  0  0  0  0  0  0  0  0  0
  145.1840   71.4690  220.5110 H   0  0  0  0  0  0  0  0  0  0  0  0
  145.1300   72.5970  221.9400 H   0  0  0  0  0  0  0  0  0  0  0  0
  143.0286   73.9412  221.1913 H   0  0  0  0  0  0  0  0  0  0  0  0
  144.1921   75.3089  220.8123 H   0  0  0  0  0  0  0  0  0  0  0  0
  142.4436   75.9609  219.5517 H   0  0  0  0  0  0  0  0  0  0  0  0
  143.2949   74.8945  218.3751 H   0  0  0  0  0  0  0  0  0  0  0  0
  140.6828   74.7022  218.9620 H   0  0  0  0  0  0  0  0  0  0  0  0
  141.7468   73.3053  218.4636 H   0  0  0  0  0  0  0  0  0  0  0  0
  142.0801   71.4669  219.8628 H   0  0  0  0  0  0  0  0  0  0  0  0
  141.0356   72.8616  225.2216 H   0  0  0  0  0  0  0  0  0  0  0  0
  139.6044   72.0712  225.8858 H   0  0  0  0  0  0  0  0  0  0  0  0
  142.3701   70.7312  225.4840 H   0  0  0  0  0  0  0  0  0  0  0  0
  141.7477   71.2824  227.0501 H   0  0  0  0  0  0  0  0  0  0  0  0
  141.4813   69.2557  228.1799 H   0  0  0  0  0  0  0  0  0  0  0  0
  140.1998   67.1310  228.3992 H   0  0  0  0  0  0  0  0  0  0  0  0
  138.7225   66.3365  226.5982 H   0  0  0  0  0  0  0  0  0  0  0  0
  138.4817   67.6684  224.4768 H   0  0  0  0  0  0  0  0  0  0  0  0
  140.2191   69.4338  223.1185 H   0  0  0  0  0  0  0  0  0  0  0  0
  138.6413   70.1074  223.7460 H   0  0  0  0  0  0  0  0  0  0  0  0
  139.2433   76.4430  220.0772 H   0  0  0  0  0  0  0  0  0  0  0  0
  138.3359   74.9919  220.6447 H   0  0  0  0  0  0  0  0  0  0  0  0
  137.2838   77.0741  221.5010 H   0  0  0  0  0  0  0  0  0  0  0  0
  137.9414   76.1108  222.8483 H   0  0  0  0  0  0  0  0  0  0  0  0
  137.5066   79.2863  222.4559 H   0  0  0  0  0  0  0  0  0  0  0  0
  139.0123   81.1763  223.0716 H   0  0  0  0  0  0  0  0  0  0  0  0
  141.4633   80.7067  223.2732 H   0  0  0  0  0  0  0  0  0  0  0  0
  142.3616   78.4450  222.8742 H   0  0  0  0  0  0  0  0  0  0  0  0
  141.9562   76.3866  221.6014 H   0  0  0  0  0  0  0  0  0  0  0  0
  141.2927   75.8327  223.2059 H   0  0  0  0  0  0  0  0  0  0  0  0
  1  2  1  0
  2  3  2  0
  2  4  1  0
  4  5  1  0
  5  6  1  0
  6  7  1  0
  7  8  2  0
  8  9  1  0
  9 10  2  0
 10 11  1  0
 11 12  1  0
 12 13  1  0
 13 14  1  0
 14 15  2  0
 15 16  1  0
 16 17  2  0
 17 18  1  0
 18 19  2  0
 19 20  1  0
 10 21  1  0
 21 22  2  0
 22 23  1  0
 23 24  1  0
 24 25  1  0
 25 26  1  0
 26 27  2  0
 27 28  1  0
 28 29  2  0
 29 30  1  0
 30 31  2  0
 31 32  1  0
 22  7  1  0
 32 23  1  0
 20 11  1  0
 31 26  1  0
 19 14  1  0
  1 33  1  0
  1 34  1  0
  4 35  1  0
  4 36  1  0
  5 37  1  0
  5 38  1  0
  6 39  1  0
  6 40  1  0
  8 41  1  0
 12 42  1  0
 12 43  1  0
 13 44  1  0
 13 45  1  0
 15 46  1  0
 16 47  1  0
 17 48  1  0
 18 49  1  0
 20 50  1  0
 20 51  1  0
 24 52  1  0
 24 53  1  0
 25 54  1  0
 25 55  1  0
 27 56  1  0
 28 57  1  0
 29 58  1  0
 30 59  1  0
 32 60  1  0
 32 61  1  0
M  END
>  <smiles>  (28) 
NC(=O)CCCc1cnc(N2CCc3ccccc3C2)nc1N1CCc2ccccc2C1

>  <score_type>  (28) 
oracle

>  <origin>  (28) 
autodockgpu

>  <m_score__min__energy>  (28) 
-9.2200000000000006

>  <m_primary>  (28) 
energy

>  <rmsd>  (28) 
3.8074533557131476

>  <m_score__min__rmsd>  (28) 
3.8074533557131476

>  <meeko>  (28) 
{"free_energy": -8.82, "intermolecular_energy": -10.61, "internal_energy": -1.33, "cluster_size": 27, "cluster_id": 1, "rank_in_cluster": 9}

>  <energy>  (28) 
-8.64

>  <cluster_rmsd>  (28) 
0.0

>  <cluster>  (28) 
2

$$$$

     RDKit          3D

 61 65  0  0  0  0  0  0  0  0999 V2000
  143.3180   77.1060  219.5380 N   0  0  0  0  0  0  0  0  0  0  0  0
  142.8470   75.8520  219.0020 C   0  0  0  0  0  0  0  0  0  0  0  0
  143.5010   74.8300  219.2980 O   0  0  0  0  0  0  0  0  0  0  0  0
  141.6420   75.8980  218.1570 C   0  0  0  0  0  0  0  0  0  0  0  0
  140.3440   75.9710  218.9190 C   0  0  0  0  0  0  0  0  0  0  0  0
  139.6060   74.6850  218.8010 C   0  0  0  0  0  0  0  0  0  0  0  0
  139.7410   73.8180  219.9980 C   0  0  0  0  0  0  0  0  0  0  0  0
  139.8860   72.4300  219.8820 C   0  0  0  0  0  0  0  0  0  0  0  0
  139.9930   71.6510  220.9620 N   0  0  0  0  0  0  0  0  0  0  0  0
  139.9660   72.1620  222.2240 C   0  0  0  0  0  0  0  0  0  0  0  0
  140.0790   71.3350  223.3740 N   0  0  0  0  0  0  0  0  0  0  0  0
  139.5970   69.9620  223.3690 C   0  0  0  0  0  0  0  0  0  0  0  0
  138.5870   69.8910  224.5150 C   0  0  0  0  0  0  0  0  0  0  0  0
  139.3500   70.2010  225.7660 C   0  0  0  0  0  0  0  0  0  0  0  0
  139.0030   69.4820  226.9110 C   0  0  0  0  0  0  0  0  0  0  0  0
  139.7090   69.7690  228.0640 C   0  0  0  0  0  0  0  0  0  0  0  0
  140.7110   70.7200  228.0930 C   0  0  0  0  0  0  0  0  0  0  0  0
  141.0450   71.4300  226.9360 C   0  0  0  0  0  0  0  0  0  0  0  0
  140.3460   71.1430  225.8010 C   0  0  0  0  0  0  0  0  0  0  0  0
  140.6840   71.8880  224.5520 C   0  0  0  0  0  0  0  0  0  0  0  0
  139.8280   73.4840  222.3580 N   0  0  0  0  0  0  0  0  0  0  0  0
  139.7150   74.3170  221.2790 C   0  0  0  0  0  0  0  0  0  0  0  0
  139.5880   75.6960  221.5910 N   0  0  0  0  0  0  0  0  0  0  0  0
  138.4050   76.4790  221.4450 C   0  0  0  0  0  0  0  0  0  0  0  0
  138.1080   77.2410  222.7400 C   0  0  0  0  0  0  0  0  0  0  0  0
  139.2690   78.1660  222.9990 C   0  0  0  0  0  0  0  0  0  0  0  0
  139.0770   79.4280  223.5330 C   0  0  0  0  0  0  0  0  0  0  0  0
  140.1430   80.2680  223.7630 C   0  0  0  0  0  0  0  0  0  0  0  0
  141.4090   79.7880  223.4350 C   0  0  0  0  0  0  0  0  0  0  0  0
  141.5900   78.5200  222.8990 C   0  0  0  0  0  0  0  0  0  0  0  0
  140.5080   77.6760  222.6680 C   0  0  0  0  0  0  0  0  0  0  0  0
  140.7840   76.3570  222.1030 C   0  0  0  0  0  0  0  0  0  0  0  0
  143.6610   77.0940  220.5250 H   0  0  0  0  0  0  0  0  0  0  0  0
  143.3180   77.9840  218.9740 H   0  0  0  0  0  0  0  0  0  0  0  0
  141.7103   76.7849  217.5099 H   0  0  0  0  0  0  0  0  0  0  0  0
  141.6201   74.9535  217.5935 H   0  0  0  0  0  0  0  0  0  0  0  0
  140.5560   76.1722  219.9794 H   0  0  0  0  0  0  0  0  0  0  0  0
  139.7265   76.7790  218.4996 H   0  0  0  0  0  0  0  0  0  0  0  0
  138.5394   74.9073  218.6495 H   0  0  0  0  0  0  0  0  0  0  0  0
  140.0402   74.1372  217.9517 H   0  0  0  0  0  0  0  0  0  0  0  0
  139.9123   71.9722  218.8821 H   0  0  0  0  0  0  0  0  0  0  0  0
  139.1110   69.7267  222.4106 H   0  0  0  0  0  0  0  0  0  0  0  0
  140.4149   69.2373  223.4946 H   0  0  0  0  0  0  0  0  0  0  0  0
  137.7865   70.6302  224.3638 H   0  0  0  0  0  0  0  0  0  0  0  0
  138.1133   68.8997  224.5703 H   0  0  0  0  0  0  0  0  0  0  0  0
  138.2063   68.7237  226.8964 H   0  0  0  0  0  0  0  0  0  0  0  0
  139.4656   69.2232  228.9875 H   0  0  0  0  0  0  0  0  0  0  0  0
  141.2488   70.9195  229.0316 H   0  0  0  0  0  0  0  0  0  0  0  0
  141.8402   72.1901  226.9411 H   0  0  0  0  0  0  0  0  0  0  0  0
  140.3424   72.9277  224.6635 H   0  0  0  0  0  0  0  0  0  0  0  0
  141.7737   71.8188  224.4189 H   0  0  0  0  0  0  0  0  0  0  0  0
  138.5451   77.1984  220.6248 H   0  0  0  0  0  0  0  0  0  0  0  0
  137.5598   75.8115  221.2210 H   0  0  0  0  0  0  0  0  0  0  0  0
  137.1815   77.8235  222.6287 H   0  0  0  0  0  0  0  0  0  0  0  0
  137.9758   76.5418  223.5788 H   0  0  0  0  0  0  0  0  0  0  0  0
  138.0586   79.7646  223.7771 H   0  0  0  0  0  0  0  0  0  0  0  0
  140.0016   81.2732  224.1868 H   0  0  0  0  0  0  0  0  0  0  0  0
  142.2866   80.4291  223.6048 H   0  0  0  0  0  0  0  0  0  0  0  0
  142.6057   78.1769  222.6529 H   0  0  0  0  0  0  0  0  0  0  0  0
  141.5018   76.4722  221.2775 H   0  0  0  0  0  0  0  0  0  0  0  0
  141.1868   75.7296  222.9118 H   0  0  0  0  0  0  0  0  0  0  0  0
  1  2  1  0
  2  3  2  0
  2  4  1  0
  4  5  1  0
  5  6  1  0
  6  7  1  0
  7  8  2  0
  8  9  1  0
  9 10  2  0
 10 11  1  0
 11 12  1  0
 12 13  1  0
 13 14  1  0
 14 15  2  0
 15 16  1  0
 16 17  2  0
 17 18  1  0
 18 19  2  0
 19 20  1  0
 10 21  1  0
 21 22  2  0
 22 23  1  0
 23 24  1  0
 24 25  1  0
 25 26  1  0
 26 27  2  0
 27 28  1  0
 28 29  2  0
 29 30  1  0
 30 31  2  0
 31 32  1  0
 22  7  1  0
 32 23  1  0
 20 11  1  0
 31 26  1  0
 19 14  1  0
  1 33  1  0
  1 34  1  0
  4 35  1  0
  4 36  1  0
  5 37  1  0
  5 38  1  0
  6 39  1  0
  6 40  1  0
  8 41  1  0
 12 42  1  0
 12 43  1  0
 13 44  1  0
 13 45  1  0
 15 46  1  0
 16 47  1  0
 17 48  1  0
 18 49  1  0
 20 50  1  0
 20 51  1  0
 24 52  1  0
 24 53  1  0
 25 54  1  0
 25 55  1  0
 27 56  1  0
 28 57  1  0
 29 58  1  0
 30 59  1  0
 32 60  1  0
 32 61  1  0
M  END
>  <smiles>  (29) 
NC(=O)CCCc1cnc(N2CCc3ccccc3C2)nc1N1CCc2ccccc2C1

>  <score_type>  (29) 
oracle

>  <origin>  (29) 
autodockgpu

>  <m_score__min__energy>  (29) 
-9.2200000000000006

>  <m_primary>  (29) 
energy

>  <rmsd>  (29) 
3.45144823138595

>  <m_score__min__rmsd>  (29) 
3.45144823138595

>  <meeko>  (29) 
{"free_energy": -8.71, "intermolecular_energy": -10.5, "internal_energy": -1.33, "cluster_size": 27, "cluster_id": 1, "rank_in_cluster": 16}

>  <energy>  (29) 
-8.58

>  <cluster_rmsd>  (29) 
0.58

>  <cluster>  (29) 
2

$$$$

     RDKit          3D

 61 65  0  0  0  0  0  0  0  0999 V2000
  143.8920   76.3640  219.6190 N   0  0  0  0  0  0  0  0  0  0  0  0
  143.0340   75.2180  219.7900 C   0  0  0  0  0  0  0  0  0  0  0  0
  143.1240   74.6020  220.8730 O   0  0  0  0  0  0  0  0  0  0  0  0
  142.1340   74.8840  218.6730 C   0  0  0  0  0  0  0  0  0  0  0  0
  140.8420   75.6580  218.6550 C   0  0  0  0  0  0  0  0  0  0  0  0
  139.6880   74.7360  218.8260 C   0  0  0  0  0  0  0  0  0  0  0  0
  139.8070   73.8600  220.0180 C   0  0  0  0  0  0  0  0  0  0  0  0
  139.9350   72.4710  219.8950 C   0  0  0  0  0  0  0  0  0  0  0  0
  140.0290   71.6840  220.9700 N   0  0  0  0  0  0  0  0  0  0  0  0
  140.0020   72.1880  222.2360 C   0  0  0  0  0  0  0  0  0  0  0  0
  140.1000   71.3530  223.3810 N   0  0  0  0  0  0  0  0  0  0  0  0
  139.5860   69.9910  223.3710 C   0  0  0  0  0  0  0  0  0  0  0  0
  138.5780   69.9380  224.5210 C   0  0  0  0  0  0  0  0  0  0  0  0
  139.3530   70.2240  225.7700 C   0  0  0  0  0  0  0  0  0  0  0  0
  138.9930   69.5080  226.9130 C   0  0  0  0  0  0  0  0  0  0  0  0
  139.7100   69.7730  228.0640 C   0  0  0  0  0  0  0  0  0  0  0  0
  140.7350   70.6990  228.0940 C   0  0  0  0  0  0  0  0  0  0  0  0
  141.0810   71.4070  226.9400 C   0  0  0  0  0  0  0  0  0  0  0  0
  140.3710   71.1420  225.8060 C   0  0  0  0  0  0  0  0  0  0  0  0
  140.7220   71.8850  224.5590 C   0  0  0  0  0  0  0  0  0  0  0  0
  139.8800   73.5100  222.3770 N   0  0  0  0  0  0  0  0  0  0  0  0
  139.7820   74.3520  221.3020 C   0  0  0  0  0  0  0  0  0  0  0  0
  139.6700   75.7300  221.6220 N   0  0  0  0  0  0  0  0  0  0  0  0
  138.4970   76.5270  221.4790 C   0  0  0  0  0  0  0  0  0  0  0  0
  138.2060   77.2860  222.7770 C   0  0  0  0  0  0  0  0  0  0  0  0
  139.3780   78.1960  223.0430 C   0  0  0  0  0  0  0  0  0  0  0  0
  139.2000   79.4560  223.5840 C   0  0  0  0  0  0  0  0  0  0  0  0
  140.2750   80.2830  223.8210 C   0  0  0  0  0  0  0  0  0  0  0  0
  141.5360   79.7900  223.4930 C   0  0  0  0  0  0  0  0  0  0  0  0
  141.7020   78.5230  222.9500 C   0  0  0  0  0  0  0  0  0  0  0  0
  140.6110   77.6930  222.7120 C   0  0  0  0  0  0  0  0  0  0  0  0
  140.8730   76.3740  222.1400 C   0  0  0  0  0  0  0  0  0  0  0  0
  144.0170   76.9850  220.4500 H   0  0  0  0  0  0  0  0  0  0  0  0
  144.3670   76.5690  218.7120 H   0  0  0  0  0  0  0  0  0  0  0  0
  142.6668   75.0840  217.7317 H   0  0  0  0  0  0  0  0  0  0  0  0
  141.8614   73.8257  218.7984 H   0  0  0  0  0  0  0  0  0  0  0  0
  140.8461   76.3908  219.4753 H   0  0  0  0  0  0  0  0  0  0  0  0
  140.7474   76.1757  217.6890 H   0  0  0  0  0  0  0  0  0  0  0  0
  138.7724   75.3376  218.9250 H   0  0  0  0  0  0  0  0  0  0  0  0
  139.6609   74.0813  217.9425 H   0  0  0  0  0  0  0  0  0  0  0  0
  139.9586   72.0188  218.8925 H   0  0  0  0  0  0  0  0  0  0  0  0
  139.0914   69.7717  222.4133 H   0  0  0  0  0  0  0  0  0  0  0  0
  140.3872   69.2468  223.4901 H   0  0  0  0  0  0  0  0  0  0  0  0
  137.7945   70.6964  224.3764 H   0  0  0  0  0  0  0  0  0  0  0  0
  138.0811   68.9580  224.5734 H   0  0  0  0  0  0  0  0  0  0  0  0
  138.1784   68.7690  226.8981 H   0  0  0  0  0  0  0  0  0  0  0  0
  139.4566   69.2293  228.9860 H   0  0  0  0  0  0  0  0  0  0  0  0
  141.2816   70.8799  229.0313 H   0  0  0  0  0  0  0  0  0  0  0  0
  141.8935   72.1485  226.9459 H   0  0  0  0  0  0  0  0  0  0  0  0
  140.4058   72.9319  224.6770 H   0  0  0  0  0  0  0  0  0  0  0  0
  141.8092   71.7902  224.4214 H   0  0  0  0  0  0  0  0  0  0  0  0
  138.6466   77.2490  220.6627 H   0  0  0  0  0  0  0  0  0  0  0  0
  137.6447   75.8700  221.2510 H   0  0  0  0  0  0  0  0  0  0  0  0
  137.2869   77.8801  222.6665 H   0  0  0  0  0  0  0  0  0  0  0  0
  138.0632   76.5844  223.6121 H   0  0  0  0  0  0  0  0  0  0  0  0
  138.1851   79.8026  223.8285 H   0  0  0  0  0  0  0  0  0  0  0  0
  140.1441   81.2874  224.2499 H   0  0  0  0  0  0  0  0  0  0  0  0
  142.4210   80.4193  223.6683 H   0  0  0  0  0  0  0  0  0  0  0  0
  142.7140   78.1691  222.7036 H   0  0  0  0  0  0  0  0  0  0  0  0
  141.5937   76.4855  221.3165 H   0  0  0  0  0  0  0  0  0  0  0  0
  141.2672   75.7373  222.9458 H   0  0  0  0  0  0  0  0  0  0  0  0
  1  2  1  0
  2  3  2  0
  2  4  1  0
  4  5  1  0
  5  6  1  0
  6  7  1  0
  7  8  2  0
  8  9  1  0
  9 10  2  0
 10 11  1  0
 11 12  1  0
 12 13  1  0
 13 14  1  0
 14 15  2  0
 15 16  1  0
 16 17  2  0
 17 18  1  0
 18 19  2  0
 19 20  1  0
 10 21  1  0
 21 22  2  0
 22 23  1  0
 23 24  1  0
 24 25  1  0
 25 26  1  0
 26 27  2  0
 27 28  1  0
 28 29  2  0
 29 30  1  0
 30 31  2  0
 31 32  1  0
 22  7  1  0
 32 23  1  0
 20 11  1  0
 31 26  1  0
 19 14  1  0
  1 33  1  0
  1 34  1  0
  4 35  1  0
  4 36  1  0
  5 37  1  0
  5 38  1  0
  6 39  1  0
  6 40  1  0
  8 41  1  0
 12 42  1  0
 12 43  1  0
 13 44  1  0
 13 45  1  0
 15 46  1  0
 16 47  1  0
 17 48  1  0
 18 49  1  0
 20 50  1  0
 20 51  1  0
 24 52  1  0
 24 53  1  0
 25 54  1  0
 25 55  1  0
 27 56  1  0
 28 57  1  0
 29 58  1  0
 30 59  1  0
 32 60  1  0
 32 61  1  0
M  END
>  <smiles>  (30) 
NC(=O)CCCc1cnc(N2CCc3ccccc3C2)nc1N1CCc2ccccc2C1

>  <score_type>  (30) 
oracle

>  <origin>  (30) 
autodockgpu

>  <m_score__min__energy>  (30) 
-9.2200000000000006

>  <m_primary>  (30) 
energy

>  <rmsd>  (30) 
3.45203114747559

>  <m_score__min__rmsd>  (30) 
3.45203114747559

>  <meeko>  (30) 
{"free_energy": -8.73, "intermolecular_energy": -10.52, "internal_energy": -1.66, "cluster_size": 27, "cluster_id": 1, "rank_in_cluster": 14}

>  <energy>  (30) 
-8.57

>  <cluster_rmsd>  (30) 
0.63

>  <cluster>  (30) 
2

$$$$

     RDKit          3D

 61 65  0  0  0  0  0  0  0  0999 V2000
  144.7880   73.6010  220.8870 N   0  0  0  0  0  0  0  0  0  0  0  0
  145.0790   72.6590  219.8330 C   0  0  0  0  0  0  0  0  0  0  0  0
  146.2290   72.6930  219.3480 O   0  0  0  0  0  0  0  0  0  0  0  0
  143.9920   71.7490  219.4320 C   0  0  0  0  0  0  0  0  0  0  0  0
  143.1750   71.2060  220.5750 C   0  0  0  0  0  0  0  0  0  0  0  0
  141.7380   71.5400  220.3840 C   0  0  0  0  0  0  0  0  0  0  0  0
  141.3880   72.9110  220.8350 C   0  0  0  0  0  0  0  0  0  0  0  0
  141.8440   74.0440  220.1500 C   0  0  0  0  0  0  0  0  0  0  0  0
  141.5390   75.2760  220.5660 N   0  0  0  0  0  0  0  0  0  0  0  0
  140.7740   75.4940  221.6720 C   0  0  0  0  0  0  0  0  0  0  0  0
  140.4480   76.8030  222.1170 N   0  0  0  0  0  0  0  0  0  0  0  0
  139.1810   77.4280  221.7670 C   0  0  0  0  0  0  0  0  0  0  0  0
  139.5630   78.7290  221.0570 C   0  0  0  0  0  0  0  0  0  0  0  0
  140.3210   79.5450  222.0570 C   0  0  0  0  0  0  0  0  0  0  0  0
  140.0970   80.9230  222.0460 C   0  0  0  0  0  0  0  0  0  0  0  0
  140.7970   81.6750  222.9710 C   0  0  0  0  0  0  0  0  0  0  0  0
  141.6780   81.1000  223.8680 C   0  0  0  0  0  0  0  0  0  0  0  0
  141.8900   79.7190  223.8640 C   0  0  0  0  0  0  0  0  0  0  0  0
  141.1960   78.9810  222.9500 C   0  0  0  0  0  0  0  0  0  0  0  0
  141.4040   77.5030  222.9270 C   0  0  0  0  0  0  0  0  0  0  0  0
  140.3280   74.4270  222.3410 N   0  0  0  0  0  0  0  0  0  0  0  0
  140.6170   73.1480  221.9480 C   0  0  0  0  0  0  0  0  0  0  0  0
  140.0570   72.1260  222.7590 N   0  0  0  0  0  0  0  0  0  0  0  0
  138.9310   71.3180  222.4230 C   0  0  0  0  0  0  0  0  0  0  0  0
  139.2600   69.8360  222.6230 C   0  0  0  0  0  0  0  0  0  0  0  0
  139.5800   69.6350  224.0820 C   0  0  0  0  0  0  0  0  0  0  0  0
  139.1950   68.4860  224.7500 C   0  0  0  0  0  0  0  0  0  0  0  0
  139.4880   68.3120  226.0840 C   0  0  0  0  0  0  0  0  0  0  0  0
  140.1830   69.3390  226.7190 C   0  0  0  0  0  0  0  0  0  0  0  0
  140.5630   70.4880  226.0380 C   0  0  0  0  0  0  0  0  0  0  0  0
  140.2630   70.6580  224.6900 C   0  0  0  0  0  0  0  0  0  0  0  0
  140.7010   71.8960  224.0470 C   0  0  0  0  0  0  0  0  0  0  0  0
  145.5410   73.7620  221.5920 H   0  0  0  0  0  0  0  0  0  0  0  0
  143.8730   74.0990  220.9460 H   0  0  0  0  0  0  0  0  0  0  0  0
  143.3172   72.2967  218.7578 H   0  0  0  0  0  0  0  0  0  0  0  0
  144.4715   70.8829  218.9525 H   0  0  0  0  0  0  0  0  0  0  0  0
  143.2914   70.1130  220.6177 H   0  0  0  0  0  0  0  0  0  0  0  0
  143.5267   71.6582  221.5140 H   0  0  0  0  0  0  0  0  0  0  0  0
  141.4987   71.4528  219.3139 H   0  0  0  0  0  0  0  0  0  0  0  0
  141.1560   70.8368  220.9979 H   0  0  0  0  0  0  0  0  0  0  0  0
  142.4657   73.9168  219.2515 H   0  0  0  0  0  0  0  0  0  0  0  0
  138.6014   76.7772  221.0958 H   0  0  0  0  0  0  0  0  0  0  0  0
  138.5520   77.6094  222.6510 H   0  0  0  0  0  0  0  0  0  0  0  0
  140.1950   78.5146  220.1826 H   0  0  0  0  0  0  0  0  0  0  0  0
  138.6725   79.2644  220.6960 H   0  0  0  0  0  0  0  0  0  0  0  0
  139.3974   81.3878  221.3357 H   0  0  0  0  0  0  0  0  0  0  0  0
  140.6484   82.7647  222.9940 H   0  0  0  0  0  0  0  0  0  0  0  0
  142.2152   81.7335  224.5891 H   0  0  0  0  0  0  0  0  0  0  0  0
  142.5886   79.2456  224.5696 H   0  0  0  0  0  0  0  0  0  0  0  0
  142.4104   77.2991  222.5325 H   0  0  0  0  0  0  0  0  0  0  0  0
  141.2796   77.1426  223.9588 H   0  0  0  0  0  0  0  0  0  0  0  0
  138.0830   71.5915  223.0681 H   0  0  0  0  0  0  0  0  0  0  0  0
  138.6722   71.4872  221.3674 H   0  0  0  0  0  0  0  0  0  0  0  0
  138.3953   69.2179  222.3397 H   0  0  0  0  0  0  0  0  0  0  0  0
  140.1137   69.5409  221.9952 H   0  0  0  0  0  0  0  0  0  0  0  0
  138.6474   67.7010  224.2079 H   0  0  0  0  0  0  0  0  0  0  0  0
  139.1867   67.4025  226.6244 H   0  0  0  0  0  0  0  0  0  0  0  0
  140.4366   69.2374  227.7845 H   0  0  0  0  0  0  0  0  0  0  0  0
  141.1107   71.2775  226.5735 H   0  0  0  0  0  0  0  0  0  0  0  0
  140.4654   72.7395  224.7126 H   0  0  0  0  0  0  0  0  0  0  0  0
  141.7821   71.8080  223.8641 H   0  0  0  0  0  0  0  0  0  0  0  0
  1  2  1  0
  2  3  2  0
  2  4  1  0
  4  5  1  0
  5  6  1  0
  6  7  1  0
  7  8  2  0
  8  9  1  0
  9 10  2  0
 10 11  1  0
 11 12  1  0
 12 13  1  0
 13 14  1  0
 14 15  2  0
 15 16  1  0
 16 17  2  0
 17 18  1  0
 18 19  2  0
 19 20  1  0
 10 21  1  0
 21 22  2  0
 22 23  1  0
 23 24  1  0
 24 25  1  0
 25 26  1  0
 26 27  2  0
 27 28  1  0
 28 29  2  0
 29 30  1  0
 30 31  2  0
 31 32  1  0
 22  7  1  0
 32 23  1  0
 20 11  1  0
 31 26  1  0
 19 14  1  0
  1 33  1  0
  1 34  1  0
  4 35  1  0
  4 36  1  0
  5 37  1  0
  5 38  1  0
  6 39  1  0
  6 40  1  0
  8 41  1  0
 12 42  1  0
 12 43  1  0
 13 44  1  0
 13 45  1  0
 15 46  1  0
 16 47  1  0
 17 48  1  0
 18 49  1  0
 20 50  1  0
 20 51  1  0
 24 52  1  0
 24 53  1  0
 25 54  1  0
 25 55  1  0
 27 56  1  0
 28 57  1  0
 29 58  1  0
 30 59  1  0
 32 60  1  0
 32 61  1  0
M  END
>  <smiles>  (31) 
NC(=O)CCCc1cnc(N2CCc3ccccc3C2)nc1N1CCc2ccccc2C1

>  <score_type>  (31) 
oracle

>  <origin>  (31) 
autodockgpu

>  <m_score__min__energy>  (31) 
-9.2200000000000006

>  <m_primary>  (31) 
energy

>  <rmsd>  (31) 
9.962171782009003

>  <m_score__min__rmsd>  (31) 
9.962171782009003

>  <meeko>  (31) 
{"free_energy": -8.57, "intermolecular_energy": -10.36, "internal_energy": -1.28, "cluster_size": 27, "cluster_id": 1, "rank_in_cluster": 22}

>  <energy>  (31) 
-8.52

>  <cluster_rmsd>  (31) 
0.63

>  <cluster>  (31) 
2

$$$$

     RDKit          3D

 61 65  0  0  0  0  0  0  0  0999 V2000
  143.3790   76.7240  219.8630 N   0  0  0  0  0  0  0  0  0  0  0  0
  142.8770   75.7830  218.8920 C   0  0  0  0  0  0  0  0  0  0  0  0
  143.5340   74.7330  218.7310 O   0  0  0  0  0  0  0  0  0  0  0  0
  141.6390   76.1510  218.1840 C   0  0  0  0  0  0  0  0  0  0  0  0
  140.3840   76.0290  219.0100 C   0  0  0  0  0  0  0  0  0  0  0  0
  139.7700   74.6880  218.8160 C   0  0  0  0  0  0  0  0  0  0  0  0
  139.8690   73.8180  220.0150 C   0  0  0  0  0  0  0  0  0  0  0  0
  140.0280   72.4310  219.9010 C   0  0  0  0  0  0  0  0  0  0  0  0
  140.1030   71.6500  220.9810 N   0  0  0  0  0  0  0  0  0  0  0  0
  140.0280   72.1570  222.2440 C   0  0  0  0  0  0  0  0  0  0  0  0
  140.1060   71.3270  223.3950 N   0  0  0  0  0  0  0  0  0  0  0  0
  139.6170   69.9570  223.3740 C   0  0  0  0  0  0  0  0  0  0  0  0
  138.5770   69.8900  224.4940 C   0  0  0  0  0  0  0  0  0  0  0  0
  139.3080   70.1930  225.7640 C   0  0  0  0  0  0  0  0  0  0  0  0
  138.9280   69.4740  226.8980 C   0  0  0  0  0  0  0  0  0  0  0  0
  139.6050   69.7560  228.0700 C   0  0  0  0  0  0  0  0  0  0  0  0
  140.6110   70.7010  228.1270 C   0  0  0  0  0  0  0  0  0  0  0  0
  140.9790   71.4110  226.9810 C   0  0  0  0  0  0  0  0  0  0  0  0
  140.3080   71.1300  225.8270 C   0  0  0  0  0  0  0  0  0  0  0  0
  140.6840   71.8750  224.5890 C   0  0  0  0  0  0  0  0  0  0  0  0
  139.8760   73.4770  222.3760 N   0  0  0  0  0  0  0  0  0  0  0  0
  139.7960   74.3130  221.2960 C   0  0  0  0  0  0  0  0  0  0  0  0
  139.6480   75.6900  221.6070 N   0  0  0  0  0  0  0  0  0  0  0  0
  138.4590   76.4600  221.4440 C   0  0  0  0  0  0  0  0  0  0  0  0
  138.1340   77.2180  222.7350 C   0  0  0  0  0  0  0  0  0  0  0  0
  139.2810   78.1550  223.0120 C   0  0  0  0  0  0  0  0  0  0  0  0
  139.0670   79.4140  223.5440 C   0  0  0  0  0  0  0  0  0  0  0  0
  140.1200   80.2660  223.7900 C   0  0  0  0  0  0  0  0  0  0  0  0
  141.3960   79.8010  223.4810 C   0  0  0  0  0  0  0  0  0  0  0  0
  141.5980   78.5350  222.9470 C   0  0  0  0  0  0  0  0  0  0  0  0
  140.5300   77.6800  222.6990 C   0  0  0  0  0  0  0  0  0  0  0  0
  140.8290   76.3640  222.1370 C   0  0  0  0  0  0  0  0  0  0  0  0
  143.7620   76.3240  220.7490 H   0  0  0  0  0  0  0  0  0  0  0  0
  143.3630   77.7540  219.6940 H   0  0  0  0  0  0  0  0  0  0  0  0
  141.7311   77.1957  217.8521 H   0  0  0  0  0  0  0  0  0  0  0  0
  141.5338   75.4412  217.3503 H   0  0  0  0  0  0  0  0  0  0  0  0
  140.6338   76.1640  220.0727 H   0  0  0  0  0  0  0  0  0  0  0  0
  139.6681   76.8011  218.6916 H   0  0  0  0  0  0  0  0  0  0  0  0
  138.7065   74.8232  218.5695 H   0  0  0  0  0  0  0  0  0  0  0  0
  140.3231   74.1904  218.0057 H   0  0  0  0  0  0  0  0  0  0  0  0
  140.0924   71.9762  218.9015 H   0  0  0  0  0  0  0  0  0  0  0  0
  139.1546   69.7265  222.4029 H   0  0  0  0  0  0  0  0  0  0  0  0
  140.4272   69.2271  223.5185 H   0  0  0  0  0  0  0  0  0  0  0  0
  137.7850   70.6341  224.3235 H   0  0  0  0  0  0  0  0  0  0  0  0
  138.0966   68.9013  224.5351 H   0  0  0  0  0  0  0  0  0  0  0  0
  138.1285   68.7194  226.8612 H   0  0  0  0  0  0  0  0  0  0  0  0
  139.3340   69.2106  228.9861 H   0  0  0  0  0  0  0  0  0  0  0  0
  141.1252   70.8957  229.0797 H   0  0  0  0  0  0  0  0  0  0  0  0
  141.7780   72.1665  227.0084 H   0  0  0  0  0  0  0  0  0  0  0  0
  140.3465   72.9167  224.6932 H   0  0  0  0  0  0  0  0  0  0  0  0
  141.7764   71.7997  224.4845 H   0  0  0  0  0  0  0  0  0  0  0  0
  138.6034   77.1815  220.6263 H   0  0  0  0  0  0  0  0  0  0  0  0
  137.6247   75.7833  221.2072 H   0  0  0  0  0  0  0  0  0  0  0  0
  137.2032   77.7907  222.6099 H   0  0  0  0  0  0  0  0  0  0  0  0
  137.9963   76.5169  223.5713 H   0  0  0  0  0  0  0  0  0  0  0  0
  138.0414   79.7387  223.7736 H   0  0  0  0  0  0  0  0  0  0  0  0
  139.9607   81.2693  224.2118 H   0  0  0  0  0  0  0  0  0  0  0  0
  142.2639   80.4516  223.6642 H   0  0  0  0  0  0  0  0  0  0  0  0
  142.6209   78.2028  222.7162 H   0  0  0  0  0  0  0  0  0  0  0  0
  141.5575   76.4878  221.3222 H   0  0  0  0  0  0  0  0  0  0  0  0
  141.2268   75.7405  222.9512 H   0  0  0  0  0  0  0  0  0  0  0  0
  1  2  1  0
  2  3  2  0
  2  4  1  0
  4  5  1  0
  5  6  1  0
  6  7  1  0
  7  8  2  0
  8  9  1  0
  9 10  2  0
 10 11  1  0
 11 12  1  0
 12 13  1  0
 13 14  1  0
 14 15  2  0
 15 16  1  0
 16 17  2  0
 17 18  1  0
 18 19  2  0
 19 20  1  0
 10 21  1  0
 21 22  2  0
 22 23  1  0
 23 24  1  0
 24 25  1  0
 25 26  1  0
 26 27  2  0
 27 28  1  0
 28 29  2  0
 29 30  1  0
 30 31  2  0
 31 32  1  0
 22  7  1  0
 32 23  1  0
 20 11  1  0
 31 26  1  0
 19 14  1  0
  1 33  1  0
  1 34  1  0
  4 35  1  0
  4 36  1  0
  5 37  1  0
  5 38  1  0
  6 39  1  0
  6 40  1  0
  8 41  1  0
 12 42  1  0
 12 43  1  0
 13 44  1  0
 13 45  1  0
 15 46  1  0
 16 47  1  0
 17 48  1  0
 18 49  1  0
 20 50  1  0
 20 51  1  0
 24 52  1  0
 24 53  1  0
 25 54  1  0
 25 55  1  0
 27 56  1  0
 28 57  1  0
 29 58  1  0
 30 59  1  0
 32 60  1  0
 32 61  1  0
M  END
>  <smiles>  (32) 
NC(=O)CCCc1cnc(N2CCc3ccccc3C2)nc1N1CCc2ccccc2C1

>  <score_type>  (32) 
oracle

>  <origin>  (32) 
autodockgpu

>  <m_score__min__energy>  (32) 
-9.2200000000000006

>  <m_primary>  (32) 
energy

>  <rmsd>  (32) 
3.469497020410131

>  <m_score__min__rmsd>  (32) 
3.469497020410131

>  <meeko>  (32) 
{"free_energy": -8.56, "intermolecular_energy": -10.35, "internal_energy": -1.2, "cluster_size": 27, "cluster_id": 1, "rank_in_cluster": 23}

>  <energy>  (32) 
-8.49

>  <cluster_rmsd>  (32) 
0.68

>  <cluster>  (32) 
2

$$$$

     RDKit          3D

 61 65  0  0  0  0  0  0  0  0999 V2000
  144.3830   74.4940  218.2750 N   0  0  0  0  0  0  0  0  0  0  0  0
  143.8300   74.7660  219.5790 C   0  0  0  0  0  0  0  0  0  0  0  0
  144.0830   73.9420  220.4830 O   0  0  0  0  0  0  0  0  0  0  0  0
  143.0220   75.9890  219.7200 C   0  0  0  0  0  0  0  0  0  0  0  0
  141.5430   75.7920  219.5040 C   0  0  0  0  0  0  0  0  0  0  0  0
  141.2470   74.3550  219.2590 C   0  0  0  0  0  0  0  0  0  0  0  0
  141.0050   73.5840  220.5050 C   0  0  0  0  0  0  0  0  0  0  0  0
  141.4200   72.2520  220.6330 C   0  0  0  0  0  0  0  0  0  0  0  0
  141.1890   71.5580  221.7490 N   0  0  0  0  0  0  0  0  0  0  0  0
  140.5400   72.1030  222.8160 C   0  0  0  0  0  0  0  0  0  0  0  0
  140.2920   71.3660  224.0050 N   0  0  0  0  0  0  0  0  0  0  0  0
  140.7000   71.8710  225.3070 C   0  0  0  0  0  0  0  0  0  0  0  0
  141.6100   70.7860  225.8860 C   0  0  0  0  0  0  0  0  0  0  0  0
  140.7660   69.5560  226.0140 C   0  0  0  0  0  0  0  0  0  0  0  0
  140.9820   68.7560  227.1370 C   0  0  0  0  0  0  0  0  0  0  0  0
  140.2020   67.6210  227.2530 C   0  0  0  0  0  0  0  0  0  0  0  0
  139.2500   67.2860  226.3090 C   0  0  0  0  0  0  0  0  0  0  0  0
  139.0480   68.0980  225.1890 C   0  0  0  0  0  0  0  0  0  0  0  0
  139.8210   69.2160  225.0800 C   0  0  0  0  0  0  0  0  0  0  0  0
  139.6230   70.1010  223.8930 C   0  0  0  0  0  0  0  0  0  0  0  0
  140.1360   73.3730  222.7160 N   0  0  0  0  0  0  0  0  0  0  0  0
  140.3530   74.1200  221.5900 C   0  0  0  0  0  0  0  0  0  0  0  0
  139.8730   75.4540  221.6490 N   0  0  0  0  0  0  0  0  0  0  0  0
  138.6540   75.9280  221.0800 C   0  0  0  0  0  0  0  0  0  0  0  0
  137.8490   76.7110  222.1210 C   0  0  0  0  0  0  0  0  0  0  0  0
  138.6800   77.8980  222.5370 C   0  0  0  0  0  0  0  0  0  0  0  0
  138.0970   79.1230  222.8070 C   0  0  0  0  0  0  0  0  0  0  0  0
  138.8640   80.2030  223.1840 C   0  0  0  0  0  0  0  0  0  0  0  0
  140.2390   80.0010  223.2780 C   0  0  0  0  0  0  0  0  0  0  0  0
  140.8120   78.7660  223.0040 C   0  0  0  0  0  0  0  0  0  0  0  0
  140.0320   77.6790  222.6230 C   0  0  0  0  0  0  0  0  0  0  0  0
  140.7140   76.4140  222.3540 C   0  0  0  0  0  0  0  0  0  0  0  0
  145.3590   74.1210  218.2470 H   0  0  0  0  0  0  0  0  0  0  0  0
  143.8400   74.6580  217.3990 H   0  0  0  0  0  0  0  0  0  0  0  0
  143.1709   76.3834  220.7360 H   0  0  0  0  0  0  0  0  0  0  0  0
  143.3626   76.6801  218.9349 H   0  0  0  0  0  0  0  0  0  0  0  0
  140.9972   76.1282  220.3979 H   0  0  0  0  0  0  0  0  0  0  0  0
  141.2267   76.3781  218.6285 H   0  0  0  0  0  0  0  0  0  0  0  0
  140.3498   74.2864  218.6262 H   0  0  0  0  0  0  0  0  0  0  0  0
  142.1319   73.9186  218.7727 H   0  0  0  0  0  0  0  0  0  0  0  0
  141.9467   71.7687  219.7969 H   0  0  0  0  0  0  0  0  0  0  0  0
  141.2483   72.8185  225.1995 H   0  0  0  0  0  0  0  0  0  0  0  0
  139.8380   72.0777  225.9583 H   0  0  0  0  0  0  0  0  0  0  0  0
  142.4571   70.5983  225.2099 H   0  0  0  0  0  0  0  0  0  0  0  0
  142.0260   71.0891  226.8581 H   0  0  0  0  0  0  0  0  0  0  0  0
  141.7369   69.0163  227.8935 H   0  0  0  0  0  0  0  0  0  0  0  0
  140.3434   66.9639  228.1238 H   0  0  0  0  0  0  0  0  0  0  0  0
  138.6475   66.3750  226.4396 H   0  0  0  0  0  0  0  0  0  0  0  0
  138.2962   67.8453  224.4268 H   0  0  0  0  0  0  0  0  0  0  0  0
  140.0074   69.5812  223.0030 H   0  0  0  0  0  0  0  0  0  0  0  0
  138.5454   70.3097  223.8208 H   0  0  0  0  0  0  0  0  0  0  0  0
  138.8829   76.5860  220.2287 H   0  0  0  0  0  0  0  0  0  0  0  0
  138.0589   75.0668  220.7422 H   0  0  0  0  0  0  0  0  0  0  0  0
  136.8996   77.0523  221.6826 H   0  0  0  0  0  0  0  0  0  0  0  0
  137.6176   76.0765  222.9893 H   0  0  0  0  0  0  0  0  0  0  0  0
  137.0063   79.2361  222.7195 H   0  0  0  0  0  0  0  0  0  0  0  0
  138.4109   81.1815  223.4012 H   0  0  0  0  0  0  0  0  0  0  0  0
  140.8860   80.8391  223.5762 H   0  0  0  0  0  0  0  0  0  0  0  0
  141.9020   78.6452  223.0898 H   0  0  0  0  0  0  0  0  0  0  0  0
  141.6035   76.6186  221.7400 H   0  0  0  0  0  0  0  0  0  0  0  0
  140.9795   75.9696  223.3246 H   0  0  0  0  0  0  0  0  0  0  0  0
  1  2  1  0
  2  3  2  0
  2  4  1  0
  4  5  1  0
  5  6  1  0
  6  7  1  0
  7  8  2  0
  8  9  1  0
  9 10  2  0
 10 11  1  0
 11 12  1  0
 12 13  1  0
 13 14  1  0
 14 15  2  0
 15 16  1  0
 16 17  2  0
 17 18  1  0
 18 19  2  0
 19 20  1  0
 10 21  1  0
 21 22  2  0
 22 23  1  0
 23 24  1  0
 24 25  1  0
 25 26  1  0
 26 27  2  0
 27 28  1  0
 28 29  2  0
 29 30  1  0
 30 31  2  0
 31 32  1  0
 22  7  1  0
 32 23  1  0
 20 11  1  0
 31 26  1  0
 19 14  1  0
  1 33  1  0
  1 34  1  0
  4 35  1  0
  4 36  1  0
  5 37  1  0
  5 38  1  0
  6 39  1  0
  6 40  1  0
  8 41  1  0
 12 42  1  0
 12 43  1  0
 13 44  1  0
 13 45  1  0
 15 46  1  0
 16 47  1  0
 17 48  1  0
 18 49  1  0
 20 50  1  0
 20 51  1  0
 24 52  1  0
 24 53  1  0
 25 54  1  0
 25 55  1  0
 27 56  1  0
 28 57  1  0
 29 58  1  0
 30 59  1  0
 32 60  1  0
 32 61  1  0
M  END
>  <smiles>  (33) 
NC(=O)CCCc1cnc(N2CCc3ccccc3C2)nc1N1CCc2ccccc2C1

>  <score_type>  (33) 
oracle

>  <origin>  (33) 
autodockgpu

>  <m_score__min__energy>  (33) 
-9.2200000000000006

>  <m_primary>  (33) 
energy

>  <rmsd>  (33) 
3.66308435758112

>  <m_score__min__rmsd>  (33) 
3.66308435758112

>  <meeko>  (33) 
{"free_energy": -8.4, "intermolecular_energy": -10.19, "internal_energy": -1.13, "cluster_size": 27, "cluster_id": 1, "rank_in_cluster": 26}

>  <energy>  (33) 
-8.49

>  <cluster_rmsd>  (33) 
0.62

>  <cluster>  (33) 
2

$$$$

     RDKit          3D

 61 65  0  0  0  0  0  0  0  0999 V2000
  141.0860   72.8360  219.4970 N   0  0  0  0  0  0  0  0  0  0  0  0
  141.1700   73.8840  218.5090 C   0  0  0  0  0  0  0  0  0  0  0  0
  142.3130   74.2880  218.2110 O   0  0  0  0  0  0  0  0  0  0  0  0
  139.9000   74.3760  217.9480 C   0  0  0  0  0  0  0  0  0  0  0  0
  139.4720   75.7280  218.4570 C   0  0  0  0  0  0  0  0  0  0  0  0
  138.4880   75.5730  219.5620 C   0  0  0  0  0  0  0  0  0  0  0  0
  138.8520   74.5060  220.5270 C   0  0  0  0  0  0  0  0  0  0  0  0
  138.1770   73.2790  220.5500 C   0  0  0  0  0  0  0  0  0  0  0  0
  138.4980   72.3260  221.4290 N   0  0  0  0  0  0  0  0  0  0  0  0
  139.4910   72.4970  222.3450 C   0  0  0  0  0  0  0  0  0  0  0  0
  139.8340   71.4850  223.2820 N   0  0  0  0  0  0  0  0  0  0  0  0
  139.5580   70.0810  223.0140 C   0  0  0  0  0  0  0  0  0  0  0  0
  138.6840   69.6180  224.1810 C   0  0  0  0  0  0  0  0  0  0  0  0
  139.5110   69.7890  225.4170 C   0  0  0  0  0  0  0  0  0  0  0  0
  139.3840   68.8080  226.4020 C   0  0  0  0  0  0  0  0  0  0  0  0
  140.1490   68.9680  227.5420 C   0  0  0  0  0  0  0  0  0  0  0  0
  141.0020   70.0430  227.7090 C   0  0  0  0  0  0  0  0  0  0  0  0
  141.1150   71.0160  226.7130 C   0  0  0  0  0  0  0  0  0  0  0  0
  140.3590   70.8540  225.5890 C   0  0  0  0  0  0  0  0  0  0  0  0
  140.4630   71.8800  224.5100 C   0  0  0  0  0  0  0  0  0  0  0  0
  140.1490   73.6590  222.3420 N   0  0  0  0  0  0  0  0  0  0  0  0
  139.8520   74.6610  221.4580 C   0  0  0  0  0  0  0  0  0  0  0  0
  140.6510   75.8280  221.5770 N   0  0  0  0  0  0  0  0  0  0  0  0
  141.7330   76.1890  220.7220 C   0  0  0  0  0  0  0  0  0  0  0  0
  141.5680   77.6320  220.2330 C   0  0  0  0  0  0  0  0  0  0  0  0
  141.5930   78.5260  221.4450 C   0  0  0  0  0  0  0  0  0  0  0  0
  142.2000   79.7690  221.4080 C   0  0  0  0  0  0  0  0  0  0  0  0
  142.2220   80.5790  222.5220 C   0  0  0  0  0  0  0  0  0  0  0  0
  141.6080   80.0900  223.6720 C   0  0  0  0  0  0  0  0  0  0  0  0
  141.0030   78.8400  223.6980 C   0  0  0  0  0  0  0  0  0  0  0  0
  140.9850   78.0260  222.5700 C   0  0  0  0  0  0  0  0  0  0  0  0
  140.3260   76.7260  222.6800 C   0  0  0  0  0  0  0  0  0  0  0  0
  141.8010   72.0770  219.4380 H   0  0  0  0  0  0  0  0  0  0  0  0
  140.3490   72.8310  220.2370 H   0  0  0  0  0  0  0  0  0  0  0  0
  140.0092   74.4395  216.8553 H   0  0  0  0  0  0  0  0  0  0  0  0
  139.1231   73.6638  218.2630 H   0  0  0  0  0  0  0  0  0  0  0  0
  140.3530   76.2719  218.8286 H   0  0  0  0  0  0  0  0  0  0  0  0
  139.0033   76.2891  217.6351 H   0  0  0  0  0  0  0  0  0  0  0  0
  138.4202   76.5270  220.1055 H   0  0  0  0  0  0  0  0  0  0  0  0
  137.5288   75.2865  219.1062 H   0  0  0  0  0  0  0  0  0  0  0  0
  137.3661   73.0965  219.8295 H   0  0  0  0  0  0  0  0  0  0  0  0
  139.0211   69.9679  222.0606 H   0  0  0  0  0  0  0  0  0  0  0  0
  140.4806   69.4881  222.9289 H   0  0  0  0  0  0  0  0  0  0  0  0
  137.7741   70.2330  224.2431 H   0  0  0  0  0  0  0  0  0  0  0  0
  138.3663   68.5726  224.0532 H   0  0  0  0  0  0  0  0  0  0  0  0
  138.7079   67.9493  226.2770 H   0  0  0  0  0  0  0  0  0  0  0  0
  140.0768   68.2162  228.3417 H   0  0  0  0  0  0  0  0  0  0  0  0
  141.5950   70.1327  228.6311 H   0  0  0  0  0  0  0  0  0  0  0  0
  141.7871   71.8788  226.8304 H   0  0  0  0  0  0  0  0  0  0  0  0
  139.9863   72.8063  224.8632 H   0  0  0  0  0  0  0  0  0  0  0  0
  141.5332   72.0171  224.2959 H   0  0  0  0  0  0  0  0  0  0  0  0
  142.6787   76.1001  221.2767 H   0  0  0  0  0  0  0  0  0  0  0  0
  141.7407   75.5158  219.8521 H   0  0  0  0  0  0  0  0  0  0  0  0
  142.3930   77.8955  219.5548 H   0  0  0  0  0  0  0  0  0  0  0  0
  140.6220   77.7495  219.6842 H   0  0  0  0  0  0  0  0  0  0  0  0
  142.6714   80.1150  220.4763 H   0  0  0  0  0  0  0  0  0  0  0  0
  142.7032   81.5680  222.5038 H   0  0  0  0  0  0  0  0  0  0  0  0
  141.6019   80.7084  224.5817 H   0  0  0  0  0  0  0  0  0  0  0  0
  140.5300   78.4876  224.6265 H   0  0  0  0  0  0  0  0  0  0  0  0
  140.6397   76.2524  223.6219 H   0  0  0  0  0  0  0  0  0  0  0  0
  139.2408   76.9033  222.6516 H   0  0  0  0  0  0  0  0  0  0  0  0
  1  2  1  0
  2  3  2  0
  2  4  1  0
  4  5  1  0
  5  6  1  0
  6  7  1  0
  7  8  2  0
  8  9  1  0
  9 10  2  0
 10 11  1  0
 11 12  1  0
 12 13  1  0
 13 14  1  0
 14 15  2  0
 15 16  1  0
 16 17  2  0
 17 18  1  0
 18 19  2  0
 19 20  1  0
 10 21  1  0
 21 22  2  0
 22 23  1  0
 23 24  1  0
 24 25  1  0
 25 26  1  0
 26 27  2  0
 27 28  1  0
 28 29  2  0
 29 30  1  0
 30 31  2  0
 31 32  1  0
 22  7  1  0
 32 23  1  0
 20 11  1  0
 31 26  1  0
 19 14  1  0
  1 33  1  0
  1 34  1  0
  4 35  1  0
  4 36  1  0
  5 37  1  0
  5 38  1  0
  6 39  1  0
  6 40  1  0
  8 41  1  0
 12 42  1  0
 12 43  1  0
 13 44  1  0
 13 45  1  0
 15 46  1  0
 16 47  1  0
 17 48  1  0
 18 49  1  0
 20 50  1  0
 20 51  1  0
 24 52  1  0
 24 53  1  0
 25 54  1  0
 25 55  1  0
 27 56  1  0
 28 57  1  0
 29 58  1  0
 30 59  1  0
 32 60  1  0
 32 61  1  0
M  END
>  <smiles>  (34) 
NC(=O)CCCc1cnc(N2CCc3ccccc3C2)nc1N1CCc2ccccc2C1

>  <score_type>  (34) 
oracle

>  <origin>  (34) 
autodockgpu

>  <m_score__min__energy>  (34) 
-9.2200000000000006

>  <m_primary>  (34) 
energy

>  <rmsd>  (34) 
3.6157157716753754

>  <m_score__min__rmsd>  (34) 
3.6157157716753754

>  <meeko>  (34) 
{"free_energy": -7.57, "intermolecular_energy": -9.36, "internal_energy": -2.31, "cluster_size": 6, "cluster_id": 3, "rank_in_cluster": 6}

>  <energy>  (34) 
-8.48

>  <cluster_rmsd>  (34) 
0.61

>  <cluster>  (34) 
2

$$$$

     RDKit          3D

 61 65  0  0  0  0  0  0  0  0999 V2000
  136.9430   74.5920  223.0080 N   0  0  0  0  0  0  0  0  0  0  0  0
  136.2770   75.5630  222.1750 C   0  0  0  0  0  0  0  0  0  0  0  0
  135.0350   75.4670  222.0790 O   0  0  0  0  0  0  0  0  0  0  0  0
  137.1230   76.5740  221.5190 C   0  0  0  0  0  0  0  0  0  0  0  0
  137.1730   76.4710  220.0170 C   0  0  0  0  0  0  0  0  0  0  0  0
  138.3810   75.7140  219.5930 C   0  0  0  0  0  0  0  0  0  0  0  0
  138.7580   74.6320  220.5380 C   0  0  0  0  0  0  0  0  0  0  0  0
  138.0620   73.4180  220.5740 C   0  0  0  0  0  0  0  0  0  0  0  0
  138.3950   72.4520  221.4350 N   0  0  0  0  0  0  0  0  0  0  0  0
  139.4220   72.5980  222.3180 C   0  0  0  0  0  0  0  0  0  0  0  0
  139.7780   71.5720  223.2360 N   0  0  0  0  0  0  0  0  0  0  0  0
  139.4900   70.1740  222.9550 C   0  0  0  0  0  0  0  0  0  0  0  0
  138.6370   69.7000  224.1330 C   0  0  0  0  0  0  0  0  0  0  0  0
  139.4880   69.8510  225.3550 C   0  0  0  0  0  0  0  0  0  0  0  0
  139.3750   68.8580  226.3300 C   0  0  0  0  0  0  0  0  0  0  0  0
  140.1630   69.0000  227.4570 C   0  0  0  0  0  0  0  0  0  0  0  0
  141.0230   70.0690  227.6210 C   0  0  0  0  0  0  0  0  0  0  0  0
  141.1230   71.0540  226.6340 C   0  0  0  0  0  0  0  0  0  0  0  0
  140.3440   70.9100  225.5240 C   0  0  0  0  0  0  0  0  0  0  0  0
  140.4330   71.9490  224.4560 C   0  0  0  0  0  0  0  0  0  0  0  0
  140.1000   73.7490  222.3010 N   0  0  0  0  0  0  0  0  0  0  0  0
  139.7920   74.7630  221.4360 C   0  0  0  0  0  0  0  0  0  0  0  0
  140.6150   75.9140  221.5370 N   0  0  0  0  0  0  0  0  0  0  0  0
  141.6040   76.3180  220.5920 C   0  0  0  0  0  0  0  0  0  0  0  0
  141.4080   77.7880  220.2100 C   0  0  0  0  0  0  0  0  0  0  0  0
  141.5760   78.6080  221.4630 C   0  0  0  0  0  0  0  0  0  0  0  0
  142.1920   79.8460  221.4340 C   0  0  0  0  0  0  0  0  0  0  0  0
  142.3440   80.5880  222.5840 C   0  0  0  0  0  0  0  0  0  0  0  0
  141.8510   80.0350  223.7640 C   0  0  0  0  0  0  0  0  0  0  0  0
  141.2340   78.7910  223.7800 C   0  0  0  0  0  0  0  0  0  0  0  0
  141.0840   78.0460  222.6150 C   0  0  0  0  0  0  0  0  0  0  0  0
  140.4220   76.7470  222.7190 C   0  0  0  0  0  0  0  0  0  0  0  0
  136.4680   74.3360  223.9020 H   0  0  0  0  0  0  0  0  0  0  0  0
  137.8550   74.1630  222.7360 H   0  0  0  0  0  0  0  0  0  0  0  0
  136.7348   77.5691  221.7819 H   0  0  0  0  0  0  0  0  0  0  0  0
  138.1487   76.4023  221.8775 H   0  0  0  0  0  0  0  0  0  0  0  0
  136.2733   75.9495  219.6586 H   0  0  0  0  0  0  0  0  0  0  0  0
  137.2161   77.4836  219.5895 H   0  0  0  0  0  0  0  0  0  0  0  0
  138.1837   75.2647  218.6085 H   0  0  0  0  0  0  0  0  0  0  0  0
  139.2183   76.4268  219.5631 H   0  0  0  0  0  0  0  0  0  0  0  0
  137.2243   73.2561  219.8797 H   0  0  0  0  0  0  0  0  0  0  0  0
  138.9338   70.0762  222.0110 H   0  0  0  0  0  0  0  0  0  0  0  0
  140.4077   69.5778  222.8436 H   0  0  0  0  0  0  0  0  0  0  0  0
  137.7314   70.3182  224.2207 H   0  0  0  0  0  0  0  0  0  0  0  0
  138.3124   68.6577  223.9979 H   0  0  0  0  0  0  0  0  0  0  0  0
  138.6922   68.0043  226.2074 H   0  0  0  0  0  0  0  0  0  0  0  0
  140.1035   68.2380  228.2481 H   0  0  0  0  0  0  0  0  0  0  0  0
  141.6325   70.1454  228.5335 H   0  0  0  0  0  0  0  0  0  0  0  0
  141.8030   71.9111  226.7482 H   0  0  0  0  0  0  0  0  0  0  0  0
  139.9683   72.8734  224.8296 H   0  0  0  0  0  0  0  0  0  0  0  0
  141.4996   72.0836  224.2229 H   0  0  0  0  0  0  0  0  0  0  0  0
  142.6026   76.1885  221.0347 H   0  0  0  0  0  0  0  0  0  0  0  0
  141.5082   75.6985  219.6881 H   0  0  0  0  0  0  0  0  0  0  0  0
  142.1589   78.0853  219.4632 H   0  0  0  0  0  0  0  0  0  0  0  0
  140.4100   77.9454  219.7749 H   0  0  0  0  0  0  0  0  0  0  0  0
  142.5658   80.2435  220.4788 H   0  0  0  0  0  0  0  0  0  0  0  0
  142.8328   81.5733  222.5716 H   0  0  0  0  0  0  0  0  0  0  0  0
  141.9528   80.5966  224.7044 H   0  0  0  0  0  0  0  0  0  0  0  0
  140.8570   78.3874  224.7313 H   0  0  0  0  0  0  0  0  0  0  0  0
  140.8275   76.2156  223.5926 H   0  0  0  0  0  0  0  0  0  0  0  0
  139.3425   76.9342  222.8176 H   0  0  0  0  0  0  0  0  0  0  0  0
  1  2  1  0
  2  3  2  0
  2  4  1  0
  4  5  1  0
  5  6  1  0
  6  7  1  0
  7  8  2  0
  8  9  1  0
  9 10  2  0
 10 11  1  0
 11 12  1  0
 12 13  1  0
 13 14  1  0
 14 15  2  0
 15 16  1  0
 16 17  2  0
 17 18  1  0
 18 19  2  0
 19 20  1  0
 10 21  1  0
 21 22  2  0
 22 23  1  0
 23 24  1  0
 24 25  1  0
 25 26  1  0
 26 27  2  0
 27 28  1  0
 28 29  2  0
 29 30  1  0
 30 31  2  0
 31 32  1  0
 22  7  1  0
 32 23  1  0
 20 11  1  0
 31 26  1  0
 19 14  1  0
  1 33  1  0
  1 34  1  0
  4 35  1  0
  4 36  1  0
  5 37  1  0
  5 38  1  0
  6 39  1  0
  6 40  1  0
  8 41  1  0
 12 42  1  0
 12 43  1  0
 13 44  1  0
 13 45  1  0
 15 46  1  0
 16 47  1  0
 17 48  1  0
 18 49  1  0
 20 50  1  0
 20 51  1  0
 24 52  1  0
 24 53  1  0
 25 54  1  0
 25 55  1  0
 27 56  1  0
 28 57  1  0
 29 58  1  0
 30 59  1  0
 32 60  1  0
 32 61  1  0
M  END
>  <smiles>  (35) 
NC(=O)CCCc1cnc(N2CCc3ccccc3C2)nc1N1CCc2ccccc2C1

>  <score_type>  (35) 
oracle

>  <origin>  (35) 
autodockgpu

>  <m_score__min__energy>  (35) 
-9.2200000000000006

>  <m_primary>  (35) 
energy

>  <rmsd>  (35) 
4.076276902468766

>  <m_score__min__rmsd>  (35) 
4.076276902468766

>  <meeko>  (35) 
{"free_energy": -8.49, "intermolecular_energy": -10.28, "internal_energy": -2.36, "cluster_size": 14, "cluster_id": 2, "rank_in_cluster": 6}

>  <energy>  (35) 
-8.47

>  <cluster_rmsd>  (35) 
0.63

>  <cluster>  (35) 
2

$$$$

     RDKit          3D

 61 65  0  0  0  0  0  0  0  0999 V2000
  136.9060   74.8170  223.0760 N   0  0  0  0  0  0  0  0  0  0  0  0
  136.0590   75.6540  222.2610 C   0  0  0  0  0  0  0  0  0  0  0  0
  134.8260   75.4980  222.3840 O   0  0  0  0  0  0  0  0  0  0  0  0
  136.7290   76.6100  221.3640 C   0  0  0  0  0  0  0  0  0  0  0  0
  136.8910   76.1310  219.9450 C   0  0  0  0  0  0  0  0  0  0  0  0
  138.2820   75.6550  219.7180 C   0  0  0  0  0  0  0  0  0  0  0  0
  138.6910   74.5720  220.6480 C   0  0  0  0  0  0  0  0  0  0  0  0
  137.9890   73.3630  220.7150 C   0  0  0  0  0  0  0  0  0  0  0  0
  138.3510   72.3960  221.5630 N   0  0  0  0  0  0  0  0  0  0  0  0
  139.4150   72.5360  222.4020 C   0  0  0  0  0  0  0  0  0  0  0  0
  139.8020   71.5090  223.3050 N   0  0  0  0  0  0  0  0  0  0  0  0
  139.5780   70.1050  222.9960 C   0  0  0  0  0  0  0  0  0  0  0  0
  138.7300   69.5740  224.1530 C   0  0  0  0  0  0  0  0  0  0  0  0
  139.5590   69.7380  225.3890 C   0  0  0  0  0  0  0  0  0  0  0  0
  139.4760   68.7240  226.3440 C   0  0  0  0  0  0  0  0  0  0  0  0
  140.2430   68.8770  227.4840 C   0  0  0  0  0  0  0  0  0  0  0  0
  141.0550   69.9780  227.6780 C   0  0  0  0  0  0  0  0  0  0  0  0
  141.1250   70.9850  226.7120 C   0  0  0  0  0  0  0  0  0  0  0  0
  140.3670   70.8290  225.5890 C   0  0  0  0  0  0  0  0  0  0  0  0
  140.4260   71.8900  224.5400 C   0  0  0  0  0  0  0  0  0  0  0  0
  140.0990   73.6820  222.3540 N   0  0  0  0  0  0  0  0  0  0  0  0
  139.7620   74.6970  221.5010 C   0  0  0  0  0  0  0  0  0  0  0  0
  140.5970   75.8430  221.5650 N   0  0  0  0  0  0  0  0  0  0  0  0
  141.5730   76.2190  220.5970 C   0  0  0  0  0  0  0  0  0  0  0  0
  141.3830   77.6830  220.1890 C   0  0  0  0  0  0  0  0  0  0  0  0
  141.5780   78.5270  221.4220 C   0  0  0  0  0  0  0  0  0  0  0  0
  142.2040   79.7590  221.3580 C   0  0  0  0  0  0  0  0  0  0  0  0
  142.3810   80.5210  222.4910 C   0  0  0  0  0  0  0  0  0  0  0  0
  141.9030   79.9960  223.6890 C   0  0  0  0  0  0  0  0  0  0  0  0
  141.2760   78.7580  223.7410 C   0  0  0  0  0  0  0  0  0  0  0  0
  141.1010   77.9920  222.5930 C   0  0  0  0  0  0  0  0  0  0  0  0
  140.4300   76.7010  222.7340 C   0  0  0  0  0  0  0  0  0  0  0  0
  136.5960   74.6520  224.0600 H   0  0  0  0  0  0  0  0  0  0  0  0
  137.7860   74.3940  222.7050 H   0  0  0  0  0  0  0  0  0  0  0  0
  136.1377   77.5374  221.3476 H   0  0  0  0  0  0  0  0  0  0  0  0
  137.7443   76.7525  221.7627 H   0  0  0  0  0  0  0  0  0  0  0  0
  136.1894   75.3046  219.7583 H   0  0  0  0  0  0  0  0  0  0  0  0
  136.6810   76.9649  219.2590 H   0  0  0  0  0  0  0  0  0  0  0  0
  138.3582   75.2777  218.6875 H   0  0  0  0  0  0  0  0  0  0  0  0
  138.9520   76.5088  219.8972 H   0  0  0  0  0  0  0  0  0  0  0  0
  137.1221   73.2058  220.0564 H   0  0  0  0  0  0  0  0  0  0  0  0
  139.0396   70.0003  222.0425 H   0  0  0  0  0  0  0  0  0  0  0  0
  140.5219   69.5506  222.8879 H   0  0  0  0  0  0  0  0  0  0  0  0
  137.7982   70.1522  224.2394 H   0  0  0  0  0  0  0  0  0  0  0  0
  138.4505   68.5219  223.9948 H   0  0  0  0  0  0  0  0  0  0  0  0
  138.8312   67.8450  226.1968 H   0  0  0  0  0  0  0  0  0  0  0  0
  140.2057   68.0985  228.2602 H   0  0  0  0  0  0  0  0  0  0  0  0
  141.6503   70.0623  228.5991 H   0  0  0  0  0  0  0  0  0  0  0  0
  141.7657   71.8682  226.8516 H   0  0  0  0  0  0  0  0  0  0  0  0
  139.9192   72.7877  224.9238 H   0  0  0  0  0  0  0  0  0  0  0  0
  141.4889   72.0718  224.3230 H   0  0  0  0  0  0  0  0  0  0  0  0
  142.5776   76.0896  221.0259 H   0  0  0  0  0  0  0  0  0  0  0  0
  141.4573   75.5825  219.7074 H   0  0  0  0  0  0  0  0  0  0  0  0
  142.1241   77.9588  219.4243 H   0  0  0  0  0  0  0  0  0  0  0  0
  140.3792   77.8400  219.7674 H   0  0  0  0  0  0  0  0  0  0  0  0
  142.5651   80.1347  220.3893 H   0  0  0  0  0  0  0  0  0  0  0  0
  142.8782   81.5015  222.4516 H   0  0  0  0  0  0  0  0  0  0  0  0
  142.0250   80.5756  224.6159 H   0  0  0  0  0  0  0  0  0  0  0  0
  140.9116   78.3766  224.7063 H   0  0  0  0  0  0  0  0  0  0  0  0
  140.8454   76.1835  223.6113 H   0  0  0  0  0  0  0  0  0  0  0  0
  139.3539   76.8991  222.8469 H   0  0  0  0  0  0  0  0  0  0  0  0
  1  2  1  0
  2  3  2  0
  2  4  1  0
  4  5  1  0
  5  6  1  0
  6  7  1  0
  7  8  2  0
  8  9  1  0
  9 10  2  0
 10 11  1  0
 11 12  1  0
 12 13  1  0
 13 14  1  0
 14 15  2  0
 15 16  1  0
 16 17  2  0
 17 18  1  0
 18 19  2  0
 19 20  1  0
 10 21  1  0
 21 22  2  0
 22 23  1  0
 23 24  1  0
 24 25  1  0
 25 26  1  0
 26 27  2  0
 27 28  1  0
 28 29  2  0
 29 30  1  0
 30 31  2  0
 31 32  1  0
 22  7  1  0
 32 23  1  0
 20 11  1  0
 31 26  1  0
 19 14  1  0
  1 33  1  0
  1 34  1  0
  4 35  1  0
  4 36  1  0
  5 37  1  0
  5 38  1  0
  6 39  1  0
  6 40  1  0
  8 41  1  0
 12 42  1  0
 12 43  1  0
 13 44  1  0
 13 45  1  0
 15 46  1  0
 16 47  1  0
 17 48  1  0
 18 49  1  0
 20 50  1  0
 20 51  1  0
 24 52  1  0
 24 53  1  0
 25 54  1  0
 25 55  1  0
 27 56  1  0
 28 57  1  0
 29 58  1  0
 30 59  1  0
 32 60  1  0
 32 61  1  0
M  END
>  <smiles>  (36) 
NC(=O)CCCc1cnc(N2CCc3ccccc3C2)nc1N1CCc2ccccc2C1

>  <score_type>  (36) 
oracle

>  <origin>  (36) 
autodockgpu

>  <m_score__min__energy>  (36) 
-9.2200000000000006

>  <m_primary>  (36) 
energy

>  <rmsd>  (36) 
4.139189595623853

>  <m_score__min__rmsd>  (36) 
4.139189595623853

>  <meeko>  (36) 
{"free_energy": -8.57, "intermolecular_energy": -10.36, "internal_energy": -2.05, "cluster_size": 14, "cluster_id": 2, "rank_in_cluster": 3}

>  <energy>  (36) 
-8.46

>  <cluster_rmsd>  (36) 
0.63

>  <cluster>  (36) 
2

$$$$

     RDKit          3D

 61 65  0  0  0  0  0  0  0  0999 V2000
  136.7910   75.6930  222.9530 N   0  0  0  0  0  0  0  0  0  0  0  0
  136.8840   76.8830  222.1420 C   0  0  0  0  0  0  0  0  0  0  0  0
  137.5970   77.8090  222.5810 O   0  0  0  0  0  0  0  0  0  0  0  0
  136.1300   76.8910  220.8770 C   0  0  0  0  0  0  0  0  0  0  0  0
  136.5770   75.8570  219.8750 C   0  0  0  0  0  0  0  0  0  0  0  0
  138.0570   75.7190  219.9050 C   0  0  0  0  0  0  0  0  0  0  0  0
  138.5280   74.6170  220.7820 C   0  0  0  0  0  0  0  0  0  0  0  0
  137.8190   73.4140  220.8880 C   0  0  0  0  0  0  0  0  0  0  0  0
  138.2370   72.4300  221.6880 N   0  0  0  0  0  0  0  0  0  0  0  0
  139.3680   72.5450  222.4400 C   0  0  0  0  0  0  0  0  0  0  0  0
  139.8140   71.5000  223.2920 N   0  0  0  0  0  0  0  0  0  0  0  0
  139.6970   70.1030  222.9020 C   0  0  0  0  0  0  0  0  0  0  0  0
  138.8730   69.4480  224.0120 C   0  0  0  0  0  0  0  0  0  0  0  0
  139.6680   69.6010  225.2710 C   0  0  0  0  0  0  0  0  0  0  0  0
  139.6450   68.5310  226.1660 C   0  0  0  0  0  0  0  0  0  0  0  0
  140.3800   68.6760  227.3280 C   0  0  0  0  0  0  0  0  0  0  0  0
  141.1070   69.8190  227.5990 C   0  0  0  0  0  0  0  0  0  0  0  0
  141.1190   70.8810  226.6900 C   0  0  0  0  0  0  0  0  0  0  0  0
  140.3920   70.7340  225.5450 C   0  0  0  0  0  0  0  0  0  0  0  0
  140.3890   71.8540  224.5590 C   0  0  0  0  0  0  0  0  0  0  0  0
  140.0590   73.6840  222.3540 N   0  0  0  0  0  0  0  0  0  0  0  0
  139.6660   74.7170  221.5460 C   0  0  0  0  0  0  0  0  0  0  0  0
  140.5170   75.8520  221.5590 N   0  0  0  0  0  0  0  0  0  0  0  0
  141.4620   76.1980  220.5490 C   0  0  0  0  0  0  0  0  0  0  0  0
  141.2760   77.6570  220.1220 C   0  0  0  0  0  0  0  0  0  0  0  0
  141.5270   78.5190  221.3320 C   0  0  0  0  0  0  0  0  0  0  0  0
  142.1670   79.7410  221.2230 C   0  0  0  0  0  0  0  0  0  0  0  0
  142.3950   80.5210  222.3350 C   0  0  0  0  0  0  0  0  0  0  0  0
  141.9540   80.0240  223.5590 C   0  0  0  0  0  0  0  0  0  0  0  0
  141.3130   78.7950  223.6560 C   0  0  0  0  0  0  0  0  0  0  0  0
  141.0870   78.0120  222.5290 C   0  0  0  0  0  0  0  0  0  0  0  0
  140.4050   76.7320  222.7170 C   0  0  0  0  0  0  0  0  0  0  0  0
  137.6700   75.3690  223.4130 H   0  0  0  0  0  0  0  0  0  0  0  0
  135.8910   75.1780  223.0770 H   0  0  0  0  0  0  0  0  0  0  0  0
  135.0699   76.7096  221.1080 H   0  0  0  0  0  0  0  0  0  0  0  0
  136.3080   77.8726  220.4135 H   0  0  0  0  0  0  0  0  0  0  0  0
  136.1167   74.8889  220.1220 H   0  0  0  0  0  0  0  0  0  0  0  0
  136.2665   76.1747  218.8687 H   0  0  0  0  0  0  0  0  0  0  0  0
  138.4101   75.5254  218.8814 H   0  0  0  0  0  0  0  0  0  0  0  0
  138.4627   76.6561  220.3140 H   0  0  0  0  0  0  0  0  0  0  0  0
  136.8992   73.2769  220.3004 H   0  0  0  0  0  0  0  0  0  0  0  0
  139.1815   70.0139  221.9343 H   0  0  0  0  0  0  0  0  0  0  0  0
  140.6802   69.6247  222.7811 H   0  0  0  0  0  0  0  0  0  0  0  0
  137.9003   69.9517  224.1121 H   0  0  0  0  0  0  0  0  0  0  0  0
  138.6743   68.3890  223.7907 H   0  0  0  0  0  0  0  0  0  0  0  0
  139.0702   67.6167  225.9573 H   0  0  0  0  0  0  0  0  0  0  0  0
  140.3861   67.8550  228.0601 H   0  0  0  0  0  0  0  0  0  0  0  0
  141.6796   69.8939  228.5352 H   0  0  0  0  0  0  0  0  0  0  0  0
  141.6918   71.7986  226.8900 H   0  0  0  0  0  0  0  0  0  0  0  0
  139.8115   72.6890  224.9823 H   0  0  0  0  0  0  0  0  0  0  0  0
  141.4389   72.1246  224.3735 H   0  0  0  0  0  0  0  0  0  0  0  0
  142.4800   76.0626  220.9432 H   0  0  0  0  0  0  0  0  0  0  0  0
  141.3056   75.5476  219.6757 H   0  0  0  0  0  0  0  0  0  0  0  0
  141.9920   77.9095  219.3260 H   0  0  0  0  0  0  0  0  0  0  0  0
  140.2597   77.8204  219.7342 H   0  0  0  0  0  0  0  0  0  0  0  0
  142.4981   80.0941  220.2352 H   0  0  0  0  0  0  0  0  0  0  0  0
  142.9031   81.4937  222.2597 H   0  0  0  0  0  0  0  0  0  0  0  0
  142.1169   80.6183  224.4702 H   0  0  0  0  0  0  0  0  0  0  0  0
  140.9788   78.4354  224.6404 H   0  0  0  0  0  0  0  0  0  0  0  0
  140.8460   76.2241  223.5874 H   0  0  0  0  0  0  0  0  0  0  0  0
  139.3364   76.9468  222.8654 H   0  0  0  0  0  0  0  0  0  0  0  0
  1  2  1  0
  2  3  2  0
  2  4  1  0
  4  5  1  0
  5  6  1  0
  6  7  1  0
  7  8  2  0
  8  9  1  0
  9 10  2  0
 10 11  1  0
 11 12  1  0
 12 13  1  0
 13 14  1  0
 14 15  2  0
 15 16  1  0
 16 17  2  0
 17 18  1  0
 18 19  2  0
 19 20  1  0
 10 21  1  0
 21 22  2  0
 22 23  1  0
 23 24  1  0
 24 25  1  0
 25 26  1  0
 26 27  2  0
 27 28  1  0
 28 29  2  0
 29 30  1  0
 30 31  2  0
 31 32  1  0
 22  7  1  0
 32 23  1  0
 20 11  1  0
 31 26  1  0
 19 14  1  0
  1 33  1  0
  1 34  1  0
  4 35  1  0
  4 36  1  0
  5 37  1  0
  5 38  1  0
  6 39  1  0
  6 40  1  0
  8 41  1  0
 12 42  1  0
 12 43  1  0
 13 44  1  0
 13 45  1  0
 15 46  1  0
 16 47  1  0
 17 48  1  0
 18 49  1  0
 20 50  1  0
 20 51  1  0
 24 52  1  0
 24 53  1  0
 25 54  1  0
 25 55  1  0
 27 56  1  0
 28 57  1  0
 29 58  1  0
 30 59  1  0
 32 60  1  0
 32 61  1  0
M  END
>  <smiles>  (37) 
NC(=O)CCCc1cnc(N2CCc3ccccc3C2)nc1N1CCc2ccccc2C1

>  <score_type>  (37) 
oracle

>  <origin>  (37) 
autodockgpu

>  <m_score__min__energy>  (37) 
-9.2200000000000006

>  <m_primary>  (37) 
energy

>  <rmsd>  (37) 
4.202674054279662

>  <m_score__min__rmsd>  (37) 
4.202674054279662

>  <meeko>  (37) 
{"free_energy": -8.37, "intermolecular_energy": -10.16, "internal_energy": -1.63, "cluster_size": 14, "cluster_id": 2, "rank_in_cluster": 11}

>  <energy>  (37) 
-8.44

>  <cluster_rmsd>  (37) 
0.74

>  <cluster>  (37) 
2

$$$$

     RDKit          3D

 61 65  0  0  0  0  0  0  0  0999 V2000
  137.6520   75.0530  222.6680 N   0  0  0  0  0  0  0  0  0  0  0  0
  136.6190   75.6620  221.8670 C   0  0  0  0  0  0  0  0  0  0  0  0
  135.8060   76.4020  222.4620 O   0  0  0  0  0  0  0  0  0  0  0  0
  136.6210   75.3540  220.4270 C   0  0  0  0  0  0  0  0  0  0  0  0
  137.6710   76.0850  219.6310 C   0  0  0  0  0  0  0  0  0  0  0  0
  138.7840   75.1620  219.2810 C   0  0  0  0  0  0  0  0  0  0  0  0
  139.0940   74.1820  220.3520 C   0  0  0  0  0  0  0  0  0  0  0  0
  138.4470   72.9420  220.4180 C   0  0  0  0  0  0  0  0  0  0  0  0
  138.7190   72.0680  221.3900 N   0  0  0  0  0  0  0  0  0  0  0  0
  139.6320   72.3360  222.3650 C   0  0  0  0  0  0  0  0  0  0  0  0
  139.9220   71.4080  223.4010 N   0  0  0  0  0  0  0  0  0  0  0  0
  139.5560   70.0040  223.2840 C   0  0  0  0  0  0  0  0  0  0  0  0
  138.6690   69.7230  224.4980 C   0  0  0  0  0  0  0  0  0  0  0  0
  139.5200   69.9700  225.7050 C   0  0  0  0  0  0  0  0  0  0  0  0
  139.3440   69.1080  226.7880 C   0  0  0  0  0  0  0  0  0  0  0  0
  140.1320   69.3370  227.9010 C   0  0  0  0  0  0  0  0  0  0  0  0
  141.0510   70.3670  227.9490 C   0  0  0  0  0  0  0  0  0  0  0  0
  141.2140   71.2210  226.8550 C   0  0  0  0  0  0  0  0  0  0  0  0
  140.4350   70.9910  225.7590 C   0  0  0  0  0  0  0  0  0  0  0  0
  140.5900   71.8890  224.5760 C   0  0  0  0  0  0  0  0  0  0  0  0
  140.2620   73.5130  222.3210 N   0  0  0  0  0  0  0  0  0  0  0  0
  140.0140   74.4360  221.3420 C   0  0  0  0  0  0  0  0  0  0  0  0
  140.7740   75.6310  221.4310 N   0  0  0  0  0  0  0  0  0  0  0  0
  141.8370   76.0100  220.5600 C   0  0  0  0  0  0  0  0  0  0  0  0
  141.6210   77.4360  220.0440 C   0  0  0  0  0  0  0  0  0  0  0  0
  141.6250   78.3560  221.2380 C   0  0  0  0  0  0  0  0  0  0  0  0
  142.1900   79.6170  221.1710 C   0  0  0  0  0  0  0  0  0  0  0  0
  142.1930   80.4490  222.2670 C   0  0  0  0  0  0  0  0  0  0  0  0
  141.6040   79.9640  223.4330 C   0  0  0  0  0  0  0  0  0  0  0  0
  141.0410   78.6960  223.4880 C   0  0  0  0  0  0  0  0  0  0  0  0
  141.0420   77.8590  222.3760 C   0  0  0  0  0  0  0  0  0  0  0  0
  140.4270   76.5400  222.5180 C   0  0  0  0  0  0  0  0  0  0  0  0
  138.0860   75.6500  223.4080 H   0  0  0  0  0  0  0  0  0  0  0  0
  137.9560   74.0650  222.5210 H   0  0  0  0  0  0  0  0  0  0  0  0
  136.7900   74.2737  220.3074 H   0  0  0  0  0  0  0  0  0  0  0  0
  135.6472   75.6841  220.0361 H   0  0  0  0  0  0  0  0  0  0  0  0
  137.2198   76.4770  218.7076 H   0  0  0  0  0  0  0  0  0  0  0  0
  138.0680   76.9138  220.2355 H   0  0  0  0  0  0  0  0  0  0  0  0
  138.5059   74.6089  218.3717 H   0  0  0  0  0  0  0  0  0  0  0  0
  139.6833   75.7779  219.1333 H   0  0  0  0  0  0  0  0  0  0  0  0
  137.6996   72.6827  219.6537 H   0  0  0  0  0  0  0  0  0  0  0  0
  139.0017   69.8255  222.3508 H   0  0  0  0  0  0  0  0  0  0  0  0
  140.4386   69.3481  223.2568 H   0  0  0  0  0  0  0  0  0  0  0  0
  137.8003   70.3978  224.4996 H   0  0  0  0  0  0  0  0  0  0  0  0
  138.2849   68.6923  224.4831 H   0  0  0  0  0  0  0  0  0  0  0  0
  138.6137   68.2860  226.7579 H   0  0  0  0  0  0  0  0  0  0  0  0
  140.0236   68.6784  228.7753 H   0  0  0  0  0  0  0  0  0  0  0  0
  141.6583   70.5160  228.8540 H   0  0  0  0  0  0  0  0  0  0  0  0
  141.9415   72.0458  226.8767 H   0  0  0  0  0  0  0  0  0  0  0  0
  140.1773   72.8761  224.8317 H   0  0  0  0  0  0  0  0  0  0  0  0
  141.6639   71.9337  224.3422 H   0  0  0  0  0  0  0  0  0  0  0  0
  142.7893   75.9633  221.1085 H   0  0  0  0  0  0  0  0  0  0  0  0
  141.8602   75.3200  219.7036 H   0  0  0  0  0  0  0  0  0  0  0  0
  142.4320   77.7126  219.3542 H   0  0  0  0  0  0  0  0  0  0  0  0
  140.6675   77.5109  219.5007 H   0  0  0  0  0  0  0  0  0  0  0  0
  142.6430   79.9592  220.2288 H   0  0  0  0  0  0  0  0  0  0  0  0
  142.6407   81.4529  222.2246 H   0  0  0  0  0  0  0  0  0  0  0  0
  141.5846   80.6001  224.3302 H   0  0  0  0  0  0  0  0  0  0  0  0
  140.5863   78.3469  224.4268 H   0  0  0  0  0  0  0  0  0  0  0  0
  140.7630   76.0966  223.4669 H   0  0  0  0  0  0  0  0  0  0  0  0
  139.3363   76.6805  222.4949 H   0  0  0  0  0  0  0  0  0  0  0  0
  1  2  1  0
  2  3  2  0
  2  4  1  0
  4  5  1  0
  5  6  1  0
  6  7  1  0
  7  8  2  0
  8  9  1  0
  9 10  2  0
 10 11  1  0
 11 12  1  0
 12 13  1  0
 13 14  1  0
 14 15  2  0
 15 16  1  0
 16 17  2  0
 17 18  1  0
 18 19  2  0
 19 20  1  0
 10 21  1  0
 21 22  2  0
 22 23  1  0
 23 24  1  0
 24 25  1  0
 25 26  1  0
 26 27  2  0
 27 28  1  0
 28 29  2  0
 29 30  1  0
 30 31  2  0
 31 32  1  0
 22  7  1  0
 32 23  1  0
 20 11  1  0
 31 26  1  0
 19 14  1  0
  1 33  1  0
  1 34  1  0
  4 35  1  0
  4 36  1  0
  5 37  1  0
  5 38  1  0
  6 39  1  0
  6 40  1  0
  8 41  1  0
 12 42  1  0
 12 43  1  0
 13 44  1  0
 13 45  1  0
 15 46  1  0
 16 47  1  0
 17 48  1  0
 18 49  1  0
 20 50  1  0
 20 51  1  0
 24 52  1  0
 24 53  1  0
 25 54  1  0
 25 55  1  0
 27 56  1  0
 28 57  1  0
 29 58  1  0
 30 59  1  0
 32 60  1  0
 32 61  1  0
M  END
>  <smiles>  (38) 
NC(=O)CCCc1cnc(N2CCc3ccccc3C2)nc1N1CCc2ccccc2C1

>  <score_type>  (38) 
oracle

>  <origin>  (38) 
autodockgpu

>  <m_score__min__energy>  (38) 
-9.2200000000000006

>  <m_primary>  (38) 
energy

>  <rmsd>  (38) 
3.8206101246456545

>  <m_score__min__rmsd>  (38) 
3.8206101246456545

>  <meeko>  (38) 
{"free_energy": -8.44, "intermolecular_energy": -10.23, "internal_energy": -1.93, "cluster_size": 14, "cluster_id": 2, "rank_in_cluster": 10}

>  <energy>  (38) 
-8.37

>  <cluster_rmsd>  (38) 
0.59

>  <cluster>  (38) 
2

$$$$

     RDKit          3D

 61 65  0  0  0  0  0  0  0  0999 V2000
  136.9290   74.8310  223.0960 N   0  0  0  0  0  0  0  0  0  0  0  0
  136.2090   75.8190  222.3310 C   0  0  0  0  0  0  0  0  0  0  0  0
  134.9620   75.7820  222.3930 O   0  0  0  0  0  0  0  0  0  0  0  0
  137.0120   76.7770  221.5530 C   0  0  0  0  0  0  0  0  0  0  0  0
  137.0240   76.5240  220.0670 C   0  0  0  0  0  0  0  0  0  0  0  0
  138.2710   75.8130  219.6770 C   0  0  0  0  0  0  0  0  0  0  0  0
  138.6320   74.7090  220.6020 C   0  0  0  0  0  0  0  0  0  0  0  0
  137.9230   73.5020  220.6120 C   0  0  0  0  0  0  0  0  0  0  0  0
  138.2420   72.5160  221.4550 N   0  0  0  0  0  0  0  0  0  0  0  0
  139.2660   72.6330  222.3450 C   0  0  0  0  0  0  0  0  0  0  0  0
  139.6060   71.5860  223.2440 N   0  0  0  0  0  0  0  0  0  0  0  0
  139.1560   70.2210  223.0190 C   0  0  0  0  0  0  0  0  0  0  0  0
  138.3790   69.8460  224.2830 C   0  0  0  0  0  0  0  0  0  0  0  0
  139.3560   69.9230  225.4140 C   0  0  0  0  0  0  0  0  0  0  0  0
  139.2420   68.9560  226.4140 C   0  0  0  0  0  0  0  0  0  0  0  0
  140.1460   69.0300  227.4570 C   0  0  0  0  0  0  0  0  0  0  0  0
  141.1190   70.0090  227.5170 C   0  0  0  0  0  0  0  0  0  0  0  0
  141.2190   70.9690  226.5070 C   0  0  0  0  0  0  0  0  0  0  0  0
  140.3250   70.8930  225.4800 C   0  0  0  0  0  0  0  0  0  0  0  0
  140.4110   71.9070  224.3880 C   0  0  0  0  0  0  0  0  0  0  0  0
  139.9560   73.7770  222.3530 N   0  0  0  0  0  0  0  0  0  0  0  0
  139.6630   74.8110  221.5070 C   0  0  0  0  0  0  0  0  0  0  0  0
  140.4990   75.9510  221.6330 N   0  0  0  0  0  0  0  0  0  0  0  0
  141.6070   76.2700  220.7950 C   0  0  0  0  0  0  0  0  0  0  0  0
  141.4990   77.7140  220.2950 C   0  0  0  0  0  0  0  0  0  0  0  0
  141.5330   78.6150  221.5020 C   0  0  0  0  0  0  0  0  0  0  0  0
  142.1810   79.8370  221.4690 C   0  0  0  0  0  0  0  0  0  0  0  0
  142.2100   80.6530  222.5770 C   0  0  0  0  0  0  0  0  0  0  0  0
  141.5600   80.1920  223.7200 C   0  0  0  0  0  0  0  0  0  0  0  0
  140.9130   78.9630  223.7420 C   0  0  0  0  0  0  0  0  0  0  0  0
  140.8880   78.1430  222.6180 C   0  0  0  0  0  0  0  0  0  0  0  0
  140.1840   76.8670  222.7250 C   0  0  0  0  0  0  0  0  0  0  0  0
  136.5590   74.6120  224.0480 H   0  0  0  0  0  0  0  0  0  0  0  0
  137.7790   74.3540  222.7220 H   0  0  0  0  0  0  0  0  0  0  0  0
  136.6067   77.7848  221.7263 H   0  0  0  0  0  0  0  0  0  0  0  0
  138.0508   76.6649  221.8969 H   0  0  0  0  0  0  0  0  0  0  0  0
  136.1543   75.9072  219.7964 H   0  0  0  0  0  0  0  0  0  0  0  0
  136.9801   77.4877  219.5385 H   0  0  0  0  0  0  0  0  0  0  0  0
  138.1330   75.3933  218.6696 H   0  0  0  0  0  0  0  0  0  0  0  0
  139.0891   76.5476  219.7118 H   0  0  0  0  0  0  0  0  0  0  0  0
  137.0863   73.3626  219.9116 H   0  0  0  0  0  0  0  0  0  0  0  0
  138.5036   70.1699  222.1348 H   0  0  0  0  0  0  0  0  0  0  0  0
  139.9953   69.5351  222.8315 H   0  0  0  0  0  0  0  0  0  0  0  0
  137.5517   70.5526  224.4454 H   0  0  0  0  0  0  0  0  0  0  0  0
  137.9414   68.8402  224.2001 H   0  0  0  0  0  0  0  0  0  0  0  0
  138.4703   68.1731  226.3740 H   0  0  0  0  0  0  0  0  0  0  0  0
  140.0889   68.2857  228.2650 H   0  0  0  0  0  0  0  0  0  0  0  0
  141.8191   70.0327  228.3651 H   0  0  0  0  0  0  0  0  0  0  0  0
  141.9881   71.7548  226.5389 H   0  0  0  0  0  0  0  0  0  0  0  0
  140.0786   72.8769  224.7865 H   0  0  0  0  0  0  0  0  0  0  0  0
  141.4577   71.9312  224.0506 H   0  0  0  0  0  0  0  0  0  0  0  0
  142.5395   76.1530  221.3666 H   0  0  0  0  0  0  0  0  0  0  0  0
  141.6071   75.5913  219.9293 H   0  0  0  0  0  0  0  0  0  0  0  0
  142.3440   77.9453  219.6298 H   0  0  0  0  0  0  0  0  0  0  0  0
  140.5669   77.8594  219.7292 H   0  0  0  0  0  0  0  0  0  0  0  0
  142.6802   80.1611  220.5439 H   0  0  0  0  0  0  0  0  0  0  0  0
  142.7234   81.6257  222.5609 H   0  0  0  0  0  0  0  0  0  0  0  0
  141.5592   80.8158  224.6260 H   0  0  0  0  0  0  0  0  0  0  0  0
  140.4118   78.6323  224.6637 H   0  0  0  0  0  0  0  0  0  0  0  0
  140.4649   76.3898  223.6755 H   0  0  0  0  0  0  0  0  0  0  0  0
  139.1059   77.0798  222.6767 H   0  0  0  0  0  0  0  0  0  0  0  0
  1  2  1  0
  2  3  2  0
  2  4  1  0
  4  5  1  0
  5  6  1  0
  6  7  1  0
  7  8  2  0
  8  9  1  0
  9 10  2  0
 10 11  1  0
 11 12  1  0
 12 13  1  0
 13 14  1  0
 14 15  2  0
 15 16  1  0
 16 17  2  0
 17 18  1  0
 18 19  2  0
 19 20  1  0
 10 21  1  0
 21 22  2  0
 22 23  1  0
 23 24  1  0
 24 25  1  0
 25 26  1  0
 26 27  2  0
 27 28  1  0
 28 29  2  0
 29 30  1  0
 30 31  2  0
 31 32  1  0
 22  7  1  0
 32 23  1  0
 20 11  1  0
 31 26  1  0
 19 14  1  0
  1 33  1  0
  1 34  1  0
  4 35  1  0
  4 36  1  0
  5 37  1  0
  5 38  1  0
  6 39  1  0
  6 40  1  0
  8 41  1  0
 12 42  1  0
 12 43  1  0
 13 44  1  0
 13 45  1  0
 15 46  1  0
 16 47  1  0
 17 48  1  0
 18 49  1  0
 20 50  1  0
 20 51  1  0
 24 52  1  0
 24 53  1  0
 25 54  1  0
 25 55  1  0
 27 56  1  0
 28 57  1  0
 29 58  1  0
 30 59  1  0
 32 60  1  0
 32 61  1  0
M  END
>  <smiles>  (39) 
NC(=O)CCCc1cnc(N2CCc3ccccc3C2)nc1N1CCc2ccccc2C1

>  <score_type>  (39) 
oracle

>  <origin>  (39) 
autodockgpu

>  <m_score__min__energy>  (39) 
-9.2200000000000006

>  <m_primary>  (39) 
energy

>  <rmsd>  (39) 
4.075986525792501

>  <m_score__min__rmsd>  (39) 
4.075986525792501

>  <meeko>  (39) 
{"free_energy": -8.47, "intermolecular_energy": -10.26, "internal_energy": -2.39, "cluster_size": 14, "cluster_id": 2, "rank_in_cluster": 8}

>  <energy>  (39) 
-8.31

>  <cluster_rmsd>  (39) 
0.63

>  <cluster>  (39) 
2

$$$$

     RDKit          3D

 61 65  0  0  0  0  0  0  0  0999 V2000
  138.7330   79.8580  218.8490 N   0  0  0  0  0  0  0  0  0  0  0  0
  138.2140   78.9060  219.8010 C   0  0  0  0  0  0  0  0  0  0  0  0
  138.4800   79.1090  221.0040 O   0  0  0  0  0  0  0  0  0  0  0  0
  137.4210   77.7880  219.2630 C   0  0  0  0  0  0  0  0  0  0  0  0
  137.4460   76.5390  220.1060 C   0  0  0  0  0  0  0  0  0  0  0  0
  138.4440   75.5760  219.5690 C   0  0  0  0  0  0  0  0  0  0  0  0
  138.8140   74.5120  220.5350 C   0  0  0  0  0  0  0  0  0  0  0  0
  138.1250   73.2930  220.5790 C   0  0  0  0  0  0  0  0  0  0  0  0
  138.4510   72.3430  221.4590 N   0  0  0  0  0  0  0  0  0  0  0  0
  139.4640   72.5090  222.3560 C   0  0  0  0  0  0  0  0  0  0  0  0
  139.8120   71.5000  223.2940 N   0  0  0  0  0  0  0  0  0  0  0  0
  139.5530   70.0930  223.0230 C   0  0  0  0  0  0  0  0  0  0  0  0
  138.6780   69.6200  224.1850 C   0  0  0  0  0  0  0  0  0  0  0  0
  139.4960   69.7990  225.4260 C   0  0  0  0  0  0  0  0  0  0  0  0
  139.3750   68.8160  226.4090 C   0  0  0  0  0  0  0  0  0  0  0  0
  140.1310   68.9830  227.5530 C   0  0  0  0  0  0  0  0  0  0  0  0
  140.9710   70.0670  227.7260 C   0  0  0  0  0  0  0  0  0  0  0  0
  141.0800   71.0420  226.7310 C   0  0  0  0  0  0  0  0  0  0  0  0
  140.3310   70.8730  225.6030 C   0  0  0  0  0  0  0  0  0  0  0  0
  140.4310   71.9010  224.5250 C   0  0  0  0  0  0  0  0  0  0  0  0
  140.1340   73.6640  222.3310 N   0  0  0  0  0  0  0  0  0  0  0  0
  139.8320   74.6630  221.4460 C   0  0  0  0  0  0  0  0  0  0  0  0
  140.6470   75.8210  221.5420 N   0  0  0  0  0  0  0  0  0  0  0  0
  141.6590   76.2080  220.6160 C   0  0  0  0  0  0  0  0  0  0  0  0
  141.4660   77.6680  220.1930 C   0  0  0  0  0  0  0  0  0  0  0  0
  141.5940   78.5180  221.4310 C   0  0  0  0  0  0  0  0  0  0  0  0
  142.2050   79.7590  221.3890 C   0  0  0  0  0  0  0  0  0  0  0  0
  142.3210   80.5280  222.5250 C   0  0  0  0  0  0  0  0  0  0  0  0
  141.7980   80.0010  223.7030 C   0  0  0  0  0  0  0  0  0  0  0  0
  141.1880   78.7540  223.7330 C   0  0  0  0  0  0  0  0  0  0  0  0
  141.0740   77.9810  222.5810 C   0  0  0  0  0  0  0  0  0  0  0  0
  140.4170   76.6810  222.6980 C   0  0  0  0  0  0  0  0  0  0  0  0
  138.6990   80.8650  219.1260 H   0  0  0  0  0  0  0  0  0  0  0  0
  139.1240   79.5610  217.9280 H   0  0  0  0  0  0  0  0  0  0  0  0
  136.3763   78.1204  219.1729 H   0  0  0  0  0  0  0  0  0  0  0  0
  137.8735   77.5212  218.2965 H   0  0  0  0  0  0  0  0  0  0  0  0
  137.7158   76.8034  221.1391 H   0  0  0  0  0  0  0  0  0  0  0  0
  136.4501   76.0723  220.0853 H   0  0  0  0  0  0  0  0  0  0  0  0
  138.0221   75.1007  218.6712 H   0  0  0  0  0  0  0  0  0  0  0  0
  139.3584   76.1455  219.3466 H   0  0  0  0  0  0  0  0  0  0  0  0
  137.2991   73.1149  219.8746 H   0  0  0  0  0  0  0  0  0  0  0  0
  139.0225   69.9749  222.0666 H   0  0  0  0  0  0  0  0  0  0  0  0
  140.4824   69.5102  222.9420 H   0  0  0  0  0  0  0  0  0  0  0  0
  137.7612   70.2251  224.2424 H   0  0  0  0  0  0  0  0  0  0  0  0
  138.3727   68.5713  224.0549 H   0  0  0  0  0  0  0  0  0  0  0  0
  138.7096   67.9498  226.2791 H   0  0  0  0  0  0  0  0  0  0  0  0
  140.0624   68.2296  228.3515 H   0  0  0  0  0  0  0  0  0  0  0  0
  141.5569   70.1627  228.6521 H   0  0  0  0  0  0  0  0  0  0  0  0
  141.7432   71.9112  226.8522 H   0  0  0  0  0  0  0  0  0  0  0  0
  139.9436   72.8225  224.8760 H   0  0  0  0  0  0  0  0  0  0  0  0
  141.5009   72.0490  224.3166 H   0  0  0  0  0  0  0  0  0  0  0  0
  142.6456   76.0951  221.0892 H   0  0  0  0  0  0  0  0  0  0  0  0
  141.5915   75.5665  219.7250 H   0  0  0  0  0  0  0  0  0  0  0  0
  142.2363   77.9520  219.4609 H   0  0  0  0  0  0  0  0  0  0  0  0
  140.4803   77.8093  219.7257 H   0  0  0  0  0  0  0  0  0  0  0  0
  142.6032   80.1359  220.4354 H   0  0  0  0  0  0  0  0  0  0  0  0
  142.8055   81.5153  222.5030 H   0  0  0  0  0  0  0  0  0  0  0  0
  141.8698   80.5863  224.6316 H   0  0  0  0  0  0  0  0  0  0  0  0
  140.7881   78.3705  224.6832 H   0  0  0  0  0  0  0  0  0  0  0  0
  140.8014   76.1732  223.5949 H   0  0  0  0  0  0  0  0  0  0  0  0
  139.3342   76.8637  222.7625 H   0  0  0  0  0  0  0  0  0  0  0  0
  1  2  1  0
  2  3  2  0
  2  4  1  0
  4  5  1  0
  5  6  1  0
  6  7  1  0
  7  8  2  0
  8  9  1  0
  9 10  2  0
 10 11  1  0
 11 12  1  0
 12 13  1  0
 13 14  1  0
 14 15  2  0
 15 16  1  0
 16 17  2  0
 17 18  1  0
 18 19  2  0
 19 20  1  0
 10 21  1  0
 21 22  2  0
 22 23  1  0
 23 24  1  0
 24 25  1  0
 25 26  1  0
 26 27  2  0
 27 28  1  0
 28 29  2  0
 29 30  1  0
 30 31  2  0
 31 32  1  0
 22  7  1  0
 32 23  1  0
 20 11  1  0
 31 26  1  0
 19 14  1  0
  1 33  1  0
  1 34  1  0
  4 35  1  0
  4 36  1  0
  5 37  1  0
  5 38  1  0
  6 39  1  0
  6 40  1  0
  8 41  1  0
 12 42  1  0
 12 43  1  0
 13 44  1  0
 13 45  1  0
 15 46  1  0
 16 47  1  0
 17 48  1  0
 18 49  1  0
 20 50  1  0
 20 51  1  0
 24 52  1  0
 24 53  1  0
 25 54  1  0
 25 55  1  0
 27 56  1  0
 28 57  1  0
 29 58  1  0
 30 59  1  0
 32 60  1  0
 32 61  1  0
M  END
>  <smiles>  (40) 
NC(=O)CCCc1cnc(N2CCc3ccccc3C2)nc1N1CCc2ccccc2C1

>  <score_type>  (40) 
oracle

>  <origin>  (40) 
autodockgpu

>  <m_score__min__energy>  (40) 
-9.2200000000000006

>  <m_primary>  (40) 
energy

>  <rmsd>  (40) 
4.019713834757477

>  <m_score__min__rmsd>  (40) 
4.019713834757477

>  <meeko>  (40) 
{"free_energy": -7.68, "intermolecular_energy": -9.47, "internal_energy": -1.75, "cluster_size": 1, "cluster_id": 5, "rank_in_cluster": 1}

>  <energy>  (40) 
-8.19

>  <cluster_rmsd>  (40) 
0.81

>  <cluster>  (40) 
2

$$$$

     RDKit          3D

 61 65  0  0  0  0  0  0  0  0999 V2000
  142.7920   80.2770  217.8840 N   0  0  0  0  0  0  0  0  0  0  0  0
  142.2280   79.1390  218.5670 C   0  0  0  0  0  0  0  0  0  0  0  0
  141.7900   79.3330  219.7200 O   0  0  0  0  0  0  0  0  0  0  0  0
  142.2220   77.8580  217.8400 C   0  0  0  0  0  0  0  0  0  0  0  0
  141.6040   76.7100  218.5960 C   0  0  0  0  0  0  0  0  0  0  0  0
  142.5190   76.2550  219.6770 C   0  0  0  0  0  0  0  0  0  0  0  0
  142.0040   75.0820  220.4280 C   0  0  0  0  0  0  0  0  0  0  0  0
  142.5550   73.8060  220.2580 C   0  0  0  0  0  0  0  0  0  0  0  0
  142.0810   72.7510  220.9250 N   0  0  0  0  0  0  0  0  0  0  0  0
  141.0410   72.8590  221.7980 C   0  0  0  0  0  0  0  0  0  0  0  0
  140.5340   71.7370  222.5080 N   0  0  0  0  0  0  0  0  0  0  0  0
  139.5620   70.8370  221.9050 C   0  0  0  0  0  0  0  0  0  0  0  0
  138.3620   70.8550  222.8550 C   0  0  0  0  0  0  0  0  0  0  0  0
  138.8580   70.3300  224.1660 C   0  0  0  0  0  0  0  0  0  0  0  0
  137.9880   69.5110  224.8880 C   0  0  0  0  0  0  0  0  0  0  0  0
  138.4480   69.0270  226.0980 C   0  0  0  0  0  0  0  0  0  0  0  0
  139.7070   69.3320  226.5790 C   0  0  0  0  0  0  0  0  0  0  0  0
  140.5650   70.1540  225.8430 C   0  0  0  0  0  0  0  0  0  0  0  0
  140.1060   70.6290  224.6490 C   0  0  0  0  0  0  0  0  0  0  0  0
  141.0050   71.5090  223.8440 C   0  0  0  0  0  0  0  0  0  0  0  0
  140.5000   74.0670  221.9750 N   0  0  0  0  0  0  0  0  0  0  0  0
  140.9550   75.1740  221.3130 C   0  0  0  0  0  0  0  0  0  0  0  0
  140.2810   76.3840  221.6220 N   0  0  0  0  0  0  0  0  0  0  0  0
  138.9010   76.6530  221.3860 C   0  0  0  0  0  0  0  0  0  0  0  0
  138.2380   77.1930  222.6570 C   0  0  0  0  0  0  0  0  0  0  0  0
  138.9270   78.4850  223.0140 C   0  0  0  0  0  0  0  0  0  0  0  0
  138.2230   79.5540  223.5380 C   0  0  0  0  0  0  0  0  0  0  0  0
  138.8600   80.7310  223.8590 C   0  0  0  0  0  0  0  0  0  0  0  0
  140.2330   80.7910  223.6320 C   0  0  0  0  0  0  0  0  0  0  0  0
  140.9290   79.7120  223.1040 C   0  0  0  0  0  0  0  0  0  0  0  0
  140.2790   78.5240  222.7820 C   0  0  0  0  0  0  0  0  0  0  0  0
  141.0860   77.4360  222.2320 C   0  0  0  0  0  0  0  0  0  0  0  0
  142.2950   81.1880  218.0000 H   0  0  0  0  0  0  0  0  0  0  0  0
  143.6550   80.1990  217.3010 H   0  0  0  0  0  0  0  0  0  0  0  0
  141.6583   77.9965  216.9056 H   0  0  0  0  0  0  0  0  0  0  0  0
  143.2756   77.5897  217.6728 H   0  0  0  0  0  0  0  0  0  0  0  0
  140.6521   77.0375  219.0395 H   0  0  0  0  0  0  0  0  0  0  0  0
  141.4272   75.8761  217.9007 H   0  0  0  0  0  0  0  0  0  0  0  0
  143.4848   75.9839  219.2257 H   0  0  0  0  0  0  0  0  0  0  0  0
  142.6142   77.0842  220.3935 H   0  0  0  0  0  0  0  0  0  0  0  0
  143.3951   73.6701  219.5610 H   0  0  0  0  0  0  0  0  0  0  0  0
  139.2702   71.1957  220.9069 H   0  0  0  0  0  0  0  0  0  0  0  0
  139.9664   69.8230  221.7697 H   0  0  0  0  0  0  0  0  0  0  0  0
  137.9851   71.8816  222.9736 H   0  0  0  0  0  0  0  0  0  0  0  0
  137.5343   70.2437  222.4662 H   0  0  0  0  0  0  0  0  0  0  0  0
  136.9845   69.2628  224.5119 H   0  0  0  0  0  0  0  0  0  0  0  0
  137.7914   68.3787  226.6969 H   0  0  0  0  0  0  0  0  0  0  0  0
  140.0359   68.9255  227.5468 H   0  0  0  0  0  0  0  0  0  0  0  0
  141.5699   70.4078  226.2115 H   0  0  0  0  0  0  0  0  0  0  0  0
  141.0901   72.4799  224.3539 H   0  0  0  0  0  0  0  0  0  0  0  0
  141.9741   70.9950  223.7628 H   0  0  0  0  0  0  0  0  0  0  0  0
  138.8092   77.4000  220.5838 H   0  0  0  0  0  0  0  0  0  0  0  0
  138.4004   75.7189  221.0913 H   0  0  0  0  0  0  0  0  0  0  0  0
  137.1688   77.3757  222.4742 H   0  0  0  0  0  0  0  0  0  0  0  0
  138.3268   76.4669  223.4785 H   0  0  0  0  0  0  0  0  0  0  0  0
  137.1389   79.4622  223.7004 H   0  0  0  0  0  0  0  0  0  0  0  0
  138.3091   81.5867  224.2764 H   0  0  0  0  0  0  0  0  0  0  0  0
  140.7783   81.7145  223.8767 H   0  0  0  0  0  0  0  0  0  0  0  0
  142.0129   79.7974  222.9372 H   0  0  0  0  0  0  0  0  0  0  0  0
  141.7594   77.8505  221.4673 H   0  0  0  0  0  0  0  0  0  0  0  0
  141.6424   76.9838  223.0662 H   0  0  0  0  0  0  0  0  0  0  0  0
  1  2  1  0
  2  3  2  0
  2  4  1  0
  4  5  1  0
  5  6  1  0
  6  7  1  0
  7  8  2  0
  8  9  1  0
  9 10  2  0
 10 11  1  0
 11 12  1  0
 12 13  1  0
 13 14  1  0
 14 15  2  0
 15 16  1  0
 16 17  2  0
 17 18  1  0
 18 19  2  0
 19 20  1  0
 10 21  1  0
 21 22  2  0
 22 23  1  0
 23 24  1  0
 24 25  1  0
 25 26  1  0
 26 27  2  0
 27 28  1  0
 28 29  2  0
 29 30  1  0
 30 31  2  0
 31 32  1  0
 22  7  1  0
 32 23  1  0
 20 11  1  0
 31 26  1  0
 19 14  1  0
  1 33  1  0
  1 34  1  0
  4 35  1  0
  4 36  1  0
  5 37  1  0
  5 38  1  0
  6 39  1  0
  6 40  1  0
  8 41  1  0
 12 42  1  0
 12 43  1  0
 13 44  1  0
 13 45  1  0
 15 46  1  0
 16 47  1  0
 17 48  1  0
 18 49  1  0
 20 50  1  0
 20 51  1  0
 24 52  1  0
 24 53  1  0
 25 54  1  0
 25 55  1  0
 27 56  1  0
 28 57  1  0
 29 58  1  0
 30 59  1  0
 32 60  1  0
 32 61  1  0
M  END
>  <smiles>  (41) 
NC(=O)CCCc1cnc(N2CCc3ccccc3C2)nc1N1CCc2ccccc2C1

>  <score_type>  (41) 
oracle

>  <origin>  (41) 
autodockgpu

>  <m_score__min__energy>  (41) 
-9.2200000000000006

>  <m_primary>  (41) 
energy

>  <rmsd>  (41) 
3.3227703080819744

>  <m_score__min__rmsd>  (41) 
3.3227703080819744

>  <meeko>  (41) 
{"free_energy": -8.14, "intermolecular_energy": -9.93, "internal_energy": -1.43, "cluster_size": 6, "cluster_id": 3, "rank_in_cluster": 4}

>  <energy>  (41) 
-8.08

>  <cluster_rmsd>  (41) 
1.34

>  <cluster>  (41) 
2

$$$$

     RDKit          3D

 61 65  0  0  0  0  0  0  0  0999 V2000
  142.9560   77.1600  219.2680 N   0  0  0  0  0  0  0  0  0  0  0  0
  143.2890   75.8020  219.6260 C   0  0  0  0  0  0  0  0  0  0  0  0
  144.4290   75.6050  220.0940 O   0  0  0  0  0  0  0  0  0  0  0  0
  142.2520   74.7800  219.4050 C   0  0  0  0  0  0  0  0  0  0  0  0
  141.1690   75.1840  218.4380 C   0  0  0  0  0  0  0  0  0  0  0  0
  139.8790   74.5460  218.8150 C   0  0  0  0  0  0  0  0  0  0  0  0
  139.9730   73.7070  220.0370 C   0  0  0  0  0  0  0  0  0  0  0  0
  140.1320   72.3190  219.9590 C   0  0  0  0  0  0  0  0  0  0  0  0
  140.2030   71.5660  221.0600 N   0  0  0  0  0  0  0  0  0  0  0  0
  140.1230   72.1050  222.3080 C   0  0  0  0  0  0  0  0  0  0  0  0
  140.1970   71.3060  223.4810 N   0  0  0  0  0  0  0  0  0  0  0  0
  139.7270   69.9290  223.4880 C   0  0  0  0  0  0  0  0  0  0  0  0
  138.6720   69.8760  224.5960 C   0  0  0  0  0  0  0  0  0  0  0  0
  139.3830   70.2210  225.8680 C   0  0  0  0  0  0  0  0  0  0  0  0
  138.9960   69.5260  227.0150 C   0  0  0  0  0  0  0  0  0  0  0  0
  139.6540   69.8460  228.1870 C   0  0  0  0  0  0  0  0  0  0  0  0
  140.6470   70.8050  228.2330 C   0  0  0  0  0  0  0  0  0  0  0  0
  141.0210   71.4920  227.0750 C   0  0  0  0  0  0  0  0  0  0  0  0
  140.3690   71.1720  225.9200 C   0  0  0  0  0  0  0  0  0  0  0  0
  140.7510   71.8910  224.6680 C   0  0  0  0  0  0  0  0  0  0  0  0
  139.9720   73.4290  222.4050 N   0  0  0  0  0  0  0  0  0  0  0  0
  139.8950   74.2360  221.3040 C   0  0  0  0  0  0  0  0  0  0  0  0
  139.7470   75.6210  221.5780 N   0  0  0  0  0  0  0  0  0  0  0  0
  138.5550   76.3830  221.4030 C   0  0  0  0  0  0  0  0  0  0  0  0
  138.2360   77.1750  222.6750 C   0  0  0  0  0  0  0  0  0  0  0  0
  139.3830   78.1230  222.9180 C   0  0  0  0  0  0  0  0  0  0  0  0
  139.1700   79.3950  223.4170 C   0  0  0  0  0  0  0  0  0  0  0  0
  140.2220   80.2550  223.6330 C   0  0  0  0  0  0  0  0  0  0  0  0
  141.4980   79.7850  223.3280 C   0  0  0  0  0  0  0  0  0  0  0  0
  141.6990   78.5060  222.8270 C   0  0  0  0  0  0  0  0  0  0  0  0
  140.6310   77.6410  222.6100 C   0  0  0  0  0  0  0  0  0  0  0  0
  140.9290   76.3110  222.0820 C   0  0  0  0  0  0  0  0  0  0  0  0
  143.2820   77.9090  219.9190 H   0  0  0  0  0  0  0  0  0  0  0  0
  142.4170   77.3880  218.4040 H   0  0  0  0  0  0  0  0  0  0  0  0
  142.7401   73.8747  219.0148 H   0  0  0  0  0  0  0  0  0  0  0  0
  141.7596   74.6205  220.3756 H   0  0  0  0  0  0  0  0  0  0  0  0
  141.0531   76.2777  218.4586 H   0  0  0  0  0  0  0  0  0  0  0  0
  141.4500   74.8549  217.4267 H   0  0  0  0  0  0  0  0  0  0  0  0
  139.1364   75.3380  218.9917 H   0  0  0  0  0  0  0  0  0  0  0  0
  139.5892   73.8831  217.9864 H   0  0  0  0  0  0  0  0  0  0  0  0
  140.1998   71.8386  218.9718 H   0  0  0  0  0  0  0  0  0  0  0  0
  139.2812   69.6677  222.5169 H   0  0  0  0  0  0  0  0  0  0  0  0
  140.5448   69.2142  223.6617 H   0  0  0  0  0  0  0  0  0  0  0  0
  137.8727   70.6048  224.3964 H   0  0  0  0  0  0  0  0  0  0  0  0
  138.2036   68.8825  224.6558 H   0  0  0  0  0  0  0  0  0  0  0  0
  138.2060   68.7611  226.9872 H   0  0  0  0  0  0  0  0  0  0  0  0
  139.3783   69.3202  229.1130 H   0  0  0  0  0  0  0  0  0  0  0  0
  141.1465   71.0293  229.1870 H   0  0  0  0  0  0  0  0  0  0  0  0
  141.8089   72.2594  227.0939 H   0  0  0  0  0  0  0  0  0  0  0  0
  140.3979   72.9302  224.7416 H   0  0  0  0  0  0  0  0  0  0  0  0
  141.8456   71.8279  224.5795 H   0  0  0  0  0  0  0  0  0  0  0  0
  138.6917   77.0825  220.5652 H   0  0  0  0  0  0  0  0  0  0  0  0
  137.7212   75.6976  221.1909 H   0  0  0  0  0  0  0  0  0  0  0  0
  137.3026   77.7414  222.5407 H   0  0  0  0  0  0  0  0  0  0  0  0
  138.1057   76.4969  223.5313 H   0  0  0  0  0  0  0  0  0  0  0  0
  138.1452   79.7238  223.6444 H   0  0  0  0  0  0  0  0  0  0  0  0
  140.0629   81.2689  224.0290 H   0  0  0  0  0  0  0  0  0  0  0  0
  142.3655   80.4423  223.4878 H   0  0  0  0  0  0  0  0  0  0  0  0
  142.7211   78.1704  222.5974 H   0  0  0  0  0  0  0  0  0  0  0  0
  141.6522   76.4141  221.2596 H   0  0  0  0  0  0  0  0  0  0  0  0
  141.3329   75.7105  222.9104 H   0  0  0  0  0  0  0  0  0  0  0  0
  1  2  1  0
  2  3  2  0
  2  4  1  0
  4  5  1  0
  5  6  1  0
  6  7  1  0
  7  8  2  0
  8  9  1  0
  9 10  2  0
 10 11  1  0
 11 12  1  0
 12 13  1  0
 13 14  1  0
 14 15  2  0
 15 16  1  0
 16 17  2  0
 17 18  1  0
 18 19  2  0
 19 20  1  0
 10 21  1  0
 21 22  2  0
 22 23  1  0
 23 24  1  0
 24 25  1  0
 25 26  1  0
 26 27  2  0
 27 28  1  0
 28 29  2  0
 29 30  1  0
 30 31  2  0
 31 32  1  0
 22  7  1  0
 32 23  1  0
 20 11  1  0
 31 26  1  0
 19 14  1  0
  1 33  1  0
  1 34  1  0
  4 35  1  0
  4 36  1  0
  5 37  1  0
  5 38  1  0
  6 39  1  0
  6 40  1  0
  8 41  1  0
 12 42  1  0
 12 43  1  0
 13 44  1  0
 13 45  1  0
 15 46  1  0
 16 47  1  0
 17 48  1  0
 18 49  1  0
 20 50  1  0
 20 51  1  0
 24 52  1  0
 24 53  1  0
 25 54  1  0
 25 55  1  0
 27 56  1  0
 28 57  1  0
 29 58  1  0
 30 59  1  0
 32 60  1  0
 32 61  1  0
M  END
>  <smiles>  (42) 
NC(=O)CCCc1cnc(N2CCc3ccccc3C2)nc1N1CCc2ccccc2C1

>  <score_type>  (42) 
oracle

>  <origin>  (42) 
autodockgpu

>  <m_score__min__energy>  (42) 
-9.2200000000000006

>  <m_primary>  (42) 
energy

>  <rmsd>  (42) 
3.429806728883058

>  <m_score__min__rmsd>  (42) 
3.429806728883058

>  <meeko>  (42) 
{"free_energy": -8.56, "intermolecular_energy": -10.35, "internal_energy": -1.43, "cluster_size": 27, "cluster_id": 1, "rank_in_cluster": 24}

>  <energy>  (42) 
-8.46

>  <cluster_rmsd>  (42) 
0.0

>  <cluster>  (42) 
3

$$$$

     RDKit          3D

 61 65  0  0  0  0  0  0  0  0999 V2000
  143.6130   76.7640  219.8200 N   0  0  0  0  0  0  0  0  0  0  0  0
  142.9400   75.5010  219.6370 C   0  0  0  0  0  0  0  0  0  0  0  0
  143.2030   74.5980  220.4580 O   0  0  0  0  0  0  0  0  0  0  0  0
  142.0080   75.3990  218.5010 C   0  0  0  0  0  0  0  0  0  0  0  0
  140.6070   75.8670  218.7960 C   0  0  0  0  0  0  0  0  0  0  0  0
  139.6660   74.7150  218.7830 C   0  0  0  0  0  0  0  0  0  0  0  0
  139.7890   73.8430  219.9780 C   0  0  0  0  0  0  0  0  0  0  0  0
  139.9110   72.4530  219.8590 C   0  0  0  0  0  0  0  0  0  0  0  0
  140.0070   71.6700  220.9370 N   0  0  0  0  0  0  0  0  0  0  0  0
  139.9900   72.1790  222.2010 C   0  0  0  0  0  0  0  0  0  0  0  0
  140.0920   71.3480  223.3490 N   0  0  0  0  0  0  0  0  0  0  0  0
  139.6050   69.9760  223.3350 C   0  0  0  0  0  0  0  0  0  0  0  0
  138.5860   69.9060  224.4740 C   0  0  0  0  0  0  0  0  0  0  0  0
  139.3400   70.2090  225.7310 C   0  0  0  0  0  0  0  0  0  0  0  0
  138.9820   69.4880  226.8710 C   0  0  0  0  0  0  0  0  0  0  0  0
  139.6800   69.7680  228.0300 C   0  0  0  0  0  0  0  0  0  0  0  0
  140.6870   70.7150  228.0700 C   0  0  0  0  0  0  0  0  0  0  0  0
  141.0320   71.4280  226.9180 C   0  0  0  0  0  0  0  0  0  0  0  0
  140.3400   71.1470  225.7770 C   0  0  0  0  0  0  0  0  0  0  0  0
  140.6910   71.8950  224.5330 C   0  0  0  0  0  0  0  0  0  0  0  0
  139.8750   73.5030  222.3370 N   0  0  0  0  0  0  0  0  0  0  0  0
  139.7740   74.3400  221.2600 C   0  0  0  0  0  0  0  0  0  0  0  0
  139.6700   75.7200  221.5750 N   0  0  0  0  0  0  0  0  0  0  0  0
  138.5080   76.5290  221.4070 C   0  0  0  0  0  0  0  0  0  0  0  0
  138.1990   77.2930  222.6980 C   0  0  0  0  0  0  0  0  0  0  0  0
  139.3740   78.1910  222.9860 C   0  0  0  0  0  0  0  0  0  0  0  0
  139.1980   79.4550  223.5210 C   0  0  0  0  0  0  0  0  0  0  0  0
  140.2770   80.2700  223.7780 C   0  0  0  0  0  0  0  0  0  0  0  0
  141.5390   79.7650  223.4760 C   0  0  0  0  0  0  0  0  0  0  0  0
  141.7040   78.4950  222.9380 C   0  0  0  0  0  0  0  0  0  0  0  0
  140.6090   77.6760  222.6810 C   0  0  0  0  0  0  0  0  0  0  0  0
  140.8680   76.3530  222.1160 C   0  0  0  0  0  0  0  0  0  0  0  0
  143.7180   77.1020  220.8020 H   0  0  0  0  0  0  0  0  0  0  0  0
  143.9810   77.3160  219.0130 H   0  0  0  0  0  0  0  0  0  0  0  0
  142.4060   76.0066  217.6749 H   0  0  0  0  0  0  0  0  0  0  0  0
  141.9341   74.3298  218.2532 H   0  0  0  0  0  0  0  0  0  0  0  0
  140.5844   76.3432  219.7873 H   0  0  0  0  0  0  0  0  0  0  0  0
  140.3004   76.5890  218.0248 H   0  0  0  0  0  0  0  0  0  0  0  0
  138.6381   75.1043  218.7391 H   0  0  0  0  0  0  0  0  0  0  0  0
  139.9145   74.1011  217.9047 H   0  0  0  0  0  0  0  0  0  0  0  0
  139.9281   71.9970  218.8581 H   0  0  0  0  0  0  0  0  0  0  0  0
  139.1252   69.7458  222.3723 H   0  0  0  0  0  0  0  0  0  0  0  0
  140.4189   69.2473  223.4634 H   0  0  0  0  0  0  0  0  0  0  0  0
  137.7897   70.6489  224.3189 H   0  0  0  0  0  0  0  0  0  0  0  0
  138.1082   68.9164  224.5229 H   0  0  0  0  0  0  0  0  0  0  0  0
  138.1824   68.7329  226.8479 H   0  0  0  0  0  0  0  0  0  0  0  0
  139.4268   69.2205  228.9498 H   0  0  0  0  0  0  0  0  0  0  0  0
  141.2193   70.9082  229.0131 H   0  0  0  0  0  0  0  0  0  0  0  0
  141.8297   72.1853  226.9314 H   0  0  0  0  0  0  0  0  0  0  0  0
  140.3532   72.9358  224.6453 H   0  0  0  0  0  0  0  0  0  0  0  0
  141.7814   71.8220  224.4078 H   0  0  0  0  0  0  0  0  0  0  0  0
  138.6814   77.2481  220.5928 H   0  0  0  0  0  0  0  0  0  0  0  0
  137.6537   75.8806  221.1626 H   0  0  0  0  0  0  0  0  0  0  0  0
  137.2883   77.8962  222.5684 H   0  0  0  0  0  0  0  0  0  0  0  0
  138.0326   76.5941  223.5310 H   0  0  0  0  0  0  0  0  0  0  0  0
  138.1821   79.8133  223.7439 H   0  0  0  0  0  0  0  0  0  0  0  0
  140.1480   81.2762  224.2033 H   0  0  0  0  0  0  0  0  0  0  0  0
  142.4262   80.3864  223.6680 H   0  0  0  0  0  0  0  0  0  0  0  0
  142.7169   78.1308  222.7115 H   0  0  0  0  0  0  0  0  0  0  0  0
  141.6061   76.4557  221.3069 H   0  0  0  0  0  0  0  0  0  0  0  0
  141.2386   75.7138  222.9309 H   0  0  0  0  0  0  0  0  0  0  0  0
  1  2  1  0
  2  3  2  0
  2  4  1  0
  4  5  1  0
  5  6  1  0
  6  7  1  0
  7  8  2  0
  8  9  1  0
  9 10  2  0
 10 11  1  0
 11 12  1  0
 12 13  1  0
 13 14  1  0
 14 15  2  0
 15 16  1  0
 16 17  2  0
 17 18  1  0
 18 19  2  0
 19 20  1  0
 10 21  1  0
 21 22  2  0
 22 23  1  0
 23 24  1  0
 24 25  1  0
 25 26  1  0
 26 27  2  0
 27 28  1  0
 28 29  2  0
 29 30  1  0
 30 31  2  0
 31 32  1  0
 22  7  1  0
 32 23  1  0
 20 11  1  0
 31 26  1  0
 19 14  1  0
  1 33  1  0
  1 34  1  0
  4 35  1  0
  4 36  1  0
  5 37  1  0
  5 38  1  0
  6 39  1  0
  6 40  1  0
  8 41  1  0
 12 42  1  0
 12 43  1  0
 13 44  1  0
 13 45  1  0
 15 46  1  0
 16 47  1  0
 17 48  1  0
 18 49  1  0
 20 50  1  0
 20 51  1  0
 24 52  1  0
 24 53  1  0
 25 54  1  0
 25 55  1  0
 27 56  1  0
 28 57  1  0
 29 58  1  0
 30 59  1  0
 32 60  1  0
 32 61  1  0
M  END
>  <smiles>  (43) 
NC(=O)CCCc1cnc(N2CCc3ccccc3C2)nc1N1CCc2ccccc2C1

>  <score_type>  (43) 
oracle

>  <origin>  (43) 
autodockgpu

>  <m_score__min__energy>  (43) 
-9.2200000000000006

>  <m_primary>  (43) 
energy

>  <rmsd>  (43) 
3.4679124003222856

>  <m_score__min__rmsd>  (43) 
3.4679124003222856

>  <meeko>  (43) 
{"free_energy": -8.87, "intermolecular_energy": -10.66, "internal_energy": -1.6, "cluster_size": 27, "cluster_id": 1, "rank_in_cluster": 6}

>  <energy>  (43) 
-8.38

>  <cluster_rmsd>  (43) 
0.43

>  <cluster>  (43) 
3

$$$$

     RDKit          3D

 61 65  0  0  0  0  0  0  0  0999 V2000
  145.1760   74.2790  220.3290 N   0  0  0  0  0  0  0  0  0  0  0  0
  145.3460   72.8980  219.9510 C   0  0  0  0  0  0  0  0  0  0  0  0
  146.2630   72.6440  219.1410 O   0  0  0  0  0  0  0  0  0  0  0  0
  144.4250   71.9210  220.5540 C   0  0  0  0  0  0  0  0  0  0  0  0
  143.1690   71.6700  219.7610 C   0  0  0  0  0  0  0  0  0  0  0  0
  141.9830   71.6760  220.6600 C   0  0  0  0  0  0  0  0  0  0  0  0
  141.4870   73.0400  220.9690 C   0  0  0  0  0  0  0  0  0  0  0  0
  141.9590   74.1630  220.2800 C   0  0  0  0  0  0  0  0  0  0  0  0
  141.5210   75.3910  220.5700 N   0  0  0  0  0  0  0  0  0  0  0  0
  140.5990   75.6140  221.5480 C   0  0  0  0  0  0  0  0  0  0  0  0
  140.1310   76.9190  221.8600 N   0  0  0  0  0  0  0  0  0  0  0  0
  141.0250   78.0670  221.8390 C   0  0  0  0  0  0  0  0  0  0  0  0
  140.9340   78.6670  223.2440 C   0  0  0  0  0  0  0  0  0  0  0  0
  139.5080   79.0840  223.4300 C   0  0  0  0  0  0  0  0  0  0  0  0
  139.2840   80.2700  224.1290 C   0  0  0  0  0  0  0  0  0  0  0  0
  137.9670   80.6540  224.2990 C   0  0  0  0  0  0  0  0  0  0  0  0
  136.9160   79.9060  223.8040 C   0  0  0  0  0  0  0  0  0  0  0  0
  137.1590   78.7200  223.1060 C   0  0  0  0  0  0  0  0  0  0  0  0
  138.4600   78.3460  222.9410 C   0  0  0  0  0  0  0  0  0  0  0  0
  138.7460   77.0830  222.1980 C   0  0  0  0  0  0  0  0  0  0  0  0
  140.1350   74.5560  222.2190 N   0  0  0  0  0  0  0  0  0  0  0  0
  140.5570   73.2820  221.9530 C   0  0  0  0  0  0  0  0  0  0  0  0
  139.9580   72.2690  222.7460 N   0  0  0  0  0  0  0  0  0  0  0  0
  138.7160   71.6230  222.4750 C   0  0  0  0  0  0  0  0  0  0  0  0
  138.8820   70.1010  222.5390 C   0  0  0  0  0  0  0  0  0  0  0  0
  139.3130   69.7510  223.9410 C   0  0  0  0  0  0  0  0  0  0  0  0
  138.8590   68.6030  224.5660 C   0  0  0  0  0  0  0  0  0  0  0  0
  139.2540   68.2920  225.8470 C   0  0  0  0  0  0  0  0  0  0  0  0
  140.1250   69.1810  226.4740 C   0  0  0  0  0  0  0  0  0  0  0  0
  140.5740   70.3300  225.8370 C   0  0  0  0  0  0  0  0  0  0  0  0
  140.1690   70.6390  224.5420 C   0  0  0  0  0  0  0  0  0  0  0  0
  140.6890   71.8670  223.9420 C   0  0  0  0  0  0  0  0  0  0  0  0
  146.0470   74.8330  220.4890 H   0  0  0  0  0  0  0  0  0  0  0  0
  144.2310   74.7090  220.4400 H   0  0  0  0  0  0  0  0  0  0  0  0
  144.9600   70.9658  220.6606 H   0  0  0  0  0  0  0  0  0  0  0  0
  144.1057   72.3468  221.5167 H   0  0  0  0  0  0  0  0  0  0  0  0
  143.0543   72.4589  219.0030 H   0  0  0  0  0  0  0  0  0  0  0  0
  143.2437   70.6873  219.2724 H   0  0  0  0  0  0  0  0  0  0  0  0
  141.1734   71.1121  220.1736 H   0  0  0  0  0  0  0  0  0  0  0  0
  142.2932   71.2191  221.6113 H   0  0  0  0  0  0  0  0  0  0  0  0
  142.7060   74.0316  219.4833 H   0  0  0  0  0  0  0  0  0  0  0  0
  142.0554   77.7504  221.6200 H   0  0  0  0  0  0  0  0  0  0  0  0
  140.7461   78.7932  221.0612 H   0  0  0  0  0  0  0  0  0  0  0  0
  141.2129   77.9161  223.9979 H   0  0  0  0  0  0  0  0  0  0  0  0
  141.6189   79.5199  223.3602 H   0  0  0  0  0  0  0  0  0  0  0  0
  140.1154   80.8709  224.5259 H   0  0  0  0  0  0  0  0  0  0  0  0
  137.7490   81.5836  224.8451 H   0  0  0  0  0  0  0  0  0  0  0  0
  135.8817   80.2462  223.9603 H   0  0  0  0  0  0  0  0  0  0  0  0
  136.3340   78.1125  222.7057 H   0  0  0  0  0  0  0  0  0  0  0  0
  138.4374   76.2330  222.8244 H   0  0  0  0  0  0  0  0  0  0  0  0
  138.1855   77.1296  221.2527 H   0  0  0  0  0  0  0  0  0  0  0  0
  137.9725   71.9385  223.2218 H   0  0  0  0  0  0  0  0  0  0  0  0
  138.3798   71.9038  221.4660 H   0  0  0  0  0  0  0  0  0  0  0  0
  137.9263   69.6088  222.3059 H   0  0  0  0  0  0  0  0  0  0  0  0
  139.6301   69.7616  221.8074 H   0  0  0  0  0  0  0  0  0  0  0  0
  138.1728   67.9296  224.0315 H   0  0  0  0  0  0  0  0  0  0  0  0
  138.8982   67.3826  226.3533 H   0  0  0  0  0  0  0  0  0  0  0  0
  140.4649   68.9672  227.4981 H   0  0  0  0  0  0  0  0  0  0  0  0
  141.2614   71.0074  226.3648 H   0  0  0  0  0  0  0  0  0  0  0  0
  140.6202   72.6763  224.6838 H   0  0  0  0  0  0  0  0  0  0  0  0
  141.7295   71.6727  223.6427 H   0  0  0  0  0  0  0  0  0  0  0  0
  1  2  1  0
  2  3  2  0
  2  4  1  0
  4  5  1  0
  5  6  1  0
  6  7  1  0
  7  8  2  0
  8  9  1  0
  9 10  2  0
 10 11  1  0
 11 12  1  0
 12 13  1  0
 13 14  1  0
 14 15  2  0
 15 16  1  0
 16 17  2  0
 17 18  1  0
 18 19  2  0
 19 20  1  0
 10 21  1  0
 21 22  2  0
 22 23  1  0
 23 24  1  0
 24 25  1  0
 25 26  1  0
 26 27  2  0
 27 28  1  0
 28 29  2  0
 29 30  1  0
 30 31  2  0
 31 32  1  0
 22  7  1  0
 32 23  1  0
 20 11  1  0
 31 26  1  0
 19 14  1  0
  1 33  1  0
  1 34  1  0
  4 35  1  0
  4 36  1  0
  5 37  1  0
  5 38  1  0
  6 39  1  0
  6 40  1  0
  8 41  1  0
 12 42  1  0
 12 43  1  0
 13 44  1  0
 13 45  1  0
 15 46  1  0
 16 47  1  0
 17 48  1  0
 18 49  1  0
 20 50  1  0
 20 51  1  0
 24 52  1  0
 24 53  1  0
 25 54  1  0
 25 55  1  0
 27 56  1  0
 28 57  1  0
 29 58  1  0
 30 59  1  0
 32 60  1  0
 32 61  1  0
M  END
>  <smiles>  (44) 
NC(=O)CCCc1cnc(N2CCc3ccccc3C2)nc1N1CCc2ccccc2C1

>  <score_type>  (44) 
oracle

>  <origin>  (44) 
autodockgpu

>  <m_score__min__energy>  (44) 
-9.2200000000000006

>  <m_primary>  (44) 
energy

>  <rmsd>  (44) 
9.904688618642378

>  <m_score__min__rmsd>  (44) 
9.904688618642378

>  <meeko>  (44) 
{"free_energy": -8.83, "intermolecular_energy": -10.62, "internal_energy": -1.25, "cluster_size": 27, "cluster_id": 1, "rank_in_cluster": 8}

>  <energy>  (44) 
-8.37

>  <cluster_rmsd>  (44) 
0.44

>  <cluster>  (44) 
3

$$$$

     RDKit          3D

 61 65  0  0  0  0  0  0  0  0999 V2000
  143.5720   76.3440  219.5100 N   0  0  0  0  0  0  0  0  0  0  0  0
  144.0550   75.0520  219.9310 C   0  0  0  0  0  0  0  0  0  0  0  0
  145.1460   75.0270  220.5370 O   0  0  0  0  0  0  0  0  0  0  0  0
  143.2160   73.8860  219.6050 C   0  0  0  0  0  0  0  0  0  0  0  0
  142.1990   74.1300  218.5190 C   0  0  0  0  0  0  0  0  0  0  0  0
  140.8360   74.2310  219.1050 C   0  0  0  0  0  0  0  0  0  0  0  0
  140.6880   73.4870  220.3820 C   0  0  0  0  0  0  0  0  0  0  0  0
  140.9520   72.1150  220.4630 C   0  0  0  0  0  0  0  0  0  0  0  0
  140.8050   71.4460  221.6090 N   0  0  0  0  0  0  0  0  0  0  0  0
  140.3910   72.0600  222.7530 C   0  0  0  0  0  0  0  0  0  0  0  0
  140.2330   71.3500  223.9740 N   0  0  0  0  0  0  0  0  0  0  0  0
  140.7720   71.8660  225.2240 C   0  0  0  0  0  0  0  0  0  0  0  0
  141.7020   70.7660  225.7390 C   0  0  0  0  0  0  0  0  0  0  0  0
  140.8410   69.5620  225.9670 C   0  0  0  0  0  0  0  0  0  0  0  0
  141.1370   68.7770  227.0820 C   0  0  0  0  0  0  0  0  0  0  0  0
  140.3410   67.6660  227.2910 C   0  0  0  0  0  0  0  0  0  0  0  0
  139.2990   67.3410  226.4430 C   0  0  0  0  0  0  0  0  0  0  0  0
  139.0170   68.1390  225.3310 C   0  0  0  0  0  0  0  0  0  0  0  0
  139.8060   69.2340  225.1290 C   0  0  0  0  0  0  0  0  0  0  0  0
  139.5240   70.1030  223.9480 C   0  0  0  0  0  0  0  0  0  0  0  0
  140.1340   73.3690  222.6990 N   0  0  0  0  0  0  0  0  0  0  0  0
  140.2720   74.0920  221.5450 C   0  0  0  0  0  0  0  0  0  0  0  0
  139.9720   75.4740  221.6580 N   0  0  0  0  0  0  0  0  0  0  0  0
  138.6920   76.0690  221.4520 C   0  0  0  0  0  0  0  0  0  0  0  0
  138.3290   76.9740  222.6340 C   0  0  0  0  0  0  0  0  0  0  0  0
  139.3630   78.0670  222.7030 C   0  0  0  0  0  0  0  0  0  0  0  0
  139.0200   79.3600  223.0550 C   0  0  0  0  0  0  0  0  0  0  0  0
  139.9710   80.3540  223.1120 C   0  0  0  0  0  0  0  0  0  0  0  0
  141.2800   79.9950  222.8020 C   0  0  0  0  0  0  0  0  0  0  0  0
  141.6140   78.6940  222.4490 C   0  0  0  0  0  0  0  0  0  0  0  0
  140.6470   77.6950  222.3920 C   0  0  0  0  0  0  0  0  0  0  0  0
  141.0820   76.3510  222.0140 C   0  0  0  0  0  0  0  0  0  0  0  0
  143.7010   77.1350  220.1810 H   0  0  0  0  0  0  0  0  0  0  0  0
  143.1150   76.4890  218.5830 H   0  0  0  0  0  0  0  0  0  0  0  0
  143.8760   73.0683  219.2798 H   0  0  0  0  0  0  0  0  0  0  0  0
  142.6484   73.6452  220.5160 H   0  0  0  0  0  0  0  0  0  0  0  0
  142.4412   75.0684  217.9986 H   0  0  0  0  0  0  0  0  0  0  0  0
  142.2232   73.2899  217.8093 H   0  0  0  0  0  0  0  0  0  0  0  0
  140.6141   75.2921  219.2916 H   0  0  0  0  0  0  0  0  0  0  0  0
  140.1375   73.7816  218.3837 H   0  0  0  0  0  0  0  0  0  0  0  0
  141.2874   71.5769  219.5642 H   0  0  0  0  0  0  0  0  0  0  0  0
  141.3331   72.7957  225.0484 H   0  0  0  0  0  0  0  0  0  0  0  0
  139.9790   72.1082  225.9468 H   0  0  0  0  0  0  0  0  0  0  0  0
  142.4787   70.5433  224.9926 H   0  0  0  0  0  0  0  0  0  0  0  0
  142.2127   71.0738  226.6634 H   0  0  0  0  0  0  0  0  0  0  0  0
  141.9638   69.0299  227.7620 H   0  0  0  0  0  0  0  0  0  0  0  0
  140.5432   67.0209  228.1588 H   0  0  0  0  0  0  0  0  0  0  0  0
  138.6880   66.4488  226.6447 H   0  0  0  0  0  0  0  0  0  0  0  0
  138.1920   67.8943  224.6458 H   0  0  0  0  0  0  0  0  0  0  0  0
  139.8120   69.5574  223.0373 H   0  0  0  0  0  0  0  0  0  0  0  0
  138.4501   70.3403  223.9694 H   0  0  0  0  0  0  0  0  0  0  0  0
  138.7147   76.6683  220.5299 H   0  0  0  0  0  0  0  0  0  0  0  0
  137.9375   75.2732  221.3661 H   0  0  0  0  0  0  0  0  0  0  0  0
  137.3311   77.4105  222.4800 H   0  0  0  0  0  0  0  0  0  0  0  0
  138.3114   76.3982  223.5711 H   0  0  0  0  0  0  0  0  0  0  0  0
  137.9726   79.5975  223.2927 H   0  0  0  0  0  0  0  0  0  0  0  0
  139.7084   81.3854  223.3900 H   0  0  0  0  0  0  0  0  0  0  0  0
  142.0690   80.7606  222.8375 H   0  0  0  0  0  0  0  0  0  0  0  0
  142.6596   78.4494  222.2107 H   0  0  0  0  0  0  0  0  0  0  0  0
  141.7574   76.4309  221.1494 H   0  0  0  0  0  0  0  0  0  0  0  0
  141.5848   75.9092  222.8869 H   0  0  0  0  0  0  0  0  0  0  0  0
  1  2  1  0
  2  3  2  0
  2  4  1  0
  4  5  1  0
  5  6  1  0
  6  7  1  0
  7  8  2  0
  8  9  1  0
  9 10  2  0
 10 11  1  0
 11 12  1  0
 12 13  1  0
 13 14  1  0
 14 15  2  0
 15 16  1  0
 16 17  2  0
 17 18  1  0
 18 19  2  0
 19 20  1  0
 10 21  1  0
 21 22  2  0
 22 23  1  0
 23 24  1  0
 24 25  1  0
 25 26  1  0
 26 27  2  0
 27 28  1  0
 28 29  2  0
 29 30  1  0
 30 31  2  0
 31 32  1  0
 22  7  1  0
 32 23  1  0
 20 11  1  0
 31 26  1  0
 19 14  1  0
  1 33  1  0
  1 34  1  0
  4 35  1  0
  4 36  1  0
  5 37  1  0
  5 38  1  0
  6 39  1  0
  6 40  1  0
  8 41  1  0
 12 42  1  0
 12 43  1  0
 13 44  1  0
 13 45  1  0
 15 46  1  0
 16 47  1  0
 17 48  1  0
 18 49  1  0
 20 50  1  0
 20 51  1  0
 24 52  1  0
 24 53  1  0
 25 54  1  0
 25 55  1  0
 27 56  1  0
 28 57  1  0
 29 58  1  0
 30 59  1  0
 32 60  1  0
 32 61  1  0
M  END
>  <smiles>  (45) 
NC(=O)CCCc1cnc(N2CCc3ccccc3C2)nc1N1CCc2ccccc2C1

>  <score_type>  (45) 
oracle

>  <origin>  (45) 
autodockgpu

>  <m_score__min__energy>  (45) 
-9.2200000000000006

>  <m_primary>  (45) 
energy

>  <rmsd>  (45) 
3.535285536467539

>  <m_score__min__rmsd>  (45) 
3.535285536467539

>  <meeko>  (45) 
{"free_energy": -8.87, "intermolecular_energy": -10.66, "internal_energy": -1.27, "cluster_size": 27, "cluster_id": 1, "rank_in_cluster": 7}

>  <energy>  (45) 
-8.14

>  <cluster_rmsd>  (45) 
1.83

>  <cluster>  (45) 
3

$$$$

     RDKit          3D

 61 65  0  0  0  0  0  0  0  0999 V2000
  136.9140   74.7350  223.0710 N   0  0  0  0  0  0  0  0  0  0  0  0
  136.1370   75.6600  222.2830 C   0  0  0  0  0  0  0  0  0  0  0  0
  134.8960   75.5300  222.3220 O   0  0  0  0  0  0  0  0  0  0  0  0
  136.8810   76.6680  221.5080 C   0  0  0  0  0  0  0  0  0  0  0  0
  136.9610   76.3880  220.0290 C   0  0  0  0  0  0  0  0  0  0  0  0
  138.2690   75.7640  219.6940 C   0  0  0  0  0  0  0  0  0  0  0  0
  138.6470   74.6620  220.6140 C   0  0  0  0  0  0  0  0  0  0  0  0
  137.9420   73.4520  220.6340 C   0  0  0  0  0  0  0  0  0  0  0  0
  138.2760   72.4680  221.4720 N   0  0  0  0  0  0  0  0  0  0  0  0
  139.3130   72.5880  222.3480 C   0  0  0  0  0  0  0  0  0  0  0  0
  139.6700   71.5420  223.2410 N   0  0  0  0  0  0  0  0  0  0  0  0
  139.3400   70.1540  222.9510 C   0  0  0  0  0  0  0  0  0  0  0  0
  138.5090   69.6860  224.1480 C   0  0  0  0  0  0  0  0  0  0  0  0
  139.3990   69.8000  225.3460 C   0  0  0  0  0  0  0  0  0  0  0  0
  139.2910   68.7980  226.3110 C   0  0  0  0  0  0  0  0  0  0  0  0
  140.1140   68.9050  227.4160 C   0  0  0  0  0  0  0  0  0  0  0  0
  141.0050   69.9510  227.5680 C   0  0  0  0  0  0  0  0  0  0  0  0
  141.0990   70.9460  226.5920 C   0  0  0  0  0  0  0  0  0  0  0  0
  140.2850   70.8360  225.5030 C   0  0  0  0  0  0  0  0  0  0  0  0
  140.3690   71.8860  224.4460 C   0  0  0  0  0  0  0  0  0  0  0  0
  139.9990   73.7340  222.3450 N   0  0  0  0  0  0  0  0  0  0  0  0
  139.6910   74.7670  221.5030 C   0  0  0  0  0  0  0  0  0  0  0  0
  140.5250   75.9100  221.6180 N   0  0  0  0  0  0  0  0  0  0  0  0
  141.6390   76.2160  220.7830 C   0  0  0  0  0  0  0  0  0  0  0  0
  141.5340   77.6520  220.2590 C   0  0  0  0  0  0  0  0  0  0  0  0
  141.5580   78.5720  221.4520 C   0  0  0  0  0  0  0  0  0  0  0  0
  142.2060   79.7940  221.4030 C   0  0  0  0  0  0  0  0  0  0  0  0
  142.2260   80.6270  222.4990 C   0  0  0  0  0  0  0  0  0  0  0  0
  141.5680   80.1840  223.6440 C   0  0  0  0  0  0  0  0  0  0  0  0
  140.9210   78.9560  223.6810 C   0  0  0  0  0  0  0  0  0  0  0  0
  140.9050   78.1170  222.5700 C   0  0  0  0  0  0  0  0  0  0  0  0
  140.2010   76.8420  222.6920 C   0  0  0  0  0  0  0  0  0  0  0  0
  136.5430   74.4990  224.0190 H   0  0  0  0  0  0  0  0  0  0  0  0
  137.8040   74.3190  222.7170 H   0  0  0  0  0  0  0  0  0  0  0  0
  136.3870   77.6410  221.6469 H   0  0  0  0  0  0  0  0  0  0  0  0
  137.9142   76.6513  221.8851 H   0  0  0  0  0  0  0  0  0  0  0  0
  136.1484   75.7034  219.7444 H   0  0  0  0  0  0  0  0  0  0  0  0
  136.8641   77.3355  219.4787 H   0  0  0  0  0  0  0  0  0  0  0  0
  138.2121   75.3614  218.6719 H   0  0  0  0  0  0  0  0  0  0  0  0
  139.0368   76.5459  219.7896 H   0  0  0  0  0  0  0  0  0  0  0  0
  137.0961   73.3096  219.9454 H   0  0  0  0  0  0  0  0  0  0  0  0
  138.7550   70.0816  222.0223 H   0  0  0  0  0  0  0  0  0  0  0  0
  140.2391   69.5372  222.8058 H   0  0  0  0  0  0  0  0  0  0  0  0
  137.6223   70.3255  224.2697 H   0  0  0  0  0  0  0  0  0  0  0  0
  138.1539   68.6541  224.0099 H   0  0  0  0  0  0  0  0  0  0  0  0
  138.5844   67.9626  226.1976 H   0  0  0  0  0  0  0  0  0  0  0  0
  140.0584   68.1341  228.1987 H   0  0  0  0  0  0  0  0  0  0  0  0
  141.6435   70.0001  228.4624 H   0  0  0  0  0  0  0  0  0  0  0  0
  141.8020   71.7854  226.6975 H   0  0  0  0  0  0  0  0  0  0  0  0
  139.9387   72.8166  224.8446 H   0  0  0  0  0  0  0  0  0  0  0  0
  141.4315   71.9967  224.1835 H   0  0  0  0  0  0  0  0  0  0  0  0
  142.5674   76.1087  221.3632 H   0  0  0  0  0  0  0  0  0  0  0  0
  141.6458   75.5235  219.9284 H   0  0  0  0  0  0  0  0  0  0  0  0
  142.3840   77.8733  219.5968 H   0  0  0  0  0  0  0  0  0  0  0  0
  140.6064   77.7877  219.6835 H   0  0  0  0  0  0  0  0  0  0  0  0
  142.7115   80.1037  220.4764 H   0  0  0  0  0  0  0  0  0  0  0  0
  142.7391   81.5996  222.4717 H   0  0  0  0  0  0  0  0  0  0  0  0
  141.5608   80.8220  224.5400 H   0  0  0  0  0  0  0  0  0  0  0  0
  140.4124   78.6406  224.6039 H   0  0  0  0  0  0  0  0  0  0  0  0
  140.4750   76.3802  223.6521 H   0  0  0  0  0  0  0  0  0  0  0  0
  139.1231   77.0530  222.6322 H   0  0  0  0  0  0  0  0  0  0  0  0
  1  2  1  0
  2  3  2  0
  2  4  1  0
  4  5  1  0
  5  6  1  0
  6  7  1  0
  7  8  2  0
  8  9  1  0
  9 10  2  0
 10 11  1  0
 11 12  1  0
 12 13  1  0
 13 14  1  0
 14 15  2  0
 15 16  1  0
 16 17  2  0
 17 18  1  0
 18 19  2  0
 19 20  1  0
 10 21  1  0
 21 22  2  0
 22 23  1  0
 23 24  1  0
 24 25  1  0
 25 26  1  0
 26 27  2  0
 27 28  1  0
 28 29  2  0
 29 30  1  0
 30 31  2  0
 31 32  1  0
 22  7  1  0
 32 23  1  0
 20 11  1  0
 31 26  1  0
 19 14  1  0
  1 33  1  0
  1 34  1  0
  4 35  1  0
  4 36  1  0
  5 37  1  0
  5 38  1  0
  6 39  1  0
  6 40  1  0
  8 41  1  0
 12 42  1  0
 12 43  1  0
 13 44  1  0
 13 45  1  0
 15 46  1  0
 16 47  1  0
 17 48  1  0
 18 49  1  0
 20 50  1  0
 20 51  1  0
 24 52  1  0
 24 53  1  0
 25 54  1  0
 25 55  1  0
 27 56  1  0
 28 57  1  0
 29 58  1  0
 30 59  1  0
 32 60  1  0
 32 61  1  0
M  END
>  <smiles>  (46) 
NC(=O)CCCc1cnc(N2CCc3ccccc3C2)nc1N1CCc2ccccc2C1

>  <score_type>  (46) 
oracle

>  <origin>  (46) 
autodockgpu

>  <m_score__min__energy>  (46) 
-9.2200000000000006

>  <m_primary>  (46) 
energy

>  <rmsd>  (46) 
4.076342483152581

>  <m_score__min__rmsd>  (46) 
4.076342483152581

>  <meeko>  (46) 
{"free_energy": -8.52, "intermolecular_energy": -10.3, "internal_energy": -2.32, "cluster_size": 14, "cluster_id": 2, "rank_in_cluster": 4}

>  <energy>  (46) 
-8.08

>  <cluster_rmsd>  (46) 
0.95

>  <cluster>  (46) 
3

$$$$

     RDKit          3D

 61 65  0  0  0  0  0  0  0  0999 V2000
  142.9690   77.5630  218.9560 N   0  0  0  0  0  0  0  0  0  0  0  0
  143.0850   76.1570  219.2560 C   0  0  0  0  0  0  0  0  0  0  0  0
  144.0170   75.8160  220.0140 O   0  0  0  0  0  0  0  0  0  0  0  0
  142.0930   75.2590  218.6400 C   0  0  0  0  0  0  0  0  0  0  0  0
  140.6620   75.7050  218.7940 C   0  0  0  0  0  0  0  0  0  0  0  0
  139.7530   74.5280  218.7910 C   0  0  0  0  0  0  0  0  0  0  0  0
  139.8720   73.6900  220.0110 C   0  0  0  0  0  0  0  0  0  0  0  0
  140.0030   72.2990  219.9330 C   0  0  0  0  0  0  0  0  0  0  0  0
  140.0960   71.5470  221.0330 N   0  0  0  0  0  0  0  0  0  0  0  0
  140.0670   72.0910  222.2820 C   0  0  0  0  0  0  0  0  0  0  0  0
  140.1650   71.2940  223.4540 N   0  0  0  0  0  0  0  0  0  0  0  0
  139.7040   69.9140  223.4700 C   0  0  0  0  0  0  0  0  0  0  0  0
  138.6680   69.8550  224.5940 C   0  0  0  0  0  0  0  0  0  0  0  0
  139.3960   70.2060  225.8540 C   0  0  0  0  0  0  0  0  0  0  0  0
  139.0320   69.5090  227.0080 C   0  0  0  0  0  0  0  0  0  0  0  0
  139.7060   69.8350  228.1700 C   0  0  0  0  0  0  0  0  0  0  0  0
  140.6930   70.8010  228.1990 C   0  0  0  0  0  0  0  0  0  0  0  0
  141.0440   71.4890  227.0340 C   0  0  0  0  0  0  0  0  0  0  0  0
  140.3770   71.1640  225.8900 C   0  0  0  0  0  0  0  0  0  0  0  0
  140.7340   71.8840  224.6320 C   0  0  0  0  0  0  0  0  0  0  0  0
  139.9430   73.4180  222.3800 N   0  0  0  0  0  0  0  0  0  0  0  0
  139.8450   74.2240  221.2790 C   0  0  0  0  0  0  0  0  0  0  0  0
  139.7320   75.6120  221.5540 N   0  0  0  0  0  0  0  0  0  0  0  0
  138.5460   76.3930  221.4250 C   0  0  0  0  0  0  0  0  0  0  0  0
  138.2950   77.1950  222.7060 C   0  0  0  0  0  0  0  0  0  0  0  0
  139.4660   78.1240  222.8970 C   0  0  0  0  0  0  0  0  0  0  0  0
  139.2950   79.4010  223.4000 C   0  0  0  0  0  0  0  0  0  0  0  0
  140.3700   80.2440  223.5680 C   0  0  0  0  0  0  0  0  0  0  0  0
  141.6230   79.7510  223.2120 C   0  0  0  0  0  0  0  0  0  0  0  0
  141.7830   78.4670  222.7080 C   0  0  0  0  0  0  0  0  0  0  0  0
  140.6920   77.6200  222.5390 C   0  0  0  0  0  0  0  0  0  0  0  0
  140.9460   76.2840  222.0040 C   0  0  0  0  0  0  0  0  0  0  0  0
  143.1370   78.2260  219.7460 H   0  0  0  0  0  0  0  0  0  0  0  0
  142.7300   77.9070  218.0000 H   0  0  0  0  0  0  0  0  0  0  0  0
  142.3161   75.1870  217.5653 H   0  0  0  0  0  0  0  0  0  0  0  0
  142.1772   74.2954  219.1638 H   0  0  0  0  0  0  0  0  0  0  0  0
  140.5509   76.2472  219.7446 H   0  0  0  0  0  0  0  0  0  0  0  0
  140.3991   76.3631  217.9527 H   0  0  0  0  0  0  0  0  0  0  0  0
  138.7163   74.8878  218.7145 H   0  0  0  0  0  0  0  0  0  0  0  0
  140.0380   73.8988  217.9349 H   0  0  0  0  0  0  0  0  0  0  0  0
  140.0300   71.8149  218.9456 H   0  0  0  0  0  0  0  0  0  0  0  0
  139.2444   69.6488  222.5064 H   0  0  0  0  0  0  0  0  0  0  0  0
  140.5292   69.2048  223.6314 H   0  0  0  0  0  0  0  0  0  0  0  0
  137.8606   70.5781  224.4064 H   0  0  0  0  0  0  0  0  0  0  0  0
  138.2078   68.8582  224.6621 H   0  0  0  0  0  0  0  0  0  0  0  0
  138.2473   68.7383  226.9931 H   0  0  0  0  0  0  0  0  0  0  0  0
  139.4483   69.3086  229.1009 H   0  0  0  0  0  0  0  0  0  0  0  0
  141.2059   71.0302  229.1447 H   0  0  0  0  0  0  0  0  0  0  0  0
  141.8269   72.2616  227.0398 H   0  0  0  0  0  0  0  0  0  0  0  0
  140.3751   72.9208  224.7103 H   0  0  0  0  0  0  0  0  0  0  0  0
  141.8275   71.8281  224.5262 H   0  0  0  0  0  0  0  0  0  0  0  0
  138.6587   77.0868  220.5788 H   0  0  0  0  0  0  0  0  0  0  0  0
  137.6926   75.7212  221.2507 H   0  0  0  0  0  0  0  0  0  0  0  0
  137.3664   77.7766  222.6088 H   0  0  0  0  0  0  0  0  0  0  0  0
  138.1902   76.5219  223.5697 H   0  0  0  0  0  0  0  0  0  0  0  0
  138.2864   79.7475  223.6694 H   0  0  0  0  0  0  0  0  0  0  0  0
  140.2450   81.2619  223.9658 H   0  0  0  0  0  0  0  0  0  0  0  0
  142.5071   80.3942  223.3330 H   0  0  0  0  0  0  0  0  0  0  0  0
  142.7890   78.1135  222.4378 H   0  0  0  0  0  0  0  0  0  0  0  0
  141.6347   76.3727  221.1509 H   0  0  0  0  0  0  0  0  0  0  0  0
  141.3759   75.6796  222.8163 H   0  0  0  0  0  0  0  0  0  0  0  0
  1  2  1  0
  2  3  2  0
  2  4  1  0
  4  5  1  0
  5  6  1  0
  6  7  1  0
  7  8  2  0
  8  9  1  0
  9 10  2  0
 10 11  1  0
 11 12  1  0
 12 13  1  0
 13 14  1  0
 14 15  2  0
 15 16  1  0
 16 17  2  0
 17 18  1  0
 18 19  2  0
 19 20  1  0
 10 21  1  0
 21 22  2  0
 22 23  1  0
 23 24  1  0
 24 25  1  0
 25 26  1  0
 26 27  2  0
 27 28  1  0
 28 29  2  0
 29 30  1  0
 30 31  2  0
 31 32  1  0
 22  7  1  0
 32 23  1  0
 20 11  1  0
 31 26  1  0
 19 14  1  0
  1 33  1  0
  1 34  1  0
  4 35  1  0
  4 36  1  0
  5 37  1  0
  5 38  1  0
  6 39  1  0
  6 40  1  0
  8 41  1  0
 12 42  1  0
 12 43  1  0
 13 44  1  0
 13 45  1  0
 15 46  1  0
 16 47  1  0
 17 48  1  0
 18 49  1  0
 20 50  1  0
 20 51  1  0
 24 52  1  0
 24 53  1  0
 25 54  1  0
 25 55  1  0
 27 56  1  0
 28 57  1  0
 29 58  1  0
 30 59  1  0
 32 60  1  0
 32 61  1  0
M  END
>  <smiles>  (47) 
NC(=O)CCCc1cnc(N2CCc3ccccc3C2)nc1N1CCc2ccccc2C1

>  <score_type>  (47) 
oracle

>  <origin>  (47) 
autodockgpu

>  <m_score__min__energy>  (47) 
-9.2200000000000006

>  <m_primary>  (47) 
energy

>  <rmsd>  (47) 
3.460722615942271

>  <m_score__min__rmsd>  (47) 
3.460722615942271

>  <meeko>  (47) 
{"free_energy": -8.46, "intermolecular_energy": -10.25, "internal_energy": -1.47, "cluster_size": 6, "cluster_id": 3, "rank_in_cluster": 1}

>  <energy>  (47) 
-7.57

>  <cluster_rmsd>  (47) 
2.0

>  <cluster>  (47) 
3

$$$$

     RDKit          3D

 61 65  0  0  0  0  0  0  0  0999 V2000
  144.6760   74.3210  220.0750 N   0  0  0  0  0  0  0  0  0  0  0  0
  144.7560   72.8820  220.0320 C   0  0  0  0  0  0  0  0  0  0  0  0
  145.6050   72.3870  219.2610 O   0  0  0  0  0  0  0  0  0  0  0  0
  143.8320   72.1340  220.9010 C   0  0  0  0  0  0  0  0  0  0  0  0
  143.0670   71.0370  220.2060 C   0  0  0  0  0  0  0  0  0  0  0  0
  141.6160   71.3650  220.1710 C   0  0  0  0  0  0  0  0  0  0  0  0
  141.3190   72.7600  220.5840 C   0  0  0  0  0  0  0  0  0  0  0  0
  141.7790   73.8550  219.8440 C   0  0  0  0  0  0  0  0  0  0  0  0
  141.5210   75.1090  220.2260 N   0  0  0  0  0  0  0  0  0  0  0  0
  140.8020   75.3860  221.3490 C   0  0  0  0  0  0  0  0  0  0  0  0
  140.5270   76.7180  221.7580 N   0  0  0  0  0  0  0  0  0  0  0  0
  139.4380   77.4820  221.1670 C   0  0  0  0  0  0  0  0  0  0  0  0
  140.0980   78.7400  220.5990 C   0  0  0  0  0  0  0  0  0  0  0  0
  140.7030   79.4590  221.7640 C   0  0  0  0  0  0  0  0  0  0  0  0
  140.6330   80.8520  221.7510 C   0  0  0  0  0  0  0  0  0  0  0  0
  141.1910   81.5140  222.8290 C   0  0  0  0  0  0  0  0  0  0  0  0
  141.7930   80.8370  223.8730 C   0  0  0  0  0  0  0  0  0  0  0  0
  141.8540   79.4410  223.8690 C   0  0  0  0  0  0  0  0  0  0  0  0
  141.3010   78.7930  222.8040 C   0  0  0  0  0  0  0  0  0  0  0  0
  141.3540   77.3010  222.7760 C   0  0  0  0  0  0  0  0  0  0  0  0
  140.3530   74.3550  222.0700 N   0  0  0  0  0  0  0  0  0  0  0  0
  140.5940   73.0560  221.7150 C   0  0  0  0  0  0  0  0  0  0  0  0
  140.0370   72.0790  222.5800 N   0  0  0  0  0  0  0  0  0  0  0  0
  138.8990   71.2680  222.2990 C   0  0  0  0  0  0  0  0  0  0  0  0
  139.2170   69.7930  222.5630 C   0  0  0  0  0  0  0  0  0  0  0  0
  139.5560   69.6570  224.0250 C   0  0  0  0  0  0  0  0  0  0  0  0
  139.1720   68.5450  224.7520 C   0  0  0  0  0  0  0  0  0  0  0  0
  139.4820   68.4310  226.0880 C   0  0  0  0  0  0  0  0  0  0  0  0
  140.1960   69.4790  226.6640 C   0  0  0  0  0  0  0  0  0  0  0  0
  140.5770   70.5910  225.9250 C   0  0  0  0  0  0  0  0  0  0  0  0
  140.2590   70.7010  224.5750 C   0  0  0  0  0  0  0  0  0  0  0  0
  140.6980   71.9030  223.8690 C   0  0  0  0  0  0  0  0  0  0  0  0
  145.5810   74.8430  220.0510 H   0  0  0  0  0  0  0  0  0  0  0  0
  143.7610   74.8220  220.1280 H   0  0  0  0  0  0  0  0  0  0  0  0
  144.4171   71.6816  221.7152 H   0  0  0  0  0  0  0  0  0  0  0  0
  143.0845   72.8578  221.2577 H   0  0  0  0  0  0  0  0  0  0  0  0
  143.4402   70.9296  219.1768 H   0  0  0  0  0  0  0  0  0  0  0  0
  143.2090   70.0957  220.7571 H   0  0  0  0  0  0  0  0  0  0  0  0
  141.2498   71.2195  219.1440 H   0  0  0  0  0  0  0  0  0  0  0  0
  141.1141   70.6990  220.8883 H   0  0  0  0  0  0  0  0  0  0  0  0
  142.3647   73.6798  218.9295 H   0  0  0  0  0  0  0  0  0  0  0  0
  138.9517   76.9056  220.3662 H   0  0  0  0  0  0  0  0  0  0  0  0
  138.6559   77.7223  221.9023 H   0  0  0  0  0  0  0  0  0  0  0  0
  140.8781   78.4664  219.8733 H   0  0  0  0  0  0  0  0  0  0  0  0
  139.3673   79.3728  220.0741 H   0  0  0  0  0  0  0  0  0  0  0  0
  140.1568   81.3976  220.9230 H   0  0  0  0  0  0  0  0  0  0  0  0
  141.1548   82.6131  222.8567 H   0  0  0  0  0  0  0  0  0  0  0  0
  142.2267   81.4007  224.7121 H   0  0  0  0  0  0  0  0  0  0  0  0
  142.3291   78.8869  224.6920 H   0  0  0  0  0  0  0  0  0  0  0  0
  142.3948   76.9928  222.5979 H   0  0  0  0  0  0  0  0  0  0  0  0
  140.9737   76.9454  223.7450 H   0  0  0  0  0  0  0  0  0  0  0  0
  138.0636   71.5797  222.9432 H   0  0  0  0  0  0  0  0  0  0  0  0
  138.6258   71.3905  221.2405 H   0  0  0  0  0  0  0  0  0  0  0  0
  138.3425   69.1712  222.3209 H   0  0  0  0  0  0  0  0  0  0  0  0
  140.0586   69.4603  221.9377 H   0  0  0  0  0  0  0  0  0  0  0  0
  138.6106   67.7400  224.2552 H   0  0  0  0  0  0  0  0  0  0  0  0
  139.1793   67.5513  226.6749 H   0  0  0  0  0  0  0  0  0  0  0  0
  140.4644   69.4244  227.7294 H   0  0  0  0  0  0  0  0  0  0  0  0
  141.1399   71.3989  226.4153 H   0  0  0  0  0  0  0  0  0  0  0  0
  140.4794   72.7787  224.4978 H   0  0  0  0  0  0  0  0  0  0  0  0
  141.7755   71.7964  223.6751 H   0  0  0  0  0  0  0  0  0  0  0  0
  1  2  1  0
  2  3  2  0
  2  4  1  0
  4  5  1  0
  5  6  1  0
  6  7  1  0
  7  8  2  0
  8  9  1  0
  9 10  2  0
 10 11  1  0
 11 12  1  0
 12 13  1  0
 13 14  1  0
 14 15  2  0
 15 16  1  0
 16 17  2  0
 17 18  1  0
 18 19  2  0
 19 20  1  0
 10 21  1  0
 21 22  2  0
 22 23  1  0
 23 24  1  0
 24 25  1  0
 25 26  1  0
 26 27  2  0
 27 28  1  0
 28 29  2  0
 29 30  1  0
 30 31  2  0
 31 32  1  0
 22  7  1  0
 32 23  1  0
 20 11  1  0
 31 26  1  0
 19 14  1  0
  1 33  1  0
  1 34  1  0
  4 35  1  0
  4 36  1  0
  5 37  1  0
  5 38  1  0
  6 39  1  0
  6 40  1  0
  8 41  1  0
 12 42  1  0
 12 43  1  0
 13 44  1  0
 13 45  1  0
 15 46  1  0
 16 47  1  0
 17 48  1  0
 18 49  1  0
 20 50  1  0
 20 51  1  0
 24 52  1  0
 24 53  1  0
 25 54  1  0
 25 55  1  0
 27 56  1  0
 28 57  1  0
 29 58  1  0
 30 59  1  0
 32 60  1  0
 32 61  1  0
M  END
>  <smiles>  (48) 
NC(=O)CCCc1cnc(N2CCc3ccccc3C2)nc1N1CCc2ccccc2C1

>  <score_type>  (48) 
oracle

>  <origin>  (48) 
autodockgpu

>  <m_score__min__energy>  (48) 
-9.2200000000000006

>  <m_primary>  (48) 
energy

>  <rmsd>  (48) 
9.874589588439093

>  <m_score__min__rmsd>  (48) 
9.874589588439093

>  <meeko>  (48) 
{"free_energy": -8.64, "intermolecular_energy": -10.43, "internal_energy": -1.47, "cluster_size": 27, "cluster_id": 1, "rank_in_cluster": 18}

>  <energy>  (48) 
-8.41

>  <cluster_rmsd>  (48) 
0.0

>  <cluster>  (48) 
4

$$$$

     RDKit          3D

 61 65  0  0  0  0  0  0  0  0999 V2000
  142.8190   73.6240  220.7330 N   0  0  0  0  0  0  0  0  0  0  0  0
  143.1070   74.6800  219.7930 C   0  0  0  0  0  0  0  0  0  0  0  0
  144.0030   75.4890  220.1110 O   0  0  0  0  0  0  0  0  0  0  0  0
  142.3180   74.7020  218.5500 C   0  0  0  0  0  0  0  0  0  0  0  0
  141.0990   75.5870  218.5960 C   0  0  0  0  0  0  0  0  0  0  0  0
  139.8750   74.7650  218.8010 C   0  0  0  0  0  0  0  0  0  0  0  0
  139.9520   73.8840  219.9930 C   0  0  0  0  0  0  0  0  0  0  0  0
  140.0910   72.4960  219.8680 C   0  0  0  0  0  0  0  0  0  0  0  0
  140.1460   71.7050  220.9430 N   0  0  0  0  0  0  0  0  0  0  0  0
  140.0680   72.2020  222.2090 C   0  0  0  0  0  0  0  0  0  0  0  0
  140.1260   71.3620  223.3530 N   0  0  0  0  0  0  0  0  0  0  0  0
  139.6040   70.0040  223.3210 C   0  0  0  0  0  0  0  0  0  0  0  0
  138.5610   69.9530  224.4400 C   0  0  0  0  0  0  0  0  0  0  0  0
  139.2980   70.2290  225.7130 C   0  0  0  0  0  0  0  0  0  0  0  0
  138.8990   69.5110  226.8410 C   0  0  0  0  0  0  0  0  0  0  0  0
  139.5810   69.7660  228.0160 C   0  0  0  0  0  0  0  0  0  0  0  0
  140.6110   70.6860  228.0810 C   0  0  0  0  0  0  0  0  0  0  0  0
  140.9970   71.3960  226.9410 C   0  0  0  0  0  0  0  0  0  0  0  0
  140.3200   71.1410  225.7840 C   0  0  0  0  0  0  0  0  0  0  0  0
  140.7150   71.8860  224.5520 C   0  0  0  0  0  0  0  0  0  0  0  0
  139.9360   73.5240  222.3510 N   0  0  0  0  0  0  0  0  0  0  0  0
  139.8760   74.3700  221.2770 C   0  0  0  0  0  0  0  0  0  0  0  0
  139.7460   75.7460  221.5990 N   0  0  0  0  0  0  0  0  0  0  0  0
  138.5590   76.5250  221.4700 C   0  0  0  0  0  0  0  0  0  0  0  0
  138.2720   77.2780  222.7730 C   0  0  0  0  0  0  0  0  0  0  0  0
  139.4320   78.2060  223.0250 C   0  0  0  0  0  0  0  0  0  0  0  0
  139.2410   79.4640  223.5680 C   0  0  0  0  0  0  0  0  0  0  0  0
  140.3060   80.3070  223.7920 C   0  0  0  0  0  0  0  0  0  0  0  0
  141.5700   79.8350  223.4490 C   0  0  0  0  0  0  0  0  0  0  0  0
  141.7500   78.5700  222.9030 C   0  0  0  0  0  0  0  0  0  0  0  0
  140.6690   77.7240  222.6780 C   0  0  0  0  0  0  0  0  0  0  0  0
  140.9450   76.4090  222.1020 C   0  0  0  0  0  0  0  0  0  0  0  0
  143.6380   73.1840  221.2090 H   0  0  0  0  0  0  0  0  0  0  0  0
  141.8430   73.3120  220.9310 H   0  0  0  0  0  0  0  0  0  0  0  0
  142.9686   75.0563  217.7369 H   0  0  0  0  0  0  0  0  0  0  0  0
  141.9527   73.6762  218.3946 H   0  0  0  0  0  0  0  0  0  0  0  0
  141.2000   76.3018  219.4259 H   0  0  0  0  0  0  0  0  0  0  0  0
  141.0123   76.1287  217.6426 H   0  0  0  0  0  0  0  0  0  0  0  0
  139.0163   75.4417  218.9219 H   0  0  0  0  0  0  0  0  0  0  0  0
  139.7689   74.1137  217.9209 H   0  0  0  0  0  0  0  0  0  0  0  0
  140.1562   72.0486  218.8652 H   0  0  0  0  0  0  0  0  0  0  0  0
  139.1372   69.7922  222.3477 H   0  0  0  0  0  0  0  0  0  0  0  0
  140.3963   69.2538  223.4607 H   0  0  0  0  0  0  0  0  0  0  0  0
  137.7870   70.7169  224.2745 H   0  0  0  0  0  0  0  0  0  0  0  0
  138.0572   68.9757  224.4732 H   0  0  0  0  0  0  0  0  0  0  0  0
  138.0808   68.7771  226.7973 H   0  0  0  0  0  0  0  0  0  0  0  0
  139.2954   69.2202  228.9273 H   0  0  0  0  0  0  0  0  0  0  0  0
  141.1295   70.8600  229.0354 H   0  0  0  0  0  0  0  0  0  0  0  0
  141.8143   72.1314  226.9750 H   0  0  0  0  0  0  0  0  0  0  0  0
  140.4024   72.9347  224.6640 H   0  0  0  0  0  0  0  0  0  0  0  0
  141.8054   71.7846  224.4481 H   0  0  0  0  0  0  0  0  0  0  0  0
  138.6880   77.2501  220.6529 H   0  0  0  0  0  0  0  0  0  0  0  0
  137.7142   75.8556  221.2505 H   0  0  0  0  0  0  0  0  0  0  0  0
  137.3421   77.8573  222.6749 H   0  0  0  0  0  0  0  0  0  0  0  0
  138.1510   76.5734  223.6090 H   0  0  0  0  0  0  0  0  0  0  0  0
  138.2239   79.7953  223.8243 H   0  0  0  0  0  0  0  0  0  0  0  0
  140.1645   81.3091  224.2229 H   0  0  0  0  0  0  0  0  0  0  0  0
  142.4467   80.4785  223.6141 H   0  0  0  0  0  0  0  0  0  0  0  0
  142.7643   78.2319  222.6444 H   0  0  0  0  0  0  0  0  0  0  0  0
  141.6533   76.5322  221.2695 H   0  0  0  0  0  0  0  0  0  0  0  0
  141.3595   75.7785  222.9024 H   0  0  0  0  0  0  0  0  0  0  0  0
  1  2  1  0
  2  3  2  0
  2  4  1  0
  4  5  1  0
  5  6  1  0
  6  7  1  0
  7  8  2  0
  8  9  1  0
  9 10  2  0
 10 11  1  0
 11 12  1  0
 12 13  1  0
 13 14  1  0
 14 15  2  0
 15 16  1  0
 16 17  2  0
 17 18  1  0
 18 19  2  0
 19 20  1  0
 10 21  1  0
 21 22  2  0
 22 23  1  0
 23 24  1  0
 24 25  1  0
 25 26  1  0
 26 27  2  0
 27 28  1  0
 28 29  2  0
 29 30  1  0
 30 31  2  0
 31 32  1  0
 22  7  1  0
 32 23  1  0
 20 11  1  0
 31 26  1  0
 19 14  1  0
  1 33  1  0
  1 34  1  0
  4 35  1  0
  4 36  1  0
  5 37  1  0
  5 38  1  0
  6 39  1  0
  6 40  1  0
  8 41  1  0
 12 42  1  0
 12 43  1  0
 13 44  1  0
 13 45  1  0
 15 46  1  0
 16 47  1  0
 17 48  1  0
 18 49  1  0
 20 50  1  0
 20 51  1  0
 24 52  1  0
 24 53  1  0
 25 54  1  0
 25 55  1  0
 27 56  1  0
 28 57  1  0
 29 58  1  0
 30 59  1  0
 32 60  1  0
 32 61  1  0
M  END
>  <smiles>  (49) 
NC(=O)CCCc1cnc(N2CCc3ccccc3C2)nc1N1CCc2ccccc2C1

>  <score_type>  (49) 
oracle

>  <origin>  (49) 
autodockgpu

>  <m_score__min__energy>  (49) 
-9.2200000000000006

>  <m_primary>  (49) 
energy

>  <rmsd>  (49) 
3.445214991326406

>  <m_score__min__rmsd>  (49) 
3.445214991326406

>  <meeko>  (49) 
{"free_energy": -7.87, "intermolecular_energy": -9.66, "internal_energy": -2.18, "cluster_size": 27, "cluster_id": 1, "rank_in_cluster": 27}

>  <energy>  (49) 
-7.68

>  <cluster_rmsd>  (49) 
0.0

>  <cluster>  (49) 
5

$$$$

     RDKit          3D

 61 65  0  0  0  0  0  0  0  0999 V2000
  136.9080   74.7360  222.9870 N   0  0  0  0  0  0  0  0  0  0  0  0
  136.4090   75.8280  222.1880 C   0  0  0  0  0  0  0  0  0  0  0  0
  135.1690   75.9260  222.0800 O   0  0  0  0  0  0  0  0  0  0  0  0
  137.4080   76.7220  221.5790 C   0  0  0  0  0  0  0  0  0  0  0  0
  137.3630   76.7790  220.0740 C   0  0  0  0  0  0  0  0  0  0  0  0
  138.2850   75.7670  219.4930 C   0  0  0  0  0  0  0  0  0  0  0  0
  138.6250   74.6720  220.4360 C   0  0  0  0  0  0  0  0  0  0  0  0
  137.8960   73.4770  220.4620 C   0  0  0  0  0  0  0  0  0  0  0  0
  138.1960   72.4990  221.3210 N   0  0  0  0  0  0  0  0  0  0  0  0
  139.2190   72.6130  222.2130 C   0  0  0  0  0  0  0  0  0  0  0  0
  139.5400   71.5750  223.1290 N   0  0  0  0  0  0  0  0  0  0  0  0
  139.0830   70.2090  222.9140 C   0  0  0  0  0  0  0  0  0  0  0  0
  138.2850   69.8560  224.1720 C   0  0  0  0  0  0  0  0  0  0  0  0
  139.2480   69.9400  225.3150 C   0  0  0  0  0  0  0  0  0  0  0  0
  139.1120   68.9860  226.3250 C   0  0  0  0  0  0  0  0  0  0  0  0
  140.0020   69.0650  227.3800 C   0  0  0  0  0  0  0  0  0  0  0  0
  140.9820   70.0380  227.4410 C   0  0  0  0  0  0  0  0  0  0  0  0
  141.1030   70.9850  226.4210 C   0  0  0  0  0  0  0  0  0  0  0  0
  140.2220   70.9030  225.3830 C   0  0  0  0  0  0  0  0  0  0  0  0
  140.3310   71.9040  224.2800 C   0  0  0  0  0  0  0  0  0  0  0  0
  139.9290   73.7450  222.2060 N   0  0  0  0  0  0  0  0  0  0  0  0
  139.6550   74.7700  221.3420 C   0  0  0  0  0  0  0  0  0  0  0  0
  140.5090   75.8980  221.4540 N   0  0  0  0  0  0  0  0  0  0  0  0
  141.4510   76.3310  220.4750 C   0  0  0  0  0  0  0  0  0  0  0  0
  141.2670   77.8240  220.1810 C   0  0  0  0  0  0  0  0  0  0  0  0
  141.5250   78.5730  221.4630 C   0  0  0  0  0  0  0  0  0  0  0  0
  142.1670   79.7980  221.4620 C   0  0  0  0  0  0  0  0  0  0  0  0
  142.4020   80.4750  222.6380 C   0  0  0  0  0  0  0  0  0  0  0  0
  141.9640   79.8700  223.8140 C   0  0  0  0  0  0  0  0  0  0  0  0
  141.3210   78.6390  223.8030 C   0  0  0  0  0  0  0  0  0  0  0  0
  141.0880   77.9600  222.6110 C   0  0  0  0  0  0  0  0  0  0  0  0
  140.4040   76.6710  222.6870 C   0  0  0  0  0  0  0  0  0  0  0  0
  136.3880   74.5220  223.8670 H   0  0  0  0  0  0  0  0  0  0  0  0
  137.7480   74.1830  222.7050 H   0  0  0  0  0  0  0  0  0  0  0  0
  137.2407   77.7380  221.9661 H   0  0  0  0  0  0  0  0  0  0  0  0
  138.3946   76.3158  221.8465 H   0  0  0  0  0  0  0  0  0  0  0  0
  136.3374   76.5739  219.7333 H   0  0  0  0  0  0  0  0  0  0  0  0
  137.6758   77.7805  219.7436 H   0  0  0  0  0  0  0  0  0  0  0  0
  137.8063   75.3274  218.6055 H   0  0  0  0  0  0  0  0  0  0  0  0
  139.2227   76.2855  219.2443 H   0  0  0  0  0  0  0  0  0  0  0  0
  137.0594   73.3407  219.7610 H   0  0  0  0  0  0  0  0  0  0  0  0
  138.4430   70.1514  222.0212 H   0  0  0  0  0  0  0  0  0  0  0  0
  139.9197   69.5147  222.7468 H   0  0  0  0  0  0  0  0  0  0  0  0
  137.4613   70.5710  224.3141 H   0  0  0  0  0  0  0  0  0  0  0  0
  137.8399   68.8530  224.0959 H   0  0  0  0  0  0  0  0  0  0  0  0
  138.3344   68.2091  226.2835 H   0  0  0  0  0  0  0  0  0  0  0  0
  139.9280   68.3310  228.1960 H   0  0  0  0  0  0  0  0  0  0  0  0
  141.6709   70.0668  228.2981 H   0  0  0  0  0  0  0  0  0  0  0  0
  141.8776   71.7653  226.4537 H   0  0  0  0  0  0  0  0  0  0  0  0
  140.0001   72.8809  224.6623 H   0  0  0  0  0  0  0  0  0  0  0  0
  141.3825   71.9170  223.9573 H   0  0  0  0  0  0  0  0  0  0  0  0
  142.4702   76.1585  220.8513 H   0  0  0  0  0  0  0  0  0  0  0  0
  141.2894   75.7619  219.5477 H   0  0  0  0  0  0  0  0  0  0  0  0
  141.9807   78.1454  219.4081 H   0  0  0  0  0  0  0  0  0  0  0  0
  140.2498   78.0241  219.8132 H   0  0  0  0  0  0  0  0  0  0  0  0
  142.4946   80.2377  220.5084 H   0  0  0  0  0  0  0  0  0  0  0  0
  142.9124   81.4494  222.6483 H   0  0  0  0  0  0  0  0  0  0  0  0
  142.1315   80.3795  224.7744 H   0  0  0  0  0  0  0  0  0  0  0  0
  140.9903   78.1932  224.7527 H   0  0  0  0  0  0  0  0  0  0  0  0
  140.8475   76.0863  223.5064 H   0  0  0  0  0  0  0  0  0  0  0  0
  139.3367   76.8738  222.8592 H   0  0  0  0  0  0  0  0  0  0  0  0
  1  2  1  0
  2  3  2  0
  2  4  1  0
  4  5  1  0
  5  6  1  0
  6  7  1  0
  7  8  2  0
  8  9  1  0
  9 10  2  0
 10 11  1  0
 11 12  1  0
 12 13  1  0
 13 14  1  0
 14 15  2  0
 15 16  1  0
 16 17  2  0
 17 18  1  0
 18 19  2  0
 19 20  1  0
 10 21  1  0
 21 22  2  0
 22 23  1  0
 23 24  1  0
 24 25  1  0
 25 26  1  0
 26 27  2  0
 27 28  1  0
 28 29  2  0
 29 30  1  0
 30 31  2  0
 31 32  1  0
 22  7  1  0
 32 23  1  0
 20 11  1  0
 31 26  1  0
 19 14  1  0
  1 33  1  0
  1 34  1  0
  4 35  1  0
  4 36  1  0
  5 37  1  0
  5 38  1  0
  6 39  1  0
  6 40  1  0
  8 41  1  0
 12 42  1  0
 12 43  1  0
 13 44  1  0
 13 45  1  0
 15 46  1  0
 16 47  1  0
 17 48  1  0
 18 49  1  0
 20 50  1  0
 20 51  1  0
 24 52  1  0
 24 53  1  0
 25 54  1  0
 25 55  1  0
 27 56  1  0
 28 57  1  0
 29 58  1  0
 30 59  1  0
 32 60  1  0
 32 61  1  0
M  END
>  <smiles>  (50) 
NC(=O)CCCc1cnc(N2CCc3ccccc3C2)nc1N1CCc2ccccc2C1

>  <score_type>  (50) 
oracle

>  <origin>  (50) 
autodockgpu

>  <m_score__min__energy>  (50) 
-9.2200000000000006

>  <m_primary>  (50) 
energy

>  <rmsd>  (50) 
4.119733111896232

>  <m_score__min__rmsd>  (50) 
4.119733111896232

>  <meeko>  (50) 
{"free_energy": -8.46, "intermolecular_energy": -10.25, "internal_energy": -2.31, "cluster_size": 14, "cluster_id": 2, "rank_in_cluster": 9}

>  <energy>  (50) 
-7.4

>  <cluster_rmsd>  (50) 
0.0

>  <cluster>  (50) 
6

$$$$
