
 58 63  0  0  1  0  0  0  0  0999 V2000
  137.6560   81.7480  222.5150 O   0  0  0  0  0  0  0  0  0  0  0  0
  138.1240   81.1510  223.5700 C   0  0  0  0  0  0  0  0  0  0  0  0
  137.4660   81.5630  224.7910 C   0  0  0  0  0  0  0  0  0  0  0  0
  136.7560   82.7520  224.8820 C   0  0  0  0  0  0  0  0  0  0  0  0
  136.2090   82.8960  226.1360 C   0  0  0  0  0  0  0  0  0  0  0  0
  135.4360   83.8910  226.6990 C   0  0  0  0  0  0  0  0  0  0  0  0
  135.0560   85.0030  225.9840 F   0  0  0  0  0  0  0  0  0  0  0  0
  135.0290   83.7370  228.0330 C   0  0  0  0  0  0  0  0  0  0  0  0
  135.4210   82.6020  228.7150 C   0  0  0  0  0  0  0  0  0  0  0  0
  136.1930   81.6230  228.1310 C   0  0  0  0  0  0  0  0  0  0  0  0
  136.5980   81.7590  226.8260 C   0  0  0  0  0  0  0  0  0  0  0  0
  137.3420   80.9940  225.9960 N   0  0  0  0  0  0  0  0  0  0  0  0
  139.1500   80.2460  223.3670 N   0  0  0  0  0  0  0  0  0  0  0  0
  138.8820   78.8010  223.0880 C   0  0  0  0  0  0  0  0  0  0  0  0
  140.0010   78.4050  222.1860 C   0  0  2  0  0  0  0  0  0  0  0  0
  139.7090   78.6880  220.7280 C   0  0  0  0  0  0  0  0  0  0  0  0
  140.4990   77.6420  220.0040 C   0  0  0  0  0  0  0  0  0  0  0  0
  140.9730   76.6640  220.9290 N   0  0  0  0  0  0  0  0  0  0  0  0
  140.6060   75.3060  220.6070 C   0  0  0  0  0  0  0  0  0  0  0  0
  141.7610   74.6170  219.8980 C   0  0  2  0  0  0  0  0  0  0  0  0
  142.8810   74.2320  220.8210 C   0  0  0  0  0  0  0  0  0  0  0  0
  144.0850   74.9230  220.2440 C   0  0  0  0  0  0  0  0  0  0  0  0
  143.5260   76.1670  219.7240 N   0  0  0  0  0  0  0  0  0  0  0  0
  142.3660   75.6760  218.9690 C   0  0  0  0  0  0  0  0  0  0  0  0
  140.4280   76.9840  222.2360 C   0  0  0  0  0  0  0  0  0  0  0  0
  141.1350   79.2610  222.6780 C   0  0  0  0  0  0  0  0  0  0  0  0
  142.5020   79.1350  222.5550 C   0  0  0  0  0  0  0  0  0  0  0  0
  143.3210   80.1040  223.1220 C   0  0  0  0  0  0  0  0  0  0  0  0
  142.7800   81.1880  223.8050 C   0  0  0  0  0  0  0  0  0  0  0  0
  141.4020   81.2540  223.8910 C   0  0  0  0  0  0  0  0  0  0  0  0
  140.5590   80.3180  223.3460 C   0  0  0  0  0  0  0  0  0  0  0  0
  136.6458   83.4792  224.0640 H   0  0  0  0  0  0  0  0  0  0  0  0
  134.4115   84.5032  228.5245 H   0  0  0  0  0  0  0  0  0  0  0  0
  135.1055   82.4757  229.7612 H   0  0  0  0  0  0  0  0  0  0  0  0
  136.4848   80.7336  228.7087 H   0  0  0  0  0  0  0  0  0  0  0  0
  137.7810   80.0620  226.2330 H   0  0  0  0  0  0  0  0  0  0  0  0
  138.8989   78.2119  224.0168 H   0  0  0  0  0  0  0  0  0  0  0  0
  137.8916   78.6283  222.6417 H   0  0  0  0  0  0  0  0  0  0  0  0
  138.6345   78.5866  220.5153 H   0  0  0  0  0  0  0  0  0  0  0  0
  139.9774   79.7117  220.4281 H   0  0  0  0  0  0  0  0  0  0  0  0
  139.8581   77.1547  219.2545 H   0  0  0  0  0  0  0  0  0  0  0  0
  141.3579   78.1165  219.5069 H   0  0  0  0  0  0  0  0  0  0  0  0
  140.3688   74.7620  221.5332 H   0  0  0  0  0  0  0  0  0  0  0  0
  139.7260   75.3134  219.9470 H   0  0  0  0  0  0  0  0  0  0  0  0
  141.3718   73.7099  219.4124 H   0  0  0  0  0  0  0  0  0  0  0  0
  142.6821   74.5833  221.8442 H   0  0  0  0  0  0  0  0  0  0  0  0
  143.0134   73.1424  220.8929 H   0  0  0  0  0  0  0  0  0  0  0  0
  144.8381   75.1213  221.0208 H   0  0  0  0  0  0  0  0  0  0  0  0
  144.6049   74.3264  219.4799 H   0  0  0  0  0  0  0  0  0  0  0  0
  143.1530   76.6600  220.5910 H   0  0  0  0  0  0  0  0  0  0  0  0
  141.6487   76.4876  218.7772 H   0  0  0  0  0  0  0  0  0  0  0  0
  142.6346   75.2770  217.9797 H   0  0  0  0  0  0  0  0  0  0  0  0
  139.5660   76.3370  222.4557 H   0  0  0  0  0  0  0  0  0  0  0  0
  141.1766   76.8242  223.0259 H   0  0  0  0  0  0  0  0  0  0  0  0
  142.9379   78.2807  222.0164 H   0  0  0  0  0  0  0  0  0  0  0  0
  144.4132   80.0123  223.0292 H   0  0  0  0  0  0  0  0  0  0  0  0
  143.4208   81.9593  224.2571 H   0  0  0  0  0  0  0  0  0  0  0  0
  140.9557   82.1049  224.4266 H   0  0  0  0  0  0  0  0  0  0  0  0
  1  2  2  0
  2  3  1  0
  3  4  2  0
  4  5  1  0
  5  6  2  0
  6  7  1  0
  6  8  1  0
  8  9  2  0
  9 10  1  0
 10 11  2  0
 11 12  1  0
  2 13  1  0
 13 14  1  0
 15 14  1  1
 15 16  1  0
 16 17  1  0
 17 18  1  0
 18 19  1  0
 19 20  1  0
 20 21  1  0
 21 22  1  0
 22 23  1  0
 23 24  1  0
 18 25  1  0
 15 26  1  0
 26 27  2  0
 27 28  1  0
 28 29  2  0
 29 30  1  0
 30 31  2  0
 12  3  1  0
 31 13  1  0
 11  5  1  0
 25 15  1  0
 31 26  1  0
 24 20  1  0
  4 32  1  0
  8 33  1  0
  9 34  1  0
 10 35  1  0
 12 36  1  0
 14 37  1  0
 14 38  1  0
 16 39  1  0
 16 40  1  0
 17 41  1  0
 17 42  1  0
 19 43  1  0
 19 44  1  0
 20 45  1  6
 21 46  1  0
 21 47  1  0
 22 48  1  0
 22 49  1  0
 23 50  1  0
 24 51  1  0
 24 52  1  0
 25 53  1  0
 25 54  1  0
 27 55  1  0
 28 56  1  0
 29 57  1  0
 30 58  1  0
M  END
