
     RDKit          3D

 68 73  0  0  0  0  0  0  0  0999 V2000
  146.7000   73.7530  220.5370 C   0  0  0  0  0  0  0  0  0  0  0  0
  145.2510   73.3410  220.6090 C   0  0  1  0  0  0  0  0  0  0  0  0
  144.3010   74.3300  220.0200 C   0  0  0  0  0  0  0  0  0  0  0  0
  143.7400   73.9190  218.6760 C   0  0  0  0  0  0  0  0  0  0  0  0
  143.0540   72.5880  218.7310 C   0  0  2  0  0  0  0  0  0  0  0  0
  141.6150   72.6870  218.8160 N   0  0  0  0  0  0  0  0  0  0  0  0
  141.0280   73.2590  219.9980 C   0  0  0  0  0  0  0  0  0  0  0  0
  140.9110   74.5740  220.1420 N   0  0  0  0  0  0  0  0  0  0  0  0
  140.3670   75.1010  221.2400 C   0  0  0  0  0  0  0  0  0  0  0  0
  140.2440   76.5230  221.3870 N   0  0  0  0  0  0  0  0  0  0  0  0
  140.2410   77.3080  220.1760 C   0  0  0  0  0  0  0  0  0  0  0  0
  139.8250   78.7400  220.4370 C   0  0  0  0  0  0  0  0  0  0  0  0
  140.6710   79.2160  221.5660 C   0  0  0  0  0  0  0  0  0  0  0  0
  141.3200   80.4280  221.5640 C   0  0  0  0  0  0  0  0  0  0  0  0
  142.1040   80.8400  222.6380 C   0  0  0  0  0  0  0  0  0  0  0  0
  142.2330   80.0030  223.7430 C   0  0  0  0  0  0  0  0  0  0  0  0
  141.5900   78.7840  223.7650 C   0  0  0  0  0  0  0  0  0  0  0  0
  140.8220   78.4130  222.6770 C   0  0  0  0  0  0  0  0  0  0  0  0
  140.1330   77.0940  222.7160 C   0  0  0  0  0  0  0  0  0  0  0  0
  139.9220   74.2800  222.2350 N   0  0  0  0  0  0  0  0  0  0  0  0
  140.0290   72.9480  222.1120 C   0  0  0  0  0  0  0  0  0  0  0  0
  139.5760   72.0630  223.1280 N   0  0  0  0  0  0  0  0  0  0  0  0
  138.2880   71.4070  223.0230 C   0  0  0  0  0  0  0  0  0  0  0  0
  138.5570   69.9110  222.9890 C   0  0  0  0  0  0  0  0  0  0  0  0
  139.2330   69.5820  224.2760 C   0  0  0  0  0  0  0  0  0  0  0  0
  138.9950   68.3650  224.8820 C   0  0  0  0  0  0  0  0  0  0  0  0
  139.6120   68.0390  226.0760 C   0  0  0  0  0  0  0  0  0  0  0  0
  140.4820   68.9520  226.6680 C   0  0  0  0  0  0  0  0  0  0  0  0
  140.7330   70.1750  226.0750 C   0  0  0  0  0  0  0  0  0  0  0  0
  140.0990   70.4680  224.8830 C   0  0  0  0  0  0  0  0  0  0  0  0
  140.4090   71.8090  224.2850 C   0  0  0  0  0  0  0  0  0  0  0  0
  140.5840   72.4620  220.9880 N   0  0  0  0  0  0  0  0  0  0  0  0
  143.5190   71.7620  219.9250 C   0  0  0  0  0  0  0  0  0  0  0  0
  145.0190   71.9740  220.0120 C   0  0  0  0  0  0  0  0  0  0  0  0
  147.0999   73.8667  221.5554 H   0  0  0  0  0  0  0  0  0  0  0  0
  147.2741   72.9825  220.0015 H   0  0  0  0  0  0  0  0  0  0  0  0
  146.7828   74.7103  220.0015 H   0  0  0  0  0  0  0  0  0  0  0  0
  145.0317   73.3021  221.6862 H   0  0  0  0  0  0  0  0  0  0  0  0
  144.8299   75.2865  219.8963 H   0  0  0  0  0  0  0  0  0  0  0  0
  143.4488   74.4038  220.7116 H   0  0  0  0  0  0  0  0  0  0  0  0
  144.5648   73.8625  217.9504 H   0  0  0  0  0  0  0  0  0  0  0  0
  142.9944   74.6707  218.3776 H   0  0  0  0  0  0  0  0  0  0  0  0
  143.3281   72.1000  217.7840 H   0  0  0  0  0  0  0  0  0  0  0  0
  140.9770   72.3600  218.0500 H   0  0  0  0  0  0  0  0  0  0  0  0
  141.2535   77.3038  219.7461 H   0  0  0  0  0  0  0  0  0  0  0  0
  139.5151   76.8618  219.4804 H   0  0  0  0  0  0  0  0  0  0  0  0
  139.9987   79.3571  219.5431 H   0  0  0  0  0  0  0  0  0  0  0  0
  138.7544   78.8098  220.6796 H   0  0  0  0  0  0  0  0  0  0  0  0
  141.2171   81.0894  220.6911 H   0  0  0  0  0  0  0  0  0  0  0  0
  142.6148   81.8139  222.6139 H   0  0  0  0  0  0  0  0  0  0  0  0
  142.8488   80.3148  224.5995 H   0  0  0  0  0  0  0  0  0  0  0  0
  141.6864   78.1170  224.6344 H   0  0  0  0  0  0  0  0  0  0  0  0
  140.6170   76.4357  223.4525 H   0  0  0  0  0  0  0  0  0  0  0  0
  139.0790   77.2081  223.0095 H   0  0  0  0  0  0  0  0  0  0  0  0
  137.6627   71.6594  223.8921 H   0  0  0  0  0  0  0  0  0  0  0  0
  137.7527   71.7319  222.1186 H   0  0  0  0  0  0  0  0  0  0  0  0
  137.6118   69.3553  222.9015 H   0  0  0  0  0  0  0  0  0  0  0  0
  139.1807   69.6349  222.1260 H   0  0  0  0  0  0  0  0  0  0  0  0
  138.3077   67.6472  224.4105 H   0  0  0  0  0  0  0  0  0  0  0  0
  139.4176   67.0675  226.5540 H   0  0  0  0  0  0  0  0  0  0  0  0
  140.9746   68.6967  227.6178 H   0  0  0  0  0  0  0  0  0  0  0  0
  141.4203   70.8969  226.5404 H   0  0  0  0  0  0  0  0  0  0  0  0
  140.2275   72.5900  225.0381 H   0  0  0  0  0  0  0  0  0  0  0  0
  141.4625   71.8182  223.9688 H   0  0  0  0  0  0  0  0  0  0  0  0
  143.2906   70.6976  219.7672 H   0  0  0  0  0  0  0  0  0  0  0  0
  143.0115   72.0671  220.8520 H   0  0  0  0  0  0  0  0  0  0  0  0
  145.4643   71.9225  219.0075 H   0  0  0  0  0  0  0  0  0  0  0  0
  145.4845   71.1957  220.6345 H   0  0  0  0  0  0  0  0  0  0  0  0
  1  2  1  0
  2  3  1  0
  3  4  1  0
  4  5  1  0
  5  6  1  0
  6  7  1  0
  7  8  2  0
  8  9  1  0
  9 10  1  0
 10 11  1  0
 11 12  1  0
 12 13  1  0
 13 14  2  0
 14 15  1  0
 15 16  2  0
 16 17  1  0
 17 18  2  0
 18 19  1  0
  9 20  2  0
 20 21  1  0
 21 22  1  0
 22 23  1  0
 23 24  1  0
 24 25  1  0
 25 26  2  0
 26 27  1  0
 27 28  2  0
 28 29  1  0
 29 30  2  0
 30 31  1  0
 21 32  2  0
  5 33  1  0
 33 34  1  0
 34  2  1  0
 32  7  1  0
 19 10  1  0
 31 22  1  0
 18 13  1  0
 30 25  1  0
  1 35  1  0
  1 36  1  0
  1 37  1  0
  2 38  1  1
  3 39  1  0
  3 40  1  0
  4 41  1  0
  4 42  1  0
  5 43  1  6
  6 44  1  0
 11 45  1  0
 11 46  1  0
 12 47  1  0
 12 48  1  0
 14 49  1  0
 15 50  1  0
 16 51  1  0
 17 52  1  0
 19 53  1  0
 19 54  1  0
 23 55  1  0
 23 56  1  0
 24 57  1  0
 24 58  1  0
 26 59  1  0
 27 60  1  0
 28 61  1  0
 29 62  1  0
 31 63  1  0
 31 64  1  0
 33 65  1  0
 33 66  1  0
 34 67  1  0
 34 68  1  0
M  END
>  <smiles>  (1) 
C[C@H]1CC[C@H](Nc2nc(N3CCc4ccccc4C3)nc(N3CCc4ccccc4C3)n2)CC1

>  <score_type>  (1) 
oracle

>  <origin>  (1) 
autodockgpu

>  <m_score__min__energy>  (1) 
-10.98

>  <m_primary>  (1) 
energy

>  <rmsd>  (1) 
4.985878883441745

>  <m_score__min__rmsd>  (1) 
4.985878883441745

>  <meeko>  (1) 
{"free_energy": -9.72, "intermolecular_energy": -10.91, "internal_energy": -1.41, "cluster_size": 20, "cluster_id": 2, "rank_in_cluster": 14}

>  <energy>  (1) 
-10.98

>  <cluster_rmsd>  (1) 
0.0

>  <cluster>  (1) 
1

$$$$

     RDKit          3D

 68 73  0  0  0  0  0  0  0  0999 V2000
  144.4040   66.6340  218.4230 C   0  0  0  0  0  0  0  0  0  0  0  0
  144.3820   68.1370  218.2980 C   0  0  1  0  0  0  0  0  0  0  0  0
  143.0120   68.7310  218.2830 C   0  0  0  0  0  0  0  0  0  0  0  0
  142.6260   69.4210  219.5740 C   0  0  0  0  0  0  0  0  0  0  0  0
  143.5980   70.4960  219.9540 C   0  0  2  0  0  0  0  0  0  0  0  0
  143.1450   71.8260  219.6140 N   0  0  0  0  0  0  0  0  0  0  0  0
  142.2940   72.5240  220.5400 C   0  0  0  0  0  0  0  0  0  0  0  0
  142.1290   73.8400  220.4660 N   0  0  0  0  0  0  0  0  0  0  0  0
  141.3390   74.4840  221.3270 C   0  0  0  0  0  0  0  0  0  0  0  0
  141.1670   75.9060  221.2390 N   0  0  0  0  0  0  0  0  0  0  0  0
  141.6400   76.5500  220.0380 C   0  0  0  0  0  0  0  0  0  0  0  0
  141.1530   77.9800  219.9390 C   0  0  0  0  0  0  0  0  0  0  0  0
  141.4860   78.6200  221.2420 C   0  0  0  0  0  0  0  0  0  0  0  0
  142.0820   79.8540  221.3460 C   0  0  0  0  0  0  0  0  0  0  0  0
  142.3790   80.4210  222.5830 C   0  0  0  0  0  0  0  0  0  0  0  0
  142.0640   79.7200  223.7440 C   0  0  0  0  0  0  0  0  0  0  0  0
  141.4650   78.4810  223.6600 C   0  0  0  0  0  0  0  0  0  0  0  0
  141.1870   77.9540  222.4130 C   0  0  0  0  0  0  0  0  0  0  0  0
  140.5410   76.6160  222.3390 C   0  0  0  0  0  0  0  0  0  0  0  0
  140.6870   73.7850  222.3000 N   0  0  0  0  0  0  0  0  0  0  0  0
  140.8370   72.4550  222.3940 C   0  0  0  0  0  0  0  0  0  0  0  0
  140.1740   71.6950  223.3950 N   0  0  0  0  0  0  0  0  0  0  0  0
  138.9700   70.9470  223.0860 C   0  0  0  0  0  0  0  0  0  0  0  0
  139.2830   69.4820  223.3470 C   0  0  0  0  0  0  0  0  0  0  0  0
  139.6300   69.3830  224.7930 C   0  0  0  0  0  0  0  0  0  0  0  0
  139.2840   68.2510  225.5040 C   0  0  0  0  0  0  0  0  0  0  0  0
  139.5970   68.1380  226.8460 C   0  0  0  0  0  0  0  0  0  0  0  0
  140.2670   69.1810  227.4820 C   0  0  0  0  0  0  0  0  0  0  0  0
  140.6220   70.3220  226.7860 C   0  0  0  0  0  0  0  0  0  0  0  0
  140.2930   70.4010  225.4470 C   0  0  0  0  0  0  0  0  0  0  0  0
  140.7020   71.6610  224.7430 C   0  0  0  0  0  0  0  0  0  0  0  0
  141.6430   71.8480  221.5060 N   0  0  0  0  0  0  0  0  0  0  0  0
  144.9530   70.2970  219.2840 C   0  0  0  0  0  0  0  0  0  0  0  0
  145.2300   68.8060  219.3530 C   0  0  0  0  0  0  0  0  0  0  0  0
  144.4081   66.3546  219.4869 H   0  0  0  0  0  0  0  0  0  0  0  0
  143.5119   66.2125  217.9366 H   0  0  0  0  0  0  0  0  0  0  0  0
  145.3080   66.2388  217.9366 H   0  0  0  0  0  0  0  0  0  0  0  0
  144.8195   68.3365  217.3087 H   0  0  0  0  0  0  0  0  0  0  0  0
  142.2878   67.9255  218.0914 H   0  0  0  0  0  0  0  0  0  0  0  0
  143.0073   69.5006  217.4970 H   0  0  0  0  0  0  0  0  0  0  0  0
  142.5929   68.6726  220.3795 H   0  0  0  0  0  0  0  0  0  0  0  0
  141.6433   69.8920  219.4243 H   0  0  0  0  0  0  0  0  0  0  0  0
  143.6844   70.4112  221.0473 H   0  0  0  0  0  0  0  0  0  0  0  0
  143.4110   72.3050  218.7200 H   0  0  0  0  0  0  0  0  0  0  0  0
  142.7400   76.5477  220.0421 H   0  0  0  0  0  0  0  0  0  0  0  0
  141.2473   75.9940  219.1739 H   0  0  0  0  0  0  0  0  0  0  0  0
  141.6637   78.5013  219.1159 H   0  0  0  0  0  0  0  0  0  0  0  0
  140.0732   78.0239  219.7336 H   0  0  0  0  0  0  0  0  0  0  0  0
  142.3308   80.4080  220.4288 H   0  0  0  0  0  0  0  0  0  0  0  0
  142.8564   81.4102  222.6420 H   0  0  0  0  0  0  0  0  0  0  0  0
  142.2930   80.1546  224.7282 H   0  0  0  0  0  0  0  0  0  0  0  0
  141.2121   77.9203  224.5720 H   0  0  0  0  0  0  0  0  0  0  0  0
  140.6966   76.0682  223.2802 H   0  0  0  0  0  0  0  0  0  0  0  0
  139.4566   76.7105  222.1804 H   0  0  0  0  0  0  0  0  0  0  0  0
  138.1427   71.2781  223.7309 H   0  0  0  0  0  0  0  0  0  0  0  0
  138.6647   71.1050  222.0411 H   0  0  0  0  0  0  0  0  0  0  0  0
  138.4053   68.8584  223.1218 H   0  0  0  0  0  0  0  0  0  0  0  0
  140.1083   69.1287  222.7113 H   0  0  0  0  0  0  0  0  0  0  0  0
  138.7540   67.4308  224.9976 H   0  0  0  0  0  0  0  0  0  0  0  0
  139.3196   67.2330  227.4064 H   0  0  0  0  0  0  0  0  0  0  0  0
  140.5164   69.0959  228.5500 H   0  0  0  0  0  0  0  0  0  0  0  0
  141.1528   71.1456  227.2860 H   0  0  0  0  0  0  0  0  0  0  0  0
  140.3177   72.5268  225.3021 H   0  0  0  0  0  0  0  0  0  0  0  0
  141.8003   71.6936  224.6910 H   0  0  0  0  0  0  0  0  0  0  0  0
  145.7325   70.8572  219.8212 H   0  0  0  0  0  0  0  0  0  0  0  0
  144.9505   70.6620  218.2463 H   0  0  0  0  0  0  0  0  0  0  0  0
  144.9644   68.4204  220.3484 H   0  0  0  0  0  0  0  0  0  0  0  0
  146.2968   68.6019  219.1791 H   0  0  0  0  0  0  0  0  0  0  0  0
  1  2  1  0
  2  3  1  0
  3  4  1  0
  4  5  1  0
  5  6  1  0
  6  7  1  0
  7  8  2  0
  8  9  1  0
  9 10  1  0
 10 11  1  0
 11 12  1  0
 12 13  1  0
 13 14  2  0
 14 15  1  0
 15 16  2  0
 16 17  1  0
 17 18  2  0
 18 19  1  0
  9 20  2  0
 20 21  1  0
 21 22  1  0
 22 23  1  0
 23 24  1  0
 24 25  1  0
 25 26  2  0
 26 27  1  0
 27 28  2  0
 28 29  1  0
 29 30  2  0
 30 31  1  0
 21 32  2  0
  5 33  1  0
 33 34  1  0
 34  2  1  0
 32  7  1  0
 19 10  1  0
 31 22  1  0
 18 13  1  0
 30 25  1  0
  1 35  1  0
  1 36  1  0
  1 37  1  0
  2 38  1  6
  3 39  1  0
  3 40  1  0
  4 41  1  0
  4 42  1  0
  5 43  1  1
  6 44  1  0
 11 45  1  0
 11 46  1  0
 12 47  1  0
 12 48  1  0
 14 49  1  0
 15 50  1  0
 16 51  1  0
 17 52  1  0
 19 53  1  0
 19 54  1  0
 23 55  1  0
 23 56  1  0
 24 57  1  0
 24 58  1  0
 26 59  1  0
 27 60  1  0
 28 61  1  0
 29 62  1  0
 31 63  1  0
 31 64  1  0
 33 65  1  0
 33 66  1  0
 34 67  1  0
 34 68  1  0
M  END
>  <smiles>  (2) 
C[C@H]1CC[C@H](Nc2nc(N3CCc4ccccc4C3)nc(N3CCc4ccccc4C3)n2)CC1

>  <score_type>  (2) 
oracle

>  <origin>  (2) 
autodockgpu

>  <m_score__min__energy>  (2) 
-10.98

>  <m_primary>  (2) 
energy

>  <rmsd>  (2) 
4.867352281535366

>  <m_score__min__rmsd>  (2) 
4.867352281535366

>  <meeko>  (2) 
{"free_energy": -9.86, "intermolecular_energy": -11.05, "internal_energy": -1.03, "cluster_size": 20, "cluster_id": 2, "rank_in_cluster": 11}

>  <energy>  (2) 
-10.97

>  <cluster_rmsd>  (2) 
0.07

>  <cluster>  (2) 
1

$$$$

     RDKit          3D

 68 73  0  0  0  0  0  0  0  0999 V2000
  146.7070   73.7370  220.5030 C   0  0  0  0  0  0  0  0  0  0  0  0
  145.2970   73.2210  220.6420 C   0  0  1  0  0  0  0  0  0  0  0  0
  144.2540   74.1320  220.0850 C   0  0  0  0  0  0  0  0  0  0  0  0
  143.6670   73.6650  218.7700 C   0  0  0  0  0  0  0  0  0  0  0  0
  143.0840   72.2890  218.8670 C   0  0  2  0  0  0  0  0  0  0  0  0
  141.6450   72.2840  219.0120 N   0  0  0  0  0  0  0  0  0  0  0  0
  141.0650   72.9180  220.1650 C   0  0  0  0  0  0  0  0  0  0  0  0
  140.9720   74.2400  220.2520 N   0  0  0  0  0  0  0  0  0  0  0  0
  140.4330   74.8250  221.3230 C   0  0  0  0  0  0  0  0  0  0  0  0
  140.3370   76.2540  221.4070 N   0  0  0  0  0  0  0  0  0  0  0  0
  140.4220   76.9890  220.1680 C   0  0  0  0  0  0  0  0  0  0  0  0
  140.0270   78.4400  220.3490 C   0  0  0  0  0  0  0  0  0  0  0  0
  140.8190   78.9420  221.5060 C   0  0  0  0  0  0  0  0  0  0  0  0
  141.4970   80.1380  221.4950 C   0  0  0  0  0  0  0  0  0  0  0  0
  142.2280   80.5750  222.5970 C   0  0  0  0  0  0  0  0  0  0  0  0
  142.2730   79.7800  223.7390 C   0  0  0  0  0  0  0  0  0  0  0  0
  141.5990   78.5780  223.7700 C   0  0  0  0  0  0  0  0  0  0  0  0
  140.8860   78.1810  222.6550 C   0  0  0  0  0  0  0  0  0  0  0  0
  140.1640   76.8800  222.7040 C   0  0  0  0  0  0  0  0  0  0  0  0
  139.9670   74.0570  222.3490 N   0  0  0  0  0  0  0  0  0  0  0  0
  140.0480   72.7190  222.2850 C   0  0  0  0  0  0  0  0  0  0  0  0
  139.5740   71.8880  223.3350 N   0  0  0  0  0  0  0  0  0  0  0  0
  138.3510   71.1240  223.1850 C   0  0  0  0  0  0  0  0  0  0  0  0
  138.7300   69.6560  223.3070 C   0  0  0  0  0  0  0  0  0  0  0  0
  139.3120   69.4900  224.6680 C   0  0  0  0  0  0  0  0  0  0  0  0
  139.1100   68.3120  225.3600 C   0  0  0  0  0  0  0  0  0  0  0  0
  139.6420   68.1370  226.6250 C   0  0  0  0  0  0  0  0  0  0  0  0
  140.3870   69.1630  227.2010 C   0  0  0  0  0  0  0  0  0  0  0  0
  140.6000   70.3490  226.5240 C   0  0  0  0  0  0  0  0  0  0  0  0
  140.0540   70.4900  225.2630 C   0  0  0  0  0  0  0  0  0  0  0  0
  140.3180   71.7970  224.5750 C   0  0  0  0  0  0  0  0  0  0  0  0
  140.6000   72.1740  221.1870 N   0  0  0  0  0  0  0  0  0  0  0  0
  143.6580   71.5130  220.0470 C   0  0  0  0  0  0  0  0  0  0  0  0
  145.1410   71.8340  220.0670 C   0  0  0  0  0  0  0  0  0  0  0  0
  147.1396   73.8953  221.5019 H   0  0  0  0  0  0  0  0  0  0  0  0
  147.3136   73.0026  219.9529 H   0  0  0  0  0  0  0  0  0  0  0  0
  146.6963   74.6895  219.9529 H   0  0  0  0  0  0  0  0  0  0  0  0
  145.1263   73.1778  221.7278 H   0  0  0  0  0  0  0  0  0  0  0  0
  144.7070   75.1222  219.9293 H   0  0  0  0  0  0  0  0  0  0  0  0
  143.4289   74.1533  220.8121 H   0  0  0  0  0  0  0  0  0  0  0  0
  144.4616   73.6601  218.0093 H   0  0  0  0  0  0  0  0  0  0  0  0
  142.8561   74.3566  218.4979 H   0  0  0  0  0  0  0  0  0  0  0  0
  143.3538   71.8106  217.9139 H   0  0  0  0  0  0  0  0  0  0  0  0
  141.0050   71.8380  218.3120 H   0  0  0  0  0  0  0  0  0  0  0  0
  141.4568   76.9448  219.7976 H   0  0  0  0  0  0  0  0  0  0  0  0
  139.7261   76.5313  219.4494 H   0  0  0  0  0  0  0  0  0  0  0  0
  140.2664   79.0167  219.4434 H   0  0  0  0  0  0  0  0  0  0  0  0
  138.9463   78.5433  220.5264 H   0  0  0  0  0  0  0  0  0  0  0  0
  141.4612   80.7660  220.5926 H   0  0  0  0  0  0  0  0  0  0  0  0
  142.7628   81.5357  222.5655 H   0  0  0  0  0  0  0  0  0  0  0  0
  142.8468   80.1113  224.6171 H   0  0  0  0  0  0  0  0  0  0  0  0
  141.6283   77.9445  224.6688 H   0  0  0  0  0  0  0  0  0  0  0  0
  140.5886   76.2410  223.4923 H   0  0  0  0  0  0  0  0  0  0  0  0
  139.0980   77.0292  222.9306 H   0  0  0  0  0  0  0  0  0  0  0  0
  137.6352   71.3968  223.9744 H   0  0  0  0  0  0  0  0  0  0  0  0
  137.8751   71.3287  222.2146 H   0  0  0  0  0  0  0  0  0  0  0  0
  137.8389   69.0212  223.1931 H   0  0  0  0  0  0  0  0  0  0  0  0
  139.4455   69.3600  222.5257 H   0  0  0  0  0  0  0  0  0  0  0  0
  138.5203   67.5049  224.9008 H   0  0  0  0  0  0  0  0  0  0  0  0
  139.4781   67.1962  227.1708 H   0  0  0  0  0  0  0  0  0  0  0  0
  140.8110   69.0279  228.2069 H   0  0  0  0  0  0  0  0  0  0  0  0
  141.1891   71.1597  226.9776 H   0  0  0  0  0  0  0  0  0  0  0  0
  140.0150   72.6207  225.2381 H   0  0  0  0  0  0  0  0  0  0  0  0
  141.3919   71.8632  224.3462 H   0  0  0  0  0  0  0  0  0  0  0  0
  143.5011   70.4331  219.9086 H   0  0  0  0  0  0  0  0  0  0  0  0
  143.1695   71.7915  220.9924 H   0  0  0  0  0  0  0  0  0  0  0  0
  145.5458   71.8035  219.0446 H   0  0  0  0  0  0  0  0  0  0  0  0
  145.6885   71.0986  220.6748 H   0  0  0  0  0  0  0  0  0  0  0  0
  1  2  1  0
  2  3  1  0
  3  4  1  0
  4  5  1  0
  5  6  1  0
  6  7  1  0
  7  8  2  0
  8  9  1  0
  9 10  1  0
 10 11  1  0
 11 12  1  0
 12 13  1  0
 13 14  2  0
 14 15  1  0
 15 16  2  0
 16 17  1  0
 17 18  2  0
 18 19  1  0
  9 20  2  0
 20 21  1  0
 21 22  1  0
 22 23  1  0
 23 24  1  0
 24 25  1  0
 25 26  2  0
 26 27  1  0
 27 28  2  0
 28 29  1  0
 29 30  2  0
 30 31  1  0
 21 32  2  0
  5 33  1  0
 33 34  1  0
 34  2  1  0
 32  7  1  0
 19 10  1  0
 31 22  1  0
 18 13  1  0
 30 25  1  0
  1 35  1  0
  1 36  1  0
  1 37  1  0
  2 38  1  1
  3 39  1  0
  3 40  1  0
  4 41  1  0
  4 42  1  0
  5 43  1  6
  6 44  1  0
 11 45  1  0
 11 46  1  0
 12 47  1  0
 12 48  1  0
 14 49  1  0
 15 50  1  0
 16 51  1  0
 17 52  1  0
 19 53  1  0
 19 54  1  0
 23 55  1  0
 23 56  1  0
 24 57  1  0
 24 58  1  0
 26 59  1  0
 27 60  1  0
 28 61  1  0
 29 62  1  0
 31 63  1  0
 31 64  1  0
 33 65  1  0
 33 66  1  0
 34 67  1  0
 34 68  1  0
M  END
>  <smiles>  (3) 
C[C@H]1CC[C@H](Nc2nc(N3CCc4ccccc4C3)nc(N3CCc4ccccc4C3)n2)CC1

>  <score_type>  (3) 
oracle

>  <origin>  (3) 
autodockgpu

>  <m_score__min__energy>  (3) 
-10.98

>  <m_primary>  (3) 
energy

>  <rmsd>  (3) 
4.928070322338428

>  <m_score__min__rmsd>  (3) 
4.928070322338428

>  <meeko>  (3) 
{"free_energy": -9.95, "intermolecular_energy": -11.15, "internal_energy": -1.4, "cluster_size": 20, "cluster_id": 2, "rank_in_cluster": 9}

>  <energy>  (3) 
-10.97

>  <cluster_rmsd>  (3) 
0.07

>  <cluster>  (3) 
1

$$$$

     RDKit          3D

 68 73  0  0  0  0  0  0  0  0999 V2000
  140.7130   68.8760  227.7200 C   0  0  0  0  0  0  0  0  0  0  0  0
  139.8910   69.7520  226.8090 C   0  0  1  0  0  0  0  0  0  0  0  0
  140.5540   71.0360  226.4310 C   0  0  0  0  0  0  0  0  0  0  0  0
  141.0790   71.0630  225.0120 C   0  0  0  0  0  0  0  0  0  0  0  0
  140.0080   70.7760  224.0060 C   0  0  2  0  0  0  0  0  0  0  0  0
  139.4820   71.9640  223.3720 N   0  0  0  0  0  0  0  0  0  0  0  0
  140.3090   72.6700  222.4310 C   0  0  0  0  0  0  0  0  0  0  0  0
  140.2650   73.9940  222.3330 N   0  0  0  0  0  0  0  0  0  0  0  0
  141.0340   74.6450  221.4590 C   0  0  0  0  0  0  0  0  0  0  0  0
  140.9790   76.0760  221.3590 N   0  0  0  0  0  0  0  0  0  0  0  0
  141.5490   76.6710  220.1750 C   0  0  0  0  0  0  0  0  0  0  0  0
  141.1820   78.1350  220.0520 C   0  0  0  0  0  0  0  0  0  0  0  0
  141.5120   78.7560  221.3650 C   0  0  0  0  0  0  0  0  0  0  0  0
  142.2000   79.9400  221.4890 C   0  0  0  0  0  0  0  0  0  0  0  0
  142.4910   80.4900  222.7340 C   0  0  0  0  0  0  0  0  0  0  0  0
  142.0740   79.8230  223.8840 C   0  0  0  0  0  0  0  0  0  0  0  0
  141.3830   78.6350  223.7800 C   0  0  0  0  0  0  0  0  0  0  0  0
  141.1150   78.1230  222.5250 C   0  0  0  0  0  0  0  0  0  0  0  0
  140.3680   76.8400  222.4300 C   0  0  0  0  0  0  0  0  0  0  0  0
  141.8800   73.9460  220.6500 N   0  0  0  0  0  0  0  0  0  0  0  0
  141.9440   72.6080  220.7310 C   0  0  0  0  0  0  0  0  0  0  0  0
  142.8140   71.8460  219.9050 N   0  0  0  0  0  0  0  0  0  0  0  0
  143.8360   72.4940  219.1060 C   0  0  0  0  0  0  0  0  0  0  0  0
  145.1760   71.9630  219.5910 C   0  0  0  0  0  0  0  0  0  0  0  0
  145.1500   70.4920  219.3560 C   0  0  0  0  0  0  0  0  0  0  0  0
  146.3130   69.8350  219.0060 C   0  0  0  0  0  0  0  0  0  0  0  0
  146.3120   68.4700  218.7840 C   0  0  0  0  0  0  0  0  0  0  0  0
  145.1220   67.7570  218.9150 C   0  0  0  0  0  0  0  0  0  0  0  0
  143.9480   68.3980  219.2650 C   0  0  0  0  0  0  0  0  0  0  0  0
  143.9860   69.7620  219.4800 C   0  0  0  0  0  0  0  0  0  0  0  0
  142.6840   70.4050  219.8570 C   0  0  0  0  0  0  0  0  0  0  0  0
  141.1510   71.9940  221.6270 N   0  0  0  0  0  0  0  0  0  0  0  0
  138.8280   70.0380  224.6290 C   0  0  0  0  0  0  0  0  0  0  0  0
  139.4360   69.0150  225.5720 C   0  0  0  0  0  0  0  0  0  0  0  0
  140.4841   69.1199  228.7679 H   0  0  0  0  0  0  0  0  0  0  0  0
  140.4724   67.8199  227.5284 H   0  0  0  0  0  0  0  0  0  0  0  0
  141.7823   69.0490  227.5284 H   0  0  0  0  0  0  0  0  0  0  0  0
  139.0091   70.0206  227.4091 H   0  0  0  0  0  0  0  0  0  0  0  0
  141.3985   71.2039  227.1155 H   0  0  0  0  0  0  0  0  0  0  0  0
  139.7884   71.8226  226.5022 H   0  0  0  0  0  0  0  0  0  0  0  0
  141.8702   70.3053  224.9127 H   0  0  0  0  0  0  0  0  0  0  0  0
  141.4650   72.0739  224.8145 H   0  0  0  0  0  0  0  0  0  0  0  0
  140.5058   70.1519  223.2493 H   0  0  0  0  0  0  0  0  0  0  0  0
  138.5200   72.3330  223.5690 H   0  0  0  0  0  0  0  0  0  0  0  0
  142.6443   76.5808  220.2226 H   0  0  0  0  0  0  0  0  0  0  0  0
  141.1477   76.1419  219.2980 H   0  0  0  0  0  0  0  0  0  0  0  0
  141.7653   78.6085  219.2485 H   0  0  0  0  0  0  0  0  0  0  0  0
  140.1181   78.2628  219.8034 H   0  0  0  0  0  0  0  0  0  0  0  0
  142.5289   80.4662  220.5807 H   0  0  0  0  0  0  0  0  0  0  0  0
  143.0428   81.4386  222.8090 H   0  0  0  0  0  0  0  0  0  0  0  0
  142.2964   80.2447  224.8753 H   0  0  0  0  0  0  0  0  0  0  0  0
  141.0498   78.1023  224.6829 H   0  0  0  0  0  0  0  0  0  0  0  0
  140.4419   76.2879  223.3785 H   0  0  0  0  0  0  0  0  0  0  0  0
  139.3016   77.0189  222.2278 H   0  0  0  0  0  0  0  0  0  0  0  0
  143.6953   72.2516  218.0423 H   0  0  0  0  0  0  0  0  0  0  0  0
  143.7839   73.5878  219.2105 H   0  0  0  0  0  0  0  0  0  0  0  0
  145.9973   72.4253  219.0237 H   0  0  0  0  0  0  0  0  0  0  0  0
  145.3387   72.1963  220.6536 H   0  0  0  0  0  0  0  0  0  0  0  0
  147.2494   70.4029  218.9028 H   0  0  0  0  0  0  0  0  0  0  0  0
  147.2419   67.9520  218.5066 H   0  0  0  0  0  0  0  0  0  0  0  0
  145.1165   66.6714  218.7379 H   0  0  0  0  0  0  0  0  0  0  0  0
  143.0080   67.8363  219.3696 H   0  0  0  0  0  0  0  0  0  0  0  0
  141.9208   70.1369  219.1115 H   0  0  0  0  0  0  0  0  0  0  0  0
  142.3903   70.0453  220.8542 H   0  0  0  0  0  0  0  0  0  0  0  0
  138.2344   69.5368  223.8502 H   0  0  0  0  0  0  0  0  0  0  0  0
  138.1515   70.7260  225.1572 H   0  0  0  0  0  0  0  0  0  0  0  0
  140.2944   68.5238  225.0904 H   0  0  0  0  0  0  0  0  0  0  0  0
  138.6988   68.2409  225.8314 H   0  0  0  0  0  0  0  0  0  0  0  0
  1  2  1  0
  2  3  1  0
  3  4  1  0
  4  5  1  0
  5  6  1  0
  6  7  1  0
  7  8  2  0
  8  9  1  0
  9 10  1  0
 10 11  1  0
 11 12  1  0
 12 13  1  0
 13 14  2  0
 14 15  1  0
 15 16  2  0
 16 17  1  0
 17 18  2  0
 18 19  1  0
  9 20  2  0
 20 21  1  0
 21 22  1  0
 22 23  1  0
 23 24  1  0
 24 25  1  0
 25 26  2  0
 26 27  1  0
 27 28  2  0
 28 29  1  0
 29 30  2  0
 30 31  1  0
 21 32  2  0
  5 33  1  0
 33 34  1  0
 34  2  1  0
 32  7  1  0
 19 10  1  0
 31 22  1  0
 18 13  1  0
 30 25  1  0
  1 35  1  0
  1 36  1  0
  1 37  1  0
  2 38  1  1
  3 39  1  0
  3 40  1  0
  4 41  1  0
  4 42  1  0
  5 43  1  6
  6 44  1  0
 11 45  1  0
 11 46  1  0
 12 47  1  0
 12 48  1  0
 14 49  1  0
 15 50  1  0
 16 51  1  0
 17 52  1  0
 19 53  1  0
 19 54  1  0
 23 55  1  0
 23 56  1  0
 24 57  1  0
 24 58  1  0
 26 59  1  0
 27 60  1  0
 28 61  1  0
 29 62  1  0
 31 63  1  0
 31 64  1  0
 33 65  1  0
 33 66  1  0
 34 67  1  0
 34 68  1  0
M  END
>  <smiles>  (4) 
C[C@H]1CC[C@H](Nc2nc(N3CCc4ccccc4C3)nc(N3CCc4ccccc4C3)n2)CC1

>  <score_type>  (4) 
oracle

>  <origin>  (4) 
autodockgpu

>  <m_score__min__energy>  (4) 
-10.98

>  <m_primary>  (4) 
energy

>  <rmsd>  (4) 
4.932251613726228

>  <m_score__min__rmsd>  (4) 
4.932251613726228

>  <meeko>  (4) 
{"free_energy": -10.96, "intermolecular_energy": -12.15, "internal_energy": -1.04, "cluster_size": 24, "cluster_id": 1, "rank_in_cluster": 9}

>  <energy>  (4) 
-10.97

>  <cluster_rmsd>  (4) 
0.1

>  <cluster>  (4) 
1

$$$$

     RDKit          3D

 68 73  0  0  0  0  0  0  0  0999 V2000
  140.7280   69.0340  227.8130 C   0  0  0  0  0  0  0  0  0  0  0  0
  139.8990   69.8700  226.8710 C   0  0  1  0  0  0  0  0  0  0  0  0
  140.5370   71.1590  226.4730 C   0  0  0  0  0  0  0  0  0  0  0  0
  141.0820   71.1660  225.0610 C   0  0  0  0  0  0  0  0  0  0  0  0
  140.0310   70.8310  224.0470 C   0  0  2  0  0  0  0  0  0  0  0  0
  139.4870   71.9920  223.3790 N   0  0  0  0  0  0  0  0  0  0  0  0
  140.3110   72.6980  222.4350 C   0  0  0  0  0  0  0  0  0  0  0  0
  140.2660   74.0210  222.3350 N   0  0  0  0  0  0  0  0  0  0  0  0
  141.0330   74.6720  221.4580 C   0  0  0  0  0  0  0  0  0  0  0  0
  140.9770   76.1020  221.3580 N   0  0  0  0  0  0  0  0  0  0  0  0
  141.5400   76.6960  220.1690 C   0  0  0  0  0  0  0  0  0  0  0  0
  141.1720   78.1600  220.0460 C   0  0  0  0  0  0  0  0  0  0  0  0
  141.5100   78.7820  221.3560 C   0  0  0  0  0  0  0  0  0  0  0  0
  142.1980   79.9670  221.4740 C   0  0  0  0  0  0  0  0  0  0  0  0
  142.4970   80.5190  222.7170 C   0  0  0  0  0  0  0  0  0  0  0  0
  142.0870   79.8540  223.8700 C   0  0  0  0  0  0  0  0  0  0  0  0
  141.3950   78.6660  223.7720 C   0  0  0  0  0  0  0  0  0  0  0  0
  141.1190   78.1520  222.5200 C   0  0  0  0  0  0  0  0  0  0  0  0
  140.3720   76.8680  222.4310 C   0  0  0  0  0  0  0  0  0  0  0  0
  141.8780   73.9720  220.6490 N   0  0  0  0  0  0  0  0  0  0  0  0
  141.9430   72.6340  220.7320 C   0  0  0  0  0  0  0  0  0  0  0  0
  142.8110   71.8720  219.9050 N   0  0  0  0  0  0  0  0  0  0  0  0
  143.8340   72.5190  219.1060 C   0  0  0  0  0  0  0  0  0  0  0  0
  145.1740   71.9850  219.5900 C   0  0  0  0  0  0  0  0  0  0  0  0
  145.1450   70.5150  219.3540 C   0  0  0  0  0  0  0  0  0  0  0  0
  146.3070   69.8550  219.0030 C   0  0  0  0  0  0  0  0  0  0  0  0
  146.3030   68.4910  218.7790 C   0  0  0  0  0  0  0  0  0  0  0  0
  145.1120   67.7800  218.9100 C   0  0  0  0  0  0  0  0  0  0  0  0
  143.9400   68.4220  219.2610 C   0  0  0  0  0  0  0  0  0  0  0  0
  143.9800   69.7860  219.4770 C   0  0  0  0  0  0  0  0  0  0  0  0
  142.6790   70.4310  219.8550 C   0  0  0  0  0  0  0  0  0  0  0  0
  141.1520   72.0210  221.6300 N   0  0  0  0  0  0  0  0  0  0  0  0
  138.8610   70.0810  224.6710 C   0  0  0  0  0  0  0  0  0  0  0  0
  139.4780   69.0940  225.6450 C   0  0  0  0  0  0  0  0  0  0  0  0
  140.4734   69.2908  228.8519 H   0  0  0  0  0  0  0  0  0  0  0  0
  140.5199   67.9683  227.6372 H   0  0  0  0  0  0  0  0  0  0  0  0
  141.7955   69.2331  227.6372 H   0  0  0  0  0  0  0  0  0  0  0  0
  139.0029   70.1321  227.4526 H   0  0  0  0  0  0  0  0  0  0  0  0
  141.3673   71.3622  227.1653 H   0  0  0  0  0  0  0  0  0  0  0  0
  139.7524   71.9288  226.5151 H   0  0  0  0  0  0  0  0  0  0  0  0
  141.8917   70.4248  224.9901 H   0  0  0  0  0  0  0  0  0  0  0  0
  141.4481   72.1806  224.8454 H   0  0  0  0  0  0  0  0  0  0  0  0
  140.5529   70.2014  223.3113 H   0  0  0  0  0  0  0  0  0  0  0  0
  138.5140   72.3430  223.5530 H   0  0  0  0  0  0  0  0  0  0  0  0
  142.6355   76.6061  220.2101 H   0  0  0  0  0  0  0  0  0  0  0  0
  141.1334   76.1657  219.2953 H   0  0  0  0  0  0  0  0  0  0  0  0
  141.7504   78.6325  219.2384 H   0  0  0  0  0  0  0  0  0  0  0  0
  140.1067   78.2877  219.8034 H   0  0  0  0  0  0  0  0  0  0  0  0
  142.5204   80.4923  220.5629 H   0  0  0  0  0  0  0  0  0  0  0  0
  143.0496   81.4675  222.7873 H   0  0  0  0  0  0  0  0  0  0  0  0
  142.3156   80.2771  224.8593 H   0  0  0  0  0  0  0  0  0  0  0  0
  141.0673   78.1349  224.6778 H   0  0  0  0  0  0  0  0  0  0  0  0
  140.4514   76.3176  223.3801 H   0  0  0  0  0  0  0  0  0  0  0  0
  139.3046   77.0463  222.2341 H   0  0  0  0  0  0  0  0  0  0  0  0
  143.6923   72.2778  218.0422 H   0  0  0  0  0  0  0  0  0  0  0  0
  143.7839   73.6128  219.2116 H   0  0  0  0  0  0  0  0  0  0  0  0
  145.9957   72.4462  219.0225 H   0  0  0  0  0  0  0  0  0  0  0  0
  145.3379   72.2173  220.6526 H   0  0  0  0  0  0  0  0  0  0  0  0
  147.2448   70.4208  218.9008 H   0  0  0  0  0  0  0  0  0  0  0  0
  147.2316   67.9716  218.4999 H   0  0  0  0  0  0  0  0  0  0  0  0
  145.1047   66.6945  218.7319 H   0  0  0  0  0  0  0  0  0  0  0  0
  142.9993   67.8616  219.3658 H   0  0  0  0  0  0  0  0  0  0  0  0
  141.9154   70.1651  219.1092 H   0  0  0  0  0  0  0  0  0  0  0  0
  142.3851   70.0706  220.8519 H   0  0  0  0  0  0  0  0  0  0  0  0
  138.2896   69.5489  223.8962 H   0  0  0  0  0  0  0  0  0  0  0  0
  138.1624   70.7654  225.1746 H   0  0  0  0  0  0  0  0  0  0  0  0
  140.3538   68.6115  225.1867 H   0  0  0  0  0  0  0  0  0  0  0  0
  138.7549   68.3093  225.9121 H   0  0  0  0  0  0  0  0  0  0  0  0
  1  2  1  0
  2  3  1  0
  3  4  1  0
  4  5  1  0
  5  6  1  0
  6  7  1  0
  7  8  2  0
  8  9  1  0
  9 10  1  0
 10 11  1  0
 11 12  1  0
 12 13  1  0
 13 14  2  0
 14 15  1  0
 15 16  2  0
 16 17  1  0
 17 18  2  0
 18 19  1  0
  9 20  2  0
 20 21  1  0
 21 22  1  0
 22 23  1  0
 23 24  1  0
 24 25  1  0
 25 26  2  0
 26 27  1  0
 27 28  2  0
 28 29  1  0
 29 30  2  0
 30 31  1  0
 21 32  2  0
  5 33  1  0
 33 34  1  0
 34  2  1  0
 32  7  1  0
 19 10  1  0
 31 22  1  0
 18 13  1  0
 30 25  1  0
  1 35  1  0
  1 36  1  0
  1 37  1  0
  2 38  1  1
  3 39  1  0
  3 40  1  0
  4 41  1  0
  4 42  1  0
  5 43  1  6
  6 44  1  0
 11 45  1  0
 11 46  1  0
 12 47  1  0
 12 48  1  0
 14 49  1  0
 15 50  1  0
 16 51  1  0
 17 52  1  0
 19 53  1  0
 19 54  1  0
 23 55  1  0
 23 56  1  0
 24 57  1  0
 24 58  1  0
 26 59  1  0
 27 60  1  0
 28 61  1  0
 29 62  1  0
 31 63  1  0
 31 64  1  0
 33 65  1  0
 33 66  1  0
 34 67  1  0
 34 68  1  0
M  END
>  <smiles>  (5) 
C[C@H]1CC[C@H](Nc2nc(N3CCc4ccccc4C3)nc(N3CCc4ccccc4C3)n2)CC1

>  <score_type>  (5) 
oracle

>  <origin>  (5) 
autodockgpu

>  <m_score__min__energy>  (5) 
-10.98

>  <m_primary>  (5) 
energy

>  <rmsd>  (5) 
4.927866331522254

>  <m_score__min__rmsd>  (5) 
4.927866331522254

>  <meeko>  (5) 
{"free_energy": -10.97, "intermolecular_energy": -12.16, "internal_energy": -1.04, "cluster_size": 24, "cluster_id": 1, "rank_in_cluster": 4}

>  <energy>  (5) 
-10.97

>  <cluster_rmsd>  (5) 
0.09

>  <cluster>  (5) 
1

$$$$

     RDKit          3D

 68 73  0  0  0  0  0  0  0  0999 V2000
  140.6950   68.9750  227.8700 C   0  0  0  0  0  0  0  0  0  0  0  0
  139.8810   69.7880  226.8950 C   0  0  1  0  0  0  0  0  0  0  0  0
  140.4770   71.1140  226.5560 C   0  0  0  0  0  0  0  0  0  0  0  0
  141.1000   71.1740  225.1780 C   0  0  0  0  0  0  0  0  0  0  0  0
  140.1260   70.8090  224.1000 C   0  0  2  0  0  0  0  0  0  0  0  0
  139.5650   71.9550  223.4210 N   0  0  0  0  0  0  0  0  0  0  0  0
  140.3730   72.6540  222.4580 C   0  0  0  0  0  0  0  0  0  0  0  0
  140.3190   73.9750  222.3420 N   0  0  0  0  0  0  0  0  0  0  0  0
  141.0710   74.6200  221.4470 C   0  0  0  0  0  0  0  0  0  0  0  0
  141.0060   76.0480  221.3300 N   0  0  0  0  0  0  0  0  0  0  0  0
  141.6390   76.6390  220.1760 C   0  0  0  0  0  0  0  0  0  0  0  0
  141.2640   78.0960  220.0150 C   0  0  0  0  0  0  0  0  0  0  0  0
  141.5080   78.7340  221.3380 C   0  0  0  0  0  0  0  0  0  0  0  0
  142.1740   79.9270  221.4900 C   0  0  0  0  0  0  0  0  0  0  0  0
  142.3840   80.4930  222.7450 C   0  0  0  0  0  0  0  0  0  0  0  0
  141.9070   79.8330  223.8750 C   0  0  0  0  0  0  0  0  0  0  0  0
  141.2360   78.6370  223.7430 C   0  0  0  0  0  0  0  0  0  0  0  0
  141.0490   78.1090  222.4790 C   0  0  0  0  0  0  0  0  0  0  0  0
  140.3230   76.8160  222.3540 C   0  0  0  0  0  0  0  0  0  0  0  0
  141.9090   73.9140  220.6350 N   0  0  0  0  0  0  0  0  0  0  0  0
  141.9810   72.5770  220.7330 C   0  0  0  0  0  0  0  0  0  0  0  0
  142.8430   71.8100  219.9040 N   0  0  0  0  0  0  0  0  0  0  0  0
  143.8790   72.4480  219.1160 C   0  0  0  0  0  0  0  0  0  0  0  0
  145.2080   71.8910  219.6020 C   0  0  0  0  0  0  0  0  0  0  0  0
  145.1590   70.4230  219.3530 C   0  0  0  0  0  0  0  0  0  0  0  0
  146.3130   69.7500  219.0020 C   0  0  0  0  0  0  0  0  0  0  0  0
  146.2900   68.3870  218.7660 C   0  0  0  0  0  0  0  0  0  0  0  0
  145.0880   67.6930  218.8860 C   0  0  0  0  0  0  0  0  0  0  0  0
  143.9240   68.3500  219.2360 C   0  0  0  0  0  0  0  0  0  0  0  0
  143.9830   69.7110  219.4640 C   0  0  0  0  0  0  0  0  0  0  0  0
  142.6890   70.3710  219.8420 C   0  0  0  0  0  0  0  0  0  0  0  0
  141.2060   71.9710  221.6490 N   0  0  0  0  0  0  0  0  0  0  0  0
  138.9600   69.9920  224.6430 C   0  0  0  0  0  0  0  0  0  0  0  0
  139.5680   69.0170  225.6350 C   0  0  0  0  0  0  0  0  0  0  0  0
  140.4185   69.2512  228.8982 H   0  0  0  0  0  0  0  0  0  0  0  0
  140.4954   67.9049  227.7115 H   0  0  0  0  0  0  0  0  0  0  0  0
  141.7648   69.1759  227.7115 H   0  0  0  0  0  0  0  0  0  0  0  0
  138.9413   69.9953  227.4280 H   0  0  0  0  0  0  0  0  0  0  0  0
  141.2559   71.3432  227.2982 H   0  0  0  0  0  0  0  0  0  0  0  0
  139.6548   71.8447  226.5659 H   0  0  0  0  0  0  0  0  0  0  0  0
  141.9475   70.4737  225.1416 H   0  0  0  0  0  0  0  0  0  0  0  0
  141.4278   72.2089  225.0005 H   0  0  0  0  0  0  0  0  0  0  0  0
  140.7190   70.2192  223.3855 H   0  0  0  0  0  0  0  0  0  0  0  0
  138.5900   72.3000  223.6000 H   0  0  0  0  0  0  0  0  0  0  0  0
  142.7304   76.5626  220.2902 H   0  0  0  0  0  0  0  0  0  0  0  0
  141.2965   76.0966  219.2824 H   0  0  0  0  0  0  0  0  0  0  0  0
  141.8890   78.5679  219.2426 H   0  0  0  0  0  0  0  0  0  0  0  0
  140.2156   78.2088  219.7018 H   0  0  0  0  0  0  0  0  0  0  0  0
  142.5507   80.4479  220.5974 H   0  0  0  0  0  0  0  0  0  0  0  0
  142.9196   81.4488  222.8426 H   0  0  0  0  0  0  0  0  0  0  0  0
  142.0661   80.2669  224.8732 H   0  0  0  0  0  0  0  0  0  0  0  0
  140.8547   78.1100  224.6301 H   0  0  0  0  0  0  0  0  0  0  0  0
  140.3460   76.2749  223.3114 H   0  0  0  0  0  0  0  0  0  0  0  0
  139.2687   76.9800  222.0864 H   0  0  0  0  0  0  0  0  0  0  0  0
  143.7393   72.2175  218.0495 H   0  0  0  0  0  0  0  0  0  0  0  0
  143.8443   73.5415  219.2305 H   0  0  0  0  0  0  0  0  0  0  0  0
  146.0393   72.3452  219.0428 H   0  0  0  0  0  0  0  0  0  0  0  0
  145.3698   72.1118  220.6674 H   0  0  0  0  0  0  0  0  0  0  0  0
  147.2593   70.3030  218.9092 H   0  0  0  0  0  0  0  0  0  0  0  0
  147.2120   67.8563  218.4863 H   0  0  0  0  0  0  0  0  0  0  0  0
  145.0653   66.6091  218.6999 H   0  0  0  0  0  0  0  0  0  0  0  0
  142.9743   67.8030  219.3306 H   0  0  0  0  0  0  0  0  0  0  0  0
  141.9247   70.1224  219.0909 H   0  0  0  0  0  0  0  0  0  0  0  0
  142.3845   70.0065  220.8342 H   0  0  0  0  0  0  0  0  0  0  0  0
  138.4603   69.4481  223.8278 H   0  0  0  0  0  0  0  0  0  0  0  0
  138.2013   70.6325  225.1164 H   0  0  0  0  0  0  0  0  0  0  0  0
  140.4906   68.5852  225.2199 H   0  0  0  0  0  0  0  0  0  0  0  0
  138.8695   68.1942  225.8475 H   0  0  0  0  0  0  0  0  0  0  0  0
  1  2  1  0
  2  3  1  0
  3  4  1  0
  4  5  1  0
  5  6  1  0
  6  7  1  0
  7  8  2  0
  8  9  1  0
  9 10  1  0
 10 11  1  0
 11 12  1  0
 12 13  1  0
 13 14  2  0
 14 15  1  0
 15 16  2  0
 16 17  1  0
 17 18  2  0
 18 19  1  0
  9 20  2  0
 20 21  1  0
 21 22  1  0
 22 23  1  0
 23 24  1  0
 24 25  1  0
 25 26  2  0
 26 27  1  0
 27 28  2  0
 28 29  1  0
 29 30  2  0
 30 31  1  0
 21 32  2  0
  5 33  1  0
 33 34  1  0
 34  2  1  0
 32  7  1  0
 19 10  1  0
 31 22  1  0
 18 13  1  0
 30 25  1  0
  1 35  1  0
  1 36  1  0
  1 37  1  0
  2 38  1  1
  3 39  1  0
  3 40  1  0
  4 41  1  0
  4 42  1  0
  5 43  1  6
  6 44  1  0
 11 45  1  0
 11 46  1  0
 12 47  1  0
 12 48  1  0
 14 49  1  0
 15 50  1  0
 16 51  1  0
 17 52  1  0
 19 53  1  0
 19 54  1  0
 23 55  1  0
 23 56  1  0
 24 57  1  0
 24 58  1  0
 26 59  1  0
 27 60  1  0
 28 61  1  0
 29 62  1  0
 31 63  1  0
 31 64  1  0
 33 65  1  0
 33 66  1  0
 34 67  1  0
 34 68  1  0
M  END
>  <smiles>  (6) 
C[C@H]1CC[C@H](Nc2nc(N3CCc4ccccc4C3)nc(N3CCc4ccccc4C3)n2)CC1

>  <score_type>  (6) 
oracle

>  <origin>  (6) 
autodockgpu

>  <m_score__min__energy>  (6) 
-10.98

>  <m_primary>  (6) 
energy

>  <rmsd>  (6) 
4.9125135601042365

>  <m_score__min__rmsd>  (6) 
4.9125135601042365

>  <meeko>  (6) 
{"free_energy": -10.98, "intermolecular_energy": -12.17, "internal_energy": -1.03, "cluster_size": 24, "cluster_id": 1, "rank_in_cluster": 1}

>  <energy>  (6) 
-10.96

>  <cluster_rmsd>  (6) 
0.09

>  <cluster>  (6) 
1

$$$$

     RDKit          3D

 68 73  0  0  0  0  0  0  0  0999 V2000
  134.1480   75.1050  226.1010 C   0  0  0  0  0  0  0  0  0  0  0  0
  135.1130   75.1240  224.9430 C   0  0  1  0  0  0  0  0  0  0  0  0
  135.4350   73.7750  224.3910 C   0  0  0  0  0  0  0  0  0  0  0  0
  134.7680   73.4780  223.0650 C   0  0  0  0  0  0  0  0  0  0  0  0
  135.0980   74.5020  222.0230 C   0  0  2  0  0  0  0  0  0  0  0  0
  136.1310   74.0740  221.1050 N   0  0  0  0  0  0  0  0  0  0  0  0
  137.4700   73.9060  221.6010 C   0  0  0  0  0  0  0  0  0  0  0  0
  137.8340   72.8020  222.2420 N   0  0  0  0  0  0  0  0  0  0  0  0
  139.0780   72.6490  222.7000 C   0  0  0  0  0  0  0  0  0  0  0  0
  139.4620   71.4520  223.3920 N   0  0  0  0  0  0  0  0  0  0  0  0
  138.5660   70.3250  223.2960 C   0  0  0  0  0  0  0  0  0  0  0  0
  139.2050   69.0550  223.8170 C   0  0  0  0  0  0  0  0  0  0  0  0
  139.7520   69.3900  225.1610 C   0  0  0  0  0  0  0  0  0  0  0  0
  139.5680   68.5990  226.2700 C   0  0  0  0  0  0  0  0  0  0  0  0
  140.0940   68.9440  227.5120 C   0  0  0  0  0  0  0  0  0  0  0  0
  140.8270   70.1230  227.6330 C   0  0  0  0  0  0  0  0  0  0  0  0
  141.0230   70.9290  226.5330 C   0  0  0  0  0  0  0  0  0  0  0  0
  140.4830   70.5490  225.3190 C   0  0  0  0  0  0  0  0  0  0  0  0
  140.7040   71.4310  224.1410 C   0  0  0  0  0  0  0  0  0  0  0  0
  139.9950   73.6410  222.5100 N   0  0  0  0  0  0  0  0  0  0  0  0
  139.6510   74.7660  221.8640 C   0  0  0  0  0  0  0  0  0  0  0  0
  140.5800   75.8200  221.6480 N   0  0  0  0  0  0  0  0  0  0  0  0
  141.2260   75.9890  220.3610 C   0  0  0  0  0  0  0  0  0  0  0  0
  140.8120   77.3550  219.8370 C   0  0  0  0  0  0  0  0  0  0  0  0
  141.3080   78.3490  220.8300 C   0  0  0  0  0  0  0  0  0  0  0  0
  141.7420   79.5870  220.4020 C   0  0  0  0  0  0  0  0  0  0  0  0
  142.2060   80.5240  221.3070 C   0  0  0  0  0  0  0  0  0  0  0  0
  142.2320   80.2090  222.6640 C   0  0  0  0  0  0  0  0  0  0  0  0
  141.8000   78.9750  223.1120 C   0  0  0  0  0  0  0  0  0  0  0  0
  141.3440   78.0630  222.1800 C   0  0  0  0  0  0  0  0  0  0  0  0
  140.8880   76.7400  222.7220 C   0  0  0  0  0  0  0  0  0  0  0  0
  138.3870   74.8760  221.4200 N   0  0  0  0  0  0  0  0  0  0  0  0
  135.5650   75.8130  222.6440 C   0  0  0  0  0  0  0  0  0  0  0  0
  134.6570   76.0470  223.8380 C   0  0  0  0  0  0  0  0  0  0  0  0
  134.7098   75.1161  227.0467 H   0  0  0  0  0  0  0  0  0  0  0  0
  133.4974   75.9905  226.0507 H   0  0  0  0  0  0  0  0  0  0  0  0
  133.5327   74.1946  226.0507 H   0  0  0  0  0  0  0  0  0  0  0  0
  136.0470   75.5164  225.3716 H   0  0  0  0  0  0  0  0  0  0  0  0
  135.1107   73.0168  225.1190 H   0  0  0  0  0  0  0  0  0  0  0  0
  136.5204   73.7542  224.2134 H   0  0  0  0  0  0  0  0  0  0  0  0
  133.6781   73.4616  223.2127 H   0  0  0  0  0  0  0  0  0  0  0  0
  135.1391   72.5048  222.7111 H   0  0  0  0  0  0  0  0  0  0  0  0
  134.1566   74.6423  221.4716 H   0  0  0  0  0  0  0  0  0  0  0  0
  135.9450   73.8800  220.0910 H   0  0  0  0  0  0  0  0  0  0  0  0
  137.6621   70.5371  223.8859 H   0  0  0  0  0  0  0  0  0  0  0  0
  138.3181   70.1736  222.2350 H   0  0  0  0  0  0  0  0  0  0  0  0
  138.4540   68.2554  223.8988 H   0  0  0  0  0  0  0  0  0  0  0  0
  139.9938   68.6948  223.1402 H   0  0  0  0  0  0  0  0  0  0  0  0
  138.9896   67.6683  226.1736 H   0  0  0  0  0  0  0  0  0  0  0  0
  139.9333   68.2951  228.3855 H   0  0  0  0  0  0  0  0  0  0  0  0
  141.2493   70.4102  228.6072 H   0  0  0  0  0  0  0  0  0  0  0  0
  141.6007   71.8611  226.6198 H   0  0  0  0  0  0  0  0  0  0  0  0
  140.9631   72.4473  224.4726 H   0  0  0  0  0  0  0  0  0  0  0  0
  141.5322   71.0588  223.5201 H   0  0  0  0  0  0  0  0  0  0  0  0
  142.3189   75.9434  220.4771 H   0  0  0  0  0  0  0  0  0  0  0  0
  140.9293   75.1923  219.6630 H   0  0  0  0  0  0  0  0  0  0  0  0
  141.2669   77.5397  218.8527 H   0  0  0  0  0  0  0  0  0  0  0  0
  139.7212   77.4228  219.7126 H   0  0  0  0  0  0  0  0  0  0  0  0
  141.7186   79.8311  219.3297 H   0  0  0  0  0  0  0  0  0  0  0  0
  142.5513   81.5087  220.9589 H   0  0  0  0  0  0  0  0  0  0  0  0
  142.6007   80.9512  223.3873 H   0  0  0  0  0  0  0  0  0  0  0  0
  141.8188   78.7255  224.1832 H   0  0  0  0  0  0  0  0  0  0  0  0
  141.6868   76.3115  223.3452 H   0  0  0  0  0  0  0  0  0  0  0  0
  139.9783   76.8998  223.3194 H   0  0  0  0  0  0  0  0  0  0  0  0
  135.4679   76.6362  221.9209 H   0  0  0  0  0  0  0  0  0  0  0  0
  136.6233   75.7680  222.9408 H   0  0  0  0  0  0  0  0  0  0  0  0
  133.6149   75.8222  223.5670 H   0  0  0  0  0  0  0  0  0  0  0  0
  134.7083   77.0964  224.1639 H   0  0  0  0  0  0  0  0  0  0  0  0
  1  2  1  0
  2  3  1  0
  3  4  1  0
  4  5  1  0
  5  6  1  0
  6  7  1  0
  7  8  2  0
  8  9  1  0
  9 10  1  0
 10 11  1  0
 11 12  1  0
 12 13  1  0
 13 14  2  0
 14 15  1  0
 15 16  2  0
 16 17  1  0
 17 18  2  0
 18 19  1  0
  9 20  2  0
 20 21  1  0
 21 22  1  0
 22 23  1  0
 23 24  1  0
 24 25  1  0
 25 26  2  0
 26 27  1  0
 27 28  2  0
 28 29  1  0
 29 30  2  0
 30 31  1  0
 21 32  2  0
  5 33  1  0
 33 34  1  0
 34  2  1  0
 32  7  1  0
 19 10  1  0
 31 22  1  0
 18 13  1  0
 30 25  1  0
  1 35  1  0
  1 36  1  0
  1 37  1  0
  2 38  1  1
  3 39  1  0
  3 40  1  0
  4 41  1  0
  4 42  1  0
  5 43  1  6
  6 44  1  0
 11 45  1  0
 11 46  1  0
 12 47  1  0
 12 48  1  0
 14 49  1  0
 15 50  1  0
 16 51  1  0
 17 52  1  0
 19 53  1  0
 19 54  1  0
 23 55  1  0
 23 56  1  0
 24 57  1  0
 24 58  1  0
 26 59  1  0
 27 60  1  0
 28 61  1  0
 29 62  1  0
 31 63  1  0
 31 64  1  0
 33 65  1  0
 33 66  1  0
 34 67  1  0
 34 68  1  0
M  END
>  <smiles>  (7) 
C[C@H]1CC[C@H](Nc2nc(N3CCc4ccccc4C3)nc(N3CCc4ccccc4C3)n2)CC1

>  <score_type>  (7) 
oracle

>  <origin>  (7) 
autodockgpu

>  <m_score__min__energy>  (7) 
-10.98

>  <m_primary>  (7) 
energy

>  <rmsd>  (7) 
10.804603066052517

>  <m_score__min__rmsd>  (7) 
10.804603066052517

>  <meeko>  (7) 
{"free_energy": -9.18, "intermolecular_energy": -10.37, "internal_energy": -1.41, "cluster_size": 5, "cluster_id": 3, "rank_in_cluster": 3}

>  <energy>  (7) 
-10.96

>  <cluster_rmsd>  (7) 
0.06

>  <cluster>  (7) 
1

$$$$

     RDKit          3D

 68 73  0  0  0  0  0  0  0  0999 V2000
  141.0160   68.6790  228.7260 C   0  0  0  0  0  0  0  0  0  0  0  0
  140.1960   69.2320  227.5880 C   0  0  1  0  0  0  0  0  0  0  0  0
  140.2280   70.7210  227.4770 C   0  0  0  0  0  0  0  0  0  0  0  0
  141.0790   71.2340  226.3350 C   0  0  0  0  0  0  0  0  0  0  0  0
  140.6510   70.6750  225.0140 C   0  0  2  0  0  0  0  0  0  0  0  0
  139.8350   71.5860  224.2420 N   0  0  0  0  0  0  0  0  0  0  0  0
  140.3500   72.0920  222.9980 C   0  0  0  0  0  0  0  0  0  0  0  0
  140.9540   71.2920  222.1260 N   0  0  0  0  0  0  0  0  0  0  0  0
  141.4300   71.7640  220.9730 C   0  0  0  0  0  0  0  0  0  0  0  0
  142.0800   70.8920  220.0370 N   0  0  0  0  0  0  0  0  0  0  0  0
  141.4910   69.5900  219.8380 C   0  0  0  0  0  0  0  0  0  0  0  0
  142.0860   68.8830  218.6390 C   0  0  0  0  0  0  0  0  0  0  0  0
  143.5640   68.9530  218.8100 C   0  0  0  0  0  0  0  0  0  0  0  0
  144.3960   67.8730  218.6390 C   0  0  0  0  0  0  0  0  0  0  0  0
  145.7740   67.9760  218.8080 C   0  0  0  0  0  0  0  0  0  0  0  0
  146.3240   69.2070  219.1590 C   0  0  0  0  0  0  0  0  0  0  0  0
  145.5060   70.3020  219.3340 C   0  0  0  0  0  0  0  0  0  0  0  0
  144.1430   70.1570  219.1570 C   0  0  0  0  0  0  0  0  0  0  0  0
  143.2740   71.3490  219.3500 C   0  0  0  0  0  0  0  0  0  0  0  0
  141.2990   73.0900  220.6800 N   0  0  0  0  0  0  0  0  0  0  0  0
  140.6920   73.9180  221.5440 C   0  0  0  0  0  0  0  0  0  0  0  0
  140.5370   75.3040  221.2720 N   0  0  0  0  0  0  0  0  0  0  0  0
  139.7520   76.1510  222.1480 C   0  0  0  0  0  0  0  0  0  0  0  0
  140.6950   77.2080  222.7010 C   0  0  0  0  0  0  0  0  0  0  0  0
  141.2050   77.9650  221.5240 C   0  0  0  0  0  0  0  0  0  0  0  0
  141.4650   79.3170  221.6390 C   0  0  0  0  0  0  0  0  0  0  0  0
  141.9390   80.0390  220.5600 C   0  0  0  0  0  0  0  0  0  0  0  0
  142.1550   79.3910  219.3460 C   0  0  0  0  0  0  0  0  0  0  0  0
  141.9020   78.0390  219.2110 C   0  0  0  0  0  0  0  0  0  0  0  0
  141.4280   77.3490  220.3100 C   0  0  0  0  0  0  0  0  0  0  0  0
  141.1710   75.8840  220.1060 C   0  0  0  0  0  0  0  0  0  0  0  0
  140.2280   73.3980  222.6930 N   0  0  0  0  0  0  0  0  0  0  0  0
  139.8540   69.3860  225.1750 C   0  0  0  0  0  0  0  0  0  0  0  0
  140.5610   68.6010  226.2660 C   0  0  0  0  0  0  0  0  0  0  0  0
  140.5664   68.9822  229.6831 H   0  0  0  0  0  0  0  0  0  0  0  0
  141.0377   67.5810  228.6626 H   0  0  0  0  0  0  0  0  0  0  0  0
  142.0421   69.0703  228.6626 H   0  0  0  0  0  0  0  0  0  0  0  0
  139.1601   68.9596  227.8386 H   0  0  0  0  0  0  0  0  0  0  0  0
  140.6274   71.1296  228.4170 H   0  0  0  0  0  0  0  0  0  0  0  0
  139.1968   71.0480  227.2780 H   0  0  0  0  0  0  0  0  0  0  0  0
  142.1256   70.9491  226.5177 H   0  0  0  0  0  0  0  0  0  0  0  0
  140.9626   72.3270  226.2923 H   0  0  0  0  0  0  0  0  0  0  0  0
  141.5942   70.4896  224.4792 H   0  0  0  0  0  0  0  0  0  0  0  0
  138.8820   71.8950  224.5510 H   0  0  0  0  0  0  0  0  0  0  0  0
  141.6663   68.9786  220.7355 H   0  0  0  0  0  0  0  0  0  0  0  0
  140.4145   69.7250  219.6568 H   0  0  0  0  0  0  0  0  0  0  0  0
  141.7542   67.8346  218.6105 H   0  0  0  0  0  0  0  0  0  0  0  0
  141.7677   69.3527  217.6966 H   0  0  0  0  0  0  0  0  0  0  0  0
  143.9618   66.9013  218.3612 H   0  0  0  0  0  0  0  0  0  0  0  0
  146.4201   67.0971  218.6663 H   0  0  0  0  0  0  0  0  0  0  0  0
  147.4110   69.3048  219.2964 H   0  0  0  0  0  0  0  0  0  0  0  0
  145.9318   71.2778  219.6107 H   0  0  0  0  0  0  0  0  0  0  0  0
  143.7953   72.1030  219.9580 H   0  0  0  0  0  0  0  0  0  0  0  0
  143.0206   71.8126  218.3852 H   0  0  0  0  0  0  0  0  0  0  0  0
  138.9380   76.6285  221.5829 H   0  0  0  0  0  0  0  0  0  0  0  0
  139.2980   75.5644  222.9602 H   0  0  0  0  0  0  0  0  0  0  0  0
  140.1554   77.8814  223.3831 H   0  0  0  0  0  0  0  0  0  0  0  0
  141.5174   76.7527  223.2724 H   0  0  0  0  0  0  0  0  0  0  0  0
  141.2929   79.8243  222.5997 H   0  0  0  0  0  0  0  0  0  0  0  0
  142.1437   81.1152  220.6590 H   0  0  0  0  0  0  0  0  0  0  0  0
  142.5314   79.9621  218.4845 H   0  0  0  0  0  0  0  0  0  0  0  0
  142.0736   77.5257  218.2534 H   0  0  0  0  0  0  0  0  0  0  0  0
  140.5128   75.7516  219.2347 H   0  0  0  0  0  0  0  0  0  0  0  0
  142.1334   75.3777  219.9405 H   0  0  0  0  0  0  0  0  0  0  0  0
  139.8504   68.8169  224.2337 H   0  0  0  0  0  0  0  0  0  0  0  0
  138.8040   69.5869  225.4340 H   0  0  0  0  0  0  0  0  0  0  0  0
  141.6498   68.6465  226.1160 H   0  0  0  0  0  0  0  0  0  0  0  0
  140.2553   67.5446  226.2434 H   0  0  0  0  0  0  0  0  0  0  0  0
  1  2  1  0
  2  3  1  0
  3  4  1  0
  4  5  1  0
  5  6  1  0
  6  7  1  0
  7  8  2  0
  8  9  1  0
  9 10  1  0
 10 11  1  0
 11 12  1  0
 12 13  1  0
 13 14  2  0
 14 15  1  0
 15 16  2  0
 16 17  1  0
 17 18  2  0
 18 19  1  0
  9 20  2  0
 20 21  1  0
 21 22  1  0
 22 23  1  0
 23 24  1  0
 24 25  1  0
 25 26  2  0
 26 27  1  0
 27 28  2  0
 28 29  1  0
 29 30  2  0
 30 31  1  0
 21 32  2  0
  5 33  1  0
 33 34  1  0
 34  2  1  0
 32  7  1  0
 19 10  1  0
 31 22  1  0
 18 13  1  0
 30 25  1  0
  1 35  1  0
  1 36  1  0
  1 37  1  0
  2 38  1  1
  3 39  1  0
  3 40  1  0
  4 41  1  0
  4 42  1  0
  5 43  1  6
  6 44  1  0
 11 45  1  0
 11 46  1  0
 12 47  1  0
 12 48  1  0
 14 49  1  0
 15 50  1  0
 16 51  1  0
 17 52  1  0
 19 53  1  0
 19 54  1  0
 23 55  1  0
 23 56  1  0
 24 57  1  0
 24 58  1  0
 26 59  1  0
 27 60  1  0
 28 61  1  0
 29 62  1  0
 31 63  1  0
 31 64  1  0
 33 65  1  0
 33 66  1  0
 34 67  1  0
 34 68  1  0
M  END
>  <smiles>  (8) 
C[C@H]1CC[C@H](Nc2nc(N3CCc4ccccc4C3)nc(N3CCc4ccccc4C3)n2)CC1

>  <score_type>  (8) 
oracle

>  <origin>  (8) 
autodockgpu

>  <m_score__min__energy>  (8) 
-10.98

>  <m_primary>  (8) 
energy

>  <rmsd>  (8) 
10.21417533459706

>  <m_score__min__rmsd>  (8) 
10.21417533459706

>  <meeko>  (8) 
{"free_energy": -9.5, "intermolecular_energy": -10.69, "internal_energy": -0.97, "cluster_size": 24, "cluster_id": 1, "rank_in_cluster": 24}

>  <energy>  (8) 
-10.96

>  <cluster_rmsd>  (8) 
0.09

>  <cluster>  (8) 
1

$$$$

     RDKit          3D

 68 73  0  0  0  0  0  0  0  0999 V2000
  146.5990   73.7680  220.8550 C   0  0  0  0  0  0  0  0  0  0  0  0
  145.1420   73.3770  220.8430 C   0  0  1  0  0  0  0  0  0  0  0  0
  144.2280   74.4350  220.3210 C   0  0  0  0  0  0  0  0  0  0  0  0
  143.7040   74.1640  218.9270 C   0  0  0  0  0  0  0  0  0  0  0  0
  142.9970   72.8470  218.8340 C   0  0  2  0  0  0  0  0  0  0  0  0
  141.5570   72.9640  218.8820 N   0  0  0  0  0  0  0  0  0  0  0  0
  140.9420   73.4350  220.0940 C   0  0  0  0  0  0  0  0  0  0  0  0
  140.7650   74.7320  220.3190 N   0  0  0  0  0  0  0  0  0  0  0  0
  140.1940   75.1650  221.4440 C   0  0  0  0  0  0  0  0  0  0  0  0
  140.0070   76.5680  221.6780 N   0  0  0  0  0  0  0  0  0  0  0  0
  141.0630   77.2610  222.3750 C   0  0  0  0  0  0  0  0  0  0  0  0
  140.8860   78.7630  222.3090 C   0  0  0  0  0  0  0  0  0  0  0  0
  139.4850   79.0330  222.7360 C   0  0  0  0  0  0  0  0  0  0  0  0
  139.1460   80.0070  223.6440 C   0  0  0  0  0  0  0  0  0  0  0  0
  137.8240   80.2300  224.0190 C   0  0  0  0  0  0  0  0  0  0  0  0
  136.8190   79.4450  223.4590 C   0  0  0  0  0  0  0  0  0  0  0  0
  137.1380   78.4640  222.5460 C   0  0  0  0  0  0  0  0  0  0  0  0
  138.4630   78.2750  222.2010 C   0  0  0  0  0  0  0  0  0  0  0  0
  138.7920   77.2100  221.2140 C   0  0  0  0  0  0  0  0  0  0  0  0
  139.7830   74.2640  222.3830 N   0  0  0  0  0  0  0  0  0  0  0  0
  139.9490   72.9480  222.1790 C   0  0  0  0  0  0  0  0  0  0  0  0
  139.5330   71.9830  223.1340 N   0  0  0  0  0  0  0  0  0  0  0  0
  138.3190   71.2150  222.9360 C   0  0  0  0  0  0  0  0  0  0  0  0
  138.7310   69.7530  222.8600 C   0  0  0  0  0  0  0  0  0  0  0  0
  139.3700   69.4330  224.1670 C   0  0  0  0  0  0  0  0  0  0  0  0
  139.2190   68.1740  224.7140 C   0  0  0  0  0  0  0  0  0  0  0  0
  139.8040   67.8560  225.9250 C   0  0  0  0  0  0  0  0  0  0  0  0
  140.5540   68.8200  226.5970 C   0  0  0  0  0  0  0  0  0  0  0  0
  140.7170   70.0850  226.0650 C   0  0  0  0  0  0  0  0  0  0  0  0
  140.1180   70.3690  224.8530 C   0  0  0  0  0  0  0  0  0  0  0  0
  140.3280   71.7570  224.3240 C   0  0  0  0  0  0  0  0  0  0  0  0
  140.5300   72.5590  221.0300 N   0  0  0  0  0  0  0  0  0  0  0  0
  143.4100   71.9020  219.9570 C   0  0  0  0  0  0  0  0  0  0  0  0
  144.9090   72.0770  220.1100 C   0  0  0  0  0  0  0  0  0  0  0  0
  146.9452   73.8609  221.8950 H   0  0  0  0  0  0  0  0  0  0  0  0
  147.1899   72.9966  220.3394 H   0  0  0  0  0  0  0  0  0  0  0  0
  146.7243   74.7316  220.3394 H   0  0  0  0  0  0  0  0  0  0  0  0
  144.8866   73.2391  221.9040 H   0  0  0  0  0  0  0  0  0  0  0  0
  144.7763   75.3885  220.3050 H   0  0  0  0  0  0  0  0  0  0  0  0
  143.3549   74.4592  220.9897 H   0  0  0  0  0  0  0  0  0  0  0  0
  144.5506   74.1619  218.2246 H   0  0  0  0  0  0  0  0  0  0  0  0
  142.9798   74.9540  218.6792 H   0  0  0  0  0  0  0  0  0  0  0  0
  143.2953   72.4459  217.8541 H   0  0  0  0  0  0  0  0  0  0  0  0
  140.9400   72.7210  218.0700 H   0  0  0  0  0  0  0  0  0  0  0  0
  141.0596   76.9477  223.4294 H   0  0  0  0  0  0  0  0  0  0  0  0
  142.0176   77.0067  221.8912 H   0  0  0  0  0  0  0  0  0  0  0  0
  141.5945   79.2610  222.9872 H   0  0  0  0  0  0  0  0  0  0  0  0
  141.0783   79.1461  221.2960 H   0  0  0  0  0  0  0  0  0  0  0  0
  139.9400   80.6268  224.0862 H   0  0  0  0  0  0  0  0  0  0  0  0
  137.5764   81.0158  224.7479 H   0  0  0  0  0  0  0  0  0  0  0  0
  135.7698   79.6085  223.7460 H   0  0  0  0  0  0  0  0  0  0  0  0
  136.3501   77.8405  222.0983 H   0  0  0  0  0  0  0  0  0  0  0  0
  137.9733   76.4773  221.1608 H   0  0  0  0  0  0  0  0  0  0  0  0
  138.9293   77.6335  220.2081 H   0  0  0  0  0  0  0  0  0  0  0  0
  137.6305   71.3710  223.7796 H   0  0  0  0  0  0  0  0  0  0  0  0
  137.8001   71.5270  222.0176 H   0  0  0  0  0  0  0  0  0  0  0  0
  137.8485   69.1159  222.7008 H   0  0  0  0  0  0  0  0  0  0  0  0
  139.4207   69.5739  222.0220 H   0  0  0  0  0  0  0  0  0  0  0  0
  138.6268   67.4162  224.1801 H   0  0  0  0  0  0  0  0  0  0  0  0
  139.6790   66.8512  226.3548 H   0  0  0  0  0  0  0  0  0  0  0  0
  141.0212   68.5710  227.5612 H   0  0  0  0  0  0  0  0  0  0  0  0
  141.3090   70.8468  226.5935 H   0  0  0  0  0  0  0  0  0  0  0  0
  140.0359   72.4845  225.0957 H   0  0  0  0  0  0  0  0  0  0  0  0
  141.3903   71.8772  224.0648 H   0  0  0  0  0  0  0  0  0  0  0  0
  143.1705   70.8620  219.6907 H   0  0  0  0  0  0  0  0  0  0  0  0
  142.8774   72.1263  220.8929 H   0  0  0  0  0  0  0  0  0  0  0  0
  145.3858   72.1137  219.1194 H   0  0  0  0  0  0  0  0  0  0  0  0
  145.3424   71.2343  220.6686 H   0  0  0  0  0  0  0  0  0  0  0  0
  1  2  1  0
  2  3  1  0
  3  4  1  0
  4  5  1  0
  5  6  1  0
  6  7  1  0
  7  8  2  0
  8  9  1  0
  9 10  1  0
 10 11  1  0
 11 12  1  0
 12 13  1  0
 13 14  2  0
 14 15  1  0
 15 16  2  0
 16 17  1  0
 17 18  2  0
 18 19  1  0
  9 20  2  0
 20 21  1  0
 21 22  1  0
 22 23  1  0
 23 24  1  0
 24 25  1  0
 25 26  2  0
 26 27  1  0
 27 28  2  0
 28 29  1  0
 29 30  2  0
 30 31  1  0
 21 32  2  0
  5 33  1  0
 33 34  1  0
 34  2  1  0
 32  7  1  0
 19 10  1  0
 31 22  1  0
 18 13  1  0
 30 25  1  0
  1 35  1  0
  1 36  1  0
  1 37  1  0
  2 38  1  1
  3 39  1  0
  3 40  1  0
  4 41  1  0
  4 42  1  0
  5 43  1  6
  6 44  1  0
 11 45  1  0
 11 46  1  0
 12 47  1  0
 12 48  1  0
 14 49  1  0
 15 50  1  0
 16 51  1  0
 17 52  1  0
 19 53  1  0
 19 54  1  0
 23 55  1  0
 23 56  1  0
 24 57  1  0
 24 58  1  0
 26 59  1  0
 27 60  1  0
 28 61  1  0
 29 62  1  0
 31 63  1  0
 31 64  1  0
 33 65  1  0
 33 66  1  0
 34 67  1  0
 34 68  1  0
M  END
>  <smiles>  (9) 
C[C@H]1CC[C@H](Nc2nc(N3CCc4ccccc4C3)nc(N3CCc4ccccc4C3)n2)CC1

>  <score_type>  (9) 
oracle

>  <origin>  (9) 
autodockgpu

>  <m_score__min__energy>  (9) 
-10.98

>  <m_primary>  (9) 
energy

>  <rmsd>  (9) 
5.80441194989322

>  <m_score__min__rmsd>  (9) 
5.80441194989322

>  <meeko>  (9) 
{"free_energy": -9.09, "intermolecular_energy": -10.28, "internal_energy": -1.38, "cluster_size": 1, "cluster_id": 4, "rank_in_cluster": 1}

>  <energy>  (9) 
-10.96

>  <cluster_rmsd>  (9) 
0.1

>  <cluster>  (9) 
1

$$$$

     RDKit          3D

 68 73  0  0  0  0  0  0  0  0999 V2000
  146.7020   73.7710  220.5020 C   0  0  0  0  0  0  0  0  0  0  0  0
  145.3110   73.2070  220.6440 C   0  0  1  0  0  0  0  0  0  0  0  0
  144.2310   74.1060  220.1390 C   0  0  0  0  0  0  0  0  0  0  0  0
  143.6370   73.6700  218.8170 C   0  0  0  0  0  0  0  0  0  0  0  0
  143.0970   72.2740  218.8710 C   0  0  2  0  0  0  0  0  0  0  0  0
  141.6620   72.2200  219.0390 N   0  0  0  0  0  0  0  0  0  0  0  0
  141.0750   72.8620  220.1840 C   0  0  0  0  0  0  0  0  0  0  0  0
  140.9800   74.1840  220.2600 N   0  0  0  0  0  0  0  0  0  0  0  0
  140.4340   74.7760  221.3240 C   0  0  0  0  0  0  0  0  0  0  0  0
  140.3360   76.2060  221.3960 N   0  0  0  0  0  0  0  0  0  0  0  0
  140.4300   76.9320  220.1530 C   0  0  0  0  0  0  0  0  0  0  0  0
  140.0310   78.3830  220.3200 C   0  0  0  0  0  0  0  0  0  0  0  0
  140.8130   78.8950  221.4790 C   0  0  0  0  0  0  0  0  0  0  0  0
  141.4900   80.0920  221.4640 C   0  0  0  0  0  0  0  0  0  0  0  0
  142.2120   80.5380  222.5680 C   0  0  0  0  0  0  0  0  0  0  0  0
  142.2490   79.7510  223.7170 C   0  0  0  0  0  0  0  0  0  0  0  0
  141.5770   78.5490  223.7510 C   0  0  0  0  0  0  0  0  0  0  0  0
  140.8720   78.1420  222.6340 C   0  0  0  0  0  0  0  0  0  0  0  0
  140.1520   76.8410  222.6870 C   0  0  0  0  0  0  0  0  0  0  0  0
  139.9650   74.0150  222.3540 N   0  0  0  0  0  0  0  0  0  0  0  0
  140.0490   72.6770  222.3010 C   0  0  0  0  0  0  0  0  0  0  0  0
  139.5700   71.8530  223.3550 N   0  0  0  0  0  0  0  0  0  0  0  0
  138.3480   71.0870  223.2050 C   0  0  0  0  0  0  0  0  0  0  0  0
  138.7280   69.6210  223.3400 C   0  0  0  0  0  0  0  0  0  0  0  0
  139.3050   69.4650  224.7050 C   0  0  0  0  0  0  0  0  0  0  0  0
  139.1010   68.2920  225.4040 C   0  0  0  0  0  0  0  0  0  0  0  0
  139.6270   68.1270  226.6720 C   0  0  0  0  0  0  0  0  0  0  0  0
  140.3700   69.1580  227.2440 C   0  0  0  0  0  0  0  0  0  0  0  0
  140.5840   70.3390  226.5590 C   0  0  0  0  0  0  0  0  0  0  0  0
  140.0440   70.4700  225.2950 C   0  0  0  0  0  0  0  0  0  0  0  0
  140.3090   71.7720  224.5980 C   0  0  0  0  0  0  0  0  0  0  0  0
  140.6060   72.1240  221.2090 N   0  0  0  0  0  0  0  0  0  0  0  0
  143.7140   71.4720  220.0110 C   0  0  0  0  0  0  0  0  0  0  0  0
  145.1870   71.8380  220.0190 C   0  0  0  0  0  0  0  0  0  0  0  0
  147.1308   73.9449  221.4999 H   0  0  0  0  0  0  0  0  0  0  0  0
  147.3325   73.0575  219.9512 H   0  0  0  0  0  0  0  0  0  0  0  0
  146.6575   74.7221  219.9512 H   0  0  0  0  0  0  0  0  0  0  0  0
  145.1606   73.1178  221.7300 H   0  0  0  0  0  0  0  0  0  0  0  0
  144.6508   75.1150  220.0139 H   0  0  0  0  0  0  0  0  0  0  0  0
  143.4182   74.0750  220.8795 H   0  0  0  0  0  0  0  0  0  0  0  0
  144.4189   73.7175  218.0447 H   0  0  0  0  0  0  0  0  0  0  0  0
  142.8012   74.3460  218.5836 H   0  0  0  0  0  0  0  0  0  0  0  0
  143.3645   71.8401  217.8962 H   0  0  0  0  0  0  0  0  0  0  0  0
  141.0290   71.7310  218.3600 H   0  0  0  0  0  0  0  0  0  0  0  0
  141.4680   76.8871  219.7916 H   0  0  0  0  0  0  0  0  0  0  0  0
  139.7410   76.4679  219.4320 H   0  0  0  0  0  0  0  0  0  0  0  0
  140.2763   78.9534  219.4120 H   0  0  0  0  0  0  0  0  0  0  0  0
  138.9488   78.4856  220.4883 H   0  0  0  0  0  0  0  0  0  0  0  0
  141.4604   80.7131  220.5566 H   0  0  0  0  0  0  0  0  0  0  0  0
  142.7461   81.4990  222.5333 H   0  0  0  0  0  0  0  0  0  0  0  0
  142.8150   80.0896  224.5973 H   0  0  0  0  0  0  0  0  0  0  0  0
  141.6011   77.9219  224.6544 H   0  0  0  0  0  0  0  0  0  0  0  0
  140.5715   76.2084  223.4831 H   0  0  0  0  0  0  0  0  0  0  0  0
  139.0840   76.9901  222.9043 H   0  0  0  0  0  0  0  0  0  0  0  0
  137.6283   71.3652  223.9889 H   0  0  0  0  0  0  0  0  0  0  0  0
  137.8762   71.2840  222.2310 H   0  0  0  0  0  0  0  0  0  0  0  0
  137.8380   68.9845  223.2272 H   0  0  0  0  0  0  0  0  0  0  0  0
  139.4473   69.3203  222.5640 H   0  0  0  0  0  0  0  0  0  0  0  0
  138.5144   67.4810  224.9478 H   0  0  0  0  0  0  0  0  0  0  0  0
  139.4605   67.1904  227.2243 H   0  0  0  0  0  0  0  0  0  0  0  0
  140.7909   69.0303  228.2522 H   0  0  0  0  0  0  0  0  0  0  0  0
  141.1697   71.1540  227.0093 H   0  0  0  0  0  0  0  0  0  0  0  0
  140.0026   72.6003  225.2537 H   0  0  0  0  0  0  0  0  0  0  0  0
  141.3837   71.8375  224.3727 H   0  0  0  0  0  0  0  0  0  0  0  0
  143.5875   70.3937  219.8340 H   0  0  0  0  0  0  0  0  0  0  0  0
  143.2336   71.6990  220.9742 H   0  0  0  0  0  0  0  0  0  0  0  0
  145.5745   71.8585  218.9897 H   0  0  0  0  0  0  0  0  0  0  0  0
  145.7671   71.0977  220.5894 H   0  0  0  0  0  0  0  0  0  0  0  0
  1  2  1  0
  2  3  1  0
  3  4  1  0
  4  5  1  0
  5  6  1  0
  6  7  1  0
  7  8  2  0
  8  9  1  0
  9 10  1  0
 10 11  1  0
 11 12  1  0
 12 13  1  0
 13 14  2  0
 14 15  1  0
 15 16  2  0
 16 17  1  0
 17 18  2  0
 18 19  1  0
  9 20  2  0
 20 21  1  0
 21 22  1  0
 22 23  1  0
 23 24  1  0
 24 25  1  0
 25 26  2  0
 26 27  1  0
 27 28  2  0
 28 29  1  0
 29 30  2  0
 30 31  1  0
 21 32  2  0
  5 33  1  0
 33 34  1  0
 34  2  1  0
 32  7  1  0
 19 10  1  0
 31 22  1  0
 18 13  1  0
 30 25  1  0
  1 35  1  0
  1 36  1  0
  1 37  1  0
  2 38  1  1
  3 39  1  0
  3 40  1  0
  4 41  1  0
  4 42  1  0
  5 43  1  6
  6 44  1  0
 11 45  1  0
 11 46  1  0
 12 47  1  0
 12 48  1  0
 14 49  1  0
 15 50  1  0
 16 51  1  0
 17 52  1  0
 19 53  1  0
 19 54  1  0
 23 55  1  0
 23 56  1  0
 24 57  1  0
 24 58  1  0
 26 59  1  0
 27 60  1  0
 28 61  1  0
 29 62  1  0
 31 63  1  0
 31 64  1  0
 33 65  1  0
 33 66  1  0
 34 67  1  0
 34 68  1  0
M  END
>  <smiles>  (10) 
C[C@H]1CC[C@H](Nc2nc(N3CCc4ccccc4C3)nc(N3CCc4ccccc4C3)n2)CC1

>  <score_type>  (10) 
oracle

>  <origin>  (10) 
autodockgpu

>  <m_score__min__energy>  (10) 
-10.98

>  <m_primary>  (10) 
energy

>  <rmsd>  (10) 
4.905573369961159

>  <m_score__min__rmsd>  (10) 
4.905573369961159

>  <meeko>  (10) 
{"free_energy": -9.98, "intermolecular_energy": -11.17, "internal_energy": -1.39, "cluster_size": 20, "cluster_id": 2, "rank_in_cluster": 6}

>  <energy>  (10) 
-10.94

>  <cluster_rmsd>  (10) 
0.15

>  <cluster>  (10) 
1

$$$$

     RDKit          3D

 68 73  0  0  0  0  0  0  0  0999 V2000
  140.6560   69.3090  228.0890 C   0  0  0  0  0  0  0  0  0  0  0  0
  139.8420   70.0070  227.0290 C   0  0  1  0  0  0  0  0  0  0  0  0
  140.3550   71.3580  226.6530 C   0  0  0  0  0  0  0  0  0  0  0  0
  141.0530   71.4000  225.3110 C   0  0  0  0  0  0  0  0  0  0  0  0
  140.1760   70.9080  224.2010 C   0  0  2  0  0  0  0  0  0  0  0  0
  139.5700   71.9720  223.4320 N   0  0  0  0  0  0  0  0  0  0  0  0
  140.3720   72.6650  222.4600 C   0  0  0  0  0  0  0  0  0  0  0  0
  140.3140   73.9860  222.3350 N   0  0  0  0  0  0  0  0  0  0  0  0
  141.0590   74.6260  221.4320 C   0  0  0  0  0  0  0  0  0  0  0  0
  140.9900   76.0530  221.3040 N   0  0  0  0  0  0  0  0  0  0  0  0
  141.6460   76.6400  220.1610 C   0  0  0  0  0  0  0  0  0  0  0  0
  141.2670   78.0950  219.9830 C   0  0  0  0  0  0  0  0  0  0  0  0
  141.4780   78.7410  221.3080 C   0  0  0  0  0  0  0  0  0  0  0  0
  142.1340   79.9390  221.4680 C   0  0  0  0  0  0  0  0  0  0  0  0
  142.3130   80.5130  222.7240 C   0  0  0  0  0  0  0  0  0  0  0  0
  141.8130   79.8580  223.8460 C   0  0  0  0  0  0  0  0  0  0  0  0
  141.1510   78.6570  223.7060 C   0  0  0  0  0  0  0  0  0  0  0  0
  140.9960   78.1210  222.4420 C   0  0  0  0  0  0  0  0  0  0  0  0
  140.2800   76.8230  222.3080 C   0  0  0  0  0  0  0  0  0  0  0  0
  141.8950   73.9160  220.6200 N   0  0  0  0  0  0  0  0  0  0  0  0
  141.9710   72.5810  220.7280 C   0  0  0  0  0  0  0  0  0  0  0  0
  142.8310   71.8090  219.9000 N   0  0  0  0  0  0  0  0  0  0  0  0
  143.8750   72.4420  219.1180 C   0  0  0  0  0  0  0  0  0  0  0  0
  145.1980   71.8740  219.6080 C   0  0  0  0  0  0  0  0  0  0  0  0
  145.1390   70.4070  219.3540 C   0  0  0  0  0  0  0  0  0  0  0  0
  146.2890   69.7270  219.0060 C   0  0  0  0  0  0  0  0  0  0  0  0
  146.2570   68.3650  218.7650 C   0  0  0  0  0  0  0  0  0  0  0  0
  145.0500   67.6790  218.8770 C   0  0  0  0  0  0  0  0  0  0  0  0
  143.8890   68.3430  219.2250 C   0  0  0  0  0  0  0  0  0  0  0  0
  143.9570   69.7030  219.4570 C   0  0  0  0  0  0  0  0  0  0  0  0
  142.6670   70.3720  219.8320 C   0  0  0  0  0  0  0  0  0  0  0  0
  141.2020   71.9790  221.6520 N   0  0  0  0  0  0  0  0  0  0  0  0
  139.0440   70.0290  224.7210 C   0  0  0  0  0  0  0  0  0  0  0  0
  139.6650   69.1540  225.7960 C   0  0  0  0  0  0  0  0  0  0  0  0
  140.3005   69.6139  229.0843 H   0  0  0  0  0  0  0  0  0  0  0  0
  140.5461   68.2202  227.9780 H   0  0  0  0  0  0  0  0  0  0  0  0
  141.7153   69.5838  227.9780 H   0  0  0  0  0  0  0  0  0  0  0  0
  138.8595   70.1650  227.4977 H   0  0  0  0  0  0  0  0  0  0  0  0
  141.0684   71.6840  227.4242 H   0  0  0  0  0  0  0  0  0  0  0  0
  139.4803   72.0208  226.5776 H   0  0  0  0  0  0  0  0  0  0  0  0
  141.9516   70.7675  225.3593 H   0  0  0  0  0  0  0  0  0  0  0  0
  141.3116   72.4477  225.0977 H   0  0  0  0  0  0  0  0  0  0  0  0
  140.8543   70.3336  223.5530 H   0  0  0  0  0  0  0  0  0  0  0  0
  138.5690   72.2600  223.5530 H   0  0  0  0  0  0  0  0  0  0  0  0
  142.7349   76.5698  220.3001 H   0  0  0  0  0  0  0  0  0  0  0  0
  141.3267   76.0905  219.2631 H   0  0  0  0  0  0  0  0  0  0  0  0
  141.9069   78.5660  219.2223 H   0  0  0  0  0  0  0  0  0  0  0  0
  140.2255   78.2009  219.6452 H   0  0  0  0  0  0  0  0  0  0  0  0
  142.5274   80.4572  220.5810 H   0  0  0  0  0  0  0  0  0  0  0  0
  142.8426   81.4715  222.8282 H   0  0  0  0  0  0  0  0  0  0  0  0
  141.9462   80.2990  224.8449 H   0  0  0  0  0  0  0  0  0  0  0  0
  140.7522   78.1333  224.5873 H   0  0  0  0  0  0  0  0  0  0  0  0
  140.2844   76.2874  223.2688 H   0  0  0  0  0  0  0  0  0  0  0  0
  139.2312   76.9797  222.0158 H   0  0  0  0  0  0  0  0  0  0  0  0
  143.7382   72.2156  218.0503 H   0  0  0  0  0  0  0  0  0  0  0  0
  143.8476   73.5354  219.2354 H   0  0  0  0  0  0  0  0  0  0  0  0
  146.0349   72.3238  219.0537 H   0  0  0  0  0  0  0  0  0  0  0  0
  145.3571   72.0904  220.6747 H   0  0  0  0  0  0  0  0  0  0  0  0
  147.2398   70.2733  218.9195 H   0  0  0  0  0  0  0  0  0  0  0  0
  147.1765   67.8287  218.4875 H   0  0  0  0  0  0  0  0  0  0  0  0
  145.0205   66.5961  218.6862 H   0  0  0  0  0  0  0  0  0  0  0  0
  142.9353   67.8024  219.3149 H   0  0  0  0  0  0  0  0  0  0  0  0
  141.9040   70.1319  219.0769 H   0  0  0  0  0  0  0  0  0  0  0  0
  142.3563   70.0065  220.8219 H   0  0  0  0  0  0  0  0  0  0  0  0
  138.6362   69.4085  223.9094 H   0  0  0  0  0  0  0  0  0  0  0  0
  138.2119   70.6298  225.1166 H   0  0  0  0  0  0  0  0  0  0  0  0
  140.6412   68.7776  225.4564 H   0  0  0  0  0  0  0  0  0  0  0  0
  139.0202   68.2894  226.0122 H   0  0  0  0  0  0  0  0  0  0  0  0
  1  2  1  0
  2  3  1  0
  3  4  1  0
  4  5  1  0
  5  6  1  0
  6  7  1  0
  7  8  2  0
  8  9  1  0
  9 10  1  0
 10 11  1  0
 11 12  1  0
 12 13  1  0
 13 14  2  0
 14 15  1  0
 15 16  2  0
 16 17  1  0
 17 18  2  0
 18 19  1  0
  9 20  2  0
 20 21  1  0
 21 22  1  0
 22 23  1  0
 23 24  1  0
 24 25  1  0
 25 26  2  0
 26 27  1  0
 27 28  2  0
 28 29  1  0
 29 30  2  0
 30 31  1  0
 21 32  2  0
  5 33  1  0
 33 34  1  0
 34  2  1  0
 32  7  1  0
 19 10  1  0
 31 22  1  0
 18 13  1  0
 30 25  1  0
  1 35  1  0
  1 36  1  0
  1 37  1  0
  2 38  1  1
  3 39  1  0
  3 40  1  0
  4 41  1  0
  4 42  1  0
  5 43  1  6
  6 44  1  0
 11 45  1  0
 11 46  1  0
 12 47  1  0
 12 48  1  0
 14 49  1  0
 15 50  1  0
 16 51  1  0
 17 52  1  0
 19 53  1  0
 19 54  1  0
 23 55  1  0
 23 56  1  0
 24 57  1  0
 24 58  1  0
 26 59  1  0
 27 60  1  0
 28 61  1  0
 29 62  1  0
 31 63  1  0
 31 64  1  0
 33 65  1  0
 33 66  1  0
 34 67  1  0
 34 68  1  0
M  END
>  <smiles>  (11) 
C[C@H]1CC[C@H](Nc2nc(N3CCc4ccccc4C3)nc(N3CCc4ccccc4C3)n2)CC1

>  <score_type>  (11) 
oracle

>  <origin>  (11) 
autodockgpu

>  <m_score__min__energy>  (11) 
-10.98

>  <m_primary>  (11) 
energy

>  <rmsd>  (11) 
4.88955990272262

>  <m_score__min__rmsd>  (11) 
4.88955990272262

>  <meeko>  (11) 
{"free_energy": -10.92, "intermolecular_energy": -12.12, "internal_energy": -1.02, "cluster_size": 24, "cluster_id": 1, "rank_in_cluster": 16}

>  <energy>  (11) 
-10.94

>  <cluster_rmsd>  (11) 
0.12

>  <cluster>  (11) 
1

$$$$

     RDKit          3D

 68 73  0  0  0  0  0  0  0  0999 V2000
  140.6710   68.9770  227.8120 C   0  0  0  0  0  0  0  0  0  0  0  0
  139.8530   69.8060  226.8530 C   0  0  1  0  0  0  0  0  0  0  0  0
  140.4800   71.1080  226.4790 C   0  0  0  0  0  0  0  0  0  0  0  0
  141.0600   71.1320  225.0810 C   0  0  0  0  0  0  0  0  0  0  0  0
  140.0410   70.7870  224.0390 C   0  0  2  0  0  0  0  0  0  0  0  0
  139.4950   71.9430  223.3640 N   0  0  0  0  0  0  0  0  0  0  0  0
  140.3180   72.6430  222.4150 C   0  0  0  0  0  0  0  0  0  0  0  0
  140.2730   73.9660  222.3080 N   0  0  0  0  0  0  0  0  0  0  0  0
  141.0380   74.6120  221.4260 C   0  0  0  0  0  0  0  0  0  0  0  0
  140.9830   76.0420  221.3180 N   0  0  0  0  0  0  0  0  0  0  0  0
  141.5700   76.6310  220.1390 C   0  0  0  0  0  0  0  0  0  0  0  0
  141.2030   78.0930  220.0010 C   0  0  0  0  0  0  0  0  0  0  0  0
  141.5110   78.7220  221.3150 C   0  0  0  0  0  0  0  0  0  0  0  0
  142.1950   79.9080  221.4430 C   0  0  0  0  0  0  0  0  0  0  0  0
  142.4660   80.4660  222.6890 C   0  0  0  0  0  0  0  0  0  0  0  0
  142.0330   79.8060  223.8360 C   0  0  0  0  0  0  0  0  0  0  0  0
  141.3450   78.6160  223.7290 C   0  0  0  0  0  0  0  0  0  0  0  0
  141.0970   78.0960  222.4730 C   0  0  0  0  0  0  0  0  0  0  0  0
  140.3540   76.8110  222.3740 C   0  0  0  0  0  0  0  0  0  0  0  0
  141.8820   73.9070  220.6190 N   0  0  0  0  0  0  0  0  0  0  0  0
  141.9460   72.5690  220.7090 C   0  0  0  0  0  0  0  0  0  0  0  0
  142.8130   71.8030  219.8850 N   0  0  0  0  0  0  0  0  0  0  0  0
  143.8500   72.4420  219.0990 C   0  0  0  0  0  0  0  0  0  0  0  0
  145.1790   71.8910  219.5910 C   0  0  0  0  0  0  0  0  0  0  0  0
  145.1360   70.4230  219.3450 C   0  0  0  0  0  0  0  0  0  0  0  0
  146.2930   69.7520  219.0000 C   0  0  0  0  0  0  0  0  0  0  0  0
  146.2760   68.3890  218.7680 C   0  0  0  0  0  0  0  0  0  0  0  0
  145.0760   67.6910  218.8850 C   0  0  0  0  0  0  0  0  0  0  0  0
  143.9080   68.3450  219.2290 C   0  0  0  0  0  0  0  0  0  0  0  0
  143.9620   69.7060  219.4540 C   0  0  0  0  0  0  0  0  0  0  0  0
  142.6650   70.3630  219.8250 C   0  0  0  0  0  0  0  0  0  0  0  0
  141.1570   71.9610  221.6120 N   0  0  0  0  0  0  0  0  0  0  0  0
  138.8670   70.0140  224.6290 C   0  0  0  0  0  0  0  0  0  0  0  0
  139.4760   69.0310  225.6130 C   0  0  0  0  0  0  0  0  0  0  0  0
  140.4068   69.2448  228.8457 H   0  0  0  0  0  0  0  0  0  0  0  0
  140.4620   67.9101  227.6448 H   0  0  0  0  0  0  0  0  0  0  0  0
  141.7406   69.1717  227.6448 H   0  0  0  0  0  0  0  0  0  0  0  0
  138.9382   70.0505  227.4128 H   0  0  0  0  0  0  0  0  0  0  0  0
  141.2893   71.3201  227.1931 H   0  0  0  0  0  0  0  0  0  0  0  0
  139.6825   71.8652  226.5062 H   0  0  0  0  0  0  0  0  0  0  0  0
  141.8828   70.4040  225.0264 H   0  0  0  0  0  0  0  0  0  0  0  0
  141.4150   72.1537  224.8805 H   0  0  0  0  0  0  0  0  0  0  0  0
  140.5919   70.1708  223.3132 H   0  0  0  0  0  0  0  0  0  0  0  0
  138.5220   72.2930  223.5370 H   0  0  0  0  0  0  0  0  0  0  0  0
  142.6646   76.5429  220.2038 H   0  0  0  0  0  0  0  0  0  0  0  0
  141.1826   76.0959  219.2594 H   0  0  0  0  0  0  0  0  0  0  0  0
  141.7985   78.5625  219.2041 H   0  0  0  0  0  0  0  0  0  0  0  0
  140.1431   78.2178  219.7344 H   0  0  0  0  0  0  0  0  0  0  0  0
  142.5370   80.4295  220.5368 H   0  0  0  0  0  0  0  0  0  0  0  0
  143.0151   81.4160  222.7665 H   0  0  0  0  0  0  0  0  0  0  0  0
  142.2399   80.2342  224.8279 H   0  0  0  0  0  0  0  0  0  0  0  0
  140.9987   78.0884  224.6300 H   0  0  0  0  0  0  0  0  0  0  0  0
  140.4139   76.2648  223.3269 H   0  0  0  0  0  0  0  0  0  0  0  0
  139.2907   76.9866  222.1538 H   0  0  0  0  0  0  0  0  0  0  0  0
  143.7149   72.2081  218.0327 H   0  0  0  0  0  0  0  0  0  0  0  0
  143.8114   73.5357  219.2105 H   0  0  0  0  0  0  0  0  0  0  0  0
  146.0107   72.3469  219.0338 H   0  0  0  0  0  0  0  0  0  0  0  0
  145.3362   72.1147  220.6565 H   0  0  0  0  0  0  0  0  0  0  0  0
  147.2379   70.3078  218.9089 H   0  0  0  0  0  0  0  0  0  0  0  0
  147.2011   67.8609  218.4937 H   0  0  0  0  0  0  0  0  0  0  0  0
  145.0579   66.6066  218.7014 H   0  0  0  0  0  0  0  0  0  0  0  0
  142.9597   67.7952  219.3212 H   0  0  0  0  0  0  0  0  0  0  0  0
  141.9048   70.1103  219.0712 H   0  0  0  0  0  0  0  0  0  0  0  0
  142.3584   69.9998  220.8170 H   0  0  0  0  0  0  0  0  0  0  0  0
  138.3241   69.4774  223.8369 H   0  0  0  0  0  0  0  0  0  0  0  0
  138.1445   70.6837  225.1184 H   0  0  0  0  0  0  0  0  0  0  0  0
  140.3710   68.5658  225.1741 H   0  0  0  0  0  0  0  0  0  0  0  0
  138.7596   68.2329  225.8574 H   0  0  0  0  0  0  0  0  0  0  0  0
  1  2  1  0
  2  3  1  0
  3  4  1  0
  4  5  1  0
  5  6  1  0
  6  7  1  0
  7  8  2  0
  8  9  1  0
  9 10  1  0
 10 11  1  0
 11 12  1  0
 12 13  1  0
 13 14  2  0
 14 15  1  0
 15 16  2  0
 16 17  1  0
 17 18  2  0
 18 19  1  0
  9 20  2  0
 20 21  1  0
 21 22  1  0
 22 23  1  0
 23 24  1  0
 24 25  1  0
 25 26  2  0
 26 27  1  0
 27 28  2  0
 28 29  1  0
 29 30  2  0
 30 31  1  0
 21 32  2  0
  5 33  1  0
 33 34  1  0
 34  2  1  0
 32  7  1  0
 19 10  1  0
 31 22  1  0
 18 13  1  0
 30 25  1  0
  1 35  1  0
  1 36  1  0
  1 37  1  0
  2 38  1  1
  3 39  1  0
  3 40  1  0
  4 41  1  0
  4 42  1  0
  5 43  1  6
  6 44  1  0
 11 45  1  0
 11 46  1  0
 12 47  1  0
 12 48  1  0
 14 49  1  0
 15 50  1  0
 16 51  1  0
 17 52  1  0
 19 53  1  0
 19 54  1  0
 23 55  1  0
 23 56  1  0
 24 57  1  0
 24 58  1  0
 26 59  1  0
 27 60  1  0
 28 61  1  0
 29 62  1  0
 31 63  1  0
 31 64  1  0
 33 65  1  0
 33 66  1  0
 34 67  1  0
 34 68  1  0
M  END
>  <smiles>  (12) 
C[C@H]1CC[C@H](Nc2nc(N3CCc4ccccc4C3)nc(N3CCc4ccccc4C3)n2)CC1

>  <score_type>  (12) 
oracle

>  <origin>  (12) 
autodockgpu

>  <m_score__min__energy>  (12) 
-10.98

>  <m_primary>  (12) 
energy

>  <rmsd>  (12) 
4.902371067007166

>  <m_score__min__rmsd>  (12) 
4.902371067007166

>  <meeko>  (12) 
{"free_energy": -10.97, "intermolecular_energy": -12.17, "internal_energy": -1.03, "cluster_size": 24, "cluster_id": 1, "rank_in_cluster": 2}

>  <energy>  (12) 
-10.94

>  <cluster_rmsd>  (12) 
0.14

>  <cluster>  (12) 
1

$$$$

     RDKit          3D

 68 73  0  0  0  0  0  0  0  0999 V2000
  140.7540   68.9140  227.7100 C   0  0  0  0  0  0  0  0  0  0  0  0
  139.9300   69.7880  226.7990 C   0  0  1  0  0  0  0  0  0  0  0  0
  140.5940   71.0670  226.4100 C   0  0  0  0  0  0  0  0  0  0  0  0
  141.1110   71.0840  224.9880 C   0  0  0  0  0  0  0  0  0  0  0  0
  140.0330   70.7950  223.9890 C   0  0  2  0  0  0  0  0  0  0  0  0
  139.5070   71.9810  223.3520 N   0  0  0  0  0  0  0  0  0  0  0  0
  140.3340   72.6850  222.4090 C   0  0  0  0  0  0  0  0  0  0  0  0
  140.2880   74.0080  222.3040 N   0  0  0  0  0  0  0  0  0  0  0  0
  141.0570   74.6570  221.4280 C   0  0  0  0  0  0  0  0  0  0  0  0
  140.9990   76.0870  221.3220 N   0  0  0  0  0  0  0  0  0  0  0  0
  141.5830   76.6790  220.1430 C   0  0  0  0  0  0  0  0  0  0  0  0
  141.2140   78.1410  220.0090 C   0  0  0  0  0  0  0  0  0  0  0  0
  141.5260   78.7680  221.3230 C   0  0  0  0  0  0  0  0  0  0  0  0
  142.2090   79.9540  221.4510 C   0  0  0  0  0  0  0  0  0  0  0  0
  142.4830   80.5100  222.6980 C   0  0  0  0  0  0  0  0  0  0  0  0
  142.0530   79.8470  223.8450 C   0  0  0  0  0  0  0  0  0  0  0  0
  141.3660   78.6570  223.7370 C   0  0  0  0  0  0  0  0  0  0  0  0
  141.1150   78.1390  222.4810 C   0  0  0  0  0  0  0  0  0  0  0  0
  140.3730   76.8540  222.3820 C   0  0  0  0  0  0  0  0  0  0  0  0
  141.9060   73.9550  220.6240 N   0  0  0  0  0  0  0  0  0  0  0  0
  141.9720   72.6170  220.7120 C   0  0  0  0  0  0  0  0  0  0  0  0
  142.8440   71.8540  219.8910 N   0  0  0  0  0  0  0  0  0  0  0  0
  143.8850   72.4970  219.1130 C   0  0  0  0  0  0  0  0  0  0  0  0
  145.2120   71.9450  219.6120 C   0  0  0  0  0  0  0  0  0  0  0  0
  145.1720   70.4770  219.3620 C   0  0  0  0  0  0  0  0  0  0  0  0
  146.3310   69.8090  219.0220 C   0  0  0  0  0  0  0  0  0  0  0  0
  146.3170   68.4460  218.7850 C   0  0  0  0  0  0  0  0  0  0  0  0
  145.1170   67.7470  218.8930 C   0  0  0  0  0  0  0  0  0  0  0  0
  143.9460   68.3980  219.2320 C   0  0  0  0  0  0  0  0  0  0  0  0
  143.9970   69.7600  219.4610 C   0  0  0  0  0  0  0  0  0  0  0  0
  142.6980   70.4140  219.8260 C   0  0  0  0  0  0  0  0  0  0  0  0
  141.1780   72.0060  221.6090 N   0  0  0  0  0  0  0  0  0  0  0  0
  138.8550   70.0650  224.6240 C   0  0  0  0  0  0  0  0  0  0  0  0
  139.4640   69.0460  225.5690 C   0  0  0  0  0  0  0  0  0  0  0  0
  140.5245   69.1574  228.7579 H   0  0  0  0  0  0  0  0  0  0  0  0
  140.5159   67.8573  227.5184 H   0  0  0  0  0  0  0  0  0  0  0  0
  141.8229   69.0896  227.5184 H   0  0  0  0  0  0  0  0  0  0  0  0
  139.0531   70.0631  227.4035 H   0  0  0  0  0  0  0  0  0  0  0  0
  141.4428   71.2365  227.0888 H   0  0  0  0  0  0  0  0  0  0  0  0
  139.8310   71.8562  226.4809 H   0  0  0  0  0  0  0  0  0  0  0  0
  141.8989   70.3229  224.8887 H   0  0  0  0  0  0  0  0  0  0  0  0
  141.4993   72.0925  224.7826 H   0  0  0  0  0  0  0  0  0  0  0  0
  140.5240   70.1655  223.2322 H   0  0  0  0  0  0  0  0  0  0  0  0
  138.5450   72.3520  223.5480 H   0  0  0  0  0  0  0  0  0  0  0  0
  142.6778   76.5919  220.2054 H   0  0  0  0  0  0  0  0  0  0  0  0
  141.1945   76.1453  219.2631 H   0  0  0  0  0  0  0  0  0  0  0  0
  141.8061   78.6125  219.2109 H   0  0  0  0  0  0  0  0  0  0  0  0
  140.1530   78.2651  219.7464 H   0  0  0  0  0  0  0  0  0  0  0  0
  142.5479   80.4775  220.5449 H   0  0  0  0  0  0  0  0  0  0  0  0
  143.0317   81.4602  222.7762 H   0  0  0  0  0  0  0  0  0  0  0  0
  142.2617   80.2733  224.8373 H   0  0  0  0  0  0  0  0  0  0  0  0
  141.0225   78.1273  224.6378 H   0  0  0  0  0  0  0  0  0  0  0  0
  140.4366   76.3061  223.3337 H   0  0  0  0  0  0  0  0  0  0  0  0
  139.3088   77.0293  222.1656 H   0  0  0  0  0  0  0  0  0  0  0  0
  143.7566   72.2665  218.0451 H   0  0  0  0  0  0  0  0  0  0  0  0
  143.8446   73.5903  219.2274 H   0  0  0  0  0  0  0  0  0  0  0  0
  146.0468   72.4030  219.0612 H   0  0  0  0  0  0  0  0  0  0  0  0
  145.3621   72.1659  220.6791 H   0  0  0  0  0  0  0  0  0  0  0  0
  147.2758   70.3662  218.9386 H   0  0  0  0  0  0  0  0  0  0  0  0
  147.2441   67.9197  218.5140 H   0  0  0  0  0  0  0  0  0  0  0  0
  145.1012   66.6631  218.7061 H   0  0  0  0  0  0  0  0  0  0  0  0
  142.9981   67.8465  219.3173 H   0  0  0  0  0  0  0  0  0  0  0  0
  141.9425   70.1626  219.0670 H   0  0  0  0  0  0  0  0  0  0  0  0
  142.3860   70.0476  220.8151 H   0  0  0  0  0  0  0  0  0  0  0  0
  138.2548   69.5613  223.8520 H   0  0  0  0  0  0  0  0  0  0  0  0
  138.1848   70.7589  225.1525 H   0  0  0  0  0  0  0  0  0  0  0  0
  140.3173   68.5482  225.0851 H   0  0  0  0  0  0  0  0  0  0  0  0
  138.7248   68.2770  225.8377 H   0  0  0  0  0  0  0  0  0  0  0  0
  1  2  1  0
  2  3  1  0
  3  4  1  0
  4  5  1  0
  5  6  1  0
  6  7  1  0
  7  8  2  0
  8  9  1  0
  9 10  1  0
 10 11  1  0
 11 12  1  0
 12 13  1  0
 13 14  2  0
 14 15  1  0
 15 16  2  0
 16 17  1  0
 17 18  2  0
 18 19  1  0
  9 20  2  0
 20 21  1  0
 21 22  1  0
 22 23  1  0
 23 24  1  0
 24 25  1  0
 25 26  2  0
 26 27  1  0
 27 28  2  0
 28 29  1  0
 29 30  2  0
 30 31  1  0
 21 32  2  0
  5 33  1  0
 33 34  1  0
 34  2  1  0
 32  7  1  0
 19 10  1  0
 31 22  1  0
 18 13  1  0
 30 25  1  0
  1 35  1  0
  1 36  1  0
  1 37  1  0
  2 38  1  1
  3 39  1  0
  3 40  1  0
  4 41  1  0
  4 42  1  0
  5 43  1  6
  6 44  1  0
 11 45  1  0
 11 46  1  0
 12 47  1  0
 12 48  1  0
 14 49  1  0
 15 50  1  0
 16 51  1  0
 17 52  1  0
 19 53  1  0
 19 54  1  0
 23 55  1  0
 23 56  1  0
 24 57  1  0
 24 58  1  0
 26 59  1  0
 27 60  1  0
 28 61  1  0
 29 62  1  0
 31 63  1  0
 31 64  1  0
 33 65  1  0
 33 66  1  0
 34 67  1  0
 34 68  1  0
M  END
>  <smiles>  (13) 
C[C@H]1CC[C@H](Nc2nc(N3CCc4ccccc4C3)nc(N3CCc4ccccc4C3)n2)CC1

>  <score_type>  (13) 
oracle

>  <origin>  (13) 
autodockgpu

>  <m_score__min__energy>  (13) 
-10.98

>  <m_primary>  (13) 
energy

>  <rmsd>  (13) 
4.914019775629543

>  <m_score__min__rmsd>  (13) 
4.914019775629543

>  <meeko>  (13) 
{"free_energy": -10.94, "intermolecular_energy": -12.13, "internal_energy": -1.04, "cluster_size": 24, "cluster_id": 1, "rank_in_cluster": 13}

>  <energy>  (13) 
-10.94

>  <cluster_rmsd>  (13) 
0.1

>  <cluster>  (13) 
1

$$$$

     RDKit          3D

 68 73  0  0  0  0  0  0  0  0999 V2000
  140.0850   67.9490  226.9340 C   0  0  0  0  0  0  0  0  0  0  0  0
  139.4390   69.1140  226.2270 C   0  0  1  0  0  0  0  0  0  0  0  0
  140.2660   70.3570  226.2120 C   0  0  0  0  0  0  0  0  0  0  0  0
  140.9030   70.6560  224.8720 C   0  0  0  0  0  0  0  0  0  0  0  0
  139.8900   70.7550  223.7730 C   0  0  2  0  0  0  0  0  0  0  0  0
  139.5490   72.1160  223.4260 N   0  0  0  0  0  0  0  0  0  0  0  0
  140.3600   72.8080  222.4610 C   0  0  0  0  0  0  0  0  0  0  0  0
  140.3170   74.1310  222.3460 N   0  0  0  0  0  0  0  0  0  0  0  0
  141.0710   74.7690  221.4490 C   0  0  0  0  0  0  0  0  0  0  0  0
  141.0180   76.1980  221.3320 N   0  0  0  0  0  0  0  0  0  0  0  0
  141.6380   76.7820  220.1680 C   0  0  0  0  0  0  0  0  0  0  0  0
  141.2740   78.2440  220.0120 C   0  0  0  0  0  0  0  0  0  0  0  0
  141.5450   78.8790  221.3310 C   0  0  0  0  0  0  0  0  0  0  0  0
  142.2240   80.0660  221.4730 C   0  0  0  0  0  0  0  0  0  0  0  0
  142.4600   80.6300  222.7230 C   0  0  0  0  0  0  0  0  0  0  0  0
  141.9950   79.9750  223.8610 C   0  0  0  0  0  0  0  0  0  0  0  0
  141.3120   78.7840  223.7400 C   0  0  0  0  0  0  0  0  0  0  0  0
  141.0990   78.2580  222.4800 C   0  0  0  0  0  0  0  0  0  0  0  0
  140.3590   76.9720  222.3670 C   0  0  0  0  0  0  0  0  0  0  0  0
  141.9010   74.0560  220.6340 N   0  0  0  0  0  0  0  0  0  0  0  0
  141.9630   72.7190  220.7320 C   0  0  0  0  0  0  0  0  0  0  0  0
  142.8160   71.9450  219.9000 N   0  0  0  0  0  0  0  0  0  0  0  0
  143.8490   72.5760  219.1020 C   0  0  0  0  0  0  0  0  0  0  0  0
  145.1800   72.0150  219.5820 C   0  0  0  0  0  0  0  0  0  0  0  0
  145.1230   70.5470  219.3380 C   0  0  0  0  0  0  0  0  0  0  0  0
  146.2710   69.8670  218.9830 C   0  0  0  0  0  0  0  0  0  0  0  0
  146.2410   68.5040  218.7520 C   0  0  0  0  0  0  0  0  0  0  0  0
  145.0380   67.8150  218.8820 C   0  0  0  0  0  0  0  0  0  0  0  0
  143.8780   68.4780  219.2380 C   0  0  0  0  0  0  0  0  0  0  0  0
  143.9440   69.8400  219.4600 C   0  0  0  0  0  0  0  0  0  0  0  0
  142.6560   70.5070  219.8440 C   0  0  0  0  0  0  0  0  0  0  0  0
  141.1860   72.1190  221.6500 N   0  0  0  0  0  0  0  0  0  0  0  0
  138.5910   70.0440  224.1350 C   0  0  0  0  0  0  0  0  0  0  0  0
  139.0050   68.7580  224.8250 C   0  0  0  0  0  0  0  0  0  0  0  0
  140.0063   68.0909  228.0220 H   0  0  0  0  0  0  0  0  0  0  0  0
  139.5745   67.0176  226.6479 H   0  0  0  0  0  0  0  0  0  0  0  0
  141.1454   67.8887  226.6479 H   0  0  0  0  0  0  0  0  0  0  0  0
  138.5470   69.3395  226.8298 H   0  0  0  0  0  0  0  0  0  0  0  0
  141.0662   70.2492  226.9591 H   0  0  0  0  0  0  0  0  0  0  0  0
  139.5877   71.1935  226.4359 H   0  0  0  0  0  0  0  0  0  0  0  0
  141.6116   69.8504  224.6290 H   0  0  0  0  0  0  0  0  0  0  0  0
  141.4126   71.6277  224.9498 H   0  0  0  0  0  0  0  0  0  0  0  0
  140.3752   70.2729  222.9115 H   0  0  0  0  0  0  0  0  0  0  0  0
  138.7340   72.6230  223.8490 H   0  0  0  0  0  0  0  0  0  0  0  0
  142.7303   76.6952  220.2648 H   0  0  0  0  0  0  0  0  0  0  0  0
  141.2762   76.2425  219.2803 H   0  0  0  0  0  0  0  0  0  0  0  0
  141.8913   78.7099  219.2298 H   0  0  0  0  0  0  0  0  0  0  0  0
  140.2221   78.3671  219.7148 H   0  0  0  0  0  0  0  0  0  0  0  0
  142.5905   80.5838  220.5744 H   0  0  0  0  0  0  0  0  0  0  0  0
  143.0066   81.5805  222.8113 H   0  0  0  0  0  0  0  0  0  0  0  0
  142.1729   80.4083  224.8563 H   0  0  0  0  0  0  0  0  0  0  0  0
  140.9418   78.2598  224.6334 H   0  0  0  0  0  0  0  0  0  0  0  0
  140.3926   76.4306  223.3239 H   0  0  0  0  0  0  0  0  0  0  0  0
  139.3020   77.1458  222.1169 H   0  0  0  0  0  0  0  0  0  0  0  0
  143.7012   72.3417  218.0375 H   0  0  0  0  0  0  0  0  0  0  0  0
  143.8193   73.6701  219.2118 H   0  0  0  0  0  0  0  0  0  0  0  0
  146.0096   72.4639  219.0161 H   0  0  0  0  0  0  0  0  0  0  0  0
  145.3497   72.2388  220.6455 H   0  0  0  0  0  0  0  0  0  0  0  0
  147.2194   70.4152  218.8829 H   0  0  0  0  0  0  0  0  0  0  0  0
  147.1592   67.9689  218.4681 H   0  0  0  0  0  0  0  0  0  0  0  0
  145.0101   66.7306  218.6994 H   0  0  0  0  0  0  0  0  0  0  0  0
  142.9270   67.9349  219.3418 H   0  0  0  0  0  0  0  0  0  0  0  0
  141.8858   70.2590  219.0989 H   0  0  0  0  0  0  0  0  0  0  0  0
  142.3570   70.1474  220.8396 H   0  0  0  0  0  0  0  0  0  0  0  0
  138.0095   69.8225  223.2279 H   0  0  0  0  0  0  0  0  0  0  0  0
  137.9550   70.6655  224.7826 H   0  0  0  0  0  0  0  0  0  0  0  0
  139.8394   68.2916  224.2807 H   0  0  0  0  0  0  0  0  0  0  0  0
  138.1683   68.0442  224.8481 H   0  0  0  0  0  0  0  0  0  0  0  0
  1  2  1  0
  2  3  1  0
  3  4  1  0
  4  5  1  0
  5  6  1  0
  6  7  1  0
  7  8  2  0
  8  9  1  0
  9 10  1  0
 10 11  1  0
 11 12  1  0
 12 13  1  0
 13 14  2  0
 14 15  1  0
 15 16  2  0
 16 17  1  0
 17 18  2  0
 18 19  1  0
  9 20  2  0
 20 21  1  0
 21 22  1  0
 22 23  1  0
 23 24  1  0
 24 25  1  0
 25 26  2  0
 26 27  1  0
 27 28  2  0
 28 29  1  0
 29 30  2  0
 30 31  1  0
 21 32  2  0
  5 33  1  0
 33 34  1  0
 34  2  1  0
 32  7  1  0
 19 10  1  0
 31 22  1  0
 18 13  1  0
 30 25  1  0
  1 35  1  0
  1 36  1  0
  1 37  1  0
  2 38  1  1
  3 39  1  0
  3 40  1  0
  4 41  1  0
  4 42  1  0
  5 43  1  6
  6 44  1  0
 11 45  1  0
 11 46  1  0
 12 47  1  0
 12 48  1  0
 14 49  1  0
 15 50  1  0
 16 51  1  0
 17 52  1  0
 19 53  1  0
 19 54  1  0
 23 55  1  0
 23 56  1  0
 24 57  1  0
 24 58  1  0
 26 59  1  0
 27 60  1  0
 28 61  1  0
 29 62  1  0
 31 63  1  0
 31 64  1  0
 33 65  1  0
 33 66  1  0
 34 67  1  0
 34 68  1  0
M  END
>  <smiles>  (14) 
C[C@H]1CC[C@H](Nc2nc(N3CCc4ccccc4C3)nc(N3CCc4ccccc4C3)n2)CC1

>  <score_type>  (14) 
oracle

>  <origin>  (14) 
autodockgpu

>  <m_score__min__energy>  (14) 
-10.98

>  <m_primary>  (14) 
energy

>  <rmsd>  (14) 
4.927542397103186

>  <m_score__min__rmsd>  (14) 
4.927542397103186

>  <meeko>  (14) 
{"free_energy": -10.58, "intermolecular_energy": -11.77, "internal_energy": -1.03, "cluster_size": 24, "cluster_id": 1, "rank_in_cluster": 21}

>  <energy>  (14) 
-10.93

>  <cluster_rmsd>  (14) 
0.13

>  <cluster>  (14) 
1

$$$$

     RDKit          3D

 68 73  0  0  0  0  0  0  0  0999 V2000
  140.7740   69.0660  227.8570 C   0  0  0  0  0  0  0  0  0  0  0  0
  139.9350   69.8810  226.9050 C   0  0  1  0  0  0  0  0  0  0  0  0
  140.5640   71.1670  226.4810 C   0  0  0  0  0  0  0  0  0  0  0  0
  141.1010   71.1530  225.0660 C   0  0  0  0  0  0  0  0  0  0  0  0
  140.0480   70.7940  224.0640 C   0  0  2  0  0  0  0  0  0  0  0  0
  139.4930   71.9400  223.3790 N   0  0  0  0  0  0  0  0  0  0  0  0
  140.3190   72.6510  222.4390 C   0  0  0  0  0  0  0  0  0  0  0  0
  140.2710   73.9750  222.3440 N   0  0  0  0  0  0  0  0  0  0  0  0
  141.0390   74.6300  221.4720 C   0  0  0  0  0  0  0  0  0  0  0  0
  140.9810   76.0610  221.3770 N   0  0  0  0  0  0  0  0  0  0  0  0
  141.5350   76.6600  220.1870 C   0  0  0  0  0  0  0  0  0  0  0  0
  141.1640   78.1230  220.0720 C   0  0  0  0  0  0  0  0  0  0  0  0
  141.5110   78.7420  221.3810 C   0  0  0  0  0  0  0  0  0  0  0  0
  142.1980   79.9260  221.4990 C   0  0  0  0  0  0  0  0  0  0  0  0
  142.5060   80.4740  222.7420 C   0  0  0  0  0  0  0  0  0  0  0  0
  142.1050   79.8040  223.8960 C   0  0  0  0  0  0  0  0  0  0  0  0
  141.4140   78.6160  223.7980 C   0  0  0  0  0  0  0  0  0  0  0  0
  141.1300   78.1060  222.5460 C   0  0  0  0  0  0  0  0  0  0  0  0
  140.3830   76.8220  222.4580 C   0  0  0  0  0  0  0  0  0  0  0  0
  141.8870   73.9350  220.6610 N   0  0  0  0  0  0  0  0  0  0  0  0
  141.9530   72.5970  220.7390 C   0  0  0  0  0  0  0  0  0  0  0  0
  142.8250   71.8400  219.9110 N   0  0  0  0  0  0  0  0  0  0  0  0
  143.8450   72.4920  219.1130 C   0  0  0  0  0  0  0  0  0  0  0  0
  145.1870   71.9630  219.5960 C   0  0  0  0  0  0  0  0  0  0  0  0
  145.1650   70.4930  219.3570 C   0  0  0  0  0  0  0  0  0  0  0  0
  146.3290   69.8390  219.0060 C   0  0  0  0  0  0  0  0  0  0  0  0
  146.3300   68.4740  218.7790 C   0  0  0  0  0  0  0  0  0  0  0  0
  145.1420   67.7580  218.9100 C   0  0  0  0  0  0  0  0  0  0  0  0
  143.9680   68.3960  219.2610 C   0  0  0  0  0  0  0  0  0  0  0  0
  144.0020   69.7590  219.4790 C   0  0  0  0  0  0  0  0  0  0  0  0
  142.6980   70.3980  219.8590 C   0  0  0  0  0  0  0  0  0  0  0  0
  141.1620   71.9790  221.6330 N   0  0  0  0  0  0  0  0  0  0  0  0
  138.8840   70.0480  224.7070 C   0  0  0  0  0  0  0  0  0  0  0  0
  139.5120   69.0820  225.6950 C   0  0  0  0  0  0  0  0  0  0  0  0
  140.5084   69.3240  228.8928 H   0  0  0  0  0  0  0  0  0  0  0  0
  140.5870   67.9955  227.6863 H   0  0  0  0  0  0  0  0  0  0  0  0
  141.8386   69.2840  227.6863 H   0  0  0  0  0  0  0  0  0  0  0  0
  139.0405   70.1478  227.4870 H   0  0  0  0  0  0  0  0  0  0  0  0
  141.3971   71.3865  227.1649 H   0  0  0  0  0  0  0  0  0  0  0  0
  139.7753   71.9330  226.5143 H   0  0  0  0  0  0  0  0  0  0  0  0
  141.9152   70.4159  225.0035 H   0  0  0  0  0  0  0  0  0  0  0  0
  141.4587   72.1663  224.8310 H   0  0  0  0  0  0  0  0  0  0  0  0
  140.5707   70.1546  223.3374 H   0  0  0  0  0  0  0  0  0  0  0  0
  138.5120   72.2760  223.5360 H   0  0  0  0  0  0  0  0  0  0  0  0
  142.6309   76.5717  220.2205 H   0  0  0  0  0  0  0  0  0  0  0  0
  141.1236   76.1322  219.3140 H   0  0  0  0  0  0  0  0  0  0  0  0
  141.7353   78.5990  219.2614 H   0  0  0  0  0  0  0  0  0  0  0  0
  140.0965   78.2494  219.8385 H   0  0  0  0  0  0  0  0  0  0  0  0
  142.5132   80.4552  220.5876 H   0  0  0  0  0  0  0  0  0  0  0  0
  143.0583   81.4228  222.8116 H   0  0  0  0  0  0  0  0  0  0  0  0
  142.3401   80.2235  224.8853 H   0  0  0  0  0  0  0  0  0  0  0  0
  141.0930   78.0812  224.7040 H   0  0  0  0  0  0  0  0  0  0  0  0
  140.4700   76.2679  223.4042 H   0  0  0  0  0  0  0  0  0  0  0  0
  139.3138   77.0000  222.2703 H   0  0  0  0  0  0  0  0  0  0  0  0
  143.7042   72.2517  218.0489 H   0  0  0  0  0  0  0  0  0  0  0  0
  143.7905   73.5854  219.2201 H   0  0  0  0  0  0  0  0  0  0  0  0
  146.0067   72.4291  219.0296 H   0  0  0  0  0  0  0  0  0  0  0  0
  145.3495   72.1937  220.6592 H   0  0  0  0  0  0  0  0  0  0  0  0
  147.2647   70.4085  218.9058 H   0  0  0  0  0  0  0  0  0  0  0  0
  147.2603   67.9589  218.4977 H   0  0  0  0  0  0  0  0  0  0  0  0
  145.1388   66.6725  218.7319 H   0  0  0  0  0  0  0  0  0  0  0  0
  143.0292   67.8320  219.3643 H   0  0  0  0  0  0  0  0  0  0  0  0
  141.9349   70.1303  219.1133 H   0  0  0  0  0  0  0  0  0  0  0  0
  142.4056   70.0347  220.8553 H   0  0  0  0  0  0  0  0  0  0  0  0
  138.3120   69.4991  223.9445 H   0  0  0  0  0  0  0  0  0  0  0  0
  138.1835   70.7369  225.2016 H   0  0  0  0  0  0  0  0  0  0  0  0
  140.3882   68.5966  225.2404 H   0  0  0  0  0  0  0  0  0  0  0  0
  138.7946   68.2983  225.9798 H   0  0  0  0  0  0  0  0  0  0  0  0
  1  2  1  0
  2  3  1  0
  3  4  1  0
  4  5  1  0
  5  6  1  0
  6  7  1  0
  7  8  2  0
  8  9  1  0
  9 10  1  0
 10 11  1  0
 11 12  1  0
 12 13  1  0
 13 14  2  0
 14 15  1  0
 15 16  2  0
 16 17  1  0
 17 18  2  0
 18 19  1  0
  9 20  2  0
 20 21  1  0
 21 22  1  0
 22 23  1  0
 23 24  1  0
 24 25  1  0
 25 26  2  0
 26 27  1  0
 27 28  2  0
 28 29  1  0
 29 30  2  0
 30 31  1  0
 21 32  2  0
  5 33  1  0
 33 34  1  0
 34  2  1  0
 32  7  1  0
 19 10  1  0
 31 22  1  0
 18 13  1  0
 30 25  1  0
  1 35  1  0
  1 36  1  0
  1 37  1  0
  2 38  1  1
  3 39  1  0
  3 40  1  0
  4 41  1  0
  4 42  1  0
  5 43  1  6
  6 44  1  0
 11 45  1  0
 11 46  1  0
 12 47  1  0
 12 48  1  0
 14 49  1  0
 15 50  1  0
 16 51  1  0
 17 52  1  0
 19 53  1  0
 19 54  1  0
 23 55  1  0
 23 56  1  0
 24 57  1  0
 24 58  1  0
 26 59  1  0
 27 60  1  0
 28 61  1  0
 29 62  1  0
 31 63  1  0
 31 64  1  0
 33 65  1  0
 33 66  1  0
 34 67  1  0
 34 68  1  0
M  END
>  <smiles>  (15) 
C[C@H]1CC[C@H](Nc2nc(N3CCc4ccccc4C3)nc(N3CCc4ccccc4C3)n2)CC1

>  <score_type>  (15) 
oracle

>  <origin>  (15) 
autodockgpu

>  <m_score__min__energy>  (15) 
-10.98

>  <m_primary>  (15) 
energy

>  <rmsd>  (15) 
4.939795258414136

>  <m_score__min__rmsd>  (15) 
4.939795258414136

>  <meeko>  (15) 
{"free_energy": -10.97, "intermolecular_energy": -12.16, "internal_energy": -1.04, "cluster_size": 24, "cluster_id": 1, "rank_in_cluster": 5}

>  <energy>  (15) 
-10.93

>  <cluster_rmsd>  (15) 
0.09

>  <cluster>  (15) 
1

$$$$

     RDKit          3D

 68 73  0  0  0  0  0  0  0  0999 V2000
  146.7220   73.7710  220.4680 C   0  0  0  0  0  0  0  0  0  0  0  0
  145.2740   73.3690  220.5920 C   0  0  1  0  0  0  0  0  0  0  0  0
  144.3180   74.3120  219.9400 C   0  0  0  0  0  0  0  0  0  0  0  0
  143.7370   73.8000  218.6400 C   0  0  0  0  0  0  0  0  0  0  0  0
  143.0500   72.4790  218.8080 C   0  0  2  0  0  0  0  0  0  0  0  0
  141.6120   72.5880  218.9040 N   0  0  0  0  0  0  0  0  0  0  0  0
  141.0410   73.2010  220.0730 C   0  0  0  0  0  0  0  0  0  0  0  0
  140.9460   74.5210  220.1830 N   0  0  0  0  0  0  0  0  0  0  0  0
  140.4150   75.0860  221.2690 C   0  0  0  0  0  0  0  0  0  0  0  0
  140.3160   76.5130  221.3780 N   0  0  0  0  0  0  0  0  0  0  0  0
  140.3920   77.2700  220.1520 C   0  0  0  0  0  0  0  0  0  0  0  0
  139.9940   78.7160  220.3600 C   0  0  0  0  0  0  0  0  0  0  0  0
  140.7910   79.2000  221.5200 C   0  0  0  0  0  0  0  0  0  0  0  0
  141.4660   80.3980  221.5260 C   0  0  0  0  0  0  0  0  0  0  0  0
  142.2030   80.8180  222.6300 C   0  0  0  0  0  0  0  0  0  0  0  0
  142.2570   80.0040  223.7580 C   0  0  0  0  0  0  0  0  0  0  0  0
  141.5870   78.7990  223.7730 C   0  0  0  0  0  0  0  0  0  0  0  0
  140.8670   78.4200  222.6560 C   0  0  0  0  0  0  0  0  0  0  0  0
  140.1500   77.1160  222.6870 C   0  0  0  0  0  0  0  0  0  0  0  0
  139.9630   74.2990  222.2870 N   0  0  0  0  0  0  0  0  0  0  0  0
  140.0470   72.9630  222.2000 C   0  0  0  0  0  0  0  0  0  0  0  0
  139.5860   72.1120  223.2400 N   0  0  0  0  0  0  0  0  0  0  0  0
  138.2830   71.4820  223.1630 C   0  0  0  0  0  0  0  0  0  0  0  0
  138.5190   69.9800  223.1640 C   0  0  0  0  0  0  0  0  0  0  0  0
  139.2010   69.6670  224.4510 C   0  0  0  0  0  0  0  0  0  0  0  0
  138.9420   68.4700  225.0890 C   0  0  0  0  0  0  0  0  0  0  0  0
  139.5640   68.1600  226.2850 C   0  0  0  0  0  0  0  0  0  0  0  0
  140.4590   69.0680  226.8460 C   0  0  0  0  0  0  0  0  0  0  0  0
  140.7310   70.2710  226.2220 C   0  0  0  0  0  0  0  0  0  0  0  0
  140.0920   70.5480  225.0290 C   0  0  0  0  0  0  0  0  0  0  0  0
  140.4250   71.8670  224.3960 C   0  0  0  0  0  0  0  0  0  0  0  0
  140.5890   72.4380  221.0860 N   0  0  0  0  0  0  0  0  0  0  0  0
  143.5300   71.7460  220.0550 C   0  0  0  0  0  0  0  0  0  0  0  0
  145.0320   71.9600  220.1050 C   0  0  0  0  0  0  0  0  0  0  0  0
  147.1563   73.8916  221.4714 H   0  0  0  0  0  0  0  0  0  0  0  0
  147.2733   72.9919  219.9211 H   0  0  0  0  0  0  0  0  0  0  0  0
  146.7928   74.7228  219.9211 H   0  0  0  0  0  0  0  0  0  0  0  0
  145.0692   73.4134  221.6718 H   0  0  0  0  0  0  0  0  0  0  0  0
  144.8475   75.2541  219.7347 H   0  0  0  0  0  0  0  0  0  0  0  0
  143.4756   74.4417  220.6353 H   0  0  0  0  0  0  0  0  0  0  0  0
  144.5510   73.6854  217.9091 H   0  0  0  0  0  0  0  0  0  0  0  0
  142.9883   74.5283  218.2949 H   0  0  0  0  0  0  0  0  0  0  0  0
  143.3109   71.9184  217.8982 H   0  0  0  0  0  0  0  0  0  0  0  0
  140.9650   72.2400  218.1550 H   0  0  0  0  0  0  0  0  0  0  0  0
  141.4249   77.2354  219.7753 H   0  0  0  0  0  0  0  0  0  0  0  0
  139.6933   76.8230  219.4296 H   0  0  0  0  0  0  0  0  0  0  0  0
  140.2264   79.3089  219.4630 H   0  0  0  0  0  0  0  0  0  0  0  0
  138.9141   78.8132  220.5455 H   0  0  0  0  0  0  0  0  0  0  0  0
  141.4225   81.0415  220.6350 H   0  0  0  0  0  0  0  0  0  0  0  0
  142.7356   81.7803  222.6112 H   0  0  0  0  0  0  0  0  0  0  0  0
  142.8348   80.3224  224.6382 H   0  0  0  0  0  0  0  0  0  0  0  0
  141.6250   78.1496  224.6601 H   0  0  0  0  0  0  0  0  0  0  0  0
  140.5823   76.4649  223.4611 H   0  0  0  0  0  0  0  0  0  0  0  0
  139.0850   77.2576  222.9232 H   0  0  0  0  0  0  0  0  0  0  0  0
  137.6717   71.7696  224.0311 H   0  0  0  0  0  0  0  0  0  0  0  0
  137.7464   71.7960  222.2556 H   0  0  0  0  0  0  0  0  0  0  0  0
  137.5609   69.4435  223.0999 H   0  0  0  0  0  0  0  0  0  0  0  0
  139.1277   69.6694  222.3020 H   0  0  0  0  0  0  0  0  0  0  0  0
  138.2344   67.7563  224.6419 H   0  0  0  0  0  0  0  0  0  0  0  0
  139.3537   67.2049  226.7886 H   0  0  0  0  0  0  0  0  0  0  0  0
  140.9553   68.8248  227.7971 H   0  0  0  0  0  0  0  0  0  0  0  0
  141.4377   70.9889  226.6638 H   0  0  0  0  0  0  0  0  0  0  0  0
  140.2679   72.6695  225.1317 H   0  0  0  0  0  0  0  0  0  0  0  0
  141.4753   71.8452  224.0698 H   0  0  0  0  0  0  0  0  0  0  0  0
  143.2977   70.6733  219.9825 H   0  0  0  0  0  0  0  0  0  0  0  0
  143.0359   72.1228  220.9627 H   0  0  0  0  0  0  0  0  0  0  0  0
  145.4634   71.8302  219.1015 H   0  0  0  0  0  0  0  0  0  0  0  0
  145.5050   71.2306  220.7790 H   0  0  0  0  0  0  0  0  0  0  0  0
  1  2  1  0
  2  3  1  0
  3  4  1  0
  4  5  1  0
  5  6  1  0
  6  7  1  0
  7  8  2  0
  8  9  1  0
  9 10  1  0
 10 11  1  0
 11 12  1  0
 12 13  1  0
 13 14  2  0
 14 15  1  0
 15 16  2  0
 16 17  1  0
 17 18  2  0
 18 19  1  0
  9 20  2  0
 20 21  1  0
 21 22  1  0
 22 23  1  0
 23 24  1  0
 24 25  1  0
 25 26  2  0
 26 27  1  0
 27 28  2  0
 28 29  1  0
 29 30  2  0
 30 31  1  0
 21 32  2  0
  5 33  1  0
 33 34  1  0
 34  2  1  0
 32  7  1  0
 19 10  1  0
 31 22  1  0
 18 13  1  0
 30 25  1  0
  1 35  1  0
  1 36  1  0
  1 37  1  0
  2 38  1  1
  3 39  1  0
  3 40  1  0
  4 41  1  0
  4 42  1  0
  5 43  1  6
  6 44  1  0
 11 45  1  0
 11 46  1  0
 12 47  1  0
 12 48  1  0
 14 49  1  0
 15 50  1  0
 16 51  1  0
 17 52  1  0
 19 53  1  0
 19 54  1  0
 23 55  1  0
 23 56  1  0
 24 57  1  0
 24 58  1  0
 26 59  1  0
 27 60  1  0
 28 61  1  0
 29 62  1  0
 31 63  1  0
 31 64  1  0
 33 65  1  0
 33 66  1  0
 34 67  1  0
 34 68  1  0
M  END
>  <smiles>  (16) 
C[C@H]1CC[C@H](Nc2nc(N3CCc4ccccc4C3)nc(N3CCc4ccccc4C3)n2)CC1

>  <score_type>  (16) 
oracle

>  <origin>  (16) 
autodockgpu

>  <m_score__min__energy>  (16) 
-10.98

>  <m_primary>  (16) 
energy

>  <rmsd>  (16) 
4.974754280375324

>  <m_score__min__rmsd>  (16) 
4.974754280375324

>  <meeko>  (16) 
{"free_energy": -9.76, "intermolecular_energy": -10.96, "internal_energy": -1.41, "cluster_size": 20, "cluster_id": 2, "rank_in_cluster": 13}

>  <energy>  (16) 
-10.92

>  <cluster_rmsd>  (16) 
0.12

>  <cluster>  (16) 
1

$$$$

     RDKit          3D

 68 73  0  0  0  0  0  0  0  0999 V2000
  144.1500   66.6360  218.2440 C   0  0  0  0  0  0  0  0  0  0  0  0
  144.2240   68.1420  218.2020 C   0  0  1  0  0  0  0  0  0  0  0  0
  142.8940   68.8200  218.1630 C   0  0  0  0  0  0  0  0  0  0  0  0
  142.4930   69.4640  219.4720 C   0  0  0  0  0  0  0  0  0  0  0  0
  143.5090   70.4550  219.9510 C   0  0  2  0  0  0  0  0  0  0  0  0
  143.1520   71.8260  219.6660 N   0  0  0  0  0  0  0  0  0  0  0  0
  142.2900   72.5210  220.5840 C   0  0  0  0  0  0  0  0  0  0  0  0
  142.1150   73.8350  220.5040 N   0  0  0  0  0  0  0  0  0  0  0  0
  141.3140   74.4770  221.3570 C   0  0  0  0  0  0  0  0  0  0  0  0
  141.1310   75.8970  221.2630 N   0  0  0  0  0  0  0  0  0  0  0  0
  141.5770   76.5350  220.0480 C   0  0  0  0  0  0  0  0  0  0  0  0
  141.0790   77.9610  219.9480 C   0  0  0  0  0  0  0  0  0  0  0  0
  141.4310   78.6120  221.2400 C   0  0  0  0  0  0  0  0  0  0  0  0
  142.0210   79.8520  221.3250 C   0  0  0  0  0  0  0  0  0  0  0  0
  142.3360   80.4290  222.5520 C   0  0  0  0  0  0  0  0  0  0  0  0
  142.0470   79.7340  223.7240 C   0  0  0  0  0  0  0  0  0  0  0  0
  141.4550   78.4910  223.6590 C   0  0  0  0  0  0  0  0  0  0  0  0
  141.1580   77.9530  222.4210 C   0  0  0  0  0  0  0  0  0  0  0  0
  140.5200   76.6100  222.3690 C   0  0  0  0  0  0  0  0  0  0  0  0
  140.6620   73.7760  222.3290 N   0  0  0  0  0  0  0  0  0  0  0  0
  140.8220   72.4470  222.4290 C   0  0  0  0  0  0  0  0  0  0  0  0
  140.1590   71.6860  223.4290 N   0  0  0  0  0  0  0  0  0  0  0  0
  138.9540   70.9410  223.1190 C   0  0  0  0  0  0  0  0  0  0  0  0
  139.2640   69.4750  223.3770 C   0  0  0  0  0  0  0  0  0  0  0  0
  139.6130   69.3720  224.8220 C   0  0  0  0  0  0  0  0  0  0  0  0
  139.2670   68.2380  225.5300 C   0  0  0  0  0  0  0  0  0  0  0  0
  139.5810   68.1220  226.8720 C   0  0  0  0  0  0  0  0  0  0  0  0
  140.2540   69.1620  227.5090 C   0  0  0  0  0  0  0  0  0  0  0  0
  140.6090   70.3040  226.8160 C   0  0  0  0  0  0  0  0  0  0  0  0
  140.2790   70.3870  225.4780 C   0  0  0  0  0  0  0  0  0  0  0  0
  140.6890   71.6480  224.7760 C   0  0  0  0  0  0  0  0  0  0  0  0
  141.6390   71.8440  221.5480 N   0  0  0  0  0  0  0  0  0  0  0  0
  144.8780   70.2070  219.3270 C   0  0  0  0  0  0  0  0  0  0  0  0
  145.0620   68.7010  219.3260 C   0  0  0  0  0  0  0  0  0  0  0  0
  144.1334   66.2988  219.2909 H   0  0  0  0  0  0  0  0  0  0  0  0
  143.2342   66.2996  217.7359 H   0  0  0  0  0  0  0  0  0  0  0  0
  145.0284   66.2114  217.7359 H   0  0  0  0  0  0  0  0  0  0  0  0
  144.7172   68.3653  217.2444 H   0  0  0  0  0  0  0  0  0  0  0  0
  142.1322   68.0722  217.8977 H   0  0  0  0  0  0  0  0  0  0  0  0
  142.9705   69.6283  217.4209 H   0  0  0  0  0  0  0  0  0  0  0  0
  142.3790   68.6779  220.2330 H   0  0  0  0  0  0  0  0  0  0  0  0
  141.5481   70.0026  219.3073 H   0  0  0  0  0  0  0  0  0  0  0  0
  143.5414   70.3085  221.0407 H   0  0  0  0  0  0  0  0  0  0  0  0
  143.4970   72.3380  218.8180 H   0  0  0  0  0  0  0  0  0  0  0  0
  142.6769   76.5397  220.0310 H   0  0  0  0  0  0  0  0  0  0  0  0
  141.1715   75.9700  219.1957 H   0  0  0  0  0  0  0  0  0  0  0  0
  141.5714   78.4798  219.1123 H   0  0  0  0  0  0  0  0  0  0  0  0
  139.9954   77.9965  219.7618 H   0  0  0  0  0  0  0  0  0  0  0  0
  142.2496   80.4014  220.3998 H   0  0  0  0  0  0  0  0  0  0  0  0
  142.8075   81.4219  222.5955 H   0  0  0  0  0  0  0  0  0  0  0  0
  142.2911   80.1769  224.7009 H   0  0  0  0  0  0  0  0  0  0  0  0
  141.2222   77.9351  224.5792 H   0  0  0  0  0  0  0  0  0  0  0  0
  140.6967   76.0703  223.3111 H   0  0  0  0  0  0  0  0  0  0  0  0
  139.4322   76.6954  222.2301 H   0  0  0  0  0  0  0  0  0  0  0  0
  138.1274   71.2724  223.7647 H   0  0  0  0  0  0  0  0  0  0  0  0
  138.6490   71.1016  222.0744 H   0  0  0  0  0  0  0  0  0  0  0  0
  138.3845   68.8539  223.1519 H   0  0  0  0  0  0  0  0  0  0  0  0
  140.0877   69.1212  222.7395 H   0  0  0  0  0  0  0  0  0  0  0  0
  138.7366   67.4192  225.0218 H   0  0  0  0  0  0  0  0  0  0  0  0
  139.3018   67.2168  227.4311 H   0  0  0  0  0  0  0  0  0  0  0  0
  140.5059   69.0734  228.5761 H   0  0  0  0  0  0  0  0  0  0  0  0
  141.1409   71.1258  227.3178 H   0  0  0  0  0  0  0  0  0  0  0  0
  140.3071   72.5132  225.3377 H   0  0  0  0  0  0  0  0  0  0  0  0
  141.7872   71.6788  224.7222 H   0  0  0  0  0  0  0  0  0  0  0  0
  145.6652   70.6892  219.9252 H   0  0  0  0  0  0  0  0  0  0  0  0
  144.9430   70.6246  218.3114 H   0  0  0  0  0  0  0  0  0  0  0  0
  144.7294   68.2814  220.2869 H   0  0  0  0  0  0  0  0  0  0  0  0
  146.1214   68.4403  219.1858 H   0  0  0  0  0  0  0  0  0  0  0  0
  1  2  1  0
  2  3  1  0
  3  4  1  0
  4  5  1  0
  5  6  1  0
  6  7  1  0
  7  8  2  0
  8  9  1  0
  9 10  1  0
 10 11  1  0
 11 12  1  0
 12 13  1  0
 13 14  2  0
 14 15  1  0
 15 16  2  0
 16 17  1  0
 17 18  2  0
 18 19  1  0
  9 20  2  0
 20 21  1  0
 21 22  1  0
 22 23  1  0
 23 24  1  0
 24 25  1  0
 25 26  2  0
 26 27  1  0
 27 28  2  0
 28 29  1  0
 29 30  2  0
 30 31  1  0
 21 32  2  0
  5 33  1  0
 33 34  1  0
 34  2  1  0
 32  7  1  0
 19 10  1  0
 31 22  1  0
 18 13  1  0
 30 25  1  0
  1 35  1  0
  1 36  1  0
  1 37  1  0
  2 38  1  6
  3 39  1  0
  3 40  1  0
  4 41  1  0
  4 42  1  0
  5 43  1  1
  6 44  1  0
 11 45  1  0
 11 46  1  0
 12 47  1  0
 12 48  1  0
 14 49  1  0
 15 50  1  0
 16 51  1  0
 17 52  1  0
 19 53  1  0
 19 54  1  0
 23 55  1  0
 23 56  1  0
 24 57  1  0
 24 58  1  0
 26 59  1  0
 27 60  1  0
 28 61  1  0
 29 62  1  0
 31 63  1  0
 31 64  1  0
 33 65  1  0
 33 66  1  0
 34 67  1  0
 34 68  1  0
M  END
>  <smiles>  (17) 
C[C@H]1CC[C@H](Nc2nc(N3CCc4ccccc4C3)nc(N3CCc4ccccc4C3)n2)CC1

>  <score_type>  (17) 
oracle

>  <origin>  (17) 
autodockgpu

>  <m_score__min__energy>  (17) 
-10.98

>  <m_primary>  (17) 
energy

>  <rmsd>  (17) 
4.846964744828872

>  <m_score__min__rmsd>  (17) 
4.846964744828872

>  <meeko>  (17) 
{"free_energy": -9.79, "intermolecular_energy": -10.98, "internal_energy": -1.04, "cluster_size": 20, "cluster_id": 2, "rank_in_cluster": 12}

>  <energy>  (17) 
-10.88

>  <cluster_rmsd>  (17) 
0.1

>  <cluster>  (17) 
1

$$$$

     RDKit          3D

 68 73  0  0  0  0  0  0  0  0999 V2000
  140.5390   68.3710  227.3490 C   0  0  0  0  0  0  0  0  0  0  0  0
  139.7840   69.4050  226.5530 C   0  0  1  0  0  0  0  0  0  0  0  0
  140.5350   70.6760  226.3310 C   0  0  0  0  0  0  0  0  0  0  0  0
  141.0680   70.8370  224.9230 C   0  0  0  0  0  0  0  0  0  0  0  0
  139.9830   70.7480  223.8940 C   0  0  2  0  0  0  0  0  0  0  0  0
  139.5430   72.0370  223.4100 N   0  0  0  0  0  0  0  0  0  0  0  0
  140.3600   72.7320  222.4510 C   0  0  0  0  0  0  0  0  0  0  0  0
  140.3150   74.0550  222.3380 N   0  0  0  0  0  0  0  0  0  0  0  0
  141.0740   74.6950  221.4470 C   0  0  0  0  0  0  0  0  0  0  0  0
  141.0200   76.1250  221.3320 N   0  0  0  0  0  0  0  0  0  0  0  0
  141.6310   76.7100  220.1640 C   0  0  0  0  0  0  0  0  0  0  0  0
  141.2650   78.1720  220.0130 C   0  0  0  0  0  0  0  0  0  0  0  0
  141.5460   78.8060  221.3310 C   0  0  0  0  0  0  0  0  0  0  0  0
  142.2250   79.9930  221.4680 C   0  0  0  0  0  0  0  0  0  0  0  0
  142.4700   80.5560  222.7180 C   0  0  0  0  0  0  0  0  0  0  0  0
  142.0130   79.8990  223.8580 C   0  0  0  0  0  0  0  0  0  0  0  0
  141.3290   78.7090  223.7410 C   0  0  0  0  0  0  0  0  0  0  0  0
  141.1080   78.1840  222.4820 C   0  0  0  0  0  0  0  0  0  0  0  0
  140.3680   76.8970  222.3720 C   0  0  0  0  0  0  0  0  0  0  0  0
  141.9110   73.9860  220.6370 N   0  0  0  0  0  0  0  0  0  0  0  0
  141.9740   72.6490  220.7330 C   0  0  0  0  0  0  0  0  0  0  0  0
  142.8340   71.8770  219.9050 N   0  0  0  0  0  0  0  0  0  0  0  0
  143.8600   72.5120  219.1020 C   0  0  0  0  0  0  0  0  0  0  0  0
  145.1960   71.9680  219.5840 C   0  0  0  0  0  0  0  0  0  0  0  0
  145.1540   70.4980  219.3510 C   0  0  0  0  0  0  0  0  0  0  0  0
  146.3080   69.8270  218.9990 C   0  0  0  0  0  0  0  0  0  0  0  0
  146.2920   68.4620  218.7780 C   0  0  0  0  0  0  0  0  0  0  0  0
  145.0950   67.7620  218.9140 C   0  0  0  0  0  0  0  0  0  0  0  0
  143.9300   68.4160  219.2660 C   0  0  0  0  0  0  0  0  0  0  0  0
  143.9820   69.7800  219.4790 C   0  0  0  0  0  0  0  0  0  0  0  0
  142.6880   70.4370  219.8590 C   0  0  0  0  0  0  0  0  0  0  0  0
  141.1910   72.0460  221.6440 N   0  0  0  0  0  0  0  0  0  0  0  0
  138.7530   70.0250  224.4280 C   0  0  0  0  0  0  0  0  0  0  0  0
  139.2840   68.8560  225.2390 C   0  0  0  0  0  0  0  0  0  0  0  0
  140.3997   68.5618  228.4233 H   0  0  0  0  0  0  0  0  0  0  0  0
  140.1587   67.3688  227.1022 H   0  0  0  0  0  0  0  0  0  0  0  0
  141.6094   68.4280  227.1022 H   0  0  0  0  0  0  0  0  0  0  0  0
  138.9199   69.6597  227.1842 H   0  0  0  0  0  0  0  0  0  0  0  0
  141.3855   70.7018  227.0281 H   0  0  0  0  0  0  0  0  0  0  0  0
  139.8252   71.4993  226.4993 H   0  0  0  0  0  0  0  0  0  0  0  0
  141.8050   70.0435  224.7303 H   0  0  0  0  0  0  0  0  0  0  0  0
  141.5249   71.8347  224.8468 H   0  0  0  0  0  0  0  0  0  0  0  0
  140.4397   70.1863  223.0658 H   0  0  0  0  0  0  0  0  0  0  0  0
  138.6520   72.4890  223.7280 H   0  0  0  0  0  0  0  0  0  0  0  0
  142.7240   76.6234  220.2523 H   0  0  0  0  0  0  0  0  0  0  0  0
  141.2631   76.1712  219.2784 H   0  0  0  0  0  0  0  0  0  0  0  0
  141.8758   78.6393  219.2265 H   0  0  0  0  0  0  0  0  0  0  0  0
  140.2106   78.2947  219.7245 H   0  0  0  0  0  0  0  0  0  0  0  0
  142.5843   80.5118  220.5670 H   0  0  0  0  0  0  0  0  0  0  0  0
  143.0169   81.5065  222.8039 H   0  0  0  0  0  0  0  0  0  0  0  0
  142.1984   80.3308  224.8526 H   0  0  0  0  0  0  0  0  0  0  0  0
  140.9642   78.1845  224.6364 H   0  0  0  0  0  0  0  0  0  0  0  0
  140.4085   76.3543  223.3279 H   0  0  0  0  0  0  0  0  0  0  0  0
  139.3093   77.0706  222.1290 H   0  0  0  0  0  0  0  0  0  0  0  0
  143.7135   72.2688  218.0393 H   0  0  0  0  0  0  0  0  0  0  0  0
  143.8198   73.6065  219.2044 H   0  0  0  0  0  0  0  0  0  0  0  0
  146.0204   72.4211  219.0138 H   0  0  0  0  0  0  0  0  0  0  0  0
  145.3643   72.2010  220.6458 H   0  0  0  0  0  0  0  0  0  0  0  0
  147.2505   70.3842  218.8931 H   0  0  0  0  0  0  0  0  0  0  0  0
  147.2153   67.9340  218.4976 H   0  0  0  0  0  0  0  0  0  0  0  0
  145.0773   66.6761  218.7391 H   0  0  0  0  0  0  0  0  0  0  0  0
  142.9845   67.8643  219.3740 H   0  0  0  0  0  0  0  0  0  0  0  0
  141.9199   70.1764  219.1160 H   0  0  0  0  0  0  0  0  0  0  0  0
  142.3930   70.0814  220.8573 H   0  0  0  0  0  0  0  0  0  0  0  0
  138.1295   69.6636  223.5970 H   0  0  0  0  0  0  0  0  0  0  0  0
  138.1238   70.6900  225.0378 H   0  0  0  0  0  0  0  0  0  0  0  0
  140.1079   68.3673  224.6983 H   0  0  0  0  0  0  0  0  0  0  0  0
  138.4932   68.1100  225.4067 H   0  0  0  0  0  0  0  0  0  0  0  0
  1  2  1  0
  2  3  1  0
  3  4  1  0
  4  5  1  0
  5  6  1  0
  6  7  1  0
  7  8  2  0
  8  9  1  0
  9 10  1  0
 10 11  1  0
 11 12  1  0
 12 13  1  0
 13 14  2  0
 14 15  1  0
 15 16  2  0
 16 17  1  0
 17 18  2  0
 18 19  1  0
  9 20  2  0
 20 21  1  0
 21 22  1  0
 22 23  1  0
 23 24  1  0
 24 25  1  0
 25 26  2  0
 26 27  1  0
 27 28  2  0
 28 29  1  0
 29 30  2  0
 30 31  1  0
 21 32  2  0
  5 33  1  0
 33 34  1  0
 34  2  1  0
 32  7  1  0
 19 10  1  0
 31 22  1  0
 18 13  1  0
 30 25  1  0
  1 35  1  0
  1 36  1  0
  1 37  1  0
  2 38  1  1
  3 39  1  0
  3 40  1  0
  4 41  1  0
  4 42  1  0
  5 43  1  6
  6 44  1  0
 11 45  1  0
 11 46  1  0
 12 47  1  0
 12 48  1  0
 14 49  1  0
 15 50  1  0
 16 51  1  0
 17 52  1  0
 19 53  1  0
 19 54  1  0
 23 55  1  0
 23 56  1  0
 24 57  1  0
 24 58  1  0
 26 59  1  0
 27 60  1  0
 28 61  1  0
 29 62  1  0
 31 63  1  0
 31 64  1  0
 33 65  1  0
 33 66  1  0
 34 67  1  0
 34 68  1  0
M  END
>  <smiles>  (18) 
C[C@H]1CC[C@H](Nc2nc(N3CCc4ccccc4C3)nc(N3CCc4ccccc4C3)n2)CC1

>  <score_type>  (18) 
oracle

>  <origin>  (18) 
autodockgpu

>  <m_score__min__energy>  (18) 
-10.98

>  <m_primary>  (18) 
energy

>  <rmsd>  (18) 
4.921129325997082

>  <m_score__min__rmsd>  (18) 
4.921129325997082

>  <meeko>  (18) 
{"free_energy": -10.83, "intermolecular_energy": -12.02, "internal_energy": -1.04, "cluster_size": 24, "cluster_id": 1, "rank_in_cluster": 19}

>  <energy>  (18) 
-10.87

>  <cluster_rmsd>  (18) 
0.19

>  <cluster>  (18) 
1

$$$$

     RDKit          3D

 68 73  0  0  0  0  0  0  0  0999 V2000
  146.7120   73.7610  220.1830 C   0  0  0  0  0  0  0  0  0  0  0  0
  145.4090   73.0460  220.4400 C   0  0  1  0  0  0  0  0  0  0  0  0
  144.1940   73.8530  220.1230 C   0  0  0  0  0  0  0  0  0  0  0  0
  143.4930   73.4360  218.8480 C   0  0  0  0  0  0  0  0  0  0  0  0
  143.1030   71.9900  218.8640 C   0  0  2  0  0  0  0  0  0  0  0  0
  141.7110   71.7740  219.1870 N   0  0  0  0  0  0  0  0  0  0  0  0
  141.1420   72.4810  220.3030 C   0  0  0  0  0  0  0  0  0  0  0  0
  141.0280   73.8040  220.2940 N   0  0  0  0  0  0  0  0  0  0  0  0
  140.5000   74.4570  221.3310 C   0  0  0  0  0  0  0  0  0  0  0  0
  140.3810   75.8870  221.3120 N   0  0  0  0  0  0  0  0  0  0  0  0
  140.4900   76.5360  220.0290 C   0  0  0  0  0  0  0  0  0  0  0  0
  140.0690   77.9880  220.0970 C   0  0  0  0  0  0  0  0  0  0  0  0
  140.8200   78.5830  221.2370 C   0  0  0  0  0  0  0  0  0  0  0  0
  141.4810   79.7860  221.1620 C   0  0  0  0  0  0  0  0  0  0  0  0
  142.1740   80.3100  222.2500 C   0  0  0  0  0  0  0  0  0  0  0  0
  142.1980   79.5970  223.4460 C   0  0  0  0  0  0  0  0  0  0  0  0
  141.5410   78.3890  223.5420 C   0  0  0  0  0  0  0  0  0  0  0  0
  140.8660   77.9040  222.4380 C   0  0  0  0  0  0  0  0  0  0  0  0
  140.1620   76.5980  222.5580 C   0  0  0  0  0  0  0  0  0  0  0  0
  140.0680   73.7590  222.4200 N   0  0  0  0  0  0  0  0  0  0  0  0
  140.1710   72.4210  222.4520 C   0  0  0  0  0  0  0  0  0  0  0  0
  139.7320   71.6620  223.5700 N   0  0  0  0  0  0  0  0  0  0  0  0
  138.5680   70.8030  223.4740 C   0  0  0  0  0  0  0  0  0  0  0  0
  139.0440   69.3840  223.7430 C   0  0  0  0  0  0  0  0  0  0  0  0
  139.6060   69.3890  225.1230 C   0  0  0  0  0  0  0  0  0  0  0  0
  139.4710   68.2700  225.9210 C   0  0  0  0  0  0  0  0  0  0  0  0
  139.9850   68.2530  227.2050 C   0  0  0  0  0  0  0  0  0  0  0  0
  140.6450   69.3800  227.6920 C   0  0  0  0  0  0  0  0  0  0  0  0
  140.7910   70.5080  226.9070 C   0  0  0  0  0  0  0  0  0  0  0  0
  140.2650   70.4900  225.6300 C   0  0  0  0  0  0  0  0  0  0  0  0
  140.4530   71.7420  224.8240 C   0  0  0  0  0  0  0  0  0  0  0  0
  140.7100   71.8060  221.3850 N   0  0  0  0  0  0  0  0  0  0  0  0
  143.9270   71.1920  219.8680 C   0  0  0  0  0  0  0  0  0  0  0  0
  145.3470   71.7100  219.7380 C   0  0  0  0  0  0  0  0  0  0  0  0
  147.1837   74.0198  221.1424 H   0  0  0  0  0  0  0  0  0  0  0  0
  147.3834   73.1049  219.6096 H   0  0  0  0  0  0  0  0  0  0  0  0
  146.5192   74.6797  219.6096 H   0  0  0  0  0  0  0  0  0  0  0  0
  145.3977   72.8790  221.5272 H   0  0  0  0  0  0  0  0  0  0  0  0
  144.4947   74.9064  220.0237 H   0  0  0  0  0  0  0  0  0  0  0  0
  143.4814   73.6915  220.9453 H   0  0  0  0  0  0  0  0  0  0  0  0
  144.1693   73.6112  217.9983 H   0  0  0  0  0  0  0  0  0  0  0  0
  142.5735   74.0329  218.7574 H   0  0  0  0  0  0  0  0  0  0  0  0
  143.2942   71.6453  217.8371 H   0  0  0  0  0  0  0  0  0  0  0  0
  141.0950   71.1220  218.6420 H   0  0  0  0  0  0  0  0  0  0  0  0
  141.5355   76.4837  219.6911 H   0  0  0  0  0  0  0  0  0  0  0  0
  139.8212   76.0183  219.3257 H   0  0  0  0  0  0  0  0  0  0  0  0
  140.3255   78.5041  219.1600 H   0  0  0  0  0  0  0  0  0  0  0  0
  138.9823   78.0851  220.2374 H   0  0  0  0  0  0  0  0  0  0  0  0
  141.4619   80.3495  220.2175 H   0  0  0  0  0  0  0  0  0  0  0  0
  142.6958   81.2747  222.1660 H   0  0  0  0  0  0  0  0  0  0  0  0
  142.7414   79.9979  224.3143 H   0  0  0  0  0  0  0  0  0  0  0  0
  141.5538   77.8197  224.4831 H   0  0  0  0  0  0  0  0  0  0  0  0
  140.5736   76.0220  223.3999 H   0  0  0  0  0  0  0  0  0  0  0  0
  139.0880   76.7445  222.7451 H   0  0  0  0  0  0  0  0  0  0  0  0
  137.8170   71.0983  224.2215 H   0  0  0  0  0  0  0  0  0  0  0  0
  138.1017   70.8807  222.4808 H   0  0  0  0  0  0  0  0  0  0  0  0
  138.2013   68.6801  223.6769 H   0  0  0  0  0  0  0  0  0  0  0  0
  139.7955   69.0665  223.0051 H   0  0  0  0  0  0  0  0  0  0  0  0
  138.9494   67.3833  225.5316 H   0  0  0  0  0  0  0  0  0  0  0  0
  139.8740   67.3587  227.8358 H   0  0  0  0  0  0  0  0  0  0  0  0
  141.0544   69.3715  228.7129 H   0  0  0  0  0  0  0  0  0  0  0  0
  141.3129   71.3976  227.2895 H   0  0  0  0  0  0  0  0  0  0  0  0
  140.0791   72.6011  225.4004 H   0  0  0  0  0  0  0  0  0  0  0  0
  141.5245   71.8627  224.6065 H   0  0  0  0  0  0  0  0  0  0  0  0
  143.8870   70.1188  219.6301 H   0  0  0  0  0  0  0  0  0  0  0  0
  143.5441   71.3101  220.8924 H   0  0  0  0  0  0  0  0  0  0  0  0
  145.6068   71.8313  218.6760 H   0  0  0  0  0  0  0  0  0  0  0  0
  146.0600   71.0029  220.1871 H   0  0  0  0  0  0  0  0  0  0  0  0
  1  2  1  0
  2  3  1  0
  3  4  1  0
  4  5  1  0
  5  6  1  0
  6  7  1  0
  7  8  2  0
  8  9  1  0
  9 10  1  0
 10 11  1  0
 11 12  1  0
 12 13  1  0
 13 14  2  0
 14 15  1  0
 15 16  2  0
 16 17  1  0
 17 18  2  0
 18 19  1  0
  9 20  2  0
 20 21  1  0
 21 22  1  0
 22 23  1  0
 23 24  1  0
 24 25  1  0
 25 26  2  0
 26 27  1  0
 27 28  2  0
 28 29  1  0
 29 30  2  0
 30 31  1  0
 21 32  2  0
  5 33  1  0
 33 34  1  0
 34  2  1  0
 32  7  1  0
 19 10  1  0
 31 22  1  0
 18 13  1  0
 30 25  1  0
  1 35  1  0
  1 36  1  0
  1 37  1  0
  2 38  1  1
  3 39  1  0
  3 40  1  0
  4 41  1  0
  4 42  1  0
  5 43  1  6
  6 44  1  0
 11 45  1  0
 11 46  1  0
 12 47  1  0
 12 48  1  0
 14 49  1  0
 15 50  1  0
 16 51  1  0
 17 52  1  0
 19 53  1  0
 19 54  1  0
 23 55  1  0
 23 56  1  0
 24 57  1  0
 24 58  1  0
 26 59  1  0
 27 60  1  0
 28 61  1  0
 29 62  1  0
 31 63  1  0
 31 64  1  0
 33 65  1  0
 33 66  1  0
 34 67  1  0
 34 68  1  0
M  END
>  <smiles>  (19) 
C[C@H]1CC[C@H](Nc2nc(N3CCc4ccccc4C3)nc(N3CCc4ccccc4C3)n2)CC1

>  <score_type>  (19) 
oracle

>  <origin>  (19) 
autodockgpu

>  <m_score__min__energy>  (19) 
-10.98

>  <m_primary>  (19) 
energy

>  <rmsd>  (19) 
4.721889556586478

>  <m_score__min__rmsd>  (19) 
4.721889556586478

>  <meeko>  (19) 
{"free_energy": -10.02, "intermolecular_energy": -11.21, "internal_energy": -1.32, "cluster_size": 20, "cluster_id": 2, "rank_in_cluster": 4}

>  <energy>  (19) 
-10.83

>  <cluster_rmsd>  (19) 
0.24

>  <cluster>  (19) 
1

$$$$

     RDKit          3D

 68 73  0  0  0  0  0  0  0  0999 V2000
  134.1300   75.2610  226.0330 C   0  0  0  0  0  0  0  0  0  0  0  0
  135.1090   75.3120  224.8880 C   0  0  1  0  0  0  0  0  0  0  0  0
  135.2940   74.0090  224.1820 C   0  0  0  0  0  0  0  0  0  0  0  0
  134.6190   73.9420  222.8290 C   0  0  0  0  0  0  0  0  0  0  0  0
  135.0720   75.0380  221.9140 C   0  0  2  0  0  0  0  0  0  0  0  0
  136.0670   74.6120  220.9560 N   0  0  0  0  0  0  0  0  0  0  0  0
  137.4170   74.4060  221.4050 C   0  0  0  0  0  0  0  0  0  0  0  0
  137.7950   73.2530  221.9470 N   0  0  0  0  0  0  0  0  0  0  0  0
  139.0490   73.0660  222.3620 C   0  0  0  0  0  0  0  0  0  0  0  0
  139.4480   71.8170  222.9460 N   0  0  0  0  0  0  0  0  0  0  0  0
  138.5530   70.6990  222.7730 C   0  0  0  0  0  0  0  0  0  0  0  0
  139.2040   69.3930  223.1760 C   0  0  0  0  0  0  0  0  0  0  0  0
  139.7750   69.6170  224.5330 C   0  0  0  0  0  0  0  0  0  0  0  0
  139.6120   68.7360  225.5760 C   0  0  0  0  0  0  0  0  0  0  0  0
  140.1600   68.9800  226.8320 C   0  0  0  0  0  0  0  0  0  0  0  0
  140.8920   70.1470  227.0380 C   0  0  0  0  0  0  0  0  0  0  0  0
  141.0670   71.0420  226.0040 C   0  0  0  0  0  0  0  0  0  0  0  0
  140.5060   70.7620  224.7730 C   0  0  0  0  0  0  0  0  0  0  0  0
  140.7040   71.7390  223.6680 C   0  0  0  0  0  0  0  0  0  0  0  0
  139.9620   74.0710  222.2320 N   0  0  0  0  0  0  0  0  0  0  0  0
  139.6040   75.2440  221.6870 C   0  0  0  0  0  0  0  0  0  0  0  0
  140.5280   76.3130  221.5360 N   0  0  0  0  0  0  0  0  0  0  0  0
  140.9560   76.7460  220.2200 C   0  0  0  0  0  0  0  0  0  0  0  0
  140.5200   78.1950  220.0690 C   0  0  0  0  0  0  0  0  0  0  0  0
  141.2180   78.9530  221.1460 C   0  0  0  0  0  0  0  0  0  0  0  0
  141.6270   80.2510  220.9140 C   0  0  0  0  0  0  0  0  0  0  0  0
  142.2760   80.9720  221.8990 C   0  0  0  0  0  0  0  0  0  0  0  0
  142.5160   80.3780  223.1360 C   0  0  0  0  0  0  0  0  0  0  0  0
  142.1130   79.0800  223.3870 C   0  0  0  0  0  0  0  0  0  0  0  0
  141.4680   78.3880  222.3800 C   0  0  0  0  0  0  0  0  0  0  0  0
  141.0520   76.9840  222.7080 C   0  0  0  0  0  0  0  0  0  0  0  0
  138.3300   75.3880  221.2830 N   0  0  0  0  0  0  0  0  0  0  0  0
  135.6660   76.2100  222.6870 C   0  0  0  0  0  0  0  0  0  0  0  0
  134.7700   76.4000  223.8980 C   0  0  0  0  0  0  0  0  0  0  0  0
  134.6786   75.2896  226.9860 H   0  0  0  0  0  0  0  0  0  0  0  0
  133.4518   76.1250  225.9743 H   0  0  0  0  0  0  0  0  0  0  0  0
  133.5452   74.3312  225.9743 H   0  0  0  0  0  0  0  0  0  0  0  0
  136.0726   75.5503  225.3619 H   0  0  0  0  0  0  0  0  0  0  0  0
  134.8801   73.2104  224.8152 H   0  0  0  0  0  0  0  0  0  0  0  0
  136.3735   73.8924  224.0058 H   0  0  0  0  0  0  0  0  0  0  0  0
  133.5315   74.0266  222.9714 H   0  0  0  0  0  0  0  0  0  0  0  0
  134.8893   72.9821  222.3647 H   0  0  0  0  0  0  0  0  0  0  0  0
  134.1600   75.3409  221.3788 H   0  0  0  0  0  0  0  0  0  0  0  0
  135.8460   74.4450  219.9440 H   0  0  0  0  0  0  0  0  0  0  0  0
  137.6593   70.8584  223.3942 H   0  0  0  0  0  0  0  0  0  0  0  0
  138.2864   70.6349  221.7077 H   0  0  0  0  0  0  0  0  0  0  0  0
  138.4562   68.5868  223.2049 H   0  0  0  0  0  0  0  0  0  0  0  0
  139.9813   69.0932  222.4577 H   0  0  0  0  0  0  0  0  0  0  0  0
  139.0336   67.8146  225.4136 H   0  0  0  0  0  0  0  0  0  0  0  0
  140.0168   68.2604  227.6515 H   0  0  0  0  0  0  0  0  0  0  0  0
  141.3303   70.3545  228.0253 H   0  0  0  0  0  0  0  0  0  0  0  0
  141.6448   71.9654  226.1569 H   0  0  0  0  0  0  0  0  0  0  0  0
  140.9670   72.7254  224.0776 H   0  0  0  0  0  0  0  0  0  0  0  0
  141.5216   71.4225  223.0037 H   0  0  0  0  0  0  0  0  0  0  0  0
  142.0499   76.6690  220.1335 H   0  0  0  0  0  0  0  0  0  0  0  0
  140.5118   76.1170  219.4345 H   0  0  0  0  0  0  0  0  0  0  0  0
  140.8119   78.5802  219.0808 H   0  0  0  0  0  0  0  0  0  0  0  0
  139.4277   78.2958  220.1509 H   0  0  0  0  0  0  0  0  0  0  0  0
  141.4346   80.7161  219.9359 H   0  0  0  0  0  0  0  0  0  0  0  0
  142.6000   82.0056  221.7076 H   0  0  0  0  0  0  0  0  0  0  0  0
  143.0322   80.9486  223.9221 H   0  0  0  0  0  0  0  0  0  0  0  0
  142.3010   78.6099  224.3635 H   0  0  0  0  0  0  0  0  0  0  0  0
  141.9244   76.4278  223.0815 H   0  0  0  0  0  0  0  0  0  0  0  0
  140.2633   77.0210  223.4739 H   0  0  0  0  0  0  0  0  0  0  0  0
  135.6683   77.1176  222.0655 H   0  0  0  0  0  0  0  0  0  0  0  0
  136.7085   76.0165  222.9797 H   0  0  0  0  0  0  0  0  0  0  0  0
  133.7141   76.3211  223.6001 H   0  0  0  0  0  0  0  0  0  0  0  0
  134.9272   77.3930  224.3445 H   0  0  0  0  0  0  0  0  0  0  0  0
  1  2  1  0
  2  3  1  0
  3  4  1  0
  4  5  1  0
  5  6  1  0
  6  7  1  0
  7  8  2  0
  8  9  1  0
  9 10  1  0
 10 11  1  0
 11 12  1  0
 12 13  1  0
 13 14  2  0
 14 15  1  0
 15 16  2  0
 16 17  1  0
 17 18  2  0
 18 19  1  0
  9 20  2  0
 20 21  1  0
 21 22  1  0
 22 23  1  0
 23 24  1  0
 24 25  1  0
 25 26  2  0
 26 27  1  0
 27 28  2  0
 28 29  1  0
 29 30  2  0
 30 31  1  0
 21 32  2  0
  5 33  1  0
 33 34  1  0
 34  2  1  0
 32  7  1  0
 19 10  1  0
 31 22  1  0
 18 13  1  0
 30 25  1  0
  1 35  1  0
  1 36  1  0
  1 37  1  0
  2 38  1  1
  3 39  1  0
  3 40  1  0
  4 41  1  0
  4 42  1  0
  5 43  1  6
  6 44  1  0
 11 45  1  0
 11 46  1  0
 12 47  1  0
 12 48  1  0
 14 49  1  0
 15 50  1  0
 16 51  1  0
 17 52  1  0
 19 53  1  0
 19 54  1  0
 23 55  1  0
 23 56  1  0
 24 57  1  0
 24 58  1  0
 26 59  1  0
 27 60  1  0
 28 61  1  0
 29 62  1  0
 31 63  1  0
 31 64  1  0
 33 65  1  0
 33 66  1  0
 34 67  1  0
 34 68  1  0
M  END
>  <smiles>  (20) 
C[C@H]1CC[C@H](Nc2nc(N3CCc4ccccc4C3)nc(N3CCc4ccccc4C3)n2)CC1

>  <score_type>  (20) 
oracle

>  <origin>  (20) 
autodockgpu

>  <m_score__min__energy>  (20) 
-10.98

>  <m_primary>  (20) 
energy

>  <rmsd>  (20) 
10.349930551994879

>  <m_score__min__rmsd>  (20) 
10.349930551994879

>  <meeko>  (20) 
{"free_energy": -9.15, "intermolecular_energy": -10.34, "internal_energy": -1.4, "cluster_size": 5, "cluster_id": 3, "rank_in_cluster": 4}

>  <energy>  (20) 
-10.67

>  <cluster_rmsd>  (20) 
0.44

>  <cluster>  (20) 
1

$$$$

     RDKit          3D

 68 73  0  0  0  0  0  0  0  0999 V2000
  146.7020   73.7570  220.1850 C   0  0  0  0  0  0  0  0  0  0  0  0
  145.4240   73.0030  220.4580 C   0  0  1  0  0  0  0  0  0  0  0  0
  144.1820   73.7930  220.2090 C   0  0  0  0  0  0  0  0  0  0  0  0
  143.4480   73.4040  218.9430 C   0  0  0  0  0  0  0  0  0  0  0  0
  143.0910   71.9500  218.9200 C   0  0  2  0  0  0  0  0  0  0  0  0
  141.7150   71.6910  219.2800 N   0  0  0  0  0  0  0  0  0  0  0  0
  141.1420   72.4090  220.3860 C   0  0  0  0  0  0  0  0  0  0  0  0
  141.0240   73.7320  220.3620 N   0  0  0  0  0  0  0  0  0  0  0  0
  140.4920   74.3950  221.3910 C   0  0  0  0  0  0  0  0  0  0  0  0
  140.3690   75.8240  221.3560 N   0  0  0  0  0  0  0  0  0  0  0  0
  140.4810   76.4590  220.0650 C   0  0  0  0  0  0  0  0  0  0  0  0
  140.0540   77.9110  220.1160 C   0  0  0  0  0  0  0  0  0  0  0  0
  140.7990   78.5200  221.2520 C   0  0  0  0  0  0  0  0  0  0  0  0
  141.4560   79.7250  221.1650 C   0  0  0  0  0  0  0  0  0  0  0  0
  142.1430   80.2640  222.2490 C   0  0  0  0  0  0  0  0  0  0  0  0
  142.1660   79.5640  223.4530 C   0  0  0  0  0  0  0  0  0  0  0  0
  141.5130   78.3550  223.5610 C   0  0  0  0  0  0  0  0  0  0  0  0
  140.8430   77.8550  222.4600 C   0  0  0  0  0  0  0  0  0  0  0  0
  140.1430   76.5490  222.5920 C   0  0  0  0  0  0  0  0  0  0  0  0
  140.0610   73.7080  222.4880 N   0  0  0  0  0  0  0  0  0  0  0  0
  140.1690   72.3710  222.5350 C   0  0  0  0  0  0  0  0  0  0  0  0
  139.7310   71.6230  223.6610 N   0  0  0  0  0  0  0  0  0  0  0  0
  138.5110   70.8420  223.6060 C   0  0  0  0  0  0  0  0  0  0  0  0
  138.9060   69.3910  223.8340 C   0  0  0  0  0  0  0  0  0  0  0  0
  139.5270   69.3370  225.1870 C   0  0  0  0  0  0  0  0  0  0  0  0
  139.3550   68.2170  225.9750 C   0  0  0  0  0  0  0  0  0  0  0  0
  139.9220   68.1460  227.2340 C   0  0  0  0  0  0  0  0  0  0  0  0
  140.6750   69.2190  227.7060 C   0  0  0  0  0  0  0  0  0  0  0  0
  140.8590   70.3490  226.9310 C   0  0  0  0  0  0  0  0  0  0  0  0
  140.2770   70.3860  225.6790 C   0  0  0  0  0  0  0  0  0  0  0  0
  140.5100   71.6360  224.8820 C   0  0  0  0  0  0  0  0  0  0  0  0
  140.7110   71.7460  221.4760 N   0  0  0  0  0  0  0  0  0  0  0  0
  143.9640   71.1370  219.8680 C   0  0  0  0  0  0  0  0  0  0  0  0
  145.3680   71.6920  219.7110 C   0  0  0  0  0  0  0  0  0  0  0  0
  147.1742   74.0356  221.1386 H   0  0  0  0  0  0  0  0  0  0  0  0
  147.3882   73.1190  219.6087 H   0  0  0  0  0  0  0  0  0  0  0  0
  146.4754   74.6661  219.6087 H   0  0  0  0  0  0  0  0  0  0  0  0
  145.4522   72.7970  221.5382 H   0  0  0  0  0  0  0  0  0  0  0  0
  144.4567   74.8557  220.1369 H   0  0  0  0  0  0  0  0  0  0  0  0
  143.5007   73.5875  221.0478 H   0  0  0  0  0  0  0  0  0  0  0  0
  144.0915   73.6244  218.0785 H   0  0  0  0  0  0  0  0  0  0  0  0
  142.5129   73.9819  218.9038 H   0  0  0  0  0  0  0  0  0  0  0  0
  143.2564   71.6457  217.8759 H   0  0  0  0  0  0  0  0  0  0  0  0
  141.1140   71.0010  218.7670 H   0  0  0  0  0  0  0  0  0  0  0  0
  141.5280   76.4068  219.7317 H   0  0  0  0  0  0  0  0  0  0  0  0
  139.8175   75.9309  219.3644 H   0  0  0  0  0  0  0  0  0  0  0  0
  140.3118   78.4182  219.1746 H   0  0  0  0  0  0  0  0  0  0  0  0
  138.9665   78.0059  220.2513 H   0  0  0  0  0  0  0  0  0  0  0  0
  141.4381   80.2773  220.2139 H   0  0  0  0  0  0  0  0  0  0  0  0
  142.6609   81.2300  222.1560 H   0  0  0  0  0  0  0  0  0  0  0  0
  142.7057   79.9764  224.3183 H   0  0  0  0  0  0  0  0  0  0  0  0
  141.5248   77.7966  224.5087 H   0  0  0  0  0  0  0  0  0  0  0  0
  140.5528   75.9842  223.4424 H   0  0  0  0  0  0  0  0  0  0  0  0
  139.0677   76.6946  222.7725 H   0  0  0  0  0  0  0  0  0  0  0  0
  137.8144   71.1724  224.3906 H   0  0  0  0  0  0  0  0  0  0  0  0
  138.0072   70.9656  222.6360 H   0  0  0  0  0  0  0  0  0  0  0  0
  138.0176   68.7435  223.7961 H   0  0  0  0  0  0  0  0  0  0  0  0
  139.6025   69.0386  223.0589 H   0  0  0  0  0  0  0  0  0  0  0  0
  138.7606   67.3720  225.5974 H   0  0  0  0  0  0  0  0  0  0  0  0
  139.7799   67.2507  227.8572 H   0  0  0  0  0  0  0  0  0  0  0  0
  141.1284   69.1665  228.7068 H   0  0  0  0  0  0  0  0  0  0  0  0
  141.4536   71.1968  227.3020 H   0  0  0  0  0  0  0  0  0  0  0  0
  140.2184   72.5079  225.4860 H   0  0  0  0  0  0  0  0  0  0  0  0
  141.5764   71.6909  224.6180 H   0  0  0  0  0  0  0  0  0  0  0  0
  143.9396   70.0720  219.5936 H   0  0  0  0  0  0  0  0  0  0  0  0
  143.6122   71.2105  220.9076 H   0  0  0  0  0  0  0  0  0  0  0  0
  145.5899   71.8567  218.6463 H   0  0  0  0  0  0  0  0  0  0  0  0
  146.1106   70.9861  220.1112 H   0  0  0  0  0  0  0  0  0  0  0  0
  1  2  1  0
  2  3  1  0
  3  4  1  0
  4  5  1  0
  5  6  1  0
  6  7  1  0
  7  8  2  0
  8  9  1  0
  9 10  1  0
 10 11  1  0
 11 12  1  0
 12 13  1  0
 13 14  2  0
 14 15  1  0
 15 16  2  0
 16 17  1  0
 17 18  2  0
 18 19  1  0
  9 20  2  0
 20 21  1  0
 21 22  1  0
 22 23  1  0
 23 24  1  0
 24 25  1  0
 25 26  2  0
 26 27  1  0
 27 28  2  0
 28 29  1  0
 29 30  2  0
 30 31  1  0
 21 32  2  0
  5 33  1  0
 33 34  1  0
 34  2  1  0
 32  7  1  0
 19 10  1  0
 31 22  1  0
 18 13  1  0
 30 25  1  0
  1 35  1  0
  1 36  1  0
  1 37  1  0
  2 38  1  1
  3 39  1  0
  3 40  1  0
  4 41  1  0
  4 42  1  0
  5 43  1  6
  6 44  1  0
 11 45  1  0
 11 46  1  0
 12 47  1  0
 12 48  1  0
 14 49  1  0
 15 50  1  0
 16 51  1  0
 17 52  1  0
 19 53  1  0
 19 54  1  0
 23 55  1  0
 23 56  1  0
 24 57  1  0
 24 58  1  0
 26 59  1  0
 27 60  1  0
 28 61  1  0
 29 62  1  0
 31 63  1  0
 31 64  1  0
 33 65  1  0
 33 66  1  0
 34 67  1  0
 34 68  1  0
M  END
>  <smiles>  (21) 
C[C@H]1CC[C@H](Nc2nc(N3CCc4ccccc4C3)nc(N3CCc4ccccc4C3)n2)CC1

>  <score_type>  (21) 
oracle

>  <origin>  (21) 
autodockgpu

>  <m_score__min__energy>  (21) 
-10.98

>  <m_primary>  (21) 
energy

>  <rmsd>  (21) 
4.712383739683392

>  <m_score__min__rmsd>  (21) 
4.712383739683392

>  <meeko>  (21) 
{"free_energy": -10.05, "intermolecular_energy": -11.25, "internal_energy": -1.28, "cluster_size": 20, "cluster_id": 2, "rank_in_cluster": 3}

>  <energy>  (21) 
-10.58

>  <cluster_rmsd>  (21) 
0.42

>  <cluster>  (21) 
1

$$$$

     RDKit          3D

 68 73  0  0  0  0  0  0  0  0999 V2000
  140.7000   68.7570  227.6280 C   0  0  0  0  0  0  0  0  0  0  0  0
  139.8890   69.6820  226.7560 C   0  0  1  0  0  0  0  0  0  0  0  0
  140.5810   70.9570  226.4040 C   0  0  0  0  0  0  0  0  0  0  0  0
  141.0850   71.0110  224.9780 C   0  0  0  0  0  0  0  0  0  0  0  0
  139.9910   70.7820  223.9810 C   0  0  2  0  0  0  0  0  0  0  0  0
  139.4880   72.0020  223.3900 N   0  0  0  0  0  0  0  0  0  0  0  0
  140.3120   72.7020  222.4410 C   0  0  0  0  0  0  0  0  0  0  0  0
  140.2690   74.0250  222.3350 N   0  0  0  0  0  0  0  0  0  0  0  0
  141.0350   74.6700  221.4540 C   0  0  0  0  0  0  0  0  0  0  0  0
  140.9810   76.1000  221.3460 N   0  0  0  0  0  0  0  0  0  0  0  0
  141.5640   76.6890  220.1660 C   0  0  0  0  0  0  0  0  0  0  0  0
  141.1990   78.1520  220.0300 C   0  0  0  0  0  0  0  0  0  0  0  0
  141.5150   78.7800  221.3430 C   0  0  0  0  0  0  0  0  0  0  0  0
  142.2020   79.9640  221.4680 C   0  0  0  0  0  0  0  0  0  0  0  0
  142.4800   80.5210  222.7140 C   0  0  0  0  0  0  0  0  0  0  0  0
  142.0510   79.8610  223.8630 C   0  0  0  0  0  0  0  0  0  0  0  0
  141.3600   78.6720  223.7580 C   0  0  0  0  0  0  0  0  0  0  0  0
  141.1050   78.1540  222.5030 C   0  0  0  0  0  0  0  0  0  0  0  0
  140.3590   76.8700  222.4070 C   0  0  0  0  0  0  0  0  0  0  0  0
  141.8770   73.9640  220.6460 N   0  0  0  0  0  0  0  0  0  0  0  0
  141.9390   72.6270  220.7350 C   0  0  0  0  0  0  0  0  0  0  0  0
  142.8040   71.8600  219.9090 N   0  0  0  0  0  0  0  0  0  0  0  0
  143.8190   72.5020  219.0960 C   0  0  0  0  0  0  0  0  0  0  0  0
  145.1640   71.9780  219.5760 C   0  0  0  0  0  0  0  0  0  0  0  0
  145.1390   70.5050  219.3550 C   0  0  0  0  0  0  0  0  0  0  0  0
  146.3000   69.8470  219.0030 C   0  0  0  0  0  0  0  0  0  0  0  0
  146.3000   68.4800  218.7930 C   0  0  0  0  0  0  0  0  0  0  0  0
  145.1130   67.7660  218.9400 C   0  0  0  0  0  0  0  0  0  0  0  0
  143.9410   68.4080  219.2930 C   0  0  0  0  0  0  0  0  0  0  0  0
  143.9770   69.7740  219.4940 C   0  0  0  0  0  0  0  0  0  0  0  0
  142.6770   70.4170  219.8760 C   0  0  0  0  0  0  0  0  0  0  0  0
  141.1490   72.0190  221.6370 N   0  0  0  0  0  0  0  0  0  0  0  0
  138.8010   70.0600  224.6020 C   0  0  0  0  0  0  0  0  0  0  0  0
  139.3940   68.9940  225.5060 C   0  0  0  0  0  0  0  0  0  0  0  0
  140.5018   68.9830  228.6861 H   0  0  0  0  0  0  0  0  0  0  0  0
  140.4196   67.7145  227.4170 H   0  0  0  0  0  0  0  0  0  0  0  0
  141.7702   68.8987  227.4170 H   0  0  0  0  0  0  0  0  0  0  0  0
  139.0249   69.9576  227.3784 H   0  0  0  0  0  0  0  0  0  0  0  0
  141.4402   71.0820  227.0794 H   0  0  0  0  0  0  0  0  0  0  0  0
  139.8383   71.7616  226.5095 H   0  0  0  0  0  0  0  0  0  0  0  0
  141.8536   70.2355  224.8446 H   0  0  0  0  0  0  0  0  0  0  0  0
  141.4954   72.0165  224.8033 H   0  0  0  0  0  0  0  0  0  0  0  0
  140.4597   70.1665  223.1990 H   0  0  0  0  0  0  0  0  0  0  0  0
  138.5460   72.3990  223.6240 H   0  0  0  0  0  0  0  0  0  0  0  0
  142.6586   76.5991  220.2266 H   0  0  0  0  0  0  0  0  0  0  0  0
  141.1720   76.1553  219.2876 H   0  0  0  0  0  0  0  0  0  0  0  0
  141.7913   78.6205  219.2302 H   0  0  0  0  0  0  0  0  0  0  0  0
  140.1381   78.2790  219.7686 H   0  0  0  0  0  0  0  0  0  0  0  0
  142.5410   80.4851  220.5605 H   0  0  0  0  0  0  0  0  0  0  0  0
  143.0312   81.4699  222.7896 H   0  0  0  0  0  0  0  0  0  0  0  0
  142.2633   80.2880  224.8542 H   0  0  0  0  0  0  0  0  0  0  0  0
  141.0171   78.1441  224.6601 H   0  0  0  0  0  0  0  0  0  0  0  0
  140.4233   76.3230  223.3592 H   0  0  0  0  0  0  0  0  0  0  0  0
  139.2948   77.0478  222.1928 H   0  0  0  0  0  0  0  0  0  0  0  0
  143.6707   72.2491  218.0358 H   0  0  0  0  0  0  0  0  0  0  0  0
  143.7657   73.5966  219.1904 H   0  0  0  0  0  0  0  0  0  0  0  0
  145.9801   72.4365  218.9983 H   0  0  0  0  0  0  0  0  0  0  0  0
  145.3343   72.2216  220.6351 H   0  0  0  0  0  0  0  0  0  0  0  0
  147.2347   70.4155  218.8883 H   0  0  0  0  0  0  0  0  0  0  0  0
  147.2287   67.9614  218.5125 H   0  0  0  0  0  0  0  0  0  0  0  0
  145.1084   66.6787  218.7732 H   0  0  0  0  0  0  0  0  0  0  0  0
  143.0032   67.8452  219.4109 H   0  0  0  0  0  0  0  0  0  0  0  0
  141.9081   70.1399  219.1398 H   0  0  0  0  0  0  0  0  0  0  0  0
  142.3927   70.0662  220.8790 H   0  0  0  0  0  0  0  0  0  0  0  0
  138.1815   69.5980  223.8192 H   0  0  0  0  0  0  0  0  0  0  0  0
  138.1526   70.7513  225.1603 H   0  0  0  0  0  0  0  0  0  0  0  0
  140.2305   68.4929  224.9969 H   0  0  0  0  0  0  0  0  0  0  0  0
  138.6389   68.2341  225.7555 H   0  0  0  0  0  0  0  0  0  0  0  0
  1  2  1  0
  2  3  1  0
  3  4  1  0
  4  5  1  0
  5  6  1  0
  6  7  1  0
  7  8  2  0
  8  9  1  0
  9 10  1  0
 10 11  1  0
 11 12  1  0
 12 13  1  0
 13 14  2  0
 14 15  1  0
 15 16  2  0
 16 17  1  0
 17 18  2  0
 18 19  1  0
  9 20  2  0
 20 21  1  0
 21 22  1  0
 22 23  1  0
 23 24  1  0
 24 25  1  0
 25 26  2  0
 26 27  1  0
 27 28  2  0
 28 29  1  0
 29 30  2  0
 30 31  1  0
 21 32  2  0
  5 33  1  0
 33 34  1  0
 34  2  1  0
 32  7  1  0
 19 10  1  0
 31 22  1  0
 18 13  1  0
 30 25  1  0
  1 35  1  0
  1 36  1  0
  1 37  1  0
  2 38  1  1
  3 39  1  0
  3 40  1  0
  4 41  1  0
  4 42  1  0
  5 43  1  6
  6 44  1  0
 11 45  1  0
 11 46  1  0
 12 47  1  0
 12 48  1  0
 14 49  1  0
 15 50  1  0
 16 51  1  0
 17 52  1  0
 19 53  1  0
 19 54  1  0
 23 55  1  0
 23 56  1  0
 24 57  1  0
 24 58  1  0
 26 59  1  0
 27 60  1  0
 28 61  1  0
 29 62  1  0
 31 63  1  0
 31 64  1  0
 33 65  1  0
 33 66  1  0
 34 67  1  0
 34 68  1  0
M  END
>  <smiles>  (22) 
C[C@H]1CC[C@H](Nc2nc(N3CCc4ccccc4C3)nc(N3CCc4ccccc4C3)n2)CC1

>  <score_type>  (22) 
oracle

>  <origin>  (22) 
autodockgpu

>  <m_score__min__energy>  (22) 
-10.98

>  <m_primary>  (22) 
energy

>  <rmsd>  (22) 
4.920596680170996

>  <m_score__min__rmsd>  (22) 
4.920596680170996

>  <meeko>  (22) 
{"free_energy": -10.93, "intermolecular_energy": -12.12, "internal_energy": -1.04, "cluster_size": 24, "cluster_id": 1, "rank_in_cluster": 14}

>  <energy>  (22) 
-10.57

>  <cluster_rmsd>  (22) 
0.44

>  <cluster>  (22) 
1

$$$$

     RDKit          3D

 68 73  0  0  0  0  0  0  0  0999 V2000
  140.7020   68.9240  227.7450 C   0  0  0  0  0  0  0  0  0  0  0  0
  139.8810   69.7820  226.8160 C   0  0  1  0  0  0  0  0  0  0  0  0
  140.5260   71.0770  226.4480 C   0  0  0  0  0  0  0  0  0  0  0  0
  141.0780   71.1110  225.0390 C   0  0  0  0  0  0  0  0  0  0  0  0
  140.0320   70.8010  224.0130 C   0  0  2  0  0  0  0  0  0  0  0  0
  139.4950   71.9770  223.3660 N   0  0  0  0  0  0  0  0  0  0  0  0
  140.3180   72.6830  222.4210 C   0  0  0  0  0  0  0  0  0  0  0  0
  140.2710   74.0070  222.3210 N   0  0  0  0  0  0  0  0  0  0  0  0
  141.0360   74.6580  221.4430 C   0  0  0  0  0  0  0  0  0  0  0  0
  140.9790   76.0890  221.3420 N   0  0  0  0  0  0  0  0  0  0  0  0
  141.5570   76.6840  220.1620 C   0  0  0  0  0  0  0  0  0  0  0  0
  141.1870   78.1470  220.0340 C   0  0  0  0  0  0  0  0  0  0  0  0
  141.5060   78.7700  221.3490 C   0  0  0  0  0  0  0  0  0  0  0  0
  142.1900   79.9550  221.4770 C   0  0  0  0  0  0  0  0  0  0  0  0
  142.4720   80.5070  222.7230 C   0  0  0  0  0  0  0  0  0  0  0  0
  142.0480   79.8410  223.8710 C   0  0  0  0  0  0  0  0  0  0  0  0
  141.3600   78.6520  223.7630 C   0  0  0  0  0  0  0  0  0  0  0  0
  141.1020   78.1380  222.5070 C   0  0  0  0  0  0  0  0  0  0  0  0
  140.3580   76.8530  222.4080 C   0  0  0  0  0  0  0  0  0  0  0  0
  141.8810   73.9590  220.6330 N   0  0  0  0  0  0  0  0  0  0  0  0
  141.9470   72.6210  220.7160 C   0  0  0  0  0  0  0  0  0  0  0  0
  142.8150   71.8600  219.8880 N   0  0  0  0  0  0  0  0  0  0  0  0
  143.8570   72.5040  219.1120 C   0  0  0  0  0  0  0  0  0  0  0  0
  145.1830   71.9440  219.6050 C   0  0  0  0  0  0  0  0  0  0  0  0
  145.1360   70.4780  219.3450 C   0  0  0  0  0  0  0  0  0  0  0  0
  146.2930   69.8080  218.9980 C   0  0  0  0  0  0  0  0  0  0  0  0
  146.2730   68.4470  218.7530 C   0  0  0  0  0  0  0  0  0  0  0  0
  145.0700   67.7510  218.8580 C   0  0  0  0  0  0  0  0  0  0  0  0
  143.9030   68.4050  219.2040 C   0  0  0  0  0  0  0  0  0  0  0  0
  143.9590   69.7640  219.4420 C   0  0  0  0  0  0  0  0  0  0  0  0
  142.6630   70.4210  219.8140 C   0  0  0  0  0  0  0  0  0  0  0  0
  141.1580   72.0070  221.6150 N   0  0  0  0  0  0  0  0  0  0  0  0
  138.8550   70.0430  224.6160 C   0  0  0  0  0  0  0  0  0  0  0  0
  139.4630   69.0340  225.5730 C   0  0  0  0  0  0  0  0  0  0  0  0
  140.4599   69.1770  228.7878 H   0  0  0  0  0  0  0  0  0  0  0  0
  140.4736   67.8636  227.5625 H   0  0  0  0  0  0  0  0  0  0  0  0
  141.7715   69.1054  227.5625 H   0  0  0  0  0  0  0  0  0  0  0  0
  138.9827   70.0349  227.3984 H   0  0  0  0  0  0  0  0  0  0  0  0
  141.3537   71.2626  227.1484 H   0  0  0  0  0  0  0  0  0  0  0  0
  139.7442   71.8489  226.5024 H   0  0  0  0  0  0  0  0  0  0  0  0
  141.8854   70.3685  224.9570 H   0  0  0  0  0  0  0  0  0  0  0  0
  141.4483   72.1287  224.8463 H   0  0  0  0  0  0  0  0  0  0  0  0
  140.5562   70.1850  223.2675 H   0  0  0  0  0  0  0  0  0  0  0  0
  138.5290   72.3390  223.5560 H   0  0  0  0  0  0  0  0  0  0  0  0
  142.6521   76.5968  220.2187 H   0  0  0  0  0  0  0  0  0  0  0  0
  141.1644   76.1527  219.2825 H   0  0  0  0  0  0  0  0  0  0  0  0
  141.7750   78.6210  219.2343 H   0  0  0  0  0  0  0  0  0  0  0  0
  140.1248   78.2720  219.7770 H   0  0  0  0  0  0  0  0  0  0  0  0
  142.5235   80.4813  220.5705 H   0  0  0  0  0  0  0  0  0  0  0  0
  143.0222   81.4563  222.8005 H   0  0  0  0  0  0  0  0  0  0  0  0
  142.2624   80.2643  224.8634 H   0  0  0  0  0  0  0  0  0  0  0  0
  141.0211   78.1197  224.6640 H   0  0  0  0  0  0  0  0  0  0  0  0
  140.4260   76.3021  223.3577 H   0  0  0  0  0  0  0  0  0  0  0  0
  139.2928   77.0293  222.1978 H   0  0  0  0  0  0  0  0  0  0  0  0
  143.7257   72.2806  218.0430 H   0  0  0  0  0  0  0  0  0  0  0  0
  143.8208   73.5967  219.2333 H   0  0  0  0  0  0  0  0  0  0  0  0
  146.0186   72.4023  219.0557 H   0  0  0  0  0  0  0  0  0  0  0  0
  145.3365   72.1575  220.6731 H   0  0  0  0  0  0  0  0  0  0  0  0
  147.2395   70.3623  218.9157 H   0  0  0  0  0  0  0  0  0  0  0  0
  147.1978   67.9188  218.4779 H   0  0  0  0  0  0  0  0  0  0  0  0
  145.0494   66.6686  218.6632 H   0  0  0  0  0  0  0  0  0  0  0  0
  142.9531   67.8567  219.2877 H   0  0  0  0  0  0  0  0  0  0  0  0
  141.9050   70.1775  219.0550 H   0  0  0  0  0  0  0  0  0  0  0  0
  142.3514   70.0494  220.8013 H   0  0  0  0  0  0  0  0  0  0  0  0
  138.2855   69.5290  223.8277 H   0  0  0  0  0  0  0  0  0  0  0  0
  138.1565   70.7199  225.1297 H   0  0  0  0  0  0  0  0  0  0  0  0
  140.3391   68.5571  225.1092 H   0  0  0  0  0  0  0  0  0  0  0  0
  138.7349   68.2475  225.8206 H   0  0  0  0  0  0  0  0  0  0  0  0
  1  2  1  0
  2  3  1  0
  3  4  1  0
  4  5  1  0
  5  6  1  0
  6  7  1  0
  7  8  2  0
  8  9  1  0
  9 10  1  0
 10 11  1  0
 11 12  1  0
 12 13  1  0
 13 14  2  0
 14 15  1  0
 15 16  2  0
 16 17  1  0
 17 18  2  0
 18 19  1  0
  9 20  2  0
 20 21  1  0
 21 22  1  0
 22 23  1  0
 23 24  1  0
 24 25  1  0
 25 26  2  0
 26 27  1  0
 27 28  2  0
 28 29  1  0
 29 30  2  0
 30 31  1  0
 21 32  2  0
  5 33  1  0
 33 34  1  0
 34  2  1  0
 32  7  1  0
 19 10  1  0
 31 22  1  0
 18 13  1  0
 30 25  1  0
  1 35  1  0
  1 36  1  0
  1 37  1  0
  2 38  1  1
  3 39  1  0
  3 40  1  0
  4 41  1  0
  4 42  1  0
  5 43  1  6
  6 44  1  0
 11 45  1  0
 11 46  1  0
 12 47  1  0
 12 48  1  0
 14 49  1  0
 15 50  1  0
 16 51  1  0
 17 52  1  0
 19 53  1  0
 19 54  1  0
 23 55  1  0
 23 56  1  0
 24 57  1  0
 24 58  1  0
 26 59  1  0
 27 60  1  0
 28 61  1  0
 29 62  1  0
 31 63  1  0
 31 64  1  0
 33 65  1  0
 33 66  1  0
 34 67  1  0
 34 68  1  0
M  END
>  <smiles>  (23) 
C[C@H]1CC[C@H](Nc2nc(N3CCc4ccccc4C3)nc(N3CCc4ccccc4C3)n2)CC1

>  <score_type>  (23) 
oracle

>  <origin>  (23) 
autodockgpu

>  <m_score__min__energy>  (23) 
-10.98

>  <m_primary>  (23) 
energy

>  <rmsd>  (23) 
4.924116647062257

>  <m_score__min__rmsd>  (23) 
4.924116647062257

>  <meeko>  (23) 
{"free_energy": -10.96, "intermolecular_energy": -12.15, "internal_energy": -1.04, "cluster_size": 24, "cluster_id": 1, "rank_in_cluster": 6}

>  <energy>  (23) 
-9.53

>  <cluster_rmsd>  (23) 
0.99

>  <cluster>  (23) 
1

$$$$

     RDKit          3D

 68 73  0  0  0  0  0  0  0  0999 V2000
  146.7490   73.7520  220.2410 C   0  0  0  0  0  0  0  0  0  0  0  0
  145.4280   73.0530  220.4430 C   0  0  1  0  0  0  0  0  0  0  0  0
  144.2350   73.9170  220.2060 C   0  0  0  0  0  0  0  0  0  0  0  0
  143.5170   73.6320  218.9040 C   0  0  0  0  0  0  0  0  0  0  0  0
  143.0870   72.2020  218.7960 C   0  0  2  0  0  0  0  0  0  0  0  0
  141.6910   71.9960  219.1080 N   0  0  0  0  0  0  0  0  0  0  0  0
  141.1240   72.6890  220.2350 C   0  0  0  0  0  0  0  0  0  0  0  0
  141.0210   74.0120  220.2490 N   0  0  0  0  0  0  0  0  0  0  0  0
  140.4950   74.6510  221.2950 C   0  0  0  0  0  0  0  0  0  0  0  0
  140.3870   76.0820  221.3010 N   0  0  0  0  0  0  0  0  0  0  0  0
  140.5380   76.7550  220.0340 C   0  0  0  0  0  0  0  0  0  0  0  0
  140.1260   78.2090  220.1180 C   0  0  0  0  0  0  0  0  0  0  0  0
  140.8480   78.7750  221.2910 C   0  0  0  0  0  0  0  0  0  0  0  0
  141.5190   79.9750  221.2570 C   0  0  0  0  0  0  0  0  0  0  0  0
  142.1850   80.4730  222.3740 C   0  0  0  0  0  0  0  0  0  0  0  0
  142.1690   79.7360  223.5560 C   0  0  0  0  0  0  0  0  0  0  0  0
  141.5010   78.5320  223.6100 C   0  0  0  0  0  0  0  0  0  0  0  0
  140.8540   78.0730  222.4790 C   0  0  0  0  0  0  0  0  0  0  0  0
  140.1380   76.7710  222.5530 C   0  0  0  0  0  0  0  0  0  0  0  0
  140.0550   73.9380  222.3710 N   0  0  0  0  0  0  0  0  0  0  0  0
  140.1480   72.5990  222.3810 C   0  0  0  0  0  0  0  0  0  0  0  0
  139.7010   71.8240  223.4840 N   0  0  0  0  0  0  0  0  0  0  0  0
  138.4930   71.0270  223.3920 C   0  0  0  0  0  0  0  0  0  0  0  0
  138.9050   69.5780  223.6000 C   0  0  0  0  0  0  0  0  0  0  0  0
  139.5020   69.5080  224.9630 C   0  0  0  0  0  0  0  0  0  0  0  0
  139.3310   68.3700  225.7280 C   0  0  0  0  0  0  0  0  0  0  0  0
  139.8770   68.2840  226.9950 C   0  0  0  0  0  0  0  0  0  0  0  0
  140.6050   69.3590  227.5010 C   0  0  0  0  0  0  0  0  0  0  0  0
  140.7860   70.5050  226.7510 C   0  0  0  0  0  0  0  0  0  0  0  0
  140.2270   70.5570  225.4890 C   0  0  0  0  0  0  0  0  0  0  0  0
  140.4560   71.8250  224.7200 C   0  0  0  0  0  0  0  0  0  0  0  0
  140.6850   71.9990  221.3040 N   0  0  0  0  0  0  0  0  0  0  0  0
  143.8930   71.2970  219.7210 C   0  0  0  0  0  0  0  0  0  0  0  0
  145.3270   71.7860  219.6270 C   0  0  0  0  0  0  0  0  0  0  0  0
  147.1929   73.9869  221.2196 H   0  0  0  0  0  0  0  0  0  0  0  0
  147.4288   73.0956  219.6780 H   0  0  0  0  0  0  0  0  0  0  0  0
  146.5887   74.6833  219.6780 H   0  0  0  0  0  0  0  0  0  0  0  0
  145.4159   72.7917  221.5114 H   0  0  0  0  0  0  0  0  0  0  0  0
  144.5644   74.9665  220.1968 H   0  0  0  0  0  0  0  0  0  0  0  0
  143.5218   73.7039  221.0159 H   0  0  0  0  0  0  0  0  0  0  0  0
  144.1942   73.8623  218.0683 H   0  0  0  0  0  0  0  0  0  0  0  0
  142.6139   74.2593  218.8723 H   0  0  0  0  0  0  0  0  0  0  0  0
  143.2639   71.9439  217.7414 H   0  0  0  0  0  0  0  0  0  0  0  0
  141.0710   71.3630  218.5480 H   0  0  0  0  0  0  0  0  0  0  0  0
  141.5924   76.7008  219.7254 H   0  0  0  0  0  0  0  0  0  0  0  0
  139.8859   76.2563  219.3018 H   0  0  0  0  0  0  0  0  0  0  0  0
  140.4138   78.7411  219.1993 H   0  0  0  0  0  0  0  0  0  0  0  0
  139.0364   78.3125  220.2281 H   0  0  0  0  0  0  0  0  0  0  0  0
  141.5299   80.5565  220.3233 H   0  0  0  0  0  0  0  0  0  0  0  0
  142.7163   81.4349  222.3237 H   0  0  0  0  0  0  0  0  0  0  0  0
  142.6902   80.1156  224.4472 H   0  0  0  0  0  0  0  0  0  0  0  0
  141.4832   77.9449  224.5401 H   0  0  0  0  0  0  0  0  0  0  0  0
  140.5211   76.1759  223.3951 H   0  0  0  0  0  0  0  0  0  0  0  0
  139.0601   76.9227  222.7116 H   0  0  0  0  0  0  0  0  0  0  0  0
  137.7777   71.3326  224.1698 H   0  0  0  0  0  0  0  0  0  0  0  0
  138.0048   71.1620  222.4156 H   0  0  0  0  0  0  0  0  0  0  0  0
  138.0271   68.9185  223.5338 H   0  0  0  0  0  0  0  0  0  0  0  0
  139.6204   69.2501  222.8314 H   0  0  0  0  0  0  0  0  0  0  0  0
  138.7547   67.5242  225.3248 H   0  0  0  0  0  0  0  0  0  0  0  0
  139.7380   67.3749  227.5985 H   0  0  0  0  0  0  0  0  0  0  0  0
  141.0405   69.2944  228.5091 H   0  0  0  0  0  0  0  0  0  0  0  0
  141.3607   71.3544  227.1488 H   0  0  0  0  0  0  0  0  0  0  0  0
  140.1397   72.6808  225.3344 H   0  0  0  0  0  0  0  0  0  0  0  0
  141.5263   71.9004  224.4777 H   0  0  0  0  0  0  0  0  0  0  0  0
  143.8223   70.2502  219.3905 H   0  0  0  0  0  0  0  0  0  0  0  0
  143.5179   71.3353  220.7544 H   0  0  0  0  0  0  0  0  0  0  0  0
  145.5854   71.9931  218.5780 H   0  0  0  0  0  0  0  0  0  0  0  0
  146.0225   71.0233  220.0072 H   0  0  0  0  0  0  0  0  0  0  0  0
  1  2  1  0
  2  3  1  0
  3  4  1  0
  4  5  1  0
  5  6  1  0
  6  7  1  0
  7  8  2  0
  8  9  1  0
  9 10  1  0
 10 11  1  0
 11 12  1  0
 12 13  1  0
 13 14  2  0
 14 15  1  0
 15 16  2  0
 16 17  1  0
 17 18  2  0
 18 19  1  0
  9 20  2  0
 20 21  1  0
 21 22  1  0
 22 23  1  0
 23 24  1  0
 24 25  1  0
 25 26  2  0
 26 27  1  0
 27 28  2  0
 28 29  1  0
 29 30  2  0
 30 31  1  0
 21 32  2  0
  5 33  1  0
 33 34  1  0
 34  2  1  0
 32  7  1  0
 19 10  1  0
 31 22  1  0
 18 13  1  0
 30 25  1  0
  1 35  1  0
  1 36  1  0
  1 37  1  0
  2 38  1  1
  3 39  1  0
  3 40  1  0
  4 41  1  0
  4 42  1  0
  5 43  1  6
  6 44  1  0
 11 45  1  0
 11 46  1  0
 12 47  1  0
 12 48  1  0
 14 49  1  0
 15 50  1  0
 16 51  1  0
 17 52  1  0
 19 53  1  0
 19 54  1  0
 23 55  1  0
 23 56  1  0
 24 57  1  0
 24 58  1  0
 26 59  1  0
 27 60  1  0
 28 61  1  0
 29 62  1  0
 31 63  1  0
 31 64  1  0
 33 65  1  0
 33 66  1  0
 34 67  1  0
 34 68  1  0
M  END
>  <smiles>  (24) 
C[C@H]1CC[C@H](Nc2nc(N3CCc4ccccc4C3)nc(N3CCc4ccccc4C3)n2)CC1

>  <score_type>  (24) 
oracle

>  <origin>  (24) 
autodockgpu

>  <m_score__min__energy>  (24) 
-10.98

>  <m_primary>  (24) 
energy

>  <rmsd>  (24) 
4.786212883711296

>  <m_score__min__rmsd>  (24) 
4.786212883711296

>  <meeko>  (24) 
{"free_energy": -9.93, "intermolecular_energy": -11.13, "internal_energy": -1.3, "cluster_size": 20, "cluster_id": 2, "rank_in_cluster": 10}

>  <energy>  (24) 
-9.5

>  <cluster_rmsd>  (24) 
1.09

>  <cluster>  (24) 
1

$$$$

     RDKit          3D

 68 73  0  0  0  0  0  0  0  0999 V2000
  146.0190   67.5470  218.5430 C   0  0  0  0  0  0  0  0  0  0  0  0
  145.2560   68.8150  218.2540 C   0  0  1  0  0  0  0  0  0  0  0  0
  143.7820   68.7060  218.4670 C   0  0  0  0  0  0  0  0  0  0  0  0
  143.2890   69.3930  219.7220 C   0  0  0  0  0  0  0  0  0  0  0  0
  143.6610   70.8440  219.7560 C   0  0  2  0  0  0  0  0  0  0  0  0
  142.5790   71.7230  219.3710 N   0  0  0  0  0  0  0  0  0  0  0  0
  141.8860   72.4560  220.3960 C   0  0  0  0  0  0  0  0  0  0  0  0
  141.7830   73.7790  220.3470 N   0  0  0  0  0  0  0  0  0  0  0  0
  141.1390   74.4560  221.2990 C   0  0  0  0  0  0  0  0  0  0  0  0
  141.0340   75.8860  221.2380 N   0  0  0  0  0  0  0  0  0  0  0  0
  141.5370   76.5280  220.0480 C   0  0  0  0  0  0  0  0  0  0  0  0
  141.1180   77.9810  219.9750 C   0  0  0  0  0  0  0  0  0  0  0  0
  141.4780   78.5820  221.2890 C   0  0  0  0  0  0  0  0  0  0  0  0
  142.1300   79.7850  221.4170 C   0  0  0  0  0  0  0  0  0  0  0  0
  142.4520   80.3150  222.6630 C   0  0  0  0  0  0  0  0  0  0  0  0
  142.1020   79.6080  223.8110 C   0  0  0  0  0  0  0  0  0  0  0  0
  141.4470   78.4000  223.7040 C   0  0  0  0  0  0  0  0  0  0  0  0
  141.1470   77.9090  222.4480 C   0  0  0  0  0  0  0  0  0  0  0  0
  140.4390   76.6040  222.3500 C   0  0  0  0  0  0  0  0  0  0  0  0
  140.5750   73.7830  222.3430 N   0  0  0  0  0  0  0  0  0  0  0  0
  140.6640   72.4460  222.4150 C   0  0  0  0  0  0  0  0  0  0  0  0
  140.0890   71.7120  223.4870 N   0  0  0  0  0  0  0  0  0  0  0  0
  138.8930   70.9190  223.2870 C   0  0  0  0  0  0  0  0  0  0  0  0
  139.2660   69.4760  223.5900 C   0  0  0  0  0  0  0  0  0  0  0  0
  139.7050   69.4510  225.0130 C   0  0  0  0  0  0  0  0  0  0  0  0
  139.4400   68.3420  225.7920 C   0  0  0  0  0  0  0  0  0  0  0  0
  139.8400   68.2970  227.1160 C   0  0  0  0  0  0  0  0  0  0  0  0
  140.5160   69.3860  227.6620 C   0  0  0  0  0  0  0  0  0  0  0  0
  140.7910   70.5040  226.8980 C   0  0  0  0  0  0  0  0  0  0  0  0
  140.3770   70.5150  225.5800 C   0  0  0  0  0  0  0  0  0  0  0  0
  140.7020   71.7530  224.7990 C   0  0  0  0  0  0  0  0  0  0  0  0
  141.3230   71.8060  221.4330 N   0  0  0  0  0  0  0  0  0  0  0  0
  144.8370   71.1490  218.8360 C   0  0  0  0  0  0  0  0  0  0  0  0
  145.8080   69.9970  219.0150 C   0  0  0  0  0  0  0  0  0  0  0  0
  146.1021   67.4090  219.6311 H   0  0  0  0  0  0  0  0  0  0  0  0
  145.4862   66.6904  218.1043 H   0  0  0  0  0  0  0  0  0  0  0  0
  147.0253   67.6166  218.1043 H   0  0  0  0  0  0  0  0  0  0  0  0
  145.4044   68.9837  217.1772 H   0  0  0  0  0  0  0  0  0  0  0  0
  143.5196   67.6396  218.5306 H   0  0  0  0  0  0  0  0  0  0  0  0
  143.2994   69.2110  217.6172 H   0  0  0  0  0  0  0  0  0  0  0  0
  143.7312   68.8933  220.5965 H   0  0  0  0  0  0  0  0  0  0  0  0
  142.1912   69.3253  219.7351 H   0  0  0  0  0  0  0  0  0  0  0  0
  143.9256   71.0330  220.8068 H   0  0  0  0  0  0  0  0  0  0  0  0
  142.2780   71.8500  218.3750 H   0  0  0  0  0  0  0  0  0  0  0  0
  142.6357   76.4737  220.0511 H   0  0  0  0  0  0  0  0  0  0  0  0
  141.1186   76.0065  219.1745 H   0  0  0  0  0  0  0  0  0  0  0  0
  141.6540   78.4923  219.1618 H   0  0  0  0  0  0  0  0  0  0  0  0
  140.0417   78.0787  219.7702 H   0  0  0  0  0  0  0  0  0  0  0  0
  142.4048   80.3440  220.5104 H   0  0  0  0  0  0  0  0  0  0  0  0
  142.9758   81.2792  222.7401 H   0  0  0  0  0  0  0  0  0  0  0  0
  142.3484   80.0139  224.8032 H   0  0  0  0  0  0  0  0  0  0  0  0
  141.1672   77.8351  224.6055 H   0  0  0  0  0  0  0  0  0  0  0  0
  140.5671   76.0329  223.2814 H   0  0  0  0  0  0  0  0  0  0  0  0
  139.3603   76.7513  222.1925 H   0  0  0  0  0  0  0  0  0  0  0  0
  138.0974   71.2554  223.9681 H   0  0  0  0  0  0  0  0  0  0  0  0
  138.5190   71.0219  222.2577 H   0  0  0  0  0  0  0  0  0  0  0  0
  138.3953   68.8190  223.4478 H   0  0  0  0  0  0  0  0  0  0  0  0
  140.0604   69.1176  222.9188 H   0  0  0  0  0  0  0  0  0  0  0  0
  138.9054   67.4855  225.3555 H   0  0  0  0  0  0  0  0  0  0  0  0
  139.6264   67.4104  227.7311 H   0  0  0  0  0  0  0  0  0  0  0  0
  140.8348   69.3554  228.7144 H   0  0  0  0  0  0  0  0  0  0  0  0
  141.3260   71.3635  227.3283 H   0  0  0  0  0  0  0  0  0  0  0  0
  140.3272   72.6317  225.3444 H   0  0  0  0  0  0  0  0  0  0  0  0
  141.7933   71.8144  224.6754 H   0  0  0  0  0  0  0  0  0  0  0  0
  145.3119   72.0989  219.1227 H   0  0  0  0  0  0  0  0  0  0  0  0
  144.5171   71.2512  217.7885 H   0  0  0  0  0  0  0  0  0  0  0  0
  145.9008   69.7465  220.0821 H   0  0  0  0  0  0  0  0  0  0  0  0
  146.8050   70.2688  218.6381 H   0  0  0  0  0  0  0  0  0  0  0  0
  1  2  1  0
  2  3  1  0
  3  4  1  0
  4  5  1  0
  5  6  1  0
  6  7  1  0
  7  8  2  0
  8  9  1  0
  9 10  1  0
 10 11  1  0
 11 12  1  0
 12 13  1  0
 13 14  2  0
 14 15  1  0
 15 16  2  0
 16 17  1  0
 17 18  2  0
 18 19  1  0
  9 20  2  0
 20 21  1  0
 21 22  1  0
 22 23  1  0
 23 24  1  0
 24 25  1  0
 25 26  2  0
 26 27  1  0
 27 28  2  0
 28 29  1  0
 29 30  2  0
 30 31  1  0
 21 32  2  0
  5 33  1  0
 33 34  1  0
 34  2  1  0
 32  7  1  0
 19 10  1  0
 31 22  1  0
 18 13  1  0
 30 25  1  0
  1 35  1  0
  1 36  1  0
  1 37  1  0
  2 38  1  6
  3 39  1  0
  3 40  1  0
  4 41  1  0
  4 42  1  0
  5 43  1  1
  6 44  1  0
 11 45  1  0
 11 46  1  0
 12 47  1  0
 12 48  1  0
 14 49  1  0
 15 50  1  0
 16 51  1  0
 17 52  1  0
 19 53  1  0
 19 54  1  0
 23 55  1  0
 23 56  1  0
 24 57  1  0
 24 58  1  0
 26 59  1  0
 27 60  1  0
 28 61  1  0
 29 62  1  0
 31 63  1  0
 31 64  1  0
 33 65  1  0
 33 66  1  0
 34 67  1  0
 34 68  1  0
M  END
>  <smiles>  (25) 
C[C@H]1CC[C@H](Nc2nc(N3CCc4ccccc4C3)nc(N3CCc4ccccc4C3)n2)CC1

>  <score_type>  (25) 
oracle

>  <origin>  (25) 
autodockgpu

>  <m_score__min__energy>  (25) 
-10.98

>  <m_primary>  (25) 
energy

>  <rmsd>  (25) 
4.902204823042271

>  <m_score__min__rmsd>  (25) 
4.902204823042271

>  <meeko>  (25) 
{"free_energy": -10.18, "intermolecular_energy": -11.37, "internal_energy": -0.98, "cluster_size": 20, "cluster_id": 2, "rank_in_cluster": 1}

>  <energy>  (25) 
-10.18

>  <cluster_rmsd>  (25) 
0.0

>  <cluster>  (25) 
2

$$$$

     RDKit          3D

 68 73  0  0  0  0  0  0  0  0999 V2000
  146.6980   73.7680  220.4890 C   0  0  0  0  0  0  0  0  0  0  0  0
  145.2320   73.4280  220.5910 C   0  0  1  0  0  0  0  0  0  0  0  0
  144.3290   74.3940  219.8980 C   0  0  0  0  0  0  0  0  0  0  0  0
  143.7550   73.8760  218.5970 C   0  0  0  0  0  0  0  0  0  0  0  0
  143.0110   72.5890  218.7790 C   0  0  2  0  0  0  0  0  0  0  0  0
  141.5770   72.7580  218.8420 N   0  0  0  0  0  0  0  0  0  0  0  0
  140.9990   73.3290  220.0280 C   0  0  0  0  0  0  0  0  0  0  0  0
  140.8820   74.6440  220.1740 N   0  0  0  0  0  0  0  0  0  0  0  0
  140.3450   75.1700  221.2760 C   0  0  0  0  0  0  0  0  0  0  0  0
  140.2240   76.5920  221.4240 N   0  0  0  0  0  0  0  0  0  0  0  0
  140.1540   77.3730  220.2130 C   0  0  0  0  0  0  0  0  0  0  0  0
  139.7450   78.8040  220.4910 C   0  0  0  0  0  0  0  0  0  0  0  0
  140.6460   79.2880  221.5730 C   0  0  0  0  0  0  0  0  0  0  0  0
  141.2880   80.5030  221.5350 C   0  0  0  0  0  0  0  0  0  0  0  0
  142.1240   80.9220  222.5660 C   0  0  0  0  0  0  0  0  0  0  0  0
  142.3140   80.0880  223.6650 C   0  0  0  0  0  0  0  0  0  0  0  0
  141.6790   78.8670  223.7230 C   0  0  0  0  0  0  0  0  0  0  0  0
  140.8570   78.4890  222.6780 C   0  0  0  0  0  0  0  0  0  0  0  0
  140.1780   77.1670  222.7560 C   0  0  0  0  0  0  0  0  0  0  0  0
  139.9070   74.3490  222.2730 N   0  0  0  0  0  0  0  0  0  0  0  0
  140.0130   73.0170  222.1490 C   0  0  0  0  0  0  0  0  0  0  0  0
  139.5680   72.1310  223.1670 N   0  0  0  0  0  0  0  0  0  0  0  0
  138.2780   71.4770  223.0710 C   0  0  0  0  0  0  0  0  0  0  0  0
  138.5450   69.9800  223.0330 C   0  0  0  0  0  0  0  0  0  0  0  0
  139.2300   69.6480  224.3140 C   0  0  0  0  0  0  0  0  0  0  0  0
  138.9950   68.4310  224.9210 C   0  0  0  0  0  0  0  0  0  0  0  0
  139.6210   68.1020  226.1100 C   0  0  0  0  0  0  0  0  0  0  0  0
  140.4970   69.0140  226.6950 C   0  0  0  0  0  0  0  0  0  0  0  0
  140.7450   70.2370  226.1020 C   0  0  0  0  0  0  0  0  0  0  0  0
  140.1020   70.5320  224.9160 C   0  0  0  0  0  0  0  0  0  0  0  0
  140.4090   71.8740  224.3170 C   0  0  0  0  0  0  0  0  0  0  0  0
  140.5610   72.5320  221.0210 N   0  0  0  0  0  0  0  0  0  0  0  0
  143.4340   71.8660  220.0530 C   0  0  0  0  0  0  0  0  0  0  0  0
  144.9420   72.0190  220.1310 C   0  0  0  0  0  0  0  0  0  0  0  0
  147.1227   73.8665  221.4989 H   0  0  0  0  0  0  0  0  0  0  0  0
  147.2231   72.9678  219.9468 H   0  0  0  0  0  0  0  0  0  0  0  0
  146.8173   74.7176  219.9468 H   0  0  0  0  0  0  0  0  0  0  0  0
  145.0072   73.5057  221.6650 H   0  0  0  0  0  0  0  0  0  0  0  0
  144.9006   75.3091  219.6837 H   0  0  0  0  0  0  0  0  0  0  0  0
  143.4783   74.5737  220.5718 H   0  0  0  0  0  0  0  0  0  0  0  0
  144.5789   73.7114  217.8870 H   0  0  0  0  0  0  0  0  0  0  0  0
  143.0445   74.6260  218.2193 H   0  0  0  0  0  0  0  0  0  0  0  0
  143.2675   71.9981  217.8874 H   0  0  0  0  0  0  0  0  0  0  0  0
  140.9380   72.4830  218.0570 H   0  0  0  0  0  0  0  0  0  0  0  0
  141.1428   77.3723  219.7310 H   0  0  0  0  0  0  0  0  0  0  0  0
  139.3949   76.9211  219.5575 H   0  0  0  0  0  0  0  0  0  0  0  0
  139.8689   79.4189  219.5874 H   0  0  0  0  0  0  0  0  0  0  0  0
  138.6881   78.8693  220.7888 H   0  0  0  0  0  0  0  0  0  0  0  0
  141.1370   81.1615  220.6669 H   0  0  0  0  0  0  0  0  0  0  0  0
  142.6277   81.8985  222.5134 H   0  0  0  0  0  0  0  0  0  0  0  0
  142.9719   80.4047  224.4877 H   0  0  0  0  0  0  0  0  0  0  0  0
  141.8239   78.2028  224.5878 H   0  0  0  0  0  0  0  0  0  0  0  0
  140.7024   76.5135  223.4687 H   0  0  0  0  0  0  0  0  0  0  0  0
  139.1398   77.2766  223.1027 H   0  0  0  0  0  0  0  0  0  0  0  0
  137.6598   71.7292  223.9452 H   0  0  0  0  0  0  0  0  0  0  0  0
  137.7361   71.8039  222.1713 H   0  0  0  0  0  0  0  0  0  0  0  0
  137.5984   69.4256  222.9518 H   0  0  0  0  0  0  0  0  0  0  0  0
  139.1620   69.7045  222.1650 H   0  0  0  0  0  0  0  0  0  0  0  0
  138.3025   67.7149  224.4544 H   0  0  0  0  0  0  0  0  0  0  0  0
  139.4292   67.1304  226.5886 H   0  0  0  0  0  0  0  0  0  0  0  0
  140.9972   68.7572  227.6404 H   0  0  0  0  0  0  0  0  0  0  0  0
  141.4369   70.9573  226.5628 H   0  0  0  0  0  0  0  0  0  0  0  0
  140.2342   72.6541  225.0725 H   0  0  0  0  0  0  0  0  0  0  0  0
  141.4600   71.8820  223.9926 H   0  0  0  0  0  0  0  0  0  0  0  0
  143.1587   70.8023  219.9997 H   0  0  0  0  0  0  0  0  0  0  0  0
  142.9372   72.2840  220.9409 H   0  0  0  0  0  0  0  0  0  0  0  0
  145.3886   71.8479  219.1404 H   0  0  0  0  0  0  0  0  0  0  0  0
  145.3700   71.2868  220.8315 H   0  0  0  0  0  0  0  0  0  0  0  0
  1  2  1  0
  2  3  1  0
  3  4  1  0
  4  5  1  0
  5  6  1  0
  6  7  1  0
  7  8  2  0
  8  9  1  0
  9 10  1  0
 10 11  1  0
 11 12  1  0
 12 13  1  0
 13 14  2  0
 14 15  1  0
 15 16  2  0
 16 17  1  0
 17 18  2  0
 18 19  1  0
  9 20  2  0
 20 21  1  0
 21 22  1  0
 22 23  1  0
 23 24  1  0
 24 25  1  0
 25 26  2  0
 26 27  1  0
 27 28  2  0
 28 29  1  0
 29 30  2  0
 30 31  1  0
 21 32  2  0
  5 33  1  0
 33 34  1  0
 34  2  1  0
 32  7  1  0
 19 10  1  0
 31 22  1  0
 18 13  1  0
 30 25  1  0
  1 35  1  0
  1 36  1  0
  1 37  1  0
  2 38  1  1
  3 39  1  0
  3 40  1  0
  4 41  1  0
  4 42  1  0
  5 43  1  6
  6 44  1  0
 11 45  1  0
 11 46  1  0
 12 47  1  0
 12 48  1  0
 14 49  1  0
 15 50  1  0
 16 51  1  0
 17 52  1  0
 19 53  1  0
 19 54  1  0
 23 55  1  0
 23 56  1  0
 24 57  1  0
 24 58  1  0
 26 59  1  0
 27 60  1  0
 28 61  1  0
 29 62  1  0
 31 63  1  0
 31 64  1  0
 33 65  1  0
 33 66  1  0
 34 67  1  0
 34 68  1  0
M  END
>  <smiles>  (26) 
C[C@H]1CC[C@H](Nc2nc(N3CCc4ccccc4C3)nc(N3CCc4ccccc4C3)n2)CC1

>  <score_type>  (26) 
oracle

>  <origin>  (26) 
autodockgpu

>  <m_score__min__energy>  (26) 
-10.98

>  <m_primary>  (26) 
energy

>  <rmsd>  (26) 
4.979912280566258

>  <m_score__min__rmsd>  (26) 
4.979912280566258

>  <meeko>  (26) 
{"free_energy": -9.59, "intermolecular_energy": -10.78, "internal_energy": -1.39, "cluster_size": 20, "cluster_id": 2, "rank_in_cluster": 16}

>  <energy>  (26) 
-10.07

>  <cluster_rmsd>  (26) 
1.24

>  <cluster>  (26) 
2

$$$$

     RDKit          3D

 68 73  0  0  0  0  0  0  0  0999 V2000
  140.6870   68.7110  227.6350 C   0  0  0  0  0  0  0  0  0  0  0  0
  139.8800   69.6260  226.7470 C   0  0  1  0  0  0  0  0  0  0  0  0
  140.5550   70.9180  226.4250 C   0  0  0  0  0  0  0  0  0  0  0  0
  141.0970   70.9940  225.0130 C   0  0  0  0  0  0  0  0  0  0  0  0
  140.0350   70.7510  223.9850 C   0  0  2  0  0  0  0  0  0  0  0  0
  139.5230   71.9650  223.3900 N   0  0  0  0  0  0  0  0  0  0  0  0
  140.3420   72.6690  222.4400 C   0  0  0  0  0  0  0  0  0  0  0  0
  140.2930   73.9920  222.3350 N   0  0  0  0  0  0  0  0  0  0  0  0
  141.0540   74.6410  221.4520 C   0  0  0  0  0  0  0  0  0  0  0  0
  140.9950   76.0710  221.3450 N   0  0  0  0  0  0  0  0  0  0  0  0
  141.5670   76.6620  220.1600 C   0  0  0  0  0  0  0  0  0  0  0  0
  141.1950   78.1240  220.0280 C   0  0  0  0  0  0  0  0  0  0  0  0
  141.5180   78.7520  221.3390 C   0  0  0  0  0  0  0  0  0  0  0  0
  142.2010   79.9390  221.4590 C   0  0  0  0  0  0  0  0  0  0  0  0
  142.4860   80.4970  222.7030 C   0  0  0  0  0  0  0  0  0  0  0  0
  142.0680   79.8350  223.8540 C   0  0  0  0  0  0  0  0  0  0  0  0
  141.3810   78.6440  223.7540 C   0  0  0  0  0  0  0  0  0  0  0  0
  141.1190   78.1250  222.5010 C   0  0  0  0  0  0  0  0  0  0  0  0
  140.3770   76.8380  222.4100 C   0  0  0  0  0  0  0  0  0  0  0  0
  141.8980   73.9390  220.6420 N   0  0  0  0  0  0  0  0  0  0  0  0
  141.9660   72.6020  220.7300 C   0  0  0  0  0  0  0  0  0  0  0  0
  142.8330   71.8390  219.9030 N   0  0  0  0  0  0  0  0  0  0  0  0
  143.8790   72.4800  219.1300 C   0  0  0  0  0  0  0  0  0  0  0  0
  145.2010   71.9140  219.6250 C   0  0  0  0  0  0  0  0  0  0  0  0
  145.1500   70.4490  219.3620 C   0  0  0  0  0  0  0  0  0  0  0  0
  146.3050   69.7750  219.0170 C   0  0  0  0  0  0  0  0  0  0  0  0
  146.2800   68.4140  218.7700 C   0  0  0  0  0  0  0  0  0  0  0  0
  145.0750   67.7230  218.8710 C   0  0  0  0  0  0  0  0  0  0  0  0
  143.9090   68.3810  219.2160 C   0  0  0  0  0  0  0  0  0  0  0  0
  143.9700   69.7390  219.4560 C   0  0  0  0  0  0  0  0  0  0  0  0
  142.6760   70.4010  219.8260 C   0  0  0  0  0  0  0  0  0  0  0  0
  141.1800   71.9900  221.6340 N   0  0  0  0  0  0  0  0  0  0  0  0
  138.8440   69.9990  224.5680 C   0  0  0  0  0  0  0  0  0  0  0  0
  139.4340   68.9380  225.4790 C   0  0  0  0  0  0  0  0  0  0  0  0
  140.4794   68.9464  228.6893 H   0  0  0  0  0  0  0  0  0  0  0  0
  140.4113   67.6657  227.4315 H   0  0  0  0  0  0  0  0  0  0  0  0
  141.7585   68.8539  227.4315 H   0  0  0  0  0  0  0  0  0  0  0  0
  138.9926   69.8782  227.3461 H   0  0  0  0  0  0  0  0  0  0  0  0
  141.3925   71.0547  227.1249 H   0  0  0  0  0  0  0  0  0  0  0  0
  139.7936   71.7066  226.5168 H   0  0  0  0  0  0  0  0  0  0  0  0
  141.8847   70.2353  224.8947 H   0  0  0  0  0  0  0  0  0  0  0  0
  141.4917   72.0089  224.8572 H   0  0  0  0  0  0  0  0  0  0  0  0
  140.5372   70.1520  223.2111 H   0  0  0  0  0  0  0  0  0  0  0  0
  138.5770   72.3560  223.6210 H   0  0  0  0  0  0  0  0  0  0  0  0
  142.6624   76.5761  220.2120 H   0  0  0  0  0  0  0  0  0  0  0  0
  141.1708   76.1269  219.2844 H   0  0  0  0  0  0  0  0  0  0  0  0
  141.7796   78.5957  219.2244 H   0  0  0  0  0  0  0  0  0  0  0  0
  140.1317   78.2469  219.7745 H   0  0  0  0  0  0  0  0  0  0  0  0
  142.5310   80.4616  220.5491 H   0  0  0  0  0  0  0  0  0  0  0  0
  143.0340   81.4480  222.7749 H   0  0  0  0  0  0  0  0  0  0  0  0
  142.2860   80.2624  224.8438 H   0  0  0  0  0  0  0  0  0  0  0  0
  141.0465   78.1149  224.6585 H   0  0  0  0  0  0  0  0  0  0  0  0
  140.4497   76.2911  223.3616 H   0  0  0  0  0  0  0  0  0  0  0  0
  139.3106   77.0115  222.2032 H   0  0  0  0  0  0  0  0  0  0  0  0
  143.7491   72.2586  218.0604 H   0  0  0  0  0  0  0  0  0  0  0  0
  143.8470   73.5727  219.2525 H   0  0  0  0  0  0  0  0  0  0  0  0
  146.0397   72.3705  219.0789 H   0  0  0  0  0  0  0  0  0  0  0  0
  145.3520   72.1244  220.6941 H   0  0  0  0  0  0  0  0  0  0  0  0
  147.2540   70.3256  218.9378 H   0  0  0  0  0  0  0  0  0  0  0  0
  147.2034   67.8825  218.4964 H   0  0  0  0  0  0  0  0  0  0  0  0
  145.0507   66.6411  218.6740 H   0  0  0  0  0  0  0  0  0  0  0  0
  142.9569   67.8362  219.2972 H   0  0  0  0  0  0  0  0  0  0  0  0
  141.9188   70.1619  219.0647 H   0  0  0  0  0  0  0  0  0  0  0  0
  142.3611   70.0291  220.8122 H   0  0  0  0  0  0  0  0  0  0  0  0
  138.2556   69.5310  223.7650 H   0  0  0  0  0  0  0  0  0  0  0  0
  138.1668   70.6721  225.1142 H   0  0  0  0  0  0  0  0  0  0  0  0
  140.2944   68.4585  224.9892 H   0  0  0  0  0  0  0  0  0  0  0  0
  138.6887   68.1602  225.7016 H   0  0  0  0  0  0  0  0  0  0  0  0
  1  2  1  0
  2  3  1  0
  3  4  1  0
  4  5  1  0
  5  6  1  0
  6  7  1  0
  7  8  2  0
  8  9  1  0
  9 10  1  0
 10 11  1  0
 11 12  1  0
 12 13  1  0
 13 14  2  0
 14 15  1  0
 15 16  2  0
 16 17  1  0
 17 18  2  0
 18 19  1  0
  9 20  2  0
 20 21  1  0
 21 22  1  0
 22 23  1  0
 23 24  1  0
 24 25  1  0
 25 26  2  0
 26 27  1  0
 27 28  2  0
 28 29  1  0
 29 30  2  0
 30 31  1  0
 21 32  2  0
  5 33  1  0
 33 34  1  0
 34  2  1  0
 32  7  1  0
 19 10  1  0
 31 22  1  0
 18 13  1  0
 30 25  1  0
  1 35  1  0
  1 36  1  0
  1 37  1  0
  2 38  1  1
  3 39  1  0
  3 40  1  0
  4 41  1  0
  4 42  1  0
  5 43  1  6
  6 44  1  0
 11 45  1  0
 11 46  1  0
 12 47  1  0
 12 48  1  0
 14 49  1  0
 15 50  1  0
 16 51  1  0
 17 52  1  0
 19 53  1  0
 19 54  1  0
 23 55  1  0
 23 56  1  0
 24 57  1  0
 24 58  1  0
 26 59  1  0
 27 60  1  0
 28 61  1  0
 29 62  1  0
 31 63  1  0
 31 64  1  0
 33 65  1  0
 33 66  1  0
 34 67  1  0
 34 68  1  0
M  END
>  <smiles>  (27) 
C[C@H]1CC[C@H](Nc2nc(N3CCc4ccccc4C3)nc(N3CCc4ccccc4C3)n2)CC1

>  <score_type>  (27) 
oracle

>  <origin>  (27) 
autodockgpu

>  <m_score__min__energy>  (27) 
-10.98

>  <m_primary>  (27) 
energy

>  <rmsd>  (27) 
4.916752737519905

>  <m_score__min__rmsd>  (27) 
4.916752737519905

>  <meeko>  (27) 
{"free_energy": -10.94, "intermolecular_energy": -12.13, "internal_energy": -1.04, "cluster_size": 24, "cluster_id": 1, "rank_in_cluster": 11}

>  <energy>  (27) 
-10.05

>  <cluster_rmsd>  (27) 
1.19

>  <cluster>  (27) 
2

$$$$

     RDKit          3D

 68 73  0  0  0  0  0  0  0  0999 V2000
  140.6730   68.9470  227.7940 C   0  0  0  0  0  0  0  0  0  0  0  0
  139.8620   69.7810  226.8340 C   0  0  1  0  0  0  0  0  0  0  0  0
  140.4700   71.1040  226.5060 C   0  0  0  0  0  0  0  0  0  0  0  0
  141.0860   71.1730  225.1250 C   0  0  0  0  0  0  0  0  0  0  0  0
  140.1030   70.8310  224.0490 C   0  0  2  0  0  0  0  0  0  0  0  0
  139.5500   71.9910  223.3860 N   0  0  0  0  0  0  0  0  0  0  0  0
  140.3610   72.6930  222.4280 C   0  0  0  0  0  0  0  0  0  0  0  0
  140.3050   74.0150  222.3150 N   0  0  0  0  0  0  0  0  0  0  0  0
  141.0590   74.6630  221.4250 C   0  0  0  0  0  0  0  0  0  0  0  0
  140.9930   76.0910  221.3100 N   0  0  0  0  0  0  0  0  0  0  0  0
  141.5950   76.6820  220.1400 C   0  0  0  0  0  0  0  0  0  0  0  0
  141.2170   78.1400  219.9900 C   0  0  0  0  0  0  0  0  0  0  0  0
  141.4970   78.7770  221.3070 C   0  0  0  0  0  0  0  0  0  0  0  0
  142.1670   79.9690  221.4430 C   0  0  0  0  0  0  0  0  0  0  0  0
  142.4110   80.5340  222.6920 C   0  0  0  0  0  0  0  0  0  0  0  0
  141.9640   79.8740  223.8330 C   0  0  0  0  0  0  0  0  0  0  0  0
  141.2890   78.6770  223.7180 C   0  0  0  0  0  0  0  0  0  0  0  0
  141.0680   78.1510  222.4600 C   0  0  0  0  0  0  0  0  0  0  0  0
  140.3380   76.8590  222.3530 C   0  0  0  0  0  0  0  0  0  0  0  0
  141.9020   73.9600  220.6150 N   0  0  0  0  0  0  0  0  0  0  0  0
  141.9770   72.6230  220.7100 C   0  0  0  0  0  0  0  0  0  0  0  0
  142.8430   71.8590  219.8830 N   0  0  0  0  0  0  0  0  0  0  0  0
  143.8960   72.4990  219.1180 C   0  0  0  0  0  0  0  0  0  0  0  0
  145.2130   71.9240  219.6160 C   0  0  0  0  0  0  0  0  0  0  0  0
  145.1550   70.4600  219.3460 C   0  0  0  0  0  0  0  0  0  0  0  0
  146.3070   69.7810  219.0030 C   0  0  0  0  0  0  0  0  0  0  0  0
  146.2760   68.4220  218.7480 C   0  0  0  0  0  0  0  0  0  0  0  0
  145.0670   67.7360  218.8420 C   0  0  0  0  0  0  0  0  0  0  0  0
  143.9030   68.3990  219.1840 C   0  0  0  0  0  0  0  0  0  0  0  0
  143.9710   69.7560  219.4310 C   0  0  0  0  0  0  0  0  0  0  0  0
  142.6780   70.4230  219.7990 C   0  0  0  0  0  0  0  0  0  0  0  0
  141.1980   72.0140  221.6220 N   0  0  0  0  0  0  0  0  0  0  0  0
  138.9310   70.0210  224.5890 C   0  0  0  0  0  0  0  0  0  0  0  0
  139.5340   69.0280  225.5660 C   0  0  0  0  0  0  0  0  0  0  0  0
  140.4100   69.2175  228.8273 H   0  0  0  0  0  0  0  0  0  0  0  0
  140.4564   67.8815  227.6274 H   0  0  0  0  0  0  0  0  0  0  0  0
  141.7442   69.1338  227.6274 H   0  0  0  0  0  0  0  0  0  0  0  0
  138.9284   69.9925  227.3759 H   0  0  0  0  0  0  0  0  0  0  0  0
  141.2554   71.3168  227.2461 H   0  0  0  0  0  0  0  0  0  0  0  0
  139.6555   71.8430  226.5285 H   0  0  0  0  0  0  0  0  0  0  0  0
  141.9257   70.4641  225.0759 H   0  0  0  0  0  0  0  0  0  0  0  0
  141.4238   72.2063  224.9574 H   0  0  0  0  0  0  0  0  0  0  0  0
  140.6861   70.2432  223.3249 H   0  0  0  0  0  0  0  0  0  0  0  0
  138.5800   72.3440  223.5740 H   0  0  0  0  0  0  0  0  0  0  0  0
  142.6890   76.6045  220.2246 H   0  0  0  0  0  0  0  0  0  0  0  0
  141.2280   76.1405  219.2557 H   0  0  0  0  0  0  0  0  0  0  0  0
  141.8215   78.6119  219.2015 H   0  0  0  0  0  0  0  0  0  0  0  0
  140.1607   78.2540  219.7050 H   0  0  0  0  0  0  0  0  0  0  0  0
  142.5200   80.4907  220.5412 H   0  0  0  0  0  0  0  0  0  0  0  0
  142.9499   81.4893  222.7759 H   0  0  0  0  0  0  0  0  0  0  0  0
  142.1493   80.3074  224.8269 H   0  0  0  0  0  0  0  0  0  0  0  0
  140.9320   78.1490  224.6145 H   0  0  0  0  0  0  0  0  0  0  0  0
  140.3859   76.3169  223.3089 H   0  0  0  0  0  0  0  0  0  0  0  0
  139.2772   77.0243  222.1136 H   0  0  0  0  0  0  0  0  0  0  0  0
  143.7699   72.2838  218.0466 H   0  0  0  0  0  0  0  0  0  0  0  0
  143.8687   73.5912  219.2461 H   0  0  0  0  0  0  0  0  0  0  0  0
  146.0563   72.3785  219.0754 H   0  0  0  0  0  0  0  0  0  0  0  0
  145.3609   72.1289  220.6866 H   0  0  0  0  0  0  0  0  0  0  0  0
  147.2595   70.3265  218.9318 H   0  0  0  0  0  0  0  0  0  0  0  0
  147.1975   67.8876  218.4735 H   0  0  0  0  0  0  0  0  0  0  0  0
  145.0383   66.6547  218.6418 H   0  0  0  0  0  0  0  0  0  0  0  0
  142.9472   67.8594  219.2575 H   0  0  0  0  0  0  0  0  0  0  0  0
  141.9227   70.1914  219.0336 H   0  0  0  0  0  0  0  0  0  0  0  0
  142.3564   70.0481  220.7819 H   0  0  0  0  0  0  0  0  0  0  0  0
  138.4207   69.4922  223.7705 H   0  0  0  0  0  0  0  0  0  0  0  0
  138.1820   70.6642  225.0740 H   0  0  0  0  0  0  0  0  0  0  0  0
  140.4498   68.5915  225.1408 H   0  0  0  0  0  0  0  0  0  0  0  0
  138.8280   68.2101  225.7726 H   0  0  0  0  0  0  0  0  0  0  0  0
  1  2  1  0
  2  3  1  0
  3  4  1  0
  4  5  1  0
  5  6  1  0
  6  7  1  0
  7  8  2  0
  8  9  1  0
  9 10  1  0
 10 11  1  0
 11 12  1  0
 12 13  1  0
 13 14  2  0
 14 15  1  0
 15 16  2  0
 16 17  1  0
 17 18  2  0
 18 19  1  0
  9 20  2  0
 20 21  1  0
 21 22  1  0
 22 23  1  0
 23 24  1  0
 24 25  1  0
 25 26  2  0
 26 27  1  0
 27 28  2  0
 28 29  1  0
 29 30  2  0
 30 31  1  0
 21 32  2  0
  5 33  1  0
 33 34  1  0
 34  2  1  0
 32  7  1  0
 19 10  1  0
 31 22  1  0
 18 13  1  0
 30 25  1  0
  1 35  1  0
  1 36  1  0
  1 37  1  0
  2 38  1  1
  3 39  1  0
  3 40  1  0
  4 41  1  0
  4 42  1  0
  5 43  1  6
  6 44  1  0
 11 45  1  0
 11 46  1  0
 12 47  1  0
 12 48  1  0
 14 49  1  0
 15 50  1  0
 16 51  1  0
 17 52  1  0
 19 53  1  0
 19 54  1  0
 23 55  1  0
 23 56  1  0
 24 57  1  0
 24 58  1  0
 26 59  1  0
 27 60  1  0
 28 61  1  0
 29 62  1  0
 31 63  1  0
 31 64  1  0
 33 65  1  0
 33 66  1  0
 34 67  1  0
 34 68  1  0
M  END
>  <smiles>  (28) 
C[C@H]1CC[C@H](Nc2nc(N3CCc4ccccc4C3)nc(N3CCc4ccccc4C3)n2)CC1

>  <score_type>  (28) 
oracle

>  <origin>  (28) 
autodockgpu

>  <m_score__min__energy>  (28) 
-10.98

>  <m_primary>  (28) 
energy

>  <rmsd>  (28) 
4.898425385908007

>  <m_score__min__rmsd>  (28) 
4.898425385908007

>  <meeko>  (28) 
{"free_energy": -10.96, "intermolecular_energy": -12.15, "internal_energy": -1.03, "cluster_size": 24, "cluster_id": 1, "rank_in_cluster": 7}

>  <energy>  (28) 
-10.02

>  <cluster_rmsd>  (28) 
1.18

>  <cluster>  (28) 
2

$$$$

     RDKit          3D

 68 73  0  0  0  0  0  0  0  0999 V2000
  140.7790   69.2960  227.9600 C   0  0  0  0  0  0  0  0  0  0  0  0
  139.9320   70.0650  226.9780 C   0  0  1  0  0  0  0  0  0  0  0  0
  140.5490   71.3390  226.5030 C   0  0  0  0  0  0  0  0  0  0  0  0
  141.0860   71.2740  225.0890 C   0  0  0  0  0  0  0  0  0  0  0  0
  140.0340   70.8670  224.1030 C   0  0  2  0  0  0  0  0  0  0  0  0
  139.4690   71.9810  223.3740 N   0  0  0  0  0  0  0  0  0  0  0  0
  140.2990   72.6860  222.4350 C   0  0  0  0  0  0  0  0  0  0  0  0
  140.2550   74.0090  222.3340 N   0  0  0  0  0  0  0  0  0  0  0  0
  141.0270   74.6590  221.4610 C   0  0  0  0  0  0  0  0  0  0  0  0
  140.9720   76.0900  221.3590 N   0  0  0  0  0  0  0  0  0  0  0  0
  141.5350   76.6820  220.1700 C   0  0  0  0  0  0  0  0  0  0  0  0
  141.1680   78.1460  220.0460 C   0  0  0  0  0  0  0  0  0  0  0  0
  141.5050   78.7690  221.3550 C   0  0  0  0  0  0  0  0  0  0  0  0
  142.1940   79.9530  221.4720 C   0  0  0  0  0  0  0  0  0  0  0  0
  142.4930   80.5060  222.7150 C   0  0  0  0  0  0  0  0  0  0  0  0
  142.0830   79.8420  223.8690 C   0  0  0  0  0  0  0  0  0  0  0  0
  141.3900   78.6550  223.7720 C   0  0  0  0  0  0  0  0  0  0  0  0
  141.1150   78.1400  222.5190 C   0  0  0  0  0  0  0  0  0  0  0  0
  140.3670   76.8560  222.4320 C   0  0  0  0  0  0  0  0  0  0  0  0
  141.8770   73.9580  220.6570 N   0  0  0  0  0  0  0  0  0  0  0  0
  141.9400   72.6210  220.7410 C   0  0  0  0  0  0  0  0  0  0  0  0
  142.8140   71.8580  219.9200 N   0  0  0  0  0  0  0  0  0  0  0  0
  143.8400   72.5040  219.1250 C   0  0  0  0  0  0  0  0  0  0  0  0
  145.1780   71.9730  219.6180 C   0  0  0  0  0  0  0  0  0  0  0  0
  145.1520   70.5020  219.3830 C   0  0  0  0  0  0  0  0  0  0  0  0
  146.3160   69.8430  219.0400 C   0  0  0  0  0  0  0  0  0  0  0  0
  146.3140   68.4780  218.8180 C   0  0  0  0  0  0  0  0  0  0  0  0
  145.1230   67.7660  218.9440 C   0  0  0  0  0  0  0  0  0  0  0  0
  143.9490   68.4080  219.2880 C   0  0  0  0  0  0  0  0  0  0  0  0
  143.9860   69.7720  219.5020 C   0  0  0  0  0  0  0  0  0  0  0  0
  142.6830   70.4170  219.8720 C   0  0  0  0  0  0  0  0  0  0  0  0
  141.1440   72.0080  221.6350 N   0  0  0  0  0  0  0  0  0  0  0  0
  138.8780   70.1370  224.7770 C   0  0  0  0  0  0  0  0  0  0  0  0
  139.5150   69.2160  225.8010 C   0  0  0  0  0  0  0  0  0  0  0  0
  140.4849   69.5630  228.9858 H   0  0  0  0  0  0  0  0  0  0  0  0
  140.6313   68.2170  227.8054 H   0  0  0  0  0  0  0  0  0  0  0  0
  141.8388   69.5469  227.8054 H   0  0  0  0  0  0  0  0  0  0  0  0
  139.0357   70.3460  227.5504 H   0  0  0  0  0  0  0  0  0  0  0  0
  141.3802   71.5931  227.1772 H   0  0  0  0  0  0  0  0  0  0  0  0
  139.7532   72.0984  226.5064 H   0  0  0  0  0  0  0  0  0  0  0  0
  141.9061   70.5417  225.0547 H   0  0  0  0  0  0  0  0  0  0  0  0
  141.4361   72.2798  224.8138 H   0  0  0  0  0  0  0  0  0  0  0  0
  140.5603   70.2038  223.4007 H   0  0  0  0  0  0  0  0  0  0  0  0
  138.4770   72.2970  223.5010 H   0  0  0  0  0  0  0  0  0  0  0  0
  142.6305   76.5913  220.2109 H   0  0  0  0  0  0  0  0  0  0  0  0
  141.1280   76.1511  219.2967 H   0  0  0  0  0  0  0  0  0  0  0  0
  141.7472   78.6176  219.2385 H   0  0  0  0  0  0  0  0  0  0  0  0
  140.1029   78.2738  219.8028 H   0  0  0  0  0  0  0  0  0  0  0  0
  142.5175   80.4771  220.5606 H   0  0  0  0  0  0  0  0  0  0  0  0
  143.0456   81.4546  222.7845 H   0  0  0  0  0  0  0  0  0  0  0  0
  142.3125   80.2654  224.8579 H   0  0  0  0  0  0  0  0  0  0  0  0
  141.0606   78.1252  224.6780 H   0  0  0  0  0  0  0  0  0  0  0  0
  140.4469   76.3062  223.3814 H   0  0  0  0  0  0  0  0  0  0  0  0
  139.2993   77.0339  222.2364 H   0  0  0  0  0  0  0  0  0  0  0  0
  143.7045   72.2597  218.0611 H   0  0  0  0  0  0  0  0  0  0  0  0
  143.7878   73.5980  219.2271 H   0  0  0  0  0  0  0  0  0  0  0  0
  146.0026   72.4348  219.0551 H   0  0  0  0  0  0  0  0  0  0  0  0
  145.3355   72.2069  220.6812 H   0  0  0  0  0  0  0  0  0  0  0  0
  147.2540   70.4093  218.9424 H   0  0  0  0  0  0  0  0  0  0  0  0
  147.2444   67.9590  218.5444 H   0  0  0  0  0  0  0  0  0  0  0  0
  145.1174   66.6803  218.7676 H   0  0  0  0  0  0  0  0  0  0  0  0
  143.0083   67.8468  219.3889 H   0  0  0  0  0  0  0  0  0  0  0  0
  141.9233   70.1494  219.1228 H   0  0  0  0  0  0  0  0  0  0  0  0
  142.3841   70.0583  220.8680 H   0  0  0  0  0  0  0  0  0  0  0  0
  138.3096   69.5537  224.0376 H   0  0  0  0  0  0  0  0  0  0  0  0
  138.1727   70.8390  225.2457 H   0  0  0  0  0  0  0  0  0  0  0  0
  140.3950   68.7208  225.3647 H   0  0  0  0  0  0  0  0  0  0  0  0
  138.8046   68.4379  226.1170 H   0  0  0  0  0  0  0  0  0  0  0  0
  1  2  1  0
  2  3  1  0
  3  4  1  0
  4  5  1  0
  5  6  1  0
  6  7  1  0
  7  8  2  0
  8  9  1  0
  9 10  1  0
 10 11  1  0
 11 12  1  0
 12 13  1  0
 13 14  2  0
 14 15  1  0
 15 16  2  0
 16 17  1  0
 17 18  2  0
 18 19  1  0
  9 20  2  0
 20 21  1  0
 21 22  1  0
 22 23  1  0
 23 24  1  0
 24 25  1  0
 25 26  2  0
 26 27  1  0
 27 28  2  0
 28 29  1  0
 29 30  2  0
 30 31  1  0
 21 32  2  0
  5 33  1  0
 33 34  1  0
 34  2  1  0
 32  7  1  0
 19 10  1  0
 31 22  1  0
 18 13  1  0
 30 25  1  0
  1 35  1  0
  1 36  1  0
  1 37  1  0
  2 38  1  1
  3 39  1  0
  3 40  1  0
  4 41  1  0
  4 42  1  0
  5 43  1  6
  6 44  1  0
 11 45  1  0
 11 46  1  0
 12 47  1  0
 12 48  1  0
 14 49  1  0
 15 50  1  0
 16 51  1  0
 17 52  1  0
 19 53  1  0
 19 54  1  0
 23 55  1  0
 23 56  1  0
 24 57  1  0
 24 58  1  0
 26 59  1  0
 27 60  1  0
 28 61  1  0
 29 62  1  0
 31 63  1  0
 31 64  1  0
 33 65  1  0
 33 66  1  0
 34 67  1  0
 34 68  1  0
M  END
>  <smiles>  (29) 
C[C@H]1CC[C@H](Nc2nc(N3CCc4ccccc4C3)nc(N3CCc4ccccc4C3)n2)CC1

>  <score_type>  (29) 
oracle

>  <origin>  (29) 
autodockgpu

>  <m_score__min__energy>  (29) 
-10.98

>  <m_primary>  (29) 
energy

>  <rmsd>  (29) 
4.924797259483461

>  <m_score__min__rmsd>  (29) 
4.924797259483461

>  <meeko>  (29) 
{"free_energy": -10.94, "intermolecular_energy": -12.13, "internal_energy": -1.04, "cluster_size": 24, "cluster_id": 1, "rank_in_cluster": 12}

>  <energy>  (29) 
-10.0

>  <cluster_rmsd>  (29) 
1.27

>  <cluster>  (29) 
2

$$$$

     RDKit          3D

 68 73  0  0  0  0  0  0  0  0999 V2000
  145.7590   73.3900  217.6380 C   0  0  0  0  0  0  0  0  0  0  0  0
  144.6640   72.9520  218.5780 C   0  0  1  0  0  0  0  0  0  0  0  0
  143.2850   73.1100  218.0280 C   0  0  0  0  0  0  0  0  0  0  0  0
  142.6370   71.8080  217.6090 C   0  0  0  0  0  0  0  0  0  0  0  0
  142.5840   70.8150  218.7290 C   0  0  2  0  0  0  0  0  0  0  0  0
  141.2920   70.7470  219.3750 N   0  0  0  0  0  0  0  0  0  0  0  0
  140.9990   71.6740  220.4350 C   0  0  0  0  0  0  0  0  0  0  0  0
  141.1140   72.9850  220.2550 N   0  0  0  0  0  0  0  0  0  0  0  0
  140.8410   73.8420  221.2410 C   0  0  0  0  0  0  0  0  0  0  0  0
  140.9690   75.2570  221.0370 N   0  0  0  0  0  0  0  0  0  0  0  0
  142.1880   75.7220  220.4210 C   0  0  0  0  0  0  0  0  0  0  0  0
  142.0860   77.1730  220.0040 C   0  0  0  0  0  0  0  0  0  0  0  0
  141.5910   77.9120  221.1980 C   0  0  0  0  0  0  0  0  0  0  0  0
  142.1470   79.0880  221.6430 C   0  0  0  0  0  0  0  0  0  0  0  0
  141.6570   79.7510  222.7650 C   0  0  0  0  0  0  0  0  0  0  0  0
  140.5740   79.2090  223.4530 C   0  0  0  0  0  0  0  0  0  0  0  0
  140.0020   78.0320  223.0220 C   0  0  0  0  0  0  0  0  0  0  0  0
  140.5200   77.4050  221.9040 C   0  0  0  0  0  0  0  0  0  0  0  0
  139.8910   76.1350  221.4520 C   0  0  0  0  0  0  0  0  0  0  0  0
  140.4370   73.3690  222.4550 N   0  0  0  0  0  0  0  0  0  0  0  0
  140.3130   72.0490  222.6610 C   0  0  0  0  0  0  0  0  0  0  0  0
  139.8940   71.5220  223.9120 N   0  0  0  0  0  0  0  0  0  0  0  0
  138.6780   70.7400  224.0200 C   0  0  0  0  0  0  0  0  0  0  0  0
  139.0840   69.3580  224.5080 C   0  0  0  0  0  0  0  0  0  0  0  0
  139.7240   69.5580  225.8380 C   0  0  0  0  0  0  0  0  0  0  0  0
  139.5690   68.6030  226.8230 C   0  0  0  0  0  0  0  0  0  0  0  0
  140.1550   68.7690  228.0650 C   0  0  0  0  0  0  0  0  0  0  0  0
  140.9070   69.9140  228.3190 C   0  0  0  0  0  0  0  0  0  0  0  0
  141.0740   70.8800  227.3450 C   0  0  0  0  0  0  0  0  0  0  0  0
  140.4750   70.6830  226.1160 C   0  0  0  0  0  0  0  0  0  0  0  0
  140.6900   71.7640  225.0980 C   0  0  0  0  0  0  0  0  0  0  0  0
  140.5980   71.2240  221.6390 N   0  0  0  0  0  0  0  0  0  0  0  0
  143.6120   71.1260  219.8110 C   0  0  0  0  0  0  0  0  0  0  0  0
  144.8720   71.5410  219.0730 C   0  0  0  0  0  0  0  0  0  0  0  0
  146.6254   73.7366  218.2205 H   0  0  0  0  0  0  0  0  0  0  0  0
  146.0587   72.5425  217.0040 H   0  0  0  0  0  0  0  0  0  0  0  0
  145.3916   74.2104  217.0040 H   0  0  0  0  0  0  0  0  0  0  0  0
  144.7408   73.6432  219.4302 H   0  0  0  0  0  0  0  0  0  0  0  0
  143.3365   73.7694  217.1491 H   0  0  0  0  0  0  0  0  0  0  0  0
  142.6661   73.5284  218.8354 H   0  0  0  0  0  0  0  0  0  0  0  0
  143.2156   71.3755  216.7794 H   0  0  0  0  0  0  0  0  0  0  0  0
  141.6032   72.0285  217.3046 H   0  0  0  0  0  0  0  0  0  0  0  0
  142.8003   69.8497  218.2479 H   0  0  0  0  0  0  0  0  0  0  0  0
  140.5570   70.0500  219.1040 H   0  0  0  0  0  0  0  0  0  0  0  0
  143.0140   75.6148  221.1395 H   0  0  0  0  0  0  0  0  0  0  0  0
  142.3689   75.1180  219.5196 H   0  0  0  0  0  0  0  0  0  0  0  0
  143.0728   77.5535  219.7015 H   0  0  0  0  0  0  0  0  0  0  0  0
  141.4098   77.2978  219.1454 H   0  0  0  0  0  0  0  0  0  0  0  0
  143.0014   79.5163  221.0984 H   0  0  0  0  0  0  0  0  0  0  0  0
  142.1189   80.6902  223.1035 H   0  0  0  0  0  0  0  0  0  0  0  0
  140.1751   79.7210  224.3411 H   0  0  0  0  0  0  0  0  0  0  0  0
  139.1460   77.5977  223.5593 H   0  0  0  0  0  0  0  0  0  0  0  0
  139.3265   75.6773  222.2777 H   0  0  0  0  0  0  0  0  0  0  0  0
  139.1886   76.3153  220.6249 H   0  0  0  0  0  0  0  0  0  0  0  0
  137.9897   71.2081  224.7392 H   0  0  0  0  0  0  0  0  0  0  0  0
  138.1612   70.6795  223.0509 H   0  0  0  0  0  0  0  0  0  0  0  0
  138.1987   68.7123  224.6041 H   0  0  0  0  0  0  0  0  0  0  0  0
  139.7716   68.8697  223.8018 H   0  0  0  0  0  0  0  0  0  0  0  0
  138.9736   67.7011  226.6181 H   0  0  0  0  0  0  0  0  0  0  0  0
  140.0284   68.0039  228.8451 H   0  0  0  0  0  0  0  0  0  0  0  0
  141.3731   70.0506  229.3060 H   0  0  0  0  0  0  0  0  0  0  0  0
  141.6692   71.7835  227.5435 H   0  0  0  0  0  0  0  0  0  0  0  0
  140.4018   72.7319  225.5340 H   0  0  0  0  0  0  0  0  0  0  0  0
  141.7524   71.7725  224.8129 H   0  0  0  0  0  0  0  0  0  0  0  0
  143.8037   70.2342  220.4257 H   0  0  0  0  0  0  0  0  0  0  0  0
  143.2602   71.9165  220.4902 H   0  0  0  0  0  0  0  0  0  0  0  0
  145.0482   70.8666  218.2220 H   0  0  0  0  0  0  0  0  0  0  0  0
  145.7460   71.4889  219.7389 H   0  0  0  0  0  0  0  0  0  0  0  0
  1  2  1  0
  2  3  1  0
  3  4  1  0
  4  5  1  0
  5  6  1  0
  6  7  1  0
  7  8  2  0
  8  9  1  0
  9 10  1  0
 10 11  1  0
 11 12  1  0
 12 13  1  0
 13 14  2  0
 14 15  1  0
 15 16  2  0
 16 17  1  0
 17 18  2  0
 18 19  1  0
  9 20  2  0
 20 21  1  0
 21 22  1  0
 22 23  1  0
 23 24  1  0
 24 25  1  0
 25 26  2  0
 26 27  1  0
 27 28  2  0
 28 29  1  0
 29 30  2  0
 30 31  1  0
 21 32  2  0
  5 33  1  0
 33 34  1  0
 34  2  1  0
 32  7  1  0
 19 10  1  0
 31 22  1  0
 18 13  1  0
 30 25  1  0
  1 35  1  0
  1 36  1  0
  1 37  1  0
  2 38  1  1
  3 39  1  0
  3 40  1  0
  4 41  1  0
  4 42  1  0
  5 43  1  6
  6 44  1  0
 11 45  1  0
 11 46  1  0
 12 47  1  0
 12 48  1  0
 14 49  1  0
 15 50  1  0
 16 51  1  0
 17 52  1  0
 19 53  1  0
 19 54  1  0
 23 55  1  0
 23 56  1  0
 24 57  1  0
 24 58  1  0
 26 59  1  0
 27 60  1  0
 28 61  1  0
 29 62  1  0
 31 63  1  0
 31 64  1  0
 33 65  1  0
 33 66  1  0
 34 67  1  0
 34 68  1  0
M  END
>  <smiles>  (30) 
C[C@H]1CC[C@H](Nc2nc(N3CCc4ccccc4C3)nc(N3CCc4ccccc4C3)n2)CC1

>  <score_type>  (30) 
oracle

>  <origin>  (30) 
autodockgpu

>  <m_score__min__energy>  (30) 
-10.98

>  <m_primary>  (30) 
energy

>  <rmsd>  (30) 
4.786955912438426

>  <m_score__min__rmsd>  (30) 
4.786955912438426

>  <meeko>  (30) 
{"free_energy": -9.12, "intermolecular_energy": -10.31, "internal_energy": -1.47, "cluster_size": 20, "cluster_id": 2, "rank_in_cluster": 20}

>  <energy>  (30) 
-9.98

>  <cluster_rmsd>  (30) 
1.3

>  <cluster>  (30) 
2

$$$$

     RDKit          3D

 68 73  0  0  0  0  0  0  0  0999 V2000
  140.6980   68.9400  227.7680 C   0  0  0  0  0  0  0  0  0  0  0  0
  139.8820   69.7940  226.8310 C   0  0  1  0  0  0  0  0  0  0  0  0
  140.5240   71.0910  226.4660 C   0  0  0  0  0  0  0  0  0  0  0  0
  141.0880   71.1250  225.0620 C   0  0  0  0  0  0  0  0  0  0  0  0
  140.0520   70.8100  224.0280 C   0  0  2  0  0  0  0  0  0  0  0  0
  139.5160   71.9830  223.3750 N   0  0  0  0  0  0  0  0  0  0  0  0
  140.3380   72.6830  222.4260 C   0  0  0  0  0  0  0  0  0  0  0  0
  140.2910   74.0060  222.3160 N   0  0  0  0  0  0  0  0  0  0  0  0
  141.0560   74.6510  221.4330 C   0  0  0  0  0  0  0  0  0  0  0  0
  140.9980   76.0810  221.3220 N   0  0  0  0  0  0  0  0  0  0  0  0
  141.5960   76.6700  220.1490 C   0  0  0  0  0  0  0  0  0  0  0  0
  141.2270   78.1310  220.0050 C   0  0  0  0  0  0  0  0  0  0  0  0
  141.5200   78.7630  221.3210 C   0  0  0  0  0  0  0  0  0  0  0  0
  142.2000   79.9510  221.4540 C   0  0  0  0  0  0  0  0  0  0  0  0
  142.4570   80.5110  222.7020 C   0  0  0  0  0  0  0  0  0  0  0  0
  142.0130   79.8510  223.8460 C   0  0  0  0  0  0  0  0  0  0  0  0
  141.3300   78.6600  223.7330 C   0  0  0  0  0  0  0  0  0  0  0  0
  141.0960   78.1380  222.4760 C   0  0  0  0  0  0  0  0  0  0  0  0
  140.3560   76.8500  222.3710 C   0  0  0  0  0  0  0  0  0  0  0  0
  141.9010   73.9460  220.6280 N   0  0  0  0  0  0  0  0  0  0  0  0
  141.9680   72.6090  220.7210 C   0  0  0  0  0  0  0  0  0  0  0  0
  142.8370   71.8430  219.8980 N   0  0  0  0  0  0  0  0  0  0  0  0
  143.8760   72.4820  219.1150 C   0  0  0  0  0  0  0  0  0  0  0  0
  145.2040   71.9300  219.6110 C   0  0  0  0  0  0  0  0  0  0  0  0
  145.1600   70.4610  219.3640 C   0  0  0  0  0  0  0  0  0  0  0  0
  146.3180   69.7910  219.0220 C   0  0  0  0  0  0  0  0  0  0  0  0
  146.3010   68.4270  218.7890 C   0  0  0  0  0  0  0  0  0  0  0  0
  145.1000   67.7300  218.9020 C   0  0  0  0  0  0  0  0  0  0  0  0
  143.9310   68.3840  219.2440 C   0  0  0  0  0  0  0  0  0  0  0  0
  143.9850   69.7460  219.4690 C   0  0  0  0  0  0  0  0  0  0  0  0
  142.6880   70.4030  219.8370 C   0  0  0  0  0  0  0  0  0  0  0  0
  141.1790   72.0010  221.6240 N   0  0  0  0  0  0  0  0  0  0  0  0
  138.8730   70.0480  224.6220 C   0  0  0  0  0  0  0  0  0  0  0  0
  139.4770   69.0420  225.5850 C   0  0  0  0  0  0  0  0  0  0  0  0
  140.4512   69.1983  228.8084 H   0  0  0  0  0  0  0  0  0  0  0  0
  140.4697   67.8788  227.5896 H   0  0  0  0  0  0  0  0  0  0  0  0
  141.7684   69.1198  227.5896 H   0  0  0  0  0  0  0  0  0  0  0  0
  138.9786   70.0448  227.4063 H   0  0  0  0  0  0  0  0  0  0  0  0
  141.3447   71.2818  227.1732 H   0  0  0  0  0  0  0  0  0  0  0  0
  139.7381   71.8592  226.5120 H   0  0  0  0  0  0  0  0  0  0  0  0
  141.8986   70.3852  224.9880 H   0  0  0  0  0  0  0  0  0  0  0  0
  141.4566   72.1436  224.8710 H   0  0  0  0  0  0  0  0  0  0  0  0
  140.5848   70.1952  223.2876 H   0  0  0  0  0  0  0  0  0  0  0  0
  138.5500   72.3470  223.5640 H   0  0  0  0  0  0  0  0  0  0  0  0
  142.6900   76.5847  220.2257 H   0  0  0  0  0  0  0  0  0  0  0  0
  141.2192   76.1329  219.2661 H   0  0  0  0  0  0  0  0  0  0  0  0
  141.8295   78.6006  219.2135 H   0  0  0  0  0  0  0  0  0  0  0  0
  140.1696   78.2528  219.7275 H   0  0  0  0  0  0  0  0  0  0  0  0
  142.5498   80.4721  220.5506 H   0  0  0  0  0  0  0  0  0  0  0  0
  143.0035   81.4621  222.7841 H   0  0  0  0  0  0  0  0  0  0  0  0
  142.2079   80.2810  224.8395 H   0  0  0  0  0  0  0  0  0  0  0  0
  140.9761   78.1324  224.6310 H   0  0  0  0  0  0  0  0  0  0  0  0
  140.4073   76.3051  223.3252 H   0  0  0  0  0  0  0  0  0  0  0  0
  139.2945   77.0228  222.1399 H   0  0  0  0  0  0  0  0  0  0  0  0
  143.7438   72.2484  218.0483 H   0  0  0  0  0  0  0  0  0  0  0  0
  143.8374   73.5757  219.2265 H   0  0  0  0  0  0  0  0  0  0  0  0
  146.0376   72.3854  219.0563 H   0  0  0  0  0  0  0  0  0  0  0  0
  145.3588   72.1535  220.6769 H   0  0  0  0  0  0  0  0  0  0  0  0
  147.2631   70.3469  218.9339 H   0  0  0  0  0  0  0  0  0  0  0  0
  147.2266   67.8983  218.5173 H   0  0  0  0  0  0  0  0  0  0  0  0
  145.0817   66.6459  218.7168 H   0  0  0  0  0  0  0  0  0  0  0  0
  142.9826   67.8342  219.3346 H   0  0  0  0  0  0  0  0  0  0  0  0
  141.9295   70.1511  219.0812 H   0  0  0  0  0  0  0  0  0  0  0  0
  142.3785   70.0394  220.8280 H   0  0  0  0  0  0  0  0  0  0  0  0
  138.3120   69.5311  223.8295 H   0  0  0  0  0  0  0  0  0  0  0  0
  138.1678   70.7227  225.1293 H   0  0  0  0  0  0  0  0  0  0  0  0
  140.3587   68.5679  225.1290 H   0  0  0  0  0  0  0  0  0  0  0  0
  138.7503   68.2527  225.8275 H   0  0  0  0  0  0  0  0  0  0  0  0
  1  2  1  0
  2  3  1  0
  3  4  1  0
  4  5  1  0
  5  6  1  0
  6  7  1  0
  7  8  2  0
  8  9  1  0
  9 10  1  0
 10 11  1  0
 11 12  1  0
 12 13  1  0
 13 14  2  0
 14 15  1  0
 15 16  2  0
 16 17  1  0
 17 18  2  0
 18 19  1  0
  9 20  2  0
 20 21  1  0
 21 22  1  0
 22 23  1  0
 23 24  1  0
 24 25  1  0
 25 26  2  0
 26 27  1  0
 27 28  2  0
 28 29  1  0
 29 30  2  0
 30 31  1  0
 21 32  2  0
  5 33  1  0
 33 34  1  0
 34  2  1  0
 32  7  1  0
 19 10  1  0
 31 22  1  0
 18 13  1  0
 30 25  1  0
  1 35  1  0
  1 36  1  0
  1 37  1  0
  2 38  1  1
  3 39  1  0
  3 40  1  0
  4 41  1  0
  4 42  1  0
  5 43  1  6
  6 44  1  0
 11 45  1  0
 11 46  1  0
 12 47  1  0
 12 48  1  0
 14 49  1  0
 15 50  1  0
 16 51  1  0
 17 52  1  0
 19 53  1  0
 19 54  1  0
 23 55  1  0
 23 56  1  0
 24 57  1  0
 24 58  1  0
 26 59  1  0
 27 60  1  0
 28 61  1  0
 29 62  1  0
 31 63  1  0
 31 64  1  0
 33 65  1  0
 33 66  1  0
 34 67  1  0
 34 68  1  0
M  END
>  <smiles>  (31) 
C[C@H]1CC[C@H](Nc2nc(N3CCc4ccccc4C3)nc(N3CCc4ccccc4C3)n2)CC1

>  <score_type>  (31) 
oracle

>  <origin>  (31) 
autodockgpu

>  <m_score__min__energy>  (31) 
-10.98

>  <m_primary>  (31) 
energy

>  <rmsd>  (31) 
4.909510091443091

>  <m_score__min__rmsd>  (31) 
4.909510091443091

>  <meeko>  (31) 
{"free_energy": -10.97, "intermolecular_energy": -12.16, "internal_energy": -1.03, "cluster_size": 24, "cluster_id": 1, "rank_in_cluster": 3}

>  <energy>  (31) 
-9.98

>  <cluster_rmsd>  (31) 
1.34

>  <cluster>  (31) 
2

$$$$

     RDKit          3D

 68 73  0  0  0  0  0  0  0  0999 V2000
  146.7050   73.7900  220.4580 C   0  0  0  0  0  0  0  0  0  0  0  0
  145.3000   73.2650  220.6090 C   0  0  1  0  0  0  0  0  0  0  0  0
  144.2470   74.1630  220.0490 C   0  0  0  0  0  0  0  0  0  0  0  0
  143.6570   73.6790  218.7410 C   0  0  0  0  0  0  0  0  0  0  0  0
  143.0850   72.3000  218.8530 C   0  0  2  0  0  0  0  0  0  0  0  0
  141.6470   72.2850  219.0060 N   0  0  0  0  0  0  0  0  0  0  0  0
  141.0670   72.9210  220.1580 C   0  0  0  0  0  0  0  0  0  0  0  0
  140.9680   74.2430  220.2390 N   0  0  0  0  0  0  0  0  0  0  0  0
  140.4300   74.8290  221.3100 C   0  0  0  0  0  0  0  0  0  0  0  0
  140.3270   76.2580  221.3880 N   0  0  0  0  0  0  0  0  0  0  0  0
  140.4190   76.9900  220.1480 C   0  0  0  0  0  0  0  0  0  0  0  0
  140.0160   78.4390  220.3200 C   0  0  0  0  0  0  0  0  0  0  0  0
  140.7950   78.9490  221.4830 C   0  0  0  0  0  0  0  0  0  0  0  0
  141.4670   80.1480  221.4740 C   0  0  0  0  0  0  0  0  0  0  0  0
  142.1870   80.5920  222.5800 C   0  0  0  0  0  0  0  0  0  0  0  0
  142.2250   79.8010  223.7260 C   0  0  0  0  0  0  0  0  0  0  0  0
  141.5570   78.5960  223.7540 C   0  0  0  0  0  0  0  0  0  0  0  0
  140.8550   78.1910  222.6350 C   0  0  0  0  0  0  0  0  0  0  0  0
  140.1390   76.8880  222.6820 C   0  0  0  0  0  0  0  0  0  0  0  0
  139.9720   74.0630  222.3410 N   0  0  0  0  0  0  0  0  0  0  0  0
  140.0600   72.7250  222.2830 C   0  0  0  0  0  0  0  0  0  0  0  0
  139.5940   71.8960  223.3380 N   0  0  0  0  0  0  0  0  0  0  0  0
  138.3660   71.1380  223.2020 C   0  0  0  0  0  0  0  0  0  0  0  0
  138.7400   69.6680  223.3200 C   0  0  0  0  0  0  0  0  0  0  0  0
  139.3370   69.5000  224.6740 C   0  0  0  0  0  0  0  0  0  0  0  0
  139.1380   68.3220  225.3680 C   0  0  0  0  0  0  0  0  0  0  0  0
  139.6830   68.1440  226.6260 C   0  0  0  0  0  0  0  0  0  0  0  0
  140.4400   69.1670  227.1940 C   0  0  0  0  0  0  0  0  0  0  0  0
  140.6510   70.3520  226.5150 C   0  0  0  0  0  0  0  0  0  0  0  0
  140.0910   70.4960  225.2600 C   0  0  0  0  0  0  0  0  0  0  0  0
  140.3520   71.8020  224.5690 C   0  0  0  0  0  0  0  0  0  0  0  0
  140.6100   72.1790  221.1850 N   0  0  0  0  0  0  0  0  0  0  0  0
  143.6700   71.5380  220.0370 C   0  0  0  0  0  0  0  0  0  0  0  0
  145.1510   71.8710  220.0470 C   0  0  0  0  0  0  0  0  0  0  0  0
  147.1441   73.9541  221.4531 H   0  0  0  0  0  0  0  0  0  0  0  0
  147.3125   73.0582  219.9053 H   0  0  0  0  0  0  0  0  0  0  0  0
  146.6837   74.7408  219.9053 H   0  0  0  0  0  0  0  0  0  0  0  0
  145.1357   73.2306  221.6961 H   0  0  0  0  0  0  0  0  0  0  0  0
  144.6915   75.1552  219.8819 H   0  0  0  0  0  0  0  0  0  0  0  0
  143.4254   74.1848  220.7801 H   0  0  0  0  0  0  0  0  0  0  0  0
  144.4479   73.6732  217.9766 H   0  0  0  0  0  0  0  0  0  0  0  0
  142.8393   74.3619  218.4669 H   0  0  0  0  0  0  0  0  0  0  0  0
  143.3541   71.8162  217.9024 H   0  0  0  0  0  0  0  0  0  0  0  0
  141.0070   71.8310  218.3100 H   0  0  0  0  0  0  0  0  0  0  0  0
  141.4572   76.9495  219.7867 H   0  0  0  0  0  0  0  0  0  0  0  0
  139.7309   76.5269  219.4254 H   0  0  0  0  0  0  0  0  0  0  0  0
  140.2613   79.0136  219.4146 H   0  0  0  0  0  0  0  0  0  0  0  0
  138.9333   78.5380  220.4869 H   0  0  0  0  0  0  0  0  0  0  0  0
  141.4352   80.7731  220.5694 H   0  0  0  0  0  0  0  0  0  0  0  0
  142.7187   81.5545  222.5492 H   0  0  0  0  0  0  0  0  0  0  0  0
  142.7882   80.1382  224.6086 H   0  0  0  0  0  0  0  0  0  0  0  0
  141.5823   77.9652  224.6548 H   0  0  0  0  0  0  0  0  0  0  0  0
  140.5592   76.2537  223.4764 H   0  0  0  0  0  0  0  0  0  0  0  0
  139.0703   77.0330  222.8983 H   0  0  0  0  0  0  0  0  0  0  0  0
  137.6604   71.4142  223.9994 H   0  0  0  0  0  0  0  0  0  0  0  0
  137.8799   71.3448  222.2372 H   0  0  0  0  0  0  0  0  0  0  0  0
  137.8449   69.0371  223.2167 H   0  0  0  0  0  0  0  0  0  0  0  0
  139.4450   69.3685  222.5305 H   0  0  0  0  0  0  0  0  0  0  0  0
  138.5399   67.5176  224.9150 H   0  0  0  0  0  0  0  0  0  0  0  0
  139.5207   67.2038  227.1735 H   0  0  0  0  0  0  0  0  0  0  0  0
  140.8749   69.0296  228.1950 H   0  0  0  0  0  0  0  0  0  0  0  0
  141.2492   71.1597  226.9620 H   0  0  0  0  0  0  0  0  0  0  0  0
  140.0600   72.6268  225.2356 H   0  0  0  0  0  0  0  0  0  0  0  0
  141.4234   71.8640  224.3276 H   0  0  0  0  0  0  0  0  0  0  0  0
  143.5209   70.4558  219.9084 H   0  0  0  0  0  0  0  0  0  0  0  0
  143.1835   71.8202  220.9824 H   0  0  0  0  0  0  0  0  0  0  0  0
  145.5509   71.8344  219.0229 H   0  0  0  0  0  0  0  0  0  0  0  0
  145.7067   71.1454  220.6591 H   0  0  0  0  0  0  0  0  0  0  0  0
  1  2  1  0
  2  3  1  0
  3  4  1  0
  4  5  1  0
  5  6  1  0
  6  7  1  0
  7  8  2  0
  8  9  1  0
  9 10  1  0
 10 11  1  0
 11 12  1  0
 12 13  1  0
 13 14  2  0
 14 15  1  0
 15 16  2  0
 16 17  1  0
 17 18  2  0
 18 19  1  0
  9 20  2  0
 20 21  1  0
 21 22  1  0
 22 23  1  0
 23 24  1  0
 24 25  1  0
 25 26  2  0
 26 27  1  0
 27 28  2  0
 28 29  1  0
 29 30  2  0
 30 31  1  0
 21 32  2  0
  5 33  1  0
 33 34  1  0
 34  2  1  0
 32  7  1  0
 19 10  1  0
 31 22  1  0
 18 13  1  0
 30 25  1  0
  1 35  1  0
  1 36  1  0
  1 37  1  0
  2 38  1  1
  3 39  1  0
  3 40  1  0
  4 41  1  0
  4 42  1  0
  5 43  1  6
  6 44  1  0
 11 45  1  0
 11 46  1  0
 12 47  1  0
 12 48  1  0
 14 49  1  0
 15 50  1  0
 16 51  1  0
 17 52  1  0
 19 53  1  0
 19 54  1  0
 23 55  1  0
 23 56  1  0
 24 57  1  0
 24 58  1  0
 26 59  1  0
 27 60  1  0
 28 61  1  0
 29 62  1  0
 31 63  1  0
 31 64  1  0
 33 65  1  0
 33 66  1  0
 34 67  1  0
 34 68  1  0
M  END
>  <smiles>  (32) 
C[C@H]1CC[C@H](Nc2nc(N3CCc4ccccc4C3)nc(N3CCc4ccccc4C3)n2)CC1

>  <score_type>  (32) 
oracle

>  <origin>  (32) 
autodockgpu

>  <m_score__min__energy>  (32) 
-10.98

>  <m_primary>  (32) 
energy

>  <rmsd>  (32) 
4.913399643518085

>  <m_score__min__rmsd>  (32) 
4.913399643518085

>  <meeko>  (32) 
{"free_energy": -9.97, "intermolecular_energy": -11.16, "internal_energy": -1.4, "cluster_size": 20, "cluster_id": 2, "rank_in_cluster": 8}

>  <energy>  (32) 
-9.97

>  <cluster_rmsd>  (32) 
1.32

>  <cluster>  (32) 
2

$$$$

     RDKit          3D

 68 73  0  0  0  0  0  0  0  0999 V2000
  146.6680   73.7240  220.3540 C   0  0  0  0  0  0  0  0  0  0  0  0
  145.3640   72.9930  220.5500 C   0  0  1  0  0  0  0  0  0  0  0  0
  144.1510   73.8380  220.3390 C   0  0  0  0  0  0  0  0  0  0  0  0
  143.4300   73.5640  219.0360 C   0  0  0  0  0  0  0  0  0  0  0  0
  143.0290   72.1280  218.9020 C   0  0  2  0  0  0  0  0  0  0  0  0
  141.6390   71.8870  219.2190 N   0  0  0  0  0  0  0  0  0  0  0  0
  141.0610   72.5600  220.3510 C   0  0  0  0  0  0  0  0  0  0  0  0
  140.9110   73.8800  220.3660 N   0  0  0  0  0  0  0  0  0  0  0  0
  140.3750   74.5010  221.4180 C   0  0  0  0  0  0  0  0  0  0  0  0
  140.2170   75.9270  221.4240 N   0  0  0  0  0  0  0  0  0  0  0  0
  140.1530   76.5830  220.1410 C   0  0  0  0  0  0  0  0  0  0  0  0
  139.7040   78.0240  220.2700 C   0  0  0  0  0  0  0  0  0  0  0  0
  140.5720   78.6340  221.3150 C   0  0  0  0  0  0  0  0  0  0  0  0
  141.1860   79.8550  221.1690 C   0  0  0  0  0  0  0  0  0  0  0  0
  141.9910   80.3940  222.1690 C   0  0  0  0  0  0  0  0  0  0  0  0
  142.1790   79.6770  223.3480 C   0  0  0  0  0  0  0  0  0  0  0  0
  141.5710   78.4510  223.5140 C   0  0  0  0  0  0  0  0  0  0  0  0
  140.7800   77.9520  222.4970 C   0  0  0  0  0  0  0  0  0  0  0  0
  140.1310   76.6270  222.6910 C   0  0  0  0  0  0  0  0  0  0  0  0
  139.9730   73.7730  222.4990 N   0  0  0  0  0  0  0  0  0  0  0  0
  140.1130   72.4390  222.5080 C   0  0  0  0  0  0  0  0  0  0  0  0
  139.7060   71.6490  223.6170 N   0  0  0  0  0  0  0  0  0  0  0  0
  138.4190   70.9810  223.6220 C   0  0  0  0  0  0  0  0  0  0  0  0
  138.6980   69.4890  223.7160 C   0  0  0  0  0  0  0  0  0  0  0  0
  139.4240   69.2830  225.0010 C   0  0  0  0  0  0  0  0  0  0  0  0
  139.2170   68.1260  225.7250 C   0  0  0  0  0  0  0  0  0  0  0  0
  139.8810   67.9140  226.9200 C   0  0  0  0  0  0  0  0  0  0  0  0
  140.7660   68.8810  227.3910 C   0  0  0  0  0  0  0  0  0  0  0  0
  140.9850   70.0450  226.6800 C   0  0  0  0  0  0  0  0  0  0  0  0
  140.3050   70.2240  225.4910 C   0  0  0  0  0  0  0  0  0  0  0  0
  140.5830   71.5050  224.7610 C   0  0  0  0  0  0  0  0  0  0  0  0
  140.6590   71.8560  221.4260 N   0  0  0  0  0  0  0  0  0  0  0  0
  143.8590   71.2210  219.8030 C   0  0  0  0  0  0  0  0  0  0  0  0
  145.2820   71.7410  219.7090 C   0  0  0  0  0  0  0  0  0  0  0  0
  147.1027   73.9677  221.3346 H   0  0  0  0  0  0  0  0  0  0  0  0
  147.3655   73.0854  219.7922 H   0  0  0  0  0  0  0  0  0  0  0  0
  146.4871   74.6523  219.7922 H   0  0  0  0  0  0  0  0  0  0  0  0
  145.3662   72.7084  221.6125 H   0  0  0  0  0  0  0  0  0  0  0  0
  144.4588   74.8940  220.3488 H   0  0  0  0  0  0  0  0  0  0  0  0
  143.4482   73.5948  221.1495 H   0  0  0  0  0  0  0  0  0  0  0  0
  144.0965   73.8250  218.2008 H   0  0  0  0  0  0  0  0  0  0  0  0
  142.5139   74.1728  219.0228 H   0  0  0  0  0  0  0  0  0  0  0  0
  143.2046   71.8951  217.8414 H   0  0  0  0  0  0  0  0  0  0  0  0
  141.0320   71.2420  218.6580 H   0  0  0  0  0  0  0  0  0  0  0  0
  141.1511   76.5606  219.6791 H   0  0  0  0  0  0  0  0  0  0  0  0
  139.4188   76.0495  219.5195 H   0  0  0  0  0  0  0  0  0  0  0  0
  139.8310   78.5508  219.3127 H   0  0  0  0  0  0  0  0  0  0  0  0
  138.6401   78.0911  220.5413 H   0  0  0  0  0  0  0  0  0  0  0  0
  141.0375   80.4212  220.2377 H   0  0  0  0  0  0  0  0  0  0  0  0
  142.4722   81.3733  222.0296 H   0  0  0  0  0  0  0  0  0  0  0  0
  142.8128   80.0891  224.1470 H   0  0  0  0  0  0  0  0  0  0  0  0
  141.7135   77.8785  224.4424 H   0  0  0  0  0  0  0  0  0  0  0  0
  140.6561   76.0594  223.4733 H   0  0  0  0  0  0  0  0  0  0  0  0
  139.0837   76.7437  223.0064 H   0  0  0  0  0  0  0  0  0  0  0  0
  137.8249   71.3103  224.4872 H   0  0  0  0  0  0  0  0  0  0  0  0
  137.8476   71.2189  222.7126 H   0  0  0  0  0  0  0  0  0  0  0  0
  137.7544   68.9237  223.7161 H   0  0  0  0  0  0  0  0  0  0  0  0
  139.2911   69.1369  222.8591 H   0  0  0  0  0  0  0  0  0  0  0  0
  138.5174   67.3654  225.3481 H   0  0  0  0  0  0  0  0  0  0  0  0
  139.7116   66.9904  227.4929 H   0  0  0  0  0  0  0  0  0  0  0  0
  141.2968   68.7159  228.3402 H   0  0  0  0  0  0  0  0  0  0  0  0
  141.6831   70.8098  227.0512 H   0  0  0  0  0  0  0  0  0  0  0  0
  140.4240   72.3513  225.4454 H   0  0  0  0  0  0  0  0  0  0  0  0
  141.6240   71.4883  224.4059 H   0  0  0  0  0  0  0  0  0  0  0  0
  143.8070   70.1798  219.4519 H   0  0  0  0  0  0  0  0  0  0  0  0
  143.4905   71.2305  220.8394 H   0  0  0  0  0  0  0  0  0  0  0  0
  145.5282   71.9746  218.6627 H   0  0  0  0  0  0  0  0  0  0  0  0
  145.9954   70.9850  220.0688 H   0  0  0  0  0  0  0  0  0  0  0  0
  1  2  1  0
  2  3  1  0
  3  4  1  0
  4  5  1  0
  5  6  1  0
  6  7  1  0
  7  8  2  0
  8  9  1  0
  9 10  1  0
 10 11  1  0
 11 12  1  0
 12 13  1  0
 13 14  2  0
 14 15  1  0
 15 16  2  0
 16 17  1  0
 17 18  2  0
 18 19  1  0
  9 20  2  0
 20 21  1  0
 21 22  1  0
 22 23  1  0
 23 24  1  0
 24 25  1  0
 25 26  2  0
 26 27  1  0
 27 28  2  0
 28 29  1  0
 29 30  2  0
 30 31  1  0
 21 32  2  0
  5 33  1  0
 33 34  1  0
 34  2  1  0
 32  7  1  0
 19 10  1  0
 31 22  1  0
 18 13  1  0
 30 25  1  0
  1 35  1  0
  1 36  1  0
  1 37  1  0
  2 38  1  1
  3 39  1  0
  3 40  1  0
  4 41  1  0
  4 42  1  0
  5 43  1  6
  6 44  1  0
 11 45  1  0
 11 46  1  0
 12 47  1  0
 12 48  1  0
 14 49  1  0
 15 50  1  0
 16 51  1  0
 17 52  1  0
 19 53  1  0
 19 54  1  0
 23 55  1  0
 23 56  1  0
 24 57  1  0
 24 58  1  0
 26 59  1  0
 27 60  1  0
 28 61  1  0
 29 62  1  0
 31 63  1  0
 31 64  1  0
 33 65  1  0
 33 66  1  0
 34 67  1  0
 34 68  1  0
M  END
>  <smiles>  (33) 
C[C@H]1CC[C@H](Nc2nc(N3CCc4ccccc4C3)nc(N3CCc4ccccc4C3)n2)CC1

>  <score_type>  (33) 
oracle

>  <origin>  (33) 
autodockgpu

>  <m_score__min__energy>  (33) 
-10.98

>  <m_primary>  (33) 
energy

>  <rmsd>  (33) 
4.697070678869344

>  <m_score__min__rmsd>  (33) 
4.697070678869344

>  <meeko>  (33) 
{"free_energy": -10.0, "intermolecular_energy": -11.19, "internal_energy": -1.3, "cluster_size": 20, "cluster_id": 2, "rank_in_cluster": 5}

>  <energy>  (33) 
-9.95

>  <cluster_rmsd>  (33) 
1.31

>  <cluster>  (33) 
2

$$$$

     RDKit          3D

 68 73  0  0  0  0  0  0  0  0999 V2000
  134.1590   75.2680  226.0880 C   0  0  0  0  0  0  0  0  0  0  0  0
  135.1350   75.2190  224.9400 C   0  0  1  0  0  0  0  0  0  0  0  0
  135.3560   73.8520  224.3810 C   0  0  0  0  0  0  0  0  0  0  0  0
  134.6820   73.6160  223.0470 C   0  0  0  0  0  0  0  0  0  0  0  0
  135.1030   74.6160  222.0150 C   0  0  2  0  0  0  0  0  0  0  0  0
  136.1080   74.1150  221.1050 N   0  0  0  0  0  0  0  0  0  0  0  0
  137.4510   73.9360  221.5880 C   0  0  0  0  0  0  0  0  0  0  0  0
  137.8170   72.8220  222.2110 N   0  0  0  0  0  0  0  0  0  0  0  0
  139.0630   72.6600  222.6580 C   0  0  0  0  0  0  0  0  0  0  0  0
  139.4490   71.4520  223.3300 N   0  0  0  0  0  0  0  0  0  0  0  0
  138.5640   70.3200  223.2010 C   0  0  0  0  0  0  0  0  0  0  0  0
  139.2070   69.0450  223.7040 C   0  0  0  0  0  0  0  0  0  0  0  0
  139.7370   69.3570  225.0600 C   0  0  0  0  0  0  0  0  0  0  0  0
  139.5470   68.5420  226.1510 C   0  0  0  0  0  0  0  0  0  0  0  0
  140.0560   68.8670  227.4050 C   0  0  0  0  0  0  0  0  0  0  0  0
  140.7780   70.0480  227.5580 C   0  0  0  0  0  0  0  0  0  0  0  0
  140.9800   70.8780  226.4770 C   0  0  0  0  0  0  0  0  0  0  0  0
  140.4570   70.5190  225.2490 C   0  0  0  0  0  0  0  0  0  0  0  0
  140.6840   71.4260  224.0920 C   0  0  0  0  0  0  0  0  0  0  0  0
  139.9810   73.6520  222.4750 N   0  0  0  0  0  0  0  0  0  0  0  0
  139.6360   74.7870  221.8480 C   0  0  0  0  0  0  0  0  0  0  0  0
  140.5660   75.8410  221.6400 N   0  0  0  0  0  0  0  0  0  0  0  0
  141.2340   76.0020  220.3630 C   0  0  0  0  0  0  0  0  0  0  0  0
  140.8270   77.3640  219.8210 C   0  0  0  0  0  0  0  0  0  0  0  0
  141.3020   78.3660  220.8150 C   0  0  0  0  0  0  0  0  0  0  0  0
  141.7410   79.6020  220.3850 C   0  0  0  0  0  0  0  0  0  0  0  0
  142.1860   80.5480  221.2910 C   0  0  0  0  0  0  0  0  0  0  0  0
  142.1880   80.2430  222.6500 C   0  0  0  0  0  0  0  0  0  0  0  0
  141.7520   79.0110  223.1000 C   0  0  0  0  0  0  0  0  0  0  0  0
  141.3150   78.0910  222.1680 C   0  0  0  0  0  0  0  0  0  0  0  0
  140.8530   76.7710  222.7120 C   0  0  0  0  0  0  0  0  0  0  0  0
  138.3690   74.9060  221.4150 N   0  0  0  0  0  0  0  0  0  0  0  0
  135.6630   75.8830  222.6500 C   0  0  0  0  0  0  0  0  0  0  0  0
  134.7640   76.1800  223.8360 C   0  0  0  0  0  0  0  0  0  0  0  0
  134.7103   75.2403  227.0394 H   0  0  0  0  0  0  0  0  0  0  0  0
  133.5723   76.1967  226.0311 H   0  0  0  0  0  0  0  0  0  0  0  0
  133.4822   74.4027  226.0311 H   0  0  0  0  0  0  0  0  0  0  0  0
  136.0915   75.5354  225.3816 H   0  0  0  0  0  0  0  0  0  0  0  0
  134.9659   73.1169  225.1004 H   0  0  0  0  0  0  0  0  0  0  0  0
  136.4382   73.7479  224.2135 H   0  0  0  0  0  0  0  0  0  0  0  0
  133.5927   73.6852  223.1835 H   0  0  0  0  0  0  0  0  0  0  0  0
  134.9787   72.6184  222.6909 H   0  0  0  0  0  0  0  0  0  0  0  0
  134.1819   74.8316  221.4537 H   0  0  0  0  0  0  0  0  0  0  0  0
  135.9000   73.8740  220.1060 H   0  0  0  0  0  0  0  0  0  0  0  0
  137.6515   70.5129  223.7842 H   0  0  0  0  0  0  0  0  0  0  0  0
  138.3302   70.1879  222.1343 H   0  0  0  0  0  0  0  0  0  0  0  0
  138.4613   68.2384  223.7618 H   0  0  0  0  0  0  0  0  0  0  0  0
  140.0058   68.7043  223.0289 H   0  0  0  0  0  0  0  0  0  0  0  0
  138.9778   67.6086  226.0296 H   0  0  0  0  0  0  0  0  0  0  0  0
  139.8902   68.1999  228.2638 H   0  0  0  0  0  0  0  0  0  0  0  0
  141.1873   70.3183  228.5426 H   0  0  0  0  0  0  0  0  0  0  0  0
  141.5491   71.8126  226.5896 H   0  0  0  0  0  0  0  0  0  0  0  0
  140.9313   72.4374  224.4467 H   0  0  0  0  0  0  0  0  0  0  0  0
  141.5221   71.0733  223.4729 H   0  0  0  0  0  0  0  0  0  0  0  0
  142.3248   75.9592  220.4985 H   0  0  0  0  0  0  0  0  0  0  0  0
  140.9504   75.1997  219.6660 H   0  0  0  0  0  0  0  0  0  0  0  0
  141.2999   77.5424  218.8440 H   0  0  0  0  0  0  0  0  0  0  0  0
  139.7385   77.4285  219.6758 H   0  0  0  0  0  0  0  0  0  0  0  0
  141.7369   79.8373  219.3105 H   0  0  0  0  0  0  0  0  0  0  0  0
  142.5347   81.5310  220.9417 H   0  0  0  0  0  0  0  0  0  0  0  0
  142.5410   80.9919  223.3742 H   0  0  0  0  0  0  0  0  0  0  0  0
  141.7532   78.7697  224.1732 H   0  0  0  0  0  0  0  0  0  0  0  0
  141.6419   76.3497  223.3525 H   0  0  0  0  0  0  0  0  0  0  0  0
  139.9324   76.9332  223.2918 H   0  0  0  0  0  0  0  0  0  0  0  0
  135.6376   76.7156  221.9315 H   0  0  0  0  0  0  0  0  0  0  0  0
  136.7112   75.7538  222.9575 H   0  0  0  0  0  0  0  0  0  0  0  0
  133.7105   76.0382  223.5532 H   0  0  0  0  0  0  0  0  0  0  0  0
  134.8936   77.2204  224.1688 H   0  0  0  0  0  0  0  0  0  0  0  0
  1  2  1  0
  2  3  1  0
  3  4  1  0
  4  5  1  0
  5  6  1  0
  6  7  1  0
  7  8  2  0
  8  9  1  0
  9 10  1  0
 10 11  1  0
 11 12  1  0
 12 13  1  0
 13 14  2  0
 14 15  1  0
 15 16  2  0
 16 17  1  0
 17 18  2  0
 18 19  1  0
  9 20  2  0
 20 21  1  0
 21 22  1  0
 22 23  1  0
 23 24  1  0
 24 25  1  0
 25 26  2  0
 26 27  1  0
 27 28  2  0
 28 29  1  0
 29 30  2  0
 30 31  1  0
 21 32  2  0
  5 33  1  0
 33 34  1  0
 34  2  1  0
 32  7  1  0
 19 10  1  0
 31 22  1  0
 18 13  1  0
 30 25  1  0
  1 35  1  0
  1 36  1  0
  1 37  1  0
  2 38  1  1
  3 39  1  0
  3 40  1  0
  4 41  1  0
  4 42  1  0
  5 43  1  6
  6 44  1  0
 11 45  1  0
 11 46  1  0
 12 47  1  0
 12 48  1  0
 14 49  1  0
 15 50  1  0
 16 51  1  0
 17 52  1  0
 19 53  1  0
 19 54  1  0
 23 55  1  0
 23 56  1  0
 24 57  1  0
 24 58  1  0
 26 59  1  0
 27 60  1  0
 28 61  1  0
 29 62  1  0
 31 63  1  0
 31 64  1  0
 33 65  1  0
 33 66  1  0
 34 67  1  0
 34 68  1  0
M  END
>  <smiles>  (34) 
C[C@H]1CC[C@H](Nc2nc(N3CCc4ccccc4C3)nc(N3CCc4ccccc4C3)n2)CC1

>  <score_type>  (34) 
oracle

>  <origin>  (34) 
autodockgpu

>  <m_score__min__energy>  (34) 
-10.98

>  <m_primary>  (34) 
energy

>  <rmsd>  (34) 
10.788346487101002

>  <m_score__min__rmsd>  (34) 
10.788346487101002

>  <meeko>  (34) 
{"free_energy": -9.2, "intermolecular_energy": -10.39, "internal_energy": -1.4, "cluster_size": 5, "cluster_id": 3, "rank_in_cluster": 2}

>  <energy>  (34) 
-9.93

>  <cluster_rmsd>  (34) 
1.21

>  <cluster>  (34) 
2

$$$$

     RDKit          3D

 68 73  0  0  0  0  0  0  0  0999 V2000
  140.6170   68.5470  227.4570 C   0  0  0  0  0  0  0  0  0  0  0  0
  139.8370   69.5370  226.6300 C   0  0  1  0  0  0  0  0  0  0  0  0
  140.5690   70.8060  226.3410 C   0  0  0  0  0  0  0  0  0  0  0  0
  141.0770   70.9120  224.9190 C   0  0  0  0  0  0  0  0  0  0  0  0
  139.9780   70.7660  223.9120 C   0  0  2  0  0  0  0  0  0  0  0  0
  139.5150   72.0280  223.3810 N   0  0  0  0  0  0  0  0  0  0  0  0
  140.3380   72.7210  222.4260 C   0  0  0  0  0  0  0  0  0  0  0  0
  140.2930   74.0430  222.3090 N   0  0  0  0  0  0  0  0  0  0  0  0
  141.0580   74.6830  221.4220 C   0  0  0  0  0  0  0  0  0  0  0  0
  141.0030   76.1110  221.3020 N   0  0  0  0  0  0  0  0  0  0  0  0
  141.6110   76.6930  220.1310 C   0  0  0  0  0  0  0  0  0  0  0  0
  141.2440   78.1540  219.9750 C   0  0  0  0  0  0  0  0  0  0  0  0
  141.5270   78.7930  221.2900 C   0  0  0  0  0  0  0  0  0  0  0  0
  142.2070   79.9810  221.4220 C   0  0  0  0  0  0  0  0  0  0  0  0
  142.4550   80.5480  222.6690 C   0  0  0  0  0  0  0  0  0  0  0  0
  142.0010   79.8950  223.8130 C   0  0  0  0  0  0  0  0  0  0  0  0
  141.3170   78.7040  223.7020 C   0  0  0  0  0  0  0  0  0  0  0  0
  141.0930   78.1740  222.4450 C   0  0  0  0  0  0  0  0  0  0  0  0
  140.3530   76.8870  222.3420 C   0  0  0  0  0  0  0  0  0  0  0  0
  141.9020   73.9710  220.6200 N   0  0  0  0  0  0  0  0  0  0  0  0
  141.9660   72.6350  220.7210 C   0  0  0  0  0  0  0  0  0  0  0  0
  142.8330   71.8620  219.9020 N   0  0  0  0  0  0  0  0  0  0  0  0
  143.8560   72.4970  219.0950 C   0  0  0  0  0  0  0  0  0  0  0  0
  145.1950   71.9680  219.5850 C   0  0  0  0  0  0  0  0  0  0  0  0
  145.1640   70.4940  219.3660 C   0  0  0  0  0  0  0  0  0  0  0  0
  146.3250   69.8290  219.0220 C   0  0  0  0  0  0  0  0  0  0  0  0
  146.3190   68.4620  218.8150 C   0  0  0  0  0  0  0  0  0  0  0  0
  145.1270   67.7540  218.9550 C   0  0  0  0  0  0  0  0  0  0  0  0
  143.9560   68.4030  219.2990 C   0  0  0  0  0  0  0  0  0  0  0  0
  143.9980   69.7690  219.4980 C   0  0  0  0  0  0  0  0  0  0  0  0
  142.6980   70.4200  219.8700 C   0  0  0  0  0  0  0  0  0  0  0  0
  141.1770   72.0340  221.6280 N   0  0  0  0  0  0  0  0  0  0  0  0
  138.7650   70.0520  224.4970 C   0  0  0  0  0  0  0  0  0  0  0  0
  139.3230   68.9260  225.3480 C   0  0  0  0  0  0  0  0  0  0  0  0
  140.4546   68.7531  228.5252 H   0  0  0  0  0  0  0  0  0  0  0  0
  140.2773   67.5269  227.2246 H   0  0  0  0  0  0  0  0  0  0  0  0
  141.6883   68.6386  227.2246 H   0  0  0  0  0  0  0  0  0  0  0  0
  138.9801   69.8085  227.2641 H   0  0  0  0  0  0  0  0  0  0  0  0
  141.4303   70.8716  227.0221 H   0  0  0  0  0  0  0  0  0  0  0  0
  139.8521   71.6277  226.4856 H   0  0  0  0  0  0  0  0  0  0  0  0
  141.8207   70.1196  224.7488 H   0  0  0  0  0  0  0  0  0  0  0  0
  141.5195   71.9111  224.7927 H   0  0  0  0  0  0  0  0  0  0  0  0
  140.4282   70.1747  223.1010 H   0  0  0  0  0  0  0  0  0  0  0  0
  138.6020   72.4620  223.6610 H   0  0  0  0  0  0  0  0  0  0  0  0
  142.7043   76.6076  220.2175 H   0  0  0  0  0  0  0  0  0  0  0  0
  141.2412   76.1510  219.2481 H   0  0  0  0  0  0  0  0  0  0  0  0
  141.8532   78.6186  219.1857 H   0  0  0  0  0  0  0  0  0  0  0  0
  140.1891   78.2752  219.6878 H   0  0  0  0  0  0  0  0  0  0  0  0
  142.5644   80.4968  220.5185 H   0  0  0  0  0  0  0  0  0  0  0  0
  143.0021   81.4989  222.7501 H   0  0  0  0  0  0  0  0  0  0  0  0
  142.1888   80.3305  224.8055 H   0  0  0  0  0  0  0  0  0  0  0  0
  140.9546   78.1827  224.6002 H   0  0  0  0  0  0  0  0  0  0  0  0
  140.3963   76.3477  223.2997 H   0  0  0  0  0  0  0  0  0  0  0  0
  139.2935   77.0593  222.1017 H   0  0  0  0  0  0  0  0  0  0  0  0
  143.7137   72.2424  218.0344 H   0  0  0  0  0  0  0  0  0  0  0  0
  143.8073   73.5921  219.1868 H   0  0  0  0  0  0  0  0  0  0  0  0
  146.0172   72.4216  219.0120 H   0  0  0  0  0  0  0  0  0  0  0  0
  145.3597   72.2128  220.6447 H   0  0  0  0  0  0  0  0  0  0  0  0
  147.2632   70.3925  218.9117 H   0  0  0  0  0  0  0  0  0  0  0  0
  147.2469   67.9380  218.5422 H   0  0  0  0  0  0  0  0  0  0  0  0
  145.1178   66.6665  218.7899 H   0  0  0  0  0  0  0  0  0  0  0  0
  143.0144   67.8455  219.4114 H   0  0  0  0  0  0  0  0  0  0  0  0
  141.9329   70.1462  219.1286 H   0  0  0  0  0  0  0  0  0  0  0  0
  142.4043   70.0720  220.8713 H   0  0  0  0  0  0  0  0  0  0  0  0
  138.1328   69.6479  223.6926 H   0  0  0  0  0  0  0  0  0  0  0  0
  138.1373   70.7352  225.0880 H   0  0  0  0  0  0  0  0  0  0  0  0
  140.1444   68.4244  224.8154 H   0  0  0  0  0  0  0  0  0  0  0  0
  138.5443   68.1786  225.5603 H   0  0  0  0  0  0  0  0  0  0  0  0
  1  2  1  0
  2  3  1  0
  3  4  1  0
  4  5  1  0
  5  6  1  0
  6  7  1  0
  7  8  2  0
  8  9  1  0
  9 10  1  0
 10 11  1  0
 11 12  1  0
 12 13  1  0
 13 14  2  0
 14 15  1  0
 15 16  2  0
 16 17  1  0
 17 18  2  0
 18 19  1  0
  9 20  2  0
 20 21  1  0
 21 22  1  0
 22 23  1  0
 23 24  1  0
 24 25  1  0
 25 26  2  0
 26 27  1  0
 27 28  2  0
 28 29  1  0
 29 30  2  0
 30 31  1  0
 21 32  2  0
  5 33  1  0
 33 34  1  0
 34  2  1  0
 32  7  1  0
 19 10  1  0
 31 22  1  0
 18 13  1  0
 30 25  1  0
  1 35  1  0
  1 36  1  0
  1 37  1  0
  2 38  1  1
  3 39  1  0
  3 40  1  0
  4 41  1  0
  4 42  1  0
  5 43  1  6
  6 44  1  0
 11 45  1  0
 11 46  1  0
 12 47  1  0
 12 48  1  0
 14 49  1  0
 15 50  1  0
 16 51  1  0
 17 52  1  0
 19 53  1  0
 19 54  1  0
 23 55  1  0
 23 56  1  0
 24 57  1  0
 24 58  1  0
 26 59  1  0
 27 60  1  0
 28 61  1  0
 29 62  1  0
 31 63  1  0
 31 64  1  0
 33 65  1  0
 33 66  1  0
 34 67  1  0
 34 68  1  0
M  END
>  <smiles>  (35) 
C[C@H]1CC[C@H](Nc2nc(N3CCc4ccccc4C3)nc(N3CCc4ccccc4C3)n2)CC1

>  <score_type>  (35) 
oracle

>  <origin>  (35) 
autodockgpu

>  <m_score__min__energy>  (35) 
-10.98

>  <m_primary>  (35) 
energy

>  <rmsd>  (35) 
4.89480432058505

>  <m_score__min__rmsd>  (35) 
4.89480432058505

>  <meeko>  (35) 
{"free_energy": -10.87, "intermolecular_energy": -12.06, "internal_energy": -1.04, "cluster_size": 24, "cluster_id": 1, "rank_in_cluster": 18}

>  <energy>  (35) 
-9.86

>  <cluster_rmsd>  (35) 
0.56

>  <cluster>  (35) 
2

$$$$

     RDKit          3D

 68 73  0  0  0  0  0  0  0  0999 V2000
  140.0010   67.8670  226.8750 C   0  0  0  0  0  0  0  0  0  0  0  0
  139.3740   69.0410  226.1680 C   0  0  1  0  0  0  0  0  0  0  0  0
  140.1990   70.2850  226.1950 C   0  0  0  0  0  0  0  0  0  0  0  0
  140.8740   70.6060  224.8790 C   0  0  0  0  0  0  0  0  0  0  0  0
  139.8920   70.7200  223.7530 C   0  0  2  0  0  0  0  0  0  0  0  0
  139.5590   72.0860  223.4180 N   0  0  0  0  0  0  0  0  0  0  0  0
  140.3710   72.7790  222.4530 C   0  0  0  0  0  0  0  0  0  0  0  0
  140.3240   74.1010  222.3360 N   0  0  0  0  0  0  0  0  0  0  0  0
  141.0780   74.7410  221.4410 C   0  0  0  0  0  0  0  0  0  0  0  0
  141.0200   76.1700  221.3220 N   0  0  0  0  0  0  0  0  0  0  0  0
  141.6480   76.7550  220.1620 C   0  0  0  0  0  0  0  0  0  0  0  0
  141.2790   78.2150  220.0020 C   0  0  0  0  0  0  0  0  0  0  0  0
  141.5370   78.8530  221.3220 C   0  0  0  0  0  0  0  0  0  0  0  0
  142.2100   80.0430  221.4680 C   0  0  0  0  0  0  0  0  0  0  0  0
  142.4340   80.6090  222.7200 C   0  0  0  0  0  0  0  0  0  0  0  0
  141.9620   79.9530  223.8550 C   0  0  0  0  0  0  0  0  0  0  0  0
  141.2830   78.7600  223.7290 C   0  0  0  0  0  0  0  0  0  0  0  0
  141.0840   78.2320  222.4680 C   0  0  0  0  0  0  0  0  0  0  0  0
  140.3500   76.9430  222.3500 C   0  0  0  0  0  0  0  0  0  0  0  0
  141.9130   74.0300  220.6290 N   0  0  0  0  0  0  0  0  0  0  0  0
  141.9790   72.6940  220.7290 C   0  0  0  0  0  0  0  0  0  0  0  0
  142.8370   71.9210  219.9000 N   0  0  0  0  0  0  0  0  0  0  0  0
  143.8730   72.5540  219.1080 C   0  0  0  0  0  0  0  0  0  0  0  0
  145.2010   71.9950  219.5930 C   0  0  0  0  0  0  0  0  0  0  0  0
  145.1480   70.5270  219.3490 C   0  0  0  0  0  0  0  0  0  0  0  0
  146.2990   69.8490  218.9980 C   0  0  0  0  0  0  0  0  0  0  0  0
  146.2730   68.4860  218.7670 C   0  0  0  0  0  0  0  0  0  0  0  0
  145.0690   67.7950  218.8910 C   0  0  0  0  0  0  0  0  0  0  0  0
  143.9070   68.4560  219.2420 C   0  0  0  0  0  0  0  0  0  0  0  0
  143.9700   69.8180  219.4650 C   0  0  0  0  0  0  0  0  0  0  0  0
  142.6790   70.4830  219.8430 C   0  0  0  0  0  0  0  0  0  0  0  0
  141.2010   72.0920  221.6460 N   0  0  0  0  0  0  0  0  0  0  0  0
  138.5850   70.0020  224.0660 C   0  0  0  0  0  0  0  0  0  0  0  0
  138.9810   68.7060  224.7490 C   0  0  0  0  0  0  0  0  0  0  0  0
  139.9244   68.0105  227.9629 H   0  0  0  0  0  0  0  0  0  0  0  0
  139.4759   66.9437  226.5891 H   0  0  0  0  0  0  0  0  0  0  0  0
  141.0604   67.7899  226.5891 H   0  0  0  0  0  0  0  0  0  0  0  0
  138.4649   69.2561  226.7487 H   0  0  0  0  0  0  0  0  0  0  0  0
  140.9776   70.1669  226.9631 H   0  0  0  0  0  0  0  0  0  0  0  0
  139.5126   71.1169  226.4113 H   0  0  0  0  0  0  0  0  0  0  0  0
  141.5912   69.8057  224.6441 H   0  0  0  0  0  0  0  0  0  0  0  0
  141.3794   71.5771  224.9864 H   0  0  0  0  0  0  0  0  0  0  0  0
  140.4020   70.2512  222.8985 H   0  0  0  0  0  0  0  0  0  0  0  0
  138.7490   72.5950  223.8470 H   0  0  0  0  0  0  0  0  0  0  0  0
  142.7398   76.6728  220.2681 H   0  0  0  0  0  0  0  0  0  0  0  0
  141.2966   76.2129  219.2717 H   0  0  0  0  0  0  0  0  0  0  0  0
  141.9002   78.6827  219.2240 H   0  0  0  0  0  0  0  0  0  0  0  0
  140.2287   78.3330  219.6970 H   0  0  0  0  0  0  0  0  0  0  0  0
  142.5813   80.5616  220.5718 H   0  0  0  0  0  0  0  0  0  0  0  0
  142.9765   81.5615  222.8120 H   0  0  0  0  0  0  0  0  0  0  0  0
  142.1312   80.3871  224.8515 H   0  0  0  0  0  0  0  0  0  0  0  0
  140.9052   78.2361  224.6194 H   0  0  0  0  0  0  0  0  0  0  0  0
  140.3775   76.4029  223.3079 H   0  0  0  0  0  0  0  0  0  0  0  0
  139.2947   77.1129  222.0903 H   0  0  0  0  0  0  0  0  0  0  0  0
  143.7306   72.3208  218.0425 H   0  0  0  0  0  0  0  0  0  0  0  0
  143.8414   73.6479  219.2191 H   0  0  0  0  0  0  0  0  0  0  0  0
  146.0324   72.4452  219.0307 H   0  0  0  0  0  0  0  0  0  0  0  0
  145.3652   72.2187  220.6574 H   0  0  0  0  0  0  0  0  0  0  0  0
  147.2465   70.3993  218.9012 H   0  0  0  0  0  0  0  0  0  0  0  0
  147.1935   67.9523  218.4881 H   0  0  0  0  0  0  0  0  0  0  0  0
  145.0432   66.7107  218.7074 H   0  0  0  0  0  0  0  0  0  0  0  0
  142.9563   67.9116  219.3413 H   0  0  0  0  0  0  0  0  0  0  0  0
  141.9127   70.2341  219.0941 H   0  0  0  0  0  0  0  0  0  0  0  0
  142.3754   70.1227  220.8370 H   0  0  0  0  0  0  0  0  0  0  0  0
  138.0308   69.7931  223.1391 H   0  0  0  0  0  0  0  0  0  0  0  0
  137.9292   70.6128  224.7038 H   0  0  0  0  0  0  0  0  0  0  0  0
  139.8314   68.2486  224.2220 H   0  0  0  0  0  0  0  0  0  0  0  0
  138.1448   67.9914  224.7375 H   0  0  0  0  0  0  0  0  0  0  0  0
  1  2  1  0
  2  3  1  0
  3  4  1  0
  4  5  1  0
  5  6  1  0
  6  7  1  0
  7  8  2  0
  8  9  1  0
  9 10  1  0
 10 11  1  0
 11 12  1  0
 12 13  1  0
 13 14  2  0
 14 15  1  0
 15 16  2  0
 16 17  1  0
 17 18  2  0
 18 19  1  0
  9 20  2  0
 20 21  1  0
 21 22  1  0
 22 23  1  0
 23 24  1  0
 24 25  1  0
 25 26  2  0
 26 27  1  0
 27 28  2  0
 28 29  1  0
 29 30  2  0
 30 31  1  0
 21 32  2  0
  5 33  1  0
 33 34  1  0
 34  2  1  0
 32  7  1  0
 19 10  1  0
 31 22  1  0
 18 13  1  0
 30 25  1  0
  1 35  1  0
  1 36  1  0
  1 37  1  0
  2 38  1  1
  3 39  1  0
  3 40  1  0
  4 41  1  0
  4 42  1  0
  5 43  1  6
  6 44  1  0
 11 45  1  0
 11 46  1  0
 12 47  1  0
 12 48  1  0
 14 49  1  0
 15 50  1  0
 16 51  1  0
 17 52  1  0
 19 53  1  0
 19 54  1  0
 23 55  1  0
 23 56  1  0
 24 57  1  0
 24 58  1  0
 26 59  1  0
 27 60  1  0
 28 61  1  0
 29 62  1  0
 31 63  1  0
 31 64  1  0
 33 65  1  0
 33 66  1  0
 34 67  1  0
 34 68  1  0
M  END
>  <smiles>  (36) 
C[C@H]1CC[C@H](Nc2nc(N3CCc4ccccc4C3)nc(N3CCc4ccccc4C3)n2)CC1

>  <score_type>  (36) 
oracle

>  <origin>  (36) 
autodockgpu

>  <m_score__min__energy>  (36) 
-10.98

>  <m_primary>  (36) 
energy

>  <rmsd>  (36) 
4.91913460363683

>  <m_score__min__rmsd>  (36) 
4.91913460363683

>  <meeko>  (36) 
{"free_energy": -10.57, "intermolecular_energy": -11.77, "internal_energy": -1.02, "cluster_size": 24, "cluster_id": 1, "rank_in_cluster": 22}

>  <energy>  (36) 
-9.79

>  <cluster_rmsd>  (36) 
0.6

>  <cluster>  (36) 
2

$$$$

     RDKit          3D

 68 73  0  0  0  0  0  0  0  0999 V2000
  140.8320   68.7340  228.4800 C   0  0  0  0  0  0  0  0  0  0  0  0
  139.9730   69.4360  227.4590 C   0  0  1  0  0  0  0  0  0  0  0  0
  140.3790   70.8460  227.1820 C   0  0  0  0  0  0  0  0  0  0  0  0
  141.0820   71.0350  225.8550 C   0  0  0  0  0  0  0  0  0  0  0  0
  140.2560   70.5510  224.7030 C   0  0  2  0  0  0  0  0  0  0  0  0
  139.5730   71.6130  224.0000 N   0  0  0  0  0  0  0  0  0  0  0  0
  140.1800   72.1630  222.8180 C   0  0  0  0  0  0  0  0  0  0  0  0
  140.8480   71.3950  221.9650 N   0  0  0  0  0  0  0  0  0  0  0  0
  141.4100   71.9080  220.8690 C   0  0  0  0  0  0  0  0  0  0  0  0
  142.1290   71.0700  219.9530 N   0  0  0  0  0  0  0  0  0  0  0  0
  141.6110   69.7400  219.7400 C   0  0  0  0  0  0  0  0  0  0  0  0
  142.2740   69.0630  218.5590 C   0  0  0  0  0  0  0  0  0  0  0  0
  143.7410   69.2080  218.7710 C   0  0  0  0  0  0  0  0  0  0  0  0
  144.6310   68.1700  218.6240 C   0  0  0  0  0  0  0  0  0  0  0  0
  145.9970   68.3420  218.8320 C   0  0  0  0  0  0  0  0  0  0  0  0
  146.4740   69.5990  219.1960 C   0  0  0  0  0  0  0  0  0  0  0  0
  145.5980   70.6520  219.3470 C   0  0  0  0  0  0  0  0  0  0  0  0
  144.2500   70.4390  219.1320 C   0  0  0  0  0  0  0  0  0  0  0  0
  143.3170   71.5860  219.2990 C   0  0  0  0  0  0  0  0  0  0  0  0
  141.3010   73.2440  220.6170 N   0  0  0  0  0  0  0  0  0  0  0  0
  140.6320   74.0420  221.4630 C   0  0  0  0  0  0  0  0  0  0  0  0
  140.4980   75.4370  221.2320 N   0  0  0  0  0  0  0  0  0  0  0  0
  139.7460   76.2740  222.1460 C   0  0  0  0  0  0  0  0  0  0  0  0
  140.7200   77.2980  222.7090 C   0  0  0  0  0  0  0  0  0  0  0  0
  141.2220   78.0780  221.5440 C   0  0  0  0  0  0  0  0  0  0  0  0
  141.5090   79.4200  221.6910 C   0  0  0  0  0  0  0  0  0  0  0  0
  141.9760   80.1630  220.6230 C   0  0  0  0  0  0  0  0  0  0  0  0
  142.1570   79.5450  219.3870 C   0  0  0  0  0  0  0  0  0  0  0  0
  141.8750   78.2020  219.2200 C   0  0  0  0  0  0  0  0  0  0  0  0
  141.4100   77.4910  220.3090 C   0  0  0  0  0  0  0  0  0  0  0  0
  141.1210   76.0380  220.0700 C   0  0  0  0  0  0  0  0  0  0  0  0
  140.0810   73.4800  222.5540 N   0  0  0  0  0  0  0  0  0  0  0  0
  139.1940   69.5510  225.1480 C   0  0  0  0  0  0  0  0  0  0  0  0
  139.8740   68.6580  226.1690 C   0  0  0  0  0  0  0  0  0  0  0  0
  140.4971   69.0077  229.4914 H   0  0  0  0  0  0  0  0  0  0  0  0
  140.7445   67.6456  228.3468 H   0  0  0  0  0  0  0  0  0  0  0  0
  141.8812   69.0365  228.3468 H   0  0  0  0  0  0  0  0  0  0  0  0
  138.9774   69.4830  227.9244 H   0  0  0  0  0  0  0  0  0  0  0  0
  141.0579   71.1741  227.9829 H   0  0  0  0  0  0  0  0  0  0  0  0
  139.4547   71.4408  227.1400 H   0  0  0  0  0  0  0  0  0  0  0  0
  142.0284   70.4745  225.8725 H   0  0  0  0  0  0  0  0  0  0  0  0
  141.2570   72.1121  225.7160 H   0  0  0  0  0  0  0  0  0  0  0  0
  140.9829   70.0774  224.0268 H   0  0  0  0  0  0  0  0  0  0  0  0
  138.6500   72.0020  224.3140 H   0  0  0  0  0  0  0  0  0  0  0  0
  141.7913   69.1384  220.6431 H   0  0  0  0  0  0  0  0  0  0  0  0
  140.5345   69.8211  219.5287 H   0  0  0  0  0  0  0  0  0  0  0  0
  141.9966   67.9992  218.5235 H   0  0  0  0  0  0  0  0  0  0  0  0
  141.9586   69.5151  217.6071 H   0  0  0  0  0  0  0  0  0  0  0  0
  144.2539   67.1780  218.3345 H   0  0  0  0  0  0  0  0  0  0  0  0
  146.6901   67.4965  218.7105 H   0  0  0  0  0  0  0  0  0  0  0  0
  147.5505   69.7512  219.3630 H   0  0  0  0  0  0  0  0  0  0  0  0
  145.9667   71.6477  219.6345 H   0  0  0  0  0  0  0  0  0  0  0  0
  143.7827   72.3653  219.9202 H   0  0  0  0  0  0  0  0  0  0  0  0
  143.0677   72.0360  218.3267 H   0  0  0  0  0  0  0  0  0  0  0  0
  138.9306   76.7820  221.6102 H   0  0  0  0  0  0  0  0  0  0  0  0
  139.2963   75.6738  222.9507 H   0  0  0  0  0  0  0  0  0  0  0  0
  140.2065   77.9621  223.4198 H   0  0  0  0  0  0  0  0  0  0  0  0
  141.5444   76.8115  223.2510 H   0  0  0  0  0  0  0  0  0  0  0  0
  141.3646   79.9034  222.6684 H   0  0  0  0  0  0  0  0  0  0  0  0
  142.2027   81.2322  220.7475 H   0  0  0  0  0  0  0  0  0  0  0  0
  142.5285   80.1326  218.5345 H   0  0  0  0  0  0  0  0  0  0  0  0
  142.0172   77.7124  218.2453 H   0  0  0  0  0  0  0  0  0  0  0  0
  140.4439   75.9424  219.2084 H   0  0  0  0  0  0  0  0  0  0  0  0
  142.0703   75.5187  219.8720 H   0  0  0  0  0  0  0  0  0  0  0  0
  138.8438   68.9566  224.2912 H   0  0  0  0  0  0  0  0  0  0  0  0
  138.3133   70.0555  225.5720 H   0  0  0  0  0  0  0  0  0  0  0  0
  140.8797   68.3841  225.8176 H   0  0  0  0  0  0  0  0  0  0  0  0
  139.2984   67.7326  226.3183 H   0  0  0  0  0  0  0  0  0  0  0  0
  1  2  1  0
  2  3  1  0
  3  4  1  0
  4  5  1  0
  5  6  1  0
  6  7  1  0
  7  8  2  0
  8  9  1  0
  9 10  1  0
 10 11  1  0
 11 12  1  0
 12 13  1  0
 13 14  2  0
 14 15  1  0
 15 16  2  0
 16 17  1  0
 17 18  2  0
 18 19  1  0
  9 20  2  0
 20 21  1  0
 21 22  1  0
 22 23  1  0
 23 24  1  0
 24 25  1  0
 25 26  2  0
 26 27  1  0
 27 28  2  0
 28 29  1  0
 29 30  2  0
 30 31  1  0
 21 32  2  0
  5 33  1  0
 33 34  1  0
 34  2  1  0
 32  7  1  0
 19 10  1  0
 31 22  1  0
 18 13  1  0
 30 25  1  0
  1 35  1  0
  1 36  1  0
  1 37  1  0
  2 38  1  1
  3 39  1  0
  3 40  1  0
  4 41  1  0
  4 42  1  0
  5 43  1  6
  6 44  1  0
 11 45  1  0
 11 46  1  0
 12 47  1  0
 12 48  1  0
 14 49  1  0
 15 50  1  0
 16 51  1  0
 17 52  1  0
 19 53  1  0
 19 54  1  0
 23 55  1  0
 23 56  1  0
 24 57  1  0
 24 58  1  0
 26 59  1  0
 27 60  1  0
 28 61  1  0
 29 62  1  0
 31 63  1  0
 31 64  1  0
 33 65  1  0
 33 66  1  0
 34 67  1  0
 34 68  1  0
M  END
>  <smiles>  (37) 
C[C@H]1CC[C@H](Nc2nc(N3CCc4ccccc4C3)nc(N3CCc4ccccc4C3)n2)CC1

>  <score_type>  (37) 
oracle

>  <origin>  (37) 
autodockgpu

>  <m_score__min__energy>  (37) 
-10.98

>  <m_primary>  (37) 
energy

>  <rmsd>  (37) 
10.01746939822404

>  <m_score__min__rmsd>  (37) 
10.01746939822404

>  <meeko>  (37) 
{"free_energy": -9.53, "intermolecular_energy": -10.72, "internal_energy": -0.98, "cluster_size": 24, "cluster_id": 1, "rank_in_cluster": 23}

>  <energy>  (37) 
-9.76

>  <cluster_rmsd>  (37) 
1.42

>  <cluster>  (37) 
2

$$$$

     RDKit          3D

 68 73  0  0  0  0  0  0  0  0999 V2000
  146.6980   73.7810  220.7790 C   0  0  0  0  0  0  0  0  0  0  0  0
  145.2470   73.3690  220.7850 C   0  0  1  0  0  0  0  0  0  0  0  0
  144.3160   74.3970  220.2310 C   0  0  0  0  0  0  0  0  0  0  0  0
  143.7930   74.0720  218.8480 C   0  0  0  0  0  0  0  0  0  0  0  0
  143.1050   72.7420  218.8010 C   0  0  2  0  0  0  0  0  0  0  0  0
  141.6630   72.8400  218.8500 N   0  0  0  0  0  0  0  0  0  0  0  0
  141.0460   73.3680  220.0370 C   0  0  0  0  0  0  0  0  0  0  0  0
  140.8770   74.6750  220.2030 N   0  0  0  0  0  0  0  0  0  0  0  0
  140.3030   75.1610  221.3050 C   0  0  0  0  0  0  0  0  0  0  0  0
  140.1250   76.5740  221.4760 N   0  0  0  0  0  0  0  0  0  0  0  0
  139.5410   77.2980  220.3720 C   0  0  0  0  0  0  0  0  0  0  0  0
  139.1450   78.7030  220.7700 C   0  0  0  0  0  0  0  0  0  0  0  0
  140.3400   79.2980  221.4310 C   0  0  0  0  0  0  0  0  0  0  0  0
  140.8150   80.5550  221.1430 C   0  0  0  0  0  0  0  0  0  0  0  0
  141.9370   81.0780  221.7810 C   0  0  0  0  0  0  0  0  0  0  0  0
  142.5950   80.3060  222.7360 C   0  0  0  0  0  0  0  0  0  0  0  0
  142.1330   79.0430  223.0390 C   0  0  0  0  0  0  0  0  0  0  0  0
  141.0170   78.5620  222.3830 C   0  0  0  0  0  0  0  0  0  0  0  0
  140.5310   77.1970  222.7210 C   0  0  0  0  0  0  0  0  0  0  0  0
  139.8820   74.3060  222.2810 N   0  0  0  0  0  0  0  0  0  0  0  0
  140.0410   72.9810  222.1360 C   0  0  0  0  0  0  0  0  0  0  0  0
  139.6140   72.0610  223.1310 N   0  0  0  0  0  0  0  0  0  0  0  0
  138.3990   71.2890  222.9590 C   0  0  0  0  0  0  0  0  0  0  0  0
  138.8060   69.8230  222.9530 C   0  0  0  0  0  0  0  0  0  0  0  0
  139.4350   69.5620  224.2780 C   0  0  0  0  0  0  0  0  0  0  0  0
  139.2750   68.3300  224.8810 C   0  0  0  0  0  0  0  0  0  0  0  0
  139.8500   68.0660  226.1100 C   0  0  0  0  0  0  0  0  0  0  0  0
  140.5970   69.0570  226.7430 C   0  0  0  0  0  0  0  0  0  0  0  0
  140.7680   70.2970  226.1550 C   0  0  0  0  0  0  0  0  0  0  0  0
  140.1800   70.5260  224.9270 C   0  0  0  0  0  0  0  0  0  0  0  0
  140.3990   71.8880  224.3360 C   0  0  0  0  0  0  0  0  0  0  0  0
  140.6240   72.5370  221.0090 N   0  0  0  0  0  0  0  0  0  0  0  0
  143.5340   71.8410  219.9530 C   0  0  0  0  0  0  0  0  0  0  0  0
  145.0310   72.0430  220.0960 C   0  0  0  0  0  0  0  0  0  0  0  0
  147.0547   73.8823  221.8146 H   0  0  0  0  0  0  0  0  0  0  0  0
  147.2941   73.0166  220.2590 H   0  0  0  0  0  0  0  0  0  0  0  0
  146.8034   74.7446  220.2590 H   0  0  0  0  0  0  0  0  0  0  0  0
  144.9963   73.2623  221.8507 H   0  0  0  0  0  0  0  0  0  0  0  0
  144.8504   75.3572  220.1820 H   0  0  0  0  0  0  0  0  0  0  0  0
  143.4444   74.4314  220.9011 H   0  0  0  0  0  0  0  0  0  0  0  0
  144.6380   74.0588  218.1439 H   0  0  0  0  0  0  0  0  0  0  0  0
  143.0569   74.8427  218.5757 H   0  0  0  0  0  0  0  0  0  0  0  0
  143.4069   72.3130  217.8342 H   0  0  0  0  0  0  0  0  0  0  0  0
  141.0470   72.5430  218.0550 H   0  0  0  0  0  0  0  0  0  0  0  0
  140.2744   77.3527  219.5540 H   0  0  0  0  0  0  0  0  0  0  0  0
  138.6338   76.7636  220.0536 H   0  0  0  0  0  0  0  0  0  0  0  0
  138.8698   79.2885  219.8803 H   0  0  0  0  0  0  0  0  0  0  0  0
  138.2742   78.6997  221.4421 H   0  0  0  0  0  0  0  0  0  0  0  0
  140.2953   81.1641  220.3887 H   0  0  0  0  0  0  0  0  0  0  0  0
  142.2988   82.0871  221.5342 H   0  0  0  0  0  0  0  0  0  0  0  0
  143.4832   80.7043  223.2483 H   0  0  0  0  0  0  0  0  0  0  0  0
  142.6459   78.4272  223.7925 H   0  0  0  0  0  0  0  0  0  0  0  0
  141.3370   76.6140  223.1905 H   0  0  0  0  0  0  0  0  0  0  0  0
  139.6917   77.2424  223.4305 H   0  0  0  0  0  0  0  0  0  0  0  0
  137.7048   71.4858  223.7892 H   0  0  0  0  0  0  0  0  0  0  0  0
  137.8884   71.5604  222.0233 H   0  0  0  0  0  0  0  0  0  0  0  0
  137.9222   69.1822  222.8174 H   0  0  0  0  0  0  0  0  0  0  0  0
  139.5004   69.6027  222.1288 H   0  0  0  0  0  0  0  0  0  0  0  0
  138.6838   67.5506  224.3780 H   0  0  0  0  0  0  0  0  0  0  0  0
  139.7189   67.0821  226.5840 H   0  0  0  0  0  0  0  0  0  0  0  0
  141.0559   68.8509  227.7213 H   0  0  0  0  0  0  0  0  0  0  0  0
  141.3575   71.0809  226.6530 H   0  0  0  0  0  0  0  0  0  0  0  0
  140.1035   72.6512  225.0710 H   0  0  0  0  0  0  0  0  0  0  0  0
  141.4636   71.9929  224.0799 H   0  0  0  0  0  0  0  0  0  0  0  0
  143.3092   70.7893  219.7218 H   0  0  0  0  0  0  0  0  0  0  0  0
  143.0001   72.0881  220.8825 H   0  0  0  0  0  0  0  0  0  0  0  0
  145.5049   72.0541  219.1033 H   0  0  0  0  0  0  0  0  0  0  0  0
  145.4778   71.2255  220.6809 H   0  0  0  0  0  0  0  0  0  0  0  0
  1  2  1  0
  2  3  1  0
  3  4  1  0
  4  5  1  0
  5  6  1  0
  6  7  1  0
  7  8  2  0
  8  9  1  0
  9 10  1  0
 10 11  1  0
 11 12  1  0
 12 13  1  0
 13 14  2  0
 14 15  1  0
 15 16  2  0
 16 17  1  0
 17 18  2  0
 18 19  1  0
  9 20  2  0
 20 21  1  0
 21 22  1  0
 22 23  1  0
 23 24  1  0
 24 25  1  0
 25 26  2  0
 26 27  1  0
 27 28  2  0
 28 29  1  0
 29 30  2  0
 30 31  1  0
 21 32  2  0
  5 33  1  0
 33 34  1  0
 34  2  1  0
 32  7  1  0
 19 10  1  0
 31 22  1  0
 18 13  1  0
 30 25  1  0
  1 35  1  0
  1 36  1  0
  1 37  1  0
  2 38  1  1
  3 39  1  0
  3 40  1  0
  4 41  1  0
  4 42  1  0
  5 43  1  6
  6 44  1  0
 11 45  1  0
 11 46  1  0
 12 47  1  0
 12 48  1  0
 14 49  1  0
 15 50  1  0
 16 51  1  0
 17 52  1  0
 19 53  1  0
 19 54  1  0
 23 55  1  0
 23 56  1  0
 24 57  1  0
 24 58  1  0
 26 59  1  0
 27 60  1  0
 28 61  1  0
 29 62  1  0
 31 63  1  0
 31 64  1  0
 33 65  1  0
 33 66  1  0
 34 67  1  0
 34 68  1  0
M  END
>  <smiles>  (38) 
C[C@H]1CC[C@H](Nc2nc(N3CCc4ccccc4C3)nc(N3CCc4ccccc4C3)n2)CC1

>  <score_type>  (38) 
oracle

>  <origin>  (38) 
autodockgpu

>  <m_score__min__energy>  (38) 
-10.98

>  <m_primary>  (38) 
energy

>  <rmsd>  (38) 
4.721499610072521

>  <m_score__min__rmsd>  (38) 
4.721499610072521

>  <meeko>  (38) 
{"free_energy": -9.58, "intermolecular_energy": -10.77, "internal_energy": -1.41, "cluster_size": 20, "cluster_id": 2, "rank_in_cluster": 17}

>  <energy>  (38) 
-9.72

>  <cluster_rmsd>  (38) 
1.47

>  <cluster>  (38) 
2

$$$$

     RDKit          3D

 68 73  0  0  0  0  0  0  0  0999 V2000
  133.6600   72.4110  226.3840 C   0  0  0  0  0  0  0  0  0  0  0  0
  134.6510   72.7570  225.3020 C   0  0  1  0  0  0  0  0  0  0  0  0
  135.1220   71.5860  224.5040 C   0  0  0  0  0  0  0  0  0  0  0  0
  134.5260   71.5090  223.1150 C   0  0  0  0  0  0  0  0  0  0  0  0
  134.7830   72.7510  222.3190 C   0  0  2  0  0  0  0  0  0  0  0  0
  135.8780   72.6190  221.3850 N   0  0  0  0  0  0  0  0  0  0  0  0
  137.2140   72.8950  221.8420 C   0  0  0  0  0  0  0  0  0  0  0  0
  137.8270   74.0320  221.5350 N   0  0  0  0  0  0  0  0  0  0  0  0
  139.0650   74.2840  221.9600 C   0  0  0  0  0  0  0  0  0  0  0  0
  139.7190   75.5160  221.6230 N   0  0  0  0  0  0  0  0  0  0  0  0
  141.0640   75.4240  221.1090 C   0  0  0  0  0  0  0  0  0  0  0  0
  141.5340   76.7410  220.5300 C   0  0  0  0  0  0  0  0  0  0  0  0
  141.2630   77.7700  221.5710 C   0  0  0  0  0  0  0  0  0  0  0  0
  142.1800   78.7210  221.9500 C   0  0  0  0  0  0  0  0  0  0  0  0
  141.8910   79.6680  222.9290 C   0  0  0  0  0  0  0  0  0  0  0  0
  140.6400   79.6510  223.5400 C   0  0  0  0  0  0  0  0  0  0  0  0
  139.7060   78.7060  223.1730 C   0  0  0  0  0  0  0  0  0  0  0  0
  140.0330   77.7840  222.1970 C   0  0  0  0  0  0  0  0  0  0  0  0
  139.0140   76.7700  221.8120 C   0  0  0  0  0  0  0  0  0  0  0  0
  139.7190   73.3620  222.7240 N   0  0  0  0  0  0  0  0  0  0  0  0
  139.1200   72.2050  223.0490 C   0  0  0  0  0  0  0  0  0  0  0  0
  139.7700   71.2220  223.8420 N   0  0  0  0  0  0  0  0  0  0  0  0
  141.0690   71.4810  224.4320 C   0  0  0  0  0  0  0  0  0  0  0  0
  140.8940   71.3930  225.9400 C   0  0  0  0  0  0  0  0  0  0  0  0
  140.4330   70.0050  226.2240 C   0  0  0  0  0  0  0  0  0  0  0  0
  140.8340   69.3760  227.3860 C   0  0  0  0  0  0  0  0  0  0  0  0
  140.4180   68.0880  227.6700 C   0  0  0  0  0  0  0  0  0  0  0  0
  139.5870   67.4240  226.7700 C   0  0  0  0  0  0  0  0  0  0  0  0
  139.1750   68.0380  225.6020 C   0  0  0  0  0  0  0  0  0  0  0  0
  139.6100   69.3250  225.3510 C   0  0  0  0  0  0  0  0  0  0  0  0
  139.1320   69.9420  224.0690 C   0  0  0  0  0  0  0  0  0  0  0  0
  137.8720   71.9940  222.5970 N   0  0  0  0  0  0  0  0  0  0  0  0
  135.0970   73.9430  223.2150 C   0  0  0  0  0  0  0  0  0  0  0  0
  134.1370   73.8410  224.3860 C   0  0  0  0  0  0  0  0  0  0  0  0
  134.1217   72.5722  227.3693 H   0  0  0  0  0  0  0  0  0  0  0  0
  132.7715   73.0521  226.2861 H   0  0  0  0  0  0  0  0  0  0  0  0
  133.3636   71.3562  226.2861 H   0  0  0  0  0  0  0  0  0  0  0  0
  135.5282   73.1368  225.8463 H   0  0  0  0  0  0  0  0  0  0  0  0
  134.8546   70.6673  225.0467 H   0  0  0  0  0  0  0  0  0  0  0  0
  136.2086   71.7022  224.3785 H   0  0  0  0  0  0  0  0  0  0  0  0
  133.4392   71.3636  223.2035 H   0  0  0  0  0  0  0  0  0  0  0  0
  135.0013   70.6673  222.5900 H   0  0  0  0  0  0  0  0  0  0  0  0
  133.8492   72.9143  221.7610 H   0  0  0  0  0  0  0  0  0  0  0  0
  135.7420   72.3290  220.3860 H   0  0  0  0  0  0  0  0  0  0  0  0
  141.7391   75.1333  221.9273 H   0  0  0  0  0  0  0  0  0  0  0  0
  141.0729   74.6736  220.3048 H   0  0  0  0  0  0  0  0  0  0  0  0
  142.6103   76.6976  220.3072 H   0  0  0  0  0  0  0  0  0  0  0  0
  141.0141   76.9746  219.5892 H   0  0  0  0  0  0  0  0  0  0  0  0
  143.1683   78.7344  221.4672 H   0  0  0  0  0  0  0  0  0  0  0  0
  142.6411   80.4196  223.2159 H   0  0  0  0  0  0  0  0  0  0  0  0
  140.3969   80.3919  224.3158 H   0  0  0  0  0  0  0  0  0  0  0  0
  138.7150   78.6861  223.6500 H   0  0  0  0  0  0  0  0  0  0  0  0
  138.2637   76.6658  222.6096 H   0  0  0  0  0  0  0  0  0  0  0  0
  138.4882   77.0689  220.8932 H   0  0  0  0  0  0  0  0  0  0  0  0
  141.7961   70.7294  224.0910 H   0  0  0  0  0  0  0  0  0  0  0  0
  141.4457   72.4713  224.1362 H   0  0  0  0  0  0  0  0  0  0  0  0
  141.8504   71.5885  226.4470 H   0  0  0  0  0  0  0  0  0  0  0  0
  140.1713   72.1381  226.3041 H   0  0  0  0  0  0  0  0  0  0  0  0
  141.4907   69.9045  228.0927 H   0  0  0  0  0  0  0  0  0  0  0  0
  140.7401   67.5924  228.5977 H   0  0  0  0  0  0  0  0  0  0  0  0
  139.2549   66.3990  226.9915 H   0  0  0  0  0  0  0  0  0  0  0  0
  138.5180   67.5155  224.8911 H   0  0  0  0  0  0  0  0  0  0  0  0
  139.3709   69.2674  223.2336 H   0  0  0  0  0  0  0  0  0  0  0  0
  138.0454   70.0984  224.1380 H   0  0  0  0  0  0  0  0  0  0  0  0
  134.9380   74.8850  222.6697 H   0  0  0  0  0  0  0  0  0  0  0  0
  136.1454   73.9356  223.5478 H   0  0  0  0  0  0  0  0  0  0  0  0
  133.1308   73.5816  224.0251 H   0  0  0  0  0  0  0  0  0  0  0  0
  134.0738   74.8009  224.9195 H   0  0  0  0  0  0  0  0  0  0  0  0
  1  2  1  0
  2  3  1  0
  3  4  1  0
  4  5  1  0
  5  6  1  0
  6  7  1  0
  7  8  2  0
  8  9  1  0
  9 10  1  0
 10 11  1  0
 11 12  1  0
 12 13  1  0
 13 14  2  0
 14 15  1  0
 15 16  2  0
 16 17  1  0
 17 18  2  0
 18 19  1  0
  9 20  2  0
 20 21  1  0
 21 22  1  0
 22 23  1  0
 23 24  1  0
 24 25  1  0
 25 26  2  0
 26 27  1  0
 27 28  2  0
 28 29  1  0
 29 30  2  0
 30 31  1  0
 21 32  2  0
  5 33  1  0
 33 34  1  0
 34  2  1  0
 32  7  1  0
 19 10  1  0
 31 22  1  0
 18 13  1  0
 30 25  1  0
  1 35  1  0
  1 36  1  0
  1 37  1  0
  2 38  1  1
  3 39  1  0
  3 40  1  0
  4 41  1  0
  4 42  1  0
  5 43  1  6
  6 44  1  0
 11 45  1  0
 11 46  1  0
 12 47  1  0
 12 48  1  0
 14 49  1  0
 15 50  1  0
 16 51  1  0
 17 52  1  0
 19 53  1  0
 19 54  1  0
 23 55  1  0
 23 56  1  0
 24 57  1  0
 24 58  1  0
 26 59  1  0
 27 60  1  0
 28 61  1  0
 29 62  1  0
 31 63  1  0
 31 64  1  0
 33 65  1  0
 33 66  1  0
 34 67  1  0
 34 68  1  0
M  END
>  <smiles>  (39) 
C[C@H]1CC[C@H](Nc2nc(N3CCc4ccccc4C3)nc(N3CCc4ccccc4C3)n2)CC1

>  <score_type>  (39) 
oracle

>  <origin>  (39) 
autodockgpu

>  <m_score__min__energy>  (39) 
-10.98

>  <m_primary>  (39) 
energy

>  <rmsd>  (39) 
4.671862936241903

>  <m_score__min__rmsd>  (39) 
4.671862936241903

>  <meeko>  (39) 
{"free_energy": -8.88, "intermolecular_energy": -10.08, "internal_energy": -1.49, "cluster_size": 5, "cluster_id": 3, "rank_in_cluster": 5}

>  <energy>  (39) 
-9.66

>  <cluster_rmsd>  (39) 
1.49

>  <cluster>  (39) 
2

$$$$

     RDKit          3D

 68 73  0  0  0  0  0  0  0  0999 V2000
  140.2410   68.5320  227.0970 C   0  0  0  0  0  0  0  0  0  0  0  0
  139.5270   69.6170  226.3300 C   0  0  1  0  0  0  0  0  0  0  0  0
  140.3580   70.8290  226.0670 C   0  0  0  0  0  0  0  0  0  0  0  0
  140.8360   70.9490  224.6360 C   0  0  0  0  0  0  0  0  0  0  0  0
  139.7020   70.9370  223.6580 C   0  0  2  0  0  0  0  0  0  0  0  0
  139.3350   72.2540  223.1880 N   0  0  0  0  0  0  0  0  0  0  0  0
  140.2330   72.9490  222.3040 C   0  0  0  0  0  0  0  0  0  0  0  0
  140.2340   74.2750  222.2260 N   0  0  0  0  0  0  0  0  0  0  0  0
  141.0680   74.9150  221.4050 C   0  0  0  0  0  0  0  0  0  0  0  0
  141.0620   76.3480  221.3270 N   0  0  0  0  0  0  0  0  0  0  0  0
  141.7340   76.9440  220.1980 C   0  0  0  0  0  0  0  0  0  0  0  0
  141.4190   78.4200  220.0740 C   0  0  0  0  0  0  0  0  0  0  0  0
  141.6710   79.0100  221.4180 C   0  0  0  0  0  0  0  0  0  0  0  0
  142.3820   80.1710  221.6120 C   0  0  0  0  0  0  0  0  0  0  0  0
  142.5980   80.6930  222.8850 C   0  0  0  0  0  0  0  0  0  0  0  0
  142.0800   80.0210  223.9900 C   0  0  0  0  0  0  0  0  0  0  0  0
  141.3640   78.8570  223.8160 C   0  0  0  0  0  0  0  0  0  0  0  0
  141.1720   78.3720  222.5360 C   0  0  0  0  0  0  0  0  0  0  0  0
  140.3970   77.1140  222.3650 C   0  0  0  0  0  0  0  0  0  0  0  0
  141.9350   74.2020  220.6310 N   0  0  0  0  0  0  0  0  0  0  0  0
  141.9540   72.8620  220.6930 C   0  0  0  0  0  0  0  0  0  0  0  0
  142.8430   72.0860  219.9010 N   0  0  0  0  0  0  0  0  0  0  0  0
  143.9200   72.7150  219.1610 C   0  0  0  0  0  0  0  0  0  0  0  0
  145.2200   72.1440  219.7050 C   0  0  0  0  0  0  0  0  0  0  0  0
  145.1680   70.6770  219.4510 C   0  0  0  0  0  0  0  0  0  0  0  0
  146.3290   69.9930  219.1510 C   0  0  0  0  0  0  0  0  0  0  0  0
  146.3040   68.6310  218.9130 C   0  0  0  0  0  0  0  0  0  0  0  0
  145.0910   67.9480  218.9780 C   0  0  0  0  0  0  0  0  0  0  0  0
  143.9190   68.6160  219.2780 C   0  0  0  0  0  0  0  0  0  0  0  0
  143.9810   69.9760  219.5100 C   0  0  0  0  0  0  0  0  0  0  0  0
  142.6790   70.6490  219.8300 C   0  0  0  0  0  0  0  0  0  0  0  0
  141.0950   72.2590  221.5340 N   0  0  0  0  0  0  0  0  0  0  0  0
  138.4480   70.3060  224.2510 C   0  0  0  0  0  0  0  0  0  0  0  0
  138.9300   69.1030  225.0420 C   0  0  0  0  0  0  0  0  0  0  0  0
  140.1247   68.7088  228.1765 H   0  0  0  0  0  0  0  0  0  0  0  0
  139.8092   67.5543  226.8369 H   0  0  0  0  0  0  0  0  0  0  0  0
  141.3098   68.5417  226.8369 H   0  0  0  0  0  0  0  0  0  0  0  0
  138.7130   69.9350  226.9980 H   0  0  0  0  0  0  0  0  0  0  0  0
  141.2393   70.7934  226.7242 H   0  0  0  0  0  0  0  0  0  0  0  0
  139.7183   71.7021  226.2631 H   0  0  0  0  0  0  0  0  0  0  0  0
  141.5044   70.1041  224.4138 H   0  0  0  0  0  0  0  0  0  0  0  0
  141.3595   71.9111  224.5343 H   0  0  0  0  0  0  0  0  0  0  0  0
  140.0785   70.3420  222.8129 H   0  0  0  0  0  0  0  0  0  0  0  0
  138.4400   72.7260  223.4630 H   0  0  0  0  0  0  0  0  0  0  0  0
  142.8198   76.8205  220.3236 H   0  0  0  0  0  0  0  0  0  0  0  0
  141.3830   76.4406  219.2851 H   0  0  0  0  0  0  0  0  0  0  0  0
  142.0723   78.8881  219.3229 H   0  0  0  0  0  0  0  0  0  0  0  0
  140.3802   78.5837  219.7514 H   0  0  0  0  0  0  0  0  0  0  0  0
  142.7907   80.7011  220.7391 H   0  0  0  0  0  0  0  0  0  0  0  0
  143.1699   81.6234  223.0162 H   0  0  0  0  0  0  0  0  0  0  0  0
  142.2428   80.4201  225.0020 H   0  0  0  0  0  0  0  0  0  0  0  0
  140.9510   78.3212  224.6834 H   0  0  0  0  0  0  0  0  0  0  0  0
  140.3859   76.5454  223.3066 H   0  0  0  0  0  0  0  0  0  0  0  0
  139.3538   77.3281  222.0897 H   0  0  0  0  0  0  0  0  0  0  0  0
  143.8260   72.4875  218.0889 H   0  0  0  0  0  0  0  0  0  0  0  0
  143.8911   73.8086  219.2757 H   0  0  0  0  0  0  0  0  0  0  0  0
  146.0800   72.5908  219.1847 H   0  0  0  0  0  0  0  0  0  0  0  0
  145.3357   72.3613  220.7771 H   0  0  0  0  0  0  0  0  0  0  0  0
  147.2838   70.5370  219.1008 H   0  0  0  0  0  0  0  0  0  0  0  0
  147.2327   68.0919  218.6746 H   0  0  0  0  0  0  0  0  0  0  0  0
  145.0661   66.8648  218.7883 H   0  0  0  0  0  0  0  0  0  0  0  0
  142.9610   68.0781  219.3307 H   0  0  0  0  0  0  0  0  0  0  0  0
  141.9470   70.4086  219.0449 H   0  0  0  0  0  0  0  0  0  0  0  0
  142.3276   70.2870  220.8075 H   0  0  0  0  0  0  0  0  0  0  0  0
  137.7624   69.9897  223.4510 H   0  0  0  0  0  0  0  0  0  0  0  0
  137.8969   71.0156  224.8856 H   0  0  0  0  0  0  0  0  0  0  0  0
  139.6916   68.5559  224.4670 H   0  0  0  0  0  0  0  0  0  0  0  0
  138.0965   68.4154  225.2483 H   0  0  0  0  0  0  0  0  0  0  0  0
  1  2  1  0
  2  3  1  0
  3  4  1  0
  4  5  1  0
  5  6  1  0
  6  7  1  0
  7  8  2  0
  8  9  1  0
  9 10  1  0
 10 11  1  0
 11 12  1  0
 12 13  1  0
 13 14  2  0
 14 15  1  0
 15 16  2  0
 16 17  1  0
 17 18  2  0
 18 19  1  0
  9 20  2  0
 20 21  1  0
 21 22  1  0
 22 23  1  0
 23 24  1  0
 24 25  1  0
 25 26  2  0
 26 27  1  0
 27 28  2  0
 28 29  1  0
 29 30  2  0
 30 31  1  0
 21 32  2  0
  5 33  1  0
 33 34  1  0
 34  2  1  0
 32  7  1  0
 19 10  1  0
 31 22  1  0
 18 13  1  0
 30 25  1  0
  1 35  1  0
  1 36  1  0
  1 37  1  0
  2 38  1  1
  3 39  1  0
  3 40  1  0
  4 41  1  0
  4 42  1  0
  5 43  1  6
  6 44  1  0
 11 45  1  0
 11 46  1  0
 12 47  1  0
 12 48  1  0
 14 49  1  0
 15 50  1  0
 16 51  1  0
 17 52  1  0
 19 53  1  0
 19 54  1  0
 23 55  1  0
 23 56  1  0
 24 57  1  0
 24 58  1  0
 26 59  1  0
 27 60  1  0
 28 61  1  0
 29 62  1  0
 31 63  1  0
 31 64  1  0
 33 65  1  0
 33 66  1  0
 34 67  1  0
 34 68  1  0
M  END
>  <smiles>  (40) 
C[C@H]1CC[C@H](Nc2nc(N3CCc4ccccc4C3)nc(N3CCc4ccccc4C3)n2)CC1

>  <score_type>  (40) 
oracle

>  <origin>  (40) 
autodockgpu

>  <m_score__min__energy>  (40) 
-10.98

>  <m_primary>  (40) 
energy

>  <rmsd>  (40) 
5.031810855196778

>  <m_score__min__rmsd>  (40) 
5.031810855196778

>  <meeko>  (40) 
{"free_energy": -10.67, "intermolecular_energy": -11.86, "internal_energy": -1.06, "cluster_size": 24, "cluster_id": 1, "rank_in_cluster": 20}

>  <energy>  (40) 
-9.59

>  <cluster_rmsd>  (40) 
1.5

>  <cluster>  (40) 
2

$$$$

     RDKit          3D

 68 73  0  0  0  0  0  0  0  0999 V2000
  134.1860   75.5100  226.1750 C   0  0  0  0  0  0  0  0  0  0  0  0
  135.1750   75.3260  225.0520 C   0  0  1  0  0  0  0  0  0  0  0  0
  135.1980   73.9490  224.4750 C   0  0  0  0  0  0  0  0  0  0  0  0
  134.5330   73.8380  223.1200 C   0  0  0  0  0  0  0  0  0  0  0  0
  135.1320   74.7760  222.1170 C   0  0  2  0  0  0  0  0  0  0  0  0
  136.0730   74.1370  221.2240 N   0  0  0  0  0  0  0  0  0  0  0  0
  137.4250   73.9390  221.6720 C   0  0  0  0  0  0  0  0  0  0  0  0
  137.7940   72.8150  222.2740 N   0  0  0  0  0  0  0  0  0  0  0  0
  139.0500   72.6340  222.6870 C   0  0  0  0  0  0  0  0  0  0  0  0
  139.4390   71.4160  223.3380 N   0  0  0  0  0  0  0  0  0  0  0  0
  138.5520   70.2870  223.1950 C   0  0  0  0  0  0  0  0  0  0  0  0
  139.1980   69.0030  223.6730 C   0  0  0  0  0  0  0  0  0  0  0  0
  139.7350   69.2930  225.0320 C   0  0  0  0  0  0  0  0  0  0  0  0
  139.5500   68.4600  226.1100 C   0  0  0  0  0  0  0  0  0  0  0  0
  140.0660   68.7640  227.3670 C   0  0  0  0  0  0  0  0  0  0  0  0
  140.7890   69.9430  227.5350 C   0  0  0  0  0  0  0  0  0  0  0  0
  140.9860   70.7900  226.4660 C   0  0  0  0  0  0  0  0  0  0  0  0
  140.4560   70.4510  225.2360 C   0  0  0  0  0  0  0  0  0  0  0  0
  140.6770   71.3770  224.0920 C   0  0  0  0  0  0  0  0  0  0  0  0
  139.9740   73.6190  222.4910 N   0  0  0  0  0  0  0  0  0  0  0  0
  139.6260   74.7630  221.8840 C   0  0  0  0  0  0  0  0  0  0  0  0
  140.5610   75.8100  221.6630 N   0  0  0  0  0  0  0  0  0  0  0  0
  141.2660   75.9220  220.4010 C   0  0  0  0  0  0  0  0  0  0  0  0
  140.8750   77.2620  219.7960 C   0  0  0  0  0  0  0  0  0  0  0  0
  141.3220   78.3010  220.7650 C   0  0  0  0  0  0  0  0  0  0  0  0
  141.7740   79.5200  220.3000 C   0  0  0  0  0  0  0  0  0  0  0  0
  142.1930   80.5000  221.1820 C   0  0  0  0  0  0  0  0  0  0  0  0
  142.1570   80.2470  222.5520 C   0  0  0  0  0  0  0  0  0  0  0  0
  141.7070   79.0330  223.0350 C   0  0  0  0  0  0  0  0  0  0  0  0
  141.2960   78.0780  222.1260 C   0  0  0  0  0  0  0  0  0  0  0  0
  140.8180   76.7800  222.7070 C   0  0  0  0  0  0  0  0  0  0  0  0
  138.3490   74.9010  221.4840 N   0  0  0  0  0  0  0  0  0  0  0  0
  135.8630   75.9320  222.7890 C   0  0  0  0  0  0  0  0  0  0  0  0
  134.9870   76.3480  223.9570 C   0  0  0  0  0  0  0  0  0  0  0  0
  134.7049   75.4135  227.1401 H   0  0  0  0  0  0  0  0  0  0  0  0
  133.7300   76.5084  226.1021 H   0  0  0  0  0  0  0  0  0  0  0  0
  133.4015   74.7424  226.1021 H   0  0  0  0  0  0  0  0  0  0  0  0
  136.1566   75.4840  225.5227 H   0  0  0  0  0  0  0  0  0  0  0  0
  134.6793   73.2736  225.1712 H   0  0  0  0  0  0  0  0  0  0  0  0
  136.2554   73.6810  224.3334 H   0  0  0  0  0  0  0  0  0  0  0  0
  133.4639   74.0724  223.2298 H   0  0  0  0  0  0  0  0  0  0  0  0
  134.6823   72.8116  222.7536 H   0  0  0  0  0  0  0  0  0  0  0  0
  134.2716   75.1403  221.5365 H   0  0  0  0  0  0  0  0  0  0  0  0
  135.8110   73.8110  220.2620 H   0  0  0  0  0  0  0  0  0  0  0  0
  137.6431   70.4706  223.7868 H   0  0  0  0  0  0  0  0  0  0  0  0
  138.3112   70.1731  222.1277 H   0  0  0  0  0  0  0  0  0  0  0  0
  138.4527   68.1954  223.7211 H   0  0  0  0  0  0  0  0  0  0  0  0
  139.9932   68.6735  222.9881 H   0  0  0  0  0  0  0  0  0  0  0  0
  138.9795   67.5291  225.9760 H   0  0  0  0  0  0  0  0  0  0  0  0
  139.9050   68.0828  228.2156 H   0  0  0  0  0  0  0  0  0  0  0  0
  141.2029   70.1980  228.5217 H   0  0  0  0  0  0  0  0  0  0  0  0
  141.5567   71.7221  226.5902 H   0  0  0  0  0  0  0  0  0  0  0  0
  140.9268   72.3824  224.4617 H   0  0  0  0  0  0  0  0  0  0  0  0
  141.5113   71.0339  223.4626 H   0  0  0  0  0  0  0  0  0  0  0  0
  142.3524   75.8853  220.5697 H   0  0  0  0  0  0  0  0  0  0  0  0
  141.0030   75.0932  219.7273 H   0  0  0  0  0  0  0  0  0  0  0  0
  141.3758   77.4036  218.8269 H   0  0  0  0  0  0  0  0  0  0  0  0
  139.7912   77.3203  219.6170 H   0  0  0  0  0  0  0  0  0  0  0  0
  141.8012   79.7138  219.2176 H   0  0  0  0  0  0  0  0  0  0  0  0
  142.5511   81.4696  220.8056 H   0  0  0  0  0  0  0  0  0  0  0  0
  142.4906   81.0226  223.2570 H   0  0  0  0  0  0  0  0  0  0  0  0
  141.6769   78.8324  224.1161 H   0  0  0  0  0  0  0  0  0  0  0  0
  141.5881   76.3837  223.3852 H   0  0  0  0  0  0  0  0  0  0  0  0
  139.8817   76.9636  223.2543 H   0  0  0  0  0  0  0  0  0  0  0  0
  135.9868   76.7684  222.0854 H   0  0  0  0  0  0  0  0  0  0  0  0
  136.8697   75.6379  223.1209 H   0  0  0  0  0  0  0  0  0  0  0  0
  133.9325   76.3743  223.6449 H   0  0  0  0  0  0  0  0  0  0  0  0
  135.2652   77.3514  224.3117 H   0  0  0  0  0  0  0  0  0  0  0  0
  1  2  1  0
  2  3  1  0
  3  4  1  0
  4  5  1  0
  5  6  1  0
  6  7  1  0
  7  8  2  0
  8  9  1  0
  9 10  1  0
 10 11  1  0
 11 12  1  0
 12 13  1  0
 13 14  2  0
 14 15  1  0
 15 16  2  0
 16 17  1  0
 17 18  2  0
 18 19  1  0
  9 20  2  0
 20 21  1  0
 21 22  1  0
 22 23  1  0
 23 24  1  0
 24 25  1  0
 25 26  2  0
 26 27  1  0
 27 28  2  0
 28 29  1  0
 29 30  2  0
 30 31  1  0
 21 32  2  0
  5 33  1  0
 33 34  1  0
 34  2  1  0
 32  7  1  0
 19 10  1  0
 31 22  1  0
 18 13  1  0
 30 25  1  0
  1 35  1  0
  1 36  1  0
  1 37  1  0
  2 38  1  1
  3 39  1  0
  3 40  1  0
  4 41  1  0
  4 42  1  0
  5 43  1  6
  6 44  1  0
 11 45  1  0
 11 46  1  0
 12 47  1  0
 12 48  1  0
 14 49  1  0
 15 50  1  0
 16 51  1  0
 17 52  1  0
 19 53  1  0
 19 54  1  0
 23 55  1  0
 23 56  1  0
 24 57  1  0
 24 58  1  0
 26 59  1  0
 27 60  1  0
 28 61  1  0
 29 62  1  0
 31 63  1  0
 31 64  1  0
 33 65  1  0
 33 66  1  0
 34 67  1  0
 34 68  1  0
M  END
>  <smiles>  (41) 
C[C@H]1CC[C@H](Nc2nc(N3CCc4ccccc4C3)nc(N3CCc4ccccc4C3)n2)CC1

>  <score_type>  (41) 
oracle

>  <origin>  (41) 
autodockgpu

>  <m_score__min__energy>  (41) 
-10.98

>  <m_primary>  (41) 
energy

>  <rmsd>  (41) 
10.833225832832506

>  <m_score__min__rmsd>  (41) 
10.833225832832506

>  <meeko>  (41) 
{"free_energy": -9.22, "intermolecular_energy": -10.41, "internal_energy": -1.35, "cluster_size": 5, "cluster_id": 3, "rank_in_cluster": 1}

>  <energy>  (41) 
-9.58

>  <cluster_rmsd>  (41) 
1.59

>  <cluster>  (41) 
2

$$$$

     RDKit          3D

 68 73  0  0  0  0  0  0  0  0999 V2000
  140.6590   68.8040  227.6920 C   0  0  0  0  0  0  0  0  0  0  0  0
  139.8540   69.6950  226.7790 C   0  0  1  0  0  0  0  0  0  0  0  0
  140.5130   70.9950  226.4550 C   0  0  0  0  0  0  0  0  0  0  0  0
  141.0800   71.0650  225.0540 C   0  0  0  0  0  0  0  0  0  0  0  0
  140.0430   70.7930  224.0080 C   0  0  2  0  0  0  0  0  0  0  0  0
  139.5220   71.9910  223.3900 N   0  0  0  0  0  0  0  0  0  0  0  0
  140.3410   72.6910  222.4380 C   0  0  0  0  0  0  0  0  0  0  0  0
  140.2950   74.0140  222.3290 N   0  0  0  0  0  0  0  0  0  0  0  0
  141.0570   74.6590  221.4440 C   0  0  0  0  0  0  0  0  0  0  0  0
  141.0000   76.0890  221.3340 N   0  0  0  0  0  0  0  0  0  0  0  0
  141.6030   76.6790  220.1630 C   0  0  0  0  0  0  0  0  0  0  0  0
  141.2340   78.1400  220.0190 C   0  0  0  0  0  0  0  0  0  0  0  0
  141.5240   78.7700  221.3370 C   0  0  0  0  0  0  0  0  0  0  0  0
  142.2030   79.9580  221.4730 C   0  0  0  0  0  0  0  0  0  0  0  0
  142.4560   80.5170  222.7230 C   0  0  0  0  0  0  0  0  0  0  0  0
  142.0090   79.8570  223.8640 C   0  0  0  0  0  0  0  0  0  0  0  0
  141.3250   78.6660  223.7480 C   0  0  0  0  0  0  0  0  0  0  0  0
  141.0950   78.1440  222.4890 C   0  0  0  0  0  0  0  0  0  0  0  0
  140.3550   76.8580  222.3810 C   0  0  0  0  0  0  0  0  0  0  0  0
  141.8990   73.9540  220.6350 N   0  0  0  0  0  0  0  0  0  0  0  0
  141.9640   72.6160  220.7270 C   0  0  0  0  0  0  0  0  0  0  0  0
  142.8290   71.8490  219.9000 N   0  0  0  0  0  0  0  0  0  0  0  0
  143.8590   72.4890  219.1060 C   0  0  0  0  0  0  0  0  0  0  0  0
  145.1930   71.9450  219.5930 C   0  0  0  0  0  0  0  0  0  0  0  0
  145.1540   70.4750  219.3530 C   0  0  0  0  0  0  0  0  0  0  0  0
  146.3110   69.8080  219.0040 C   0  0  0  0  0  0  0  0  0  0  0  0
  146.2980   68.4430  218.7780 C   0  0  0  0  0  0  0  0  0  0  0  0
  145.1010   67.7410  218.9050 C   0  0  0  0  0  0  0  0  0  0  0  0
  143.9330   68.3920  219.2530 C   0  0  0  0  0  0  0  0  0  0  0  0
  143.9830   69.7550  219.4720 C   0  0  0  0  0  0  0  0  0  0  0  0
  142.6860   70.4090  219.8480 C   0  0  0  0  0  0  0  0  0  0  0  0
  141.1780   72.0090  221.6330 N   0  0  0  0  0  0  0  0  0  0  0  0
  138.8540   70.0270  224.5770 C   0  0  0  0  0  0  0  0  0  0  0  0
  139.4450   68.9860  225.5100 C   0  0  0  0  0  0  0  0  0  0  0  0
  140.4339   69.0532  228.7395 H   0  0  0  0  0  0  0  0  0  0  0  0
  140.3986   67.7524  227.5011 H   0  0  0  0  0  0  0  0  0  0  0  0
  141.7315   68.9566  227.5011 H   0  0  0  0  0  0  0  0  0  0  0  0
  138.9512   69.9379  227.3586 H   0  0  0  0  0  0  0  0  0  0  0  0
  141.3346   71.1538  227.1690 H   0  0  0  0  0  0  0  0  0  0  0  0
  139.7366   71.7712  226.5233 H   0  0  0  0  0  0  0  0  0  0  0  0
  141.8825   70.3187  224.9593 H   0  0  0  0  0  0  0  0  0  0  0  0
  141.4598   72.0850  224.8948 H   0  0  0  0  0  0  0  0  0  0  0  0
  140.5703   70.1950  223.2501 H   0  0  0  0  0  0  0  0  0  0  0  0
  138.5690   72.3740  223.6060 H   0  0  0  0  0  0  0  0  0  0  0  0
  142.6967   76.5939  220.2440 H   0  0  0  0  0  0  0  0  0  0  0  0
  141.2302   76.1424  219.2781 H   0  0  0  0  0  0  0  0  0  0  0  0
  141.8384   78.6106  219.2295 H   0  0  0  0  0  0  0  0  0  0  0  0
  140.1774   78.2623  219.7384 H   0  0  0  0  0  0  0  0  0  0  0  0
  142.5553   80.4801  220.5712 H   0  0  0  0  0  0  0  0  0  0  0  0
  143.0022   81.4681  222.8076 H   0  0  0  0  0  0  0  0  0  0  0  0
  142.2016   80.2859  224.8584 H   0  0  0  0  0  0  0  0  0  0  0  0
  140.9673   78.1385  224.6445 H   0  0  0  0  0  0  0  0  0  0  0  0
  140.4025   76.3127  223.3351 H   0  0  0  0  0  0  0  0  0  0  0  0
  139.2945   77.0318  222.1462 H   0  0  0  0  0  0  0  0  0  0  0  0
  143.7190   72.2504  218.0413 H   0  0  0  0  0  0  0  0  0  0  0  0
  143.8166   73.5829  219.2135 H   0  0  0  0  0  0  0  0  0  0  0  0
  146.0199   72.4017  219.0294 H   0  0  0  0  0  0  0  0  0  0  0  0
  145.3553   72.1737  220.6567 H   0  0  0  0  0  0  0  0  0  0  0  0
  147.2529   70.3673  218.9045 H   0  0  0  0  0  0  0  0  0  0  0  0
  147.2235   67.9171  218.5008 H   0  0  0  0  0  0  0  0  0  0  0  0
  145.0858   66.6558  218.7261 H   0  0  0  0  0  0  0  0  0  0  0  0
  142.9874   67.8390  219.3531 H   0  0  0  0  0  0  0  0  0  0  0  0
  141.9220   70.1498  219.1003 H   0  0  0  0  0  0  0  0  0  0  0  0
  142.3870   70.0495  220.8437 H   0  0  0  0  0  0  0  0  0  0  0  0
  138.2886   69.5406  223.7685 H   0  0  0  0  0  0  0  0  0  0  0  0
  138.1553   70.6941  225.1032 H   0  0  0  0  0  0  0  0  0  0  0  0
  140.3231   68.5172  225.0418 H   0  0  0  0  0  0  0  0  0  0  0  0
  138.7096   68.1971  225.7263 H   0  0  0  0  0  0  0  0  0  0  0  0
  1  2  1  0
  2  3  1  0
  3  4  1  0
  4  5  1  0
  5  6  1  0
  6  7  1  0
  7  8  2  0
  8  9  1  0
  9 10  1  0
 10 11  1  0
 11 12  1  0
 12 13  1  0
 13 14  2  0
 14 15  1  0
 15 16  2  0
 16 17  1  0
 17 18  2  0
 18 19  1  0
  9 20  2  0
 20 21  1  0
 21 22  1  0
 22 23  1  0
 23 24  1  0
 24 25  1  0
 25 26  2  0
 26 27  1  0
 27 28  2  0
 28 29  1  0
 29 30  2  0
 30 31  1  0
 21 32  2  0
  5 33  1  0
 33 34  1  0
 34  2  1  0
 32  7  1  0
 19 10  1  0
 31 22  1  0
 18 13  1  0
 30 25  1  0
  1 35  1  0
  1 36  1  0
  1 37  1  0
  2 38  1  1
  3 39  1  0
  3 40  1  0
  4 41  1  0
  4 42  1  0
  5 43  1  6
  6 44  1  0
 11 45  1  0
 11 46  1  0
 12 47  1  0
 12 48  1  0
 14 49  1  0
 15 50  1  0
 16 51  1  0
 17 52  1  0
 19 53  1  0
 19 54  1  0
 23 55  1  0
 23 56  1  0
 24 57  1  0
 24 58  1  0
 26 59  1  0
 27 60  1  0
 28 61  1  0
 29 62  1  0
 31 63  1  0
 31 64  1  0
 33 65  1  0
 33 66  1  0
 34 67  1  0
 34 68  1  0
M  END
>  <smiles>  (42) 
C[C@H]1CC[C@H](Nc2nc(N3CCc4ccccc4C3)nc(N3CCc4ccccc4C3)n2)CC1

>  <score_type>  (42) 
oracle

>  <origin>  (42) 
autodockgpu

>  <m_score__min__energy>  (42) 
-10.98

>  <m_primary>  (42) 
energy

>  <rmsd>  (42) 
4.918846037718067

>  <m_score__min__rmsd>  (42) 
4.918846037718067

>  <meeko>  (42) 
{"free_energy": -10.96, "intermolecular_energy": -12.15, "internal_energy": -1.03, "cluster_size": 24, "cluster_id": 1, "rank_in_cluster": 8}

>  <energy>  (42) 
-9.4

>  <cluster_rmsd>  (42) 
0.99

>  <cluster>  (42) 
2

$$$$

     RDKit          3D

 68 73  0  0  0  0  0  0  0  0999 V2000
  145.4060   67.5760  218.0250 C   0  0  0  0  0  0  0  0  0  0  0  0
  145.2230   68.7520  218.9510 C   0  0  1  0  0  0  0  0  0  0  0  0
  145.7370   70.0440  218.4090 C   0  0  0  0  0  0  0  0  0  0  0  0
  144.6520   70.9930  217.9470 C   0  0  0  0  0  0  0  0  0  0  0  0
  143.6680   71.2990  219.0340 C   0  0  2  0  0  0  0  0  0  0  0  0
  143.9020   72.5720  219.6790 N   0  0  0  0  0  0  0  0  0  0  0  0
  142.8500   73.1500  220.4710 C   0  0  0  0  0  0  0  0  0  0  0  0
  142.6320   74.4600  220.4780 N   0  0  0  0  0  0  0  0  0  0  0  0
  141.6560   74.9930  221.2130 C   0  0  0  0  0  0  0  0  0  0  0  0
  141.4280   76.4100  221.2140 N   0  0  0  0  0  0  0  0  0  0  0  0
  141.8830   77.1450  220.0590 C   0  0  0  0  0  0  0  0  0  0  0  0
  141.3410   78.5590  220.0450 C   0  0  0  0  0  0  0  0  0  0  0  0
  141.6390   79.1280  221.3890 C   0  0  0  0  0  0  0  0  0  0  0  0
  142.1850   80.3760  221.5760 C   0  0  0  0  0  0  0  0  0  0  0  0
  142.4520   80.8750  222.8480 C   0  0  0  0  0  0  0  0  0  0  0  0
  142.1560   80.0900  223.9600 C   0  0  0  0  0  0  0  0  0  0  0  0
  141.6080   78.8370  223.7930 C   0  0  0  0  0  0  0  0  0  0  0  0
  141.3600   78.3790  222.5130 C   0  0  0  0  0  0  0  0  0  0  0  0
  140.7670   77.0240  222.3500 C   0  0  0  0  0  0  0  0  0  0  0  0
  140.8640   74.1830  221.9740 N   0  0  0  0  0  0  0  0  0  0  0  0
  141.0630   72.8560  221.9840 C   0  0  0  0  0  0  0  0  0  0  0  0
  140.2580   71.9830  222.7640 N   0  0  0  0  0  0  0  0  0  0  0  0
  139.1890   71.2150  222.1560 C   0  0  0  0  0  0  0  0  0  0  0  0
  139.5290   69.7470  222.3620 C   0  0  0  0  0  0  0  0  0  0  0  0
  139.5830   69.5360  223.8360 C   0  0  0  0  0  0  0  0  0  0  0  0
  139.1690   68.3310  224.3700 C   0  0  0  0  0  0  0  0  0  0  0  0
  139.2110   68.1140  225.7350 C   0  0  0  0  0  0  0  0  0  0  0  0
  139.6750   69.1240  226.5740 C   0  0  0  0  0  0  0  0  0  0  0  0
  140.0930   70.3360  226.0580 C   0  0  0  0  0  0  0  0  0  0  0  0
  140.0380   70.5190  224.6900 C   0  0  0  0  0  0  0  0  0  0  0  0
  140.5050   71.8530  224.1850 C   0  0  0  0  0  0  0  0  0  0  0  0
  142.0590   72.3640  221.2270 N   0  0  0  0  0  0  0  0  0  0  0  0
  143.6780   70.2340  220.1240 C   0  0  0  0  0  0  0  0  0  0  0  0
  143.7890   68.9050  219.3990 C   0  0  0  0  0  0  0  0  0  0  0  0
  145.5484   66.6608  218.6184 H   0  0  0  0  0  0  0  0  0  0  0  0
  144.5141   67.4666  217.3906 H   0  0  0  0  0  0  0  0  0  0  0  0
  146.2890   67.7428  217.3906 H   0  0  0  0  0  0  0  0  0  0  0  0
  145.8449   68.5114  219.8258 H   0  0  0  0  0  0  0  0  0  0  0  0
  146.3916   69.8239  217.5528 H   0  0  0  0  0  0  0  0  0  0  0  0
  146.2690   70.5449  219.2312 H   0  0  0  0  0  0  0  0  0  0  0  0
  144.1162   70.5345  217.1028 H   0  0  0  0  0  0  0  0  0  0  0  0
  145.1325   71.9371  217.6507 H   0  0  0  0  0  0  0  0  0  0  0  0
  142.6954   71.3260  218.5208 H   0  0  0  0  0  0  0  0  0  0  0  0
  144.8080   73.0920  219.5950 H   0  0  0  0  0  0  0  0  0  0  0  0
  142.9822   77.1848  220.0722 H   0  0  0  0  0  0  0  0  0  0  0  0
  141.5177   76.6291  219.1588 H   0  0  0  0  0  0  0  0  0  0  0  0
  141.8371   79.1504  219.2613 H   0  0  0  0  0  0  0  0  0  0  0  0
  140.2619   78.5741  219.8321 H   0  0  0  0  0  0  0  0  0  0  0  0
  142.4169   80.9963  220.6977 H   0  0  0  0  0  0  0  0  0  0  0  0
  142.8909   81.8759  222.9732 H   0  0  0  0  0  0  0  0  0  0  0  0
  142.3599   80.4706  224.9717 H   0  0  0  0  0  0  0  0  0  0  0  0
  141.3714   78.2105  224.6656 H   0  0  0  0  0  0  0  0  0  0  0  0
  140.9375   76.4247  223.2565 H   0  0  0  0  0  0  0  0  0  0  0  0
  139.6808   77.0859  222.1880 H   0  0  0  0  0  0  0  0  0  0  0  0
  138.2299   71.4528  222.6393 H   0  0  0  0  0  0  0  0  0  0  0  0
  139.0933   71.4511  221.0859 H   0  0  0  0  0  0  0  0  0  0  0  0
  138.7530   69.1092  221.9136 H   0  0  0  0  0  0  0  0  0  0  0  0
  140.4849   69.4859  221.8843 H   0  0  0  0  0  0  0  0  0  0  0  0
  138.8025   67.5367  223.7031 H   0  0  0  0  0  0  0  0  0  0  0  0
  138.8808   67.1522  226.1544 H   0  0  0  0  0  0  0  0  0  0  0  0
  139.7092   68.9551  227.6604 H   0  0  0  0  0  0  0  0  0  0  0  0
  140.4601   71.1344  226.7197 H   0  0  0  0  0  0  0  0  0  0  0  0
  139.9653   72.6492  224.7187 H   0  0  0  0  0  0  0  0  0  0  0  0
  141.5873   71.9367  224.3627 H   0  0  0  0  0  0  0  0  0  0  0  0
  142.7473   70.2752  220.7089 H   0  0  0  0  0  0  0  0  0  0  0  0
  144.5092   70.3825  220.8290 H   0  0  0  0  0  0  0  0  0  0  0  0
  143.1196   68.8961  218.5261 H   0  0  0  0  0  0  0  0  0  0  0  0
  143.4991   68.0762  220.0617 H   0  0  0  0  0  0  0  0  0  0  0  0
  1  2  1  0
  2  3  1  0
  3  4  1  0
  4  5  1  0
  5  6  1  0
  6  7  1  0
  7  8  2  0
  8  9  1  0
  9 10  1  0
 10 11  1  0
 11 12  1  0
 12 13  1  0
 13 14  2  0
 14 15  1  0
 15 16  2  0
 16 17  1  0
 17 18  2  0
 18 19  1  0
  9 20  2  0
 20 21  1  0
 21 22  1  0
 22 23  1  0
 23 24  1  0
 24 25  1  0
 25 26  2  0
 26 27  1  0
 27 28  2  0
 28 29  1  0
 29 30  2  0
 30 31  1  0
 21 32  2  0
  5 33  1  0
 33 34  1  0
 34  2  1  0
 32  7  1  0
 19 10  1  0
 31 22  1  0
 18 13  1  0
 30 25  1  0
  1 35  1  0
  1 36  1  0
  1 37  1  0
  2 38  1  1
  3 39  1  0
  3 40  1  0
  4 41  1  0
  4 42  1  0
  5 43  1  6
  6 44  1  0
 11 45  1  0
 11 46  1  0
 12 47  1  0
 12 48  1  0
 14 49  1  0
 15 50  1  0
 16 51  1  0
 17 52  1  0
 19 53  1  0
 19 54  1  0
 23 55  1  0
 23 56  1  0
 24 57  1  0
 24 58  1  0
 26 59  1  0
 27 60  1  0
 28 61  1  0
 29 62  1  0
 31 63  1  0
 31 64  1  0
 33 65  1  0
 33 66  1  0
 34 67  1  0
 34 68  1  0
M  END
>  <smiles>  (43) 
C[C@H]1CC[C@H](Nc2nc(N3CCc4ccccc4C3)nc(N3CCc4ccccc4C3)n2)CC1

>  <score_type>  (43) 
oracle

>  <origin>  (43) 
autodockgpu

>  <m_score__min__energy>  (43) 
-10.98

>  <m_primary>  (43) 
energy

>  <rmsd>  (43) 
5.07216668731021

>  <m_score__min__rmsd>  (43) 
5.07216668731021

>  <meeko>  (43) 
{"free_energy": -9.4, "intermolecular_energy": -10.59, "internal_energy": -1.03, "cluster_size": 20, "cluster_id": 2, "rank_in_cluster": 18}

>  <energy>  (43) 
-9.18

>  <cluster_rmsd>  (43) 
1.53

>  <cluster>  (43) 
2

$$$$

     RDKit          3D

 68 73  0  0  0  0  0  0  0  0999 V2000
  140.6950   69.1180  228.0080 C   0  0  0  0  0  0  0  0  0  0  0  0
  139.8870   69.8490  226.9650 C   0  0  1  0  0  0  0  0  0  0  0  0
  140.4020   71.2110  226.6340 C   0  0  0  0  0  0  0  0  0  0  0  0
  141.1070   71.2940  225.2970 C   0  0  0  0  0  0  0  0  0  0  0  0
  140.2350   70.8350  224.1680 C   0  0  2  0  0  0  0  0  0  0  0  0
  139.6340   71.9230  223.4290 N   0  0  0  0  0  0  0  0  0  0  0  0
  140.4290   72.6190  222.4530 C   0  0  0  0  0  0  0  0  0  0  0  0
  140.3720   73.9400  222.3340 N   0  0  0  0  0  0  0  0  0  0  0  0
  141.1100   74.5830  221.4280 C   0  0  0  0  0  0  0  0  0  0  0  0
  141.0420   76.0110  221.3060 N   0  0  0  0  0  0  0  0  0  0  0  0
  141.6930   76.6020  220.1620 C   0  0  0  0  0  0  0  0  0  0  0  0
  141.3140   78.0580  219.9920 C   0  0  0  0  0  0  0  0  0  0  0  0
  141.5320   78.6990  221.3180 C   0  0  0  0  0  0  0  0  0  0  0  0
  142.1900   79.8950  221.4800 C   0  0  0  0  0  0  0  0  0  0  0  0
  142.3760   80.4640  222.7370 C   0  0  0  0  0  0  0  0  0  0  0  0
  141.8820   79.8050  223.8600 C   0  0  0  0  0  0  0  0  0  0  0  0
  141.2180   78.6050  223.7180 C   0  0  0  0  0  0  0  0  0  0  0  0
  141.0560   78.0740  222.4530 C   0  0  0  0  0  0  0  0  0  0  0  0
  140.3380   76.7780  222.3170 C   0  0  0  0  0  0  0  0  0  0  0  0
  141.9400   73.8760  220.6070 N   0  0  0  0  0  0  0  0  0  0  0  0
  142.0160   72.5400  220.7090 C   0  0  0  0  0  0  0  0  0  0  0  0
  142.8680   71.7710  219.8710 N   0  0  0  0  0  0  0  0  0  0  0  0
  143.9240   72.4030  219.1040 C   0  0  0  0  0  0  0  0  0  0  0  0
  145.2370   71.8090  219.5900 C   0  0  0  0  0  0  0  0  0  0  0  0
  145.1600   70.3480  219.3110 C   0  0  0  0  0  0  0  0  0  0  0  0
  146.3020   69.6580  218.9570 C   0  0  0  0  0  0  0  0  0  0  0  0
  146.2540   68.3010  218.6940 C   0  0  0  0  0  0  0  0  0  0  0  0
  145.0370   67.6290  218.7900 C   0  0  0  0  0  0  0  0  0  0  0  0
  143.8840   68.3030  219.1440 C   0  0  0  0  0  0  0  0  0  0  0  0
  143.9680   69.6580  219.3990 C   0  0  0  0  0  0  0  0  0  0  0  0
  142.6860   70.3370  219.7790 C   0  0  0  0  0  0  0  0  0  0  0  0
  141.2530   71.9350  221.6360 N   0  0  0  0  0  0  0  0  0  0  0  0
  139.1010   69.9410  224.6550 C   0  0  0  0  0  0  0  0  0  0  0  0
  139.7160   69.0340  225.7050 C   0  0  0  0  0  0  0  0  0  0  0  0
  140.3596   69.4214  229.0107 H   0  0  0  0  0  0  0  0  0  0  0  0
  140.5548   68.0337  227.8870 H   0  0  0  0  0  0  0  0  0  0  0  0
  141.7599   69.3658  227.8870 H   0  0  0  0  0  0  0  0  0  0  0  0
  138.9019   69.9930  227.4328 H   0  0  0  0  0  0  0  0  0  0  0  0
  141.1115   71.5127  227.4186 H   0  0  0  0  0  0  0  0  0  0  0  0
  139.5280   71.8763  226.5750 H   0  0  0  0  0  0  0  0  0  0  0  0
  142.0058   70.6607  225.3305 H   0  0  0  0  0  0  0  0  0  0  0  0
  141.3663   72.3477  225.1167 H   0  0  0  0  0  0  0  0  0  0  0  0
  140.9155   70.2791  223.5063 H   0  0  0  0  0  0  0  0  0  0  0  0
  138.6400   72.2260  223.5730 H   0  0  0  0  0  0  0  0  0  0  0  0
  142.7825   76.5305  220.2955 H   0  0  0  0  0  0  0  0  0  0  0  0
  141.3692   76.0563  219.2635 H   0  0  0  0  0  0  0  0  0  0  0  0
  141.9502   78.5316  219.2298 H   0  0  0  0  0  0  0  0  0  0  0  0
  140.2707   78.1656  219.6603 H   0  0  0  0  0  0  0  0  0  0  0  0
  142.5798   80.4162  220.5932 H   0  0  0  0  0  0  0  0  0  0  0  0
  142.9064   81.4219  222.8418 H   0  0  0  0  0  0  0  0  0  0  0  0
  142.0215   80.2417  224.8599 H   0  0  0  0  0  0  0  0  0  0  0  0
  140.8230   78.0781  224.5991 H   0  0  0  0  0  0  0  0  0  0  0  0
  140.3464   76.2383  223.2755 H   0  0  0  0  0  0  0  0  0  0  0  0
  139.2880   76.9374  222.0305 H   0  0  0  0  0  0  0  0  0  0  0  0
  143.7889   72.1964  218.0321 H   0  0  0  0  0  0  0  0  0  0  0  0
  143.9108   73.4945  219.2396 H   0  0  0  0  0  0  0  0  0  0  0  0
  146.0824   72.2569  219.0471 H   0  0  0  0  0  0  0  0  0  0  0  0
  145.3938   72.0051  220.6610 H   0  0  0  0  0  0  0  0  0  0  0  0
  147.2603   70.1931  218.8833 H   0  0  0  0  0  0  0  0  0  0  0  0
  147.1677   67.7574  218.4118 H   0  0  0  0  0  0  0  0  0  0  0  0
  144.9938   66.5498  218.5816 H   0  0  0  0  0  0  0  0  0  0  0  0
  142.9228   67.7736  219.2209 H   0  0  0  0  0  0  0  0  0  0  0  0
  141.9234   70.1189  219.0169 H   0  0  0  0  0  0  0  0  0  0  0  0
  142.3663   69.9596  220.7616 H   0  0  0  0  0  0  0  0  0  0  0  0
  138.6973   69.3457  223.8227 H   0  0  0  0  0  0  0  0  0  0  0  0
  138.2669   70.5296  225.0647 H   0  0  0  0  0  0  0  0  0  0  0  0
  140.6939   68.6679  225.3589 H   0  0  0  0  0  0  0  0  0  0  0  0
  139.0700   68.1634  225.8914 H   0  0  0  0  0  0  0  0  0  0  0  0
  1  2  1  0
  2  3  1  0
  3  4  1  0
  4  5  1  0
  5  6  1  0
  6  7  1  0
  7  8  2  0
  8  9  1  0
  9 10  1  0
 10 11  1  0
 11 12  1  0
 12 13  1  0
 13 14  2  0
 14 15  1  0
 15 16  2  0
 16 17  1  0
 17 18  2  0
 18 19  1  0
  9 20  2  0
 20 21  1  0
 21 22  1  0
 22 23  1  0
 23 24  1  0
 24 25  1  0
 25 26  2  0
 26 27  1  0
 27 28  2  0
 28 29  1  0
 29 30  2  0
 30 31  1  0
 21 32  2  0
  5 33  1  0
 33 34  1  0
 34  2  1  0
 32  7  1  0
 19 10  1  0
 31 22  1  0
 18 13  1  0
 30 25  1  0
  1 35  1  0
  1 36  1  0
  1 37  1  0
  2 38  1  1
  3 39  1  0
  3 40  1  0
  4 41  1  0
  4 42  1  0
  5 43  1  6
  6 44  1  0
 11 45  1  0
 11 46  1  0
 12 47  1  0
 12 48  1  0
 14 49  1  0
 15 50  1  0
 16 51  1  0
 17 52  1  0
 19 53  1  0
 19 54  1  0
 23 55  1  0
 23 56  1  0
 24 57  1  0
 24 58  1  0
 26 59  1  0
 27 60  1  0
 28 61  1  0
 29 62  1  0
 31 63  1  0
 31 64  1  0
 33 65  1  0
 33 66  1  0
 34 67  1  0
 34 68  1  0
M  END
>  <smiles>  (44) 
C[C@H]1CC[C@H](Nc2nc(N3CCc4ccccc4C3)nc(N3CCc4ccccc4C3)n2)CC1

>  <score_type>  (44) 
oracle

>  <origin>  (44) 
autodockgpu

>  <m_score__min__energy>  (44) 
-10.98

>  <m_primary>  (44) 
energy

>  <rmsd>  (44) 
4.905310957751352

>  <m_score__min__rmsd>  (44) 
4.905310957751352

>  <meeko>  (44) 
{"free_energy": -10.93, "intermolecular_energy": -12.12, "internal_energy": -1.02, "cluster_size": 24, "cluster_id": 1, "rank_in_cluster": 15}

>  <energy>  (44) 
-9.12

>  <cluster_rmsd>  (44) 
1.26

>  <cluster>  (44) 
2

$$$$

     RDKit          3D

 68 73  0  0  0  0  0  0  0  0999 V2000
  140.5570   68.8190  227.8420 C   0  0  0  0  0  0  0  0  0  0  0  0
  139.7770   69.6530  226.8560 C   0  0  1  0  0  0  0  0  0  0  0  0
  140.3580   71.0040  226.6020 C   0  0  0  0  0  0  0  0  0  0  0  0
  141.0530   71.1340  225.2630 C   0  0  0  0  0  0  0  0  0  0  0  0
  140.1480   70.7900  224.1200 C   0  0  2  0  0  0  0  0  0  0  0  0
  139.5960   71.9500  223.4560 N   0  0  0  0  0  0  0  0  0  0  0  0
  140.3980   72.6340  222.4780 C   0  0  0  0  0  0  0  0  0  0  0  0
  140.3480   73.9550  222.3480 N   0  0  0  0  0  0  0  0  0  0  0  0
  141.0930   74.5860  221.4390 C   0  0  0  0  0  0  0  0  0  0  0  0
  141.0320   76.0140  221.3060 N   0  0  0  0  0  0  0  0  0  0  0  0
  141.7420   76.5980  220.1930 C   0  0  0  0  0  0  0  0  0  0  0  0
  141.3730   78.0530  219.9950 C   0  0  0  0  0  0  0  0  0  0  0  0
  141.5230   78.7020  221.3270 C   0  0  0  0  0  0  0  0  0  0  0  0
  142.1720   79.8990  221.5150 C   0  0  0  0  0  0  0  0  0  0  0  0
  142.2940   80.4750  222.7770 C   0  0  0  0  0  0  0  0  0  0  0  0
  141.7420   79.8220  223.8760 C   0  0  0  0  0  0  0  0  0  0  0  0
  141.0860   78.6220  223.7080 C   0  0  0  0  0  0  0  0  0  0  0  0
  140.9880   78.0840  222.4390 C   0  0  0  0  0  0  0  0  0  0  0  0
  140.2780   76.7870  222.2740 C   0  0  0  0  0  0  0  0  0  0  0  0
  141.9220   73.8690  220.6280 N   0  0  0  0  0  0  0  0  0  0  0  0
  141.9910   72.5330  220.7410 C   0  0  0  0  0  0  0  0  0  0  0  0
  142.8430   71.7540  219.9130 N   0  0  0  0  0  0  0  0  0  0  0  0
  143.8860   72.3780  219.1220 C   0  0  0  0  0  0  0  0  0  0  0  0
  145.2090   71.8070  219.6090 C   0  0  0  0  0  0  0  0  0  0  0  0
  145.1430   70.3390  219.3640 C   0  0  0  0  0  0  0  0  0  0  0  0
  146.2890   69.6510  219.0140 C   0  0  0  0  0  0  0  0  0  0  0  0
  146.2500   68.2880  218.7820 C   0  0  0  0  0  0  0  0  0  0  0  0
  145.0410   67.6080  218.9040 C   0  0  0  0  0  0  0  0  0  0  0  0
  143.8840   68.2790  219.2540 C   0  0  0  0  0  0  0  0  0  0  0  0
  143.9590   69.6400  219.4780 C   0  0  0  0  0  0  0  0  0  0  0  0
  142.6730   70.3170  219.8540 C   0  0  0  0  0  0  0  0  0  0  0  0
  141.2220   71.9400  221.6700 N   0  0  0  0  0  0  0  0  0  0  0  0
  138.9750   69.9260  224.5660 C   0  0  0  0  0  0  0  0  0  0  0  0
  139.5520   68.9260  225.5510 C   0  0  0  0  0  0  0  0  0  0  0  0
  140.2836   69.1113  228.8666 H   0  0  0  0  0  0  0  0  0  0  0  0
  140.3221   67.7553  227.6891 H   0  0  0  0  0  0  0  0  0  0  0  0
  141.6340   68.9823  227.6891 H   0  0  0  0  0  0  0  0  0  0  0  0
  138.8052   69.8182  227.3442 H   0  0  0  0  0  0  0  0  0  0  0  0
  141.0901   71.2201  227.3941 H   0  0  0  0  0  0  0  0  0  0  0  0
  139.5188   71.7151  226.5952 H   0  0  0  0  0  0  0  0  0  0  0  0
  141.9188   70.4557  225.2459 H   0  0  0  0  0  0  0  0  0  0  0  0
  141.3635   72.1825  225.1441 H   0  0  0  0  0  0  0  0  0  0  0  0
  140.7930   70.2424  223.4170 H   0  0  0  0  0  0  0  0  0  0  0  0
  138.6330   72.3140  223.6570 H   0  0  0  0  0  0  0  0  0  0  0  0
  142.8231   76.5271  220.3830 H   0  0  0  0  0  0  0  0  0  0  0  0
  141.4650   76.0469  219.2822 H   0  0  0  0  0  0  0  0  0  0  0  0
  142.0478   78.5219  219.2637 H   0  0  0  0  0  0  0  0  0  0  0  0
  140.3482   78.1589  219.6095 H   0  0  0  0  0  0  0  0  0  0  0  0
  142.6062   80.4153  220.6461 H   0  0  0  0  0  0  0  0  0  0  0  0
  142.8194   81.4330  222.9040 H   0  0  0  0  0  0  0  0  0  0  0  0
  141.8297   80.2645  224.8792 H   0  0  0  0  0  0  0  0  0  0  0  0
  140.6469   78.1002  224.5711 H   0  0  0  0  0  0  0  0  0  0  0  0
  140.2371   76.2533  223.2350 H   0  0  0  0  0  0  0  0  0  0  0  0
  139.2443   76.9447  221.9326 H   0  0  0  0  0  0  0  0  0  0  0  0
  143.7429   72.1460  218.0563 H   0  0  0  0  0  0  0  0  0  0  0  0
  143.8639   73.4722  219.2330 H   0  0  0  0  0  0  0  0  0  0  0  0
  146.0451   72.2501  219.0481 H   0  0  0  0  0  0  0  0  0  0  0  0
  145.3738   72.0288  220.6737 H   0  0  0  0  0  0  0  0  0  0  0  0
  147.2417   70.1926  218.9190 H   0  0  0  0  0  0  0  0  0  0  0  0
  147.1659   67.7461  218.5036 H   0  0  0  0  0  0  0  0  0  0  0  0
  145.0061   66.5241  218.7197 H   0  0  0  0  0  0  0  0  0  0  0  0
  142.9284   67.7429  219.3516 H   0  0  0  0  0  0  0  0  0  0  0  0
  141.9061   70.0757  219.1032 H   0  0  0  0  0  0  0  0  0  0  0  0
  142.3648   69.9587  220.8473 H   0  0  0  0  0  0  0  0  0  0  0  0
  138.5336   69.4042  223.7041 H   0  0  0  0  0  0  0  0  0  0  0  0
  138.1764   70.5299  225.0217 H   0  0  0  0  0  0  0  0  0  0  0  0
  140.5062   68.5322  225.1710 H   0  0  0  0  0  0  0  0  0  0  0  0
  138.8636   68.0797  225.6924 H   0  0  0  0  0  0  0  0  0  0  0  0
  1  2  1  0
  2  3  1  0
  3  4  1  0
  4  5  1  0
  5  6  1  0
  6  7  1  0
  7  8  2  0
  8  9  1  0
  9 10  1  0
 10 11  1  0
 11 12  1  0
 12 13  1  0
 13 14  2  0
 14 15  1  0
 15 16  2  0
 16 17  1  0
 17 18  2  0
 18 19  1  0
  9 20  2  0
 20 21  1  0
 21 22  1  0
 22 23  1  0
 23 24  1  0
 24 25  1  0
 25 26  2  0
 26 27  1  0
 27 28  2  0
 28 29  1  0
 29 30  2  0
 30 31  1  0
 21 32  2  0
  5 33  1  0
 33 34  1  0
 34  2  1  0
 32  7  1  0
 19 10  1  0
 31 22  1  0
 18 13  1  0
 30 25  1  0
  1 35  1  0
  1 36  1  0
  1 37  1  0
  2 38  1  1
  3 39  1  0
  3 40  1  0
  4 41  1  0
  4 42  1  0
  5 43  1  6
  6 44  1  0
 11 45  1  0
 11 46  1  0
 12 47  1  0
 12 48  1  0
 14 49  1  0
 15 50  1  0
 16 51  1  0
 17 52  1  0
 19 53  1  0
 19 54  1  0
 23 55  1  0
 23 56  1  0
 24 57  1  0
 24 58  1  0
 26 59  1  0
 27 60  1  0
 28 61  1  0
 29 62  1  0
 31 63  1  0
 31 64  1  0
 33 65  1  0
 33 66  1  0
 34 67  1  0
 34 68  1  0
M  END
>  <smiles>  (45) 
C[C@H]1CC[C@H](Nc2nc(N3CCc4ccccc4C3)nc(N3CCc4ccccc4C3)n2)CC1

>  <score_type>  (45) 
oracle

>  <origin>  (45) 
autodockgpu

>  <m_score__min__energy>  (45) 
-10.98

>  <m_primary>  (45) 
energy

>  <rmsd>  (45) 
4.904406539980534

>  <m_score__min__rmsd>  (45) 
4.904406539980534

>  <meeko>  (45) 
{"free_energy": -10.88, "intermolecular_energy": -12.08, "internal_energy": -1.02, "cluster_size": 24, "cluster_id": 1, "rank_in_cluster": 17}

>  <energy>  (45) 
-9.22

>  <cluster_rmsd>  (45) 
0.0

>  <cluster>  (45) 
3

$$$$

     RDKit          3D

 68 73  0  0  0  0  0  0  0  0999 V2000
  146.7490   73.7510  220.6840 C   0  0  0  0  0  0  0  0  0  0  0  0
  145.2960   73.3530  220.7340 C   0  0  1  0  0  0  0  0  0  0  0  0
  144.3640   74.3580  220.1420 C   0  0  0  0  0  0  0  0  0  0  0  0
  143.8160   73.9650  218.7870 C   0  0  0  0  0  0  0  0  0  0  0  0
  143.1160   72.6410  218.8210 C   0  0  2  0  0  0  0  0  0  0  0  0
  141.6760   72.7540  218.8880 N   0  0  0  0  0  0  0  0  0  0  0  0
  141.0810   73.3280  220.0650 C   0  0  0  0  0  0  0  0  0  0  0  0
  140.9610   74.6430  220.2050 N   0  0  0  0  0  0  0  0  0  0  0  0
  140.4090   75.1720  221.2980 C   0  0  0  0  0  0  0  0  0  0  0  0
  140.2830   76.5940  221.4410 N   0  0  0  0  0  0  0  0  0  0  0  0
  140.2490   77.3730  220.2270 C   0  0  0  0  0  0  0  0  0  0  0  0
  139.8330   78.8050  220.4910 C   0  0  0  0  0  0  0  0  0  0  0  0
  140.7020   79.2900  221.5980 C   0  0  0  0  0  0  0  0  0  0  0  0
  141.3460   80.5040  221.5760 C   0  0  0  0  0  0  0  0  0  0  0  0
  142.1520   80.9250  222.6310 C   0  0  0  0  0  0  0  0  0  0  0  0
  142.3100   80.0930  223.7370 C   0  0  0  0  0  0  0  0  0  0  0  0
  141.6720   78.8720  223.7780 C   0  0  0  0  0  0  0  0  0  0  0  0
  140.8810   78.4930  222.7100 C   0  0  0  0  0  0  0  0  0  0  0  0
  140.2000   77.1710  222.7700 C   0  0  0  0  0  0  0  0  0  0  0  0
  139.9580   74.3530  222.2920 N   0  0  0  0  0  0  0  0  0  0  0  0
  140.0670   73.0210  222.1730 C   0  0  0  0  0  0  0  0  0  0  0  0
  139.6090   72.1370  223.1870 N   0  0  0  0  0  0  0  0  0  0  0  0
  138.3230   71.4770  223.0730 C   0  0  0  0  0  0  0  0  0  0  0  0
  138.5960   69.9810  223.0460 C   0  0  0  0  0  0  0  0  0  0  0  0
  139.2630   69.6580  224.3390 C   0  0  0  0  0  0  0  0  0  0  0  0
  139.0230   68.4420  224.9470 C   0  0  0  0  0  0  0  0  0  0  0  0
  139.6300   68.1210  226.1470 C   0  0  0  0  0  0  0  0  0  0  0  0
  140.4930   69.0390  226.7430 C   0  0  0  0  0  0  0  0  0  0  0  0
  140.7460   70.2610  226.1490 C   0  0  0  0  0  0  0  0  0  0  0  0
  140.1210   70.5480  224.9510 C   0  0  0  0  0  0  0  0  0  0  0  0
  140.4330   71.8880  224.3520 C   0  0  0  0  0  0  0  0  0  0  0  0
  140.6310   72.5330  221.0540 N   0  0  0  0  0  0  0  0  0  0  0  0
  143.5560   71.7990  220.0130 C   0  0  0  0  0  0  0  0  0  0  0  0
  145.0580   71.9940  220.1210 C   0  0  0  0  0  0  0  0  0  0  0  0
  147.1356   73.8569  221.7084 H   0  0  0  0  0  0  0  0  0  0  0  0
  147.3231   72.9770  220.1536 H   0  0  0  0  0  0  0  0  0  0  0  0
  146.8486   74.7095  220.1536 H   0  0  0  0  0  0  0  0  0  0  0  0
  145.0621   73.3054  221.8078 H   0  0  0  0  0  0  0  0  0  0  0  0
  144.9047   75.3098  220.0338 H   0  0  0  0  0  0  0  0  0  0  0  0
  143.5039   74.4351  220.8234 H   0  0  0  0  0  0  0  0  0  0  0  0
  144.6494   73.9066  218.0714 H   0  0  0  0  0  0  0  0  0  0  0  0
  143.0819   74.7270  218.4861 H   0  0  0  0  0  0  0  0  0  0  0  0
  143.3982   72.1592  217.8733 H   0  0  0  0  0  0  0  0  0  0  0  0
  141.0450   72.4360  218.1130 H   0  0  0  0  0  0  0  0  0  0  0  0
  141.2514   77.3709  219.7740 H   0  0  0  0  0  0  0  0  0  0  0  0
  139.5092   76.9206  219.5502 H   0  0  0  0  0  0  0  0  0  0  0  0
  139.9838   79.4185  219.5905 H   0  0  0  0  0  0  0  0  0  0  0  0
  138.7679   78.8714  220.7577 H   0  0  0  0  0  0  0  0  0  0  0  0
  141.2216   81.1604  220.7021 H   0  0  0  0  0  0  0  0  0  0  0  0
  142.6570   81.9014  222.5914 H   0  0  0  0  0  0  0  0  0  0  0  0
  142.9441   80.4106  224.5779 H   0  0  0  0  0  0  0  0  0  0  0  0
  141.7906   78.2091  224.6478 H   0  0  0  0  0  0  0  0  0  0  0  0
  140.7041   76.5184  223.4980 H   0  0  0  0  0  0  0  0  0  0  0  0
  139.1524   77.2815  223.0868 H   0  0  0  0  0  0  0  0  0  0  0  0
  137.6897   71.7306  223.9359 H   0  0  0  0  0  0  0  0  0  0  0  0
  137.7948   71.7977  222.1630 H   0  0  0  0  0  0  0  0  0  0  0  0
  137.6528   69.4226  222.9533 H   0  0  0  0  0  0  0  0  0  0  0  0
  139.2268   69.7035  222.1886 H   0  0  0  0  0  0  0  0  0  0  0  0
  138.3417   67.7210  224.4717 H   0  0  0  0  0  0  0  0  0  0  0  0
  139.4338   67.1507  226.6266 H   0  0  0  0  0  0  0  0  0  0  0  0
  140.9785   68.7879  227.6976 H   0  0  0  0  0  0  0  0  0  0  0  0
  141.4273   70.9862  226.6180 H   0  0  0  0  0  0  0  0  0  0  0  0
  140.2434   72.6706  225.1014 H   0  0  0  0  0  0  0  0  0  0  0  0
  141.4892   71.8987  224.0447 H   0  0  0  0  0  0  0  0  0  0  0  0
  143.3181   70.7387  219.8424 H   0  0  0  0  0  0  0  0  0  0  0  0
  143.0398   72.1009  220.9362 H   0  0  0  0  0  0  0  0  0  0  0  0
  145.5156   71.9473  219.1218 H   0  0  0  0  0  0  0  0  0  0  0  0
  145.5076   71.2048  220.7416 H   0  0  0  0  0  0  0  0  0  0  0  0
  1  2  1  0
  2  3  1  0
  3  4  1  0
  4  5  1  0
  5  6  1  0
  6  7  1  0
  7  8  2  0
  8  9  1  0
  9 10  1  0
 10 11  1  0
 11 12  1  0
 12 13  1  0
 13 14  2  0
 14 15  1  0
 15 16  2  0
 16 17  1  0
 17 18  2  0
 18 19  1  0
  9 20  2  0
 20 21  1  0
 21 22  1  0
 22 23  1  0
 23 24  1  0
 24 25  1  0
 25 26  2  0
 26 27  1  0
 27 28  2  0
 28 29  1  0
 29 30  2  0
 30 31  1  0
 21 32  2  0
  5 33  1  0
 33 34  1  0
 34  2  1  0
 32  7  1  0
 19 10  1  0
 31 22  1  0
 18 13  1  0
 30 25  1  0
  1 35  1  0
  1 36  1  0
  1 37  1  0
  2 38  1  1
  3 39  1  0
  3 40  1  0
  4 41  1  0
  4 42  1  0
  5 43  1  6
  6 44  1  0
 11 45  1  0
 11 46  1  0
 12 47  1  0
 12 48  1  0
 14 49  1  0
 15 50  1  0
 16 51  1  0
 17 52  1  0
 19 53  1  0
 19 54  1  0
 23 55  1  0
 23 56  1  0
 24 57  1  0
 24 58  1  0
 26 59  1  0
 27 60  1  0
 28 61  1  0
 29 62  1  0
 31 63  1  0
 31 64  1  0
 33 65  1  0
 33 66  1  0
 34 67  1  0
 34 68  1  0
M  END
>  <smiles>  (46) 
C[C@H]1CC[C@H](Nc2nc(N3CCc4ccccc4C3)nc(N3CCc4ccccc4C3)n2)CC1

>  <score_type>  (46) 
oracle

>  <origin>  (46) 
autodockgpu

>  <m_score__min__energy>  (46) 
-10.98

>  <m_primary>  (46) 
energy

>  <rmsd>  (46) 
5.005359197828605

>  <m_score__min__rmsd>  (46) 
5.005359197828605

>  <meeko>  (46) 
{"free_energy": -9.66, "intermolecular_energy": -10.86, "internal_energy": -1.41, "cluster_size": 20, "cluster_id": 2, "rank_in_cluster": 15}

>  <energy>  (46) 
-9.2

>  <cluster_rmsd>  (46) 
0.13

>  <cluster>  (46) 
3

$$$$

     RDKit          3D

 68 73  0  0  0  0  0  0  0  0999 V2000
  146.7030   73.7680  220.3420 C   0  0  0  0  0  0  0  0  0  0  0  0
  145.4230   72.9990  220.5550 C   0  0  1  0  0  0  0  0  0  0  0  0
  144.1830   73.8090  220.3690 C   0  0  0  0  0  0  0  0  0  0  0  0
  143.4490   73.5220  219.0770 C   0  0  0  0  0  0  0  0  0  0  0  0
  143.0870   72.0750  218.9410 C   0  0  2  0  0  0  0  0  0  0  0  0
  141.7110   71.7930  219.2800 N   0  0  0  0  0  0  0  0  0  0  0  0
  141.1190   72.4770  220.3980 C   0  0  0  0  0  0  0  0  0  0  0  0
  140.9750   73.7970  220.4000 N   0  0  0  0  0  0  0  0  0  0  0  0
  140.4250   74.4280  221.4400 C   0  0  0  0  0  0  0  0  0  0  0  0
  140.2730   75.8550  221.4330 N   0  0  0  0  0  0  0  0  0  0  0  0
  140.2330   76.5020  220.1450 C   0  0  0  0  0  0  0  0  0  0  0  0
  139.7890   77.9460  220.2560 C   0  0  0  0  0  0  0  0  0  0  0  0
  140.6410   78.5600  221.3110 C   0  0  0  0  0  0  0  0  0  0  0  0
  141.2630   79.7770  221.1660 C   0  0  0  0  0  0  0  0  0  0  0  0
  142.0540   80.3200  222.1750 C   0  0  0  0  0  0  0  0  0  0  0  0
  142.2200   79.6110  223.3620 C   0  0  0  0  0  0  0  0  0  0  0  0
  141.6040   78.3890  223.5270 C   0  0  0  0  0  0  0  0  0  0  0  0
  140.8280   77.8850  222.5010 C   0  0  0  0  0  0  0  0  0  0  0  0
  140.1700   76.5650  222.6940 C   0  0  0  0  0  0  0  0  0  0  0  0
  140.0040   73.7100  222.5210 N   0  0  0  0  0  0  0  0  0  0  0  0
  140.1390   72.3750  222.5410 C   0  0  0  0  0  0  0  0  0  0  0  0
  139.7110   71.5960  223.6500 N   0  0  0  0  0  0  0  0  0  0  0  0
  138.4910   70.8160  223.5840 C   0  0  0  0  0  0  0  0  0  0  0  0
  138.8890   69.3590  223.7680 C   0  0  0  0  0  0  0  0  0  0  0  0
  139.5220   69.2690  225.1140 C   0  0  0  0  0  0  0  0  0  0  0  0
  139.3580   68.1270  225.8720 C   0  0  0  0  0  0  0  0  0  0  0  0
  139.9370   68.0210  227.1230 C   0  0  0  0  0  0  0  0  0  0  0  0
  140.6930   69.0820  227.6180 C   0  0  0  0  0  0  0  0  0  0  0  0
  140.8690   70.2330  226.8730 C   0  0  0  0  0  0  0  0  0  0  0  0
  140.2760   70.3040  225.6280 C   0  0  0  0  0  0  0  0  0  0  0  0
  140.5010   71.5760  224.8640 C   0  0  0  0  0  0  0  0  0  0  0  0
  140.6980   71.7830  221.4720 N   0  0  0  0  0  0  0  0  0  0  0  0
  143.9580   71.1880  219.8230 C   0  0  0  0  0  0  0  0  0  0  0  0
  145.3640   71.7500  219.7090 C   0  0  0  0  0  0  0  0  0  0  0  0
  147.1397   74.0304  221.3169 H   0  0  0  0  0  0  0  0  0  0  0  0
  147.4139   73.1473  219.7769 H   0  0  0  0  0  0  0  0  0  0  0  0
  146.4889   74.6871  219.7769 H   0  0  0  0  0  0  0  0  0  0  0  0
  145.4502   72.7099  221.6160 H   0  0  0  0  0  0  0  0  0  0  0  0
  144.4601   74.8735  220.3804 H   0  0  0  0  0  0  0  0  0  0  0  0
  143.5010   73.5403  221.1892 H   0  0  0  0  0  0  0  0  0  0  0  0
  144.0939   73.8067  218.2325 H   0  0  0  0  0  0  0  0  0  0  0  0
  142.5158   74.1044  219.0824 H   0  0  0  0  0  0  0  0  0  0  0  0
  143.2509   71.8524  217.8763 H   0  0  0  0  0  0  0  0  0  0  0  0
  141.1220   71.1100  218.7430 H   0  0  0  0  0  0  0  0  0  0  0  0
  141.2383   76.4716  219.6996 H   0  0  0  0  0  0  0  0  0  0  0  0
  139.5062   75.9676  219.5156 H   0  0  0  0  0  0  0  0  0  0  0  0
  139.9351   78.4651  219.2972 H   0  0  0  0  0  0  0  0  0  0  0  0
  138.7209   78.0197  220.5086 H   0  0  0  0  0  0  0  0  0  0  0  0
  141.1325   80.3368  220.2281 H   0  0  0  0  0  0  0  0  0  0  0  0
  142.5414   81.2963  222.0363 H   0  0  0  0  0  0  0  0  0  0  0  0
  142.8428   80.0262  224.1681 H   0  0  0  0  0  0  0  0  0  0  0  0
  141.7285   77.8232  224.4621 H   0  0  0  0  0  0  0  0  0  0  0  0
  140.6799   76.0007  223.4887 H   0  0  0  0  0  0  0  0  0  0  0  0
  139.1183   76.6888  222.9916 H   0  0  0  0  0  0  0  0  0  0  0  0
  137.8012   71.1238  224.3837 H   0  0  0  0  0  0  0  0  0  0  0  0
  137.9785   70.9663  222.6224 H   0  0  0  0  0  0  0  0  0  0  0  0
  138.0008   68.7119  223.7201 H   0  0  0  0  0  0  0  0  0  0  0  0
  139.5786   69.0284  222.9773 H   0  0  0  0  0  0  0  0  0  0  0  0
  138.7603   67.2925  225.4765 H   0  0  0  0  0  0  0  0  0  0  0  0
  139.8023   67.1081  227.7218 H   0  0  0  0  0  0  0  0  0  0  0  0
  141.1550   69.0026  228.6131 H   0  0  0  0  0  0  0  0  0  0  0  0
  141.4662   71.0709  227.2620 H   0  0  0  0  0  0  0  0  0  0  0  0
  140.2142   72.4305  225.4946 H   0  0  0  0  0  0  0  0  0  0  0  0
  141.5650   71.6394  224.5922 H   0  0  0  0  0  0  0  0  0  0  0  0
  143.9306   70.1477  219.4667 H   0  0  0  0  0  0  0  0  0  0  0  0
  143.6065   71.1813  220.8653 H   0  0  0  0  0  0  0  0  0  0  0  0
  145.5864   71.9959  218.6601 H   0  0  0  0  0  0  0  0  0  0  0  0
  146.1049   71.0134  220.0532 H   0  0  0  0  0  0  0  0  0  0  0  0
  1  2  1  0
  2  3  1  0
  3  4  1  0
  4  5  1  0
  5  6  1  0
  6  7  1  0
  7  8  2  0
  8  9  1  0
  9 10  1  0
 10 11  1  0
 11 12  1  0
 12 13  1  0
 13 14  2  0
 14 15  1  0
 15 16  2  0
 16 17  1  0
 17 18  2  0
 18 19  1  0
  9 20  2  0
 20 21  1  0
 21 22  1  0
 22 23  1  0
 23 24  1  0
 24 25  1  0
 25 26  2  0
 26 27  1  0
 27 28  2  0
 28 29  1  0
 29 30  2  0
 30 31  1  0
 21 32  2  0
  5 33  1  0
 33 34  1  0
 34  2  1  0
 32  7  1  0
 19 10  1  0
 31 22  1  0
 18 13  1  0
 30 25  1  0
  1 35  1  0
  1 36  1  0
  1 37  1  0
  2 38  1  1
  3 39  1  0
  3 40  1  0
  4 41  1  0
  4 42  1  0
  5 43  1  6
  6 44  1  0
 11 45  1  0
 11 46  1  0
 12 47  1  0
 12 48  1  0
 14 49  1  0
 15 50  1  0
 16 51  1  0
 17 52  1  0
 19 53  1  0
 19 54  1  0
 23 55  1  0
 23 56  1  0
 24 57  1  0
 24 58  1  0
 26 59  1  0
 27 60  1  0
 28 61  1  0
 29 62  1  0
 31 63  1  0
 31 64  1  0
 33 65  1  0
 33 66  1  0
 34 67  1  0
 34 68  1  0
M  END
>  <smiles>  (47) 
C[C@H]1CC[C@H](Nc2nc(N3CCc4ccccc4C3)nc(N3CCc4ccccc4C3)n2)CC1

>  <score_type>  (47) 
oracle

>  <origin>  (47) 
autodockgpu

>  <m_score__min__energy>  (47) 
-10.98

>  <m_primary>  (47) 
energy

>  <rmsd>  (47) 
4.697665551415846

>  <m_score__min__rmsd>  (47) 
4.697665551415846

>  <meeko>  (47) 
{"free_energy": -10.07, "intermolecular_energy": -11.26, "internal_energy": -1.27, "cluster_size": 20, "cluster_id": 2, "rank_in_cluster": 2}

>  <energy>  (47) 
-9.18

>  <cluster_rmsd>  (47) 
0.2

>  <cluster>  (47) 
3

$$$$

     RDKit          3D

 68 73  0  0  0  0  0  0  0  0999 V2000
  146.6870   73.7920  220.5120 C   0  0  0  0  0  0  0  0  0  0  0  0
  145.3010   73.2110  220.6320 C   0  0  1  0  0  0  0  0  0  0  0  0
  144.2110   74.1300  220.1910 C   0  0  0  0  0  0  0  0  0  0  0  0
  143.6070   73.7690  218.8500 C   0  0  0  0  0  0  0  0  0  0  0  0
  143.0770   72.3690  218.8260 C   0  0  2  0  0  0  0  0  0  0  0  0
  141.6440   72.2940  219.0030 N   0  0  0  0  0  0  0  0  0  0  0  0
  141.0550   72.9250  220.1540 C   0  0  0  0  0  0  0  0  0  0  0  0
  140.9560   74.2460  220.2400 N   0  0  0  0  0  0  0  0  0  0  0  0
  140.4090   74.8280  221.3080 C   0  0  0  0  0  0  0  0  0  0  0  0
  140.3050   76.2570  221.3920 N   0  0  0  0  0  0  0  0  0  0  0  0
  140.3910   76.9920  220.1540 C   0  0  0  0  0  0  0  0  0  0  0  0
  139.9870   78.4400  220.3340 C   0  0  0  0  0  0  0  0  0  0  0  0
  140.7730   78.9470  221.4930 C   0  0  0  0  0  0  0  0  0  0  0  0
  141.4440   80.1460  221.4850 C   0  0  0  0  0  0  0  0  0  0  0  0
  142.1700   80.5870  222.5880 C   0  0  0  0  0  0  0  0  0  0  0  0
  142.2150   79.7920  223.7310 C   0  0  0  0  0  0  0  0  0  0  0  0
  141.5480   78.5870  223.7590 C   0  0  0  0  0  0  0  0  0  0  0  0
  140.8400   78.1860  222.6420 C   0  0  0  0  0  0  0  0  0  0  0  0
  140.1250   76.8820  222.6890 C   0  0  0  0  0  0  0  0  0  0  0  0
  139.9430   74.0570  222.3330 N   0  0  0  0  0  0  0  0  0  0  0  0
  140.0320   72.7200  222.2690 C   0  0  0  0  0  0  0  0  0  0  0  0
  139.5570   71.8860  223.3180 N   0  0  0  0  0  0  0  0  0  0  0  0
  138.3260   71.1350  223.1710 C   0  0  0  0  0  0  0  0  0  0  0  0
  138.6920   69.6630  223.2810 C   0  0  0  0  0  0  0  0  0  0  0  0
  139.2820   69.4820  224.6370 C   0  0  0  0  0  0  0  0  0  0  0  0
  139.0750   68.3020  225.3220 C   0  0  0  0  0  0  0  0  0  0  0  0
  139.6140   68.1130  226.5810 C   0  0  0  0  0  0  0  0  0  0  0  0
  140.3740   69.1280  227.1590 C   0  0  0  0  0  0  0  0  0  0  0  0
  140.5930   70.3160  226.4880 C   0  0  0  0  0  0  0  0  0  0  0  0
  140.0390   70.4710  225.2320 C   0  0  0  0  0  0  0  0  0  0  0  0
  140.3090   71.7800  224.5510 C   0  0  0  0  0  0  0  0  0  0  0  0
  140.5900   72.1780  221.1730 N   0  0  0  0  0  0  0  0  0  0  0  0
  143.7100   71.5050  219.9110 C   0  0  0  0  0  0  0  0  0  0  0  0
  145.1800   71.8800  219.9280 C   0  0  0  0  0  0  0  0  0  0  0  0
  147.1002   73.9652  221.5166 H   0  0  0  0  0  0  0  0  0  0  0  0
  147.3332   73.0890  219.9659 H   0  0  0  0  0  0  0  0  0  0  0  0
  146.6388   74.7457  219.9659 H   0  0  0  0  0  0  0  0  0  0  0  0
  145.1612   73.0568  221.7121 H   0  0  0  0  0  0  0  0  0  0  0  0
  144.6230   75.1476  220.1223 H   0  0  0  0  0  0  0  0  0  0  0  0
  143.4053   74.0491  220.9355 H   0  0  0  0  0  0  0  0  0  0  0  0
  144.3811   73.8679  218.0748 H   0  0  0  0  0  0  0  0  0  0  0  0
  142.7647   74.4518  218.6646 H   0  0  0  0  0  0  0  0  0  0  0  0
  143.3384   71.9962  217.8247 H   0  0  0  0  0  0  0  0  0  0  0  0
  141.0130   71.7990  218.3270 H   0  0  0  0  0  0  0  0  0  0  0  0
  141.4276   76.9538  219.7879 H   0  0  0  0  0  0  0  0  0  0  0  0
  139.7012   76.5304  219.4322 H   0  0  0  0  0  0  0  0  0  0  0  0
  140.2252   79.0181  219.4290 H   0  0  0  0  0  0  0  0  0  0  0  0
  138.9053   78.5367  220.5088 H   0  0  0  0  0  0  0  0  0  0  0  0
  141.4065   80.7743  220.5829 H   0  0  0  0  0  0  0  0  0  0  0  0
  142.7008   81.5500  222.5574 H   0  0  0  0  0  0  0  0  0  0  0  0
  142.7833   80.1265  224.6114 H   0  0  0  0  0  0  0  0  0  0  0  0
  141.5785   77.9531  224.6575 H   0  0  0  0  0  0  0  0  0  0  0  0
  140.5508   76.2451  223.4784 H   0  0  0  0  0  0  0  0  0  0  0  0
  139.0576   77.0255  222.9127 H   0  0  0  0  0  0  0  0  0  0  0  0
  137.6179   71.4094  223.9668 H   0  0  0  0  0  0  0  0  0  0  0  0
  137.8457   71.3506  222.2052 H   0  0  0  0  0  0  0  0  0  0  0  0
  137.7942   69.0374  223.1691 H   0  0  0  0  0  0  0  0  0  0  0  0
  139.3995   69.3657  222.4929 H   0  0  0  0  0  0  0  0  0  0  0  0
  138.4748   67.5034  224.8615 H   0  0  0  0  0  0  0  0  0  0  0  0
  139.4445   67.1701  227.1215 H   0  0  0  0  0  0  0  0  0  0  0  0
  140.8044   68.9819  228.1607 H   0  0  0  0  0  0  0  0  0  0  0  0
  141.1933   71.1180  226.9425 H   0  0  0  0  0  0  0  0  0  0  0  0
  140.0182   72.6017  225.2220 H   0  0  0  0  0  0  0  0  0  0  0  0
  141.3817   71.8383  224.3145 H   0  0  0  0  0  0  0  0  0  0  0  0
  143.5889   70.4383  219.6713 H   0  0  0  0  0  0  0  0  0  0  0  0
  143.2370   71.6712  220.8901 H   0  0  0  0  0  0  0  0  0  0  0  0
  145.5581   71.9640  218.8984 H   0  0  0  0  0  0  0  0  0  0  0  0
  145.7699   71.1113  220.4487 H   0  0  0  0  0  0  0  0  0  0  0  0
  1  2  1  0
  2  3  1  0
  3  4  1  0
  4  5  1  0
  5  6  1  0
  6  7  1  0
  7  8  2  0
  8  9  1  0
  9 10  1  0
 10 11  1  0
 11 12  1  0
 12 13  1  0
 13 14  2  0
 14 15  1  0
 15 16  2  0
 16 17  1  0
 17 18  2  0
 18 19  1  0
  9 20  2  0
 20 21  1  0
 21 22  1  0
 22 23  1  0
 23 24  1  0
 24 25  1  0
 25 26  2  0
 26 27  1  0
 27 28  2  0
 28 29  1  0
 29 30  2  0
 30 31  1  0
 21 32  2  0
  5 33  1  0
 33 34  1  0
 34  2  1  0
 32  7  1  0
 19 10  1  0
 31 22  1  0
 18 13  1  0
 30 25  1  0
  1 35  1  0
  1 36  1  0
  1 37  1  0
  2 38  1  1
  3 39  1  0
  3 40  1  0
  4 41  1  0
  4 42  1  0
  5 43  1  6
  6 44  1  0
 11 45  1  0
 11 46  1  0
 12 47  1  0
 12 48  1  0
 14 49  1  0
 15 50  1  0
 16 51  1  0
 17 52  1  0
 19 53  1  0
 19 54  1  0
 23 55  1  0
 23 56  1  0
 24 57  1  0
 24 58  1  0
 26 59  1  0
 27 60  1  0
 28 61  1  0
 29 62  1  0
 31 63  1  0
 31 64  1  0
 33 65  1  0
 33 66  1  0
 34 67  1  0
 34 68  1  0
M  END
>  <smiles>  (48) 
C[C@H]1CC[C@H](Nc2nc(N3CCc4ccccc4C3)nc(N3CCc4ccccc4C3)n2)CC1

>  <score_type>  (48) 
oracle

>  <origin>  (48) 
autodockgpu

>  <m_score__min__energy>  (48) 
-10.98

>  <m_primary>  (48) 
energy

>  <rmsd>  (48) 
4.916718662120919

>  <m_score__min__rmsd>  (48) 
4.916718662120919

>  <meeko>  (48) 
{"free_energy": -9.98, "intermolecular_energy": -11.17, "internal_energy": -1.38, "cluster_size": 20, "cluster_id": 2, "rank_in_cluster": 7}

>  <energy>  (48) 
-9.15

>  <cluster_rmsd>  (48) 
0.56

>  <cluster>  (48) 
3

$$$$

     RDKit          3D

 68 73  0  0  0  0  0  0  0  0999 V2000
  144.3620   75.0560  216.8920 C   0  0  0  0  0  0  0  0  0  0  0  0
  143.7120   74.3330  218.0440 C   0  0  1  0  0  0  0  0  0  0  0  0
  142.3690   73.7620  217.7310 C   0  0  0  0  0  0  0  0  0  0  0  0
  142.3650   72.2590  217.5540 C   0  0  0  0  0  0  0  0  0  0  0  0
  142.9070   71.5460  218.7540 C   0  0  2  0  0  0  0  0  0  0  0  0
  141.8790   71.0120  219.6180 N   0  0  0  0  0  0  0  0  0  0  0  0
  141.3380   71.8530  220.6520 C   0  0  0  0  0  0  0  0  0  0  0  0
  141.2510   73.1680  220.4940 N   0  0  0  0  0  0  0  0  0  0  0  0
  140.7490   73.9460  221.4550 C   0  0  0  0  0  0  0  0  0  0  0  0
  140.6590   75.3660  221.2760 N   0  0  0  0  0  0  0  0  0  0  0  0
  141.0430   75.8890  219.9880 C   0  0  0  0  0  0  0  0  0  0  0  0
  140.6400   77.3390  219.8280 C   0  0  0  0  0  0  0  0  0  0  0  0
  141.1470   78.0440  221.0380 C   0  0  0  0  0  0  0  0  0  0  0  0
  141.8270   79.2380  220.9870 C   0  0  0  0  0  0  0  0  0  0  0  0
  142.2870   79.8680  222.1400 C   0  0  0  0  0  0  0  0  0  0  0  0
  142.0510   79.2730  223.3770 C   0  0  0  0  0  0  0  0  0  0  0  0
  141.3700   78.0770  223.4490 C   0  0  0  0  0  0  0  0  0  0  0  0
  140.9310   77.4850  222.2810 C   0  0  0  0  0  0  0  0  0  0  0  0
  140.1970   76.1940  222.3750 C   0  0  0  0  0  0  0  0  0  0  0  0
  140.3160   73.3840  222.6210 N   0  0  0  0  0  0  0  0  0  0  0  0
  140.3920   72.0570  222.8030 C   0  0  0  0  0  0  0  0  0  0  0  0
  139.9510   71.4380  224.0040 N   0  0  0  0  0  0  0  0  0  0  0  0
  138.7660   70.6040  224.0190 C   0  0  0  0  0  0  0  0  0  0  0  0
  139.2120   69.2120  224.4390 C   0  0  0  0  0  0  0  0  0  0  0  0
  139.7940   69.3570  225.8030 C   0  0  0  0  0  0  0  0  0  0  0  0
  139.6430   68.3380  226.7230 C   0  0  0  0  0  0  0  0  0  0  0  0
  140.1750   68.4510  227.9940 C   0  0  0  0  0  0  0  0  0  0  0  0
  140.8700   69.6070  228.3440 C   0  0  0  0  0  0  0  0  0  0  0  0
  141.0310   70.6370  227.4370 C   0  0  0  0  0  0  0  0  0  0  0  0
  140.4860   70.4910  226.1760 C   0  0  0  0  0  0  0  0  0  0  0  0
  140.6920   71.6390  225.2330 C   0  0  0  0  0  0  0  0  0  0  0  0
  140.9060   71.3140  221.8080 N   0  0  0  0  0  0  0  0  0  0  0  0
  143.7820   72.4570  219.6060 C   0  0  0  0  0  0  0  0  0  0  0  0
  144.6100   73.2670  218.6250 C   0  0  0  0  0  0  0  0  0  0  0  0
  145.0500   75.8213  217.2807 H   0  0  0  0  0  0  0  0  0  0  0  0
  144.9231   74.3367  216.2773 H   0  0  0  0  0  0  0  0  0  0  0  0
  143.5873   75.5376  216.2773 H   0  0  0  0  0  0  0  0  0  0  0  0
  143.5501   75.1149  218.8006 H   0  0  0  0  0  0  0  0  0  0  0  0
  142.0067   74.2209  216.7993 H   0  0  0  0  0  0  0  0  0  0  0  0
  141.7209   73.9827  218.5920 H   0  0  0  0  0  0  0  0  0  0  0  0
  142.9836   72.0036  216.6810 H   0  0  0  0  0  0  0  0  0  0  0  0
  141.3221   71.9386  217.4137 H   0  0  0  0  0  0  0  0  0  0  0  0
  143.4949   70.7160  218.3350 H   0  0  0  0  0  0  0  0  0  0  0  0
  141.5090   70.0350  219.5230 H   0  0  0  0  0  0  0  0  0  0  0  0
  142.1350   75.8091  219.8823 H   0  0  0  0  0  0  0  0  0  0  0  0
  140.5272   75.3030  219.2131 H   0  0  0  0  0  0  0  0  0  0  0  0
  141.0939   77.7636  218.9204 H   0  0  0  0  0  0  0  0  0  0  0  0
  139.5496   77.4446  219.7284 H   0  0  0  0  0  0  0  0  0  0  0  0
  142.0123   79.7076  220.0097 H   0  0  0  0  0  0  0  0  0  0  0  0
  142.8295   80.8227  222.0750 H   0  0  0  0  0  0  0  0  0  0  0  0
  142.4085   79.7581  224.2973 H   0  0  0  0  0  0  0  0  0  0  0  0
  141.1790   77.6011  224.4221 H   0  0  0  0  0  0  0  0  0  0  0  0
  140.4148   75.7040  223.3355 H   0  0  0  0  0  0  0  0  0  0  0  0
  139.1101   76.3537  222.3181 H   0  0  0  0  0  0  0  0  0  0  0  0
  138.0337   70.9998  224.7381 H   0  0  0  0  0  0  0  0  0  0  0  0
  138.2867   70.5824  223.0292 H   0  0  0  0  0  0  0  0  0  0  0  0
  138.3520   68.5266  224.4621 H   0  0  0  0  0  0  0  0  0  0  0  0
  139.9447   68.7951  223.7323 H   0  0  0  0  0  0  0  0  0  0  0  0
  139.0939   67.4273  226.4416 H   0  0  0  0  0  0  0  0  0  0  0  0
  140.0508   67.6360  228.7222 H   0  0  0  0  0  0  0  0  0  0  0  0
  141.2954   69.7007  229.3541 H   0  0  0  0  0  0  0  0  0  0  0  0
  141.5793   71.5501  227.7121 H   0  0  0  0  0  0  0  0  0  0  0  0
  140.3473   72.5664  225.7138 H   0  0  0  0  0  0  0  0  0  0  0  0
  141.7628   71.7070  224.9907 H   0  0  0  0  0  0  0  0  0  0  0  0
  144.4361   71.8599  220.2584 H   0  0  0  0  0  0  0  0  0  0  0  0
  143.1785   73.1045  220.2591 H   0  0  0  0  0  0  0  0  0  0  0  0
  144.9861   72.6148  217.8230 H   0  0  0  0  0  0  0  0  0  0  0  0
  145.4741   73.7222  219.1311 H   0  0  0  0  0  0  0  0  0  0  0  0
  1  2  1  0
  2  3  1  0
  3  4  1  0
  4  5  1  0
  5  6  1  0
  6  7  1  0
  7  8  2  0
  8  9  1  0
  9 10  1  0
 10 11  1  0
 11 12  1  0
 12 13  1  0
 13 14  2  0
 14 15  1  0
 15 16  2  0
 16 17  1  0
 17 18  2  0
 18 19  1  0
  9 20  2  0
 20 21  1  0
 21 22  1  0
 22 23  1  0
 23 24  1  0
 24 25  1  0
 25 26  2  0
 26 27  1  0
 27 28  2  0
 28 29  1  0
 29 30  2  0
 30 31  1  0
 21 32  2  0
  5 33  1  0
 33 34  1  0
 34  2  1  0
 32  7  1  0
 19 10  1  0
 31 22  1  0
 18 13  1  0
 30 25  1  0
  1 35  1  0
  1 36  1  0
  1 37  1  0
  2 38  1  1
  3 39  1  0
  3 40  1  0
  4 41  1  0
  4 42  1  0
  5 43  1  6
  6 44  1  0
 11 45  1  0
 11 46  1  0
 12 47  1  0
 12 48  1  0
 14 49  1  0
 15 50  1  0
 16 51  1  0
 17 52  1  0
 19 53  1  0
 19 54  1  0
 23 55  1  0
 23 56  1  0
 24 57  1  0
 24 58  1  0
 26 59  1  0
 27 60  1  0
 28 61  1  0
 29 62  1  0
 31 63  1  0
 31 64  1  0
 33 65  1  0
 33 66  1  0
 34 67  1  0
 34 68  1  0
M  END
>  <smiles>  (49) 
C[C@H]1CC[C@H](Nc2nc(N3CCc4ccccc4C3)nc(N3CCc4ccccc4C3)n2)CC1

>  <score_type>  (49) 
oracle

>  <origin>  (49) 
autodockgpu

>  <m_score__min__energy>  (49) 
-10.98

>  <m_primary>  (49) 
energy

>  <rmsd>  (49) 
4.631440190593196

>  <m_score__min__rmsd>  (49) 
4.631440190593196

>  <meeko>  (49) 
{"free_energy": -9.18, "intermolecular_energy": -10.37, "internal_energy": -1.42, "cluster_size": 20, "cluster_id": 2, "rank_in_cluster": 19}

>  <energy>  (49) 
-8.88

>  <cluster_rmsd>  (49) 
1.3

>  <cluster>  (49) 
3

$$$$

     RDKit          3D

 68 73  0  0  0  0  0  0  0  0999 V2000
  140.7150   69.3970  228.0840 C   0  0  0  0  0  0  0  0  0  0  0  0
  139.8800   70.0980  227.0420 C   0  0  1  0  0  0  0  0  0  0  0  0
  140.4330   71.4120  226.5970 C   0  0  0  0  0  0  0  0  0  0  0  0
  141.0630   71.3800  225.2210 C   0  0  0  0  0  0  0  0  0  0  0  0
  140.1090   70.8930  224.1730 C   0  0  2  0  0  0  0  0  0  0  0  0
  139.5130   71.9590  223.3990 N   0  0  0  0  0  0  0  0  0  0  0  0
  140.3290   72.6620  222.4460 C   0  0  0  0  0  0  0  0  0  0  0  0
  140.2830   73.9850  222.3420 N   0  0  0  0  0  0  0  0  0  0  0  0
  141.0410   74.6330  221.4570 C   0  0  0  0  0  0  0  0  0  0  0  0
  140.9840   76.0630  221.3510 N   0  0  0  0  0  0  0  0  0  0  0  0
  141.5580   76.6550  220.1680 C   0  0  0  0  0  0  0  0  0  0  0  0
  141.1890   78.1180  220.0370 C   0  0  0  0  0  0  0  0  0  0  0  0
  141.5120   78.7440  221.3480 C   0  0  0  0  0  0  0  0  0  0  0  0
  142.1970   79.9300  221.4710 C   0  0  0  0  0  0  0  0  0  0  0  0
  142.4820   80.4860  222.7160 C   0  0  0  0  0  0  0  0  0  0  0  0
  142.0610   79.8230  223.8660 C   0  0  0  0  0  0  0  0  0  0  0  0
  141.3720   78.6330  223.7640 C   0  0  0  0  0  0  0  0  0  0  0  0
  141.1110   78.1160  222.5100 C   0  0  0  0  0  0  0  0  0  0  0  0
  140.3670   76.8310  222.4160 C   0  0  0  0  0  0  0  0  0  0  0  0
  141.8800   73.9310  220.6420 N   0  0  0  0  0  0  0  0  0  0  0  0
  141.9450   72.5930  220.7280 C   0  0  0  0  0  0  0  0  0  0  0  0
  142.8070   71.8290  219.8960 N   0  0  0  0  0  0  0  0  0  0  0  0
  143.8530   72.4680  219.1230 C   0  0  0  0  0  0  0  0  0  0  0  0
  145.1750   71.8960  219.6120 C   0  0  0  0  0  0  0  0  0  0  0  0
  145.1170   70.4310  219.3450 C   0  0  0  0  0  0  0  0  0  0  0  0
  146.2670   69.7530  218.9950 C   0  0  0  0  0  0  0  0  0  0  0  0
  146.2360   68.3940  218.7430 C   0  0  0  0  0  0  0  0  0  0  0  0
  145.0290   67.7070  218.8450 C   0  0  0  0  0  0  0  0  0  0  0  0
  143.8660   68.3690  219.1950 C   0  0  0  0  0  0  0  0  0  0  0  0
  143.9340   69.7260  219.4400 C   0  0  0  0  0  0  0  0  0  0  0  0
  142.6430   70.3920  219.8160 C   0  0  0  0  0  0  0  0  0  0  0  0
  141.1630   71.9830  221.6350 N   0  0  0  0  0  0  0  0  0  0  0  0
  138.9680   70.0840  224.7780 C   0  0  0  0  0  0  0  0  0  0  0  0
  139.6030   69.2160  225.8490 C   0  0  0  0  0  0  0  0  0  0  0  0
  140.3692   69.6873  229.0871 H   0  0  0  0  0  0  0  0  0  0  0  0
  140.6149   68.3083  227.9625 H   0  0  0  0  0  0  0  0  0  0  0  0
  141.7699   69.6841  227.9625 H   0  0  0  0  0  0  0  0  0  0  0  0
  138.9299   70.3153  227.5520 H   0  0  0  0  0  0  0  0  0  0  0  0
  141.1986   71.7282  227.3208 H   0  0  0  0  0  0  0  0  0  0  0  0
  139.5863   72.1122  226.5434 H   0  0  0  0  0  0  0  0  0  0  0  0
  141.9345   70.7093  225.2459 H   0  0  0  0  0  0  0  0  0  0  0  0
  141.3561   72.4075  224.9597 H   0  0  0  0  0  0  0  0  0  0  0  0
  140.7266   70.2670  223.5121 H   0  0  0  0  0  0  0  0  0  0  0  0
  138.5090   72.2420  223.5030 H   0  0  0  0  0  0  0  0  0  0  0  0
  142.6532   76.5672  220.2212 H   0  0  0  0  0  0  0  0  0  0  0  0
  141.1613   76.1219  219.2914 H   0  0  0  0  0  0  0  0  0  0  0  0
  141.7751   78.5892  219.2342 H   0  0  0  0  0  0  0  0  0  0  0  0
  140.1261   78.2432  219.7828 H   0  0  0  0  0  0  0  0  0  0  0  0
  142.5287   80.4535  220.5622 H   0  0  0  0  0  0  0  0  0  0  0  0
  143.0320   81.4357  222.7898 H   0  0  0  0  0  0  0  0  0  0  0  0
  142.2783   80.2490  224.8566 H   0  0  0  0  0  0  0  0  0  0  0  0
  141.0353   78.1035  224.6675 H   0  0  0  0  0  0  0  0  0  0  0  0
  140.4373   76.2829  223.3671 H   0  0  0  0  0  0  0  0  0  0  0  0
  139.3015   77.0076  222.2073 H   0  0  0  0  0  0  0  0  0  0  0  0
  143.7193   72.2506  218.0530 H   0  0  0  0  0  0  0  0  0  0  0  0
  143.8253   73.5603  219.2499 H   0  0  0  0  0  0  0  0  0  0  0  0
  146.0134   72.3508  219.0641 H   0  0  0  0  0  0  0  0  0  0  0  0
  145.3310   72.1032  220.6810 H   0  0  0  0  0  0  0  0  0  0  0  0
  147.2183   70.2996  218.9157 H   0  0  0  0  0  0  0  0  0  0  0  0
  147.1565   67.8601  218.4644 H   0  0  0  0  0  0  0  0  0  0  0  0
  145.0001   66.6257  218.6450 H   0  0  0  0  0  0  0  0  0  0  0  0
  142.9115   67.8282  219.2761 H   0  0  0  0  0  0  0  0  0  0  0  0
  141.8825   70.1580  219.0565 H   0  0  0  0  0  0  0  0  0  0  0  0
  142.3289   70.0186  220.8019 H   0  0  0  0  0  0  0  0  0  0  0  0
  138.4920   69.4577  224.0091 H   0  0  0  0  0  0  0  0  0  0  0  0
  138.1849   70.7348  225.1943 H   0  0  0  0  0  0  0  0  0  0  0  0
  140.5430   68.7847  225.4744 H   0  0  0  0  0  0  0  0  0  0  0  0
  138.9324   68.3891  226.1257 H   0  0  0  0  0  0  0  0  0  0  0  0
  1  2  1  0
  2  3  1  0
  3  4  1  0
  4  5  1  0
  5  6  1  0
  6  7  1  0
  7  8  2  0
  8  9  1  0
  9 10  1  0
 10 11  1  0
 11 12  1  0
 12 13  1  0
 13 14  2  0
 14 15  1  0
 15 16  2  0
 16 17  1  0
 17 18  2  0
 18 19  1  0
  9 20  2  0
 20 21  1  0
 21 22  1  0
 22 23  1  0
 23 24  1  0
 24 25  1  0
 25 26  2  0
 26 27  1  0
 27 28  2  0
 28 29  1  0
 29 30  2  0
 30 31  1  0
 21 32  2  0
  5 33  1  0
 33 34  1  0
 34  2  1  0
 32  7  1  0
 19 10  1  0
 31 22  1  0
 18 13  1  0
 30 25  1  0
  1 35  1  0
  1 36  1  0
  1 37  1  0
  2 38  1  1
  3 39  1  0
  3 40  1  0
  4 41  1  0
  4 42  1  0
  5 43  1  6
  6 44  1  0
 11 45  1  0
 11 46  1  0
 12 47  1  0
 12 48  1  0
 14 49  1  0
 15 50  1  0
 16 51  1  0
 17 52  1  0
 19 53  1  0
 19 54  1  0
 23 55  1  0
 23 56  1  0
 24 57  1  0
 24 58  1  0
 26 59  1  0
 27 60  1  0
 28 61  1  0
 29 62  1  0
 31 63  1  0
 31 64  1  0
 33 65  1  0
 33 66  1  0
 34 67  1  0
 34 68  1  0
M  END
>  <smiles>  (50) 
C[C@H]1CC[C@H](Nc2nc(N3CCc4ccccc4C3)nc(N3CCc4ccccc4C3)n2)CC1

>  <score_type>  (50) 
oracle

>  <origin>  (50) 
autodockgpu

>  <m_score__min__energy>  (50) 
-10.98

>  <m_primary>  (50) 
energy

>  <rmsd>  (50) 
4.920740451766563

>  <m_score__min__rmsd>  (50) 
4.920740451766563

>  <meeko>  (50) 
{"free_energy": -10.94, "intermolecular_energy": -12.13, "internal_energy": -1.03, "cluster_size": 24, "cluster_id": 1, "rank_in_cluster": 10}

>  <energy>  (50) 
-9.09

>  <cluster_rmsd>  (50) 
0.0

>  <cluster>  (50) 
4

$$$$
