
 67 72  0  0  0  0  0  0  0  0999 V2000
  137.8270   74.7560  221.9910 C   0  0  0  0  0  0  0  0  0  0  0  0
  138.6240   75.6780  221.0940 C   0  0  1  0  0  0  0  0  0  0  0  0
  138.2420   77.0990  221.4340 C   0  0  0  0  0  0  0  0  0  0  0  0
  139.0960   77.4930  222.6220 C   0  0  0  0  0  0  0  0  0  0  0  0
  140.5030   77.7040  222.1040 C   0  0  1  0  0  0  0  0  0  0  0  0
  141.4560   77.8450  223.1920 N   0  0  0  0  0  0  0  0  0  0  0  0
  140.9050   76.6180  221.1600 C   0  0  0  0  0  0  0  0  0  0  0  0
  140.0480   75.4560  221.2300 N   0  0  0  0  0  0  0  0  0  0  0  0
  140.5980   74.1590  221.4220 C   0  0  0  0  0  0  0  0  0  0  0  0
  141.5130   73.6060  220.6170 N   0  0  0  0  0  0  0  0  0  0  0  0
  142.0140   72.3630  220.8370 C   0  0  0  0  0  0  0  0  0  0  0  0
  142.9810   71.7620  219.9950 N   0  0  0  0  0  0  0  0  0  0  0  0
  144.2580   72.4090  219.7720 C   0  0  0  0  0  0  0  0  0  0  0  0
  145.0290   71.7490  218.6600 C   0  0  0  0  0  0  0  0  0  0  0  0
  145.1360   70.3040  219.0170 C   0  0  0  0  0  0  0  0  0  0  0  0
  146.3160   69.6090  219.0100 C   0  0  0  0  0  0  0  0  0  0  0  0
  146.3150   68.2740  219.3560 C   0  0  0  0  0  0  0  0  0  0  0  0
  145.1400   67.6260  219.7090 C   0  0  0  0  0  0  0  0  0  0  0  0
  143.9500   68.3400  219.7130 C   0  0  0  0  0  0  0  0  0  0  0  0
  143.9320   69.6860  219.3670 C   0  0  0  0  0  0  0  0  0  0  0  0
  142.6790   70.4880  219.3580 C   0  0  0  0  0  0  0  0  0  0  0  0
  141.5560   71.6800  221.9170 N   0  0  0  0  0  0  0  0  0  0  0  0
  140.6380   72.1980  222.7520 C   0  0  0  0  0  0  0  0  0  0  0  0
  140.1370   71.5080  223.8910 N   0  0  0  0  0  0  0  0  0  0  0  0
  138.9700   70.6430  223.8430 C   0  0  0  0  0  0  0  0  0  0  0  0
  139.5200   69.2640  224.2340 C   0  0  0  0  0  0  0  0  0  0  0  0
  139.8210   69.3770  225.6920 C   0  0  0  0  0  0  0  0  0  0  0  0
  139.4960   68.3590  226.5700 C   0  0  0  0  0  0  0  0  0  0  0  0
  139.8010   68.5190  227.9260 C   0  0  0  0  0  0  0  0  0  0  0  0
  140.4180   69.6950  228.3420 C   0  0  0  0  0  0  0  0  0  0  0  0
  140.7310   70.6960  227.4440 C   0  0  0  0  0  0  0  0  0  0  0  0
  140.4340   70.5450  226.1050 C   0  0  0  0  0  0  0  0  0  0  0  0
  140.7900   71.6450  225.1830 C   0  0  0  0  0  0  0  0  0  0  0  0
  140.1860   73.4280  222.4740 N   0  0  0  0  0  0  0  0  0  0  0  0
  138.0359   74.9977  223.0436 H   0  0  0  0  0  0  0  0  0  0  0  0
  136.7534   74.8874  221.7907 H   0  0  0  0  0  0  0  0  0  0  0  0
  138.1123   73.7127  221.7907 H   0  0  0  0  0  0  0  0  0  0  0  0
  138.3880   75.4719  220.0396 H   0  0  0  0  0  0  0  0  0  0  0  0
  138.4454   77.7631  220.5810 H   0  0  0  0  0  0  0  0  0  0  0  0
  137.1699   77.1816  221.6658 H   0  0  0  0  0  0  0  0  0  0  0  0
  138.7147   78.4226  223.0698 H   0  0  0  0  0  0  0  0  0  0  0  0
  139.0755   76.7124  223.3968 H   0  0  0  0  0  0  0  0  0  0  0  0
  140.5084   78.6486  221.5404 H   0  0  0  0  0  0  0  0  0  0  0  0
  142.0590   77.0050  223.3270 H   0  0  0  0  0  0  0  0  0  0  0  0
  141.0010   78.1570  224.0760 H   0  0  0  0  0  0  0  0  0  0  0  0
  140.8715   77.0158  220.1350 H   0  0  0  0  0  0  0  0  0  0  0  0
  141.9171   76.2952  221.4453 H   0  0  0  0  0  0  0  0  0  0  0  0
  144.0828   73.4624  219.5082 H   0  0  0  0  0  0  0  0  0  0  0  0
  144.8500   72.3276  220.6955 H   0  0  0  0  0  0  0  0  0  0  0  0
  144.4945   71.8660  217.7057 H   0  0  0  0  0  0  0  0  0  0  0  0
  146.0236   72.2038  218.5416 H   0  0  0  0  0  0  0  0  0  0  0  0
  147.2547   70.1103  218.7313 H   0  0  0  0  0  0  0  0  0  0  0  0
  147.2615   67.7136  219.3521 H   0  0  0  0  0  0  0  0  0  0  0  0
  145.1515   66.5605  219.9821 H   0  0  0  0  0  0  0  0  0  0  0  0
  143.0129   67.8363  219.9924 H   0  0  0  0  0  0  0  0  0  0  0  0
  142.3445   70.6535  218.3233 H   0  0  0  0  0  0  0  0  0  0  0  0
  141.8747   69.9633  219.8944 H   0  0  0  0  0  0  0  0  0  0  0  0
  138.2048   70.9771  224.5591 H   0  0  0  0  0  0  0  0  0  0  0  0
  138.4813   70.6423  222.8575 H   0  0  0  0  0  0  0  0  0  0  0  0
  138.7692   68.4809  224.0522 H   0  0  0  0  0  0  0  0  0  0  0  0
  140.4072   68.9870  223.6456 H   0  0  0  0  0  0  0  0  0  0  0  0
  139.0074   67.4418  226.2094 H   0  0  0  0  0  0  0  0  0  0  0  0
  139.5572   67.7286  228.6511 H   0  0  0  0  0  0  0  0  0  0  0  0
  140.6609   69.8296  229.4064 H   0  0  0  0  0  0  0  0  0  0  0  0
  141.2186   71.6166  227.7971 H   0  0  0  0  0  0  0  0  0  0  0  0
  140.4846   72.6000  225.6354 H   0  0  0  0  0  0  0  0  0  0  0  0
  141.8771   71.6111  225.0187 H   0  0  0  0  0  0  0  0  0  0  0  0
  1  2  1  0
  2  3  1  0
  3  4  1  0
  4  5  1  0
  5  6  1  0
  5  7  1  0
  7  8  1  0
  8  9  1  0
  9 10  2  0
 10 11  1  0
 11 12  1  0
 12 13  1  0
 13 14  1  0
 14 15  1  0
 15 16  2  0
 16 17  1  0
 17 18  2  0
 18 19  1  0
 19 20  2  0
 20 21  1  0
 11 22  2  0
 22 23  1  0
 23 24  1  0
 24 25  1  0
 25 26  1  0
 26 27  1  0
 27 28  2  0
 28 29  1  0
 29 30  2  0
 30 31  1  0
 31 32  2  0
 32 33  1  0
 23 34  2  0
  8  2  1  0
 34  9  1  0
 21 12  1  0
 33 24  1  0
 20 15  1  0
 32 27  1  0
  1 35  1  0
  1 36  1  0
  1 37  1  0
  2 38  1  6
  3 39  1  0
  3 40  1  0
  4 41  1  0
  4 42  1  0
  5 43  1  6
  6 44  1  0
  6 45  1  0
  7 46  1  0
  7 47  1  0
 13 48  1  0
 13 49  1  0
 14 50  1  0
 14 51  1  0
 16 52  1  0
 17 53  1  0
 18 54  1  0
 19 55  1  0
 21 56  1  0
 21 57  1  0
 25 58  1  0
 25 59  1  0
 26 60  1  0
 26 61  1  0
 28 62  1  0
 29 63  1  0
 30 64  1  0
 31 65  1  0
 33 66  1  0
 33 67  1  0
M  END
