
 73 77  0  0  0  0  0  0  0  0999 V2000
  141.1730   71.6860  228.3530 C   0  0  0  0  0  0  0  0  0  0  0  0
  141.4800   72.2760  227.1470 C   0  0  0  0  0  0  0  0  0  0  0  0
  141.0170   71.7000  225.9850 C   0  0  0  0  0  0  0  0  0  0  0  0
  140.2550   70.5560  225.9370 C   0  0  0  0  0  0  0  0  0  0  0  0
  139.7750   69.9180  224.7150 C   0  0  0  0  0  0  0  0  0  0  0  0
  138.2690   69.9900  224.5070 C   0  0  0  0  0  0  0  0  0  0  0  0
  138.0950   70.5510  223.1120 C   0  0  0  0  0  0  0  0  0  0  0  0
  138.4400   71.9180  222.9450 N   0  0  0  0  0  0  0  0  0  0  0  0
  139.5090   72.4230  222.1710 C   0  0  0  0  0  0  0  0  0  0  0  0
  139.7960   73.7500  222.3190 N   0  0  0  0  0  0  0  0  0  0  0  0
  140.8110   74.3190  221.6400 C   0  0  0  0  0  0  0  0  0  0  0  0
  141.0920   75.7120  221.8450 N   0  0  0  0  0  0  0  0  0  0  0  0
  140.1020   76.7510  221.6530 C   0  0  0  0  0  0  0  0  0  0  0  0
  139.0090   76.5500  222.7090 C   0  0  0  0  0  0  0  0  0  0  0  0
  137.7230   76.3060  221.9580 C   0  0  0  0  0  0  0  0  0  0  0  0
  137.0050   75.1410  222.3190 N   0  0  0  0  0  0  0  0  0  0  0  0
  136.8430   74.1300  221.3370 C   0  0  0  0  0  0  0  0  0  0  0  0
  135.6780   73.2550  221.7780 C   0  0  0  0  0  0  0  0  0  0  0  0
  135.7370   72.9200  223.1050 O   0  0  0  0  0  0  0  0  0  0  0  0
  135.8120   73.9850  223.9850 C   0  0  0  0  0  0  0  0  0  0  0  0
  135.9030   75.3000  223.2040 C   0  0  0  0  0  0  0  0  0  0  0  0
  141.5800   73.5990  220.7920 N   0  0  0  0  0  0  0  0  0  0  0  0
  141.2950   72.2790  220.6460 C   0  0  0  0  0  0  0  0  0  0  0  0
  142.1400   71.5580  219.7680 N   0  0  0  0  0  0  0  0  0  0  0  0
  143.0180   72.3010  218.8730 C   0  0  0  0  0  0  0  0  0  0  0  0
  144.4280   72.0510  219.4390 C   0  0  0  0  0  0  0  0  0  0  0  0
  144.6870   70.5840  219.4280 C   0  0  0  0  0  0  0  0  0  0  0  0
  146.0000   70.1880  219.2890 C   0  0  0  0  0  0  0  0  0  0  0  0
  146.3300   68.8290  219.2580 C   0  0  0  0  0  0  0  0  0  0  0  0
  145.2810   67.9460  219.3720 C   0  0  0  0  0  0  0  0  0  0  0  0
  143.9650   68.3340  219.5110 C   0  0  0  0  0  0  0  0  0  0  0  0
  143.6450   69.6700  219.5430 C   0  0  0  0  0  0  0  0  0  0  0  0
  142.2210   70.1170  219.6950 C   0  0  0  0  0  0  0  0  0  0  0  0
  140.2730   71.7150  221.3300 N   0  0  0  0  0  0  0  0  0  0  0  0
  139.9480   69.9650  227.1530 C   0  0  0  0  0  0  0  0  0  0  0  0
  140.4050   70.5290  228.3380 C   0  0  0  0  0  0  0  0  0  0  0  0
  141.5259   72.1187  229.3007 H   0  0  0  0  0  0  0  0  0  0  0  0
  142.0859   73.1935  227.1125 H   0  0  0  0  0  0  0  0  0  0  0  0
  141.2735   72.1869  225.0325 H   0  0  0  0  0  0  0  0  0  0  0  0
  140.2625   70.4076  223.8590 H   0  0  0  0  0  0  0  0  0  0  0  0
  140.0248   68.8504  224.8042 H   0  0  0  0  0  0  0  0  0  0  0  0
  137.8199   68.9885  224.5802 H   0  0  0  0  0  0  0  0  0  0  0  0
  137.7751   70.6119  225.2681 H   0  0  0  0  0  0  0  0  0  0  0  0
  138.7234   69.9593  222.4302 H   0  0  0  0  0  0  0  0  0  0  0  0
  137.0178   70.4881  222.8985 H   0  0  0  0  0  0  0  0  0  0  0  0
  137.8550   72.6430  223.4380 H   0  0  0  0  0  0  0  0  0  0  0  0
  142.0910   75.9110  222.1350 H   0  0  0  0  0  0  0  0  0  0  0  0
  140.5670   77.7400  221.7779 H   0  0  0  0  0  0  0  0  0  0  0  0
  139.6758   76.6964  220.6404 H   0  0  0  0  0  0  0  0  0  0  0  0
  139.2485   75.6835  223.3429 H   0  0  0  0  0  0  0  0  0  0  0  0
  138.9246   77.4292  223.3646 H   0  0  0  0  0  0  0  0  0  0  0  0
  137.0658   77.1719  222.1259 H   0  0  0  0  0  0  0  0  0  0  0  0
  138.0161   76.1601  220.9078 H   0  0  0  0  0  0  0  0  0  0  0  0
  136.6233   74.5855  220.3601 H   0  0  0  0  0  0  0  0  0  0  0  0
  137.7619   73.5339  221.2357 H   0  0  0  0  0  0  0  0  0  0  0  0
  134.7403   73.8000  221.5947 H   0  0  0  0  0  0  0  0  0  0  0  0
  135.7279   72.3213  221.1987 H   0  0  0  0  0  0  0  0  0  0  0  0
  134.9132   73.9985  224.6190 H   0  0  0  0  0  0  0  0  0  0  0  0
  136.7080   73.8737  224.6134 H   0  0  0  0  0  0  0  0  0  0  0  0
  134.9768   75.4752  222.6370 H   0  0  0  0  0  0  0  0  0  0  0  0
  136.0377   76.1631  223.8725 H   0  0  0  0  0  0  0  0  0  0  0  0
  142.9375   71.9222  217.8434 H   0  0  0  0  0  0  0  0  0  0  0  0
  142.7654   73.3705  218.8249 H   0  0  0  0  0  0  0  0  0  0  0  0
  145.1748   72.5646  218.8156 H   0  0  0  0  0  0  0  0  0  0  0  0
  144.4967   72.4388  220.4661 H   0  0  0  0  0  0  0  0  0  0  0  0
  146.7931   70.9453  219.2019 H   0  0  0  0  0  0  0  0  0  0  0  0
  147.3693   68.4857  219.1487 H   0  0  0  0  0  0  0  0  0  0  0  0
  145.5048   66.8692  219.3511 H   0  0  0  0  0  0  0  0  0  0  0  0
  143.1729   67.5755  219.5961 H   0  0  0  0  0  0  0  0  0  0  0  0
  141.6388   69.7665  218.8300 H   0  0  0  0  0  0  0  0  0  0  0  0
  141.8163   69.6937  220.6261 H   0  0  0  0  0  0  0  0  0  0  0  0
  139.3414   69.0478  227.1798 H   0  0  0  0  0  0  0  0  0  0  0  0
  140.1509   70.0447  229.2924 H   0  0  0  0  0  0  0  0  0  0  0  0
  1  2  2  0
  2  3  1  0
  3  4  2  0
  4  5  1  0
  5  6  1  0
  6  7  1  0
  7  8  1  0
  8  9  1  0
  9 10  2  0
 10 11  1  0
 11 12  1  0
 12 13  1  0
 13 14  1  0
 14 15  1  0
 15 16  1  0
 16 17  1  0
 17 18  1  0
 18 19  1  0
 19 20  1  0
 20 21  1  0
 11 22  2  0
 22 23  1  0
 23 24  1  0
 24 25  1  0
 25 26  1  0
 26 27  1  0
 27 28  2  0
 28 29  1  0
 29 30  2  0
 30 31  1  0
 31 32  2  0
 32 33  1  0
 23 34  2  0
  4 35  1  0
 35 36  2  0
 36  1  1  0
 34  9  1  0
 21 16  1  0
 33 24  1  0
 32 27  1  0
  1 37  1  0
  2 38  1  0
  3 39  1  0
  5 40  1  0
  5 41  1  0
  6 42  1  0
  6 43  1  0
  7 44  1  0
  7 45  1  0
  8 46  1  0
 12 47  1  0
 13 48  1  0
 13 49  1  0
 14 50  1  0
 14 51  1  0
 15 52  1  0
 15 53  1  0
 17 54  1  0
 17 55  1  0
 18 56  1  0
 18 57  1  0
 20 58  1  0
 20 59  1  0
 21 60  1  0
 21 61  1  0
 25 62  1  0
 25 63  1  0
 26 64  1  0
 26 65  1  0
 28 66  1  0
 29 67  1  0
 30 68  1  0
 31 69  1  0
 33 70  1  0
 33 71  1  0
 35 72  1  0
 36 73  1  0
M  END
