
     RDKit          3D

 69 75  0  0  0  0  0  0  0  0999 V2000
  137.7630   77.1680  222.9470 O   0  0  0  0  0  0  0  0  0  0  0  0
  138.9860   77.4550  222.5950 C   0  0  0  0  0  0  0  0  0  0  0  0
  139.7530   76.3010  222.1810 C   0  0  0  0  0  0  0  0  0  0  0  0
  140.9840   76.4040  221.5630 C   0  0  0  0  0  0  0  0  0  0  0  0
  141.5070   75.1400  221.3160 C   0  0  0  0  0  0  0  0  0  0  0  0
  142.6700   74.6850  220.7550 C   0  0  0  0  0  0  0  0  0  0  0  0
  142.8960   73.3330  220.6730 C   0  0  0  0  0  0  0  0  0  0  0  0
  144.1250   72.7680  220.1030 C   0  0  0  0  0  0  0  0  0  0  0  0
  145.3580   73.3540  219.9390 C   0  0  0  0  0  0  0  0  0  0  0  0
  146.1750   72.4520  219.3650 N   0  0  0  0  0  0  0  0  0  0  0  0
  145.5210   71.3200  219.1560 N   0  0  0  0  0  0  0  0  0  0  0  0
  144.2570   71.4740  219.5970 C   0  0  0  0  0  0  0  0  0  0  0  0
  141.9690   72.3980  221.1480 C   0  0  0  0  0  0  0  0  0  0  0  0
  140.8140   72.9120  221.7020 C   0  0  0  0  0  0  0  0  0  0  0  0
  140.5720   74.2680  221.7940 C   0  0  0  0  0  0  0  0  0  0  0  0
  139.5300   74.9870  222.3080 N   0  0  0  0  0  0  0  0  0  0  0  0
  139.3310   78.7830  222.6690 N   0  0  0  0  0  0  0  0  0  0  0  0
  138.3910   79.8770  222.2460 C   0  0  0  0  0  0  0  0  0  0  0  0
  139.3850   80.5910  221.3350 C   0  0  1  0  0  0  0  0  0  0  0  0
  139.5870   79.7280  220.1320 C   0  0  0  0  0  0  0  0  0  0  0  0
  138.4390   80.2410  219.2150 C   0  0  0  0  0  0  0  0  0  0  0  0
  138.5560   81.6320  219.3820 N   0  0  0  0  0  0  0  0  0  0  0  0
  139.2590   82.4500  218.5050 C   0  0  0  0  0  0  0  0  0  0  0  0
  140.7520   82.3960  218.4310 C   0  0  0  0  0  0  0  0  0  0  0  0
  141.3720   83.6470  218.0270 C   0  0  0  0  0  0  0  0  0  0  0  0
  142.7800   83.5370  217.4760 C   0  0  0  0  0  0  0  0  0  0  0  0
  143.3140   82.1380  217.4370 C   0  0  0  0  0  0  0  0  0  0  0  0
  142.2430   81.3450  216.6740 C   0  0  0  0  0  0  0  0  0  0  0  0
  141.1090   81.1740  217.6360 C   0  0  0  0  0  0  0  0  0  0  0  0
  138.9190   81.8800  220.7820 C   0  0  0  0  0  0  0  0  0  0  0  0
  140.5670   80.6590  222.2310 C   0  0  0  0  0  0  0  0  0  0  0  0
  141.6260   81.5060  222.4470 C   0  0  0  0  0  0  0  0  0  0  0  0
  142.5660   81.2390  223.4070 C   0  0  0  0  0  0  0  0  0  0  0  0
  142.4850   80.0940  224.2030 C   0  0  0  0  0  0  0  0  0  0  0  0
  141.4330   79.2320  224.0010 C   0  0  0  0  0  0  0  0  0  0  0  0
  140.4930   79.5110  223.0330 C   0  0  0  0  0  0  0  0  0  0  0  0
  141.4797   77.3510  221.3034 H   0  0  0  0  0  0  0  0  0  0  0  0
  143.4171   75.3964  220.3732 H   0  0  0  0  0  0  0  0  0  0  0  0
  145.6291   74.3805  220.2267 H   0  0  0  0  0  0  0  0  0  0  0  0
  145.9480   70.4660  218.7170 H   0  0  0  0  0  0  0  0  0  0  0  0
  143.4653   70.7110  219.5639 H   0  0  0  0  0  0  0  0  0  0  0  0
  142.1506   71.3150  221.0834 H   0  0  0  0  0  0  0  0  0  0  0  0
  140.0560   72.2132  222.0855 H   0  0  0  0  0  0  0  0  0  0  0  0
  138.7220   74.5170  222.7280 H   0  0  0  0  0  0  0  0  0  0  0  0
  137.5127   79.4975  221.7032 H   0  0  0  0  0  0  0  0  0  0  0  0
  137.9202   80.4723  223.0422 H   0  0  0  0  0  0  0  0  0  0  0  0
  140.5745   79.8924  219.6761 H   0  0  0  0  0  0  0  0  0  0  0  0
  139.5616   78.6472  220.3352 H   0  0  0  0  0  0  0  0  0  0  0  0
  138.5979   79.9461  218.1672 H   0  0  0  0  0  0  0  0  0  0  0  0
  137.4467   79.8383  219.4663 H   0  0  0  0  0  0  0  0  0  0  0  0
  138.8872   82.2192  217.4958 H   0  0  0  0  0  0  0  0  0  0  0  0
  139.0729   83.4556  218.9100 H   0  0  0  0  0  0  0  0  0  0  0  0
  141.1930   82.2868  219.4328 H   0  0  0  0  0  0  0  0  0  0  0  0
  140.7399   84.1016  217.2499 H   0  0  0  0  0  0  0  0  0  0  0  0
  141.4558   84.2490  218.9438 H   0  0  0  0  0  0  0  0  0  0  0  0
  142.7820   83.9362  216.4510 H   0  0  0  0  0  0  0  0  0  0  0  0
  143.4317   84.1064  218.1550 H   0  0  0  0  0  0  0  0  0  0  0  0
  144.2769   82.1030  216.9063 H   0  0  0  0  0  0  0  0  0  0  0  0
  143.5022   81.7315  218.4417 H   0  0  0  0  0  0  0  0  0  0  0  0
  141.9122   81.9027  215.7854 H   0  0  0  0  0  0  0  0  0  0  0  0
  142.6273   80.3767  216.3207 H   0  0  0  0  0  0  0  0  0  0  0  0
  140.2205   80.8697  217.0633 H   0  0  0  0  0  0  0  0  0  0  0  0
  141.4412   80.4221  218.3670 H   0  0  0  0  0  0  0  0  0  0  0  0
  139.7225   82.6292  220.8382 H   0  0  0  0  0  0  0  0  0  0  0  0
  138.0606   82.2671  221.3506 H   0  0  0  0  0  0  0  0  0  0  0  0
  141.7214   82.4166  221.8373 H   0  0  0  0  0  0  0  0  0  0  0  0
  143.4009   81.9400  223.5539 H   0  0  0  0  0  0  0  0  0  0  0  0
  143.2438   79.8872  224.9721 H   0  0  0  0  0  0  0  0  0  0  0  0
  141.3420   78.3213  224.6111 H   0  0  0  0  0  0  0  0  0  0  0  0
  1  2  2  0
  2  3  1  0
  3  4  2  0
  4  5  1  0
  5  6  2  0
  6  7  1  0
  7  8  1  0
  8  9  1  0
  9 10  2  0
 10 11  1  0
 11 12  1  0
  7 13  2  0
 13 14  1  0
 14 15  2  0
 15 16  1  0
  2 17  1  0
 17 18  1  0
 19 18  1  1
 19 20  1  0
 20 21  1  0
 21 22  1  0
 22 23  1  0
 23 24  1  0
 24 25  1  0
 25 26  1  0
 26 27  1  0
 27 28  1  0
 28 29  1  0
 22 30  1  0
 19 31  1  0
 31 32  2  0
 32 33  1  0
 33 34  2  0
 34 35  1  0
 35 36  2  0
 16  3  1  0
 36 17  1  0
 15  5  1  0
 30 19  1  0
 36 31  1  0
 12  8  2  0
 29 24  1  0
  4 37  1  0
  6 38  1  0
  9 39  1  0
 11 40  1  0
 12 41  1  0
 13 42  1  0
 14 43  1  0
 16 44  1  0
 18 45  1  0
 18 46  1  0
 20 47  1  0
 20 48  1  0
 21 49  1  0
 21 50  1  0
 23 51  1  0
 23 52  1  0
 24 53  1  0
 25 54  1  0
 25 55  1  0
 26 56  1  0
 26 57  1  0
 27 58  1  0
 27 59  1  0
 28 60  1  0
 28 61  1  0
 29 62  1  0
 29 63  1  0
 30 64  1  0
 30 65  1  0
 32 66  1  0
 33 67  1  0
 34 68  1  0
 35 69  1  0
M  END
>  <smiles>  (1) 
O=C(c1cc2cc(-c3cn[nH]c3)ccc2[nH]1)N1C[C@]2(CCN(CC3CCCCC3)C2)c2ccccc21

>  <score_type>  (1) 
oracle

>  <origin>  (1) 
autodockgpu

>  <m_score__min__energy>  (1) 
-9.5899999999999999

>  <m_primary>  (1) 
energy

>  <rmsd>  (1) 
5.527706419245337

>  <m_score__min__rmsd>  (1) 
5.527706419245337

>  <meeko>  (1) 
{"free_energy": -8.7, "intermolecular_energy": -10.19, "internal_energy": -1.99, "cluster_size": 20, "cluster_id": 6, "rank_in_cluster": 11}

>  <energy>  (1) 
-9.59

>  <cluster_rmsd>  (1) 
0.0

>  <cluster>  (1) 
1

$$$$

     RDKit          3D

 69 75  0  0  0  0  0  0  0  0999 V2000
  137.6090   77.1180  222.8110 O   0  0  0  0  0  0  0  0  0  0  0  0
  138.8650   77.4490  222.6830 C   0  0  0  0  0  0  0  0  0  0  0  0
  139.6940   76.3790  222.1750 C   0  0  0  0  0  0  0  0  0  0  0  0
  140.8700   76.6070  221.4850 C   0  0  0  0  0  0  0  0  0  0  0  0
  141.4770   75.4010  221.1550 C   0  0  0  0  0  0  0  0  0  0  0  0
  142.6330   75.0650  220.5040 C   0  0  0  0  0  0  0  0  0  0  0  0
  142.9630   73.7410  220.3530 C   0  0  0  0  0  0  0  0  0  0  0  0
  144.1930   73.3020  219.6840 C   0  0  0  0  0  0  0  0  0  0  0  0
  145.5020   73.4670  220.0730 C   0  0  0  0  0  0  0  0  0  0  0  0
  146.2880   72.9040  219.1380 N   0  0  0  0  0  0  0  0  0  0  0  0
  145.5430   72.3880  218.1730 N   0  0  0  0  0  0  0  0  0  0  0  0
  144.2480   72.6120  218.4720 C   0  0  0  0  0  0  0  0  0  0  0  0
  142.1490   72.7150  220.8470 C   0  0  0  0  0  0  0  0  0  0  0  0
  140.9940   73.1100  221.4930 C   0  0  0  0  0  0  0  0  0  0  0  0
  140.6490   74.4370  221.6550 C   0  0  0  0  0  0  0  0  0  0  0  0
  139.5880   75.0470  222.2620 N   0  0  0  0  0  0  0  0  0  0  0  0
  139.1800   78.7370  223.0410 N   0  0  0  0  0  0  0  0  0  0  0  0
  138.1370   79.8140  223.1530 C   0  0  0  0  0  0  0  0  0  0  0  0
  138.8650   80.8280  222.2770 C   0  0  1  0  0  0  0  0  0  0  0  0
  138.7970   80.3300  220.8690 C   0  0  0  0  0  0  0  0  0  0  0  0
  137.4500   80.9570  220.4070 C   0  0  0  0  0  0  0  0  0  0  0  0
  137.5650   82.2610  220.9190 N   0  0  0  0  0  0  0  0  0  0  0  0
  138.0160   83.3400  220.1670 C   0  0  0  0  0  0  0  0  0  0  0  0
  139.2470   83.2310  219.3240 C   0  0  0  0  0  0  0  0  0  0  0  0
  139.1570   82.2360  218.2680 C   0  0  0  0  0  0  0  0  0  0  0  0
  140.4790   81.7440  217.7130 C   0  0  0  0  0  0  0  0  0  0  0  0
  141.6820   82.3710  218.3490 C   0  0  0  0  0  0  0  0  0  0  0  0
  141.4740   82.1470  219.8540 C   0  0  0  0  0  0  0  0  0  0  0  0
  140.4130   83.1220  220.2620 C   0  0  0  0  0  0  0  0  0  0  0  0
  138.2450   82.1680  222.2160 C   0  0  0  0  0  0  0  0  0  0  0  0
  140.2240   80.7680  222.8710 C   0  0  0  0  0  0  0  0  0  0  0  0
  141.2800   81.6230  223.0700 C   0  0  0  0  0  0  0  0  0  0  0  0
  142.4290   81.2020  223.6870 C   0  0  0  0  0  0  0  0  0  0  0  0
  142.5720   79.8860  224.1350 C   0  0  0  0  0  0  0  0  0  0  0  0
  141.5260   79.0150  223.9430 C   0  0  0  0  0  0  0  0  0  0  0  0
  140.3750   79.4490  223.3230 C   0  0  0  0  0  0  0  0  0  0  0  0
  141.2684   77.6009  221.2331 H   0  0  0  0  0  0  0  0  0  0  0  0
  143.2925   75.8497  220.1049 H   0  0  0  0  0  0  0  0  0  0  0  0
  145.8457   73.9710  220.9883 H   0  0  0  0  0  0  0  0  0  0  0  0
  145.9310   71.8950  217.3290 H   0  0  0  0  0  0  0  0  0  0  0  0
  143.3835   72.3041  217.8654 H   0  0  0  0  0  0  0  0  0  0  0  0
  142.4142   71.6542  220.7275 H   0  0  0  0  0  0  0  0  0  0  0  0
  140.3224   72.3368  221.8943 H   0  0  0  0  0  0  0  0  0  0  0  0
  138.8500   74.4960  222.7120 H   0  0  0  0  0  0  0  0  0  0  0  0
  137.1656   79.5107  222.7353 H   0  0  0  0  0  0  0  0  0  0  0  0
  137.8534   80.1361  224.1658 H   0  0  0  0  0  0  0  0  0  0  0  0
  139.6422   80.6967  220.2680 H   0  0  0  0  0  0  0  0  0  0  0  0
  138.8501   79.2359  220.7683 H   0  0  0  0  0  0  0  0  0  0  0  0
  137.3624   80.9609  219.3105 H   0  0  0  0  0  0  0  0  0  0  0  0
  136.5578   80.4139  220.7520 H   0  0  0  0  0  0  0  0  0  0  0  0
  137.1949   83.6127  219.4877 H   0  0  0  0  0  0  0  0  0  0  0  0
  138.3149   84.0645  220.9388 H   0  0  0  0  0  0  0  0  0  0  0  0
  139.3892   84.1348  218.7134 H   0  0  0  0  0  0  0  0  0  0  0  0
  138.6142   81.3669  218.6681 H   0  0  0  0  0  0  0  0  0  0  0  0
  138.6471   82.7339  217.4301 H   0  0  0  0  0  0  0  0  0  0  0  0
  140.5346   80.6562  217.8669 H   0  0  0  0  0  0  0  0  0  0  0  0
  140.5003   82.0249  216.6497 H   0  0  0  0  0  0  0  0  0  0  0  0
  142.6048   81.8805  218.0057 H   0  0  0  0  0  0  0  0  0  0  0  0
  141.7868   83.4355  218.0925 H   0  0  0  0  0  0  0  0  0  0  0  0
  141.1429   81.1159  220.0468 H   0  0  0  0  0  0  0  0  0  0  0  0
  142.4048   82.2966  220.4208 H   0  0  0  0  0  0  0  0  0  0  0  0
  140.0297   82.8149  221.2463 H   0  0  0  0  0  0  0  0  0  0  0  0
  140.8941   84.1112  220.2652 H   0  0  0  0  0  0  0  0  0  0  0  0
  139.0177   82.9469  222.2954 H   0  0  0  0  0  0  0  0  0  0  0  0
  137.5365   82.3136  223.0448 H   0  0  0  0  0  0  0  0  0  0  0  0
  141.2022   82.6655  222.7277 H   0  0  0  0  0  0  0  0  0  0  0  0
  143.2549   81.9139  223.8325 H   0  0  0  0  0  0  0  0  0  0  0  0
  143.4979   79.5556  224.6286 H   0  0  0  0  0  0  0  0  0  0  0  0
  141.6080   77.9725  224.2841 H   0  0  0  0  0  0  0  0  0  0  0  0
  1  2  2  0
  2  3  1  0
  3  4  2  0
  4  5  1  0
  5  6  2  0
  6  7  1  0
  7  8  1  0
  8  9  1  0
  9 10  2  0
 10 11  1  0
 11 12  1  0
  7 13  2  0
 13 14  1  0
 14 15  2  0
 15 16  1  0
  2 17  1  0
 17 18  1  0
 19 18  1  1
 19 20  1  0
 20 21  1  0
 21 22  1  0
 22 23  1  0
 23 24  1  0
 24 25  1  0
 25 26  1  0
 26 27  1  0
 27 28  1  0
 28 29  1  0
 22 30  1  0
 19 31  1  0
 31 32  2  0
 32 33  1  0
 33 34  2  0
 34 35  1  0
 35 36  2  0
 16  3  1  0
 36 17  1  0
 15  5  1  0
 30 19  1  0
 36 31  1  0
 12  8  2  0
 29 24  1  0
  4 37  1  0
  6 38  1  0
  9 39  1  0
 11 40  1  0
 12 41  1  0
 13 42  1  0
 14 43  1  0
 16 44  1  0
 18 45  1  0
 18 46  1  0
 20 47  1  0
 20 48  1  0
 21 49  1  0
 21 50  1  0
 23 51  1  0
 23 52  1  0
 24 53  1  0
 25 54  1  0
 25 55  1  0
 26 56  1  0
 26 57  1  0
 27 58  1  0
 27 59  1  0
 28 60  1  0
 28 61  1  0
 29 62  1  0
 29 63  1  0
 30 64  1  0
 30 65  1  0
 32 66  1  0
 33 67  1  0
 34 68  1  0
 35 69  1  0
M  END
>  <smiles>  (2) 
O=C(c1cc2cc(-c3cn[nH]c3)ccc2[nH]1)N1C[C@]2(CCN(CC3CCCCC3)C2)c2ccccc21

>  <score_type>  (2) 
oracle

>  <origin>  (2) 
autodockgpu

>  <m_score__min__energy>  (2) 
-9.5899999999999999

>  <m_primary>  (2) 
energy

>  <rmsd>  (2) 
5.6260415839442794

>  <m_score__min__rmsd>  (2) 
5.6260415839442794

>  <meeko>  (2) 
{"free_energy": -8.7, "intermolecular_energy": -10.19, "internal_energy": -2.1, "cluster_size": 20, "cluster_id": 6, "rank_in_cluster": 12}

>  <energy>  (2) 
-9.45

>  <cluster_rmsd>  (2) 
0.92

>  <cluster>  (2) 
1

$$$$

     RDKit          3D

 69 75  0  0  0  0  0  0  0  0999 V2000
  135.5570   72.5070  221.1700 O   0  0  0  0  0  0  0  0  0  0  0  0
  136.8460   72.5270  221.3680 C   0  0  0  0  0  0  0  0  0  0  0  0
  137.3550   73.8340  221.7180 C   0  0  0  0  0  0  0  0  0  0  0  0
  138.7050   74.1060  221.8290 C   0  0  0  0  0  0  0  0  0  0  0  0
  138.9040   75.4480  222.1350 C   0  0  0  0  0  0  0  0  0  0  0  0
  140.0130   76.2240  222.3350 C   0  0  0  0  0  0  0  0  0  0  0  0
  139.8620   77.5600  222.6130 C   0  0  0  0  0  0  0  0  0  0  0  0
  141.0030   78.4600  222.8200 C   0  0  0  0  0  0  0  0  0  0  0  0
  141.4210   79.0860  223.9710 C   0  0  0  0  0  0  0  0  0  0  0  0
  142.5090   79.8180  223.6740 N   0  0  0  0  0  0  0  0  0  0  0  0
  142.8040   79.6900  222.3900 N   0  0  0  0  0  0  0  0  0  0  0  0
  141.9000   78.8620  221.8290 C   0  0  0  0  0  0  0  0  0  0  0  0
  138.6000   78.1590  222.7000 C   0  0  0  0  0  0  0  0  0  0  0  0
  137.5160   77.3290  222.4920 C   0  0  0  0  0  0  0  0  0  0  0  0
  137.6500   75.9850  222.2100 C   0  0  0  0  0  0  0  0  0  0  0  0
  136.7400   74.9990  221.9560 N   0  0  0  0  0  0  0  0  0  0  0  0
  137.4900   71.3230  221.2210 N   0  0  0  0  0  0  0  0  0  0  0  0
  137.0260   70.0760  221.9220 C   0  0  0  0  0  0  0  0  0  0  0  0
  138.3850   69.7150  222.5130 C   0  0  1  0  0  0  0  0  0  0  0  0
  138.6820   70.7110  223.5880 C   0  0  0  0  0  0  0  0  0  0  0  0
  138.0110   70.0210  224.8110 C   0  0  0  0  0  0  0  0  0  0  0  0
  138.4360   68.6920  224.6430 N   0  0  0  0  0  0  0  0  0  0  0  0
  139.5440   68.1560  225.2890 C   0  0  0  0  0  0  0  0  0  0  0  0
  140.2430   68.9120  226.3740 C   0  0  0  0  0  0  0  0  0  0  0  0
  139.3870   69.2760  227.4910 C   0  0  0  0  0  0  0  0  0  0  0  0
  139.8830   70.4170  228.3560 C   0  0  0  0  0  0  0  0  0  0  0  0
  141.1940   70.9940  227.9170 C   0  0  0  0  0  0  0  0  0  0  0  0
  140.9800   71.3340  226.4350 C   0  0  0  0  0  0  0  0  0  0  0  0
  141.0070   70.0230  225.7140 C   0  0  0  0  0  0  0  0  0  0  0  0
  138.4450   68.4100  223.2030 C   0  0  0  0  0  0  0  0  0  0  0  0
  139.2450   69.8540  221.3110 C   0  0  0  0  0  0  0  0  0  0  0  0
  140.3840   69.2750  220.8090 C   0  0  0  0  0  0  0  0  0  0  0  0
  140.9140   69.6720  219.6100 C   0  0  0  0  0  0  0  0  0  0  0  0
  140.3190   70.6830  218.8520 C   0  0  0  0  0  0  0  0  0  0  0  0
  139.1780   71.2770  219.3390 C   0  0  0  0  0  0  0  0  0  0  0  0
  138.6530   70.8690  220.5450 C   0  0  0  0  0  0  0  0  0  0  0  0
  139.5081   73.3664  221.6945 H   0  0  0  0  0  0  0  0  0  0  0  0
  141.0179   75.7809  222.2735 H   0  0  0  0  0  0  0  0  0  0  0  0
  140.9483   79.0025  224.9607 H   0  0  0  0  0  0  0  0  0  0  0  0
  143.6130   80.1690  221.9200 H   0  0  0  0  0  0  0  0  0  0  0  0
  141.8738   78.5561  220.7727 H   0  0  0  0  0  0  0  0  0  0  0  0
  138.4786   79.2296  222.9214 H   0  0  0  0  0  0  0  0  0  0  0  0
  136.5045   77.7568  222.5537 H   0  0  0  0  0  0  0  0  0  0  0  0
  135.7340   75.1990  221.9550 H   0  0  0  0  0  0  0  0  0  0  0  0
  136.2671   70.2781  222.6922 H   0  0  0  0  0  0  0  0  0  0  0  0
  136.5243   69.3118  221.3101 H   0  0  0  0  0  0  0  0  0  0  0  0
  139.7646   70.8367  223.7367 H   0  0  0  0  0  0  0  0  0  0  0  0
  138.3195   71.7288  223.3813 H   0  0  0  0  0  0  0  0  0  0  0  0
  138.3729   70.4428  225.7603 H   0  0  0  0  0  0  0  0  0  0  0  0
  136.9187   70.1432  224.8546 H   0  0  0  0  0  0  0  0  0  0  0  0
  139.2175   67.2034  225.7318 H   0  0  0  0  0  0  0  0  0  0  0  0
  140.2992   68.1258  224.4897 H   0  0  0  0  0  0  0  0  0  0  0  0
  140.9666   68.2706  226.8984 H   0  0  0  0  0  0  0  0  0  0  0  0
  138.4054   69.5619  227.0851 H   0  0  0  0  0  0  0  0  0  0  0  0
  139.3594   68.3934  228.1469 H   0  0  0  0  0  0  0  0  0  0  0  0
  139.1294   71.2180  228.3362 H   0  0  0  0  0  0  0  0  0  0  0  0
  140.0400   70.0052  229.3638 H   0  0  0  0  0  0  0  0  0  0  0  0
  141.4344   71.8992  228.4939 H   0  0  0  0  0  0  0  0  0  0  0  0
  142.0327   70.2994  228.0726 H   0  0  0  0  0  0  0  0  0  0  0  0
  140.0095   71.8314  226.2913 H   0  0  0  0  0  0  0  0  0  0  0  0
  141.7522   72.0214  226.0592 H   0  0  0  0  0  0  0  0  0  0  0  0
  140.5829   70.1780  224.7110 H   0  0  0  0  0  0  0  0  0  0  0  0
  142.0596   69.7036  225.7029 H   0  0  0  0  0  0  0  0  0  0  0  0
  139.3671   67.8776  222.9270 H   0  0  0  0  0  0  0  0  0  0  0  0
  137.5936   67.7738  222.9197 H   0  0  0  0  0  0  0  0  0  0  0  0
  140.8805   68.4770  221.3806 H   0  0  0  0  0  0  0  0  0  0  0  0
  141.8267   69.1847  219.2365 H   0  0  0  0  0  0  0  0  0  0  0  0
  140.7517   70.9961  217.8904 H   0  0  0  0  0  0  0  0  0  0  0  0
  138.6856   72.0766  218.7661 H   0  0  0  0  0  0  0  0  0  0  0  0
  1  2  2  0
  2  3  1  0
  3  4  2  0
  4  5  1  0
  5  6  2  0
  6  7  1  0
  7  8  1  0
  8  9  1  0
  9 10  2  0
 10 11  1  0
 11 12  1  0
  7 13  2  0
 13 14  1  0
 14 15  2  0
 15 16  1  0
  2 17  1  0
 17 18  1  0
 19 18  1  6
 19 20  1  0
 20 21  1  0
 21 22  1  0
 22 23  1  0
 23 24  1  0
 24 25  1  0
 25 26  1  0
 26 27  1  0
 27 28  1  0
 28 29  1  0
 22 30  1  0
 19 31  1  0
 31 32  2  0
 32 33  1  0
 33 34  2  0
 34 35  1  0
 35 36  2  0
 16  3  1  0
 36 17  1  0
 15  5  1  0
 30 19  1  0
 36 31  1  0
 12  8  2  0
 29 24  1  0
  4 37  1  0
  6 38  1  0
  9 39  1  0
 11 40  1  0
 12 41  1  0
 13 42  1  0
 14 43  1  0
 16 44  1  0
 18 45  1  0
 18 46  1  0
 20 47  1  0
 20 48  1  0
 21 49  1  0
 21 50  1  0
 23 51  1  0
 23 52  1  0
 24 53  1  0
 25 54  1  0
 25 55  1  0
 26 56  1  0
 26 57  1  0
 27 58  1  0
 27 59  1  0
 28 60  1  0
 28 61  1  0
 29 62  1  0
 29 63  1  0
 30 64  1  0
 30 65  1  0
 32 66  1  0
 33 67  1  0
 34 68  1  0
 35 69  1  0
M  END
>  <smiles>  (3) 
O=C(c1cc2cc(-c3cn[nH]c3)ccc2[nH]1)N1C[C@]2(CCN(CC3CCCCC3)C2)c2ccccc21

>  <score_type>  (3) 
oracle

>  <origin>  (3) 
autodockgpu

>  <m_score__min__energy>  (3) 
-9.5899999999999999

>  <m_primary>  (3) 
energy

>  <rmsd>  (3) 
9.795036161942742

>  <m_score__min__rmsd>  (3) 
9.795036161942742

>  <meeko>  (3) 
{"free_energy": -8.77, "intermolecular_energy": -10.26, "internal_energy": -1.86, "cluster_size": 2, "cluster_id": 8, "rank_in_cluster": 1}

>  <energy>  (3) 
-9.29

>  <cluster_rmsd>  (3) 
0.57

>  <cluster>  (3) 
1

$$$$

     RDKit          3D

 69 75  0  0  0  0  0  0  0  0999 V2000
  140.1270   72.9950  219.6740 O   0  0  0  0  0  0  0  0  0  0  0  0
  139.4810   73.4290  220.7210 C   0  0  0  0  0  0  0  0  0  0  0  0
  139.3960   72.4580  221.7900 C   0  0  0  0  0  0  0  0  0  0  0  0
  140.3740   72.3220  222.7560 C   0  0  0  0  0  0  0  0  0  0  0  0
  140.0100   71.3450  223.6760 C   0  0  0  0  0  0  0  0  0  0  0  0
  140.5930   70.8390  224.8060 C   0  0  0  0  0  0  0  0  0  0  0  0
  139.9450   69.8610  225.5200 C   0  0  0  0  0  0  0  0  0  0  0  0
  140.4960   69.2830  226.7510 C   0  0  0  0  0  0  0  0  0  0  0  0
  141.0540   69.9150  227.8370 C   0  0  0  0  0  0  0  0  0  0  0  0
  141.4260   68.9740  228.7230 N   0  0  0  0  0  0  0  0  0  0  0  0
  141.1310   67.7710  228.2530 N   0  0  0  0  0  0  0  0  0  0  0  0
  140.5570   67.9180  227.0430 C   0  0  0  0  0  0  0  0  0  0  0  0
  138.6990   69.3600  225.1260 C   0  0  0  0  0  0  0  0  0  0  0  0
  138.1590   69.9050  223.9780 C   0  0  0  0  0  0  0  0  0  0  0  0
  138.7950   70.8900  223.2500 C   0  0  0  0  0  0  0  0  0  0  0  0
  138.4480   71.5720  222.1190 N   0  0  0  0  0  0  0  0  0  0  0  0
  139.0050   74.7150  220.6370 N   0  0  0  0  0  0  0  0  0  0  0  0
  139.2800   75.5930  219.4480 C   0  0  0  0  0  0  0  0  0  0  0  0
  139.7900   76.7860  220.2500 C   0  0  1  0  0  0  0  0  0  0  0  0
  141.1250   76.4100  220.8070 C   0  0  0  0  0  0  0  0  0  0  0  0
  142.0570   76.8470  219.6400 C   0  0  0  0  0  0  0  0  0  0  0  0
  141.5150   78.1020  219.3120 N   0  0  0  0  0  0  0  0  0  0  0  0
  142.0150   79.3030  219.8040 C   0  0  0  0  0  0  0  0  0  0  0  0
  141.4880   79.8940  221.0730 C   0  0  0  0  0  0  0  0  0  0  0  0
  141.4690   81.3470  221.0890 C   0  0  0  0  0  0  0  0  0  0  0  0
  141.4160   81.9910  222.4600 C   0  0  0  0  0  0  0  0  0  0  0  0
  141.3900   81.0130  223.5950 C   0  0  0  0  0  0  0  0  0  0  0  0
  142.6010   80.1040  223.3390 C   0  0  0  0  0  0  0  0  0  0  0  0
  142.2010   79.2120  222.2050 C   0  0  0  0  0  0  0  0  0  0  0  0
  140.0580   78.0070  219.4620 C   0  0  0  0  0  0  0  0  0  0  0  0
  138.7210   76.8960  221.2740 C   0  0  0  0  0  0  0  0  0  0  0  0
  138.1150   77.8900  222.0010 C   0  0  0  0  0  0  0  0  0  0  0  0
  137.1130   77.6090  222.8930 C   0  0  0  0  0  0  0  0  0  0  0  0
  136.6700   76.3000  223.0980 C   0  0  0  0  0  0  0  0  0  0  0  0
  137.2660   75.2900  222.3800 C   0  0  0  0  0  0  0  0  0  0  0  0
  138.2720   75.5840  221.4860 C   0  0  0  0  0  0  0  0  0  0  0  0
  141.3071   72.9033  222.7922 H   0  0  0  0  0  0  0  0  0  0  0  0
  141.5724   71.2125  225.1396 H   0  0  0  0  0  0  0  0  0  0  0  0
  141.1751   71.0014  227.9599 H   0  0  0  0  0  0  0  0  0  0  0  0
  141.3270   66.8740  228.7650 H   0  0  0  0  0  0  0  0  0  0  0  0
  140.1982   67.1037  226.3964 H   0  0  0  0  0  0  0  0  0  0  0  0
  138.1797   68.5770  225.6981 H   0  0  0  0  0  0  0  0  0  0  0  0
  137.1819   69.5391  223.6294 H   0  0  0  0  0  0  0  0  0  0  0  0
  137.5600   71.3840  221.6420 H   0  0  0  0  0  0  0  0  0  0  0  0
  140.0440   75.1735  218.7769 H   0  0  0  0  0  0  0  0  0  0  0  0
  138.4472   75.7734  218.7524 H   0  0  0  0  0  0  0  0  0  0  0  0
  141.3481   76.9614  221.7323 H   0  0  0  0  0  0  0  0  0  0  0  0
  141.2185   75.3525  221.0949 H   0  0  0  0  0  0  0  0  0  0  0  0
  143.1027   76.9335  219.9702 H   0  0  0  0  0  0  0  0  0  0  0  0
  142.0918   76.1372  218.8004 H   0  0  0  0  0  0  0  0  0  0  0  0
  143.0948   79.1549  219.9526 H   0  0  0  0  0  0  0  0  0  0  0  0
  141.6898   80.0298  219.0450 H   0  0  0  0  0  0  0  0  0  0  0  0
  140.4118   79.6949  221.1834 H   0  0  0  0  0  0  0  0  0  0  0  0
  142.3797   81.7020  220.5844 H   0  0  0  0  0  0  0  0  0  0  0  0
  140.5356   81.6391  220.5855 H   0  0  0  0  0  0  0  0  0  0  0  0
  142.3033   82.6308  222.5756 H   0  0  0  0  0  0  0  0  0  0  0  0
  140.4744   82.5576  222.5080 H   0  0  0  0  0  0  0  0  0  0  0  0
  141.4894   81.5324  224.5595 H   0  0  0  0  0  0  0  0  0  0  0  0
  140.4455   80.4514  223.6448 H   0  0  0  0  0  0  0  0  0  0  0  0
  143.4806   80.7044  223.0637 H   0  0  0  0  0  0  0  0  0  0  0  0
  142.8738   79.5268  224.2348 H   0  0  0  0  0  0  0  0  0  0  0  0
  143.1121   78.7462  221.8013 H   0  0  0  0  0  0  0  0  0  0  0  0
  141.4852   78.4895  222.6241 H   0  0  0  0  0  0  0  0  0  0  0  0
  139.6731   78.8914  219.9909 H   0  0  0  0  0  0  0  0  0  0  0  0
  139.5618   77.9614  218.4813 H   0  0  0  0  0  0  0  0  0  0  0  0
  138.4397   78.9322  221.8652 H   0  0  0  0  0  0  0  0  0  0  0  0
  136.6486   78.4302  223.4586 H   0  0  0  0  0  0  0  0  0  0  0  0
  135.8650   76.0828  223.8155 H   0  0  0  0  0  0  0  0  0  0  0  0
  136.9399   74.2487  222.5193 H   0  0  0  0  0  0  0  0  0  0  0  0
  1  2  2  0
  2  3  1  0
  3  4  2  0
  4  5  1  0
  5  6  2  0
  6  7  1  0
  7  8  1  0
  8  9  1  0
  9 10  2  0
 10 11  1  0
 11 12  1  0
  7 13  2  0
 13 14  1  0
 14 15  2  0
 15 16  1  0
  2 17  1  0
 17 18  1  0
 19 18  1  6
 19 20  1  0
 20 21  1  0
 21 22  1  0
 22 23  1  0
 23 24  1  0
 24 25  1  0
 25 26  1  0
 26 27  1  0
 27 28  1  0
 28 29  1  0
 22 30  1  0
 19 31  1  0
 31 32  2  0
 32 33  1  0
 33 34  2  0
 34 35  1  0
 35 36  2  0
 16  3  1  0
 36 17  1  0
 15  5  1  0
 30 19  1  0
 36 31  1  0
 12  8  2  0
 29 24  1  0
  4 37  1  0
  6 38  1  0
  9 39  1  0
 11 40  1  0
 12 41  1  0
 13 42  1  0
 14 43  1  0
 16 44  1  0
 18 45  1  0
 18 46  1  0
 20 47  1  0
 20 48  1  0
 21 49  1  0
 21 50  1  0
 23 51  1  0
 23 52  1  0
 24 53  1  0
 25 54  1  0
 25 55  1  0
 26 56  1  0
 26 57  1  0
 27 58  1  0
 27 59  1  0
 28 60  1  0
 28 61  1  0
 29 62  1  0
 29 63  1  0
 30 64  1  0
 30 65  1  0
 32 66  1  0
 33 67  1  0
 34 68  1  0
 35 69  1  0
M  END
>  <smiles>  (4) 
O=C(c1cc2cc(-c3cn[nH]c3)ccc2[nH]1)N1C[C@]2(CCN(CC3CCCCC3)C2)c2ccccc21

>  <score_type>  (4) 
oracle

>  <origin>  (4) 
autodockgpu

>  <m_score__min__energy>  (4) 
-9.5899999999999999

>  <m_primary>  (4) 
energy

>  <rmsd>  (4) 
3.014004300076002

>  <m_score__min__rmsd>  (4) 
3.014004300076002

>  <meeko>  (4) 
{"free_energy": -8.94, "intermolecular_energy": -10.43, "internal_energy": -1.93, "cluster_size": 8, "cluster_id": 4, "rank_in_cluster": 4}

>  <energy>  (4) 
-8.88

>  <cluster_rmsd>  (4) 
0.64

>  <cluster>  (4) 
1

$$$$

     RDKit          3D

 69 75  0  0  0  0  0  0  0  0999 V2000
  140.0190   75.5110  218.5960 O   0  0  0  0  0  0  0  0  0  0  0  0
  140.4950   75.2370  219.7800 C   0  0  0  0  0  0  0  0  0  0  0  0
  140.2890   76.2960  220.7430 C   0  0  0  0  0  0  0  0  0  0  0  0
  139.0520   76.8670  220.9740 C   0  0  0  0  0  0  0  0  0  0  0  0
  139.1440   77.8260  221.9770 C   0  0  0  0  0  0  0  0  0  0  0  0
  138.2410   78.6550  222.5860 C   0  0  0  0  0  0  0  0  0  0  0  0
  138.6630   79.4970  223.5840 C   0  0  0  0  0  0  0  0  0  0  0  0
  137.7520   80.4010  224.2970 C   0  0  0  0  0  0  0  0  0  0  0  0
  138.0370   81.3550  225.2450 C   0  0  0  0  0  0  0  0  0  0  0  0
  136.8790   81.9290  225.6190 N   0  0  0  0  0  0  0  0  0  0  0  0
  135.8710   81.3860  224.9540 N   0  0  0  0  0  0  0  0  0  0  0  0
  136.3660   80.4420  224.1310 C   0  0  0  0  0  0  0  0  0  0  0  0
  139.9980   79.5380  224.0030 C   0  0  0  0  0  0  0  0  0  0  0  0
  140.8660   78.6820  223.3540 C   0  0  0  0  0  0  0  0  0  0  0  0
  140.4580   77.8270  222.3500 C   0  0  0  0  0  0  0  0  0  0  0  0
  141.1240   76.9030  221.5970 N   0  0  0  0  0  0  0  0  0  0  0  0
  141.0940   74.0080  219.9120 N   0  0  0  0  0  0  0  0  0  0  0  0
  140.3040   72.7290  219.9150 C   0  0  0  0  0  0  0  0  0  0  0  0
  140.9170   72.1700  221.1940 C   0  0  1  0  0  0  0  0  0  0  0  0
  140.3940   72.9850  222.3330 C   0  0  0  0  0  0  0  0  0  0  0  0
  139.0880   72.2070  222.6660 C   0  0  0  0  0  0  0  0  0  0  0  0
  139.5410   70.8780  222.6160 N   0  0  0  0  0  0  0  0  0  0  0  0
  139.9360   70.1620  223.7410 C   0  0  0  0  0  0  0  0  0  0  0  0
  139.9070   70.7850  225.1000 C   0  0  0  0  0  0  0  0  0  0  0  0
  141.0810   71.5850  225.4130 C   0  0  0  0  0  0  0  0  0  0  0  0
  141.3370   71.8300  226.8860 C   0  0  0  0  0  0  0  0  0  0  0  0
  140.3260   71.2040  227.7970 C   0  0  0  0  0  0  0  0  0  0  0  0
  140.2950   69.7290  227.3690 C   0  0  0  0  0  0  0  0  0  0  0  0
  139.5450   69.7020  226.0730 C   0  0  0  0  0  0  0  0  0  0  0  0
  140.5240   70.7860  221.5290 C   0  0  0  0  0  0  0  0  0  0  0  0
  142.3600   72.3850  220.9150 C   0  0  0  0  0  0  0  0  0  0  0  0
  143.5510   71.7730  221.2170 C   0  0  0  0  0  0  0  0  0  0  0  0
  144.7430   72.2730  220.7610 C   0  0  0  0  0  0  0  0  0  0  0  0
  144.7930   73.4250  219.9730 C   0  0  0  0  0  0  0  0  0  0  0  0
  143.6100   74.0530  219.6600 C   0  0  0  0  0  0  0  0  0  0  0  0
  142.4170   73.5410  220.1230 C   0  0  0  0  0  0  0  0  0  0  0  0
  138.1272   76.6011  220.4410 H   0  0  0  0  0  0  0  0  0  0  0  0
  137.1851   78.6463  222.2778 H   0  0  0  0  0  0  0  0  0  0  0  0
  139.0365   81.6052  225.6302 H   0  0  0  0  0  0  0  0  0  0  0  0
  134.8650   81.6680  225.0750 H   0  0  0  0  0  0  0  0  0  0  0  0
  135.7797   79.8118  223.4461 H   0  0  0  0  0  0  0  0  0  0  0  0
  140.3362   80.2130  224.8030 H   0  0  0  0  0  0  0  0  0  0  0  0
  141.9257   78.6815  223.6492 H   0  0  0  0  0  0  0  0  0  0  0  0
  142.1270   76.7400  221.7280 H   0  0  0  0  0  0  0  0  0  0  0  0
  139.2205   72.8983  220.0011 H   0  0  0  0  0  0  0  0  0  0  0  0
  140.3605   72.1008  219.0138 H   0  0  0  0  0  0  0  0  0  0  0  0
  141.0919   72.9887  223.1832 H   0  0  0  0  0  0  0  0  0  0  0  0
  140.2456   74.0504  222.1028 H   0  0  0  0  0  0  0  0  0  0  0  0
  138.7083   72.4660  223.6654 H   0  0  0  0  0  0  0  0  0  0  0  0
  138.2487   72.4234  221.9887 H   0  0  0  0  0  0  0  0  0  0  0  0
  139.2882   69.2743  223.7901 H   0  0  0  0  0  0  0  0  0  0  0  0
  141.0117   70.0119  223.5667 H   0  0  0  0  0  0  0  0  0  0  0  0
  139.1326   71.5640  225.1597 H   0  0  0  0  0  0  0  0  0  0  0  0
  141.9605   71.0707  224.9983 H   0  0  0  0  0  0  0  0  0  0  0  0
  140.8940   72.5757  224.9729 H   0  0  0  0  0  0  0  0  0  0  0  0
  142.3271   71.4215  227.1367 H   0  0  0  0  0  0  0  0  0  0  0  0
  141.2728   72.9170  227.0416 H   0  0  0  0  0  0  0  0  0  0  0  0
  140.6364   71.2988  228.8480 H   0  0  0  0  0  0  0  0  0  0  0  0
  139.3391   71.6845  227.7246 H   0  0  0  0  0  0  0  0  0  0  0  0
  141.3174   69.3481  227.2291 H   0  0  0  0  0  0  0  0  0  0  0  0
  139.8168   69.0942  228.1295 H   0  0  0  0  0  0  0  0  0  0  0  0
  139.7368   68.7328  225.5895 H   0  0  0  0  0  0  0  0  0  0  0  0
  138.4879   69.8649  226.3299 H   0  0  0  0  0  0  0  0  0  0  0  0
  141.4022   70.2120  221.8596 H   0  0  0  0  0  0  0  0  0  0  0  0
  140.0993   70.2724  220.6539 H   0  0  0  0  0  0  0  0  0  0  0  0
  143.5488   70.8641  221.8367 H   0  0  0  0  0  0  0  0  0  0  0  0
  145.6789   71.7566  221.0209 H   0  0  0  0  0  0  0  0  0  0  0  0
  145.7540   73.8200  219.6119 H   0  0  0  0  0  0  0  0  0  0  0  0
  143.6160   74.9624  219.0412 H   0  0  0  0  0  0  0  0  0  0  0  0
  1  2  2  0
  2  3  1  0
  3  4  2  0
  4  5  1  0
  5  6  2  0
  6  7  1  0
  7  8  1  0
  8  9  1  0
  9 10  2  0
 10 11  1  0
 11 12  1  0
  7 13  2  0
 13 14  1  0
 14 15  2  0
 15 16  1  0
  2 17  1  0
 17 18  1  0
 19 18  1  6
 19 20  1  0
 20 21  1  0
 21 22  1  0
 22 23  1  0
 23 24  1  0
 24 25  1  0
 25 26  1  0
 26 27  1  0
 27 28  1  0
 28 29  1  0
 22 30  1  0
 19 31  1  0
 31 32  2  0
 32 33  1  0
 33 34  2  0
 34 35  1  0
 35 36  2  0
 16  3  1  0
 36 17  1  0
 15  5  1  0
 30 19  1  0
 36 31  1  0
 12  8  2  0
 29 24  1  0
  4 37  1  0
  6 38  1  0
  9 39  1  0
 11 40  1  0
 12 41  1  0
 13 42  1  0
 14 43  1  0
 16 44  1  0
 18 45  1  0
 18 46  1  0
 20 47  1  0
 20 48  1  0
 21 49  1  0
 21 50  1  0
 23 51  1  0
 23 52  1  0
 24 53  1  0
 25 54  1  0
 25 55  1  0
 26 56  1  0
 26 57  1  0
 27 58  1  0
 27 59  1  0
 28 60  1  0
 28 61  1  0
 29 62  1  0
 29 63  1  0
 30 64  1  0
 30 65  1  0
 32 66  1  0
 33 67  1  0
 34 68  1  0
 35 69  1  0
M  END
>  <smiles>  (5) 
O=C(c1cc2cc(-c3cn[nH]c3)ccc2[nH]1)N1C[C@]2(CCN(CC3CCCCC3)C2)c2ccccc21

>  <score_type>  (5) 
oracle

>  <origin>  (5) 
autodockgpu

>  <m_score__min__energy>  (5) 
-9.5899999999999999

>  <m_primary>  (5) 
energy

>  <rmsd>  (5) 
9.48858856729969

>  <m_score__min__rmsd>  (5) 
9.48858856729969

>  <meeko>  (5) 
{"free_energy": -9.06, "intermolecular_energy": -10.55, "internal_energy": -1.73, "cluster_size": 6, "cluster_id": 2, "rank_in_cluster": 4}

>  <energy>  (5) 
-9.27

>  <cluster_rmsd>  (5) 
0.0

>  <cluster>  (5) 
2

$$$$

     RDKit          3D

 69 75  0  0  0  0  0  0  0  0999 V2000
  137.4090   77.2770  222.5990 O   0  0  0  0  0  0  0  0  0  0  0  0
  138.6920   77.5050  222.6570 C   0  0  0  0  0  0  0  0  0  0  0  0
  139.4980   76.3820  222.2340 C   0  0  0  0  0  0  0  0  0  0  0  0
  140.7370   76.5320  221.6410 C   0  0  0  0  0  0  0  0  0  0  0  0
  141.2990   75.2880  221.3780 C   0  0  0  0  0  0  0  0  0  0  0  0
  142.4840   74.8770  220.8290 C   0  0  0  0  0  0  0  0  0  0  0  0
  142.7490   73.5340  220.7240 C   0  0  0  0  0  0  0  0  0  0  0  0
  144.0030   73.0150  220.1660 C   0  0  0  0  0  0  0  0  0  0  0  0
  144.9710   73.6700  219.4410 C   0  0  0  0  0  0  0  0  0  0  0  0
  145.9360   72.7840  219.1380 N   0  0  0  0  0  0  0  0  0  0  0  0
  145.6300   71.5960  219.6350 N   0  0  0  0  0  0  0  0  0  0  0  0
  144.4480   71.6960  220.2740 C   0  0  0  0  0  0  0  0  0  0  0  0
  141.8400   72.5640  221.1630 C   0  0  0  0  0  0  0  0  0  0  0  0
  140.6610   73.0340  221.7060 C   0  0  0  0  0  0  0  0  0  0  0  0
  140.3800   74.3810  221.8210 C   0  0  0  0  0  0  0  0  0  0  0  0
  139.3100   75.0600  222.3300 N   0  0  0  0  0  0  0  0  0  0  0  0
  139.0540   78.7560  223.0970 N   0  0  0  0  0  0  0  0  0  0  0  0
  138.0380   79.8130  223.4260 C   0  0  0  0  0  0  0  0  0  0  0  0
  138.6710   80.9080  222.5740 C   0  0  1  0  0  0  0  0  0  0  0  0
  138.4440   80.5450  221.1420 C   0  0  0  0  0  0  0  0  0  0  0  0
  137.0580   81.2080  220.8930 C   0  0  0  0  0  0  0  0  0  0  0  0
  137.2380   82.4580  221.5100 N   0  0  0  0  0  0  0  0  0  0  0  0
  137.6100   83.6050  220.8170 C   0  0  0  0  0  0  0  0  0  0  0  0
  138.7540   83.5860  219.8540 C   0  0  0  0  0  0  0  0  0  0  0  0
  138.5790   82.6660  218.7420 C   0  0  0  0  0  0  0  0  0  0  0  0
  139.8470   82.2460  218.0270 C   0  0  0  0  0  0  0  0  0  0  0  0
  141.0960   82.8560  218.5870 C   0  0  0  0  0  0  0  0  0  0  0  0
  141.0410   82.5220  220.0850 C   0  0  0  0  0  0  0  0  0  0  0  0
  140.0090   83.4400  220.6640 C   0  0  0  0  0  0  0  0  0  0  0  0
  138.0580   82.2460  222.7090 C   0  0  0  0  0  0  0  0  0  0  0  0
  140.0870   80.7970  223.0040 C   0  0  0  0  0  0  0  0  0  0  0  0
  141.1650   81.6330  223.1640 C   0  0  0  0  0  0  0  0  0  0  0  0
  142.3720   81.1590  223.6060 C   0  0  0  0  0  0  0  0  0  0  0  0
  142.5550   79.8080  223.9100 C   0  0  0  0  0  0  0  0  0  0  0  0
  141.4880   78.9550  223.7540 C   0  0  0  0  0  0  0  0  0  0  0  0
  140.2780   79.4420  223.3100 C   0  0  0  0  0  0  0  0  0  0  0  0
  141.2108   77.4975  221.4101 H   0  0  0  0  0  0  0  0  0  0  0  0
  143.2174   75.6165  220.4751 H   0  0  0  0  0  0  0  0  0  0  0  0
  144.9580   74.7330  219.1584 H   0  0  0  0  0  0  0  0  0  0  0  0
  146.2300   70.7400  219.5270 H   0  0  0  0  0  0  0  0  0  0  0  0
  143.9238   70.8791  220.7917 H   0  0  0  0  0  0  0  0  0  0  0  0
  142.0532   71.4881  221.0799 H   0  0  0  0  0  0  0  0  0  0  0  0
  139.9160   72.3067  222.0611 H   0  0  0  0  0  0  0  0  0  0  0  0
  138.5070   74.5590  222.7250 H   0  0  0  0  0  0  0  0  0  0  0  0
  137.0240   79.5471  223.0925 H   0  0  0  0  0  0  0  0  0  0  0  0
  137.8711   80.0367  224.4900 H   0  0  0  0  0  0  0  0  0  0  0  0
  139.2199   80.9698  220.4882 H   0  0  0  0  0  0  0  0  0  0  0  0
  138.4780   79.4655  220.9335 H   0  0  0  0  0  0  0  0  0  0  0  0
  136.8498   81.3153  219.8182 H   0  0  0  0  0  0  0  0  0  0  0  0
  136.2056   80.6315  221.2817 H   0  0  0  0  0  0  0  0  0  0  0  0
  136.7261   83.9261  220.2463 H   0  0  0  0  0  0  0  0  0  0  0  0
  137.9789   84.2626  221.6179 H   0  0  0  0  0  0  0  0  0  0  0  0
  138.8189   84.5343  219.3004 H   0  0  0  0  0  0  0  0  0  0  0  0
  138.0932   81.7580  219.1286 H   0  0  0  0  0  0  0  0  0  0  0  0
  137.9818   83.2102  217.9956 H   0  0  0  0  0  0  0  0  0  0  0  0
  139.9361   81.1518  218.0958 H   0  0  0  0  0  0  0  0  0  0  0  0
  139.7584   82.6007  216.9895 H   0  0  0  0  0  0  0  0  0  0  0  0
  141.9888   82.4133  218.1213 H   0  0  0  0  0  0  0  0  0  0  0  0
  141.1567   83.9381  218.3991 H   0  0  0  0  0  0  0  0  0  0  0  0
  140.7482   81.4722  220.2340 H   0  0  0  0  0  0  0  0  0  0  0  0
  142.0205   82.6540  220.5680 H   0  0  0  0  0  0  0  0  0  0  0  0
  139.7303   83.0554  221.6562 H   0  0  0  0  0  0  0  0  0  0  0  0
  140.4709   84.4379  220.6920 H   0  0  0  0  0  0  0  0  0  0  0  0
  138.8404   83.0165  222.7742 H   0  0  0  0  0  0  0  0  0  0  0  0
  137.4478   82.3110  223.6219 H   0  0  0  0  0  0  0  0  0  0  0  0
  141.0572   82.7030  222.9329 H   0  0  0  0  0  0  0  0  0  0  0  0
  143.2143   81.8566  223.7239 H   0  0  0  0  0  0  0  0  0  0  0  0
  143.5275   79.4362  224.2650 H   0  0  0  0  0  0  0  0  0  0  0  0
  141.6002   77.8851  223.9834 H   0  0  0  0  0  0  0  0  0  0  0  0
  1  2  2  0
  2  3  1  0
  3  4  2  0
  4  5  1  0
  5  6  2  0
  6  7  1  0
  7  8  1  0
  8  9  1  0
  9 10  2  0
 10 11  1  0
 11 12  1  0
  7 13  2  0
 13 14  1  0
 14 15  2  0
 15 16  1  0
  2 17  1  0
 17 18  1  0
 19 18  1  1
 19 20  1  0
 20 21  1  0
 21 22  1  0
 22 23  1  0
 23 24  1  0
 24 25  1  0
 25 26  1  0
 26 27  1  0
 27 28  1  0
 28 29  1  0
 22 30  1  0
 19 31  1  0
 31 32  2  0
 32 33  1  0
 33 34  2  0
 34 35  1  0
 35 36  2  0
 16  3  1  0
 36 17  1  0
 15  5  1  0
 30 19  1  0
 36 31  1  0
 12  8  2  0
 29 24  1  0
  4 37  1  0
  6 38  1  0
  9 39  1  0
 11 40  1  0
 12 41  1  0
 13 42  1  0
 14 43  1  0
 16 44  1  0
 18 45  1  0
 18 46  1  0
 20 47  1  0
 20 48  1  0
 21 49  1  0
 21 50  1  0
 23 51  1  0
 23 52  1  0
 24 53  1  0
 25 54  1  0
 25 55  1  0
 26 56  1  0
 26 57  1  0
 27 58  1  0
 27 59  1  0
 28 60  1  0
 28 61  1  0
 29 62  1  0
 29 63  1  0
 30 64  1  0
 30 65  1  0
 32 66  1  0
 33 67  1  0
 34 68  1  0
 35 69  1  0
M  END
>  <smiles>  (6) 
O=C(c1cc2cc(-c3cn[nH]c3)ccc2[nH]1)N1C[C@]2(CCN(CC3CCCCC3)C2)c2ccccc21

>  <score_type>  (6) 
oracle

>  <origin>  (6) 
autodockgpu

>  <m_score__min__energy>  (6) 
-9.5899999999999999

>  <m_primary>  (6) 
energy

>  <rmsd>  (6) 
5.380980831422503

>  <m_score__min__rmsd>  (6) 
5.380980831422503

>  <meeko>  (6) 
{"free_energy": -8.71, "intermolecular_energy": -10.2, "internal_energy": -2.04, "cluster_size": 20, "cluster_id": 6, "rank_in_cluster": 8}

>  <energy>  (6) 
-9.21

>  <cluster_rmsd>  (6) 
0.52

>  <cluster>  (6) 
2

$$$$

     RDKit          3D

 69 75  0  0  0  0  0  0  0  0999 V2000
  140.1600   73.0430  219.7080 O   0  0  0  0  0  0  0  0  0  0  0  0
  139.4970   73.4550  220.7530 C   0  0  0  0  0  0  0  0  0  0  0  0
  139.4160   72.4710  221.8100 C   0  0  0  0  0  0  0  0  0  0  0  0
  140.3700   72.3610  222.8030 C   0  0  0  0  0  0  0  0  0  0  0  0
  140.0160   71.3620  223.7040 C   0  0  0  0  0  0  0  0  0  0  0  0
  140.5840   70.8660  224.8460 C   0  0  0  0  0  0  0  0  0  0  0  0
  139.9520   69.8590  225.5320 C   0  0  0  0  0  0  0  0  0  0  0  0
  140.4880   69.2890  226.7740 C   0  0  0  0  0  0  0  0  0  0  0  0
  141.0350   69.9290  227.8610 C   0  0  0  0  0  0  0  0  0  0  0  0
  141.3950   68.9930  228.7570 N   0  0  0  0  0  0  0  0  0  0  0  0
  141.1030   67.7880  228.2930 N   0  0  0  0  0  0  0  0  0  0  0  0
  140.5430   67.9270  227.0750 C   0  0  0  0  0  0  0  0  0  0  0  0
  138.7370   69.3180  225.0970 C   0  0  0  0  0  0  0  0  0  0  0  0
  138.2100   69.8540  223.9390 C   0  0  0  0  0  0  0  0  0  0  0  0
  138.8310   70.8680  223.2390 C   0  0  0  0  0  0  0  0  0  0  0  0
  138.4920   71.5480  222.1040 N   0  0  0  0  0  0  0  0  0  0  0  0
  139.0000   74.7340  220.6770 N   0  0  0  0  0  0  0  0  0  0  0  0
  139.2700   75.6280  219.4990 C   0  0  0  0  0  0  0  0  0  0  0  0
  139.7540   76.8210  220.3160 C   0  0  1  0  0  0  0  0  0  0  0  0
  141.0910   76.4620  220.8810 C   0  0  0  0  0  0  0  0  0  0  0  0
  142.0250   76.9260  219.7260 C   0  0  0  0  0  0  0  0  0  0  0  0
  141.4650   78.1740  219.4060 N   0  0  0  0  0  0  0  0  0  0  0  0
  141.9410   79.3780  219.9130 C   0  0  0  0  0  0  0  0  0  0  0  0
  141.4570   79.9050  221.2270 C   0  0  0  0  0  0  0  0  0  0  0  0
  141.4470   81.3560  221.3180 C   0  0  0  0  0  0  0  0  0  0  0  0
  141.4400   81.9280  222.7210 C   0  0  0  0  0  0  0  0  0  0  0  0
  141.4430   80.8930  223.8040 C   0  0  0  0  0  0  0  0  0  0  0  0
  142.6400   79.9940  223.4650 C   0  0  0  0  0  0  0  0  0  0  0  0
  142.2010   79.1630  222.2990 C   0  0  0  0  0  0  0  0  0  0  0  0
  140.0080   78.0540  219.5430 C   0  0  0  0  0  0  0  0  0  0  0  0
  138.6750   76.9030  221.3330 C   0  0  0  0  0  0  0  0  0  0  0  0
  138.0470   77.8800  222.0650 C   0  0  0  0  0  0  0  0  0  0  0  0
  137.0430   77.5740  222.9460 C   0  0  0  0  0  0  0  0  0  0  0  0
  136.6200   76.2560  223.1350 C   0  0  0  0  0  0  0  0  0  0  0  0
  137.2380   75.2630  222.4120 C   0  0  0  0  0  0  0  0  0  0  0  0
  138.2460   75.5820  221.5290 C   0  0  0  0  0  0  0  0  0  0  0  0
  141.2797   72.9756  222.8715 H   0  0  0  0  0  0  0  0  0  0  0  0
  141.5393   71.2710  225.2112 H   0  0  0  0  0  0  0  0  0  0  0  0
  141.1568   71.0160  227.9773 H   0  0  0  0  0  0  0  0  0  0  0  0
  141.2910   66.8940  228.8140 H   0  0  0  0  0  0  0  0  0  0  0  0
  140.1903   67.1089  226.4298 H   0  0  0  0  0  0  0  0  0  0  0  0
  138.2303   68.5111  225.6467 H   0  0  0  0  0  0  0  0  0  0  0  0
  137.2571   69.4569  223.5593 H   0  0  0  0  0  0  0  0  0  0  0  0
  137.6250   71.3340  221.6000 H   0  0  0  0  0  0  0  0  0  0  0  0
  140.0460   75.2276  218.8300 H   0  0  0  0  0  0  0  0  0  0  0  0
  138.4397   75.8016  218.7986 H   0  0  0  0  0  0  0  0  0  0  0  0
  141.2971   77.0081  221.8134 H   0  0  0  0  0  0  0  0  0  0  0  0
  141.2001   75.4035  221.1597 H   0  0  0  0  0  0  0  0  0  0  0  0
  143.0664   77.0267  220.0656 H   0  0  0  0  0  0  0  0  0  0  0  0
  142.0785   76.2252  218.8798 H   0  0  0  0  0  0  0  0  0  0  0  0
  143.0321   79.2706  220.0017 H   0  0  0  0  0  0  0  0  0  0  0  0
  141.5480   80.1147  219.1969 H   0  0  0  0  0  0  0  0  0  0  0  0
  140.3837   79.7048  221.3611 H   0  0  0  0  0  0  0  0  0  0  0  0
  142.3438   81.7327  220.8043 H   0  0  0  0  0  0  0  0  0  0  0  0
  140.5006   81.6779  220.8591 H   0  0  0  0  0  0  0  0  0  0  0  0
  142.3343   82.5570  222.8420 H   0  0  0  0  0  0  0  0  0  0  0  0
  140.5036   82.4954  222.8273 H   0  0  0  0  0  0  0  0  0  0  0  0
  141.5744   81.3615  224.7905 H   0  0  0  0  0  0  0  0  0  0  0  0
  140.4973   80.3333  223.8535 H   0  0  0  0  0  0  0  0  0  0  0  0
  143.5142   80.6043  223.1943 H   0  0  0  0  0  0  0  0  0  0  0  0
  142.9364   79.3702  224.3212 H   0  0  0  0  0  0  0  0  0  0  0  0
  143.0970   78.7159  221.8437 H   0  0  0  0  0  0  0  0  0  0  0  0
  141.4952   78.4218  222.7020 H   0  0  0  0  0  0  0  0  0  0  0  0
  139.6044   78.9265  220.0777 H   0  0  0  0  0  0  0  0  0  0  0  0
  139.5204   78.0107  218.5579 H   0  0  0  0  0  0  0  0  0  0  0  0
  138.3557   78.9286  221.9420 H   0  0  0  0  0  0  0  0  0  0  0  0
  136.5606   78.3820  223.5156 H   0  0  0  0  0  0  0  0  0  0  0  0
  135.8132   76.0187  223.8440 H   0  0  0  0  0  0  0  0  0  0  0  0
  136.9279   74.2152  222.5386 H   0  0  0  0  0  0  0  0  0  0  0  0
  1  2  2  0
  2  3  1  0
  3  4  2  0
  4  5  1  0
  5  6  2  0
  6  7  1  0
  7  8  1  0
  8  9  1  0
  9 10  2  0
 10 11  1  0
 11 12  1  0
  7 13  2  0
 13 14  1  0
 14 15  2  0
 15 16  1  0
  2 17  1  0
 17 18  1  0
 19 18  1  6
 19 20  1  0
 20 21  1  0
 21 22  1  0
 22 23  1  0
 23 24  1  0
 24 25  1  0
 25 26  1  0
 26 27  1  0
 27 28  1  0
 28 29  1  0
 22 30  1  0
 19 31  1  0
 31 32  2  0
 32 33  1  0
 33 34  2  0
 34 35  1  0
 35 36  2  0
 16  3  1  0
 36 17  1  0
 15  5  1  0
 30 19  1  0
 36 31  1  0
 12  8  2  0
 29 24  1  0
  4 37  1  0
  6 38  1  0
  9 39  1  0
 11 40  1  0
 12 41  1  0
 13 42  1  0
 14 43  1  0
 16 44  1  0
 18 45  1  0
 18 46  1  0
 20 47  1  0
 20 48  1  0
 21 49  1  0
 21 50  1  0
 23 51  1  0
 23 52  1  0
 24 53  1  0
 25 54  1  0
 25 55  1  0
 26 56  1  0
 26 57  1  0
 27 58  1  0
 27 59  1  0
 28 60  1  0
 28 61  1  0
 29 62  1  0
 29 63  1  0
 30 64  1  0
 30 65  1  0
 32 66  1  0
 33 67  1  0
 34 68  1  0
 35 69  1  0
M  END
>  <smiles>  (7) 
O=C(c1cc2cc(-c3cn[nH]c3)ccc2[nH]1)N1C[C@]2(CCN(CC3CCCCC3)C2)c2ccccc21

>  <score_type>  (7) 
oracle

>  <origin>  (7) 
autodockgpu

>  <m_score__min__energy>  (7) 
-9.5899999999999999

>  <m_primary>  (7) 
energy

>  <rmsd>  (7) 
3.053970255462842

>  <m_score__min__rmsd>  (7) 
3.053970255462842

>  <meeko>  (7) 
{"free_energy": -8.97, "intermolecular_energy": -10.46, "internal_energy": -1.91, "cluster_size": 8, "cluster_id": 4, "rank_in_cluster": 2}

>  <energy>  (7) 
-9.13

>  <cluster_rmsd>  (7) 
0.31

>  <cluster>  (7) 
2

$$$$

     RDKit          3D

 69 75  0  0  0  0  0  0  0  0999 V2000
  136.0890   73.5800  221.6120 O   0  0  0  0  0  0  0  0  0  0  0  0
  137.3900   73.6740  221.5920 C   0  0  0  0  0  0  0  0  0  0  0  0
  137.8790   74.9950  221.9180 C   0  0  0  0  0  0  0  0  0  0  0  0
  139.2160   75.2630  222.1460 C   0  0  0  0  0  0  0  0  0  0  0  0
  139.3990   76.6180  222.3970 C   0  0  0  0  0  0  0  0  0  0  0  0
  140.4940   77.3960  222.6620 C   0  0  0  0  0  0  0  0  0  0  0  0
  140.3330   78.7470  222.8500 C   0  0  0  0  0  0  0  0  0  0  0  0
  141.4590   79.6490  223.1190 C   0  0  0  0  0  0  0  0  0  0  0  0
  142.8010   79.4610  222.8850 C   0  0  0  0  0  0  0  0  0  0  0  0
  143.4540   80.5600  223.3020 N   0  0  0  0  0  0  0  0  0  0  0  0
  142.5930   81.4400  223.7890 N   0  0  0  0  0  0  0  0  0  0  0  0
  141.3540   80.9170  223.6940 C   0  0  0  0  0  0  0  0  0  0  0  0
  139.0760   79.3580  222.7810 C   0  0  0  0  0  0  0  0  0  0  0  0
  138.0070   78.5260  222.5130 C   0  0  0  0  0  0  0  0  0  0  0  0
  138.1510   77.1670  222.3180 C   0  0  0  0  0  0  0  0  0  0  0  0
  137.2580   76.1760  222.0310 N   0  0  0  0  0  0  0  0  0  0  0  0
  138.0650   72.5200  221.2750 N   0  0  0  0  0  0  0  0  0  0  0  0
  137.5250   71.1580  221.6160 C   0  0  0  0  0  0  0  0  0  0  0  0
  138.7930   70.6530  222.2970 C   0  0  1  0  0  0  0  0  0  0  0  0
  138.9230   71.3850  223.5940 C   0  0  0  0  0  0  0  0  0  0  0  0
  138.0980   70.4570  224.5310 C   0  0  0  0  0  0  0  0  0  0  0  0
  138.5600   69.1890  224.1370 N   0  0  0  0  0  0  0  0  0  0  0  0
  139.5740   68.5060  224.7990 C   0  0  0  0  0  0  0  0  0  0  0  0
  140.2280   69.0850  226.0120 C   0  0  0  0  0  0  0  0  0  0  0  0
  139.3270   69.2820  227.1360 C   0  0  0  0  0  0  0  0  0  0  0  0
  139.7870   70.2760  228.1830 C   0  0  0  0  0  0  0  0  0  0  0  0
  141.1160   70.9040  227.8900 C   0  0  0  0  0  0  0  0  0  0  0  0
  140.9630   71.4660  226.4690 C   0  0  0  0  0  0  0  0  0  0  0  0
  141.0180   70.2770  225.5590 C   0  0  0  0  0  0  0  0  0  0  0  0
  138.7740   69.2280  222.6860 C   0  0  0  0  0  0  0  0  0  0  0  0
  139.8100   71.0370  221.2860 C   0  0  0  0  0  0  0  0  0  0  0  0
  141.0160   70.5610  220.8330 C   0  0  0  0  0  0  0  0  0  0  0  0
  141.7040   71.2020  219.8360 C   0  0  0  0  0  0  0  0  0  0  0  0
  141.2060   72.3640  219.2420 C   0  0  0  0  0  0  0  0  0  0  0  0
  140.0000   72.8570  219.6830 C   0  0  0  0  0  0  0  0  0  0  0  0
  139.3170   72.2040  220.6850 C   0  0  0  0  0  0  0  0  0  0  0  0
  140.0195   74.5119  222.1309 H   0  0  0  0  0  0  0  0  0  0  0  0
  141.4944   76.9428  222.7238 H   0  0  0  0  0  0  0  0  0  0  0  0
  143.2599   78.5681  222.4355 H   0  0  0  0  0  0  0  0  0  0  0  0
  142.8650   82.3780  224.1780 H   0  0  0  0  0  0  0  0  0  0  0  0
  140.4216   81.4049  224.0142 H   0  0  0  0  0  0  0  0  0  0  0  0
  138.9468   80.4399  222.9317 H   0  0  0  0  0  0  0  0  0  0  0  0
  136.9998   78.9639  222.4524 H   0  0  0  0  0  0  0  0  0  0  0  0
  136.2600   76.3810  221.9200 H   0  0  0  0  0  0  0  0  0  0  0  0
  136.6635   71.2006  222.2987 H   0  0  0  0  0  0  0  0  0  0  0  0
  137.1241   70.5543  220.7884 H   0  0  0  0  0  0  0  0  0  0  0  0
  139.9724   71.4568  223.9158 H   0  0  0  0  0  0  0  0  0  0  0  0
  138.5786   72.4293  223.5661 H   0  0  0  0  0  0  0  0  0  0  0  0
  138.3187   70.6550  225.5903 H   0  0  0  0  0  0  0  0  0  0  0  0
  137.0087   70.5859  224.4484 H   0  0  0  0  0  0  0  0  0  0  0  0
  139.1512   67.5374  225.1040 H   0  0  0  0  0  0  0  0  0  0  0  0
  140.3892   68.5083  224.0605 H   0  0  0  0  0  0  0  0  0  0  0  0
  140.9296   68.3673  226.4621 H   0  0  0  0  0  0  0  0  0  0  0  0
  138.3630   69.6322  226.7385 H   0  0  0  0  0  0  0  0  0  0  0  0
  139.2727   68.3107  227.6494 H   0  0  0  0  0  0  0  0  0  0  0  0
  139.0352   71.0759  228.2535 H   0  0  0  0  0  0  0  0  0  0  0  0
  139.9017   69.7159  229.1227 H   0  0  0  0  0  0  0  0  0  0  0  0
  141.3331   71.7097  228.6067 H   0  0  0  0  0  0  0  0  0  0  0  0
  141.9472   70.1882  227.9724 H   0  0  0  0  0  0  0  0  0  0  0  0
  139.9997   71.9865  226.3633 H   0  0  0  0  0  0  0  0  0  0  0  0
  141.7504   72.1969  226.2327 H   0  0  0  0  0  0  0  0  0  0  0  0
  140.6348   70.5845  224.5748 H   0  0  0  0  0  0  0  0  0  0  0  0
  142.0699   69.9558  225.5421 H   0  0  0  0  0  0  0  0  0  0  0  0
  139.7329   68.7529  222.4315 H   0  0  0  0  0  0  0  0  0  0  0  0
  137.9795   68.6837  222.1545 H   0  0  0  0  0  0  0  0  0  0  0  0
  141.4377   69.6481  221.2788 H   0  0  0  0  0  0  0  0  0  0  0  0
  142.6673   70.7934  219.4969 H   0  0  0  0  0  0  0  0  0  0  0  0
  141.7642   72.8720  218.4418 H   0  0  0  0  0  0  0  0  0  0  0  0
  139.5818   73.7711  219.2362 H   0  0  0  0  0  0  0  0  0  0  0  0
  1  2  2  0
  2  3  1  0
  3  4  2  0
  4  5  1  0
  5  6  2  0
  6  7  1  0
  7  8  1  0
  8  9  1  0
  9 10  2  0
 10 11  1  0
 11 12  1  0
  7 13  2  0
 13 14  1  0
 14 15  2  0
 15 16  1  0
  2 17  1  0
 17 18  1  0
 19 18  1  6
 19 20  1  0
 20 21  1  0
 21 22  1  0
 22 23  1  0
 23 24  1  0
 24 25  1  0
 25 26  1  0
 26 27  1  0
 27 28  1  0
 28 29  1  0
 22 30  1  0
 19 31  1  0
 31 32  2  0
 32 33  1  0
 33 34  2  0
 34 35  1  0
 35 36  2  0
 16  3  1  0
 36 17  1  0
 15  5  1  0
 30 19  1  0
 36 31  1  0
 12  8  2  0
 29 24  1  0
  4 37  1  0
  6 38  1  0
  9 39  1  0
 11 40  1  0
 12 41  1  0
 13 42  1  0
 14 43  1  0
 16 44  1  0
 18 45  1  0
 18 46  1  0
 20 47  1  0
 20 48  1  0
 21 49  1  0
 21 50  1  0
 23 51  1  0
 23 52  1  0
 24 53  1  0
 25 54  1  0
 25 55  1  0
 26 56  1  0
 26 57  1  0
 27 58  1  0
 27 59  1  0
 28 60  1  0
 28 61  1  0
 29 62  1  0
 29 63  1  0
 30 64  1  0
 30 65  1  0
 32 66  1  0
 33 67  1  0
 34 68  1  0
 35 69  1  0
M  END
>  <smiles>  (8) 
O=C(c1cc2cc(-c3cn[nH]c3)ccc2[nH]1)N1C[C@]2(CCN(CC3CCCCC3)C2)c2ccccc21

>  <score_type>  (8) 
oracle

>  <origin>  (8) 
autodockgpu

>  <m_score__min__energy>  (8) 
-9.5899999999999999

>  <m_primary>  (8) 
energy

>  <rmsd>  (8) 
9.907860038577189

>  <m_score__min__rmsd>  (8) 
9.907860038577189

>  <meeko>  (8) 
{"free_energy": -8.57, "intermolecular_energy": -10.06, "internal_energy": -1.81, "cluster_size": 2, "cluster_id": 8, "rank_in_cluster": 2}

>  <energy>  (8) 
-9.06

>  <cluster_rmsd>  (8) 
0.65

>  <cluster>  (8) 
2

$$$$

     RDKit          3D

 69 75  0  0  0  0  0  0  0  0999 V2000
  134.6200   71.0230  222.9740 O   0  0  0  0  0  0  0  0  0  0  0  0
  135.5760   71.8870  223.1750 C   0  0  0  0  0  0  0  0  0  0  0  0
  135.1180   73.1310  223.7520 C   0  0  0  0  0  0  0  0  0  0  0  0
  134.3370   73.1840  224.8910 C   0  0  0  0  0  0  0  0  0  0  0  0
  134.0820   74.5060  225.2400 C   0  0  0  0  0  0  0  0  0  0  0  0
  133.3930   75.1040  226.2600 C   0  0  0  0  0  0  0  0  0  0  0  0
  133.3450   76.4750  226.3290 C   0  0  0  0  0  0  0  0  0  0  0  0
  132.6440   77.1890  227.4030 C   0  0  0  0  0  0  0  0  0  0  0  0
  132.9640   78.3810  228.0100 C   0  0  0  0  0  0  0  0  0  0  0  0
  132.0310   78.6350  228.9450 N   0  0  0  0  0  0  0  0  0  0  0  0
  131.1330   77.6630  228.9630 N   0  0  0  0  0  0  0  0  0  0  0  0
  131.4740   76.7540  228.0280 C   0  0  0  0  0  0  0  0  0  0  0  0
  133.9820   77.2860  225.3840 C   0  0  0  0  0  0  0  0  0  0  0  0
  134.6610   76.6300  224.3760 C   0  0  0  0  0  0  0  0  0  0  0  0
  134.7210   75.2540  224.2920 C   0  0  0  0  0  0  0  0  0  0  0  0
  135.3340   74.4080  223.4120 N   0  0  0  0  0  0  0  0  0  0  0  0
  136.8370   71.4750  222.8160 N   0  0  0  0  0  0  0  0  0  0  0  0
  137.1930   70.0210  222.6770 C   0  0  0  0  0  0  0  0  0  0  0  0
  138.4340   70.0790  223.5610 C   0  0  1  0  0  0  0  0  0  0  0  0
  137.9690   70.2600  224.9710 C   0  0  0  0  0  0  0  0  0  0  0  0
  137.7800   68.7770  225.4030 C   0  0  0  0  0  0  0  0  0  0  0  0
  138.9470   68.1900  224.8860 N   0  0  0  0  0  0  0  0  0  0  0  0
  140.0960   67.9810  225.6400 C   0  0  0  0  0  0  0  0  0  0  0  0
  140.6070   69.0340  226.5710 C   0  0  0  0  0  0  0  0  0  0  0  0
  139.6860   69.3780  227.6430 C   0  0  0  0  0  0  0  0  0  0  0  0
  139.9160   70.7230  228.3030 C   0  0  0  0  0  0  0  0  0  0  0  0
  141.0720   71.4920  227.7400 C   0  0  0  0  0  0  0  0  0  0  0  0
  140.7960   71.5370  226.2300 C   0  0  0  0  0  0  0  0  0  0  0  0
  141.1130   70.1640  225.7220 C   0  0  0  0  0  0  0  0  0  0  0  0
  139.2380   68.8400  223.6020 C   0  0  0  0  0  0  0  0  0  0  0  0
  139.1110   71.2730  222.9950 C   0  0  0  0  0  0  0  0  0  0  0  0
  140.3980   71.7140  222.8110 C   0  0  0  0  0  0  0  0  0  0  0  0
  140.6570   72.9230  222.2190 C   0  0  0  0  0  0  0  0  0  0  0  0
  139.6230   73.7540  221.7820 C   0  0  0  0  0  0  0  0  0  0  0  0
  138.3270   73.3290  221.9580 C   0  0  0  0  0  0  0  0  0  0  0  0
  138.0770   72.1120  222.5530 C   0  0  0  0  0  0  0  0  0  0  0  0
  133.9696   72.3061  225.4427 H   0  0  0  0  0  0  0  0  0  0  0  0
  132.8821   74.4921  227.0180 H   0  0  0  0  0  0  0  0  0  0  0  0
  133.8308   79.0153  227.7725 H   0  0  0  0  0  0  0  0  0  0  0  0
  130.3060   77.6360  229.6110 H   0  0  0  0  0  0  0  0  0  0  0  0
  130.9251   75.8291  227.7973 H   0  0  0  0  0  0  0  0  0  0  0  0
  133.9443   78.3839  225.4405 H   0  0  0  0  0  0  0  0  0  0  0  0
  135.1747   77.2285  223.6093 H   0  0  0  0  0  0  0  0  0  0  0  0
  135.8790   74.7720  222.6240 H   0  0  0  0  0  0  0  0  0  0  0  0
  136.4164   69.3527  223.0772 H   0  0  0  0  0  0  0  0  0  0  0  0
  137.3199   69.6295  221.6569 H   0  0  0  0  0  0  0  0  0  0  0  0
  138.7264   70.7682  225.5858 H   0  0  0  0  0  0  0  0  0  0  0  0
  137.0710   70.8859  225.0796 H   0  0  0  0  0  0  0  0  0  0  0  0
  137.7308   68.6794  226.4976 H   0  0  0  0  0  0  0  0  0  0  0  0
  136.8471   68.3180  225.0437 H   0  0  0  0  0  0  0  0  0  0  0  0
  139.9105   67.0857  226.2516 H   0  0  0  0  0  0  0  0  0  0  0  0
  140.8835   67.9321  224.8735 H   0  0  0  0  0  0  0  0  0  0  0  0
  141.4507   68.6568  227.1676 H   0  0  0  0  0  0  0  0  0  0  0  0
  138.6677   69.3757  227.2270 H   0  0  0  0  0  0  0  0  0  0  0  0
  139.8490   68.6269  228.4299 H   0  0  0  0  0  0  0  0  0  0  0  0
  139.0058   71.3283  228.1796 H   0  0  0  0  0  0  0  0  0  0  0  0
  140.1532   70.5217  229.3581 H   0  0  0  0  0  0  0  0  0  0  0  0
  141.1065   72.5078  228.1606 H   0  0  0  0  0  0  0  0  0  0  0  0
  142.0412   71.0290  227.9772 H   0  0  0  0  0  0  0  0  0  0  0  0
  139.7409   71.7828  226.0396 H   0  0  0  0  0  0  0  0  0  0  0  0
  141.4009   72.3066  225.7282 H   0  0  0  0  0  0  0  0  0  0  0  0
  140.6701   70.0614  224.7203 H   0  0  0  0  0  0  0  0  0  0  0  0
  142.2100   70.0825  225.7288 H   0  0  0  0  0  0  0  0  0  0  0  0
  140.3091   69.0808  223.5332 H   0  0  0  0  0  0  0  0  0  0  0  0
  138.9892   68.1790  222.7587 H   0  0  0  0  0  0  0  0  0  0  0  0
  141.2369   71.0856  223.1448 H   0  0  0  0  0  0  0  0  0  0  0  0
  141.7003   73.2451  222.0854 H   0  0  0  0  0  0  0  0  0  0  0  0
  139.8397   74.7233  221.3093 H   0  0  0  0  0  0  0  0  0  0  0  0
  137.4905   73.9604  221.6239 H   0  0  0  0  0  0  0  0  0  0  0  0
  1  2  2  0
  2  3  1  0
  3  4  2  0
  4  5  1  0
  5  6  2  0
  6  7  1  0
  7  8  1  0
  8  9  1  0
  9 10  2  0
 10 11  1  0
 11 12  1  0
  7 13  2  0
 13 14  1  0
 14 15  2  0
 15 16  1  0
  2 17  1  0
 17 18  1  0
 19 18  1  6
 19 20  1  0
 20 21  1  0
 21 22  1  0
 22 23  1  0
 23 24  1  0
 24 25  1  0
 25 26  1  0
 26 27  1  0
 27 28  1  0
 28 29  1  0
 22 30  1  0
 19 31  1  0
 31 32  2  0
 32 33  1  0
 33 34  2  0
 34 35  1  0
 35 36  2  0
 16  3  1  0
 36 17  1  0
 15  5  1  0
 30 19  1  0
 36 31  1  0
 12  8  2  0
 29 24  1  0
  4 37  1  0
  6 38  1  0
  9 39  1  0
 11 40  1  0
 12 41  1  0
 13 42  1  0
 14 43  1  0
 16 44  1  0
 18 45  1  0
 18 46  1  0
 20 47  1  0
 20 48  1  0
 21 49  1  0
 21 50  1  0
 23 51  1  0
 23 52  1  0
 24 53  1  0
 25 54  1  0
 25 55  1  0
 26 56  1  0
 26 57  1  0
 27 58  1  0
 27 59  1  0
 28 60  1  0
 28 61  1  0
 29 62  1  0
 29 63  1  0
 30 64  1  0
 30 65  1  0
 32 66  1  0
 33 67  1  0
 34 68  1  0
 35 69  1  0
M  END
>  <smiles>  (9) 
O=C(c1cc2cc(-c3cn[nH]c3)ccc2[nH]1)N1C[C@]2(CCN(CC3CCCCC3)C2)c2ccccc21

>  <score_type>  (9) 
oracle

>  <origin>  (9) 
autodockgpu

>  <m_score__min__energy>  (9) 
-9.5899999999999999

>  <m_primary>  (9) 
energy

>  <rmsd>  (9) 
10.227538219813333

>  <m_score__min__rmsd>  (9) 
10.227538219813333

>  <meeko>  (9) 
{"free_energy": -8.85, "intermolecular_energy": -10.34, "internal_energy": -1.98, "cluster_size": 5, "cluster_id": 5, "rank_in_cluster": 1}

>  <energy>  (9) 
-9.03

>  <cluster_rmsd>  (9) 
0.62

>  <cluster>  (9) 
2

$$$$

     RDKit          3D

 69 75  0  0  0  0  0  0  0  0999 V2000
  139.9590   72.8760  219.5550 O   0  0  0  0  0  0  0  0  0  0  0  0
  139.3860   73.2820  220.6540 C   0  0  0  0  0  0  0  0  0  0  0  0
  139.3770   72.2840  221.7010 C   0  0  0  0  0  0  0  0  0  0  0  0
  140.2700   72.2970  222.7550 C   0  0  0  0  0  0  0  0  0  0  0  0
  140.0020   71.2480  223.6280 C   0  0  0  0  0  0  0  0  0  0  0  0
  140.5590   70.8240  224.8030 C   0  0  0  0  0  0  0  0  0  0  0  0
  140.0320   69.7300  225.4440 C   0  0  0  0  0  0  0  0  0  0  0  0
  140.5610   69.2260  226.7170 C   0  0  0  0  0  0  0  0  0  0  0  0
  141.0630   69.9250  227.7890 C   0  0  0  0  0  0  0  0  0  0  0  0
  141.4360   69.0370  228.7280 N   0  0  0  0  0  0  0  0  0  0  0  0
  141.1940   67.8060  228.3050 N   0  0  0  0  0  0  0  0  0  0  0  0
  140.6560   67.8790  227.0720 C   0  0  0  0  0  0  0  0  0  0  0  0
  138.9350   69.0290  224.9290 C   0  0  0  0  0  0  0  0  0  0  0  0
  138.4150   69.4990  223.7400 C   0  0  0  0  0  0  0  0  0  0  0  0
  138.9310   70.5980  223.0840 C   0  0  0  0  0  0  0  0  0  0  0  0
  138.5740   71.2370  221.9310 N   0  0  0  0  0  0  0  0  0  0  0  0
  138.9030   74.5680  220.6350 N   0  0  0  0  0  0  0  0  0  0  0  0
  139.1550   75.4990  219.4820 C   0  0  0  0  0  0  0  0  0  0  0  0
  139.6730   76.6580  220.3270 C   0  0  1  0  0  0  0  0  0  0  0  0
  141.0190   76.2650  220.8450 C   0  0  0  0  0  0  0  0  0  0  0  0
  141.9290   76.7580  219.6830 C   0  0  0  0  0  0  0  0  0  0  0  0
  141.3760   78.0230  219.4210 N   0  0  0  0  0  0  0  0  0  0  0  0
  141.8780   79.2030  219.9570 C   0  0  0  0  0  0  0  0  0  0  0  0
  141.3740   79.7320  221.2620 C   0  0  0  0  0  0  0  0  0  0  0  0
  141.2900   81.1820  221.3230 C   0  0  0  0  0  0  0  0  0  0  0  0
  141.2600   81.7830  222.7140 C   0  0  0  0  0  0  0  0  0  0  0  0
  141.3210   80.7720  223.8190 C   0  0  0  0  0  0  0  0  0  0  0  0
  142.5610   79.9280  223.4910 C   0  0  0  0  0  0  0  0  0  0  0  0
  142.1600   79.0520  222.3450 C   0  0  0  0  0  0  0  0  0  0  0  0
  139.9220   77.9140  219.5900 C   0  0  0  0  0  0  0  0  0  0  0  0
  138.6200   76.7170  221.3730 C   0  0  0  0  0  0  0  0  0  0  0  0
  138.0220   77.6750  222.1540 C   0  0  0  0  0  0  0  0  0  0  0  0
  137.0360   77.3490  223.0480 C   0  0  0  0  0  0  0  0  0  0  0  0
  136.6030   76.0300  223.2030 C   0  0  0  0  0  0  0  0  0  0  0  0
  137.1910   75.0560  222.4300 C   0  0  0  0  0  0  0  0  0  0  0  0
  138.1810   75.3950  221.5340 C   0  0  0  0  0  0  0  0  0  0  0  0
  141.0778   73.0322  222.8852 H   0  0  0  0  0  0  0  0  0  0  0  0
  141.4221   71.3550  225.2310 H   0  0  0  0  0  0  0  0  0  0  0  0
  141.1453   71.0192  227.8655 H   0  0  0  0  0  0  0  0  0  0  0  0
  141.4020   66.9390  228.8640 H   0  0  0  0  0  0  0  0  0  0  0  0
  140.3453   67.0250  226.4521 H   0  0  0  0  0  0  0  0  0  0  0  0
  138.5116   68.1534  225.4428 H   0  0  0  0  0  0  0  0  0  0  0  0
  137.5543   68.9763  223.2973 H   0  0  0  0  0  0  0  0  0  0  0  0
  137.7810   70.9100  221.3710 H   0  0  0  0  0  0  0  0  0  0  0  0
  139.9096   75.1132  218.7808 H   0  0  0  0  0  0  0  0  0  0  0  0
  138.3100   75.7059  218.8088 H   0  0  0  0  0  0  0  0  0  0  0  0
  141.2550   76.7764  221.7899 H   0  0  0  0  0  0  0  0  0  0  0  0
  141.1224   75.1964  221.0847 H   0  0  0  0  0  0  0  0  0  0  0  0
  142.9799   76.8350  219.9988 H   0  0  0  0  0  0  0  0  0  0  0  0
  141.9526   76.0865  218.8121 H   0  0  0  0  0  0  0  0  0  0  0  0
  142.9616   79.0560  220.0767 H   0  0  0  0  0  0  0  0  0  0  0  0
  141.5322   79.9612  219.2389 H   0  0  0  0  0  0  0  0  0  0  0  0
  140.3130   79.4800  221.4061 H   0  0  0  0  0  0  0  0  0  0  0  0
  142.1639   81.5931  220.7965 H   0  0  0  0  0  0  0  0  0  0  0  0
  140.3260   81.4450  220.8631 H   0  0  0  0  0  0  0  0  0  0  0  0
  142.1214   82.4594  222.8167 H   0  0  0  0  0  0  0  0  0  0  0  0
  140.2964   82.3040  222.8137 H   0  0  0  0  0  0  0  0  0  0  0  0
  141.4334   81.2672  224.7948 H   0  0  0  0  0  0  0  0  0  0  0  0
  140.4053   80.1662  223.8861 H   0  0  0  0  0  0  0  0  0  0  0  0
  143.4016   80.5764  223.2029 H   0  0  0  0  0  0  0  0  0  0  0  0
  142.8926   79.3377  224.3580 H   0  0  0  0  0  0  0  0  0  0  0  0
  143.0757   78.6421  221.8940 H   0  0  0  0  0  0  0  0  0  0  0  0
  141.4948   78.2844  222.7673 H   0  0  0  0  0  0  0  0  0  0  0  0
  139.5417   78.7720  220.1638 H   0  0  0  0  0  0  0  0  0  0  0  0
  139.4098   77.9096  218.6165 H   0  0  0  0  0  0  0  0  0  0  0  0
  138.3404   78.7237  222.0603 H   0  0  0  0  0  0  0  0  0  0  0  0
  136.5761   78.1421  223.6559 H   0  0  0  0  0  0  0  0  0  0  0  0
  135.8123   75.7768  223.9246 H   0  0  0  0  0  0  0  0  0  0  0  0
  136.8712   74.0080  222.5271 H   0  0  0  0  0  0  0  0  0  0  0  0
  1  2  2  0
  2  3  1  0
  3  4  2  0
  4  5  1  0
  5  6  2  0
  6  7  1  0
  7  8  1  0
  8  9  1  0
  9 10  2  0
 10 11  1  0
 11 12  1  0
  7 13  2  0
 13 14  1  0
 14 15  2  0
 15 16  1  0
  2 17  1  0
 17 18  1  0
 19 18  1  6
 19 20  1  0
 20 21  1  0
 21 22  1  0
 22 23  1  0
 23 24  1  0
 24 25  1  0
 25 26  1  0
 26 27  1  0
 27 28  1  0
 28 29  1  0
 22 30  1  0
 19 31  1  0
 31 32  2  0
 32 33  1  0
 33 34  2  0
 34 35  1  0
 35 36  2  0
 16  3  1  0
 36 17  1  0
 15  5  1  0
 30 19  1  0
 36 31  1  0
 12  8  2  0
 29 24  1  0
  4 37  1  0
  6 38  1  0
  9 39  1  0
 11 40  1  0
 12 41  1  0
 13 42  1  0
 14 43  1  0
 16 44  1  0
 18 45  1  0
 18 46  1  0
 20 47  1  0
 20 48  1  0
 21 49  1  0
 21 50  1  0
 23 51  1  0
 23 52  1  0
 24 53  1  0
 25 54  1  0
 25 55  1  0
 26 56  1  0
 26 57  1  0
 27 58  1  0
 27 59  1  0
 28 60  1  0
 28 61  1  0
 29 62  1  0
 29 63  1  0
 30 64  1  0
 30 65  1  0
 32 66  1  0
 33 67  1  0
 34 68  1  0
 35 69  1  0
M  END
>  <smiles>  (10) 
O=C(c1cc2cc(-c3cn[nH]c3)ccc2[nH]1)N1C[C@]2(CCN(CC3CCCCC3)C2)c2ccccc21

>  <score_type>  (10) 
oracle

>  <origin>  (10) 
autodockgpu

>  <m_score__min__energy>  (10) 
-9.5899999999999999

>  <m_primary>  (10) 
energy

>  <rmsd>  (10) 
3.0512655920098273

>  <m_score__min__rmsd>  (10) 
3.0512655920098273

>  <meeko>  (10) 
{"free_energy": -8.84, "intermolecular_energy": -10.33, "internal_energy": -1.95, "cluster_size": 8, "cluster_id": 4, "rank_in_cluster": 7}

>  <energy>  (10) 
-8.41

>  <cluster_rmsd>  (10) 
1.62

>  <cluster>  (10) 
2

$$$$

     RDKit          3D

 69 75  0  0  0  0  0  0  0  0999 V2000
  137.4550   72.6100  220.5360 O   0  0  0  0  0  0  0  0  0  0  0  0
  138.0400   72.7870  221.6890 C   0  0  0  0  0  0  0  0  0  0  0  0
  138.3410   74.1710  221.9770 C   0  0  0  0  0  0  0  0  0  0  0  0
  139.6280   74.6730  221.9740 C   0  0  0  0  0  0  0  0  0  0  0  0
  139.6140   76.0370  222.2440 C   0  0  0  0  0  0  0  0  0  0  0  0
  140.5850   76.9970  222.3420 C   0  0  0  0  0  0  0  0  0  0  0  0
  140.2270   78.2950  222.6110 C   0  0  0  0  0  0  0  0  0  0  0  0
  141.2070   79.3830  222.7120 C   0  0  0  0  0  0  0  0  0  0  0  0
  140.9970   80.7350  222.8490 C   0  0  0  0  0  0  0  0  0  0  0  0
  142.1970   81.3400  222.8920 N   0  0  0  0  0  0  0  0  0  0  0  0
  143.1610   80.4390  222.7890 N   0  0  0  0  0  0  0  0  0  0  0  0
  142.5940   79.2220  222.6760 C   0  0  0  0  0  0  0  0  0  0  0  0
  138.8910   78.6710  222.7910 C   0  0  0  0  0  0  0  0  0  0  0  0
  137.9540   77.6630  222.6840 C   0  0  0  0  0  0  0  0  0  0  0  0
  138.2970   76.3540  222.4110 C   0  0  0  0  0  0  0  0  0  0  0  0
  137.5530   75.2200  222.2470 N   0  0  0  0  0  0  0  0  0  0  0  0
  138.2620   71.6480  222.4250 N   0  0  0  0  0  0  0  0  0  0  0  0
  137.4850   70.3810  222.1920 C   0  0  0  0  0  0  0  0  0  0  0  0
  137.0890   70.1720  223.6490 C   0  0  1  0  0  0  0  0  0  0  0  0
  136.0810   71.2210  223.9930 C   0  0  0  0  0  0  0  0  0  0  0  0
  134.7650   70.5030  223.5730 C   0  0  0  0  0  0  0  0  0  0  0  0
  134.9740   69.2180  224.1020 N   0  0  0  0  0  0  0  0  0  0  0  0
  134.4850   68.8110  225.3390 C   0  0  0  0  0  0  0  0  0  0  0  0
  133.5170   69.6590  226.1000 C   0  0  0  0  0  0  0  0  0  0  0  0
  132.3580   70.0760  225.3280 C   0  0  0  0  0  0  0  0  0  0  0  0
  131.6160   71.2870  225.8560 C   0  0  0  0  0  0  0  0  0  0  0  0
  132.2020   71.8670  227.1070 C   0  0  0  0  0  0  0  0  0  0  0  0
  133.6800   72.0990  226.7600 C   0  0  0  0  0  0  0  0  0  0  0  0
  134.3120   70.7410  226.7700 C   0  0  0  0  0  0  0  0  0  0  0  0
  136.3970   68.8980  223.9380 C   0  0  0  0  0  0  0  0  0  0  0  0
  138.4030   70.3620  224.3140 C   0  0  0  0  0  0  0  0  0  0  0  0
  139.0540   69.8830  225.4240 C   0  0  0  0  0  0  0  0  0  0  0  0
  140.3220   70.2980  225.7380 C   0  0  0  0  0  0  0  0  0  0  0  0
  141.0010   71.2250  224.9430 C   0  0  0  0  0  0  0  0  0  0  0  0
  140.3640   71.7160  223.8280 C   0  0  0  0  0  0  0  0  0  0  0  0
  139.0900   71.2920  223.5210 C   0  0  0  0  0  0  0  0  0  0  0  0
  140.5342   74.0788  221.7851 H   0  0  0  0  0  0  0  0  0  0  0  0
  141.6436   76.7307  222.2063 H   0  0  0  0  0  0  0  0  0  0  0  0
  140.0188   81.2341  222.9123 H   0  0  0  0  0  0  0  0  0  0  0  0
  144.1870   80.6700  222.7950 H   0  0  0  0  0  0  0  0  0  0  0  0
  143.1304   78.2672  222.5732 H   0  0  0  0  0  0  0  0  0  0  0  0
  138.6039   79.7109  223.0056 H   0  0  0  0  0  0  0  0  0  0  0  0
  136.8916   77.9128  222.8218 H   0  0  0  0  0  0  0  0  0  0  0  0
  136.5310   75.2440  222.3240 H   0  0  0  0  0  0  0  0  0  0  0  0
  136.6174   70.5290  221.5321 H   0  0  0  0  0  0  0  0  0  0  0  0
  138.0087   69.5546  221.6892 H   0  0  0  0  0  0  0  0  0  0  0  0
  136.0900   71.4552  225.0677 H   0  0  0  0  0  0  0  0  0  0  0  0
  136.2475   72.1926  223.5050 H   0  0  0  0  0  0  0  0  0  0  0  0
  133.8828   70.9844  224.0202 H   0  0  0  0  0  0  0  0  0  0  0  0
  134.5676   70.5190  222.4910 H   0  0  0  0  0  0  0  0  0  0  0  0
  133.9915   67.8414  225.1768 H   0  0  0  0  0  0  0  0  0  0  0  0
  135.3822   68.8371  225.9749 H   0  0  0  0  0  0  0  0  0  0  0  0
  133.0142   69.0758  226.8855 H   0  0  0  0  0  0  0  0  0  0  0  0
  132.6973   70.3064  224.3073 H   0  0  0  0  0  0  0  0  0  0  0  0
  131.6449   69.2404  225.3840 H   0  0  0  0  0  0  0  0  0  0  0  0
  131.6255   72.0642  225.0777 H   0  0  0  0  0  0  0  0  0  0  0  0
  130.5996   70.9505  226.1086 H   0  0  0  0  0  0  0  0  0  0  0  0
  131.7086   72.8156  227.3653 H   0  0  0  0  0  0  0  0  0  0  0  0
  132.0727   71.2070  227.9775 H   0  0  0  0  0  0  0  0  0  0  0  0
  133.7736   72.5591  225.7653 H   0  0  0  0  0  0  0  0  0  0  0  0
  134.1648   72.7798  227.4752 H   0  0  0  0  0  0  0  0  0  0  0  0
  135.2836   70.8145  226.2596 H   0  0  0  0  0  0  0  0  0  0  0  0
  134.3909   70.4499  227.8279 H   0  0  0  0  0  0  0  0  0  0  0  0
  136.7941   68.4521  224.8618 H   0  0  0  0  0  0  0  0  0  0  0  0
  136.5480   68.1727  223.1249 H   0  0  0  0  0  0  0  0  0  0  0  0
  138.5486   69.1528  226.0732 H   0  0  0  0  0  0  0  0  0  0  0  0
  140.8151   69.8931  226.6340 H   0  0  0  0  0  0  0  0  0  0  0  0
  142.0183   71.5532  225.2024 H   0  0  0  0  0  0  0  0  0  0  0  0
  140.8715   72.4471  223.1814 H   0  0  0  0  0  0  0  0  0  0  0  0
  1  2  2  0
  2  3  1  0
  3  4  2  0
  4  5  1  0
  5  6  2  0
  6  7  1  0
  7  8  1  0
  8  9  1  0
  9 10  2  0
 10 11  1  0
 11 12  1  0
  7 13  2  0
 13 14  1  0
 14 15  2  0
 15 16  1  0
  2 17  1  0
 17 18  1  0
 19 18  1  6
 19 20  1  0
 20 21  1  0
 21 22  1  0
 22 23  1  0
 23 24  1  0
 24 25  1  0
 25 26  1  0
 26 27  1  0
 27 28  1  0
 28 29  1  0
 22 30  1  0
 19 31  1  0
 31 32  2  0
 32 33  1  0
 33 34  2  0
 34 35  1  0
 35 36  2  0
 16  3  1  0
 36 17  1  0
 15  5  1  0
 30 19  1  0
 36 31  1  0
 12  8  2  0
 29 24  1  0
  4 37  1  0
  6 38  1  0
  9 39  1  0
 11 40  1  0
 12 41  1  0
 13 42  1  0
 14 43  1  0
 16 44  1  0
 18 45  1  0
 18 46  1  0
 20 47  1  0
 20 48  1  0
 21 49  1  0
 21 50  1  0
 23 51  1  0
 23 52  1  0
 24 53  1  0
 25 54  1  0
 25 55  1  0
 26 56  1  0
 26 57  1  0
 27 58  1  0
 27 59  1  0
 28 60  1  0
 28 61  1  0
 29 62  1  0
 29 63  1  0
 30 64  1  0
 30 65  1  0
 32 66  1  0
 33 67  1  0
 34 68  1  0
 35 69  1  0
M  END
>  <smiles>  (11) 
O=C(c1cc2cc(-c3cn[nH]c3)ccc2[nH]1)N1C[C@]2(CCN(CC3CCCCC3)C2)c2ccccc21

>  <score_type>  (11) 
oracle

>  <origin>  (11) 
autodockgpu

>  <m_score__min__energy>  (11) 
-9.5899999999999999

>  <m_primary>  (11) 
energy

>  <rmsd>  (11) 
10.424486941461515

>  <m_score__min__rmsd>  (11) 
10.424486941461515

>  <meeko>  (11) 
{"free_energy": -8.45, "intermolecular_energy": -9.94, "internal_energy": -1.65, "cluster_size": 1, "cluster_id": 9, "rank_in_cluster": 1}

>  <energy>  (11) 
-9.18

>  <cluster_rmsd>  (11) 
0.0

>  <cluster>  (11) 
3

$$$$

     RDKit          3D

 69 75  0  0  0  0  0  0  0  0999 V2000
  139.6660   72.8240  219.6840 O   0  0  0  0  0  0  0  0  0  0  0  0
  139.1370   73.2790  220.7870 C   0  0  0  0  0  0  0  0  0  0  0  0
  139.1210   72.3110  221.8610 C   0  0  0  0  0  0  0  0  0  0  0  0
  140.1160   72.2390  222.8180 C   0  0  0  0  0  0  0  0  0  0  0  0
  139.8200   71.2470  223.7460 C   0  0  0  0  0  0  0  0  0  0  0  0
  140.4440   70.7830  224.8730 C   0  0  0  0  0  0  0  0  0  0  0  0
  139.8630   69.7720  225.5980 C   0  0  0  0  0  0  0  0  0  0  0  0
  140.4600   69.2350  226.8270 C   0  0  0  0  0  0  0  0  0  0  0  0
  141.0310   69.9050  227.8830 C   0  0  0  0  0  0  0  0  0  0  0  0
  141.4480   68.9920  228.7780 N   0  0  0  0  0  0  0  0  0  0  0  0
  141.1700   67.7730  228.3430 N   0  0  0  0  0  0  0  0  0  0  0  0
  140.5620   67.8790  227.1460 C   0  0  0  0  0  0  0  0  0  0  0  0
  138.6450   69.1950  225.2200 C   0  0  0  0  0  0  0  0  0  0  0  0
  138.0620   69.7000  224.0750 C   0  0  0  0  0  0  0  0  0  0  0  0
  138.6300   70.7170  223.3350 C   0  0  0  0  0  0  0  0  0  0  0  0
  138.2320   71.3710  222.2040 N   0  0  0  0  0  0  0  0  0  0  0  0
  138.6990   74.5800  220.7440 N   0  0  0  0  0  0  0  0  0  0  0  0
  138.9950   75.4860  219.5820 C   0  0  0  0  0  0  0  0  0  0  0  0
  139.5430   76.6380  220.4180 C   0  0  1  0  0  0  0  0  0  0  0  0
  140.8680   76.2070  220.9570 C   0  0  0  0  0  0  0  0  0  0  0  0
  141.8080   76.6530  219.7990 C   0  0  0  0  0  0  0  0  0  0  0  0
  141.3020   77.9320  219.5130 N   0  0  0  0  0  0  0  0  0  0  0  0
  141.8380   79.1020  220.0400 C   0  0  0  0  0  0  0  0  0  0  0  0
  141.3400   79.6630  221.3330 C   0  0  0  0  0  0  0  0  0  0  0  0
  141.1940   81.1100  221.3360 C   0  0  0  0  0  0  0  0  0  0  0  0
  141.1690   81.7670  222.7020 C   0  0  0  0  0  0  0  0  0  0  0  0
  141.2990   80.8080  223.8450 C   0  0  0  0  0  0  0  0  0  0  0  0
  142.5670   80.0050  223.5230 C   0  0  0  0  0  0  0  0  0  0  0  0
  142.1790   79.0640  222.4240 C   0  0  0  0  0  0  0  0  0  0  0  0
  139.8430   77.8750  219.6670 C   0  0  0  0  0  0  0  0  0  0  0  0
  138.4810   76.7480  221.4510 C   0  0  0  0  0  0  0  0  0  0  0  0
  137.9070   77.7360  222.2110 C   0  0  0  0  0  0  0  0  0  0  0  0
  136.9010   77.4560  223.0980 C   0  0  0  0  0  0  0  0  0  0  0  0
  136.4210   76.1550  223.2650 C   0  0  0  0  0  0  0  0  0  0  0  0
  136.9840   75.1510  222.5130 C   0  0  0  0  0  0  0  0  0  0  0  0
  137.9950   75.4430  221.6230 C   0  0  0  0  0  0  0  0  0  0  0  0
  141.0130   72.8752  222.8418 H   0  0  0  0  0  0  0  0  0  0  0  0
  141.4024   71.2164  225.1948 H   0  0  0  0  0  0  0  0  0  0  0  0
  141.1295   70.9964  227.9790 H   0  0  0  0  0  0  0  0  0  0  0  0
  141.4020   66.8920  228.8690 H   0  0  0  0  0  0  0  0  0  0  0  0
  140.2070   67.0422  226.5265 H   0  0  0  0  0  0  0  0  0  0  0  0
  138.1792   68.3859  225.8017 H   0  0  0  0  0  0  0  0  0  0  0  0
  137.1052   69.2741  223.7386 H   0  0  0  0  0  0  0  0  0  0  0  0
  137.3520   71.1280  221.7380 H   0  0  0  0  0  0  0  0  0  0  0  0
  139.7436   75.0655  218.8945 H   0  0  0  0  0  0  0  0  0  0  0  0
  138.1651   75.7123  218.8964 H   0  0  0  0  0  0  0  0  0  0  0  0
  141.1104   76.7230  221.8977 H   0  0  0  0  0  0  0  0  0  0  0  0
  140.9321   75.1389  221.2122 H   0  0  0  0  0  0  0  0  0  0  0  0
  142.8571   76.6986  220.1265 H   0  0  0  0  0  0  0  0  0  0  0  0
  141.8185   75.9690  218.9376 H   0  0  0  0  0  0  0  0  0  0  0  0
  142.9150   78.9209  220.1718 H   0  0  0  0  0  0  0  0  0  0  0  0
  141.5240   79.8622  219.3096 H   0  0  0  0  0  0  0  0  0  0  0  0
  140.2946   79.3717  221.5126 H   0  0  0  0  0  0  0  0  0  0  0  0
  142.0371   81.5356  220.7720 H   0  0  0  0  0  0  0  0  0  0  0  0
  140.2096   81.3122  220.8888 H   0  0  0  0  0  0  0  0  0  0  0  0
  142.0020   82.4834  222.7559 H   0  0  0  0  0  0  0  0  0  0  0  0
  140.1858   82.2496  222.8035 H   0  0  0  0  0  0  0  0  0  0  0  0
  141.4110   81.3485  224.7965 H   0  0  0  0  0  0  0  0  0  0  0  0
  140.4126   80.1666  223.9588 H   0  0  0  0  0  0  0  0  0  0  0  0
  143.3717   80.6759  223.1879 H   0  0  0  0  0  0  0  0  0  0  0  0
  142.9436   79.4672  224.4056 H   0  0  0  0  0  0  0  0  0  0  0  0
  143.1015   78.6748  221.9684 H   0  0  0  0  0  0  0  0  0  0  0  0
  141.5577   78.2873  222.8938 H   0  0  0  0  0  0  0  0  0  0  0  0
  139.4861   78.7532  220.2250 H   0  0  0  0  0  0  0  0  0  0  0  0
  139.3416   77.8748  218.6879 H   0  0  0  0  0  0  0  0  0  0  0  0
  138.2612   78.7721  222.1061 H   0  0  0  0  0  0  0  0  0  0  0  0
  136.4625   78.2724  223.6907 H   0  0  0  0  0  0  0  0  0  0  0  0
  135.6133   75.9392  223.9798 H   0  0  0  0  0  0  0  0  0  0  0  0
  136.6279   74.1159  222.6216 H   0  0  0  0  0  0  0  0  0  0  0  0
  1  2  2  0
  2  3  1  0
  3  4  2  0
  4  5  1  0
  5  6  2  0
  6  7  1  0
  7  8  1  0
  8  9  1  0
  9 10  2  0
 10 11  1  0
 11 12  1  0
  7 13  2  0
 13 14  1  0
 14 15  2  0
 15 16  1  0
  2 17  1  0
 17 18  1  0
 19 18  1  6
 19 20  1  0
 20 21  1  0
 21 22  1  0
 22 23  1  0
 23 24  1  0
 24 25  1  0
 25 26  1  0
 26 27  1  0
 27 28  1  0
 28 29  1  0
 22 30  1  0
 19 31  1  0
 31 32  2  0
 32 33  1  0
 33 34  2  0
 34 35  1  0
 35 36  2  0
 16  3  1  0
 36 17  1  0
 15  5  1  0
 30 19  1  0
 36 31  1  0
 12  8  2  0
 29 24  1  0
  4 37  1  0
  6 38  1  0
  9 39  1  0
 11 40  1  0
 12 41  1  0
 13 42  1  0
 14 43  1  0
 16 44  1  0
 18 45  1  0
 18 46  1  0
 20 47  1  0
 20 48  1  0
 21 49  1  0
 21 50  1  0
 23 51  1  0
 23 52  1  0
 24 53  1  0
 25 54  1  0
 25 55  1  0
 26 56  1  0
 26 57  1  0
 27 58  1  0
 27 59  1  0
 28 60  1  0
 28 61  1  0
 29 62  1  0
 29 63  1  0
 30 64  1  0
 30 65  1  0
 32 66  1  0
 33 67  1  0
 34 68  1  0
 35 69  1  0
M  END
>  <smiles>  (12) 
O=C(c1cc2cc(-c3cn[nH]c3)ccc2[nH]1)N1C[C@]2(CCN(CC3CCCCC3)C2)c2ccccc21

>  <score_type>  (12) 
oracle

>  <origin>  (12) 
autodockgpu

>  <m_score__min__energy>  (12) 
-9.5899999999999999

>  <m_primary>  (12) 
energy

>  <rmsd>  (12) 
3.078011667946935

>  <m_score__min__rmsd>  (12) 
3.078011667946935

>  <meeko>  (12) 
{"free_energy": -8.86, "intermolecular_energy": -10.35, "internal_energy": -1.94, "cluster_size": 8, "cluster_id": 4, "rank_in_cluster": 6}

>  <energy>  (12) 
-8.84

>  <cluster_rmsd>  (12) 
0.7

>  <cluster>  (12) 
3

$$$$

     RDKit          3D

 69 75  0  0  0  0  0  0  0  0999 V2000
  140.1370   75.6640  218.5250 O   0  0  0  0  0  0  0  0  0  0  0  0
  140.6120   75.3770  219.7060 C   0  0  0  0  0  0  0  0  0  0  0  0
  140.4440   76.4420  220.6700 C   0  0  0  0  0  0  0  0  0  0  0  0
  139.2800   77.1790  220.7760 C   0  0  0  0  0  0  0  0  0  0  0  0
  139.3870   78.1020  221.8100 C   0  0  0  0  0  0  0  0  0  0  0  0
  138.5430   79.0420  222.3350 C   0  0  0  0  0  0  0  0  0  0  0  0
  138.9590   79.8040  223.3990 C   0  0  0  0  0  0  0  0  0  0  0  0
  138.1050   80.8180  224.0300 C   0  0  0  0  0  0  0  0  0  0  0  0
  137.7130   80.9320  225.3430 C   0  0  0  0  0  0  0  0  0  0  0  0
  136.9260   82.0170  225.4500 N   0  0  0  0  0  0  0  0  0  0  0  0
  136.7970   82.5990  224.2680 N   0  0  0  0  0  0  0  0  0  0  0  0
  137.5080   81.8920  223.3670 C   0  0  0  0  0  0  0  0  0  0  0  0
  140.2290   79.6500  223.9670 C   0  0  0  0  0  0  0  0  0  0  0  0
  141.0390   78.6890  223.3970 C   0  0  0  0  0  0  0  0  0  0  0  0
  140.6360   77.9130  222.3290 C   0  0  0  0  0  0  0  0  0  0  0  0
  141.2500   76.9130  221.6300 N   0  0  0  0  0  0  0  0  0  0  0  0
  141.1750   74.1300  219.8340 N   0  0  0  0  0  0  0  0  0  0  0  0
  140.3570   72.8710  219.7550 C   0  0  0  0  0  0  0  0  0  0  0  0
  140.8850   72.2610  221.0490 C   0  0  1  0  0  0  0  0  0  0  0  0
  140.3160   73.0560  222.1810 C   0  0  0  0  0  0  0  0  0  0  0  0
  138.9760   72.3000  222.4170 C   0  0  0  0  0  0  0  0  0  0  0  0
  139.4020   70.9620  222.3530 N   0  0  0  0  0  0  0  0  0  0  0  0
  139.7160   70.2050  223.4760 C   0  0  0  0  0  0  0  0  0  0  0  0
  139.8140   70.8380  224.8280 C   0  0  0  0  0  0  0  0  0  0  0  0
  141.0720   71.5230  225.0740 C   0  0  0  0  0  0  0  0  0  0  0  0
  141.4240   71.7530  226.5300 C   0  0  0  0  0  0  0  0  0  0  0  0
  140.4050   71.2320  227.4960 C   0  0  0  0  0  0  0  0  0  0  0  0
  140.2130   69.7640  227.0870 C   0  0  0  0  0  0  0  0  0  0  0  0
  139.4000   69.8000  225.8300 C   0  0  0  0  0  0  0  0  0  0  0  0
  140.4420   70.8780  221.3210 C   0  0  0  0  0  0  0  0  0  0  0  0
  142.3450   72.4490  220.8580 C   0  0  0  0  0  0  0  0  0  0  0  0
  143.5030   71.8010  221.2080 C   0  0  0  0  0  0  0  0  0  0  0  0
  144.7300   72.2850  220.8350 C   0  0  0  0  0  0  0  0  0  0  0  0
  144.8500   73.4570  220.0850 C   0  0  0  0  0  0  0  0  0  0  0  0
  143.7010   74.1220  219.7260 C   0  0  0  0  0  0  0  0  0  0  0  0
  142.4740   73.6260  220.1050 C   0  0  0  0  0  0  0  0  0  0  0  0
  138.3955   77.0534  220.1342 H   0  0  0  0  0  0  0  0  0  0  0  0
  137.5394   79.1863  221.9084 H   0  0  0  0  0  0  0  0  0  0  0  0
  137.9940   80.2542  226.1625 H   0  0  0  0  0  0  0  0  0  0  0  0
  136.2260   83.4650  224.0960 H   0  0  0  0  0  0  0  0  0  0  0  0
  137.6016   82.1214  222.2953 H   0  0  0  0  0  0  0  0  0  0  0  0
  140.5625   80.2603  224.8193 H   0  0  0  0  0  0  0  0  0  0  0  0
  142.0466   78.5352  223.8106 H   0  0  0  0  0  0  0  0  0  0  0  0
  142.1990   76.6090  221.8690 H   0  0  0  0  0  0  0  0  0  0  0  0
  139.2745   73.0642  219.7863 H   0  0  0  0  0  0  0  0  0  0  0  0
  140.4493   72.2676  218.8399 H   0  0  0  0  0  0  0  0  0  0  0  0
  140.9644   73.0191  223.0688 H   0  0  0  0  0  0  0  0  0  0  0  0
  140.2045   74.1307  221.9745 H   0  0  0  0  0  0  0  0  0  0  0  0
  138.5460   72.5394  223.4008 H   0  0  0  0  0  0  0  0  0  0  0  0
  138.1815   72.5554  221.7005 H   0  0  0  0  0  0  0  0  0  0  0  0
  138.9460   69.4231  223.5516 H   0  0  0  0  0  0  0  0  0  0  0  0
  140.7528   69.8956  223.2775 H   0  0  0  0  0  0  0  0  0  0  0  0
  139.1214   71.6880  224.9163 H   0  0  0  0  0  0  0  0  0  0  0  0
  141.8765   70.9236  224.6229 H   0  0  0  0  0  0  0  0  0  0  0  0
  140.9585   72.5240  224.6324 H   0  0  0  0  0  0  0  0  0  0  0  0
  142.3823   71.2541  226.7365 H   0  0  0  0  0  0  0  0  0  0  0  0
  141.4714   72.8422  226.6762 H   0  0  0  0  0  0  0  0  0  0  0  0
  140.7748   71.3038  228.5295 H   0  0  0  0  0  0  0  0  0  0  0  0
  139.4657   71.8037  227.4663 H   0  0  0  0  0  0  0  0  0  0  0  0
  141.1864   69.2865  226.9013 H   0  0  0  0  0  0  0  0  0  0  0  0
  139.7156   69.1827  227.8773 H   0  0  0  0  0  0  0  0  0  0  0  0
  139.4749   68.8138  225.3485 H   0  0  0  0  0  0  0  0  0  0  0  0
  138.3772   70.0641  226.1367 H   0  0  0  0  0  0  0  0  0  0  0  0
  141.2870   70.2738  221.6830 H   0  0  0  0  0  0  0  0  0  0  0  0
  140.0555   70.4003  220.4086 H   0  0  0  0  0  0  0  0  0  0  0  0
  143.4454   70.8752  221.7993 H   0  0  0  0  0  0  0  0  0  0  0  0
  145.6379   71.7396  221.1322 H   0  0  0  0  0  0  0  0  0  0  0  0
  145.8384   73.8385  219.7890 H   0  0  0  0  0  0  0  0  0  0  0  0
  143.7623   75.0489  219.1369 H   0  0  0  0  0  0  0  0  0  0  0  0
  1  2  2  0
  2  3  1  0
  3  4  2  0
  4  5  1  0
  5  6  2  0
  6  7  1  0
  7  8  1  0
  8  9  1  0
  9 10  2  0
 10 11  1  0
 11 12  1  0
  7 13  2  0
 13 14  1  0
 14 15  2  0
 15 16  1  0
  2 17  1  0
 17 18  1  0
 19 18  1  6
 19 20  1  0
 20 21  1  0
 21 22  1  0
 22 23  1  0
 23 24  1  0
 24 25  1  0
 25 26  1  0
 26 27  1  0
 27 28  1  0
 28 29  1  0
 22 30  1  0
 19 31  1  0
 31 32  2  0
 32 33  1  0
 33 34  2  0
 34 35  1  0
 35 36  2  0
 16  3  1  0
 36 17  1  0
 15  5  1  0
 30 19  1  0
 36 31  1  0
 12  8  2  0
 29 24  1  0
  4 37  1  0
  6 38  1  0
  9 39  1  0
 11 40  1  0
 12 41  1  0
 13 42  1  0
 14 43  1  0
 16 44  1  0
 18 45  1  0
 18 46  1  0
 20 47  1  0
 20 48  1  0
 21 49  1  0
 21 50  1  0
 23 51  1  0
 23 52  1  0
 24 53  1  0
 25 54  1  0
 25 55  1  0
 26 56  1  0
 26 57  1  0
 27 58  1  0
 27 59  1  0
 28 60  1  0
 28 61  1  0
 29 62  1  0
 29 63  1  0
 30 64  1  0
 30 65  1  0
 32 66  1  0
 33 67  1  0
 34 68  1  0
 35 69  1  0
M  END
>  <smiles>  (13) 
O=C(c1cc2cc(-c3cn[nH]c3)ccc2[nH]1)N1C[C@]2(CCN(CC3CCCCC3)C2)c2ccccc21

>  <score_type>  (13) 
oracle

>  <origin>  (13) 
autodockgpu

>  <m_score__min__energy>  (13) 
-9.5899999999999999

>  <m_primary>  (13) 
energy

>  <rmsd>  (13) 
9.603945573781328

>  <m_score__min__rmsd>  (13) 
9.603945573781328

>  <meeko>  (13) 
{"free_energy": -9.13, "intermolecular_energy": -10.62, "internal_energy": -1.75, "cluster_size": 6, "cluster_id": 2, "rank_in_cluster": 3}

>  <energy>  (13) 
-8.65

>  <cluster_rmsd>  (13) 
0.78

>  <cluster>  (13) 
3

$$$$

     RDKit          3D

 69 75  0  0  0  0  0  0  0  0999 V2000
  137.5330   77.2160  222.8010 O   0  0  0  0  0  0  0  0  0  0  0  0
  138.8000   77.4850  222.6500 C   0  0  0  0  0  0  0  0  0  0  0  0
  139.5860   76.3460  222.2290 C   0  0  0  0  0  0  0  0  0  0  0  0
  140.8140   76.4730  221.6080 C   0  0  0  0  0  0  0  0  0  0  0  0
  141.3580   75.2190  221.3550 C   0  0  0  0  0  0  0  0  0  0  0  0
  142.5260   74.7860  220.7890 C   0  0  0  0  0  0  0  0  0  0  0  0
  142.7760   73.4380  220.7020 C   0  0  0  0  0  0  0  0  0  0  0  0
  144.0130   72.8970  220.1270 C   0  0  0  0  0  0  0  0  0  0  0  0
  145.1870   73.5450  219.8190 C   0  0  0  0  0  0  0  0  0  0  0  0
  146.0390   72.6400  219.3050 N   0  0  0  0  0  0  0  0  0  0  0  0
  145.4640   71.4480  219.2710 N   0  0  0  0  0  0  0  0  0  0  0  0
  144.2170   71.5640  219.7680 C   0  0  0  0  0  0  0  0  0  0  0  0
  141.8660   72.4860  221.1750 C   0  0  0  0  0  0  0  0  0  0  0  0
  140.7030   72.9780  221.7340 C   0  0  0  0  0  0  0  0  0  0  0  0
  140.4380   74.3290  221.8320 C   0  0  0  0  0  0  0  0  0  0  0  0
  139.3860   75.0280  222.3510 N   0  0  0  0  0  0  0  0  0  0  0  0
  139.1670   78.7840  222.9050 N   0  0  0  0  0  0  0  0  0  0  0  0
  138.1860   79.9210  222.8320 C   0  0  0  0  0  0  0  0  0  0  0  0
  139.0350   80.8020  221.9220 C   0  0  1  0  0  0  0  0  0  0  0  0
  139.0390   80.1690  220.5670 C   0  0  0  0  0  0  0  0  0  0  0  0
  137.7690   80.8180  219.9440 C   0  0  0  0  0  0  0  0  0  0  0  0
  137.9270   82.1580  220.3350 N   0  0  0  0  0  0  0  0  0  0  0  0
  138.4950   83.1310  219.5200 C   0  0  0  0  0  0  0  0  0  0  0  0
  139.7280   82.8440  218.7240 C   0  0  0  0  0  0  0  0  0  0  0  0
  139.5560   81.8150  217.7110 C   0  0  0  0  0  0  0  0  0  0  0  0
  140.8270   81.1510  217.2220 C   0  0  0  0  0  0  0  0  0  0  0  0
  142.0760   81.6690  217.8690 C   0  0  0  0  0  0  0  0  0  0  0  0
  141.8020   81.5420  219.3750 C   0  0  0  0  0  0  0  0  0  0  0  0
  140.8490   82.6490  219.7040 C   0  0  0  0  0  0  0  0  0  0  0  0
  138.5040   82.1600  221.6840 C   0  0  0  0  0  0  0  0  0  0  0  0
  140.3430   80.7290  222.6220 C   0  0  0  0  0  0  0  0  0  0  0  0
  141.4310   81.5420  222.8190 C   0  0  0  0  0  0  0  0  0  0  0  0
  142.5050   81.1230  223.5610 C   0  0  0  0  0  0  0  0  0  0  0  0
  142.5360   79.8540  224.1430 C   0  0  0  0  0  0  0  0  0  0  0  0
  141.4550   79.0250  223.9550 C   0  0  0  0  0  0  0  0  0  0  0  0
  140.3800   79.4560  223.2090 C   0  0  0  0  0  0  0  0  0  0  0  0
  141.2925   77.4295  221.3507 H   0  0  0  0  0  0  0  0  0  0  0  0
  143.2591   75.5116  220.4066 H   0  0  0  0  0  0  0  0  0  0  0  0
  145.3927   74.6154  219.9671 H   0  0  0  0  0  0  0  0  0  0  0  0
  145.9320   70.5780  218.9090 H   0  0  0  0  0  0  0  0  0  0  0  0
  143.4860   70.7487  219.8727 H   0  0  0  0  0  0  0  0  0  0  0  0
  142.0658   71.4065  221.1055 H   0  0  0  0  0  0  0  0  0  0  0  0
  139.9581   72.2647  222.1164 H   0  0  0  0  0  0  0  0  0  0  0  0
  138.5870   74.5430  222.7710 H   0  0  0  0  0  0  0  0  0  0  0  0
  137.2306   79.6296  222.3713 H   0  0  0  0  0  0  0  0  0  0  0  0
  137.8505   80.3576  223.7843 H   0  0  0  0  0  0  0  0  0  0  0  0
  139.9460   80.4278  220.0010 H   0  0  0  0  0  0  0  0  0  0  0  0
  139.0330   79.0691  220.5760 H   0  0  0  0  0  0  0  0  0  0  0  0
  137.7603   80.7161  218.8488 H   0  0  0  0  0  0  0  0  0  0  0  0
  136.8228   80.3614  220.2699 H   0  0  0  0  0  0  0  0  0  0  0  0
  137.7189   83.4272  218.7989 H   0  0  0  0  0  0  0  0  0  0  0  0
  138.8438   83.8810  220.2451 H   0  0  0  0  0  0  0  0  0  0  0  0
  139.9873   83.6966  218.0791 H   0  0  0  0  0  0  0  0  0  0  0  0
  138.9070   81.0327  218.1316 H   0  0  0  0  0  0  0  0  0  0  0  0
  139.1307   82.3267  216.8351 H   0  0  0  0  0  0  0  0  0  0  0  0
  140.7539   80.0726  217.4261 H   0  0  0  0  0  0  0  0  0  0  0  0
  140.9094   81.3755  216.1483 H   0  0  0  0  0  0  0  0  0  0  0  0
  142.9462   81.0621  217.5784 H   0  0  0  0  0  0  0  0  0  0  0  0
  142.3084   82.7015  217.5690 H   0  0  0  0  0  0  0  0  0  0  0  0
  141.3497   80.5654  219.6023 H   0  0  0  0  0  0  0  0  0  0  0  0
  142.7277   81.6121  219.9651 H   0  0  0  0  0  0  0  0  0  0  0  0
  140.4065   82.4351  220.6881 H   0  0  0  0  0  0  0  0  0  0  0  0
  141.4399   83.5764  219.6782 H   0  0  0  0  0  0  0  0  0  0  0  0
  139.3149   82.9005  221.7482 H   0  0  0  0  0  0  0  0  0  0  0  0
  137.7475   82.4261  222.4370 H   0  0  0  0  0  0  0  0  0  0  0  0
  141.4415   82.5477  222.3736 H   0  0  0  0  0  0  0  0  0  0  0  0
  143.3602   81.8006  223.7008 H   0  0  0  0  0  0  0  0  0  0  0  0
  143.4023   79.5261  224.7363 H   0  0  0  0  0  0  0  0  0  0  0  0
  141.4487   78.0189  224.3998 H   0  0  0  0  0  0  0  0  0  0  0  0
  1  2  2  0
  2  3  1  0
  3  4  2  0
  4  5  1  0
  5  6  2  0
  6  7  1  0
  7  8  1  0
  8  9  1  0
  9 10  2  0
 10 11  1  0
 11 12  1  0
  7 13  2  0
 13 14  1  0
 14 15  2  0
 15 16  1  0
  2 17  1  0
 17 18  1  0
 19 18  1  1
 19 20  1  0
 20 21  1  0
 21 22  1  0
 22 23  1  0
 23 24  1  0
 24 25  1  0
 25 26  1  0
 26 27  1  0
 27 28  1  0
 28 29  1  0
 22 30  1  0
 19 31  1  0
 31 32  2  0
 32 33  1  0
 33 34  2  0
 34 35  1  0
 35 36  2  0
 16  3  1  0
 36 17  1  0
 15  5  1  0
 30 19  1  0
 36 31  1  0
 12  8  2  0
 29 24  1  0
  4 37  1  0
  6 38  1  0
  9 39  1  0
 11 40  1  0
 12 41  1  0
 13 42  1  0
 14 43  1  0
 16 44  1  0
 18 45  1  0
 18 46  1  0
 20 47  1  0
 20 48  1  0
 21 49  1  0
 21 50  1  0
 23 51  1  0
 23 52  1  0
 24 53  1  0
 25 54  1  0
 25 55  1  0
 26 56  1  0
 26 57  1  0
 27 58  1  0
 27 59  1  0
 28 60  1  0
 28 61  1  0
 29 62  1  0
 29 63  1  0
 30 64  1  0
 30 65  1  0
 32 66  1  0
 33 67  1  0
 34 68  1  0
 35 69  1  0
M  END
>  <smiles>  (14) 
O=C(c1cc2cc(-c3cn[nH]c3)ccc2[nH]1)N1C[C@]2(CCN(CC3CCCCC3)C2)c2ccccc21

>  <score_type>  (14) 
oracle

>  <origin>  (14) 
autodockgpu

>  <m_score__min__energy>  (14) 
-9.5899999999999999

>  <m_primary>  (14) 
energy

>  <rmsd>  (14) 
5.3575054564960505

>  <m_score__min__rmsd>  (14) 
5.3575054564960505

>  <meeko>  (14) 
{"free_energy": -8.65, "intermolecular_energy": -10.14, "internal_energy": -2.13, "cluster_size": 20, "cluster_id": 6, "rank_in_cluster": 17}

>  <energy>  (14) 
-9.01

>  <cluster_rmsd>  (14) 
0.0

>  <cluster>  (14) 
4

$$$$

     RDKit          3D

 69 75  0  0  0  0  0  0  0  0999 V2000
  134.4580   70.1220  222.8070 O   0  0  0  0  0  0  0  0  0  0  0  0
  135.2940   70.8990  223.4400 C   0  0  0  0  0  0  0  0  0  0  0  0
  134.6620   71.7390  224.4330 C   0  0  0  0  0  0  0  0  0  0  0  0
  134.8260   73.1100  224.4670 C   0  0  0  0  0  0  0  0  0  0  0  0
  134.0720   73.6610  225.4980 C   0  0  0  0  0  0  0  0  0  0  0  0
  133.8680   74.9360  225.9500 C   0  0  0  0  0  0  0  0  0  0  0  0
  133.0250   75.1490  227.0120 C   0  0  0  0  0  0  0  0  0  0  0  0
  132.7400   76.4890  227.5410 C   0  0  0  0  0  0  0  0  0  0  0  0
  131.6090   76.9550  228.1700 C   0  0  0  0  0  0  0  0  0  0  0  0
  131.8040   78.2510  228.4710 N   0  0  0  0  0  0  0  0  0  0  0  0
  133.0040   78.6330  228.0630 N   0  0  0  0  0  0  0  0  0  0  0  0
  133.6120   77.5780  227.4860 C   0  0  0  0  0  0  0  0  0  0  0  0
  132.3620   74.0960  227.6530 C   0  0  0  0  0  0  0  0  0  0  0  0
  132.6060   72.8310  227.1570 C   0  0  0  0  0  0  0  0  0  0  0  0
  133.4490   72.5990  226.0890 C   0  0  0  0  0  0  0  0  0  0  0  0
  133.8180   71.4590  225.4340 N   0  0  0  0  0  0  0  0  0  0  0  0
  136.6110   70.7850  223.0680 N   0  0  0  0  0  0  0  0  0  0  0  0
  137.2980   69.4530  222.9550 C   0  0  0  0  0  0  0  0  0  0  0  0
  138.5020   69.8240  223.8150 C   0  0  1  0  0  0  0  0  0  0  0  0
  138.0250   69.9280  225.2280 C   0  0  0  0  0  0  0  0  0  0  0  0
  138.1950   68.4540  225.6970 C   0  0  0  0  0  0  0  0  0  0  0  0
  139.4620   68.1440  225.1720 N   0  0  0  0  0  0  0  0  0  0  0  0
  140.6370   68.2320  225.9090 C   0  0  0  0  0  0  0  0  0  0  0  0
  140.9300   69.4330  226.7500 C   0  0  0  0  0  0  0  0  0  0  0  0
  139.9270   69.7070  227.7660 C   0  0  0  0  0  0  0  0  0  0  0  0
  139.9030   71.1230  228.3050 C   0  0  0  0  0  0  0  0  0  0  0  0
  140.9330   72.0270  227.6980 C   0  0  0  0  0  0  0  0  0  0  0  0
  140.7090   71.8920  226.1850 C   0  0  0  0  0  0  0  0  0  0  0  0
  141.2700   70.5550  225.8120 C   0  0  0  0  0  0  0  0  0  0  0  0
  139.5750   68.8100  223.8690 C   0  0  0  0  0  0  0  0  0  0  0  0
  138.8710   71.1280  223.2090 C   0  0  0  0  0  0  0  0  0  0  0  0
  140.0150   71.8550  222.9910 C   0  0  0  0  0  0  0  0  0  0  0  0
  139.9750   73.0750  222.3670 C   0  0  0  0  0  0  0  0  0  0  0  0
  138.7680   73.6270  221.9310 C   0  0  0  0  0  0  0  0  0  0  0  0
  137.6110   72.9150  222.1410 C   0  0  0  0  0  0  0  0  0  0  0  0
  137.6630   71.6890  222.7680 C   0  0  0  0  0  0  0  0  0  0  0  0
  135.4620   73.6842  223.7773 H   0  0  0  0  0  0  0  0  0  0  0  0
  134.3755   75.7836  225.4662 H   0  0  0  0  0  0  0  0  0  0  0  0
  130.7035   76.3699  228.3885 H   0  0  0  0  0  0  0  0  0  0  0  0
  133.3860   79.6050  228.1850 H   0  0  0  0  0  0  0  0  0  0  0  0
  134.6208   77.5752  227.0475 H   0  0  0  0  0  0  0  0  0  0  0  0
  131.6853   74.2667  228.5033 H   0  0  0  0  0  0  0  0  0  0  0  0
  132.1083   71.9729  227.6323 H   0  0  0  0  0  0  0  0  0  0  0  0
  133.4500   70.5460  225.7190 H   0  0  0  0  0  0  0  0  0  0  0  0
  136.7059   68.6312  223.3840 H   0  0  0  0  0  0  0  0  0  0  0  0
  137.5010   69.0764  221.9416 H   0  0  0  0  0  0  0  0  0  0  0  0
  138.6493   70.6157  225.8173 H   0  0  0  0  0  0  0  0  0  0  0  0
  137.0065   70.3285  225.3385 H   0  0  0  0  0  0  0  0  0  0  0  0
  138.1834   68.3763  226.7942 H   0  0  0  0  0  0  0  0  0  0  0  0
  137.3918   67.7795  225.3653 H   0  0  0  0  0  0  0  0  0  0  0  0
  140.6468   67.3656  226.5867 H   0  0  0  0  0  0  0  0  0  0  0  0
  141.4091   68.2895  225.1276 H   0  0  0  0  0  0  0  0  0  0  0  0
  141.8027   69.2576  227.3962 H   0  0  0  0  0  0  0  0  0  0  0  0
  138.9393   69.4949  227.3308 H   0  0  0  0  0  0  0  0  0  0  0  0
  140.1863   69.0663  228.6217 H   0  0  0  0  0  0  0  0  0  0  0  0
  138.9089   71.5507  228.1079 H   0  0  0  0  0  0  0  0  0  0  0  0
  140.1323   71.0573  229.3788 H   0  0  0  0  0  0  0  0  0  0  0  0
  140.7801   73.0665  228.0237 H   0  0  0  0  0  0  0  0  0  0  0  0
  141.9571   71.7595  227.9976 H   0  0  0  0  0  0  0  0  0  0  0  0
  139.6352   71.9367  225.9504 H   0  0  0  0  0  0  0  0  0  0  0  0
  141.1945   72.7067  225.6276 H   0  0  0  0  0  0  0  0  0  0  0  0
  140.8876   70.2921  224.8147 H   0  0  0  0  0  0  0  0  0  0  0  0
  142.3641   70.6625  225.8498 H   0  0  0  0  0  0  0  0  0  0  0  0
  140.5585   69.2936  223.7746 H   0  0  0  0  0  0  0  0  0  0  0  0
  139.4774   68.0870  223.0458 H   0  0  0  0  0  0  0  0  0  0  0  0
  140.9825   71.4507  223.3235 H   0  0  0  0  0  0  0  0  0  0  0  0
  140.9112   73.6299  222.2066 H   0  0  0  0  0  0  0  0  0  0  0  0
  138.7440   74.6070  221.4320 H   0  0  0  0  0  0  0  0  0  0  0  0
  136.6450   73.3233  221.8090 H   0  0  0  0  0  0  0  0  0  0  0  0
  1  2  2  0
  2  3  1  0
  3  4  2  0
  4  5  1  0
  5  6  2  0
  6  7  1  0
  7  8  1  0
  8  9  1  0
  9 10  2  0
 10 11  1  0
 11 12  1  0
  7 13  2  0
 13 14  1  0
 14 15  2  0
 15 16  1  0
  2 17  1  0
 17 18  1  0
 19 18  1  6
 19 20  1  0
 20 21  1  0
 21 22  1  0
 22 23  1  0
 23 24  1  0
 24 25  1  0
 25 26  1  0
 26 27  1  0
 27 28  1  0
 28 29  1  0
 22 30  1  0
 19 31  1  0
 31 32  2  0
 32 33  1  0
 33 34  2  0
 34 35  1  0
 35 36  2  0
 16  3  1  0
 36 17  1  0
 15  5  1  0
 30 19  1  0
 36 31  1  0
 12  8  2  0
 29 24  1  0
  4 37  1  0
  6 38  1  0
  9 39  1  0
 11 40  1  0
 12 41  1  0
 13 42  1  0
 14 43  1  0
 16 44  1  0
 18 45  1  0
 18 46  1  0
 20 47  1  0
 20 48  1  0
 21 49  1  0
 21 50  1  0
 23 51  1  0
 23 52  1  0
 24 53  1  0
 25 54  1  0
 25 55  1  0
 26 56  1  0
 26 57  1  0
 27 58  1  0
 27 59  1  0
 28 60  1  0
 28 61  1  0
 29 62  1  0
 29 63  1  0
 30 64  1  0
 30 65  1  0
 32 66  1  0
 33 67  1  0
 34 68  1  0
 35 69  1  0
M  END
>  <smiles>  (15) 
O=C(c1cc2cc(-c3cn[nH]c3)ccc2[nH]1)N1C[C@]2(CCN(CC3CCCCC3)C2)c2ccccc21

>  <score_type>  (15) 
oracle

>  <origin>  (15) 
autodockgpu

>  <m_score__min__energy>  (15) 
-9.5899999999999999

>  <m_primary>  (15) 
energy

>  <rmsd>  (15) 
10.203972141863156

>  <m_score__min__rmsd>  (15) 
10.203972141863156

>  <meeko>  (15) 
{"free_energy": -8.68, "intermolecular_energy": -10.17, "internal_energy": -2.05, "cluster_size": 5, "cluster_id": 5, "rank_in_cluster": 3}

>  <energy>  (15) 
-8.97

>  <cluster_rmsd>  (15) 
0.25

>  <cluster>  (15) 
4

$$$$

     RDKit          3D

 69 75  0  0  0  0  0  0  0  0999 V2000
  140.2730   73.0160  219.6470 O   0  0  0  0  0  0  0  0  0  0  0  0
  139.5950   73.4040  220.6920 C   0  0  0  0  0  0  0  0  0  0  0  0
  139.5220   72.4070  221.7360 C   0  0  0  0  0  0  0  0  0  0  0  0
  140.4330   72.3410  222.7730 C   0  0  0  0  0  0  0  0  0  0  0  0
  140.0950   71.3150  223.6470 C   0  0  0  0  0  0  0  0  0  0  0  0
  140.6360   70.8400  224.8110 C   0  0  0  0  0  0  0  0  0  0  0  0
  140.0320   69.7910  225.4590 C   0  0  0  0  0  0  0  0  0  0  0  0
  140.5410   69.2390  226.7200 C   0  0  0  0  0  0  0  0  0  0  0  0
  141.0480   69.8960  227.8170 C   0  0  0  0  0  0  0  0  0  0  0  0
  141.3950   68.9740  228.7310 N   0  0  0  0  0  0  0  0  0  0  0  0
  141.1340   67.7600  228.2700 N   0  0  0  0  0  0  0  0  0  0  0  0
  140.6070   67.8810  227.0360 C   0  0  0  0  0  0  0  0  0  0  0  0
  138.8720   69.1850  224.9630 C   0  0  0  0  0  0  0  0  0  0  0  0
  138.3700   69.7020  223.7850 C   0  0  0  0  0  0  0  0  0  0  0  0
  138.9640   70.7580  223.1220 C   0  0  0  0  0  0  0  0  0  0  0  0
  138.6400   71.4290  221.9780 N   0  0  0  0  0  0  0  0  0  0  0  0
  139.0810   74.6770  220.6280 N   0  0  0  0  0  0  0  0  0  0  0  0
  139.3340   75.5840  219.4560 C   0  0  0  0  0  0  0  0  0  0  0  0
  139.8040   76.7770  220.2820 C   0  0  1  0  0  0  0  0  0  0  0  0
  141.1470   76.4320  220.8400 C   0  0  0  0  0  0  0  0  0  0  0  0
  142.0710   76.9190  219.6850 C   0  0  0  0  0  0  0  0  0  0  0  0
  141.4920   78.1620  219.3770 N   0  0  0  0  0  0  0  0  0  0  0  0
  141.9530   79.3690  219.8930 C   0  0  0  0  0  0  0  0  0  0  0  0
  141.4540   79.8860  221.2050 C   0  0  0  0  0  0  0  0  0  0  0  0
  141.4550   81.3360  221.3110 C   0  0  0  0  0  0  0  0  0  0  0  0
  141.4320   81.8930  222.7200 C   0  0  0  0  0  0  0  0  0  0  0  0
  141.4090   80.8470  223.7930 C   0  0  0  0  0  0  0  0  0  0  0  0
  142.6040   79.9400  223.4610 C   0  0  0  0  0  0  0  0  0  0  0  0
  142.1750   79.1260  222.2800 C   0  0  0  0  0  0  0  0  0  0  0  0
  140.0380   78.0200  219.5180 C   0  0  0  0  0  0  0  0  0  0  0  0
  138.7270   76.8360  221.3030 C   0  0  0  0  0  0  0  0  0  0  0  0
  138.0880   77.7980  222.0440 C   0  0  0  0  0  0  0  0  0  0  0  0
  137.0900   77.4700  222.9260 C   0  0  0  0  0  0  0  0  0  0  0  0
  136.6870   76.1450  223.1050 C   0  0  0  0  0  0  0  0  0  0  0  0
  137.3170   75.1670  222.3720 C   0  0  0  0  0  0  0  0  0  0  0  0
  138.3170   75.5080  221.4880 C   0  0  0  0  0  0  0  0  0  0  0  0
  141.3016   73.0057  222.8899 H   0  0  0  0  0  0  0  0  0  0  0  0
  141.5480   71.2953  225.2243 H   0  0  0  0  0  0  0  0  0  0  0  0
  141.1513   70.9856  227.9269 H   0  0  0  0  0  0  0  0  0  0  0  0
  141.3210   66.8740  228.8040 H   0  0  0  0  0  0  0  0  0  0  0  0
  140.2842   67.0522  226.3888 H   0  0  0  0  0  0  0  0  0  0  0  0
  138.3877   68.3447  225.4820 H   0  0  0  0  0  0  0  0  0  0  0  0
  137.4605   69.2548  223.3575 H   0  0  0  0  0  0  0  0  0  0  0  0
  137.8120   71.1710  221.4320 H   0  0  0  0  0  0  0  0  0  0  0  0
  140.1132   75.2001  218.7811 H   0  0  0  0  0  0  0  0  0  0  0  0
  138.4992   75.7514  218.7596 H   0  0  0  0  0  0  0  0  0  0  0  0
  141.3485   76.9731  221.7763 H   0  0  0  0  0  0  0  0  0  0  0  0
  141.2718   75.3729  221.1099 H   0  0  0  0  0  0  0  0  0  0  0  0
  143.1120   77.0318  220.0220 H   0  0  0  0  0  0  0  0  0  0  0  0
  142.1316   76.2260  218.8329 H   0  0  0  0  0  0  0  0  0  0  0  0
  143.0444   79.2714  219.9898 H   0  0  0  0  0  0  0  0  0  0  0  0
  141.5586   80.1050  219.1769 H   0  0  0  0  0  0  0  0  0  0  0  0
  140.3772   79.6938  221.3213 H   0  0  0  0  0  0  0  0  0  0  0  0
  142.3625   81.7103  220.8146 H   0  0  0  0  0  0  0  0  0  0  0  0
  140.5184   81.6711  220.8414 H   0  0  0  0  0  0  0  0  0  0  0  0
  142.3301   82.5123  222.8610 H   0  0  0  0  0  0  0  0  0  0  0  0
  140.4990   82.4674  222.8180 H   0  0  0  0  0  0  0  0  0  0  0  0
  141.5303   81.3042  224.7861 H   0  0  0  0  0  0  0  0  0  0  0  0
  140.4575   80.2959  223.8238 H   0  0  0  0  0  0  0  0  0  0  0  0
  143.4875   80.5453  223.2098 H   0  0  0  0  0  0  0  0  0  0  0  0
  142.8822   79.3042  224.3144 H   0  0  0  0  0  0  0  0  0  0  0  0
  143.0736   78.6755  221.8333 H   0  0  0  0  0  0  0  0  0  0  0  0
  141.4563   78.3873  222.6646 H   0  0  0  0  0  0  0  0  0  0  0  0
  139.6239   78.8823  220.0612 H   0  0  0  0  0  0  0  0  0  0  0  0
  139.5477   77.9776  218.5342 H   0  0  0  0  0  0  0  0  0  0  0  0
  138.3815   78.8518  221.9286 H   0  0  0  0  0  0  0  0  0  0  0  0
  136.5975   78.2662  223.5035 H   0  0  0  0  0  0  0  0  0  0  0  0
  135.8859   75.8901  223.8144 H   0  0  0  0  0  0  0  0  0  0  0  0
  137.0229   74.1138  222.4913 H   0  0  0  0  0  0  0  0  0  0  0  0
  1  2  2  0
  2  3  1  0
  3  4  2  0
  4  5  1  0
  5  6  2  0
  6  7  1  0
  7  8  1  0
  8  9  1  0
  9 10  2  0
 10 11  1  0
 11 12  1  0
  7 13  2  0
 13 14  1  0
 14 15  2  0
 15 16  1  0
  2 17  1  0
 17 18  1  0
 19 18  1  6
 19 20  1  0
 20 21  1  0
 21 22  1  0
 22 23  1  0
 23 24  1  0
 24 25  1  0
 25 26  1  0
 26 27  1  0
 27 28  1  0
 28 29  1  0
 22 30  1  0
 19 31  1  0
 31 32  2  0
 32 33  1  0
 33 34  2  0
 34 35  1  0
 35 36  2  0
 16  3  1  0
 36 17  1  0
 15  5  1  0
 30 19  1  0
 36 31  1  0
 12  8  2  0
 29 24  1  0
  4 37  1  0
  6 38  1  0
  9 39  1  0
 11 40  1  0
 12 41  1  0
 13 42  1  0
 14 43  1  0
 16 44  1  0
 18 45  1  0
 18 46  1  0
 20 47  1  0
 20 48  1  0
 21 49  1  0
 21 50  1  0
 23 51  1  0
 23 52  1  0
 24 53  1  0
 25 54  1  0
 25 55  1  0
 26 56  1  0
 26 57  1  0
 27 58  1  0
 27 59  1  0
 28 60  1  0
 28 61  1  0
 29 62  1  0
 29 63  1  0
 30 64  1  0
 30 65  1  0
 32 66  1  0
 33 67  1  0
 34 68  1  0
 35 69  1  0
M  END
>  <smiles>  (16) 
O=C(c1cc2cc(-c3cn[nH]c3)ccc2[nH]1)N1C[C@]2(CCN(CC3CCCCC3)C2)c2ccccc21

>  <score_type>  (16) 
oracle

>  <origin>  (16) 
autodockgpu

>  <m_score__min__energy>  (16) 
-9.5899999999999999

>  <m_primary>  (16) 
energy

>  <rmsd>  (16) 
3.0435902313089995

>  <m_score__min__rmsd>  (16) 
3.0435902313089995

>  <meeko>  (16) 
{"free_energy": -8.95, "intermolecular_energy": -10.44, "internal_energy": -1.92, "cluster_size": 8, "cluster_id": 4, "rank_in_cluster": 3}

>  <energy>  (16) 
-8.95

>  <cluster_rmsd>  (16) 
0.3

>  <cluster>  (16) 
4

$$$$

     RDKit          3D

 69 75  0  0  0  0  0  0  0  0999 V2000
  140.1720   73.4340  219.3030 O   0  0  0  0  0  0  0  0  0  0  0  0
  140.4300   73.8120  220.5240 C   0  0  0  0  0  0  0  0  0  0  0  0
  140.0680   72.8300  221.5220 C   0  0  0  0  0  0  0  0  0  0  0  0
  140.8140   72.6130  222.6640 C   0  0  0  0  0  0  0  0  0  0  0  0
  140.2100   71.6450  223.4580 C   0  0  0  0  0  0  0  0  0  0  0  0
  140.5140   71.0820  224.6680 C   0  0  0  0  0  0  0  0  0  0  0  0
  139.6750   70.1350  225.2020 C   0  0  0  0  0  0  0  0  0  0  0  0
  139.9230   69.5000  226.5020 C   0  0  0  0  0  0  0  0  0  0  0  0
  139.9660   70.0670  227.7550 C   0  0  0  0  0  0  0  0  0  0  0  0
  140.2320   69.0930  228.6430 N   0  0  0  0  0  0  0  0  0  0  0  0
  140.3620   67.9340  228.0170 N   0  0  0  0  0  0  0  0  0  0  0  0
  140.1780   68.1420  226.6990 C   0  0  0  0  0  0  0  0  0  0  0  0
  138.5110   69.7230  224.5440 C   0  0  0  0  0  0  0  0  0  0  0  0
  138.2540   70.3220  223.3270 C   0  0  0  0  0  0  0  0  0  0  0  0
  139.0850   71.2770  222.7770 C   0  0  0  0  0  0  0  0  0  0  0  0
  139.0210   72.0000  221.6200 N   0  0  0  0  0  0  0  0  0  0  0  0
  141.0000   75.0560  220.6550 N   0  0  0  0  0  0  0  0  0  0  0  0
  141.0730   75.7670  221.9770 C   0  0  0  0  0  0  0  0  0  0  0  0
  140.4720   77.0780  221.4820 C   0  0  1  0  0  0  0  0  0  0  0  0
  139.0200   76.8330  221.2220 C   0  0  0  0  0  0  0  0  0  0  0  0
  138.4220   77.1340  222.6270 C   0  0  0  0  0  0  0  0  0  0  0  0
  139.1110   78.3100  222.9710 N   0  0  0  0  0  0  0  0  0  0  0  0
  138.5920   79.5850  222.7730 C   0  0  0  0  0  0  0  0  0  0  0  0
  139.4840   80.7320  222.4190 C   0  0  0  0  0  0  0  0  0  0  0  0
  139.9860   80.6960  221.0550 C   0  0  0  0  0  0  0  0  0  0  0  0
  141.2310   81.5180  220.7880 C   0  0  0  0  0  0  0  0  0  0  0  0
  141.7510   82.2480  221.9890 C   0  0  0  0  0  0  0  0  0  0  0  0
  141.8980   81.1580  223.0600 C   0  0  0  0  0  0  0  0  0  0  0  0
  140.5040   80.8510  223.5140 C   0  0  0  0  0  0  0  0  0  0  0  0
  140.4810   78.1850  222.4610 C   0  0  0  0  0  0  0  0  0  0  0  0
  141.2740   77.2930  220.2520 C   0  0  0  0  0  0  0  0  0  0  0  0
  141.7590   78.3570  219.5330 C   0  0  0  0  0  0  0  0  0  0  0  0
  142.5010   78.1690  218.3960 C   0  0  0  0  0  0  0  0  0  0  0  0
  142.7920   76.8870  217.9240 C   0  0  0  0  0  0  0  0  0  0  0  0
  142.3140   75.8080  218.6300 C   0  0  0  0  0  0  0  0  0  0  0  0
  141.5700   76.0090  219.7720 C   0  0  0  0  0  0  0  0  0  0  0  0
  141.7521   73.1321  222.9100 H   0  0  0  0  0  0  0  0  0  0  0  0
  141.4229   71.3856  225.2082 H   0  0  0  0  0  0  0  0  0  0  0  0
  139.8101   71.1304  227.9891 H   0  0  0  0  0  0  0  0  0  0  0  0
  140.5740   67.0240  228.5000 H   0  0  0  0  0  0  0  0  0  0  0  0
  140.2213   67.3737  225.9130 H   0  0  0  0  0  0  0  0  0  0  0  0
  137.8388   68.9648  224.9721 H   0  0  0  0  0  0  0  0  0  0  0  0
  137.3506   70.0263  222.7734 H   0  0  0  0  0  0  0  0  0  0  0  0
  138.2420   71.8790  220.9650 H   0  0  0  0  0  0  0  0  0  0  0  0
  140.4613   75.2849  222.7538 H   0  0  0  0  0  0  0  0  0  0  0  0
  142.0563   75.8177  222.4674 H   0  0  0  0  0  0  0  0  0  0  0  0
  138.6238   77.5175  220.4575 H   0  0  0  0  0  0  0  0  0  0  0  0
  138.7882   75.8311  220.8316 H   0  0  0  0  0  0  0  0  0  0  0  0
  137.3364   77.3034  222.5751 H   0  0  0  0  0  0  0  0  0  0  0  0
  138.5377   76.3147  223.3518 H   0  0  0  0  0  0  0  0  0  0  0  0
  137.8543   79.5001  221.9614 H   0  0  0  0  0  0  0  0  0  0  0  0
  138.2317   79.8585  223.7757 H   0  0  0  0  0  0  0  0  0  0  0  0
  138.9176   81.6742  222.3821 H   0  0  0  0  0  0  0  0  0  0  0  0
  140.2134   79.6488  220.8067 H   0  0  0  0  0  0  0  0  0  0  0  0
  139.1951   81.1417  220.4339 H   0  0  0  0  0  0  0  0  0  0  0  0
  142.0200   80.8424  220.4259 H   0  0  0  0  0  0  0  0  0  0  0  0
  140.9537   82.2826  220.0474 H   0  0  0  0  0  0  0  0  0  0  0  0
  142.7233   82.7141  221.7711 H   0  0  0  0  0  0  0  0  0  0  0  0
  141.0843   83.0631  222.3071 H   0  0  0  0  0  0  0  0  0  0  0  0
  142.3694   80.2606  222.6328 H   0  0  0  0  0  0  0  0  0  0  0  0
  142.5347   81.4889  223.8937 H   0  0  0  0  0  0  0  0  0  0  0  0
  140.5273   79.8974  224.0618 H   0  0  0  0  0  0  0  0  0  0  0  0
  140.1898   81.7060  224.1306 H   0  0  0  0  0  0  0  0  0  0  0  0
  140.7900   79.1206  221.9720 H   0  0  0  0  0  0  0  0  0  0  0  0
  141.1898   77.9842  223.2779 H   0  0  0  0  0  0  0  0  0  0  0  0
  141.5480   79.3806  219.8761 H   0  0  0  0  0  0  0  0  0  0  0  0
  142.8745   79.0445  217.8446 H   0  0  0  0  0  0  0  0  0  0  0  0
  143.3884   76.7441  217.0108 H   0  0  0  0  0  0  0  0  0  0  0  0
  142.5254   74.7857  218.2833 H   0  0  0  0  0  0  0  0  0  0  0  0
  1  2  2  0
  2  3  1  0
  3  4  2  0
  4  5  1  0
  5  6  2  0
  6  7  1  0
  7  8  1  0
  8  9  1  0
  9 10  2  0
 10 11  1  0
 11 12  1  0
  7 13  2  0
 13 14  1  0
 14 15  2  0
 15 16  1  0
  2 17  1  0
 17 18  1  0
 19 18  1  1
 19 20  1  0
 20 21  1  0
 21 22  1  0
 22 23  1  0
 23 24  1  0
 24 25  1  0
 25 26  1  0
 26 27  1  0
 27 28  1  0
 28 29  1  0
 22 30  1  0
 19 31  1  0
 31 32  2  0
 32 33  1  0
 33 34  2  0
 34 35  1  0
 35 36  2  0
 16  3  1  0
 36 17  1  0
 15  5  1  0
 30 19  1  0
 36 31  1  0
 12  8  2  0
 29 24  1  0
  4 37  1  0
  6 38  1  0
  9 39  1  0
 11 40  1  0
 12 41  1  0
 13 42  1  0
 14 43  1  0
 16 44  1  0
 18 45  1  0
 18 46  1  0
 20 47  1  0
 20 48  1  0
 21 49  1  0
 21 50  1  0
 23 51  1  0
 23 52  1  0
 24 53  1  0
 25 54  1  0
 25 55  1  0
 26 56  1  0
 26 57  1  0
 27 58  1  0
 27 59  1  0
 28 60  1  0
 28 61  1  0
 29 62  1  0
 29 63  1  0
 30 64  1  0
 30 65  1  0
 32 66  1  0
 33 67  1  0
 34 68  1  0
 35 69  1  0
M  END
>  <smiles>  (17) 
O=C(c1cc2cc(-c3cn[nH]c3)ccc2[nH]1)N1C[C@]2(CCN(CC3CCCCC3)C2)c2ccccc21

>  <score_type>  (17) 
oracle

>  <origin>  (17) 
autodockgpu

>  <m_score__min__energy>  (17) 
-9.5899999999999999

>  <m_primary>  (17) 
energy

>  <rmsd>  (17) 
2.5906282187622525

>  <m_score__min__rmsd>  (17) 
2.5906282187622525

>  <meeko>  (17) 
{"free_energy": -9.18, "intermolecular_energy": -10.67, "internal_energy": -1.61, "cluster_size": 3, "cluster_id": 3, "rank_in_cluster": 1}

>  <energy>  (17) 
-8.94

>  <cluster_rmsd>  (17) 
0.21

>  <cluster>  (17) 
4

$$$$

     RDKit          3D

 69 75  0  0  0  0  0  0  0  0999 V2000
  137.6720   80.3850  220.8090 O   0  0  0  0  0  0  0  0  0  0  0  0
  138.4360   80.6660  221.8280 C   0  0  0  0  0  0  0  0  0  0  0  0
  137.7290   81.2880  222.9250 C   0  0  0  0  0  0  0  0  0  0  0  0
  137.6230   80.7030  224.1730 C   0  0  0  0  0  0  0  0  0  0  0  0
  136.9270   81.5400  225.0390 C   0  0  0  0  0  0  0  0  0  0  0  0
  136.5650   81.4550  226.3560 C   0  0  0  0  0  0  0  0  0  0  0  0
  135.8770   82.4930  226.9350 C   0  0  0  0  0  0  0  0  0  0  0  0
  135.4710   82.4840  228.3460 C   0  0  0  0  0  0  0  0  0  0  0  0
  135.8580   81.6390  229.3590 C   0  0  0  0  0  0  0  0  0  0  0  0
  135.2170   82.0130  230.4810 N   0  0  0  0  0  0  0  0  0  0  0  0
  134.4410   83.0560  230.2310 N   0  0  0  0  0  0  0  0  0  0  0  0
  134.5680   83.3760  228.9290 C   0  0  0  0  0  0  0  0  0  0  0  0
  135.5300   83.6430  226.2170 C   0  0  0  0  0  0  0  0  0  0  0  0
  135.9190   83.6740  224.8920 C   0  0  0  0  0  0  0  0  0  0  0  0
  136.6130   82.6410  224.2950 C   0  0  0  0  0  0  0  0  0  0  0  0
  137.1040   82.4670  223.0330 N   0  0  0  0  0  0  0  0  0  0  0  0
  139.7600   80.3250  221.6920 N   0  0  0  0  0  0  0  0  0  0  0  0
  140.2570   79.4910  220.5430 C   0  0  0  0  0  0  0  0  0  0  0  0
  141.0070   78.4770  221.3990 C   0  0  1  0  0  0  0  0  0  0  0  0
  139.9850   77.6460  222.1050 C   0  0  0  0  0  0  0  0  0  0  0  0
  139.7510   76.5240  221.0520 C   0  0  0  0  0  0  0  0  0  0  0  0
  141.0700   76.2310  220.6670 N   0  0  0  0  0  0  0  0  0  0  0  0
  141.8140   75.1910  221.2140 C   0  0  0  0  0  0  0  0  0  0  0  0
  142.6380   74.2940  220.3460 C   0  0  0  0  0  0  0  0  0  0  0  0
  142.5220   72.8820  220.6710 C   0  0  0  0  0  0  0  0  0  0  0  0
  143.6530   71.9980  220.1830 C   0  0  0  0  0  0  0  0  0  0  0  0
  144.7220   72.7310  219.4320 C   0  0  0  0  0  0  0  0  0  0  0  0
  145.1350   73.8690  220.3770 C   0  0  0  0  0  0  0  0  0  0  0  0
  144.0240   74.8700  220.3100 C   0  0  0  0  0  0  0  0  0  0  0  0
  141.8170   77.4950  220.6490 C   0  0  0  0  0  0  0  0  0  0  0  0
  141.7610   79.3900  222.2960 C   0  0  0  0  0  0  0  0  0  0  0  0
  142.9680   79.3960  222.9510 C   0  0  0  0  0  0  0  0  0  0  0  0
  143.3520   80.4620  223.7220 C   0  0  0  0  0  0  0  0  0  0  0  0
  142.5320   81.5820  223.8740 C   0  0  0  0  0  0  0  0  0  0  0  0
  141.3190   81.5930  223.2260 C   0  0  0  0  0  0  0  0  0  0  0  0
  140.9420   80.5170  222.4530 C   0  0  0  0  0  0  0  0  0  0  0  0
  138.0304   79.7174  224.4425 H   0  0  0  0  0  0  0  0  0  0  0  0
  136.8229   80.5630  226.9458 H   0  0  0  0  0  0  0  0  0  0  0  0
  136.5676   80.8034  229.2680 H   0  0  0  0  0  0  0  0  0  0  0  0
  133.8380   83.5280  230.9520 H   0  0  0  0  0  0  0  0  0  0  0  0
  134.0499   84.1981  228.4135 H   0  0  0  0  0  0  0  0  0  0  0  0
  134.9792   84.4744  226.6811 H   0  0  0  0  0  0  0  0  0  0  0  0
  135.6654   84.5578  224.2881 H   0  0  0  0  0  0  0  0  0  0  0  0
  136.9810   83.1890  222.3160 H   0  0  0  0  0  0  0  0  0  0  0  0
  139.4405   79.0367  219.9626 H   0  0  0  0  0  0  0  0  0  0  0  0
  140.8287   80.0068  219.7575 H   0  0  0  0  0  0  0  0  0  0  0  0
  140.3747   77.2403  223.0503 H   0  0  0  0  0  0  0  0  0  0  0  0
  139.0770   78.1918  222.4012 H   0  0  0  0  0  0  0  0  0  0  0  0
  139.2577   75.6483  221.4990 H   0  0  0  0  0  0  0  0  0  0  0  0
  139.0925   76.8156  220.2206 H   0  0  0  0  0  0  0  0  0  0  0  0
  142.5055   75.6478  221.9373 H   0  0  0  0  0  0  0  0  0  0  0  0
  141.0370   74.5120  221.5950 H   0  0  0  0  0  0  0  0  0  0  0  0
  142.2519   74.2782  219.3161 H   0  0  0  0  0  0  0  0  0  0  0  0
  142.4706   72.7907  221.7660 H   0  0  0  0  0  0  0  0  0  0  0  0
  141.6200   72.5284  220.1500 H   0  0  0  0  0  0  0  0  0  0  0  0
  144.1145   71.5139  221.0563 H   0  0  0  0  0  0  0  0  0  0  0  0
  143.2107   71.2757  219.4811 H   0  0  0  0  0  0  0  0  0  0  0  0
  145.5752   72.0690  219.2226 H   0  0  0  0  0  0  0  0  0  0  0  0
  144.3733   73.0999  218.4561 H   0  0  0  0  0  0  0  0  0  0  0  0
  145.2513   73.4924  221.4040 H   0  0  0  0  0  0  0  0  0  0  0  0
  146.0994   74.3107  220.0857 H   0  0  0  0  0  0  0  0  0  0  0  0
  144.1303   75.5533  221.1654 H   0  0  0  0  0  0  0  0  0  0  0  0
  144.1213   75.3673  219.3337 H   0  0  0  0  0  0  0  0  0  0  0  0
  142.7965   77.3635  221.1320 H   0  0  0  0  0  0  0  0  0  0  0  0
  141.9960   77.8344  219.6181 H   0  0  0  0  0  0  0  0  0  0  0  0
  143.6388   78.5295  222.8551 H   0  0  0  0  0  0  0  0  0  0  0  0
  144.3264   80.4348  224.2317 H   0  0  0  0  0  0  0  0  0  0  0  0
  142.8479   82.4329  224.4955 H   0  0  0  0  0  0  0  0  0  0  0  0
  140.6502   82.4607  223.3249 H   0  0  0  0  0  0  0  0  0  0  0  0
  1  2  2  0
  2  3  1  0
  3  4  2  0
  4  5  1  0
  5  6  2  0
  6  7  1  0
  7  8  1  0
  8  9  1  0
  9 10  2  0
 10 11  1  0
 11 12  1  0
  7 13  2  0
 13 14  1  0
 14 15  2  0
 15 16  1  0
  2 17  1  0
 17 18  1  0
 19 18  1  6
 19 20  1  0
 20 21  1  0
 21 22  1  0
 22 23  1  0
 23 24  1  0
 24 25  1  0
 25 26  1  0
 26 27  1  0
 27 28  1  0
 28 29  1  0
 22 30  1  0
 19 31  1  0
 31 32  2  0
 32 33  1  0
 33 34  2  0
 34 35  1  0
 35 36  2  0
 16  3  1  0
 36 17  1  0
 15  5  1  0
 30 19  1  0
 36 31  1  0
 12  8  2  0
 29 24  1  0
  4 37  1  0
  6 38  1  0
  9 39  1  0
 11 40  1  0
 12 41  1  0
 13 42  1  0
 14 43  1  0
 16 44  1  0
 18 45  1  0
 18 46  1  0
 20 47  1  0
 20 48  1  0
 21 49  1  0
 21 50  1  0
 23 51  1  0
 23 52  1  0
 24 53  1  0
 25 54  1  0
 25 55  1  0
 26 56  1  0
 26 57  1  0
 27 58  1  0
 27 59  1  0
 28 60  1  0
 28 61  1  0
 29 62  1  0
 29 63  1  0
 30 64  1  0
 30 65  1  0
 32 66  1  0
 33 67  1  0
 34 68  1  0
 35 69  1  0
M  END
>  <smiles>  (18) 
O=C(c1cc2cc(-c3cn[nH]c3)ccc2[nH]1)N1C[C@]2(CCN(CC3CCCCC3)C2)c2ccccc21

>  <score_type>  (18) 
oracle

>  <origin>  (18) 
autodockgpu

>  <m_score__min__energy>  (18) 
-9.5899999999999999

>  <m_primary>  (18) 
energy

>  <rmsd>  (18) 
10.202670359139656

>  <m_score__min__rmsd>  (18) 
10.202670359139656

>  <meeko>  (18) 
{"free_energy": -9.59, "intermolecular_energy": -11.08, "internal_energy": -1.54, "cluster_size": 4, "cluster_id": 1, "rank_in_cluster": 1}

>  <energy>  (18) 
-8.93

>  <cluster_rmsd>  (18) 
0.4

>  <cluster>  (18) 
4

$$$$

     RDKit          3D

 69 75  0  0  0  0  0  0  0  0999 V2000
  137.4410   77.3400  222.8040 O   0  0  0  0  0  0  0  0  0  0  0  0
  138.7160   77.5990  222.7190 C   0  0  0  0  0  0  0  0  0  0  0  0
  139.5050   76.4770  222.2610 C   0  0  0  0  0  0  0  0  0  0  0  0
  140.7380   76.6270  221.6560 C   0  0  0  0  0  0  0  0  0  0  0  0
  141.2830   75.3830  221.3590 C   0  0  0  0  0  0  0  0  0  0  0  0
  142.4560   74.9710  220.7860 C   0  0  0  0  0  0  0  0  0  0  0  0
  142.7050   73.6270  220.6490 C   0  0  0  0  0  0  0  0  0  0  0  0
  143.9470   73.1080  220.0640 C   0  0  0  0  0  0  0  0  0  0  0  0
  144.4870   73.3390  218.8200 C   0  0  0  0  0  0  0  0  0  0  0  0
  145.6340   72.6420  218.7290 N   0  0  0  0  0  0  0  0  0  0  0  0
  145.8490   71.9770  219.8530 N   0  0  0  0  0  0  0  0  0  0  0  0
  144.8340   72.2380  220.7000 C   0  0  0  0  0  0  0  0  0  0  0  0
  141.7910   72.6580  221.0780 C   0  0  0  0  0  0  0  0  0  0  0  0
  140.6240   73.1290  221.6460 C   0  0  0  0  0  0  0  0  0  0  0  0
  140.3590   74.4760  221.7940 C   0  0  0  0  0  0  0  0  0  0  0  0
  139.3030   75.1550  222.3310 N   0  0  0  0  0  0  0  0  0  0  0  0
  139.0880   78.8760  223.0660 N   0  0  0  0  0  0  0  0  0  0  0  0
  138.0910   79.9940  223.1870 C   0  0  0  0  0  0  0  0  0  0  0  0
  138.8470   80.9750  222.2970 C   0  0  1  0  0  0  0  0  0  0  0  0
  138.7420   80.4740  220.8920 C   0  0  0  0  0  0  0  0  0  0  0  0
  137.4150   81.1530  220.4440 C   0  0  0  0  0  0  0  0  0  0  0  0
  137.5890   82.4530  220.9480 N   0  0  0  0  0  0  0  0  0  0  0  0
  138.0730   83.5100  220.1860 C   0  0  0  0  0  0  0  0  0  0  0  0
  139.2720   83.3400  219.3090 C   0  0  0  0  0  0  0  0  0  0  0  0
  139.0930   82.3750  218.2360 C   0  0  0  0  0  0  0  0  0  0  0  0
  140.3650   81.8120  217.6370 C   0  0  0  0  0  0  0  0  0  0  0  0
  141.6220   82.3480  218.2520 C   0  0  0  0  0  0  0  0  0  0  0  0
  141.4380   82.1060  219.7580 C   0  0  0  0  0  0  0  0  0  0  0  0
  140.4530   83.1380  220.2130 C   0  0  0  0  0  0  0  0  0  0  0  0
  138.2810   82.3380  222.2380 C   0  0  0  0  0  0  0  0  0  0  0  0
  140.2110   80.8620  222.8730 C   0  0  0  0  0  0  0  0  0  0  0  0
  141.3020   81.6750  223.0550 C   0  0  0  0  0  0  0  0  0  0  0  0
  142.4410   81.2100  223.6590 C   0  0  0  0  0  0  0  0  0  0  0  0
  142.5370   79.8920  224.1110 C   0  0  0  0  0  0  0  0  0  0  0  0
  141.4540   79.0620  223.9370 C   0  0  0  0  0  0  0  0  0  0  0  0
  140.3140   79.5400  223.3300 C   0  0  0  0  0  0  0  0  0  0  0  0
  141.2194   77.5922  221.4403 H   0  0  0  0  0  0  0  0  0  0  0  0
  143.1929   75.7099  220.4382 H   0  0  0  0  0  0  0  0  0  0  0  0
  144.0565   73.9809  218.0372 H   0  0  0  0  0  0  0  0  0  0  0  0
  146.6820   71.3590  220.0220 H   0  0  0  0  0  0  0  0  0  0  0  0
  144.7235   71.8348  221.7175 H   0  0  0  0  0  0  0  0  0  0  0  0
  141.9910   71.5819  220.9689 H   0  0  0  0  0  0  0  0  0  0  0  0
  139.8755   72.4022  221.9945 H   0  0  0  0  0  0  0  0  0  0  0  0
  138.5000   74.6550  222.7250 H   0  0  0  0  0  0  0  0  0  0  0  0
  137.1028   79.7282  222.7836 H   0  0  0  0  0  0  0  0  0  0  0  0
  137.8343   80.3311  224.2021 H   0  0  0  0  0  0  0  0  0  0  0  0
  139.5936   80.8040  220.2790 H   0  0  0  0  0  0  0  0  0  0  0  0
  138.7503   79.3783  220.7954 H   0  0  0  0  0  0  0  0  0  0  0  0
  137.3135   81.1557  219.3487 H   0  0  0  0  0  0  0  0  0  0  0  0
  136.5062   80.6479  220.8030 H   0  0  0  0  0  0  0  0  0  0  0  0
  137.2483   83.8268  219.5307 H   0  0  0  0  0  0  0  0  0  0  0  0
  138.4297   84.2163  220.9501 H   0  0  0  0  0  0  0  0  0  0  0  0
  139.4548   84.2458  218.7123 H   0  0  0  0  0  0  0  0  0  0  0  0
  138.5058   81.5338  218.6330 H   0  0  0  0  0  0  0  0  0  0  0  0
  138.5961   82.9225  217.4216 H   0  0  0  0  0  0  0  0  0  0  0  0
  140.3547   80.7200  217.7688 H   0  0  0  0  0  0  0  0  0  0  0  0
  140.3769   82.1129  216.5790 H   0  0  0  0  0  0  0  0  0  0  0  0
  142.5023   81.8070  217.8747 H   0  0  0  0  0  0  0  0  0  0  0  0
  141.7887   83.4087  218.0131 H   0  0  0  0  0  0  0  0  0  0  0  0
  141.0460   81.0944  219.9395 H   0  0  0  0  0  0  0  0  0  0  0  0
  142.3906   82.1837  220.3026 H   0  0  0  0  0  0  0  0  0  0  0  0
  140.0766   82.8360  221.2015 H   0  0  0  0  0  0  0  0  0  0  0  0
  140.9965   84.0943  220.2217 H   0  0  0  0  0  0  0  0  0  0  0  0
  139.0853   83.0855  222.3046 H   0  0  0  0  0  0  0  0  0  0  0  0
  137.5894   82.5154  223.0748 H   0  0  0  0  0  0  0  0  0  0  0  0
  141.2613   82.7186  222.7098 H   0  0  0  0  0  0  0  0  0  0  0  0
  143.2968   81.8885  223.7904 H   0  0  0  0  0  0  0  0  0  0  0  0
  143.4554   79.5269  224.5939 H   0  0  0  0  0  0  0  0  0  0  0  0
  141.4984   78.0185  224.2820 H   0  0  0  0  0  0  0  0  0  0  0  0
  1  2  2  0
  2  3  1  0
  3  4  2  0
  4  5  1  0
  5  6  2  0
  6  7  1  0
  7  8  1  0
  8  9  1  0
  9 10  2  0
 10 11  1  0
 11 12  1  0
  7 13  2  0
 13 14  1  0
 14 15  2  0
 15 16  1  0
  2 17  1  0
 17 18  1  0
 19 18  1  1
 19 20  1  0
 20 21  1  0
 21 22  1  0
 22 23  1  0
 23 24  1  0
 24 25  1  0
 25 26  1  0
 26 27  1  0
 27 28  1  0
 28 29  1  0
 22 30  1  0
 19 31  1  0
 31 32  2  0
 32 33  1  0
 33 34  2  0
 34 35  1  0
 35 36  2  0
 16  3  1  0
 36 17  1  0
 15  5  1  0
 30 19  1  0
 36 31  1  0
 12  8  2  0
 29 24  1  0
  4 37  1  0
  6 38  1  0
  9 39  1  0
 11 40  1  0
 12 41  1  0
 13 42  1  0
 14 43  1  0
 16 44  1  0
 18 45  1  0
 18 46  1  0
 20 47  1  0
 20 48  1  0
 21 49  1  0
 21 50  1  0
 23 51  1  0
 23 52  1  0
 24 53  1  0
 25 54  1  0
 25 55  1  0
 26 56  1  0
 26 57  1  0
 27 58  1  0
 27 59  1  0
 28 60  1  0
 28 61  1  0
 29 62  1  0
 29 63  1  0
 30 64  1  0
 30 65  1  0
 32 66  1  0
 33 67  1  0
 34 68  1  0
 35 69  1  0
M  END
>  <smiles>  (19) 
O=C(c1cc2cc(-c3cn[nH]c3)ccc2[nH]1)N1C[C@]2(CCN(CC3CCCCC3)C2)c2ccccc21

>  <score_type>  (19) 
oracle

>  <origin>  (19) 
autodockgpu

>  <m_score__min__energy>  (19) 
-9.5899999999999999

>  <m_primary>  (19) 
energy

>  <rmsd>  (19) 
5.41781225660192

>  <m_score__min__rmsd>  (19) 
5.41781225660192

>  <meeko>  (19) 
{"free_energy": -8.72, "intermolecular_energy": -10.21, "internal_energy": -2.1, "cluster_size": 20, "cluster_id": 6, "rank_in_cluster": 7}

>  <energy>  (19) 
-8.86

>  <cluster_rmsd>  (19) 
0.45

>  <cluster>  (19) 
4

$$$$

     RDKit          3D

 69 75  0  0  0  0  0  0  0  0999 V2000
  137.4480   77.3210  222.6790 O   0  0  0  0  0  0  0  0  0  0  0  0
  138.7300   77.5580  222.6650 C   0  0  0  0  0  0  0  0  0  0  0  0
  139.5220   76.4270  222.2350 C   0  0  0  0  0  0  0  0  0  0  0  0
  140.7580   76.5640  221.6340 C   0  0  0  0  0  0  0  0  0  0  0  0
  141.3060   75.3140  221.3670 C   0  0  0  0  0  0  0  0  0  0  0  0
  142.4820   74.8900  220.8100 C   0  0  0  0  0  0  0  0  0  0  0  0
  142.7320   73.5440  220.7030 C   0  0  0  0  0  0  0  0  0  0  0  0
  143.9770   73.0130  220.1360 C   0  0  0  0  0  0  0  0  0  0  0  0
  144.4610   73.1090  218.8520 C   0  0  0  0  0  0  0  0  0  0  0  0
  145.6380   72.4600  218.8010 N   0  0  0  0  0  0  0  0  0  0  0  0
  145.9270   71.9540  219.9900 N   0  0  0  0  0  0  0  0  0  0  0  0
  144.9300   72.2720  220.8390 C   0  0  0  0  0  0  0  0  0  0  0  0
  141.8160   72.5840  221.1470 C   0  0  0  0  0  0  0  0  0  0  0  0
  140.6460   73.0670  221.6980 C   0  0  0  0  0  0  0  0  0  0  0  0
  140.3790   74.4160  221.8160 C   0  0  0  0  0  0  0  0  0  0  0  0
  139.3200   75.1070  222.3320 N   0  0  0  0  0  0  0  0  0  0  0  0
  139.1060   78.8230  223.0460 N   0  0  0  0  0  0  0  0  0  0  0  0
  138.1110   79.9390  223.2080 C   0  0  0  0  0  0  0  0  0  0  0  0
  138.8610   80.9440  222.3410 C   0  0  1  0  0  0  0  0  0  0  0  0
  138.7450   80.4850  220.9230 C   0  0  0  0  0  0  0  0  0  0  0  0
  137.4150   81.1780  220.5060 C   0  0  0  0  0  0  0  0  0  0  0  0
  137.5940   82.4620  221.0460 N   0  0  0  0  0  0  0  0  0  0  0  0
  138.0740   83.5410  220.3120 C   0  0  0  0  0  0  0  0  0  0  0  0
  139.2800   83.4030  219.4380 C   0  0  0  0  0  0  0  0  0  0  0  0
  139.1240   82.4440  218.3570 C   0  0  0  0  0  0  0  0  0  0  0  0
  140.4090   81.9100  217.7580 C   0  0  0  0  0  0  0  0  0  0  0  0
  141.6530   82.4650  218.3840 C   0  0  0  0  0  0  0  0  0  0  0  0
  141.4670   82.2070  219.8860 C   0  0  0  0  0  0  0  0  0  0  0  0
  140.4600   83.2150  220.3460 C   0  0  0  0  0  0  0  0  0  0  0  0
  138.2960   82.3090  222.3260 C   0  0  0  0  0  0  0  0  0  0  0  0
  140.2290   80.8140  222.9040 C   0  0  0  0  0  0  0  0  0  0  0  0
  141.3230   81.6200  223.1010 C   0  0  0  0  0  0  0  0  0  0  0  0
  142.4660   81.1370  223.6820 C   0  0  0  0  0  0  0  0  0  0  0  0
  142.5640   79.8060  224.0950 C   0  0  0  0  0  0  0  0  0  0  0  0
  141.4790   78.9820  223.9040 C   0  0  0  0  0  0  0  0  0  0  0  0
  140.3350   79.4790  223.3200 C   0  0  0  0  0  0  0  0  0  0  0  0
  141.2401   77.5246  221.4000 H   0  0  0  0  0  0  0  0  0  0  0  0
  143.2209   75.6215  220.4509 H   0  0  0  0  0  0  0  0  0  0  0  0
  143.9712   73.6260  218.0137 H   0  0  0  0  0  0  0  0  0  0  0  0
  146.7960   71.4010  220.2000 H   0  0  0  0  0  0  0  0  0  0  0  0
  144.8759   71.9957  221.9024 H   0  0  0  0  0  0  0  0  0  0  0  0
  142.0167   71.5058  221.0619 H   0  0  0  0  0  0  0  0  0  0  0  0
  139.8959   72.3473  222.0577 H   0  0  0  0  0  0  0  0  0  0  0  0
  138.5150   74.6140  222.7320 H   0  0  0  0  0  0  0  0  0  0  0  0
  137.1190   79.6864  222.8052 H   0  0  0  0  0  0  0  0  0  0  0  0
  137.8631   80.2467  224.2346 H   0  0  0  0  0  0  0  0  0  0  0  0
  139.5921   80.8326  220.3134 H   0  0  0  0  0  0  0  0  0  0  0  0
  138.7519   79.3927  220.7937 H   0  0  0  0  0  0  0  0  0  0  0  0
  137.3046   81.2128  219.4121 H   0  0  0  0  0  0  0  0  0  0  0  0
  136.5087   80.6632  220.8577 H   0  0  0  0  0  0  0  0  0  0  0  0
  137.2505   83.8664  219.6594 H   0  0  0  0  0  0  0  0  0  0  0  0
  138.4207   84.2311  221.0953 H   0  0  0  0  0  0  0  0  0  0  0  0
  139.4480   84.3173  218.8499 H   0  0  0  0  0  0  0  0  0  0  0  0
  138.5516   81.5885  218.7449 H   0  0  0  0  0  0  0  0  0  0  0  0
  138.6200   82.9888  217.5451 H   0  0  0  0  0  0  0  0  0  0  0  0
  140.4189   80.8168  217.8801 H   0  0  0  0  0  0  0  0  0  0  0  0
  140.4197   82.2197  216.7025 H   0  0  0  0  0  0  0  0  0  0  0  0
  142.5453   81.9443  218.0064 H   0  0  0  0  0  0  0  0  0  0  0  0
  141.8002   83.5308  218.1549 H   0  0  0  0  0  0  0  0  0  0  0  0
  141.0943   81.1863  220.0570 H   0  0  0  0  0  0  0  0  0  0  0  0
  142.4155   82.2993  220.4354 H   0  0  0  0  0  0  0  0  0  0  0  0
  140.0846   82.8959  221.3295 H   0  0  0  0  0  0  0  0  0  0  0  0
  140.9848   84.1815  220.3669 H   0  0  0  0  0  0  0  0  0  0  0  0
  139.1017   83.0535  222.4077 H   0  0  0  0  0  0  0  0  0  0  0  0
  137.6113   82.4627  223.1731 H   0  0  0  0  0  0  0  0  0  0  0  0
  141.2810   82.6732  222.7865 H   0  0  0  0  0  0  0  0  0  0  0  0
  143.3236   81.8107  223.8261 H   0  0  0  0  0  0  0  0  0  0  0  0
  143.4853   79.4265  224.5611 H   0  0  0  0  0  0  0  0  0  0  0  0
  141.5251   77.9285  224.2171 H   0  0  0  0  0  0  0  0  0  0  0  0
  1  2  2  0
  2  3  1  0
  3  4  2  0
  4  5  1  0
  5  6  2  0
  6  7  1  0
  7  8  1  0
  8  9  1  0
  9 10  2  0
 10 11  1  0
 11 12  1  0
  7 13  2  0
 13 14  1  0
 14 15  2  0
 15 16  1  0
  2 17  1  0
 17 18  1  0
 19 18  1  1
 19 20  1  0
 20 21  1  0
 21 22  1  0
 22 23  1  0
 23 24  1  0
 24 25  1  0
 25 26  1  0
 26 27  1  0
 27 28  1  0
 28 29  1  0
 22 30  1  0
 19 31  1  0
 31 32  2  0
 32 33  1  0
 33 34  2  0
 34 35  1  0
 35 36  2  0
 16  3  1  0
 36 17  1  0
 15  5  1  0
 30 19  1  0
 36 31  1  0
 12  8  2  0
 29 24  1  0
  4 37  1  0
  6 38  1  0
  9 39  1  0
 11 40  1  0
 12 41  1  0
 13 42  1  0
 14 43  1  0
 16 44  1  0
 18 45  1  0
 18 46  1  0
 20 47  1  0
 20 48  1  0
 21 49  1  0
 21 50  1  0
 23 51  1  0
 23 52  1  0
 24 53  1  0
 25 54  1  0
 25 55  1  0
 26 56  1  0
 26 57  1  0
 27 58  1  0
 27 59  1  0
 28 60  1  0
 28 61  1  0
 29 62  1  0
 29 63  1  0
 30 64  1  0
 30 65  1  0
 32 66  1  0
 33 67  1  0
 34 68  1  0
 35 69  1  0
M  END
>  <smiles>  (20) 
O=C(c1cc2cc(-c3cn[nH]c3)ccc2[nH]1)N1C[C@]2(CCN(CC3CCCCC3)C2)c2ccccc21

>  <score_type>  (20) 
oracle

>  <origin>  (20) 
autodockgpu

>  <m_score__min__energy>  (20) 
-9.5899999999999999

>  <m_primary>  (20) 
energy

>  <rmsd>  (20) 
5.381227005657172

>  <m_score__min__rmsd>  (20) 
5.381227005657172

>  <meeko>  (20) 
{"free_energy": -8.79, "intermolecular_energy": -10.28, "internal_energy": -2.08, "cluster_size": 20, "cluster_id": 6, "rank_in_cluster": 1}

>  <energy>  (20) 
-8.84

>  <cluster_rmsd>  (20) 
0.43

>  <cluster>  (20) 
4

$$$$

     RDKit          3D

 69 75  0  0  0  0  0  0  0  0999 V2000
  139.7230   73.6450  219.4260 O   0  0  0  0  0  0  0  0  0  0  0  0
  140.1670   73.9570  220.6120 C   0  0  0  0  0  0  0  0  0  0  0  0
  139.8230   72.9900  221.6300 C   0  0  0  0  0  0  0  0  0  0  0  0
  140.7170   72.5710  222.5970 C   0  0  0  0  0  0  0  0  0  0  0  0
  140.1040   71.6730  223.4640 C   0  0  0  0  0  0  0  0  0  0  0  0
  140.5200   70.9870  224.5730 C   0  0  0  0  0  0  0  0  0  0  0  0
  139.6360   70.1680  225.2310 C   0  0  0  0  0  0  0  0  0  0  0  0
  140.0020   69.4160  226.4370 C   0  0  0  0  0  0  0  0  0  0  0  0
  139.9330   69.7970  227.7570 C   0  0  0  0  0  0  0  0  0  0  0  0
  140.3830   68.7780  228.5090 N   0  0  0  0  0  0  0  0  0  0  0  0
  140.7350   67.7650  227.7330 N   0  0  0  0  0  0  0  0  0  0  0  0
  140.5160   68.1180  226.4510 C   0  0  0  0  0  0  0  0  0  0  0  0
  138.3140   70.0100  224.8020 C   0  0  0  0  0  0  0  0  0  0  0  0
  137.9490   70.7240  223.6780 C   0  0  0  0  0  0  0  0  0  0  0  0
  138.8230   71.5530  223.0050 C   0  0  0  0  0  0  0  0  0  0  0  0
  138.6790   72.3510  221.9060 N   0  0  0  0  0  0  0  0  0  0  0  0
  140.8810   75.1280  220.6910 N   0  0  0  0  0  0  0  0  0  0  0  0
  141.0930   75.8490  221.9940 C   0  0  0  0  0  0  0  0  0  0  0  0
  140.6250   77.2120  221.4950 C   0  0  1  0  0  0  0  0  0  0  0  0
  139.1450   77.1320  221.2990 C   0  0  0  0  0  0  0  0  0  0  0  0
  138.6460   77.5250  222.7200 C   0  0  0  0  0  0  0  0  0  0  0  0
  139.4800   78.6190  223.0100 N   0  0  0  0  0  0  0  0  0  0  0  0
  139.1030   79.9420  222.8050 C   0  0  0  0  0  0  0  0  0  0  0  0
  139.8170   80.8000  221.8090 C   0  0  0  0  0  0  0  0  0  0  0  0
  140.9550   81.5230  222.3530 C   0  0  0  0  0  0  0  0  0  0  0  0
  141.4050   82.7350  221.5630 C   0  0  0  0  0  0  0  0  0  0  0  0
  140.5950   82.9980  220.3300 C   0  0  0  0  0  0  0  0  0  0  0  0
  139.1450   83.0390  220.8320 C   0  0  0  0  0  0  0  0  0  0  0  0
  138.7720   81.6130  221.1010 C   0  0  0  0  0  0  0  0  0  0  0  0
  140.8040   78.3270  222.4480 C   0  0  0  0  0  0  0  0  0  0  0  0
  141.3930   77.3120  220.2280 C   0  0  0  0  0  0  0  0  0  0  0  0
  141.9650   78.3000  219.4660 C   0  0  0  0  0  0  0  0  0  0  0  0
  142.6310   78.0070  218.3050 C   0  0  0  0  0  0  0  0  0  0  0  0
  142.7530   76.6920  217.8500 C   0  0  0  0  0  0  0  0  0  0  0  0
  142.1850   75.6880  218.5980 C   0  0  0  0  0  0  0  0  0  0  0  0
  141.5190   75.9940  219.7650 C   0  0  0  0  0  0  0  0  0  0  0  0
  141.7639   72.9007  222.6704 H   0  0  0  0  0  0  0  0  0  0  0  0
  141.5539   71.0910  224.9340 H   0  0  0  0  0  0  0  0  0  0  0  0
  139.5725   70.7664  228.1316 H   0  0  0  0  0  0  0  0  0  0  0  0
  141.1190   66.8540  228.0900 H   0  0  0  0  0  0  0  0  0  0  0  0
  140.7090   67.4914  225.5678 H   0  0  0  0  0  0  0  0  0  0  0  0
  137.6057   69.3545  225.3299 H   0  0  0  0  0  0  0  0  0  0  0  0
  136.9191   70.6280  223.3036 H   0  0  0  0  0  0  0  0  0  0  0  0
  137.7830   72.4110  221.4130 H   0  0  0  0  0  0  0  0  0  0  0  0
  140.4646   75.4543  222.8060 H   0  0  0  0  0  0  0  0  0  0  0  0
  142.0961   75.7943  222.4421 H   0  0  0  0  0  0  0  0  0  0  0  0
  138.7978   77.8441  220.5358 H   0  0  0  0  0  0  0  0  0  0  0  0
  138.7832   76.1569  220.9407 H   0  0  0  0  0  0  0  0  0  0  0  0
  137.5859   77.8184  222.7080 H   0  0  0  0  0  0  0  0  0  0  0  0
  138.6973   76.7105  223.4575 H   0  0  0  0  0  0  0  0  0  0  0  0
  138.0461   79.9227  222.5008 H   0  0  0  0  0  0  0  0  0  0  0  0
  139.3591   80.4182  223.7629 H   0  0  0  0  0  0  0  0  0  0  0  0
  140.3334   80.1848  221.0574 H   0  0  0  0  0  0  0  0  0  0  0  0
  140.6880   81.8602  223.3654 H   0  0  0  0  0  0  0  0  0  0  0  0
  141.7986   80.8176  222.3243 H   0  0  0  0  0  0  0  0  0  0  0  0
  141.3365   83.6176  222.2159 H   0  0  0  0  0  0  0  0  0  0  0  0
  142.4332   82.5317  221.2292 H   0  0  0  0  0  0  0  0  0  0  0  0
  140.8776   83.9590  219.8755 H   0  0  0  0  0  0  0  0  0  0  0  0
  140.7501   82.2342  219.5538 H   0  0  0  0  0  0  0  0  0  0  0  0
  139.0744   83.6349  221.7539 H   0  0  0  0  0  0  0  0  0  0  0  0
  138.4723   83.5042  220.0964 H   0  0  0  0  0  0  0  0  0  0  0  0
  137.8624   81.6104  221.7195 H   0  0  0  0  0  0  0  0  0  0  0  0
  138.6359   81.1427  220.1159 H   0  0  0  0  0  0  0  0  0  0  0  0
  141.1979   79.2118  221.9264 H   0  0  0  0  0  0  0  0  0  0  0  0
  141.5193   78.0595  223.2397 H   0  0  0  0  0  0  0  0  0  0  0  0
  141.8872   79.3472  219.7937 H   0  0  0  0  0  0  0  0  0  0  0  0
  143.0785   78.8237  217.7195 H   0  0  0  0  0  0  0  0  0  0  0  0
  143.2899   76.4655  216.9170 H   0  0  0  0  0  0  0  0  0  0  0  0
  142.2620   74.6423  218.2655 H   0  0  0  0  0  0  0  0  0  0  0  0
  1  2  2  0
  2  3  1  0
  3  4  2  0
  4  5  1  0
  5  6  2  0
  6  7  1  0
  7  8  1  0
  8  9  1  0
  9 10  2  0
 10 11  1  0
 11 12  1  0
  7 13  2  0
 13 14  1  0
 14 15  2  0
 15 16  1  0
  2 17  1  0
 17 18  1  0
 19 18  1  1
 19 20  1  0
 20 21  1  0
 21 22  1  0
 22 23  1  0
 23 24  1  0
 24 25  1  0
 25 26  1  0
 26 27  1  0
 27 28  1  0
 28 29  1  0
 22 30  1  0
 19 31  1  0
 31 32  2  0
 32 33  1  0
 33 34  2  0
 34 35  1  0
 35 36  2  0
 16  3  1  0
 36 17  1  0
 15  5  1  0
 30 19  1  0
 36 31  1  0
 12  8  2  0
 29 24  1  0
  4 37  1  0
  6 38  1  0
  9 39  1  0
 11 40  1  0
 12 41  1  0
 13 42  1  0
 14 43  1  0
 16 44  1  0
 18 45  1  0
 18 46  1  0
 20 47  1  0
 20 48  1  0
 21 49  1  0
 21 50  1  0
 23 51  1  0
 23 52  1  0
 24 53  1  0
 25 54  1  0
 25 55  1  0
 26 56  1  0
 26 57  1  0
 27 58  1  0
 27 59  1  0
 28 60  1  0
 28 61  1  0
 29 62  1  0
 29 63  1  0
 30 64  1  0
 30 65  1  0
 32 66  1  0
 33 67  1  0
 34 68  1  0
 35 69  1  0
M  END
>  <smiles>  (21) 
O=C(c1cc2cc(-c3cn[nH]c3)ccc2[nH]1)N1C[C@]2(CCN(CC3CCCCC3)C2)c2ccccc21

>  <score_type>  (21) 
oracle

>  <origin>  (21) 
autodockgpu

>  <m_score__min__energy>  (21) 
-9.5899999999999999

>  <m_primary>  (21) 
energy

>  <rmsd>  (21) 
2.386309113742659

>  <m_score__min__rmsd>  (21) 
2.386309113742659

>  <meeko>  (21) 
{"free_energy": -8.84, "intermolecular_energy": -10.33, "internal_energy": -1.78, "cluster_size": 3, "cluster_id": 3, "rank_in_cluster": 2}

>  <energy>  (21) 
-8.79

>  <cluster_rmsd>  (21) 
0.49

>  <cluster>  (21) 
4

$$$$

     RDKit          3D

 69 75  0  0  0  0  0  0  0  0999 V2000
  139.1650   73.9080  219.6620 O   0  0  0  0  0  0  0  0  0  0  0  0
  139.8900   74.0640  220.7360 C   0  0  0  0  0  0  0  0  0  0  0  0
  139.6550   73.0530  221.7420 C   0  0  0  0  0  0  0  0  0  0  0  0
  140.5930   72.7170  222.6990 C   0  0  0  0  0  0  0  0  0  0  0  0
  140.0830   71.7490  223.5560 C   0  0  0  0  0  0  0  0  0  0  0  0
  140.5750   71.0950  224.6530 C   0  0  0  0  0  0  0  0  0  0  0  0
  139.7850   70.1800  225.3050 C   0  0  0  0  0  0  0  0  0  0  0  0
  140.2350   69.4540  226.4990 C   0  0  0  0  0  0  0  0  0  0  0  0
  140.5650   69.9400  227.7420 C   0  0  0  0  0  0  0  0  0  0  0  0
  140.9270   68.9000  228.5140 N   0  0  0  0  0  0  0  0  0  0  0  0
  140.8430   67.7740  227.8220 N   0  0  0  0  0  0  0  0  0  0  0  0
  140.4210   68.0720  226.5770 C   0  0  0  0  0  0  0  0  0  0  0  0
  138.4840   69.8910  224.8800 C   0  0  0  0  0  0  0  0  0  0  0  0
  138.0390   70.5770  223.7680 C   0  0  0  0  0  0  0  0  0  0  0  0
  138.8180   71.5020  223.1020 C   0  0  0  0  0  0  0  0  0  0  0  0
  138.5850   72.2950  222.0150 N   0  0  0  0  0  0  0  0  0  0  0  0
  140.7450   75.1390  220.7260 N   0  0  0  0  0  0  0  0  0  0  0  0
  141.0980   75.8910  221.9800 C   0  0  0  0  0  0  0  0  0  0  0  0
  140.7800   77.2760  221.4260 C   0  0  1  0  0  0  0  0  0  0  0  0
  139.2950   77.3710  221.2880 C   0  0  0  0  0  0  0  0  0  0  0  0
  138.9090   77.8930  222.7030 C   0  0  0  0  0  0  0  0  0  0  0  0
  139.8820   78.8870  222.9030 N   0  0  0  0  0  0  0  0  0  0  0  0
  139.6620   80.2350  222.6410 C   0  0  0  0  0  0  0  0  0  0  0  0
  140.4710   80.9610  221.6140 C   0  0  0  0  0  0  0  0  0  0  0  0
  140.6250   82.3830  221.8760 C   0  0  0  0  0  0  0  0  0  0  0  0
  140.9950   83.2370  220.6790 C   0  0  0  0  0  0  0  0  0  0  0  0
  141.1450   82.4680  219.4020 C   0  0  0  0  0  0  0  0  0  0  0  0
  139.8290   81.6870  219.2730 C   0  0  0  0  0  0  0  0  0  0  0  0
  139.9240   80.5740  220.2710 C   0  0  0  0  0  0  0  0  0  0  0  0
  141.1350   78.4050  222.3100 C   0  0  0  0  0  0  0  0  0  0  0  0
  141.5010   77.2170  220.1290 C   0  0  0  0  0  0  0  0  0  0  0  0
  142.1570   78.0880  219.2950 C   0  0  0  0  0  0  0  0  0  0  0  0
  142.7320   77.6580  218.1280 C   0  0  0  0  0  0  0  0  0  0  0  0
  142.6720   76.3170  217.7400 C   0  0  0  0  0  0  0  0  0  0  0  0
  142.0170   75.4300  218.5610 C   0  0  0  0  0  0  0  0  0  0  0  0
  141.4440   75.8720  219.7320 C   0  0  0  0  0  0  0  0  0  0  0  0
  141.6001   73.1534  222.7723 H   0  0  0  0  0  0  0  0  0  0  0  0
  141.5951   71.3006  225.0097 H   0  0  0  0  0  0  0  0  0  0  0  0
  140.5377   70.9953  228.0511 H   0  0  0  0  0  0  0  0  0  0  0  0
  141.0770   66.8250  228.2100 H   0  0  0  0  0  0  0  0  0  0  0  0
  140.2523   67.3514  225.7632 H   0  0  0  0  0  0  0  0  0  0  0  0
  137.8513   69.1584  225.4025 H   0  0  0  0  0  0  0  0  0  0  0  0
  137.0225   70.3787  223.3974 H   0  0  0  0  0  0  0  0  0  0  0  0
  137.6840   72.2680  221.5280 H   0  0  0  0  0  0  0  0  0  0  0  0
  140.4606   75.6176  222.8338 H   0  0  0  0  0  0  0  0  0  0  0  0
  142.1049   75.7339  222.3942 H   0  0  0  0  0  0  0  0  0  0  0  0
  139.0054   78.0821  220.5003 H   0  0  0  0  0  0  0  0  0  0  0  0
  138.8016   76.4321  220.9964 H   0  0  0  0  0  0  0  0  0  0  0  0
  137.8934   78.3154  222.7135 H   0  0  0  0  0  0  0  0  0  0  0  0
  138.8915   77.1158  223.4813 H   0  0  0  0  0  0  0  0  0  0  0  0
  138.6101   80.3262  222.3326 H   0  0  0  0  0  0  0  0  0  0  0  0
  139.9718   80.7180  223.5795 H   0  0  0  0  0  0  0  0  0  0  0  0
  141.5259   80.6515  221.6508 H   0  0  0  0  0  0  0  0  0  0  0  0
  139.6715   82.7578  222.2765 H   0  0  0  0  0  0  0  0  0  0  0  0
  141.4685   82.4686  222.5769 H   0  0  0  0  0  0  0  0  0  0  0  0
  140.2080   83.9923  220.5370 H   0  0  0  0  0  0  0  0  0  0  0  0
  141.9766   83.6823  220.8983 H   0  0  0  0  0  0  0  0  0  0  0  0
  141.2784   83.1503  218.5496 H   0  0  0  0  0  0  0  0  0  0  0  0
  142.0259   81.8092  219.4089 H   0  0  0  0  0  0  0  0  0  0  0  0
  138.9721   82.3372  219.5029 H   0  0  0  0  0  0  0  0  0  0  0  0
  139.6785   81.3072  218.2516 H   0  0  0  0  0  0  0  0  0  0  0  0
  138.9140   80.1647  220.4206 H   0  0  0  0  0  0  0  0  0  0  0  0
  140.6360   79.8486  219.8504 H   0  0  0  0  0  0  0  0  0  0  0  0
  141.6118   79.2071  221.7275 H   0  0  0  0  0  0  0  0  0  0  0  0
  141.8453   78.0896  223.0884 H   0  0  0  0  0  0  0  0  0  0  0  0
  142.2223   79.1514  219.5688 H   0  0  0  0  0  0  0  0  0  0  0  0
  143.2512   78.3829  217.4838 H   0  0  0  0  0  0  0  0  0  0  0  0
  143.1369   75.9798  216.8018 H   0  0  0  0  0  0  0  0  0  0  0  0
  141.9508   74.3679  218.2824 H   0  0  0  0  0  0  0  0  0  0  0  0
  1  2  2  0
  2  3  1  0
  3  4  2  0
  4  5  1  0
  5  6  2  0
  6  7  1  0
  7  8  1  0
  8  9  1  0
  9 10  2  0
 10 11  1  0
 11 12  1  0
  7 13  2  0
 13 14  1  0
 14 15  2  0
 15 16  1  0
  2 17  1  0
 17 18  1  0
 19 18  1  1
 19 20  1  0
 20 21  1  0
 21 22  1  0
 22 23  1  0
 23 24  1  0
 24 25  1  0
 25 26  1  0
 26 27  1  0
 27 28  1  0
 28 29  1  0
 22 30  1  0
 19 31  1  0
 31 32  2  0
 32 33  1  0
 33 34  2  0
 34 35  1  0
 35 36  2  0
 16  3  1  0
 36 17  1  0
 15  5  1  0
 30 19  1  0
 36 31  1  0
 12  8  2  0
 29 24  1  0
  4 37  1  0
  6 38  1  0
  9 39  1  0
 11 40  1  0
 12 41  1  0
 13 42  1  0
 14 43  1  0
 16 44  1  0
 18 45  1  0
 18 46  1  0
 20 47  1  0
 20 48  1  0
 21 49  1  0
 21 50  1  0
 23 51  1  0
 23 52  1  0
 24 53  1  0
 25 54  1  0
 25 55  1  0
 26 56  1  0
 26 57  1  0
 27 58  1  0
 27 59  1  0
 28 60  1  0
 28 61  1  0
 29 62  1  0
 29 63  1  0
 30 64  1  0
 30 65  1  0
 32 66  1  0
 33 67  1  0
 34 68  1  0
 35 69  1  0
M  END
>  <smiles>  (22) 
O=C(c1cc2cc(-c3cn[nH]c3)ccc2[nH]1)N1C[C@]2(CCN(CC3CCCCC3)C2)c2ccccc21

>  <score_type>  (22) 
oracle

>  <origin>  (22) 
autodockgpu

>  <m_score__min__energy>  (22) 
-9.5899999999999999

>  <m_primary>  (22) 
energy

>  <rmsd>  (22) 
2.3672808240718295

>  <m_score__min__rmsd>  (22) 
2.3672808240718295

>  <meeko>  (22) 
{"free_energy": -8.65, "intermolecular_energy": -10.14, "internal_energy": -1.91, "cluster_size": 3, "cluster_id": 3, "rank_in_cluster": 3}

>  <energy>  (22) 
-8.85

>  <cluster_rmsd>  (22) 
0.0

>  <cluster>  (22) 
5

$$$$

     RDKit          3D

 69 75  0  0  0  0  0  0  0  0999 V2000
  139.9820   74.8650  222.2050 O   0  0  0  0  0  0  0  0  0  0  0  0
  140.9330   75.4690  221.5480 C   0  0  0  0  0  0  0  0  0  0  0  0
  141.9920   74.5830  221.1210 C   0  0  0  0  0  0  0  0  0  0  0  0
  141.8020   73.2280  220.9300 C   0  0  0  0  0  0  0  0  0  0  0  0
  142.9770   72.6350  220.4810 C   0  0  0  0  0  0  0  0  0  0  0  0
  143.3250   71.3570  220.1330 C   0  0  0  0  0  0  0  0  0  0  0  0
  144.6020   71.0990  219.7010 C   0  0  0  0  0  0  0  0  0  0  0  0
  145.0450   69.7610  219.2920 C   0  0  0  0  0  0  0  0  0  0  0  0
  145.9570   69.4020  218.3270 C   0  0  0  0  0  0  0  0  0  0  0  0
  146.0310   68.0590  218.3040 N   0  0  0  0  0  0  0  0  0  0  0  0
  145.2110   67.5460  219.2070 N   0  0  0  0  0  0  0  0  0  0  0  0
  144.5850   68.5600  219.8360 C   0  0  0  0  0  0  0  0  0  0  0  0
  145.5690   72.1070  219.6050 C   0  0  0  0  0  0  0  0  0  0  0  0
  145.1640   73.3760  219.9710 C   0  0  0  0  0  0  0  0  0  0  0  0
  143.8840   73.6530  220.4050 C   0  0  0  0  0  0  0  0  0  0  0  0
  143.2700   74.8100  220.7930 N   0  0  0  0  0  0  0  0  0  0  0  0
  140.7680   76.8220  221.3700 N   0  0  0  0  0  0  0  0  0  0  0  0
  139.9820   77.3860  220.2190 C   0  0  0  0  0  0  0  0  0  0  0  0
  141.0600   78.3620  219.7580 C   0  0  1  0  0  0  0  0  0  0  0  0
  142.1630   77.5550  219.1530 C   0  0  0  0  0  0  0  0  0  0  0  0
  141.6740   77.4610  217.6780 C   0  0  0  0  0  0  0  0  0  0  0  0
  141.2630   78.7840  217.4420 N   0  0  0  0  0  0  0  0  0  0  0  0
  142.0700   79.7370  216.8310 C   0  0  0  0  0  0  0  0  0  0  0  0
  142.0030   81.1760  217.2340 C   0  0  0  0  0  0  0  0  0  0  0  0
  141.1820   82.0000  216.3620 C   0  0  0  0  0  0  0  0  0  0  0  0
  141.4520   83.4900  216.4180 C   0  0  0  0  0  0  0  0  0  0  0  0
  142.5350   83.8810  217.3770 C   0  0  0  0  0  0  0  0  0  0  0  0
  143.7320   83.0080  216.9720 C   0  0  0  0  0  0  0  0  0  0  0  0
  143.4130   81.6330  217.4700 C   0  0  0  0  0  0  0  0  0  0  0  0
  140.6540   79.2860  218.6790 C   0  0  0  0  0  0  0  0  0  0  0  0
  141.4190   78.9940  221.0530 C   0  0  0  0  0  0  0  0  0  0  0  0
  141.8530   80.2190  221.4950 C   0  0  0  0  0  0  0  0  0  0  0  0
  142.0880   80.4530  222.8250 C   0  0  0  0  0  0  0  0  0  0  0  0
  141.8960   79.4540  223.7820 C   0  0  0  0  0  0  0  0  0  0  0  0
  141.4630   78.2200  223.3590 C   0  0  0  0  0  0  0  0  0  0  0  0
  141.2290   77.9960  222.0200 C   0  0  0  0  0  0  0  0  0  0  0  0
  140.8566   72.6945  221.1076 H   0  0  0  0  0  0  0  0  0  0  0  0
  142.5871   70.5439  220.1991 H   0  0  0  0  0  0  0  0  0  0  0  0
  146.5260   70.0919  217.6865 H   0  0  0  0  0  0  0  0  0  0  0  0
  145.0920   66.5150  219.3770 H   0  0  0  0  0  0  0  0  0  0  0  0
  143.8403   68.4591  220.6392 H   0  0  0  0  0  0  0  0  0  0  0  0
  146.5922   71.9004  219.2581 H   0  0  0  0  0  0  0  0  0  0  0  0
  145.8916   74.1990  219.9141 H   0  0  0  0  0  0  0  0  0  0  0  0
  143.7800   75.7000  220.7990 H   0  0  0  0  0  0  0  0  0  0  0  0
  139.7393   76.6296  219.4582 H   0  0  0  0  0  0  0  0  0  0  0  0
  138.9890   77.8024  220.4438 H   0  0  0  0  0  0  0  0  0  0  0  0
  143.1313   78.0717  219.2271 H   0  0  0  0  0  0  0  0  0  0  0  0
  142.3388   76.5840  219.6391 H   0  0  0  0  0  0  0  0  0  0  0  0
  142.4891   77.1653  217.0011 H   0  0  0  0  0  0  0  0  0  0  0  0
  140.8903   76.7078  217.5093 H   0  0  0  0  0  0  0  0  0  0  0  0
  143.1097   79.4155  216.9911 H   0  0  0  0  0  0  0  0  0  0  0  0
  141.6844   79.7561  215.8010 H   0  0  0  0  0  0  0  0  0  0  0  0
  141.4479   81.2960  218.1761 H   0  0  0  0  0  0  0  0  0  0  0  0
  141.3474   81.6655  215.3272 H   0  0  0  0  0  0  0  0  0  0  0  0
  140.1479   81.8699  216.7138 H   0  0  0  0  0  0  0  0  0  0  0  0
  141.7438   83.8260  215.4120 H   0  0  0  0  0  0  0  0  0  0  0  0
  140.5266   83.9664  216.7739 H   0  0  0  0  0  0  0  0  0  0  0  0
  142.7790   84.9488  217.2753 H   0  0  0  0  0  0  0  0  0  0  0  0
  142.2416   83.7320  218.4266 H   0  0  0  0  0  0  0  0  0  0  0  0
  143.8509   83.0025  215.8785 H   0  0  0  0  0  0  0  0  0  0  0  0
  144.6740   83.3864  217.3956 H   0  0  0  0  0  0  0  0  0  0  0  0
  144.0883   80.9246  216.9679 H   0  0  0  0  0  0  0  0  0  0  0  0
  143.5427   81.6674  218.5618 H   0  0  0  0  0  0  0  0  0  0  0  0
  141.0157   80.3023  218.8942 H   0  0  0  0  0  0  0  0  0  0  0  0
  139.5586   79.3329  218.5898 H   0  0  0  0  0  0  0  0  0  0  0  0
  142.0153   81.0284  220.7679 H   0  0  0  0  0  0  0  0  0  0  0  0
  142.4345   81.4468  223.1448 H   0  0  0  0  0  0  0  0  0  0  0  0
  142.0865   79.6499  224.8475 H   0  0  0  0  0  0  0  0  0  0  0  0
  141.3035   77.4124  224.0886 H   0  0  0  0  0  0  0  0  0  0  0  0
  1  2  2  0
  2  3  1  0
  3  4  2  0
  4  5  1  0
  5  6  2  0
  6  7  1  0
  7  8  1  0
  8  9  1  0
  9 10  2  0
 10 11  1  0
 11 12  1  0
  7 13  2  0
 13 14  1  0
 14 15  2  0
 15 16  1  0
  2 17  1  0
 17 18  1  0
 19 18  1  1
 19 20  1  0
 20 21  1  0
 21 22  1  0
 22 23  1  0
 23 24  1  0
 24 25  1  0
 25 26  1  0
 26 27  1  0
 27 28  1  0
 28 29  1  0
 22 30  1  0
 19 31  1  0
 31 32  2  0
 32 33  1  0
 33 34  2  0
 34 35  1  0
 35 36  2  0
 16  3  1  0
 36 17  1  0
 15  5  1  0
 30 19  1  0
 36 31  1  0
 12  8  2  0
 29 24  1  0
  4 37  1  0
  6 38  1  0
  9 39  1  0
 11 40  1  0
 12 41  1  0
 13 42  1  0
 14 43  1  0
 16 44  1  0
 18 45  1  0
 18 46  1  0
 20 47  1  0
 20 48  1  0
 21 49  1  0
 21 50  1  0
 23 51  1  0
 23 52  1  0
 24 53  1  0
 25 54  1  0
 25 55  1  0
 26 56  1  0
 26 57  1  0
 27 58  1  0
 27 59  1  0
 28 60  1  0
 28 61  1  0
 29 62  1  0
 29 63  1  0
 30 64  1  0
 30 65  1  0
 32 66  1  0
 33 67  1  0
 34 68  1  0
 35 69  1  0
M  END
>  <smiles>  (23) 
O=C(c1cc2cc(-c3cn[nH]c3)ccc2[nH]1)N1C[C@]2(CCN(CC3CCCCC3)C2)c2ccccc21

>  <score_type>  (23) 
oracle

>  <origin>  (23) 
autodockgpu

>  <m_score__min__energy>  (23) 
-9.5899999999999999

>  <m_primary>  (23) 
energy

>  <rmsd>  (23) 
5.968236043813435

>  <m_score__min__rmsd>  (23) 
5.968236043813435

>  <meeko>  (23) 
{"free_energy": -8.78, "intermolecular_energy": -10.27, "internal_energy": -1.79, "cluster_size": 1, "cluster_id": 7, "rank_in_cluster": 1}

>  <energy>  (23) 
-8.73

>  <cluster_rmsd>  (23) 
0.6

>  <cluster>  (23) 
5

$$$$

     RDKit          3D

 69 75  0  0  0  0  0  0  0  0999 V2000
  137.4950   77.2620  222.7750 O   0  0  0  0  0  0  0  0  0  0  0  0
  138.7710   77.5230  222.7060 C   0  0  0  0  0  0  0  0  0  0  0  0
  139.5670   76.4000  222.2630 C   0  0  0  0  0  0  0  0  0  0  0  0
  140.8000   76.5490  221.6580 C   0  0  0  0  0  0  0  0  0  0  0  0
  141.3530   75.3050  221.3770 C   0  0  0  0  0  0  0  0  0  0  0  0
  142.5290   74.8930  220.8110 C   0  0  0  0  0  0  0  0  0  0  0  0
  142.7870   73.5500  220.6900 C   0  0  0  0  0  0  0  0  0  0  0  0
  144.0320   73.0300  220.1130 C   0  0  0  0  0  0  0  0  0  0  0  0
  144.9370   73.6550  219.2870 C   0  0  0  0  0  0  0  0  0  0  0  0
  145.9210   72.7810  219.0100 N   0  0  0  0  0  0  0  0  0  0  0  0
  145.6860   71.6300  219.6200 N   0  0  0  0  0  0  0  0  0  0  0  0
  144.5340   71.7420  220.3090 C   0  0  0  0  0  0  0  0  0  0  0  0
  141.8770   72.5800  221.1290 C   0  0  0  0  0  0  0  0  0  0  0  0
  140.7070   73.0520  221.6900 C   0  0  0  0  0  0  0  0  0  0  0  0
  140.4340   74.3980  221.8210 C   0  0  0  0  0  0  0  0  0  0  0  0
  139.3730   75.0780  222.3480 N   0  0  0  0  0  0  0  0  0  0  0  0
  139.1370   78.8010  223.0540 N   0  0  0  0  0  0  0  0  0  0  0  0
  138.1350   79.9160  223.1700 C   0  0  0  0  0  0  0  0  0  0  0  0
  138.8910   80.8980  222.2820 C   0  0  1  0  0  0  0  0  0  0  0  0
  138.7920   80.3960  220.8780 C   0  0  0  0  0  0  0  0  0  0  0  0
  137.4640   81.0700  220.4240 C   0  0  0  0  0  0  0  0  0  0  0  0
  137.6310   82.3710  220.9280 N   0  0  0  0  0  0  0  0  0  0  0  0
  138.1140   83.4290  220.1670 C   0  0  0  0  0  0  0  0  0  0  0  0
  139.3230   83.2660  219.3010 C   0  0  0  0  0  0  0  0  0  0  0  0
  139.1650   82.2870  218.2380 C   0  0  0  0  0  0  0  0  0  0  0  0
  140.4500   81.7350  217.6550 C   0  0  0  0  0  0  0  0  0  0  0  0
  141.6940   82.2940  218.2750 C   0  0  0  0  0  0  0  0  0  0  0  0
  141.5020   82.0660  219.7810 C   0  0  0  0  0  0  0  0  0  0  0  0
  140.4990   83.0900  220.2170 C   0  0  0  0  0  0  0  0  0  0  0  0
  138.3200   82.2600  222.2200 C   0  0  0  0  0  0  0  0  0  0  0  0
  140.2530   80.7920  222.8640 C   0  0  0  0  0  0  0  0  0  0  0  0
  141.3400   81.6080  223.0490 C   0  0  0  0  0  0  0  0  0  0  0  0
  142.4790   81.1480  223.6570 C   0  0  0  0  0  0  0  0  0  0  0  0
  142.5790   79.8310  224.1100 C   0  0  0  0  0  0  0  0  0  0  0  0
  141.4990   78.9970  223.9330 C   0  0  0  0  0  0  0  0  0  0  0  0
  140.3590   79.4700  223.3210 C   0  0  0  0  0  0  0  0  0  0  0  0
  141.2762   77.5143  221.4310 H   0  0  0  0  0  0  0  0  0  0  0  0
  143.2619   75.6323  220.4557 H   0  0  0  0  0  0  0  0  0  0  0  0
  144.8680   74.6888  218.9176 H   0  0  0  0  0  0  0  0  0  0  0  0
  146.3150   70.7890  219.5540 H   0  0  0  0  0  0  0  0  0  0  0  0
  144.0690   70.9547  220.9205 H   0  0  0  0  0  0  0  0  0  0  0  0
  142.0827   71.5037  221.0324 H   0  0  0  0  0  0  0  0  0  0  0  0
  139.9623   72.3254  222.0470 H   0  0  0  0  0  0  0  0  0  0  0  0
  138.5720   74.5770  222.7460 H   0  0  0  0  0  0  0  0  0  0  0  0
  137.1493   79.6463  222.7631 H   0  0  0  0  0  0  0  0  0  0  0  0
  137.8729   80.2534  224.1837 H   0  0  0  0  0  0  0  0  0  0  0  0
  139.6446   80.7283  220.2676 H   0  0  0  0  0  0  0  0  0  0  0  0
  138.8039   79.3002  220.7828 H   0  0  0  0  0  0  0  0  0  0  0  0
  137.3671   81.0717  219.3283 H   0  0  0  0  0  0  0  0  0  0  0  0
  136.5556   80.5617  220.7795 H   0  0  0  0  0  0  0  0  0  0  0  0
  137.2929   83.7372  219.5031 H   0  0  0  0  0  0  0  0  0  0  0  0
  138.4585   84.1401  220.9323 H   0  0  0  0  0  0  0  0  0  0  0  0
  139.4993   84.1673  218.6956 H   0  0  0  0  0  0  0  0  0  0  0  0
  138.5864   81.4423  218.6401 H   0  0  0  0  0  0  0  0  0  0  0  0
  138.6664   82.8181  217.4138 H   0  0  0  0  0  0  0  0  0  0  0  0
  140.4533   80.6443  217.7977 H   0  0  0  0  0  0  0  0  0  0  0  0
  140.4668   82.0254  216.5942 H   0  0  0  0  0  0  0  0  0  0  0  0
  142.5845   81.7610  217.9105 H   0  0  0  0  0  0  0  0  0  0  0  0
  141.8477   83.3545  218.0265 H   0  0  0  0  0  0  0  0  0  0  0  0
  141.1224   81.0512  219.9707 H   0  0  0  0  0  0  0  0  0  0  0  0
  142.4491   82.1625  220.3320 H   0  0  0  0  0  0  0  0  0  0  0  0
  140.1184   82.7937  221.2056 H   0  0  0  0  0  0  0  0  0  0  0  0
  141.0294   84.0536  220.2199 H   0  0  0  0  0  0  0  0  0  0  0  0
  139.1215   83.0104  222.2878 H   0  0  0  0  0  0  0  0  0  0  0  0
  137.6256   82.4360  223.0548 H   0  0  0  0  0  0  0  0  0  0  0  0
  141.2967   82.6512  222.7029 H   0  0  0  0  0  0  0  0  0  0  0  0
  143.3316   81.8301  223.7908 H   0  0  0  0  0  0  0  0  0  0  0  0
  143.4974   79.4696  224.5958 H   0  0  0  0  0  0  0  0  0  0  0  0
  141.5458   77.9541  224.2797 H   0  0  0  0  0  0  0  0  0  0  0  0
  1  2  2  0
  2  3  1  0
  3  4  2  0
  4  5  1  0
  5  6  2  0
  6  7  1  0
  7  8  1  0
  8  9  1  0
  9 10  2  0
 10 11  1  0
 11 12  1  0
  7 13  2  0
 13 14  1  0
 14 15  2  0
 15 16  1  0
  2 17  1  0
 17 18  1  0
 19 18  1  1
 19 20  1  0
 20 21  1  0
 21 22  1  0
 22 23  1  0
 23 24  1  0
 24 25  1  0
 25 26  1  0
 26 27  1  0
 27 28  1  0
 28 29  1  0
 22 30  1  0
 19 31  1  0
 31 32  2  0
 32 33  1  0
 33 34  2  0
 34 35  1  0
 35 36  2  0
 16  3  1  0
 36 17  1  0
 15  5  1  0
 30 19  1  0
 36 31  1  0
 12  8  2  0
 29 24  1  0
  4 37  1  0
  6 38  1  0
  9 39  1  0
 11 40  1  0
 12 41  1  0
 13 42  1  0
 14 43  1  0
 16 44  1  0
 18 45  1  0
 18 46  1  0
 20 47  1  0
 20 48  1  0
 21 49  1  0
 21 50  1  0
 23 51  1  0
 23 52  1  0
 24 53  1  0
 25 54  1  0
 25 55  1  0
 26 56  1  0
 26 57  1  0
 27 58  1  0
 27 59  1  0
 28 60  1  0
 28 61  1  0
 29 62  1  0
 29 63  1  0
 30 64  1  0
 30 65  1  0
 32 66  1  0
 33 67  1  0
 34 68  1  0
 35 69  1  0
M  END
>  <smiles>  (24) 
O=C(c1cc2cc(-c3cn[nH]c3)ccc2[nH]1)N1C[C@]2(CCN(CC3CCCCC3)C2)c2ccccc21

>  <score_type>  (24) 
oracle

>  <origin>  (24) 
autodockgpu

>  <m_score__min__energy>  (24) 
-9.5899999999999999

>  <m_primary>  (24) 
energy

>  <rmsd>  (24) 
5.369569613144901

>  <m_score__min__rmsd>  (24) 
5.369569613144901

>  <meeko>  (24) 
{"free_energy": -8.68, "intermolecular_energy": -10.17, "internal_energy": -2.1, "cluster_size": 20, "cluster_id": 6, "rank_in_cluster": 15}

>  <energy>  (24) 
-8.68

>  <cluster_rmsd>  (24) 
1.6

>  <cluster>  (24) 
5

$$$$

     RDKit          3D

 69 75  0  0  0  0  0  0  0  0999 V2000
  137.7650   77.1200  223.0590 O   0  0  0  0  0  0  0  0  0  0  0  0
  138.9800   77.4300  222.6990 C   0  0  0  0  0  0  0  0  0  0  0  0
  139.7520   76.2970  222.2390 C   0  0  0  0  0  0  0  0  0  0  0  0
  140.9820   76.4310  221.6230 C   0  0  0  0  0  0  0  0  0  0  0  0
  141.5110   75.1800  221.3270 C   0  0  0  0  0  0  0  0  0  0  0  0
  142.6740   74.7530  220.7460 C   0  0  0  0  0  0  0  0  0  0  0  0
  142.9070   73.4060  220.6110 C   0  0  0  0  0  0  0  0  0  0  0  0
  144.1380   72.8700  220.0180 C   0  0  0  0  0  0  0  0  0  0  0  0
  145.4030   73.4110  219.9990 C   0  0  0  0  0  0  0  0  0  0  0  0
  146.2070   72.5630  219.3330 N   0  0  0  0  0  0  0  0  0  0  0  0
  145.5160   71.5100  218.9270 N   0  0  0  0  0  0  0  0  0  0  0  0
  144.2390   71.6600  219.3290 C   0  0  0  0  0  0  0  0  0  0  0  0
  141.9860   72.4480  221.0500 C   0  0  0  0  0  0  0  0  0  0  0  0
  140.8290   72.9350  221.6260 C   0  0  0  0  0  0  0  0  0  0  0  0
  140.5800   74.2850  221.7710 C   0  0  0  0  0  0  0  0  0  0  0  0
  139.5360   74.9780  222.3140 N   0  0  0  0  0  0  0  0  0  0  0  0
  139.3130   78.7580  222.8100 N   0  0  0  0  0  0  0  0  0  0  0  0
  138.3360   79.8570  222.4940 C   0  0  0  0  0  0  0  0  0  0  0  0
  139.2620   80.6240  221.5560 C   0  0  1  0  0  0  0  0  0  0  0  0
  139.3980   79.8160  220.3050 C   0  0  0  0  0  0  0  0  0  0  0  0
  138.1880   80.3520  219.4850 C   0  0  0  0  0  0  0  0  0  0  0  0
  138.2990   81.7350  219.7050 N   0  0  0  0  0  0  0  0  0  0  0  0
  138.9360   82.6010  218.8230 C   0  0  0  0  0  0  0  0  0  0  0  0
  140.2140   82.2120  218.1500 C   0  0  0  0  0  0  0  0  0  0  0  0
  140.0830   81.0950  217.2280 C   0  0  0  0  0  0  0  0  0  0  0  0
  141.3660   80.3590  216.8980 C   0  0  0  0  0  0  0  0  0  0  0  0
  142.5800   80.9090  217.5820 C   0  0  0  0  0  0  0  0  0  0  0  0
  142.1980   80.9340  219.0690 C   0  0  0  0  0  0  0  0  0  0  0  0
  141.2560   82.0870  219.2230 C   0  0  0  0  0  0  0  0  0  0  0  0
  138.7470   81.9280  221.0900 C   0  0  0  0  0  0  0  0  0  0  0  0
  140.4980   80.6700  222.3780 C   0  0  0  0  0  0  0  0  0  0  0  0
  141.5580   81.5220  222.5640 C   0  0  0  0  0  0  0  0  0  0  0  0
  142.5600   81.2270  223.4510 C   0  0  0  0  0  0  0  0  0  0  0  0
  142.5430   80.0470  224.1990 C   0  0  0  0  0  0  0  0  0  0  0  0
  141.4900   79.1800  224.0250 C   0  0  0  0  0  0  0  0  0  0  0  0
  140.4870   79.4870  223.1320 C   0  0  0  0  0  0  0  0  0  0  0  0
  141.4720   77.3900  221.3991 H   0  0  0  0  0  0  0  0  0  0  0  0
  143.4163   75.4825  220.3899 H   0  0  0  0  0  0  0  0  0  0  0  0
  145.7038   74.3685  220.4492 H   0  0  0  0  0  0  0  0  0  0  0  0
  145.9270   70.7090  218.3830 H   0  0  0  0  0  0  0  0  0  0  0  0
  143.4177   70.9515  219.1460 H   0  0  0  0  0  0  0  0  0  0  0  0
  142.1728   71.3693  220.9425 H   0  0  0  0  0  0  0  0  0  0  0  0
  140.0754   72.2180  221.9837 H   0  0  0  0  0  0  0  0  0  0  0  0
  138.7300   74.4880  222.7160 H   0  0  0  0  0  0  0  0  0  0  0  0
  137.4299   79.4890  221.9904 H   0  0  0  0  0  0  0  0  0  0  0  0
  137.9096   80.4106  223.3435 H   0  0  0  0  0  0  0  0  0  0  0  0
  140.3527   80.0141  219.7959 H   0  0  0  0  0  0  0  0  0  0  0  0
  139.3982   78.7272  220.4615 H   0  0  0  0  0  0  0  0  0  0  0  0
  138.2837   80.1049  218.4174 H   0  0  0  0  0  0  0  0  0  0  0  0
  137.2183   79.9247  219.7803 H   0  0  0  0  0  0  0  0  0  0  0  0
  138.2142   82.8184  218.0219 H   0  0  0  0  0  0  0  0  0  0  0  0
  139.2493   83.4269  219.4785 H   0  0  0  0  0  0  0  0  0  0  0  0
  140.5444   82.9927  217.4491 H   0  0  0  0  0  0  0  0  0  0  0  0
  139.3832   80.3714  217.6715 H   0  0  0  0  0  0  0  0  0  0  0  0
  139.7351   81.5296  216.2793 H   0  0  0  0  0  0  0  0  0  0  0  0
  141.2476   79.3072  217.1973 H   0  0  0  0  0  0  0  0  0  0  0  0
  141.5303   80.4772  215.8168 H   0  0  0  0  0  0  0  0  0  0  0  0
  143.4506   80.2579  217.4141 H   0  0  0  0  0  0  0  0  0  0  0  0
  142.8622   81.9025  217.2035 H   0  0  0  0  0  0  0  0  0  0  0  0
  141.7038   79.9936  219.3544 H   0  0  0  0  0  0  0  0  0  0  0  0
  143.0820   81.0415  219.7147 H   0  0  0  0  0  0  0  0  0  0  0  0
  140.7389   81.9768  220.1876 H   0  0  0  0  0  0  0  0  0  0  0  0
  141.8731   82.9950  219.1548 H   0  0  0  0  0  0  0  0  0  0  0  0
  139.5435   82.6857  221.1286 H   0  0  0  0  0  0  0  0  0  0  0  0
  137.9216   82.2777  221.7274 H   0  0  0  0  0  0  0  0  0  0  0  0
  141.6040   82.4593  221.9902 H   0  0  0  0  0  0  0  0  0  0  0  0
  143.3941   81.9331  223.5766 H   0  0  0  0  0  0  0  0  0  0  0  0
  143.3513   79.8175  224.9089 H   0  0  0  0  0  0  0  0  0  0  0  0
  141.4486   78.2421  224.5983 H   0  0  0  0  0  0  0  0  0  0  0  0
  1  2  2  0
  2  3  1  0
  3  4  2  0
  4  5  1  0
  5  6  2  0
  6  7  1  0
  7  8  1  0
  8  9  1  0
  9 10  2  0
 10 11  1  0
 11 12  1  0
  7 13  2  0
 13 14  1  0
 14 15  2  0
 15 16  1  0
  2 17  1  0
 17 18  1  0
 19 18  1  1
 19 20  1  0
 20 21  1  0
 21 22  1  0
 22 23  1  0
 23 24  1  0
 24 25  1  0
 25 26  1  0
 26 27  1  0
 27 28  1  0
 28 29  1  0
 22 30  1  0
 19 31  1  0
 31 32  2  0
 32 33  1  0
 33 34  2  0
 34 35  1  0
 35 36  2  0
 16  3  1  0
 36 17  1  0
 15  5  1  0
 30 19  1  0
 36 31  1  0
 12  8  2  0
 29 24  1  0
  4 37  1  0
  6 38  1  0
  9 39  1  0
 11 40  1  0
 12 41  1  0
 13 42  1  0
 14 43  1  0
 16 44  1  0
 18 45  1  0
 18 46  1  0
 20 47  1  0
 20 48  1  0
 21 49  1  0
 21 50  1  0
 23 51  1  0
 23 52  1  0
 24 53  1  0
 25 54  1  0
 25 55  1  0
 26 56  1  0
 26 57  1  0
 27 58  1  0
 27 59  1  0
 28 60  1  0
 28 61  1  0
 29 62  1  0
 29 63  1  0
 30 64  1  0
 30 65  1  0
 32 66  1  0
 33 67  1  0
 34 68  1  0
 35 69  1  0
M  END
>  <smiles>  (25) 
O=C(c1cc2cc(-c3cn[nH]c3)ccc2[nH]1)N1C[C@]2(CCN(CC3CCCCC3)C2)c2ccccc21

>  <score_type>  (25) 
oracle

>  <origin>  (25) 
autodockgpu

>  <m_score__min__energy>  (25) 
-9.5899999999999999

>  <m_primary>  (25) 
energy

>  <rmsd>  (25) 
5.439619739927265

>  <m_score__min__rmsd>  (25) 
5.439619739927265

>  <meeko>  (25) 
{"free_energy": -8.58, "intermolecular_energy": -10.08, "internal_energy": -2.16, "cluster_size": 20, "cluster_id": 6, "rank_in_cluster": 19}

>  <energy>  (25) 
-8.65

>  <cluster_rmsd>  (25) 
1.59

>  <cluster>  (25) 
5

$$$$

     RDKit          3D

 69 75  0  0  0  0  0  0  0  0999 V2000
  137.6460   77.1670  222.9350 O   0  0  0  0  0  0  0  0  0  0  0  0
  138.8900   77.4410  222.6550 C   0  0  0  0  0  0  0  0  0  0  0  0
  139.6540   76.2890  222.2330 C   0  0  0  0  0  0  0  0  0  0  0  0
  140.8930   76.3920  221.6290 C   0  0  0  0  0  0  0  0  0  0  0  0
  141.4100   75.1280  221.3710 C   0  0  0  0  0  0  0  0  0  0  0  0
  142.5750   74.6730  220.8150 C   0  0  0  0  0  0  0  0  0  0  0  0
  142.7940   73.3210  220.7170 C   0  0  0  0  0  0  0  0  0  0  0  0
  144.0250   72.7560  220.1530 C   0  0  0  0  0  0  0  0  0  0  0  0
  145.2150   73.3800  219.8600 C   0  0  0  0  0  0  0  0  0  0  0  0
  146.0540   72.4590  219.3510 N   0  0  0  0  0  0  0  0  0  0  0  0
  145.4550   71.2790  219.3060 N   0  0  0  0  0  0  0  0  0  0  0  0
  144.2050   71.4200  219.7910 C   0  0  0  0  0  0  0  0  0  0  0  0
  141.8560   72.3850  221.1690 C   0  0  0  0  0  0  0  0  0  0  0  0
  140.6980   72.9000  221.7180 C   0  0  0  0  0  0  0  0  0  0  0  0
  140.4630   74.2550  221.8270 C   0  0  0  0  0  0  0  0  0  0  0  0
  139.4210   74.9740  222.3390 N   0  0  0  0  0  0  0  0  0  0  0  0
  139.2570   78.7580  222.7990 N   0  0  0  0  0  0  0  0  0  0  0  0
  138.3060   79.8880  222.5170 C   0  0  0  0  0  0  0  0  0  0  0  0
  139.2470   80.6560  221.5940 C   0  0  1  0  0  0  0  0  0  0  0  0
  139.3580   79.8780  220.3230 C   0  0  0  0  0  0  0  0  0  0  0  0
  138.1590   80.4650  219.5220 C   0  0  0  0  0  0  0  0  0  0  0  0
  138.3050   81.8390  219.7780 N   0  0  0  0  0  0  0  0  0  0  0  0
  138.9600   82.7120  218.9160 C   0  0  0  0  0  0  0  0  0  0  0  0
  140.2220   82.3070  218.2230 C   0  0  0  0  0  0  0  0  0  0  0  0
  140.0560   81.2200  217.2720 C   0  0  0  0  0  0  0  0  0  0  0  0
  141.3170   80.4600  216.9130 C   0  0  0  0  0  0  0  0  0  0  0  0
  142.5500   80.9580  217.6040 C   0  0  0  0  0  0  0  0  0  0  0  0
  142.1770   80.9510  219.0940 C   0  0  0  0  0  0  0  0  0  0  0  0
  141.2670   82.1250  219.2860 C   0  0  0  0  0  0  0  0  0  0  0  0
  138.7630   81.9840  221.1650 C   0  0  0  0  0  0  0  0  0  0  0  0
  140.4870   80.6500  222.4120 C   0  0  0  0  0  0  0  0  0  0  0  0
  141.5680   81.4710  222.6150 C   0  0  0  0  0  0  0  0  0  0  0  0
  142.5660   81.1270  223.4900 C   0  0  0  0  0  0  0  0  0  0  0  0
  142.5230   79.9290  224.2070 C   0  0  0  0  0  0  0  0  0  0  0  0
  141.4480   79.0940  224.0150 C   0  0  0  0  0  0  0  0  0  0  0  0
  140.4500   79.4490  223.1350 C   0  0  0  0  0  0  0  0  0  0  0  0
  141.3977   77.3390  221.3871 H   0  0  0  0  0  0  0  0  0  0  0  0
  143.3299   75.3848  220.4496 H   0  0  0  0  0  0  0  0  0  0  0  0
  145.4414   74.4453  220.0146 H   0  0  0  0  0  0  0  0  0  0  0  0
  145.9080   70.4020  218.9450 H   0  0  0  0  0  0  0  0  0  0  0  0
  143.4560   70.6200  219.8852 H   0  0  0  0  0  0  0  0  0  0  0  0
  142.0312   71.3018  221.0914 H   0  0  0  0  0  0  0  0  0  0  0  0
  139.9314   72.2008  222.0834 H   0  0  0  0  0  0  0  0  0  0  0  0
  138.6050   74.5040  222.7430 H   0  0  0  0  0  0  0  0  0  0  0  0
  137.3888   79.5556  222.0088 H   0  0  0  0  0  0  0  0  0  0  0  0
  137.8970   80.4296  223.3827 H   0  0  0  0  0  0  0  0  0  0  0  0
  140.3156   80.0652  219.8151 H   0  0  0  0  0  0  0  0  0  0  0  0
  139.3313   78.7859  220.4515 H   0  0  0  0  0  0  0  0  0  0  0  0
  138.2451   80.2439  218.4479 H   0  0  0  0  0  0  0  0  0  0  0  0
  137.1800   80.0541  219.8096 H   0  0  0  0  0  0  0  0  0  0  0  0
  138.2392   82.9719  218.1267 H   0  0  0  0  0  0  0  0  0  0  0  0
  139.3004   83.5101  219.5922 H   0  0  0  0  0  0  0  0  0  0  0  0
  140.5681   83.0969  217.5402 H   0  0  0  0  0  0  0  0  0  0  0  0
  139.3402   80.5030  217.7004 H   0  0  0  0  0  0  0  0  0  0  0  0
  139.7139   81.6896  216.3380 H   0  0  0  0  0  0  0  0  0  0  0  0
  141.1724   79.4036  217.1835 H   0  0  0  0  0  0  0  0  0  0  0  0
  141.4779   80.6045  215.8345 H   0  0  0  0  0  0  0  0  0  0  0  0
  143.4017   80.2889  217.4121 H   0  0  0  0  0  0  0  0  0  0  0  0
  142.8569   81.9538  217.2516 H   0  0  0  0  0  0  0  0  0  0  0  0
  141.6590   80.0166  219.3559 H   0  0  0  0  0  0  0  0  0  0  0  0
  143.0671   81.0160  219.7371 H   0  0  0  0  0  0  0  0  0  0  0  0
  140.7528   82.0023  220.2507 H   0  0  0  0  0  0  0  0  0  0  0  0
  141.9079   83.0178  219.2388 H   0  0  0  0  0  0  0  0  0  0  0  0
  139.5783   82.7204  221.2198 H   0  0  0  0  0  0  0  0  0  0  0  0
  137.9491   82.3372  221.8152 H   0  0  0  0  0  0  0  0  0  0  0  0
  141.6349   82.4218  222.0660 H   0  0  0  0  0  0  0  0  0  0  0  0
  143.4180   81.8084  223.6302 H   0  0  0  0  0  0  0  0  0  0  0  0
  143.3282   79.6608  224.9069 H   0  0  0  0  0  0  0  0  0  0  0  0
  141.3850   78.1429  224.5640 H   0  0  0  0  0  0  0  0  0  0  0  0
  1  2  2  0
  2  3  1  0
  3  4  2  0
  4  5  1  0
  5  6  2  0
  6  7  1  0
  7  8  1  0
  8  9  1  0
  9 10  2  0
 10 11  1  0
 11 12  1  0
  7 13  2  0
 13 14  1  0
 14 15  2  0
 15 16  1  0
  2 17  1  0
 17 18  1  0
 19 18  1  1
 19 20  1  0
 20 21  1  0
 21 22  1  0
 22 23  1  0
 23 24  1  0
 24 25  1  0
 25 26  1  0
 26 27  1  0
 27 28  1  0
 28 29  1  0
 22 30  1  0
 19 31  1  0
 31 32  2  0
 32 33  1  0
 33 34  2  0
 34 35  1  0
 35 36  2  0
 16  3  1  0
 36 17  1  0
 15  5  1  0
 30 19  1  0
 36 31  1  0
 12  8  2  0
 29 24  1  0
  4 37  1  0
  6 38  1  0
  9 39  1  0
 11 40  1  0
 12 41  1  0
 13 42  1  0
 14 43  1  0
 16 44  1  0
 18 45  1  0
 18 46  1  0
 20 47  1  0
 20 48  1  0
 21 49  1  0
 21 50  1  0
 23 51  1  0
 23 52  1  0
 24 53  1  0
 25 54  1  0
 25 55  1  0
 26 56  1  0
 26 57  1  0
 27 58  1  0
 27 59  1  0
 28 60  1  0
 28 61  1  0
 29 62  1  0
 29 63  1  0
 30 64  1  0
 30 65  1  0
 32 66  1  0
 33 67  1  0
 34 68  1  0
 35 69  1  0
M  END
>  <smiles>  (26) 
O=C(c1cc2cc(-c3cn[nH]c3)ccc2[nH]1)N1C[C@]2(CCN(CC3CCCCC3)C2)c2ccccc21

>  <score_type>  (26) 
oracle

>  <origin>  (26) 
autodockgpu

>  <m_score__min__energy>  (26) 
-9.5899999999999999

>  <m_primary>  (26) 
energy

>  <rmsd>  (26) 
5.345073477823941

>  <m_score__min__rmsd>  (26) 
5.345073477823941

>  <meeko>  (26) 
{"free_energy": -8.61, "intermolecular_energy": -10.1, "internal_energy": -2.15, "cluster_size": 20, "cluster_id": 6, "rank_in_cluster": 18}

>  <energy>  (26) 
-8.6

>  <cluster_rmsd>  (26) 
1.76

>  <cluster>  (26) 
5

$$$$

     RDKit          3D

 69 75  0  0  0  0  0  0  0  0999 V2000
  137.8530   81.0310  220.6580 O   0  0  0  0  0  0  0  0  0  0  0  0
  138.4500   80.7040  221.7710 C   0  0  0  0  0  0  0  0  0  0  0  0
  137.5870   80.7660  222.9290 C   0  0  0  0  0  0  0  0  0  0  0  0
  138.0180   81.2220  224.1600 C   0  0  0  0  0  0  0  0  0  0  0  0
  136.9690   81.2090  225.0730 C   0  0  0  0  0  0  0  0  0  0  0  0
  136.8510   81.5640  226.3900 C   0  0  0  0  0  0  0  0  0  0  0  0
  135.6350   81.4420  227.0150 C   0  0  0  0  0  0  0  0  0  0  0  0
  135.4240   81.8190  228.4180 C   0  0  0  0  0  0  0  0  0  0  0  0
  136.1080   81.4160  229.5410 C   0  0  0  0  0  0  0  0  0  0  0  0
  135.5520   82.0200  230.6060 N   0  0  0  0  0  0  0  0  0  0  0  0
  134.5460   82.7870  230.2160 N   0  0  0  0  0  0  0  0  0  0  0  0
  134.4340   82.6910  228.8760 C   0  0  0  0  0  0  0  0  0  0  0  0
  134.5030   80.9620  226.3450 C   0  0  0  0  0  0  0  0  0  0  0  0
  134.6800   80.6180  225.0190 C   0  0  0  0  0  0  0  0  0  0  0  0
  135.8950   80.7360  224.3750 C   0  0  0  0  0  0  0  0  0  0  0  0
  136.2890   80.4780  223.0930 N   0  0  0  0  0  0  0  0  0  0  0  0
  139.7740   80.3560  221.6550 N   0  0  0  0  0  0  0  0  0  0  0  0
  140.2830   79.5130  220.5190 C   0  0  0  0  0  0  0  0  0  0  0  0
  141.0160   78.5010  221.3930 C   0  0  1  0  0  0  0  0  0  0  0  0
  139.9800   77.6780  222.0890 C   0  0  0  0  0  0  0  0  0  0  0  0
  139.7560   76.5510  221.0400 C   0  0  0  0  0  0  0  0  0  0  0  0
  141.0790   76.2490  220.6750 N   0  0  0  0  0  0  0  0  0  0  0  0
  141.8100   75.2090  221.2400 C   0  0  0  0  0  0  0  0  0  0  0  0
  142.6470   74.3070  220.3900 C   0  0  0  0  0  0  0  0  0  0  0  0
  142.5350   72.8980  220.7320 C   0  0  0  0  0  0  0  0  0  0  0  0
  143.6740   72.0140  220.2640 C   0  0  0  0  0  0  0  0  0  0  0  0
  144.7460   72.7430  219.5140 C   0  0  0  0  0  0  0  0  0  0  0  0
  145.1450   73.8950  220.4480 C   0  0  0  0  0  0  0  0  0  0  0  0
  144.0290   74.8890  220.3590 C   0  0  0  0  0  0  0  0  0  0  0  0
  141.8320   77.5100  220.6600 C   0  0  0  0  0  0  0  0  0  0  0  0
  141.7620   79.4150  222.2940 C   0  0  0  0  0  0  0  0  0  0  0  0
  142.9590   79.4200  222.9660 C   0  0  0  0  0  0  0  0  0  0  0  0
  143.3380   80.4890  223.7360 C   0  0  0  0  0  0  0  0  0  0  0  0
  142.5200   81.6140  223.8680 C   0  0  0  0  0  0  0  0  0  0  0  0
  141.3160   81.6270  223.2040 C   0  0  0  0  0  0  0  0  0  0  0  0
  140.9460   80.5480  222.4320 C   0  0  0  0  0  0  0  0  0  0  0  0
  139.0439   81.5485  224.3856 H   0  0  0  0  0  0  0  0  0  0  0  0
  137.7231   81.9437  226.9425 H   0  0  0  0  0  0  0  0  0  0  0  0
  136.9606   80.7213  229.5640 H   0  0  0  0  0  0  0  0  0  0  0  0
  133.9540   83.3590  230.8690 H   0  0  0  0  0  0  0  0  0  0  0  0
  133.6916   83.2096  228.2516 H   0  0  0  0  0  0  0  0  0  0  0  0
  133.5286   80.8645  226.8460 H   0  0  0  0  0  0  0  0  0  0  0  0
  133.8179   80.2346  224.4535 H   0  0  0  0  0  0  0  0  0  0  0  0
  135.6250   80.1210  222.3990 H   0  0  0  0  0  0  0  0  0  0  0  0
  139.4728   79.0586  219.9299 H   0  0  0  0  0  0  0  0  0  0  0  0
  140.8682   80.0209  219.7382 H   0  0  0  0  0  0  0  0  0  0  0  0
  140.3543   77.2762  223.0421 H   0  0  0  0  0  0  0  0  0  0  0  0
  139.0702   78.2295  222.3686 H   0  0  0  0  0  0  0  0  0  0  0  0
  139.2522   75.6804  221.4853 H   0  0  0  0  0  0  0  0  0  0  0  0
  139.1108   76.8409  220.1975 H   0  0  0  0  0  0  0  0  0  0  0  0
  142.4894   75.6667  221.9741 H   0  0  0  0  0  0  0  0  0  0  0  0
  141.0246   74.5336  221.6101 H   0  0  0  0  0  0  0  0  0  0  0  0
  142.2711   74.2776  219.3566 H   0  0  0  0  0  0  0  0  0  0  0  0
  142.4753   72.8202  221.8276 H   0  0  0  0  0  0  0  0  0  0  0  0
  141.6388   72.5334  220.2086 H   0  0  0  0  0  0  0  0  0  0  0  0
  144.1300   71.5420  221.1468 H   0  0  0  0  0  0  0  0  0  0  0  0
  143.2410   71.2818  219.5665 H   0  0  0  0  0  0  0  0  0  0  0  0
  145.6043   72.0828  219.3207 H   0  0  0  0  0  0  0  0  0  0  0  0
  144.4042   73.0980  218.5306 H   0  0  0  0  0  0  0  0  0  0  0  0
  145.2547   73.5320  221.4806 H   0  0  0  0  0  0  0  0  0  0  0  0
  146.1094   74.3383  220.1593 H   0  0  0  0  0  0  0  0  0  0  0  0
  144.1242   75.5834  221.2068 H   0  0  0  0  0  0  0  0  0  0  0  0
  144.1322   75.3744  219.3773 H   0  0  0  0  0  0  0  0  0  0  0  0
  142.8040   77.3770  221.1575 H   0  0  0  0  0  0  0  0  0  0  0  0
  142.0266   77.8423  219.6296 H   0  0  0  0  0  0  0  0  0  0  0  0
  143.6268   78.5496  222.8851 H   0  0  0  0  0  0  0  0  0  0  0  0
  144.3047   80.4605  224.2600 H   0  0  0  0  0  0  0  0  0  0  0  0
  142.8314   82.4679  224.4876 H   0  0  0  0  0  0  0  0  0  0  0  0
  140.6493   82.4978  223.2892 H   0  0  0  0  0  0  0  0  0  0  0  0
  1  2  2  0
  2  3  1  0
  3  4  2  0
  4  5  1  0
  5  6  2  0
  6  7  1  0
  7  8  1  0
  8  9  1  0
  9 10  2  0
 10 11  1  0
 11 12  1  0
  7 13  2  0
 13 14  1  0
 14 15  2  0
 15 16  1  0
  2 17  1  0
 17 18  1  0
 19 18  1  6
 19 20  1  0
 20 21  1  0
 21 22  1  0
 22 23  1  0
 23 24  1  0
 24 25  1  0
 25 26  1  0
 26 27  1  0
 27 28  1  0
 28 29  1  0
 22 30  1  0
 19 31  1  0
 31 32  2  0
 32 33  1  0
 33 34  2  0
 34 35  1  0
 35 36  2  0
 16  3  1  0
 36 17  1  0
 15  5  1  0
 30 19  1  0
 36 31  1  0
 12  8  2  0
 29 24  1  0
  4 37  1  0
  6 38  1  0
  9 39  1  0
 11 40  1  0
 12 41  1  0
 13 42  1  0
 14 43  1  0
 16 44  1  0
 18 45  1  0
 18 46  1  0
 20 47  1  0
 20 48  1  0
 21 49  1  0
 21 50  1  0
 23 51  1  0
 23 52  1  0
 24 53  1  0
 25 54  1  0
 25 55  1  0
 26 56  1  0
 26 57  1  0
 27 58  1  0
 27 59  1  0
 28 60  1  0
 28 61  1  0
 29 62  1  0
 29 63  1  0
 30 64  1  0
 30 65  1  0
 32 66  1  0
 33 67  1  0
 34 68  1  0
 35 69  1  0
M  END
>  <smiles>  (27) 
O=C(c1cc2cc(-c3cn[nH]c3)ccc2[nH]1)N1C[C@]2(CCN(CC3CCCCC3)C2)c2ccccc21

>  <score_type>  (27) 
oracle

>  <origin>  (27) 
autodockgpu

>  <m_score__min__energy>  (27) 
-9.5899999999999999

>  <m_primary>  (27) 
energy

>  <rmsd>  (27) 
9.595316643259887

>  <m_score__min__rmsd>  (27) 
9.595316643259887

>  <meeko>  (27) 
{"free_energy": -9.45, "intermolecular_energy": -10.94, "internal_energy": -1.57, "cluster_size": 4, "cluster_id": 1, "rank_in_cluster": 2}

>  <energy>  (27) 
-8.79

>  <cluster_rmsd>  (27) 
0.0

>  <cluster>  (27) 
6

$$$$

     RDKit          3D

 69 75  0  0  0  0  0  0  0  0999 V2000
  137.7550   77.1830  223.0200 O   0  0  0  0  0  0  0  0  0  0  0  0
  138.9700   77.4630  222.6370 C   0  0  0  0  0  0  0  0  0  0  0  0
  139.7170   76.3050  222.1970 C   0  0  0  0  0  0  0  0  0  0  0  0
  140.9320   76.4020  221.5450 C   0  0  0  0  0  0  0  0  0  0  0  0
  141.4380   75.1350  221.2780 C   0  0  0  0  0  0  0  0  0  0  0  0
  142.5810   74.6740  220.6830 C   0  0  0  0  0  0  0  0  0  0  0  0
  142.7950   73.3200  220.5900 C   0  0  0  0  0  0  0  0  0  0  0  0
  144.0030   72.7490  219.9840 C   0  0  0  0  0  0  0  0  0  0  0  0
  145.1240   73.3880  219.5050 C   0  0  0  0  0  0  0  0  0  0  0  0
  145.9680   72.4530  219.0360 N   0  0  0  0  0  0  0  0  0  0  0  0
  145.4390   71.2490  219.1910 N   0  0  0  0  0  0  0  0  0  0  0  0
  144.2310   71.3880  219.7710 C   0  0  0  0  0  0  0  0  0  0  0  0
  141.8740   72.3900  221.0860 C   0  0  0  0  0  0  0  0  0  0  0  0
  140.7390   72.9110  221.6740 C   0  0  0  0  0  0  0  0  0  0  0  0
  140.5090   74.2680  221.7790 C   0  0  0  0  0  0  0  0  0  0  0  0
  139.4880   74.9920  222.3230 N   0  0  0  0  0  0  0  0  0  0  0  0
  139.3270   78.7870  222.7080 N   0  0  0  0  0  0  0  0  0  0  0  0
  138.3940   79.8910  222.2920 C   0  0  0  0  0  0  0  0  0  0  0  0
  139.3870   80.5960  221.3730 C   0  0  1  0  0  0  0  0  0  0  0  0
  139.5710   79.7310  220.1680 C   0  0  0  0  0  0  0  0  0  0  0  0
  138.4210   80.2540  219.2600 C   0  0  0  0  0  0  0  0  0  0  0  0
  138.5510   81.6430  219.4260 N   0  0  0  0  0  0  0  0  0  0  0  0
  139.2550   82.4560  218.5430 C   0  0  0  0  0  0  0  0  0  0  0  0
  140.7460   82.3900  218.4600 C   0  0  0  0  0  0  0  0  0  0  0  0
  141.3730   83.6340  218.0410 C   0  0  0  0  0  0  0  0  0  0  0  0
  142.7760   83.5100  217.4820 C   0  0  0  0  0  0  0  0  0  0  0  0
  143.3000   82.1060  217.4500 C   0  0  0  0  0  0  0  0  0  0  0  0
  142.2180   81.3150  216.7010 C   0  0  0  0  0  0  0  0  0  0  0  0
  141.0890   81.1600  217.6720 C   0  0  0  0  0  0  0  0  0  0  0  0
  138.9280   81.8880  220.8230 C   0  0  0  0  0  0  0  0  0  0  0  0
  140.5770   80.6530  222.2590 C   0  0  0  0  0  0  0  0  0  0  0  0
  141.6440   81.4910  222.4670 C   0  0  0  0  0  0  0  0  0  0  0  0
  142.5900   81.2150  223.4200 C   0  0  0  0  0  0  0  0  0  0  0  0
  142.5060   80.0710  224.2160 C   0  0  0  0  0  0  0  0  0  0  0  0
  141.4440   79.2190  224.0220 C   0  0  0  0  0  0  0  0  0  0  0  0
  140.4990   79.5060  223.0620 C   0  0  0  0  0  0  0  0  0  0  0  0
  141.4275   77.3465  221.2759 H   0  0  0  0  0  0  0  0  0  0  0  0
  143.3221   75.3815  220.2826 H   0  0  0  0  0  0  0  0  0  0  0  0
  145.2986   74.4740  219.5059 H   0  0  0  0  0  0  0  0  0  0  0  0
  145.9110   70.3560  218.8980 H   0  0  0  0  0  0  0  0  0  0  0  0
  143.5430   70.5703  220.0318 H   0  0  0  0  0  0  0  0  0  0  0  0
  142.0449   71.3059  221.0115 H   0  0  0  0  0  0  0  0  0  0  0  0
  139.9867   72.2161  222.0755 H   0  0  0  0  0  0  0  0  0  0  0  0
  138.6880   74.5260  222.7630 H   0  0  0  0  0  0  0  0  0  0  0  0
  137.5078   79.5200  221.7563 H   0  0  0  0  0  0  0  0  0  0  0  0
  137.9357   80.4907  223.0922 H   0  0  0  0  0  0  0  0  0  0  0  0
  140.5563   79.8862  219.7042 H   0  0  0  0  0  0  0  0  0  0  0  0
  139.5368   78.6506  220.3717 H   0  0  0  0  0  0  0  0  0  0  0  0
  138.5695   79.9579  218.2110 H   0  0  0  0  0  0  0  0  0  0  0  0
  137.4272   79.8599  219.5189 H   0  0  0  0  0  0  0  0  0  0  0  0
  138.8750   82.2275  217.5363 H   0  0  0  0  0  0  0  0  0  0  0  0
  139.0790   83.4635  218.9480 H   0  0  0  0  0  0  0  0  0  0  0  0
  141.1920   82.2850  219.4600 H   0  0  0  0  0  0  0  0  0  0  0  0
  140.7390   84.0865  217.2643 H   0  0  0  0  0  0  0  0  0  0  0  0
  141.4674   84.2427  218.9524 H   0  0  0  0  0  0  0  0  0  0  0  0
  142.7742   83.9016  216.4541 H   0  0  0  0  0  0  0  0  0  0  0  0
  143.4362   84.0798  218.1524 H   0  0  0  0  0  0  0  0  0  0  0  0
  144.2587   82.0599  216.9127 H   0  0  0  0  0  0  0  0  0  0  0  0
  143.4926   81.7059  218.4564 H   0  0  0  0  0  0  0  0  0  0  0  0
  141.8853   81.8680  215.8102 H   0  0  0  0  0  0  0  0  0  0  0  0
  142.5927   80.3411  216.3532 H   0  0  0  0  0  0  0  0  0  0  0  0
  140.1946   80.8580  217.1074 H   0  0  0  0  0  0  0  0  0  0  0  0
  141.4209   80.4115  218.4066 H   0  0  0  0  0  0  0  0  0  0  0  0
  139.7385   82.6301  220.8721 H   0  0  0  0  0  0  0  0  0  0  0  0
  138.0776   82.2826  221.3984 H   0  0  0  0  0  0  0  0  0  0  0  0
  141.7419   82.4014  221.8574 H   0  0  0  0  0  0  0  0  0  0  0  0
  143.4321   81.9087  223.5604 H   0  0  0  0  0  0  0  0  0  0  0  0
  143.2694   79.8567  224.9785 H   0  0  0  0  0  0  0  0  0  0  0  0
  141.3494   78.3092  224.6330 H   0  0  0  0  0  0  0  0  0  0  0  0
  1  2  2  0
  2  3  1  0
  3  4  2  0
  4  5  1  0
  5  6  2  0
  6  7  1  0
  7  8  1  0
  8  9  1  0
  9 10  2  0
 10 11  1  0
 11 12  1  0
  7 13  2  0
 13 14  1  0
 14 15  2  0
 15 16  1  0
  2 17  1  0
 17 18  1  0
 19 18  1  1
 19 20  1  0
 20 21  1  0
 21 22  1  0
 22 23  1  0
 23 24  1  0
 24 25  1  0
 25 26  1  0
 26 27  1  0
 27 28  1  0
 28 29  1  0
 22 30  1  0
 19 31  1  0
 31 32  2  0
 32 33  1  0
 33 34  2  0
 34 35  1  0
 35 36  2  0
 16  3  1  0
 36 17  1  0
 15  5  1  0
 30 19  1  0
 36 31  1  0
 12  8  2  0
 29 24  1  0
  4 37  1  0
  6 38  1  0
  9 39  1  0
 11 40  1  0
 12 41  1  0
 13 42  1  0
 14 43  1  0
 16 44  1  0
 18 45  1  0
 18 46  1  0
 20 47  1  0
 20 48  1  0
 21 49  1  0
 21 50  1  0
 23 51  1  0
 23 52  1  0
 24 53  1  0
 25 54  1  0
 25 55  1  0
 26 56  1  0
 26 57  1  0
 27 58  1  0
 27 59  1  0
 28 60  1  0
 28 61  1  0
 29 62  1  0
 29 63  1  0
 30 64  1  0
 30 65  1  0
 32 66  1  0
 33 67  1  0
 34 68  1  0
 35 69  1  0
M  END
>  <smiles>  (28) 
O=C(c1cc2cc(-c3cn[nH]c3)ccc2[nH]1)N1C[C@]2(CCN(CC3CCCCC3)C2)c2ccccc21

>  <score_type>  (28) 
oracle

>  <origin>  (28) 
autodockgpu

>  <m_score__min__energy>  (28) 
-9.5899999999999999

>  <m_primary>  (28) 
energy

>  <rmsd>  (28) 
5.502733819055508

>  <m_score__min__rmsd>  (28) 
5.502733819055508

>  <meeko>  (28) 
{"free_energy": -8.7, "intermolecular_energy": -10.2, "internal_energy": -1.99, "cluster_size": 20, "cluster_id": 6, "rank_in_cluster": 9}

>  <energy>  (28) 
-8.79

>  <cluster_rmsd>  (28) 
0.06

>  <cluster>  (28) 
6

$$$$

     RDKit          3D

 69 75  0  0  0  0  0  0  0  0999 V2000
  137.6840   77.1630  222.9870 O   0  0  0  0  0  0  0  0  0  0  0  0
  138.9140   77.5050  222.7210 C   0  0  0  0  0  0  0  0  0  0  0  0
  139.7100   76.4240  222.1830 C   0  0  0  0  0  0  0  0  0  0  0  0
  140.8710   76.6360  221.4640 C   0  0  0  0  0  0  0  0  0  0  0  0
  141.4470   75.4210  221.1090 C   0  0  0  0  0  0  0  0  0  0  0  0
  142.5790   75.0700  220.4250 C   0  0  0  0  0  0  0  0  0  0  0  0
  142.8800   73.7410  220.2550 C   0  0  0  0  0  0  0  0  0  0  0  0
  144.0840   73.2850  219.5510 C   0  0  0  0  0  0  0  0  0  0  0  0
  145.0030   72.3320  219.9240 C   0  0  0  0  0  0  0  0  0  0  0  0
  145.9420   72.2610  218.9640 N   0  0  0  0  0  0  0  0  0  0  0  0
  145.6660   73.1230  217.9980 N   0  0  0  0  0  0  0  0  0  0  0  0
  144.5310   73.7720  218.3220 C   0  0  0  0  0  0  0  0  0  0  0  0
  142.0600   72.7260  220.7620 C   0  0  0  0  0  0  0  0  0  0  0  0
  140.9300   73.1380  221.4420 C   0  0  0  0  0  0  0  0  0  0  0  0
  140.6140   74.4690  221.6230 C   0  0  0  0  0  0  0  0  0  0  0  0
  139.5810   75.0940  222.2620 N   0  0  0  0  0  0  0  0  0  0  0  0
  139.2390   78.8140  222.9850 N   0  0  0  0  0  0  0  0  0  0  0  0
  138.2180   79.9160  222.9360 C   0  0  0  0  0  0  0  0  0  0  0  0
  139.0250   80.8350  222.0250 C   0  0  1  0  0  0  0  0  0  0  0  0
  139.0360   80.2170  220.6640 C   0  0  0  0  0  0  0  0  0  0  0  0
  137.7370   80.8270  220.0610 C   0  0  0  0  0  0  0  0  0  0  0  0
  137.8520   82.1680  220.4650 N   0  0  0  0  0  0  0  0  0  0  0  0
  138.3770   83.1680  219.6540 C   0  0  0  0  0  0  0  0  0  0  0  0
  139.6240   82.9400  218.8610 C   0  0  0  0  0  0  0  0  0  0  0  0
  139.5070   81.8990  217.8540 C   0  0  0  0  0  0  0  0  0  0  0  0
  140.8120   81.2990  217.3700 C   0  0  0  0  0  0  0  0  0  0  0  0
  142.0310   81.8840  218.0160 C   0  0  0  0  0  0  0  0  0  0  0  0
  141.7620   81.7520  219.5220 C   0  0  0  0  0  0  0  0  0  0  0  0
  140.7520   82.8100  219.8440 C   0  0  0  0  0  0  0  0  0  0  0  0
  138.4450   82.1760  221.8080 C   0  0  0  0  0  0  0  0  0  0  0  0
  140.3430   80.8010  222.7090 C   0  0  0  0  0  0  0  0  0  0  0  0
  141.4040   81.6490  222.9030 C   0  0  0  0  0  0  0  0  0  0  0  0
  142.5010   81.2610  223.6280 C   0  0  0  0  0  0  0  0  0  0  0  0
  142.5820   79.9880  224.1960 C   0  0  0  0  0  0  0  0  0  0  0  0
  141.5290   79.1230  224.0120 C   0  0  0  0  0  0  0  0  0  0  0  0
  140.4310   79.5240  223.2830 C   0  0  0  0  0  0  0  0  0  0  0  0
  141.2809   77.6244  221.2090 H   0  0  0  0  0  0  0  0  0  0  0  0
  143.2422   75.8458  220.0148 H   0  0  0  0  0  0  0  0  0  0  0  0
  144.9748   71.7329  220.8461 H   0  0  0  0  0  0  0  0  0  0  0  0
  146.2570   73.2530  217.1380 H   0  0  0  0  0  0  0  0  0  0  0  0
  144.0407   74.5520  217.7210 H   0  0  0  0  0  0  0  0  0  0  0  0
  142.3015   71.6614  220.6267 H   0  0  0  0  0  0  0  0  0  0  0  0
  140.2551   72.3743  221.8557 H   0  0  0  0  0  0  0  0  0  0  0  0
  138.8450   74.5530  222.7270 H   0  0  0  0  0  0  0  0  0  0  0  0
  137.2677   79.5959  222.4838 H   0  0  0  0  0  0  0  0  0  0  0  0
  137.8789   80.3309  223.8966 H   0  0  0  0  0  0  0  0  0  0  0  0
  139.9271   80.5135  220.0912 H   0  0  0  0  0  0  0  0  0  0  0  0
  139.0685   79.1175  220.6615 H   0  0  0  0  0  0  0  0  0  0  0  0
  137.7202   80.7363  218.9649 H   0  0  0  0  0  0  0  0  0  0  0  0
  136.8110   80.3338  220.3915 H   0  0  0  0  0  0  0  0  0  0  0  0
  137.5902   83.4301  218.9314 H   0  0  0  0  0  0  0  0  0  0  0  0
  138.6890   83.9314  220.3820 H   0  0  0  0  0  0  0  0  0  0  0  0
  139.8401   83.8003  218.2105 H   0  0  0  0  0  0  0  0  0  0  0  0
  138.8988   81.0864  218.2779 H   0  0  0  0  0  0  0  0  0  0  0  0
  139.0570   82.3834  216.9749 H   0  0  0  0  0  0  0  0  0  0  0  0
  140.7945   80.2193  217.5794 H   0  0  0  0  0  0  0  0  0  0  0  0
  140.8845   81.5221  216.2953 H   0  0  0  0  0  0  0  0  0  0  0  0
  142.9318   81.3210  217.7302 H   0  0  0  0  0  0  0  0  0  0  0  0
  142.2100   82.9255  217.7105 H   0  0  0  0  0  0  0  0  0  0  0  0
  141.3609   80.7545  219.7546 H   0  0  0  0  0  0  0  0  0  0  0  0
  142.6821   81.8739  220.1124 H   0  0  0  0  0  0  0  0  0  0  0  0
  140.3198   82.5789  220.8288 H   0  0  0  0  0  0  0  0  0  0  0  0
  141.2935   83.7670  219.8143 H   0  0  0  0  0  0  0  0  0  0  0  0
  139.2307   82.9433  221.8707 H   0  0  0  0  0  0  0  0  0  0  0  0
  137.6889   82.4081  222.5725 H   0  0  0  0  0  0  0  0  0  0  0  0
  141.3739   82.6592  222.4687 H   0  0  0  0  0  0  0  0  0  0  0  0
  143.3338   81.9665  223.7650 H   0  0  0  0  0  0  0  0  0  0  0  0
  143.4660   79.6847  224.7761 H   0  0  0  0  0  0  0  0  0  0  0  0
  141.5633   78.1128  224.4460 H   0  0  0  0  0  0  0  0  0  0  0  0
  1  2  2  0
  2  3  1  0
  3  4  2  0
  4  5  1  0
  5  6  2  0
  6  7  1  0
  7  8  1  0
  8  9  1  0
  9 10  2  0
 10 11  1  0
 11 12  1  0
  7 13  2  0
 13 14  1  0
 14 15  2  0
 15 16  1  0
  2 17  1  0
 17 18  1  0
 19 18  1  1
 19 20  1  0
 20 21  1  0
 21 22  1  0
 22 23  1  0
 23 24  1  0
 24 25  1  0
 25 26  1  0
 26 27  1  0
 27 28  1  0
 28 29  1  0
 22 30  1  0
 19 31  1  0
 31 32  2  0
 32 33  1  0
 33 34  2  0
 34 35  1  0
 35 36  2  0
 16  3  1  0
 36 17  1  0
 15  5  1  0
 30 19  1  0
 36 31  1  0
 12  8  2  0
 29 24  1  0
  4 37  1  0
  6 38  1  0
  9 39  1  0
 11 40  1  0
 12 41  1  0
 13 42  1  0
 14 43  1  0
 16 44  1  0
 18 45  1  0
 18 46  1  0
 20 47  1  0
 20 48  1  0
 21 49  1  0
 21 50  1  0
 23 51  1  0
 23 52  1  0
 24 53  1  0
 25 54  1  0
 25 55  1  0
 26 56  1  0
 26 57  1  0
 27 58  1  0
 27 59  1  0
 28 60  1  0
 28 61  1  0
 29 62  1  0
 29 63  1  0
 30 64  1  0
 30 65  1  0
 32 66  1  0
 33 67  1  0
 34 68  1  0
 35 69  1  0
M  END
>  <smiles>  (29) 
O=C(c1cc2cc(-c3cn[nH]c3)ccc2[nH]1)N1C[C@]2(CCN(CC3CCCCC3)C2)c2ccccc21

>  <score_type>  (29) 
oracle

>  <origin>  (29) 
autodockgpu

>  <m_score__min__energy>  (29) 
-9.5899999999999999

>  <m_primary>  (29) 
energy

>  <rmsd>  (29) 
5.734631198121225

>  <m_score__min__rmsd>  (29) 
5.734631198121225

>  <meeko>  (29) 
{"free_energy": -8.54, "intermolecular_energy": -10.03, "internal_energy": -2.15, "cluster_size": 20, "cluster_id": 6, "rank_in_cluster": 20}

>  <energy>  (29) 
-8.75

>  <cluster_rmsd>  (29) 
0.3

>  <cluster>  (29) 
6

$$$$

     RDKit          3D

 69 75  0  0  0  0  0  0  0  0999 V2000
  137.4560   77.3000  222.7840 O   0  0  0  0  0  0  0  0  0  0  0  0
  138.7340   77.5500  222.7170 C   0  0  0  0  0  0  0  0  0  0  0  0
  139.5210   76.4230  222.2680 C   0  0  0  0  0  0  0  0  0  0  0  0
  140.7630   76.5640  221.6810 C   0  0  0  0  0  0  0  0  0  0  0  0
  141.3030   75.3160  221.3890 C   0  0  0  0  0  0  0  0  0  0  0  0
  142.4810   74.8960  220.8330 C   0  0  0  0  0  0  0  0  0  0  0  0
  142.7210   73.5510  220.6960 C   0  0  0  0  0  0  0  0  0  0  0  0
  143.9670   73.0230  220.1280 C   0  0  0  0  0  0  0  0  0  0  0  0
  144.4560   73.1330  218.8470 C   0  0  0  0  0  0  0  0  0  0  0  0
  145.6310   72.4810  218.7920 N   0  0  0  0  0  0  0  0  0  0  0  0
  145.9140   71.9610  219.9760 N   0  0  0  0  0  0  0  0  0  0  0  0
  144.9150   72.2720  220.8250 C   0  0  0  0  0  0  0  0  0  0  0  0
  141.7940   72.5880  221.1100 C   0  0  0  0  0  0  0  0  0  0  0  0
  140.6230   73.0680  221.6630 C   0  0  0  0  0  0  0  0  0  0  0  0
  140.3660   74.4160  221.8090 C   0  0  0  0  0  0  0  0  0  0  0  0
  139.3080   75.1030  222.3320 N   0  0  0  0  0  0  0  0  0  0  0  0
  139.1110   78.8240  223.0700 N   0  0  0  0  0  0  0  0  0  0  0  0
  138.1150   79.9410  223.2170 C   0  0  0  0  0  0  0  0  0  0  0  0
  138.8580   80.9290  222.3250 C   0  0  1  0  0  0  0  0  0  0  0  0
  138.7320   80.4420  220.9170 C   0  0  0  0  0  0  0  0  0  0  0  0
  137.3980   81.1240  220.4950 C   0  0  0  0  0  0  0  0  0  0  0  0
  137.5800   82.4200  221.0090 N   0  0  0  0  0  0  0  0  0  0  0  0
  138.0520   83.4840  220.2490 C   0  0  0  0  0  0  0  0  0  0  0  0
  139.2490   83.3280  219.3670 C   0  0  0  0  0  0  0  0  0  0  0  0
  139.0790   82.3540  218.3010 C   0  0  0  0  0  0  0  0  0  0  0  0
  140.3560   81.8070  217.6970 C   0  0  0  0  0  0  0  0  0  0  0  0
  141.6080   82.3670  218.3020 C   0  0  0  0  0  0  0  0  0  0  0  0
  141.4370   82.1310  219.8100 C   0  0  0  0  0  0  0  0  0  0  0  0
  140.4380   83.1500  220.2650 C   0  0  0  0  0  0  0  0  0  0  0  0
  138.2910   82.2930  222.2870 C   0  0  0  0  0  0  0  0  0  0  0  0
  140.2300   80.8120  222.8800 C   0  0  0  0  0  0  0  0  0  0  0  0
  141.3240   81.6230  223.0530 C   0  0  0  0  0  0  0  0  0  0  0  0
  142.4720   81.1530  223.6360 C   0  0  0  0  0  0  0  0  0  0  0  0
  142.5750   79.8310  224.0740 C   0  0  0  0  0  0  0  0  0  0  0  0
  141.4900   79.0030  223.9080 C   0  0  0  0  0  0  0  0  0  0  0  0
  140.3410   79.4860  223.3220 C   0  0  0  0  0  0  0  0  0  0  0  0
  141.2549   77.5259  221.4740 H   0  0  0  0  0  0  0  0  0  0  0  0
  143.2292   75.6298  220.4987 H   0  0  0  0  0  0  0  0  0  0  0  0
  143.9708   73.6618  218.0133 H   0  0  0  0  0  0  0  0  0  0  0  0
  146.7810   71.4030  220.1830 H   0  0  0  0  0  0  0  0  0  0  0  0
  144.8565   71.9837  221.8849 H   0  0  0  0  0  0  0  0  0  0  0  0
  141.9869   71.5105  221.0012 H   0  0  0  0  0  0  0  0  0  0  0  0
  139.8644   72.3466  222.0008 H   0  0  0  0  0  0  0  0  0  0  0  0
  138.4950   74.6080  222.7140 H   0  0  0  0  0  0  0  0  0  0  0  0
  137.1207   79.6790  222.8261 H   0  0  0  0  0  0  0  0  0  0  0  0
  137.8730   80.2686  224.2388 H   0  0  0  0  0  0  0  0  0  0  0  0
  139.5741   80.7788  220.2946 H   0  0  0  0  0  0  0  0  0  0  0  0
  138.7393   79.3473  220.8098 H   0  0  0  0  0  0  0  0  0  0  0  0
  137.2800   81.1368  219.4014 H   0  0  0  0  0  0  0  0  0  0  0  0
  136.4946   80.6151  220.8623 H   0  0  0  0  0  0  0  0  0  0  0  0
  137.2221   83.7959  219.5979 H   0  0  0  0  0  0  0  0  0  0  0  0
  138.4055   84.1905  221.0145 H   0  0  0  0  0  0  0  0  0  0  0  0
  139.4147   84.2334  218.7646 H   0  0  0  0  0  0  0  0  0  0  0  0
  138.5075   81.5062  218.7067 H   0  0  0  0  0  0  0  0  0  0  0  0
  138.5689   82.8891  217.4864 H   0  0  0  0  0  0  0  0  0  0  0  0
  140.3637   80.7157  217.8352 H   0  0  0  0  0  0  0  0  0  0  0  0
  140.3569   82.1010  216.6370 H   0  0  0  0  0  0  0  0  0  0  0  0
  142.4948   81.8382  217.9226 H   0  0  0  0  0  0  0  0  0  0  0  0
  141.7559   83.4289  218.0562 H   0  0  0  0  0  0  0  0  0  0  0  0
  141.0624   81.1143  219.9997 H   0  0  0  0  0  0  0  0  0  0  0  0
  142.3914   82.2271  220.3484 H   0  0  0  0  0  0  0  0  0  0  0  0
  140.0721   82.8477  221.2574 H   0  0  0  0  0  0  0  0  0  0  0  0
  140.9662   84.1149  220.2651 H   0  0  0  0  0  0  0  0  0  0  0  0
  139.0962   83.0399  222.3485 H   0  0  0  0  0  0  0  0  0  0  0  0
  137.6119   82.4625  223.1356 H   0  0  0  0  0  0  0  0  0  0  0  0
  141.2785   82.6696  222.7175 H   0  0  0  0  0  0  0  0  0  0  0  0
  143.3293   81.8307  223.7614 H   0  0  0  0  0  0  0  0  0  0  0  0
  143.5005   79.4616  224.5399 H   0  0  0  0  0  0  0  0  0  0  0  0
  141.5396   77.9563  224.2427 H   0  0  0  0  0  0  0  0  0  0  0  0
  1  2  2  0
  2  3  1  0
  3  4  2  0
  4  5  1  0
  5  6  2  0
  6  7  1  0
  7  8  1  0
  8  9  1  0
  9 10  2  0
 10 11  1  0
 11 12  1  0
  7 13  2  0
 13 14  1  0
 14 15  2  0
 15 16  1  0
  2 17  1  0
 17 18  1  0
 19 18  1  1
 19 20  1  0
 20 21  1  0
 21 22  1  0
 22 23  1  0
 23 24  1  0
 24 25  1  0
 25 26  1  0
 26 27  1  0
 27 28  1  0
 28 29  1  0
 22 30  1  0
 19 31  1  0
 31 32  2  0
 32 33  1  0
 33 34  2  0
 34 35  1  0
 35 36  2  0
 16  3  1  0
 36 17  1  0
 15  5  1  0
 30 19  1  0
 36 31  1  0
 12  8  2  0
 29 24  1  0
  4 37  1  0
  6 38  1  0
  9 39  1  0
 11 40  1  0
 12 41  1  0
 13 42  1  0
 14 43  1  0
 16 44  1  0
 18 45  1  0
 18 46  1  0
 20 47  1  0
 20 48  1  0
 21 49  1  0
 21 50  1  0
 23 51  1  0
 23 52  1  0
 24 53  1  0
 25 54  1  0
 25 55  1  0
 26 56  1  0
 26 57  1  0
 27 58  1  0
 27 59  1  0
 28 60  1  0
 28 61  1  0
 29 62  1  0
 29 63  1  0
 30 64  1  0
 30 65  1  0
 32 66  1  0
 33 67  1  0
 34 68  1  0
 35 69  1  0
M  END
>  <smiles>  (30) 
O=C(c1cc2cc(-c3cn[nH]c3)ccc2[nH]1)N1C[C@]2(CCN(CC3CCCCC3)C2)c2ccccc21

>  <score_type>  (30) 
oracle

>  <origin>  (30) 
autodockgpu

>  <m_score__min__energy>  (30) 
-9.5899999999999999

>  <m_primary>  (30) 
energy

>  <rmsd>  (30) 
5.381642193231975

>  <m_score__min__rmsd>  (30) 
5.381642193231975

>  <meeko>  (30) 
{"free_energy": -8.79, "intermolecular_energy": -10.28, "internal_energy": -2.09, "cluster_size": 20, "cluster_id": 6, "rank_in_cluster": 2}

>  <energy>  (30) 
-8.75

>  <cluster_rmsd>  (30) 
0.47

>  <cluster>  (30) 
6

$$$$

     RDKit          3D

 69 75  0  0  0  0  0  0  0  0999 V2000
  137.4260   77.2970  222.5720 O   0  0  0  0  0  0  0  0  0  0  0  0
  138.7100   77.5120  222.6530 C   0  0  0  0  0  0  0  0  0  0  0  0
  139.5130   76.3850  222.2320 C   0  0  0  0  0  0  0  0  0  0  0  0
  140.7430   76.5300  221.6210 C   0  0  0  0  0  0  0  0  0  0  0  0
  141.3040   75.2830  221.3650 C   0  0  0  0  0  0  0  0  0  0  0  0
  142.4810   74.8670  220.8050 C   0  0  0  0  0  0  0  0  0  0  0  0
  142.7470   73.5230  220.7130 C   0  0  0  0  0  0  0  0  0  0  0  0
  143.9950   73.0000  220.1440 C   0  0  0  0  0  0  0  0  0  0  0  0
  144.4700   73.0890  218.8570 C   0  0  0  0  0  0  0  0  0  0  0  0
  145.6540   72.4520  218.8050 N   0  0  0  0  0  0  0  0  0  0  0  0
  145.9550   71.9610  219.9970 N   0  0  0  0  0  0  0  0  0  0  0  0
  144.9590   72.2760  220.8480 C   0  0  0  0  0  0  0  0  0  0  0  0
  141.8460   72.5570  221.1750 C   0  0  0  0  0  0  0  0  0  0  0  0
  140.6740   73.0330  221.7280 C   0  0  0  0  0  0  0  0  0  0  0  0
  140.3920   74.3800  221.8310 C   0  0  0  0  0  0  0  0  0  0  0  0
  139.3280   75.0640  222.3460 N   0  0  0  0  0  0  0  0  0  0  0  0
  139.0780   78.7550  223.1100 N   0  0  0  0  0  0  0  0  0  0  0  0
  138.0670   79.8240  223.4200 C   0  0  0  0  0  0  0  0  0  0  0  0
  138.7360   80.9160  222.5910 C   0  0  1  0  0  0  0  0  0  0  0  0
  138.5420   80.5640  221.1510 C   0  0  0  0  0  0  0  0  0  0  0  0
  137.1710   81.2470  220.8710 C   0  0  0  0  0  0  0  0  0  0  0  0
  137.3520   82.4910  221.5000 N   0  0  0  0  0  0  0  0  0  0  0  0
  137.7570   83.6370  220.8250 C   0  0  0  0  0  0  0  0  0  0  0  0
  138.9250   83.6090  219.8910 C   0  0  0  0  0  0  0  0  0  0  0  0
  138.7640   82.7020  218.7660 C   0  0  0  0  0  0  0  0  0  0  0  0
  140.0430   82.2690  218.0790 C   0  0  0  0  0  0  0  0  0  0  0  0
  141.2870   82.8530  218.6770 C   0  0  0  0  0  0  0  0  0  0  0  0
  141.1880   82.5060  220.1700 C   0  0  0  0  0  0  0  0  0  0  0  0
  140.1560   83.4340  220.7310 C   0  0  0  0  0  0  0  0  0  0  0  0
  138.1370   82.2600  222.7190 C   0  0  0  0  0  0  0  0  0  0  0  0
  140.1400   80.7830  223.0570 C   0  0  0  0  0  0  0  0  0  0  0  0
  141.2230   81.6040  223.2500 C   0  0  0  0  0  0  0  0  0  0  0  0
  142.4130   81.1110  223.7210 C   0  0  0  0  0  0  0  0  0  0  0  0
  142.5700   79.7560  224.0200 C   0  0  0  0  0  0  0  0  0  0  0  0
  141.4960   78.9180  223.8310 C   0  0  0  0  0  0  0  0  0  0  0  0
  140.3050   79.4230  223.3590 C   0  0  0  0  0  0  0  0  0  0  0  0
  141.2119   77.4935  221.3724 H   0  0  0  0  0  0  0  0  0  0  0  0
  143.2081   75.6031  220.4316 H   0  0  0  0  0  0  0  0  0  0  0  0
  143.9697   73.5928  218.0168 H   0  0  0  0  0  0  0  0  0  0  0  0
  146.8310   71.4190  220.2070 H   0  0  0  0  0  0  0  0  0  0  0  0
  144.9133   72.0087  221.9141 H   0  0  0  0  0  0  0  0  0  0  0  0
  142.0593   71.4804  221.1018 H   0  0  0  0  0  0  0  0  0  0  0  0
  139.9349   72.3091  222.1017 H   0  0  0  0  0  0  0  0  0  0  0  0
  138.5310   74.5670  222.7580 H   0  0  0  0  0  0  0  0  0  0  0  0
  137.0585   79.5734  223.0592 H   0  0  0  0  0  0  0  0  0  0  0  0
  137.8759   80.0434  224.4808 H   0  0  0  0  0  0  0  0  0  0  0  0
  139.3400   80.9825  220.5201 H   0  0  0  0  0  0  0  0  0  0  0  0
  138.5679   79.4854  220.9364 H   0  0  0  0  0  0  0  0  0  0  0  0
  136.9915   81.3632  219.7920 H   0  0  0  0  0  0  0  0  0  0  0  0
  136.3015   80.6797  221.2344 H   0  0  0  0  0  0  0  0  0  0  0  0
  136.8924   83.9740  220.2344 H   0  0  0  0  0  0  0  0  0  0  0  0
  138.1144   84.2839  221.6397 H   0  0  0  0  0  0  0  0  0  0  0  0
  139.0190   84.5616  219.3491 H   0  0  0  0  0  0  0  0  0  0  0  0
  138.2548   81.7981  219.1316 H   0  0  0  0  0  0  0  0  0  0  0  0
  138.1942   83.2623  218.0101 H   0  0  0  0  0  0  0  0  0  0  0  0
  140.1129   81.1728  218.1384 H   0  0  0  0  0  0  0  0  0  0  0  0
  139.9866   82.6358  217.0435 H   0  0  0  0  0  0  0  0  0  0  0  0
  142.1842   82.3999  218.2301 H   0  0  0  0  0  0  0  0  0  0  0  0
  141.3701   83.9357  218.5013 H   0  0  0  0  0  0  0  0  0  0  0  0
  140.8754   81.4595  220.3012 H   0  0  0  0  0  0  0  0  0  0  0  0
  142.1565   82.6184  220.6792 H   0  0  0  0  0  0  0  0  0  0  0  0
  139.8455   83.0438  221.7115 H   0  0  0  0  0  0  0  0  0  0  0  0
  140.6329   84.4240  220.7809 H   0  0  0  0  0  0  0  0  0  0  0  0
  138.9271   83.0198  222.8105 H   0  0  0  0  0  0  0  0  0  0  0  0
  137.5033   82.3265  223.6157 H   0  0  0  0  0  0  0  0  0  0  0  0
  141.1349   82.6767  223.0228 H   0  0  0  0  0  0  0  0  0  0  0  0
  143.2608   81.7967  223.8661 H   0  0  0  0  0  0  0  0  0  0  0  0
  143.5281   79.3688  224.3970 H   0  0  0  0  0  0  0  0  0  0  0  0
  141.5883   77.8454  224.0566 H   0  0  0  0  0  0  0  0  0  0  0  0
  1  2  2  0
  2  3  1  0
  3  4  2  0
  4  5  1  0
  5  6  2  0
  6  7  1  0
  7  8  1  0
  8  9  1  0
  9 10  2  0
 10 11  1  0
 11 12  1  0
  7 13  2  0
 13 14  1  0
 14 15  2  0
 15 16  1  0
  2 17  1  0
 17 18  1  0
 19 18  1  1
 19 20  1  0
 20 21  1  0
 21 22  1  0
 22 23  1  0
 23 24  1  0
 24 25  1  0
 25 26  1  0
 26 27  1  0
 27 28  1  0
 28 29  1  0
 22 30  1  0
 19 31  1  0
 31 32  2  0
 32 33  1  0
 33 34  2  0
 34 35  1  0
 35 36  2  0
 16  3  1  0
 36 17  1  0
 15  5  1  0
 30 19  1  0
 36 31  1  0
 12  8  2  0
 29 24  1  0
  4 37  1  0
  6 38  1  0
  9 39  1  0
 11 40  1  0
 12 41  1  0
 13 42  1  0
 14 43  1  0
 16 44  1  0
 18 45  1  0
 18 46  1  0
 20 47  1  0
 20 48  1  0
 21 49  1  0
 21 50  1  0
 23 51  1  0
 23 52  1  0
 24 53  1  0
 25 54  1  0
 25 55  1  0
 26 56  1  0
 26 57  1  0
 27 58  1  0
 27 59  1  0
 28 60  1  0
 28 61  1  0
 29 62  1  0
 29 63  1  0
 30 64  1  0
 30 65  1  0
 32 66  1  0
 33 67  1  0
 34 68  1  0
 35 69  1  0
M  END
>  <smiles>  (31) 
O=C(c1cc2cc(-c3cn[nH]c3)ccc2[nH]1)N1C[C@]2(CCN(CC3CCCCC3)C2)c2ccccc21

>  <score_type>  (31) 
oracle

>  <origin>  (31) 
autodockgpu

>  <m_score__min__energy>  (31) 
-9.5899999999999999

>  <m_primary>  (31) 
energy

>  <rmsd>  (31) 
5.389033660240978

>  <m_score__min__rmsd>  (31) 
5.389033660240978

>  <meeko>  (31) 
{"free_energy": -8.75, "intermolecular_energy": -10.24, "internal_energy": -2.03, "cluster_size": 20, "cluster_id": 6, "rank_in_cluster": 3}

>  <energy>  (31) 
-8.73

>  <cluster_rmsd>  (31) 
0.45

>  <cluster>  (31) 
6

$$$$

     RDKit          3D

 69 75  0  0  0  0  0  0  0  0999 V2000
  137.4880   77.2260  222.6840 O   0  0  0  0  0  0  0  0  0  0  0  0
  138.7680   77.4750  222.6680 C   0  0  0  0  0  0  0  0  0  0  0  0
  139.5700   76.3490  222.2440 C   0  0  0  0  0  0  0  0  0  0  0  0
  140.8050   76.4940  221.6410 C   0  0  0  0  0  0  0  0  0  0  0  0
  141.3640   75.2480  221.3800 C   0  0  0  0  0  0  0  0  0  0  0  0
  142.5440   74.8330  220.8240 C   0  0  0  0  0  0  0  0  0  0  0  0
  142.8070   73.4890  220.7230 C   0  0  0  0  0  0  0  0  0  0  0  0
  144.0560   72.9670  220.1580 C   0  0  0  0  0  0  0  0  0  0  0  0
  145.2150   73.6350  219.8380 C   0  0  0  0  0  0  0  0  0  0  0  0
  146.0880   72.7410  219.3410 N   0  0  0  0  0  0  0  0  0  0  0  0
  145.5410   71.5360  219.3280 N   0  0  0  0  0  0  0  0  0  0  0  0
  144.2920   71.6320  219.8230 C   0  0  0  0  0  0  0  0  0  0  0  0
  141.9000   72.5220  221.1730 C   0  0  0  0  0  0  0  0  0  0  0  0
  140.7260   72.9970  221.7230 C   0  0  0  0  0  0  0  0  0  0  0  0
  140.4470   74.3440  221.8340 C   0  0  0  0  0  0  0  0  0  0  0  0
  139.3810   75.0270  222.3470 N   0  0  0  0  0  0  0  0  0  0  0  0
  139.1330   78.7450  223.0430 N   0  0  0  0  0  0  0  0  0  0  0  0
  138.1260   79.8510  223.2050 C   0  0  0  0  0  0  0  0  0  0  0  0
  138.8630   80.8610  222.3310 C   0  0  1  0  0  0  0  0  0  0  0  0
  138.7450   80.3950  220.9160 C   0  0  0  0  0  0  0  0  0  0  0  0
  137.4070   81.0720  220.5010 C   0  0  0  0  0  0  0  0  0  0  0  0
  137.5750   82.3610  221.0360 N   0  0  0  0  0  0  0  0  0  0  0  0
  138.0400   83.4420  220.2960 C   0  0  0  0  0  0  0  0  0  0  0  0
  139.2490   83.3150  219.4240 C   0  0  0  0  0  0  0  0  0  0  0  0
  139.1120   82.3360  218.3580 C   0  0  0  0  0  0  0  0  0  0  0  0
  140.4090   81.8200  217.7670 C   0  0  0  0  0  0  0  0  0  0  0  0
  141.6400   82.4100  218.3830 C   0  0  0  0  0  0  0  0  0  0  0  0
  141.4610   82.1710  219.8890 C   0  0  0  0  0  0  0  0  0  0  0  0
  140.4330   83.1660  220.3340 C   0  0  0  0  0  0  0  0  0  0  0  0
  138.2830   82.2200  222.3140 C   0  0  0  0  0  0  0  0  0  0  0  0
  140.2340   80.7470  222.8890 C   0  0  0  0  0  0  0  0  0  0  0  0
  141.3200   81.5650  223.0790 C   0  0  0  0  0  0  0  0  0  0  0  0
  142.4710   81.0960  223.6570 C   0  0  0  0  0  0  0  0  0  0  0  0
  142.5850   79.7670  224.0740 C   0  0  0  0  0  0  0  0  0  0  0  0
  141.5070   78.9320  223.8910 C   0  0  0  0  0  0  0  0  0  0  0  0
  140.3550   79.4140  223.3100 C   0  0  0  0  0  0  0  0  0  0  0  0
  141.2782   77.4577  221.4017 H   0  0  0  0  0  0  0  0  0  0  0  0
  143.2755   75.5700  220.4611 H   0  0  0  0  0  0  0  0  0  0  0  0
  145.3961   74.7124  219.9662 H   0  0  0  0  0  0  0  0  0  0  0  0
  146.0290   70.6710  218.9810 H   0  0  0  0  0  0  0  0  0  0  0  0
  143.5804   70.8018  219.9427 H   0  0  0  0  0  0  0  0  0  0  0  0
  142.1107   71.4453  221.0929 H   0  0  0  0  0  0  0  0  0  0  0  0
  139.9830   72.2724  222.0875 H   0  0  0  0  0  0  0  0  0  0  0  0
  138.5810   74.5290  222.7510 H   0  0  0  0  0  0  0  0  0  0  0  0
  137.1354   79.5864  222.8068 H   0  0  0  0  0  0  0  0  0  0  0  0
  137.8781   80.1597  224.2313 H   0  0  0  0  0  0  0  0  0  0  0  0
  139.5860   80.7484  220.3013 H   0  0  0  0  0  0  0  0  0  0  0  0
  138.7619   79.3021  220.7919 H   0  0  0  0  0  0  0  0  0  0  0  0
  137.2924   81.1014  219.4074 H   0  0  0  0  0  0  0  0  0  0  0  0
  136.5072   80.5492  220.8576 H   0  0  0  0  0  0  0  0  0  0  0  0
  137.2126   83.7516  219.6406 H   0  0  0  0  0  0  0  0  0  0  0  0
  138.3757   84.1423  221.0750 H   0  0  0  0  0  0  0  0  0  0  0  0
  139.3987   84.2233  218.8218 H   0  0  0  0  0  0  0  0  0  0  0  0
  138.5577   81.4749  218.7595 H   0  0  0  0  0  0  0  0  0  0  0  0
  138.5958   82.8567  217.5380 H   0  0  0  0  0  0  0  0  0  0  0  0
  140.4420   80.7293  217.9062 H   0  0  0  0  0  0  0  0  0  0  0  0
  140.4132   82.1138  216.7070 H   0  0  0  0  0  0  0  0  0  0  0  0
  142.5429   81.9027  218.0123 H   0  0  0  0  0  0  0  0  0  0  0  0
  141.7640   83.4751  218.1378 H   0  0  0  0  0  0  0  0  0  0  0  0
  141.1096   81.1456  220.0762 H   0  0  0  0  0  0  0  0  0  0  0  0
  142.4078   82.2907  220.4361 H   0  0  0  0  0  0  0  0  0  0  0  0
  140.0647   82.8551  221.3228 H   0  0  0  0  0  0  0  0  0  0  0  0
  140.9377   84.1434  220.3392 H   0  0  0  0  0  0  0  0  0  0  0  0
  139.0807   82.9735  222.3905 H   0  0  0  0  0  0  0  0  0  0  0  0
  137.5998   82.3690  223.1631 H   0  0  0  0  0  0  0  0  0  0  0  0
  141.2655   82.6167  222.7614 H   0  0  0  0  0  0  0  0  0  0  0  0
  143.3219   81.7793  223.7954 H   0  0  0  0  0  0  0  0  0  0  0  0
  143.5124   79.3982  224.5365 H   0  0  0  0  0  0  0  0  0  0  0  0
  141.5651   77.8804  224.2084 H   0  0  0  0  0  0  0  0  0  0  0  0
  1  2  2  0
  2  3  1  0
  3  4  2  0
  4  5  1  0
  5  6  2  0
  6  7  1  0
  7  8  1  0
  8  9  1  0
  9 10  2  0
 10 11  1  0
 11 12  1  0
  7 13  2  0
 13 14  1  0
 14 15  2  0
 15 16  1  0
  2 17  1  0
 17 18  1  0
 19 18  1  1
 19 20  1  0
 20 21  1  0
 21 22  1  0
 22 23  1  0
 23 24  1  0
 24 25  1  0
 25 26  1  0
 26 27  1  0
 27 28  1  0
 28 29  1  0
 22 30  1  0
 19 31  1  0
 31 32  2  0
 32 33  1  0
 33 34  2  0
 34 35  1  0
 35 36  2  0
 16  3  1  0
 36 17  1  0
 15  5  1  0
 30 19  1  0
 36 31  1  0
 12  8  2  0
 29 24  1  0
  4 37  1  0
  6 38  1  0
  9 39  1  0
 11 40  1  0
 12 41  1  0
 13 42  1  0
 14 43  1  0
 16 44  1  0
 18 45  1  0
 18 46  1  0
 20 47  1  0
 20 48  1  0
 21 49  1  0
 21 50  1  0
 23 51  1  0
 23 52  1  0
 24 53  1  0
 25 54  1  0
 25 55  1  0
 26 56  1  0
 26 57  1  0
 27 58  1  0
 27 59  1  0
 28 60  1  0
 28 61  1  0
 29 62  1  0
 29 63  1  0
 30 64  1  0
 30 65  1  0
 32 66  1  0
 33 67  1  0
 34 68  1  0
 35 69  1  0
M  END
>  <smiles>  (32) 
O=C(c1cc2cc(-c3cn[nH]c3)ccc2[nH]1)N1C[C@]2(CCN(CC3CCCCC3)C2)c2ccccc21

>  <score_type>  (32) 
oracle

>  <origin>  (32) 
autodockgpu

>  <m_score__min__energy>  (32) 
-9.5899999999999999

>  <m_primary>  (32) 
energy

>  <rmsd>  (32) 
5.361516396483094

>  <m_score__min__rmsd>  (32) 
5.361516396483094

>  <meeko>  (32) 
{"free_energy": -8.73, "intermolecular_energy": -10.23, "internal_energy": -2.08, "cluster_size": 20, "cluster_id": 6, "rank_in_cluster": 5}

>  <energy>  (32) 
-8.73

>  <cluster_rmsd>  (32) 
0.44

>  <cluster>  (32) 
6

$$$$

     RDKit          3D

 69 75  0  0  0  0  0  0  0  0999 V2000
  134.9180   70.9720  222.6170 O   0  0  0  0  0  0  0  0  0  0  0  0
  135.8610   71.8140  222.9380 C   0  0  0  0  0  0  0  0  0  0  0  0
  135.3670   73.0340  223.5360 C   0  0  0  0  0  0  0  0  0  0  0  0
  134.5740   73.0450  224.6680 C   0  0  0  0  0  0  0  0  0  0  0  0
  134.2840   74.3530  225.0400 C   0  0  0  0  0  0  0  0  0  0  0  0
  133.5700   74.9140  226.0640 C   0  0  0  0  0  0  0  0  0  0  0  0
  133.4880   76.2810  226.1610 C   0  0  0  0  0  0  0  0  0  0  0  0
  132.7590   76.9560  227.2410 C   0  0  0  0  0  0  0  0  0  0  0  0
  131.6740   76.5210  227.9650 C   0  0  0  0  0  0  0  0  0  0  0  0
  131.3460   77.4840  228.8440 N   0  0  0  0  0  0  0  0  0  0  0  0
  132.1700   78.5130  228.7140 N   0  0  0  0  0  0  0  0  0  0  0  0
  133.0540   78.2270  227.7380 C   0  0  0  0  0  0  0  0  0  0  0  0
  134.1140   77.1260  225.2380 C   0  0  0  0  0  0  0  0  0  0  0  0
  134.8180   76.5080  224.2240 C   0  0  0  0  0  0  0  0  0  0  0  0
  134.9130   75.1350  224.1140 C   0  0  0  0  0  0  0  0  0  0  0  0
  135.5550   74.3220  223.2240 N   0  0  0  0  0  0  0  0  0  0  0  0
  137.1440   71.4030  222.6660 N   0  0  0  0  0  0  0  0  0  0  0  0
  137.5300   69.9500  222.6400 C   0  0  0  0  0  0  0  0  0  0  0  0
  138.7270   70.0900  223.5740 C   0  0  1  0  0  0  0  0  0  0  0  0
  138.1940   70.3540  224.9450 C   0  0  0  0  0  0  0  0  0  0  0  0
  138.0090   68.8990  225.4660 C   0  0  0  0  0  0  0  0  0  0  0  0
  139.2080   68.3020  225.0430 N   0  0  0  0  0  0  0  0  0  0  0  0
  140.3250   68.1660  225.8610 C   0  0  0  0  0  0  0  0  0  0  0  0
  140.7710   69.2860  226.7460 C   0  0  0  0  0  0  0  0  0  0  0  0
  139.7970   69.6700  227.7560 C   0  0  0  0  0  0  0  0  0  0  0  0
  139.9680   71.0570  228.3410 C   0  0  0  0  0  0  0  0  0  0  0  0
  141.1290   71.8200  227.7810 C   0  0  0  0  0  0  0  0  0  0  0  0
  140.9170   71.7670  226.2610 C   0  0  0  0  0  0  0  0  0  0  0  0
  141.2870   70.3750  225.8520 C   0  0  0  0  0  0  0  0  0  0  0  0
  139.5480   68.8720  223.7340 C   0  0  0  0  0  0  0  0  0  0  0  0
  139.4100   71.2570  222.9600 C   0  0  0  0  0  0  0  0  0  0  0  0
  140.6970   71.7100  222.8060 C   0  0  0  0  0  0  0  0  0  0  0  0
  140.9630   72.8830  222.1480 C   0  0  0  0  0  0  0  0  0  0  0  0
  139.9370   73.6620  221.6100 C   0  0  0  0  0  0  0  0  0  0  0  0
  138.6410   73.2250  221.7550 C   0  0  0  0  0  0  0  0  0  0  0  0
  138.3850   72.0450  222.4180 C   0  0  0  0  0  0  0  0  0  0  0  0
  134.2227   72.1477  225.1985 H   0  0  0  0  0  0  0  0  0  0  0  0
  133.0658   74.2746  226.8035 H   0  0  0  0  0  0  0  0  0  0  0  0
  131.1635   75.5540  227.8458 H   0  0  0  0  0  0  0  0  0  0  0  0
  132.1130   79.3900  229.2920 H   0  0  0  0  0  0  0  0  0  0  0  0
  133.8676   78.8818  227.3925 H   0  0  0  0  0  0  0  0  0  0  0  0
  134.0488   78.2213  225.3160 H   0  0  0  0  0  0  0  0  0  0  0  0
  135.3233   77.1342  223.4740 H   0  0  0  0  0  0  0  0  0  0  0  0
  136.0990   74.7150  222.4490 H   0  0  0  0  0  0  0  0  0  0  0  0
  136.7466   69.2942  223.0477 H   0  0  0  0  0  0  0  0  0  0  0  0
  137.7110   69.4951  221.6550 H   0  0  0  0  0  0  0  0  0  0  0  0
  138.9134   70.9161  225.5586 H   0  0  0  0  0  0  0  0  0  0  0  0
  137.2818   70.9682  224.9705 H   0  0  0  0  0  0  0  0  0  0  0  0
  137.9103   68.8727  226.5613 H   0  0  0  0  0  0  0  0  0  0  0  0
  137.1014   68.3995  225.0961 H   0  0  0  0  0  0  0  0  0  0  0  0
  140.1285   67.3065  226.5188 H   0  0  0  0  0  0  0  0  0  0  0  0
  141.1484   68.0873  225.1359 H   0  0  0  0  0  0  0  0  0  0  0  0
  141.5968   68.9672  227.3990 H   0  0  0  0  0  0  0  0  0  0  0  0
  138.7978   69.6169  227.2991 H   0  0  0  0  0  0  0  0  0  0  0  0
  139.9428   68.9717  228.5934 H   0  0  0  0  0  0  0  0  0  0  0  0
  139.0504   71.6305  228.1432 H   0  0  0  0  0  0  0  0  0  0  0  0
  140.1645   70.9253  229.4153 H   0  0  0  0  0  0  0  0  0  0  0  0
  141.1220   72.8598  228.1398 H   0  0  0  0  0  0  0  0  0  0  0  0
  142.0975   71.3972  228.0862 H   0  0  0  0  0  0  0  0  0  0  0  0
  139.8656   71.9738  226.0124 H   0  0  0  0  0  0  0  0  0  0  0  0
  141.5248   72.5203  225.7384 H   0  0  0  0  0  0  0  0  0  0  0  0
  140.8905   70.2011  224.8408 H   0  0  0  0  0  0  0  0  0  0  0  0
  142.3842   70.3222  225.9100 H   0  0  0  0  0  0  0  0  0  0  0  0
  140.6171   69.1283  223.6985 H   0  0  0  0  0  0  0  0  0  0  0  0
  139.3494   68.1525  222.9260 H   0  0  0  0  0  0  0  0  0  0  0  0
  141.5297   71.1211  223.2180 H   0  0  0  0  0  0  0  0  0  0  0  0
  142.0057   73.2170  222.0418 H   0  0  0  0  0  0  0  0  0  0  0  0
  140.1595   74.6017  221.0833 H   0  0  0  0  0  0  0  0  0  0  0  0
  137.8105   73.8166  221.3423 H   0  0  0  0  0  0  0  0  0  0  0  0
  1  2  2  0
  2  3  1  0
  3  4  2  0
  4  5  1  0
  5  6  2  0
  6  7  1  0
  7  8  1  0
  8  9  1  0
  9 10  2  0
 10 11  1  0
 11 12  1  0
  7 13  2  0
 13 14  1  0
 14 15  2  0
 15 16  1  0
  2 17  1  0
 17 18  1  0
 19 18  1  6
 19 20  1  0
 20 21  1  0
 21 22  1  0
 22 23  1  0
 23 24  1  0
 24 25  1  0
 25 26  1  0
 26 27  1  0
 27 28  1  0
 28 29  1  0
 22 30  1  0
 19 31  1  0
 31 32  2  0
 32 33  1  0
 33 34  2  0
 34 35  1  0
 35 36  2  0
 16  3  1  0
 36 17  1  0
 15  5  1  0
 30 19  1  0
 36 31  1  0
 12  8  2  0
 29 24  1  0
  4 37  1  0
  6 38  1  0
  9 39  1  0
 11 40  1  0
 12 41  1  0
 13 42  1  0
 14 43  1  0
 16 44  1  0
 18 45  1  0
 18 46  1  0
 20 47  1  0
 20 48  1  0
 21 49  1  0
 21 50  1  0
 23 51  1  0
 23 52  1  0
 24 53  1  0
 25 54  1  0
 25 55  1  0
 26 56  1  0
 26 57  1  0
 27 58  1  0
 27 59  1  0
 28 60  1  0
 28 61  1  0
 29 62  1  0
 29 63  1  0
 30 64  1  0
 30 65  1  0
 32 66  1  0
 33 67  1  0
 34 68  1  0
 35 69  1  0
M  END
>  <smiles>  (33) 
O=C(c1cc2cc(-c3cn[nH]c3)ccc2[nH]1)N1C[C@]2(CCN(CC3CCCCC3)C2)c2ccccc21

>  <score_type>  (33) 
oracle

>  <origin>  (33) 
autodockgpu

>  <m_score__min__energy>  (33) 
-9.5899999999999999

>  <m_primary>  (33) 
energy

>  <rmsd>  (33) 
10.082879850434516

>  <m_score__min__rmsd>  (33) 
10.082879850434516

>  <meeko>  (33) 
{"free_energy": -8.73, "intermolecular_energy": -10.22, "internal_energy": -2.0, "cluster_size": 5, "cluster_id": 5, "rank_in_cluster": 2}

>  <energy>  (33) 
-8.72

>  <cluster_rmsd>  (33) 
0.12

>  <cluster>  (33) 
6

$$$$

     RDKit          3D

 69 75  0  0  0  0  0  0  0  0999 V2000
  137.5840   77.2100  222.8610 O   0  0  0  0  0  0  0  0  0  0  0  0
  138.8470   77.4850  222.6840 C   0  0  0  0  0  0  0  0  0  0  0  0
  139.6300   76.3490  222.2490 C   0  0  0  0  0  0  0  0  0  0  0  0
  140.8640   76.4800  221.6410 C   0  0  0  0  0  0  0  0  0  0  0  0
  141.4020   75.2270  221.3700 C   0  0  0  0  0  0  0  0  0  0  0  0
  142.5730   74.7970  220.8060 C   0  0  0  0  0  0  0  0  0  0  0  0
  142.8150   73.4500  220.6960 C   0  0  0  0  0  0  0  0  0  0  0  0
  144.0540   72.9120  220.1220 C   0  0  0  0  0  0  0  0  0  0  0  0
  145.2190   73.5670  219.7940 C   0  0  0  0  0  0  0  0  0  0  0  0
  146.0770   72.6620  219.2900 N   0  0  0  0  0  0  0  0  0  0  0  0
  145.5150   71.4630  219.2810 N   0  0  0  0  0  0  0  0  0  0  0  0
  144.2700   71.5750  219.7850 C   0  0  0  0  0  0  0  0  0  0  0  0
  141.8960   72.4950  221.1440 C   0  0  0  0  0  0  0  0  0  0  0  0
  140.7310   72.9840  221.7020 C   0  0  0  0  0  0  0  0  0  0  0  0
  140.4730   74.3340  221.8220 C   0  0  0  0  0  0  0  0  0  0  0  0
  139.4210   75.0300  222.3450 N   0  0  0  0  0  0  0  0  0  0  0  0
  139.2130   78.7860  222.9300 N   0  0  0  0  0  0  0  0  0  0  0  0
  138.2290   79.9210  222.8570 C   0  0  0  0  0  0  0  0  0  0  0  0
  139.0710   80.7980  221.9360 C   0  0  1  0  0  0  0  0  0  0  0  0
  139.0680   80.1580  220.5860 C   0  0  0  0  0  0  0  0  0  0  0  0
  137.7930   80.8000  219.9660 C   0  0  0  0  0  0  0  0  0  0  0  0
  137.9500   82.1440  220.3490 N   0  0  0  0  0  0  0  0  0  0  0  0
  138.5120   83.1130  219.5260 C   0  0  0  0  0  0  0  0  0  0  0  0
  139.7470   82.8270  218.7330 C   0  0  0  0  0  0  0  0  0  0  0  0
  139.5820   81.7890  217.7280 C   0  0  0  0  0  0  0  0  0  0  0  0
  140.8590   81.1300  217.2460 C   0  0  0  0  0  0  0  0  0  0  0  0
  142.1030   81.6620  217.8890 C   0  0  0  0  0  0  0  0  0  0  0  0
  141.8300   81.5460  219.3960 C   0  0  0  0  0  0  0  0  0  0  0  0
  140.8680   82.6490  219.7150 C   0  0  0  0  0  0  0  0  0  0  0  0
  138.5360   82.1540  221.6950 C   0  0  0  0  0  0  0  0  0  0  0  0
  140.3830   80.7320  222.6290 C   0  0  0  0  0  0  0  0  0  0  0  0
  141.4710   81.5470  222.8160 C   0  0  0  0  0  0  0  0  0  0  0  0
  142.5500   81.1350  223.5530 C   0  0  0  0  0  0  0  0  0  0  0  0
  142.5870   79.8690  224.1420 C   0  0  0  0  0  0  0  0  0  0  0  0
  141.5060   79.0370  223.9650 C   0  0  0  0  0  0  0  0  0  0  0  0
  140.4260   79.4610  223.2230 C   0  0  0  0  0  0  0  0  0  0  0  0
  141.3507   77.4379  221.4053 H   0  0  0  0  0  0  0  0  0  0  0  0
  143.3140   75.5248  220.4439 H   0  0  0  0  0  0  0  0  0  0  0  0
  145.4143   74.6420  219.9216 H   0  0  0  0  0  0  0  0  0  0  0  0
  145.9900   70.5930  218.9310 H   0  0  0  0  0  0  0  0  0  0  0  0
  143.5485   70.7541  219.9093 H   0  0  0  0  0  0  0  0  0  0  0  0
  142.0902   71.4158  221.0568 H   0  0  0  0  0  0  0  0  0  0  0  0
  139.9787   72.2684  222.0653 H   0  0  0  0  0  0  0  0  0  0  0  0
  138.6150   74.5420  222.7490 H   0  0  0  0  0  0  0  0  0  0  0  0
  137.2711   79.6253  222.4043 H   0  0  0  0  0  0  0  0  0  0  0  0
  137.8987   80.3626  223.8088 H   0  0  0  0  0  0  0  0  0  0  0  0
  139.9711   80.4155  220.0132 H   0  0  0  0  0  0  0  0  0  0  0  0
  139.0641   79.0581  220.6018 H   0  0  0  0  0  0  0  0  0  0  0  0
  137.7787   80.6918  218.8714 H   0  0  0  0  0  0  0  0  0  0  0  0
  136.8497   80.3428  220.2993 H   0  0  0  0  0  0  0  0  0  0  0  0
  137.7343   83.3980  218.8021 H   0  0  0  0  0  0  0  0  0  0  0  0
  138.8559   83.8714  220.2447 H   0  0  0  0  0  0  0  0  0  0  0  0
  140.0016   83.6750  218.0803 H   0  0  0  0  0  0  0  0  0  0  0  0
  138.9378   81.0058  218.1541 H   0  0  0  0  0  0  0  0  0  0  0  0
  139.1533   82.2903  216.8477 H   0  0  0  0  0  0  0  0  0  0  0  0
  140.7935   80.0529  217.4594 H   0  0  0  0  0  0  0  0  0  0  0  0
  140.9408   81.3463  216.1706 H   0  0  0  0  0  0  0  0  0  0  0  0
  142.9776   81.0590  217.6038 H   0  0  0  0  0  0  0  0  0  0  0  0
  142.3275   82.6937  217.5806 H   0  0  0  0  0  0  0  0  0  0  0  0
  141.3853   80.5679  219.6319 H   0  0  0  0  0  0  0  0  0  0  0  0
  142.7550   81.6283  219.9856 H   0  0  0  0  0  0  0  0  0  0  0  0
  140.4264   82.4402  220.7006 H   0  0  0  0  0  0  0  0  0  0  0  0
  141.4519   83.5806  219.6819 H   0  0  0  0  0  0  0  0  0  0  0  0
  139.3459   82.8963  221.7502 H   0  0  0  0  0  0  0  0  0  0  0  0
  137.7841   82.4226  222.4516 H   0  0  0  0  0  0  0  0  0  0  0  0
  141.4770   82.5505  222.3655 H   0  0  0  0  0  0  0  0  0  0  0  0
  143.4046   81.8151  223.6835 H   0  0  0  0  0  0  0  0  0  0  0  0
  143.4575   79.5459  224.7318 H   0  0  0  0  0  0  0  0  0  0  0  0
  141.5041   78.0336  224.4158 H   0  0  0  0  0  0  0  0  0  0  0  0
  1  2  2  0
  2  3  1  0
  3  4  2  0
  4  5  1  0
  5  6  2  0
  6  7  1  0
  7  8  1  0
  8  9  1  0
  9 10  2  0
 10 11  1  0
 11 12  1  0
  7 13  2  0
 13 14  1  0
 14 15  2  0
 15 16  1  0
  2 17  1  0
 17 18  1  0
 19 18  1  1
 19 20  1  0
 20 21  1  0
 21 22  1  0
 22 23  1  0
 23 24  1  0
 24 25  1  0
 25 26  1  0
 26 27  1  0
 27 28  1  0
 28 29  1  0
 22 30  1  0
 19 31  1  0
 31 32  2  0
 32 33  1  0
 33 34  2  0
 34 35  1  0
 35 36  2  0
 16  3  1  0
 36 17  1  0
 15  5  1  0
 30 19  1  0
 36 31  1  0
 12  8  2  0
 29 24  1  0
  4 37  1  0
  6 38  1  0
  9 39  1  0
 11 40  1  0
 12 41  1  0
 13 42  1  0
 14 43  1  0
 16 44  1  0
 18 45  1  0
 18 46  1  0
 20 47  1  0
 20 48  1  0
 21 49  1  0
 21 50  1  0
 23 51  1  0
 23 52  1  0
 24 53  1  0
 25 54  1  0
 25 55  1  0
 26 56  1  0
 26 57  1  0
 27 58  1  0
 27 59  1  0
 28 60  1  0
 28 61  1  0
 29 62  1  0
 29 63  1  0
 30 64  1  0
 30 65  1  0
 32 66  1  0
 33 67  1  0
 34 68  1  0
 35 69  1  0
M  END
>  <smiles>  (34) 
O=C(c1cc2cc(-c3cn[nH]c3)ccc2[nH]1)N1C[C@]2(CCN(CC3CCCCC3)C2)c2ccccc21

>  <score_type>  (34) 
oracle

>  <origin>  (34) 
autodockgpu

>  <m_score__min__energy>  (34) 
-9.5899999999999999

>  <m_primary>  (34) 
energy

>  <rmsd>  (34) 
5.363650963167638

>  <m_score__min__rmsd>  (34) 
5.363650963167638

>  <meeko>  (34) 
{"free_energy": -8.65, "intermolecular_energy": -10.14, "internal_energy": -2.13, "cluster_size": 20, "cluster_id": 6, "rank_in_cluster": 16}

>  <energy>  (34) 
-8.71

>  <cluster_rmsd>  (34) 
0.46

>  <cluster>  (34) 
6

$$$$

     RDKit          3D

 69 75  0  0  0  0  0  0  0  0999 V2000
  134.5580   70.3850  222.8480 O   0  0  0  0  0  0  0  0  0  0  0  0
  135.4350   71.1830  223.3940 C   0  0  0  0  0  0  0  0  0  0  0  0
  134.8510   72.1560  224.2890 C   0  0  0  0  0  0  0  0  0  0  0  0
  135.1270   73.5080  224.2080 C   0  0  0  0  0  0  0  0  0  0  0  0
  134.3980   74.2070  225.1630 C   0  0  0  0  0  0  0  0  0  0  0  0
  134.2890   75.5300  225.4950 C   0  0  0  0  0  0  0  0  0  0  0  0
  133.4410   75.9050  226.5080 C   0  0  0  0  0  0  0  0  0  0  0  0
  133.2560   77.3040  226.9090 C   0  0  0  0  0  0  0  0  0  0  0  0
  132.8540   77.8180  228.1200 C   0  0  0  0  0  0  0  0  0  0  0  0
  132.8220   79.1580  228.0140 N   0  0  0  0  0  0  0  0  0  0  0  0
  133.1830   79.5230  226.7940 N   0  0  0  0  0  0  0  0  0  0  0  0
  133.4590   78.4120  226.0830 C   0  0  0  0  0  0  0  0  0  0  0  0
  132.6800   74.9700  227.2190 C   0  0  0  0  0  0  0  0  0  0  0  0
  132.8300   73.6490  226.8430 C   0  0  0  0  0  0  0  0  0  0  0  0
  133.6760   73.2560  225.8260 C   0  0  0  0  0  0  0  0  0  0  0  0
  133.9640   72.0360  225.2850 N   0  0  0  0  0  0  0  0  0  0  0  0
  136.7430   70.9620  223.0360 N   0  0  0  0  0  0  0  0  0  0  0  0
  137.3250   69.5790  222.9450 C   0  0  0  0  0  0  0  0  0  0  0  0
  138.5450   69.8650  223.8130 C   0  0  1  0  0  0  0  0  0  0  0  0
  138.0650   70.0220  225.2200 C   0  0  0  0  0  0  0  0  0  0  0  0
  138.1150   68.5440  225.7070 C   0  0  0  0  0  0  0  0  0  0  0  0
  139.3580   68.1310  225.1990 N   0  0  0  0  0  0  0  0  0  0  0  0
  140.5300   68.1350  225.9470 C   0  0  0  0  0  0  0  0  0  0  0  0
  140.8960   69.3100  226.7980 C   0  0  0  0  0  0  0  0  0  0  0  0
  139.8940   69.6590  227.7920 C   0  0  0  0  0  0  0  0  0  0  0  0
  139.9680   71.0720  228.3340 C   0  0  0  0  0  0  0  0  0  0  0  0
  141.0760   71.8940  227.7510 C   0  0  0  0  0  0  0  0  0  0  0  0
  140.8750   71.7790  226.2330 C   0  0  0  0  0  0  0  0  0  0  0  0
  141.3390   70.4030  225.8700 C   0  0  0  0  0  0  0  0  0  0  0  0
  139.5360   68.7710  223.8900 C   0  0  0  0  0  0  0  0  0  0  0  0
  139.0210   71.1300  223.1980 C   0  0  0  0  0  0  0  0  0  0  0  0
  140.2210   71.7620  222.9840 C   0  0  0  0  0  0  0  0  0  0  0  0
  140.2820   72.9750  222.3480 C   0  0  0  0  0  0  0  0  0  0  0  0
  139.1270   73.6140  221.8920 C   0  0  0  0  0  0  0  0  0  0  0  0
  137.9150   72.9960  222.0980 C   0  0  0  0  0  0  0  0  0  0  0  0
  137.8660   71.7780  222.7380 C   0  0  0  0  0  0  0  0  0  0  0  0
  135.8240   73.9654  223.4903 H   0  0  0  0  0  0  0  0  0  0  0  0
  134.8761   76.2872  224.9547 H   0  0  0  0  0  0  0  0  0  0  0  0
  132.6027   77.2347  229.0181 H   0  0  0  0  0  0  0  0  0  0  0  0
  133.2340   80.5210  226.4680 H   0  0  0  0  0  0  0  0  0  0  0  0
  133.7874   78.3827  225.0336 H   0  0  0  0  0  0  0  0  0  0  0  0
  132.0011   75.2698  228.0309 H   0  0  0  0  0  0  0  0  0  0  0  0
  132.2519   72.8796  227.3757 H   0  0  0  0  0  0  0  0  0  0  0  0
  133.5160   71.1840  225.6370 H   0  0  0  0  0  0  0  0  0  0  0  0
  136.6663   68.8111  223.3768 H   0  0  0  0  0  0  0  0  0  0  0  0
  137.5078   69.1757  221.9381 H   0  0  0  0  0  0  0  0  0  0  0  0
  138.7359   70.6657  225.8079 H   0  0  0  0  0  0  0  0  0  0  0  0
  137.0799   70.5019  225.3161 H   0  0  0  0  0  0  0  0  0  0  0  0
  138.0869   68.4802  226.8048 H   0  0  0  0  0  0  0  0  0  0  0  0
  137.2650   67.9302  225.3744 H   0  0  0  0  0  0  0  0  0  0  0  0
  140.4748   67.2665  226.6198 H   0  0  0  0  0  0  0  0  0  0  0  0
  141.3115   68.1436  225.1729 H   0  0  0  0  0  0  0  0  0  0  0  0
  141.7387   69.0684  227.4624 H   0  0  0  0  0  0  0  0  0  0  0  0
  138.9029   69.5245  227.3340 H   0  0  0  0  0  0  0  0  0  0  0  0
  140.0826   68.9988  228.6514 H   0  0  0  0  0  0  0  0  0  0  0  0
  139.0141   71.5752  228.1177 H   0  0  0  0  0  0  0  0  0  0  0  0
  140.1694   70.9877  229.4121 H   0  0  0  0  0  0  0  0  0  0  0  0
  140.9967   72.9418  228.0764 H   0  0  0  0  0  0  0  0  0  0  0  0
  142.0697   71.5474  228.0709 H   0  0  0  0  0  0  0  0  0  0  0  0
  139.8133   71.9069  225.9752 H   0  0  0  0  0  0  0  0  0  0  0  0
  141.4334   72.5544  225.6880 H   0  0  0  0  0  0  0  0  0  0  0  0
  140.9579   70.1702  224.8647 H   0  0  0  0  0  0  0  0  0  0  0  0
  142.4370   70.4268  225.9311 H   0  0  0  0  0  0  0  0  0  0  0  0
  140.5550   69.1758  223.8015 H   0  0  0  0  0  0  0  0  0  0  0  0
  139.3912   68.0482  223.0736 H   0  0  0  0  0  0  0  0  0  0  0  0
  141.1507   71.2862  223.3293 H   0  0  0  0  0  0  0  0  0  0  0  0
  141.2600   73.4544  222.1939 H   0  0  0  0  0  0  0  0  0  0  0  0
  139.1847   74.5865  221.3812 H   0  0  0  0  0  0  0  0  0  0  0  0
  136.9868   73.4743  221.7520 H   0  0  0  0  0  0  0  0  0  0  0  0
  1  2  2  0
  2  3  1  0
  3  4  2  0
  4  5  1  0
  5  6  2  0
  6  7  1  0
  7  8  1  0
  8  9  1  0
  9 10  2  0
 10 11  1  0
 11 12  1  0
  7 13  2  0
 13 14  1  0
 14 15  2  0
 15 16  1  0
  2 17  1  0
 17 18  1  0
 19 18  1  6
 19 20  1  0
 20 21  1  0
 21 22  1  0
 22 23  1  0
 23 24  1  0
 24 25  1  0
 25 26  1  0
 26 27  1  0
 27 28  1  0
 28 29  1  0
 22 30  1  0
 19 31  1  0
 31 32  2  0
 32 33  1  0
 33 34  2  0
 34 35  1  0
 35 36  2  0
 16  3  1  0
 36 17  1  0
 15  5  1  0
 30 19  1  0
 36 31  1  0
 12  8  2  0
 29 24  1  0
  4 37  1  0
  6 38  1  0
  9 39  1  0
 11 40  1  0
 12 41  1  0
 13 42  1  0
 14 43  1  0
 16 44  1  0
 18 45  1  0
 18 46  1  0
 20 47  1  0
 20 48  1  0
 21 49  1  0
 21 50  1  0
 23 51  1  0
 23 52  1  0
 24 53  1  0
 25 54  1  0
 25 55  1  0
 26 56  1  0
 26 57  1  0
 27 58  1  0
 27 59  1  0
 28 60  1  0
 28 61  1  0
 29 62  1  0
 29 63  1  0
 30 64  1  0
 30 65  1  0
 32 66  1  0
 33 67  1  0
 34 68  1  0
 35 69  1  0
M  END
>  <smiles>  (35) 
O=C(c1cc2cc(-c3cn[nH]c3)ccc2[nH]1)N1C[C@]2(CCN(CC3CCCCC3)C2)c2ccccc21

>  <score_type>  (35) 
oracle

>  <origin>  (35) 
autodockgpu

>  <m_score__min__energy>  (35) 
-9.5899999999999999

>  <m_primary>  (35) 
energy

>  <rmsd>  (35) 
10.256509693384922

>  <m_score__min__rmsd>  (35) 
10.256509693384922

>  <meeko>  (35) 
{"free_energy": -8.65, "intermolecular_energy": -10.14, "internal_energy": -2.05, "cluster_size": 5, "cluster_id": 5, "rank_in_cluster": 4}

>  <energy>  (35) 
-8.7

>  <cluster_rmsd>  (35) 
1.0

>  <cluster>  (35) 
6

$$$$

     RDKit          3D

 69 75  0  0  0  0  0  0  0  0999 V2000
  137.7700   80.6730  220.4980 O   0  0  0  0  0  0  0  0  0  0  0  0
  138.4040   80.6830  221.6380 C   0  0  0  0  0  0  0  0  0  0  0  0
  137.5680   81.0460  222.7600 C   0  0  0  0  0  0  0  0  0  0  0  0
  137.9320   80.8070  224.0720 C   0  0  0  0  0  0  0  0  0  0  0  0
  136.9600   81.2960  224.9380 C   0  0  0  0  0  0  0  0  0  0  0  0
  136.8320   81.3330  226.3000 C   0  0  0  0  0  0  0  0  0  0  0  0
  135.7240   81.9210  226.8590 C   0  0  0  0  0  0  0  0  0  0  0  0
  135.5250   82.0170  228.3100 C   0  0  0  0  0  0  0  0  0  0  0  0
  136.1860   81.3670  229.3250 C   0  0  0  0  0  0  0  0  0  0  0  0
  135.6530   81.7680  230.4930 N   0  0  0  0  0  0  0  0  0  0  0  0
  134.6850   82.6420  230.2710 N   0  0  0  0  0  0  0  0  0  0  0  0
  134.5740   82.8230  228.9400 C   0  0  0  0  0  0  0  0  0  0  0  0
  134.7120   82.4870  226.0750 C   0  0  0  0  0  0  0  0  0  0  0  0
  134.8920   82.4200  224.7070 C   0  0  0  0  0  0  0  0  0  0  0  0
  136.0000   81.8350  224.1290 C   0  0  0  0  0  0  0  0  0  0  0  0
  136.3870   81.6730  222.8300 N   0  0  0  0  0  0  0  0  0  0  0  0
  139.7350   80.3460  221.5820 N   0  0  0  0  0  0  0  0  0  0  0  0
  140.3030   79.5150  220.4650 C   0  0  0  0  0  0  0  0  0  0  0  0
  141.0040   78.5030  221.3650 C   0  0  1  0  0  0  0  0  0  0  0  0
  139.9430   77.6670  222.0070 C   0  0  0  0  0  0  0  0  0  0  0  0
  139.7770   76.5450  220.9410 C   0  0  0  0  0  0  0  0  0  0  0  0
  141.1180   76.2570  220.6360 N   0  0  0  0  0  0  0  0  0  0  0  0
  141.8310   75.2190  221.2270 C   0  0  0  0  0  0  0  0  0  0  0  0
  142.6810   74.3040  220.4050 C   0  0  0  0  0  0  0  0  0  0  0  0
  142.5780   72.9020  220.7780 C   0  0  0  0  0  0  0  0  0  0  0  0
  143.7270   72.0170  220.3400 C   0  0  0  0  0  0  0  0  0  0  0  0
  144.8000   72.7370  219.5810 C   0  0  0  0  0  0  0  0  0  0  0  0
  145.1820   73.9140  220.4910 C   0  0  0  0  0  0  0  0  0  0  0  0
  144.0590   74.8970  220.3700 C   0  0  0  0  0  0  0  0  0  0  0  0
  141.8600   77.5230  220.6640 C   0  0  0  0  0  0  0  0  0  0  0  0
  141.6990   79.4170  222.3050 C   0  0  0  0  0  0  0  0  0  0  0  0
  142.8640   79.4270  223.0320 C   0  0  0  0  0  0  0  0  0  0  0  0
  143.1970   80.4940  223.8250 C   0  0  0  0  0  0  0  0  0  0  0  0
  142.3650   81.6110  223.9280 C   0  0  0  0  0  0  0  0  0  0  0  0
  141.1930   81.6190  223.2080 C   0  0  0  0  0  0  0  0  0  0  0  0
  140.8680   80.5420  222.4130 C   0  0  0  0  0  0  0  0  0  0  0  0
  138.8577   80.3024  224.3859 H   0  0  0  0  0  0  0  0  0  0  0  0
  137.6105   80.8952  226.9420 H   0  0  0  0  0  0  0  0  0  0  0  0
  137.0071   80.6452  229.2033 H   0  0  0  0  0  0  0  0  0  0  0  0
  134.1170   83.0980  231.0290 H   0  0  0  0  0  0  0  0  0  0  0  0
  133.8584   83.4900  228.4370 H   0  0  0  0  0  0  0  0  0  0  0  0
  133.8244   82.9581  226.5225 H   0  0  0  0  0  0  0  0  0  0  0  0
  134.1205   82.8506  224.0517 H   0  0  0  0  0  0  0  0  0  0  0  0
  135.8050   82.0190  222.0600 H   0  0  0  0  0  0  0  0  0  0  0  0
  139.5246   79.0580  219.8363 H   0  0  0  0  0  0  0  0  0  0  0  0
  140.9190   80.0332  219.7153 H   0  0  0  0  0  0  0  0  0  0  0  0
  140.2758   77.2617  222.9739 H   0  0  0  0  0  0  0  0  0  0  0  0
  139.0168   78.2095  222.2475 H   0  0  0  0  0  0  0  0  0  0  0  0
  139.2608   75.6672  221.3569 H   0  0  0  0  0  0  0  0  0  0  0  0
  139.1687   76.8350  220.0716 H   0  0  0  0  0  0  0  0  0  0  0  0
  142.4969   75.6806  221.9709 H   0  0  0  0  0  0  0  0  0  0  0  0
  141.0340   74.5515  221.5865 H   0  0  0  0  0  0  0  0  0  0  0  0
  142.3123   74.2469  219.3702 H   0  0  0  0  0  0  0  0  0  0  0  0
  142.5100   72.8486  221.8746 H   0  0  0  0  0  0  0  0  0  0  0  0
  141.6894   72.5183  220.2553 H   0  0  0  0  0  0  0  0  0  0  0  0
  144.1796   71.5695  221.2372 H   0  0  0  0  0  0  0  0  0  0  0  0
  143.3053   71.2654  219.6564 H   0  0  0  0  0  0  0  0  0  0  0  0
  145.6651   72.0794  219.4103 H   0  0  0  0  0  0  0  0  0  0  0  0
  144.4637   73.0658  218.5866 H   0  0  0  0  0  0  0  0  0  0  0  0
  145.2860   73.5761  221.5326 H   0  0  0  0  0  0  0  0  0  0  0  0
  146.1452   74.3582  220.1994 H   0  0  0  0  0  0  0  0  0  0  0  0
  144.1424   75.6122  221.2016 H   0  0  0  0  0  0  0  0  0  0  0  0
  144.1657   75.3601  219.3779 H   0  0  0  0  0  0  0  0  0  0  0  0
  142.8092   77.3939  221.2047 H   0  0  0  0  0  0  0  0  0  0  0  0
  142.0986   77.8638  219.6457 H   0  0  0  0  0  0  0  0  0  0  0  0
  143.5423   78.5628  222.9768 H   0  0  0  0  0  0  0  0  0  0  0  0
  144.1392   80.4701  224.3922 H   0  0  0  0  0  0  0  0  0  0  0  0
  142.6398   82.4622  224.5682 H   0  0  0  0  0  0  0  0  0  0  0  0
  140.5162   82.4842  223.2670 H   0  0  0  0  0  0  0  0  0  0  0  0
  1  2  2  0
  2  3  1  0
  3  4  2  0
  4  5  1  0
  5  6  2  0
  6  7  1  0
  7  8  1  0
  8  9  1  0
  9 10  2  0
 10 11  1  0
 11 12  1  0
  7 13  2  0
 13 14  1  0
 14 15  2  0
 15 16  1  0
  2 17  1  0
 17 18  1  0
 19 18  1  6
 19 20  1  0
 20 21  1  0
 21 22  1  0
 22 23  1  0
 23 24  1  0
 24 25  1  0
 25 26  1  0
 26 27  1  0
 27 28  1  0
 28 29  1  0
 22 30  1  0
 19 31  1  0
 31 32  2  0
 32 33  1  0
 33 34  2  0
 34 35  1  0
 35 36  2  0
 16  3  1  0
 36 17  1  0
 15  5  1  0
 30 19  1  0
 36 31  1  0
 12  8  2  0
 29 24  1  0
  4 37  1  0
  6 38  1  0
  9 39  1  0
 11 40  1  0
 12 41  1  0
 13 42  1  0
 14 43  1  0
 16 44  1  0
 18 45  1  0
 18 46  1  0
 20 47  1  0
 20 48  1  0
 21 49  1  0
 21 50  1  0
 23 51  1  0
 23 52  1  0
 24 53  1  0
 25 54  1  0
 25 55  1  0
 26 56  1  0
 26 57  1  0
 27 58  1  0
 27 59  1  0
 28 60  1  0
 28 61  1  0
 29 62  1  0
 29 63  1  0
 30 64  1  0
 30 65  1  0
 32 66  1  0
 33 67  1  0
 34 68  1  0
 35 69  1  0
M  END
>  <smiles>  (36) 
O=C(c1cc2cc(-c3cn[nH]c3)ccc2[nH]1)N1C[C@]2(CCN(CC3CCCCC3)C2)c2ccccc21

>  <score_type>  (36) 
oracle

>  <origin>  (36) 
autodockgpu

>  <m_score__min__energy>  (36) 
-9.5899999999999999

>  <m_primary>  (36) 
energy

>  <rmsd>  (36) 
9.892796008149592

>  <m_score__min__rmsd>  (36) 
9.892796008149592

>  <meeko>  (36) 
{"free_energy": -9.29, "intermolecular_energy": -10.78, "internal_energy": -1.62, "cluster_size": 4, "cluster_id": 1, "rank_in_cluster": 3}

>  <energy>  (36) 
-8.7

>  <cluster_rmsd>  (36) 
1.01

>  <cluster>  (36) 
6

$$$$

     RDKit          3D

 69 75  0  0  0  0  0  0  0  0999 V2000
  137.4680   77.2420  222.6940 O   0  0  0  0  0  0  0  0  0  0  0  0
  138.7470   77.4930  222.6530 C   0  0  0  0  0  0  0  0  0  0  0  0
  139.5430   76.3650  222.2240 C   0  0  0  0  0  0  0  0  0  0  0  0
  140.7800   76.5070  221.6250 C   0  0  0  0  0  0  0  0  0  0  0  0
  141.3320   75.2590  221.3580 C   0  0  0  0  0  0  0  0  0  0  0  0
  142.5110   74.8400  220.8020 C   0  0  0  0  0  0  0  0  0  0  0  0
  142.7660   73.4960  220.6940 C   0  0  0  0  0  0  0  0  0  0  0  0
  144.0140   72.9690  220.1280 C   0  0  0  0  0  0  0  0  0  0  0  0
  145.1500   73.6440  219.7450 C   0  0  0  0  0  0  0  0  0  0  0  0
  146.0310   72.7420  219.2760 N   0  0  0  0  0  0  0  0  0  0  0  0
  145.5120   71.5260  219.3430 N   0  0  0  0  0  0  0  0  0  0  0  0
  144.2720   71.6230  219.8610 C   0  0  0  0  0  0  0  0  0  0  0  0
  141.8530   72.5310  221.1360 C   0  0  0  0  0  0  0  0  0  0  0  0
  140.6810   73.0100  221.6870 C   0  0  0  0  0  0  0  0  0  0  0  0
  140.4090   74.3580  221.8050 C   0  0  0  0  0  0  0  0  0  0  0  0
  139.3460   75.0440  222.3200 N   0  0  0  0  0  0  0  0  0  0  0  0
  139.1150   78.7670  223.0120 N   0  0  0  0  0  0  0  0  0  0  0  0
  138.1130   79.8780  223.1570 C   0  0  0  0  0  0  0  0  0  0  0  0
  138.8540   80.8740  222.2710 C   0  0  1  0  0  0  0  0  0  0  0  0
  138.7370   80.3890  220.8620 C   0  0  0  0  0  0  0  0  0  0  0  0
  137.4010   81.0660  220.4360 C   0  0  0  0  0  0  0  0  0  0  0  0
  137.5730   82.3610  220.9540 N   0  0  0  0  0  0  0  0  0  0  0  0
  138.0430   83.4300  220.2000 C   0  0  0  0  0  0  0  0  0  0  0  0
  139.2520   83.2870  219.3300 C   0  0  0  0  0  0  0  0  0  0  0  0
  139.1080   82.3020  218.2700 C   0  0  0  0  0  0  0  0  0  0  0  0
  140.4000   81.7700  217.6850 C   0  0  0  0  0  0  0  0  0  0  0  0
  141.6360   82.3540  218.2980 C   0  0  0  0  0  0  0  0  0  0  0  0
  141.4530   82.1270  219.8060 C   0  0  0  0  0  0  0  0  0  0  0  0
  140.4340   83.1340  220.2430 C   0  0  0  0  0  0  0  0  0  0  0  0
  138.2800   82.2350  222.2350 C   0  0  0  0  0  0  0  0  0  0  0  0
  140.2250   80.7630  222.8320 C   0  0  0  0  0  0  0  0  0  0  0  0
  141.3140   81.5790  223.0120 C   0  0  0  0  0  0  0  0  0  0  0  0
  142.4620   81.1130  223.5980 C   0  0  0  0  0  0  0  0  0  0  0  0
  142.5700   79.7900  224.0330 C   0  0  0  0  0  0  0  0  0  0  0  0
  141.4900   78.9570  223.8600 C   0  0  0  0  0  0  0  0  0  0  0  0
  140.3400   79.4350  223.2710 C   0  0  0  0  0  0  0  0  0  0  0  0
  141.2594   77.4694  221.3926 H   0  0  0  0  0  0  0  0  0  0  0  0
  143.2477   75.5747  220.4449 H   0  0  0  0  0  0  0  0  0  0  0  0
  145.3098   74.7303  219.8107 H   0  0  0  0  0  0  0  0  0  0  0  0
  146.0110   70.6540  219.0320 H   0  0  0  0  0  0  0  0  0  0  0  0
  143.5818   70.7859  220.0423 H   0  0  0  0  0  0  0  0  0  0  0  0
  142.0575   71.4536  221.0493 H   0  0  0  0  0  0  0  0  0  0  0  0
  139.9334   72.2876  222.0467 H   0  0  0  0  0  0  0  0  0  0  0  0
  138.5430   74.5480  222.7190 H   0  0  0  0  0  0  0  0  0  0  0  0
  137.1220   79.6115  222.7608 H   0  0  0  0  0  0  0  0  0  0  0  0
  137.8652   80.2014  224.1788 H   0  0  0  0  0  0  0  0  0  0  0  0
  139.5802   80.7310  220.2439 H   0  0  0  0  0  0  0  0  0  0  0  0
  138.7504   79.2946  220.7524 H   0  0  0  0  0  0  0  0  0  0  0  0
  137.2880   81.0813  219.3419 H   0  0  0  0  0  0  0  0  0  0  0  0
  136.4989   80.5513  220.7983 H   0  0  0  0  0  0  0  0  0  0  0  0
  137.2172   83.7343  219.5402 H   0  0  0  0  0  0  0  0  0  0  0  0
  138.3816   84.1387  220.9701 H   0  0  0  0  0  0  0  0  0  0  0  0
  139.4101   84.1898  218.7218 H   0  0  0  0  0  0  0  0  0  0  0  0
  138.5449   81.4489  218.6762 H   0  0  0  0  0  0  0  0  0  0  0  0
  138.5985   82.8224  217.4456 H   0  0  0  0  0  0  0  0  0  0  0  0
  140.4230   80.6802  217.8328 H   0  0  0  0  0  0  0  0  0  0  0  0
  140.4080   82.0553  216.6227 H   0  0  0  0  0  0  0  0  0  0  0  0
  142.5349   81.8363  217.9319 H   0  0  0  0  0  0  0  0  0  0  0  0
  141.7698   83.4162  218.0453 H   0  0  0  0  0  0  0  0  0  0  0  0
  141.0920   81.1062  219.9998 H   0  0  0  0  0  0  0  0  0  0  0  0
  142.4002   82.2419  220.3533 H   0  0  0  0  0  0  0  0  0  0  0  0
  140.0619   82.8333  221.2335 H   0  0  0  0  0  0  0  0  0  0  0  0
  140.9474   84.1069  220.2423 H   0  0  0  0  0  0  0  0  0  0  0  0
  139.0809   82.9861  222.3015 H   0  0  0  0  0  0  0  0  0  0  0  0
  137.5971   82.3990  223.0816 H   0  0  0  0  0  0  0  0  0  0  0  0
  141.2644   82.6264  222.6797 H   0  0  0  0  0  0  0  0  0  0  0  0
  143.3155   81.7946  223.7284 H   0  0  0  0  0  0  0  0  0  0  0  0
  143.4953   79.4241  224.5019 H   0  0  0  0  0  0  0  0  0  0  0  0
  141.5441   77.9096  224.1917 H   0  0  0  0  0  0  0  0  0  0  0  0
  1  2  2  0
  2  3  1  0
  3  4  2  0
  4  5  1  0
  5  6  2  0
  6  7  1  0
  7  8  1  0
  8  9  1  0
  9 10  2  0
 10 11  1  0
 11 12  1  0
  7 13  2  0
 13 14  1  0
 14 15  2  0
 15 16  1  0
  2 17  1  0
 17 18  1  0
 19 18  1  1
 19 20  1  0
 20 21  1  0
 21 22  1  0
 22 23  1  0
 23 24  1  0
 24 25  1  0
 25 26  1  0
 26 27  1  0
 27 28  1  0
 28 29  1  0
 22 30  1  0
 19 31  1  0
 31 32  2  0
 32 33  1  0
 33 34  2  0
 34 35  1  0
 35 36  2  0
 16  3  1  0
 36 17  1  0
 15  5  1  0
 30 19  1  0
 36 31  1  0
 12  8  2  0
 29 24  1  0
  4 37  1  0
  6 38  1  0
  9 39  1  0
 11 40  1  0
 12 41  1  0
 13 42  1  0
 14 43  1  0
 16 44  1  0
 18 45  1  0
 18 46  1  0
 20 47  1  0
 20 48  1  0
 21 49  1  0
 21 50  1  0
 23 51  1  0
 23 52  1  0
 24 53  1  0
 25 54  1  0
 25 55  1  0
 26 56  1  0
 26 57  1  0
 27 58  1  0
 27 59  1  0
 28 60  1  0
 28 61  1  0
 29 62  1  0
 29 63  1  0
 30 64  1  0
 30 65  1  0
 32 66  1  0
 33 67  1  0
 34 68  1  0
 35 69  1  0
M  END
>  <smiles>  (37) 
O=C(c1cc2cc(-c3cn[nH]c3)ccc2[nH]1)N1C[C@]2(CCN(CC3CCCCC3)C2)c2ccccc21

>  <score_type>  (37) 
oracle

>  <origin>  (37) 
autodockgpu

>  <m_score__min__energy>  (37) 
-9.5899999999999999

>  <m_primary>  (37) 
energy

>  <rmsd>  (37) 
5.362004345888373

>  <m_score__min__rmsd>  (37) 
5.362004345888373

>  <meeko>  (37) 
{"free_energy": -8.73, "intermolecular_energy": -10.22, "internal_energy": -2.09, "cluster_size": 20, "cluster_id": 6, "rank_in_cluster": 6}

>  <energy>  (37) 
-8.7

>  <cluster_rmsd>  (37) 
1.04

>  <cluster>  (37) 
6

$$$$

     RDKit          3D

 69 75  0  0  0  0  0  0  0  0999 V2000
  142.7060   77.3560  218.5150 O   0  0  0  0  0  0  0  0  0  0  0  0
  142.2330   76.7320  219.5590 C   0  0  0  0  0  0  0  0  0  0  0  0
  141.6520   77.6150  220.5450 C   0  0  0  0  0  0  0  0  0  0  0  0
  140.2920   77.6810  220.7800 C   0  0  0  0  0  0  0  0  0  0  0  0
  140.0230   78.5810  221.8060 C   0  0  0  0  0  0  0  0  0  0  0  0
  138.8780   79.0010  222.4260 C   0  0  0  0  0  0  0  0  0  0  0  0
  138.9600   79.9150  223.4480 C   0  0  0  0  0  0  0  0  0  0  0  0
  137.7800   80.3990  224.1740 C   0  0  0  0  0  0  0  0  0  0  0  0
  137.7110   81.2220  225.2740 C   0  0  0  0  0  0  0  0  0  0  0  0
  136.4150   81.3830  225.5930 N   0  0  0  0  0  0  0  0  0  0  0  0
  135.6540   80.7020  224.7490 N   0  0  0  0  0  0  0  0  0  0  0  0
  136.4570   80.0820  223.8610 C   0  0  0  0  0  0  0  0  0  0  0  0
  140.1860   80.4370  223.8770 C   0  0  0  0  0  0  0  0  0  0  0  0
  141.3080   79.9800  223.2150 C   0  0  0  0  0  0  0  0  0  0  0  0
  141.2440   79.0600  222.1880 C   0  0  0  0  0  0  0  0  0  0  0  0
  142.2030   78.4660  221.4190 N   0  0  0  0  0  0  0  0  0  0  0  0
  142.3590   75.3630  219.5420 N   0  0  0  0  0  0  0  0  0  0  0  0
  141.3120   74.4710  218.9360 C   0  0  0  0  0  0  0  0  0  0  0  0
  141.1750   73.5500  220.1430 C   0  0  1  0  0  0  0  0  0  0  0  0
  140.4880   74.3250  221.2200 C   0  0  0  0  0  0  0  0  0  0  0  0
  138.9980   74.0330  220.8790 C   0  0  0  0  0  0  0  0  0  0  0  0
  139.0410   72.6520  220.6220 N   0  0  0  0  0  0  0  0  0  0  0  0
  138.7320   71.6880  221.5750 C   0  0  0  0  0  0  0  0  0  0  0  0
  139.2220   71.8110  222.9830 C   0  0  0  0  0  0  0  0  0  0  0  0
  140.6340   71.5040  223.1500 C   0  0  0  0  0  0  0  0  0  0  0  0
  141.0680   71.1440  224.5560 C   0  0  0  0  0  0  0  0  0  0  0  0
  139.9580   71.1620  225.5630 C   0  0  0  0  0  0  0  0  0  0  0  0
  138.8780   70.2570  224.9530 C   0  0  0  0  0  0  0  0  0  0  0  0
  138.2570   71.0590  223.8520 C   0  0  0  0  0  0  0  0  0  0  0  0
  140.3090   72.3690  219.9400 C   0  0  0  0  0  0  0  0  0  0  0  0
  142.6040   73.2650  220.4260 C   0  0  0  0  0  0  0  0  0  0  0  0
  143.3500   72.2270  220.9270 C   0  0  0  0  0  0  0  0  0  0  0  0
  144.7120   72.3220  221.0450 C   0  0  0  0  0  0  0  0  0  0  0  0
  145.3950   73.4780  220.6620 C   0  0  0  0  0  0  0  0  0  0  0  0
  144.6650   74.5300  220.1580 C   0  0  0  0  0  0  0  0  0  0  0  0
  143.2970   74.4240  220.0430 C   0  0  0  0  0  0  0  0  0  0  0  0
  139.5309   77.1044  220.2339 H   0  0  0  0  0  0  0  0  0  0  0  0
  137.9000   78.6100  222.1087 H   0  0  0  0  0  0  0  0  0  0  0  0
  138.5666   81.6700  225.8005 H   0  0  0  0  0  0  0  0  0  0  0  0
  134.6040   80.6710  224.7960 H   0  0  0  0  0  0  0  0  0  0  0  0
  136.1267   79.4377  223.0329 H   0  0  0  0  0  0  0  0  0  0  0  0
  140.2517   81.1695  224.6950 H   0  0  0  0  0  0  0  0  0  0  0  0
  142.2929   80.3647  223.5183 H   0  0  0  0  0  0  0  0  0  0  0  0
  143.1960   78.6840  221.5530 H   0  0  0  0  0  0  0  0  0  0  0  0
  140.3803   75.0067  218.7016 H   0  0  0  0  0  0  0  0  0  0  0  0
  141.5485   74.0021  217.9695 H   0  0  0  0  0  0  0  0  0  0  0  0
  140.7553   73.9535  222.2203 H   0  0  0  0  0  0  0  0  0  0  0  0
  140.7486   75.3932  221.2513 H   0  0  0  0  0  0  0  0  0  0  0  0
  138.3376   74.2645  221.7277 H   0  0  0  0  0  0  0  0  0  0  0  0
  138.5993   74.6340  220.0484 H   0  0  0  0  0  0  0  0  0  0  0  0
  137.6343   71.6423  221.6289 H   0  0  0  0  0  0  0  0  0  0  0  0
  139.2723   70.8031  221.2076 H   0  0  0  0  0  0  0  0  0  0  0  0
  139.2219   72.8613  223.3100 H   0  0  0  0  0  0  0  0  0  0  0  0
  140.8746   70.6541  222.4944 H   0  0  0  0  0  0  0  0  0  0  0  0
  141.1730   72.4293  222.8984 H   0  0  0  0  0  0  0  0  0  0  0  0
  141.4996   70.1324  224.5359 H   0  0  0  0  0  0  0  0  0  0  0  0
  141.7931   71.9094  224.8697 H   0  0  0  0  0  0  0  0  0  0  0  0
  140.3014   70.7625  226.5287 H   0  0  0  0  0  0  0  0  0  0  0  0
  139.5898   72.1787  225.7646 H   0  0  0  0  0  0  0  0  0  0  0  0
  139.3291   69.3377  224.5513 H   0  0  0  0  0  0  0  0  0  0  0  0
  138.1339   69.9487  225.7022 H   0  0  0  0  0  0  0  0  0  0  0  0
  137.6870   70.3710  223.2104 H   0  0  0  0  0  0  0  0  0  0  0  0
  137.6344   71.8205  224.3445 H   0  0  0  0  0  0  0  0  0  0  0  0
  140.7806   71.4745  220.3729 H   0  0  0  0  0  0  0  0  0  0  0  0
  140.1473   72.1770  218.8690 H   0  0  0  0  0  0  0  0  0  0  0  0
  142.8447   71.3013  221.2397 H   0  0  0  0  0  0  0  0  0  0  0  0
  145.2786   71.4704  221.4496 H   0  0  0  0  0  0  0  0  0  0  0  0
  146.4885   73.5460  220.7606 H   0  0  0  0  0  0  0  0  0  0  0  0
  145.1737   75.4545  219.8474 H   0  0  0  0  0  0  0  0  0  0  0  0
  1  2  2  0
  2  3  1  0
  3  4  2  0
  4  5  1  0
  5  6  2  0
  6  7  1  0
  7  8  1  0
  8  9  1  0
  9 10  2  0
 10 11  1  0
 11 12  1  0
  7 13  2  0
 13 14  1  0
 14 15  2  0
 15 16  1  0
  2 17  1  0
 17 18  1  0
 19 18  1  6
 19 20  1  0
 20 21  1  0
 21 22  1  0
 22 23  1  0
 23 24  1  0
 24 25  1  0
 25 26  1  0
 26 27  1  0
 27 28  1  0
 28 29  1  0
 22 30  1  0
 19 31  1  0
 31 32  2  0
 32 33  1  0
 33 34  2  0
 34 35  1  0
 35 36  2  0
 16  3  1  0
 36 17  1  0
 15  5  1  0
 30 19  1  0
 36 31  1  0
 12  8  2  0
 29 24  1  0
  4 37  1  0
  6 38  1  0
  9 39  1  0
 11 40  1  0
 12 41  1  0
 13 42  1  0
 14 43  1  0
 16 44  1  0
 18 45  1  0
 18 46  1  0
 20 47  1  0
 20 48  1  0
 21 49  1  0
 21 50  1  0
 23 51  1  0
 23 52  1  0
 24 53  1  0
 25 54  1  0
 25 55  1  0
 26 56  1  0
 26 57  1  0
 27 58  1  0
 27 59  1  0
 28 60  1  0
 28 61  1  0
 29 62  1  0
 29 63  1  0
 30 64  1  0
 30 65  1  0
 32 66  1  0
 33 67  1  0
 34 68  1  0
 35 69  1  0
M  END
>  <smiles>  (38) 
O=C(c1cc2cc(-c3cn[nH]c3)ccc2[nH]1)N1C[C@]2(CCN(CC3CCCCC3)C2)c2ccccc21

>  <score_type>  (38) 
oracle

>  <origin>  (38) 
autodockgpu

>  <m_score__min__energy>  (38) 
-9.5899999999999999

>  <m_primary>  (38) 
energy

>  <rmsd>  (38) 
9.19886990763351

>  <m_score__min__rmsd>  (38) 
9.19886990763351

>  <meeko>  (38) 
{"free_energy": -8.41, "intermolecular_energy": -9.9, "internal_energy": -2.0, "cluster_size": 6, "cluster_id": 2, "rank_in_cluster": 6}

>  <energy>  (38) 
-8.7

>  <cluster_rmsd>  (38) 
0.7

>  <cluster>  (38) 
6

$$$$

     RDKit          3D

 69 75  0  0  0  0  0  0  0  0999 V2000
  139.5150   75.4230  218.7450 O   0  0  0  0  0  0  0  0  0  0  0  0
  140.1970   75.2500  219.8440 C   0  0  0  0  0  0  0  0  0  0  0  0
  140.1160   76.3690  220.7560 C   0  0  0  0  0  0  0  0  0  0  0  0
  138.9630   77.1090  220.9320 C   0  0  0  0  0  0  0  0  0  0  0  0
  139.1630   78.0920  221.8950 C   0  0  0  0  0  0  0  0  0  0  0  0
  138.3670   79.0600  222.4450 C   0  0  0  0  0  0  0  0  0  0  0  0
  138.8790   79.8840  223.4170 C   0  0  0  0  0  0  0  0  0  0  0  0
  138.0830   80.9310  224.0680 C   0  0  0  0  0  0  0  0  0  0  0  0
  137.5790   82.0970  223.5400 C   0  0  0  0  0  0  0  0  0  0  0  0
  136.9210   82.7450  224.5170 N   0  0  0  0  0  0  0  0  0  0  0  0
  136.9810   82.0490  225.6420 N   0  0  0  0  0  0  0  0  0  0  0  0
  137.6870   80.9260  225.4070 C   0  0  0  0  0  0  0  0  0  0  0  0
  140.1990   79.7660  223.8660 C   0  0  0  0  0  0  0  0  0  0  0  0
  140.9580   78.7740  223.2750 C   0  0  0  0  0  0  0  0  0  0  0  0
  140.4580   77.9360  222.2990 C   0  0  0  0  0  0  0  0  0  0  0  0
  141.0080   76.8980  221.6030 N   0  0  0  0  0  0  0  0  0  0  0  0
  140.8600   74.0510  219.9500 N   0  0  0  0  0  0  0  0  0  0  0  0
  140.1350   72.7340  219.9420 C   0  0  0  0  0  0  0  0  0  0  0  0
  140.7900   72.1880  221.2060 C   0  0  1  0  0  0  0  0  0  0  0  0
  140.2380   72.9580  222.3630 C   0  0  0  0  0  0  0  0  0  0  0  0
  138.9770   72.1100  222.6980 C   0  0  0  0  0  0  0  0  0  0  0  0
  139.4970   70.8060  222.6230 N   0  0  0  0  0  0  0  0  0  0  0  0
  139.9400   70.0950  223.7330 C   0  0  0  0  0  0  0  0  0  0  0  0
  139.9040   70.7010  225.1000 C   0  0  0  0  0  0  0  0  0  0  0  0
  141.0430   71.5520  225.4020 C   0  0  0  0  0  0  0  0  0  0  0  0
  141.3120   71.7930  226.8740 C   0  0  0  0  0  0  0  0  0  0  0  0
  140.3490   71.1070  227.7940 C   0  0  0  0  0  0  0  0  0  0  0  0
  140.3820   69.6380  227.3480 C   0  0  0  0  0  0  0  0  0  0  0  0
  139.6120   69.5890  226.0650 C   0  0  0  0  0  0  0  0  0  0  0  0
  140.4710   70.7810  221.5250 C   0  0  0  0  0  0  0  0  0  0  0  0
  142.2170   72.4800  220.9160 C   0  0  0  0  0  0  0  0  0  0  0  0
  143.4410   71.9250  221.1980 C   0  0  0  0  0  0  0  0  0  0  0  0
  144.6000   72.4920  220.7370 C   0  0  0  0  0  0  0  0  0  0  0  0
  144.5830   73.6560  219.9660 C   0  0  0  0  0  0  0  0  0  0  0  0
  143.3670   74.2280  219.6750 C   0  0  0  0  0  0  0  0  0  0  0  0
  142.2070   73.6490  220.1420 C   0  0  0  0  0  0  0  0  0  0  0  0
  138.0212   76.9442  220.3881 H   0  0  0  0  0  0  0  0  0  0  0  0
  137.3254   79.1770  222.1112 H   0  0  0  0  0  0  0  0  0  0  0  0
  137.6941   82.4391  222.5009 H   0  0  0  0  0  0  0  0  0  0  0  0
  136.5410   82.3520  226.5470 H   0  0  0  0  0  0  0  0  0  0  0  0
  137.9126   80.1404  226.1431 H   0  0  0  0  0  0  0  0  0  0  0  0
  140.6092   80.4254  224.6451 H   0  0  0  0  0  0  0  0  0  0  0  0
  142.0027   78.6471  223.5953 H   0  0  0  0  0  0  0  0  0  0  0  0
  141.9790   76.6110  221.7650 H   0  0  0  0  0  0  0  0  0  0  0  0
  139.0455   72.8474  220.0423 H   0  0  0  0  0  0  0  0  0  0  0  0
  140.2124   72.1226  219.0309 H   0  0  0  0  0  0  0  0  0  0  0  0
  140.9442   72.9848  223.2060 H   0  0  0  0  0  0  0  0  0  0  0  0
  140.0326   74.0175  222.1503 H   0  0  0  0  0  0  0  0  0  0  0  0
  138.5960   72.3347  223.7051 H   0  0  0  0  0  0  0  0  0  0  0  0
  138.1201   72.2932  222.0331 H   0  0  0  0  0  0  0  0  0  0  0  0
  139.3326   69.1791  223.7807 H   0  0  0  0  0  0  0  0  0  0  0  0
  141.0184   69.9940  223.5412 H   0  0  0  0  0  0  0  0  0  0  0  0
  139.0945   71.4410  225.1835 H   0  0  0  0  0  0  0  0  0  0  0  0
  141.9387   71.0846  224.9669 H   0  0  0  0  0  0  0  0  0  0  0  0
  140.8021   72.5372  224.9762 H   0  0  0  0  0  0  0  0  0  0  0  0
  142.3253   71.4316  227.1033 H   0  0  0  0  0  0  0  0  0  0  0  0
  141.1966   72.8737  227.0439 H   0  0  0  0  0  0  0  0  0  0  0  0
  140.6731   71.2042  228.8407 H   0  0  0  0  0  0  0  0  0  0  0  0
  139.3388   71.5394  227.7445 H   0  0  0  0  0  0  0  0  0  0  0  0
  141.4191   69.3092  227.1861 H   0  0  0  0  0  0  0  0  0  0  0  0
  139.9483   68.9720  228.1085 H   0  0  0  0  0  0  0  0  0  0  0  0
  139.8430   68.6363  225.5660 H   0  0  0  0  0  0  0  0  0  0  0  0
  138.5526   69.6957  226.3412 H   0  0  0  0  0  0  0  0  0  0  0  0
  141.3809   70.2478  221.8378 H   0  0  0  0  0  0  0  0  0  0  0  0
  140.0627   70.2597  220.6466 H   0  0  0  0  0  0  0  0  0  0  0  0
  143.4919   71.0089  221.8048 H   0  0  0  0  0  0  0  0  0  0  0  0
  145.5638   72.0204  220.9793 H   0  0  0  0  0  0  0  0  0  0  0  0
  145.5188   74.1041  219.6006 H   0  0  0  0  0  0  0  0  0  0  0  0
  143.3202   75.1459  219.0707 H   0  0  0  0  0  0  0  0  0  0  0  0
  1  2  2  0
  2  3  1  0
  3  4  2  0
  4  5  1  0
  5  6  2  0
  6  7  1  0
  7  8  1  0
  8  9  1  0
  9 10  2  0
 10 11  1  0
 11 12  1  0
  7 13  2  0
 13 14  1  0
 14 15  2  0
 15 16  1  0
  2 17  1  0
 17 18  1  0
 19 18  1  6
 19 20  1  0
 20 21  1  0
 21 22  1  0
 22 23  1  0
 23 24  1  0
 24 25  1  0
 25 26  1  0
 26 27  1  0
 27 28  1  0
 28 29  1  0
 22 30  1  0
 19 31  1  0
 31 32  2  0
 32 33  1  0
 33 34  2  0
 34 35  1  0
 35 36  2  0
 16  3  1  0
 36 17  1  0
 15  5  1  0
 30 19  1  0
 36 31  1  0
 12  8  2  0
 29 24  1  0
  4 37  1  0
  6 38  1  0
  9 39  1  0
 11 40  1  0
 12 41  1  0
 13 42  1  0
 14 43  1  0
 16 44  1  0
 18 45  1  0
 18 46  1  0
 20 47  1  0
 20 48  1  0
 21 49  1  0
 21 50  1  0
 23 51  1  0
 23 52  1  0
 24 53  1  0
 25 54  1  0
 25 55  1  0
 26 56  1  0
 26 57  1  0
 27 58  1  0
 27 59  1  0
 28 60  1  0
 28 61  1  0
 29 62  1  0
 29 63  1  0
 30 64  1  0
 30 65  1  0
 32 66  1  0
 33 67  1  0
 34 68  1  0
 35 69  1  0
M  END
>  <smiles>  (39) 
O=C(c1cc2cc(-c3cn[nH]c3)ccc2[nH]1)N1C[C@]2(CCN(CC3CCCCC3)C2)c2ccccc21

>  <score_type>  (39) 
oracle

>  <origin>  (39) 
autodockgpu

>  <m_score__min__energy>  (39) 
-9.5899999999999999

>  <m_primary>  (39) 
energy

>  <rmsd>  (39) 
9.583784390892479

>  <m_score__min__rmsd>  (39) 
9.583784390892479

>  <meeko>  (39) 
{"free_energy": -9.21, "intermolecular_energy": -10.7, "internal_energy": -1.7, "cluster_size": 6, "cluster_id": 2, "rank_in_cluster": 2}

>  <energy>  (39) 
-8.7

>  <cluster_rmsd>  (39) 
0.51

>  <cluster>  (39) 
6

$$$$

     RDKit          3D

 69 75  0  0  0  0  0  0  0  0999 V2000
  139.7840   72.8150  219.5130 O   0  0  0  0  0  0  0  0  0  0  0  0
  139.2630   73.2350  220.6320 C   0  0  0  0  0  0  0  0  0  0  0  0
  139.2730   72.2430  221.6830 C   0  0  0  0  0  0  0  0  0  0  0  0
  140.1690   72.2760  222.7350 C   0  0  0  0  0  0  0  0  0  0  0  0
  139.9220   71.2260  223.6120 C   0  0  0  0  0  0  0  0  0  0  0  0
  140.4890   70.8160  224.7880 C   0  0  0  0  0  0  0  0  0  0  0  0
  139.9830   69.7150  225.4340 C   0  0  0  0  0  0  0  0  0  0  0  0
  140.5240   69.2260  226.7080 C   0  0  0  0  0  0  0  0  0  0  0  0
  141.0100   69.9390  227.7790 C   0  0  0  0  0  0  0  0  0  0  0  0
  141.4030   69.0610  228.7190 N   0  0  0  0  0  0  0  0  0  0  0  0
  141.1910   67.8240  228.2980 N   0  0  0  0  0  0  0  0  0  0  0  0
  140.6510   67.8820  227.0650 C   0  0  0  0  0  0  0  0  0  0  0  0
  138.8980   68.9920  224.9240 C   0  0  0  0  0  0  0  0  0  0  0  0
  138.3670   69.4480  223.7340 C   0  0  0  0  0  0  0  0  0  0  0  0
  138.8620   70.5540  223.0730 C   0  0  0  0  0  0  0  0  0  0  0  0
  138.4910   71.1820  221.9190 N   0  0  0  0  0  0  0  0  0  0  0  0
  138.8050   74.5310  220.6260 N   0  0  0  0  0  0  0  0  0  0  0  0
  139.0740   75.4690  219.4810 C   0  0  0  0  0  0  0  0  0  0  0  0
  139.6160   76.6080  220.3380 C   0  0  1  0  0  0  0  0  0  0  0  0
  140.9540   76.1830  220.8500 C   0  0  0  0  0  0  0  0  0  0  0  0
  141.8730   76.6700  219.6920 C   0  0  0  0  0  0  0  0  0  0  0  0
  141.3450   77.9480  219.4420 N   0  0  0  0  0  0  0  0  0  0  0  0
  141.8720   79.1130  219.9900 C   0  0  0  0  0  0  0  0  0  0  0  0
  141.3640   79.6510  221.2890 C   0  0  0  0  0  0  0  0  0  0  0  0
  141.2320   81.0990  221.3220 C   0  0  0  0  0  0  0  0  0  0  0  0
  141.1970   81.7260  222.7010 C   0  0  0  0  0  0  0  0  0  0  0  0
  141.3030   80.7410  223.8250 C   0  0  0  0  0  0  0  0  0  0  0  0
  142.5670   79.9310  223.5010 C   0  0  0  0  0  0  0  0  0  0  0  0
  142.1820   79.0190  222.3770 C   0  0  0  0  0  0  0  0  0  0  0  0
  139.8890   77.8660  219.6120 C   0  0  0  0  0  0  0  0  0  0  0  0
  138.5660   76.6780  221.3850 C   0  0  0  0  0  0  0  0  0  0  0  0
  137.9880   77.6400  222.1760 C   0  0  0  0  0  0  0  0  0  0  0  0
  136.9970   77.3250  223.0690 C   0  0  0  0  0  0  0  0  0  0  0  0
  136.5370   76.0140  223.2110 C   0  0  0  0  0  0  0  0  0  0  0  0
  137.1050   75.0360  222.4280 C   0  0  0  0  0  0  0  0  0  0  0  0
  138.1000   75.3630  221.5330 C   0  0  0  0  0  0  0  0  0  0  0  0
  140.9639   73.0259  222.8603 H   0  0  0  0  0  0  0  0  0  0  0  0
  141.3432   71.3640  225.2124 H   0  0  0  0  0  0  0  0  0  0  0  0
  141.0672   71.0350  227.8537 H   0  0  0  0  0  0  0  0  0  0  0  0
  141.4190   66.9630  228.8580 H   0  0  0  0  0  0  0  0  0  0  0  0
  140.3605   67.0199  226.4466 H   0  0  0  0  0  0  0  0  0  0  0  0
  138.4917   68.1107  225.4420 H   0  0  0  0  0  0  0  0  0  0  0  0
  137.5151   68.9081  223.2949 H   0  0  0  0  0  0  0  0  0  0  0  0
  137.7020   70.8370  221.3610 H   0  0  0  0  0  0  0  0  0  0  0  0
  139.8199   75.0756  218.7747 H   0  0  0  0  0  0  0  0  0  0  0  0
  138.2328   75.6995  218.8108 H   0  0  0  0  0  0  0  0  0  0  0  0
  141.2011   76.6796  221.7999 H   0  0  0  0  0  0  0  0  0  0  0  0
  141.0362   75.1101  221.0782 H   0  0  0  0  0  0  0  0  0  0  0  0
  142.9253   76.7236  220.0081 H   0  0  0  0  0  0  0  0  0  0  0  0
  141.8829   76.0066  218.8146 H   0  0  0  0  0  0  0  0  0  0  0  0
  142.9492   78.9358  220.1247 H   0  0  0  0  0  0  0  0  0  0  0  0
  141.5578   79.8828  219.2698 H   0  0  0  0  0  0  0  0  0  0  0  0
  140.3135   79.3671  221.4494 H   0  0  0  0  0  0  0  0  0  0  0  0
  142.0859   81.5284  220.7774 H   0  0  0  0  0  0  0  0  0  0  0  0
  140.2550   81.3207  220.8678 H   0  0  0  0  0  0  0  0  0  0  0  0
  142.0366   82.4322  222.7805 H   0  0  0  0  0  0  0  0  0  0  0  0
  140.2175   82.2165  222.8011 H   0  0  0  0  0  0  0  0  0  0  0  0
  141.4090   81.2598  224.7892 H   0  0  0  0  0  0  0  0  0  0  0  0
  140.4086   80.1069  223.9142 H   0  0  0  0  0  0  0  0  0  0  0  0
  143.3831   80.6001  223.1906 H   0  0  0  0  0  0  0  0  0  0  0  0
  142.9271   79.3700  224.3760 H   0  0  0  0  0  0  0  0  0  0  0  0
  143.1056   78.6288  221.9245 H   0  0  0  0  0  0  0  0  0  0  0  0
  141.5456   78.2399  222.8221 H   0  0  0  0  0  0  0  0  0  0  0  0
  139.5263   78.7260  220.1942 H   0  0  0  0  0  0  0  0  0  0  0  0
  139.3758   77.8806  218.6392 H   0  0  0  0  0  0  0  0  0  0  0  0
  138.3266   78.6832  222.0915 H   0  0  0  0  0  0  0  0  0  0  0  0
  136.5550   78.1210  223.6863 H   0  0  0  0  0  0  0  0  0  0  0  0
  135.7413   75.7699  223.9302 H   0  0  0  0  0  0  0  0  0  0  0  0
  136.7650   73.9936  222.5164 H   0  0  0  0  0  0  0  0  0  0  0  0
  1  2  2  0
  2  3  1  0
  3  4  2  0
  4  5  1  0
  5  6  2  0
  6  7  1  0
  7  8  1  0
  8  9  1  0
  9 10  2  0
 10 11  1  0
 11 12  1  0
  7 13  2  0
 13 14  1  0
 14 15  2  0
 15 16  1  0
  2 17  1  0
 17 18  1  0
 19 18  1  6
 19 20  1  0
 20 21  1  0
 21 22  1  0
 22 23  1  0
 23 24  1  0
 24 25  1  0
 25 26  1  0
 26 27  1  0
 27 28  1  0
 28 29  1  0
 22 30  1  0
 19 31  1  0
 31 32  2  0
 32 33  1  0
 33 34  2  0
 34 35  1  0
 35 36  2  0
 16  3  1  0
 36 17  1  0
 15  5  1  0
 30 19  1  0
 36 31  1  0
 12  8  2  0
 29 24  1  0
  4 37  1  0
  6 38  1  0
  9 39  1  0
 11 40  1  0
 12 41  1  0
 13 42  1  0
 14 43  1  0
 16 44  1  0
 18 45  1  0
 18 46  1  0
 20 47  1  0
 20 48  1  0
 21 49  1  0
 21 50  1  0
 23 51  1  0
 23 52  1  0
 24 53  1  0
 25 54  1  0
 25 55  1  0
 26 56  1  0
 26 57  1  0
 27 58  1  0
 27 59  1  0
 28 60  1  0
 28 61  1  0
 29 62  1  0
 29 63  1  0
 30 64  1  0
 30 65  1  0
 32 66  1  0
 33 67  1  0
 34 68  1  0
 35 69  1  0
M  END
>  <smiles>  (40) 
O=C(c1cc2cc(-c3cn[nH]c3)ccc2[nH]1)N1C[C@]2(CCN(CC3CCCCC3)C2)c2ccccc21

>  <score_type>  (40) 
oracle

>  <origin>  (40) 
autodockgpu

>  <m_score__min__energy>  (40) 
-9.5899999999999999

>  <m_primary>  (40) 
energy

>  <rmsd>  (40) 
3.0559489318045707

>  <m_score__min__rmsd>  (40) 
3.0559489318045707

>  <meeko>  (40) 
{"free_energy": -8.79, "intermolecular_energy": -10.28, "internal_energy": -1.96, "cluster_size": 8, "cluster_id": 4, "rank_in_cluster": 8}

>  <energy>  (40) 
-8.68

>  <cluster_rmsd>  (40) 
1.02

>  <cluster>  (40) 
6

$$$$

     RDKit          3D

 69 75  0  0  0  0  0  0  0  0999 V2000
  140.4590   73.0850  219.5860 O   0  0  0  0  0  0  0  0  0  0  0  0
  139.7480   73.4320  220.6240 C   0  0  0  0  0  0  0  0  0  0  0  0
  139.6740   72.4060  221.6400 C   0  0  0  0  0  0  0  0  0  0  0  0
  140.4820   72.4040  222.7610 C   0  0  0  0  0  0  0  0  0  0  0  0
  140.1640   71.3270  223.5820 C   0  0  0  0  0  0  0  0  0  0  0  0
  140.6340   70.8790  224.7870 C   0  0  0  0  0  0  0  0  0  0  0  0
  140.0770   69.7600  225.3550 C   0  0  0  0  0  0  0  0  0  0  0  0
  140.5130   69.2300  226.6520 C   0  0  0  0  0  0  0  0  0  0  0  0
  140.8670   69.9070  227.7960 C   0  0  0  0  0  0  0  0  0  0  0  0
  141.2030   68.9990  228.7300 N   0  0  0  0  0  0  0  0  0  0  0  0
  141.0810   67.7770  228.2360 N   0  0  0  0  0  0  0  0  0  0  0  0
  140.6590   67.8760  226.9600 C   0  0  0  0  0  0  0  0  0  0  0  0
  139.0370   69.0570  224.7370 C   0  0  0  0  0  0  0  0  0  0  0  0
  138.6030   69.5520  223.5240 C   0  0  0  0  0  0  0  0  0  0  0  0
  139.1500   70.6760  222.9400 C   0  0  0  0  0  0  0  0  0  0  0  0
  138.8740   71.3410  221.7790 N   0  0  0  0  0  0  0  0  0  0  0  0
  139.2050   74.6930  220.5790 N   0  0  0  0  0  0  0  0  0  0  0  0
  139.4220   75.6160  219.4120 C   0  0  0  0  0  0  0  0  0  0  0  0
  139.8780   76.8110  220.2420 C   0  0  1  0  0  0  0  0  0  0  0  0
  141.2370   76.4910  220.7770 C   0  0  0  0  0  0  0  0  0  0  0  0
  142.1320   77.0080  219.6130 C   0  0  0  0  0  0  0  0  0  0  0  0
  141.5220   78.2410  219.3260 N   0  0  0  0  0  0  0  0  0  0  0  0
  141.9650   79.4520  219.8460 C   0  0  0  0  0  0  0  0  0  0  0  0
  141.4700   79.9500  221.1660 C   0  0  0  0  0  0  0  0  0  0  0  0
  141.4640   81.3980  221.2920 C   0  0  0  0  0  0  0  0  0  0  0  0
  141.4450   81.9370  222.7080 C   0  0  0  0  0  0  0  0  0  0  0  0
  141.4330   80.8770  223.7660 C   0  0  0  0  0  0  0  0  0  0  0  0
  142.6310   79.9810  223.4170 C   0  0  0  0  0  0  0  0  0  0  0  0
  142.2000   79.1800  222.2280 C   0  0  0  0  0  0  0  0  0  0  0  0
  140.0740   78.0660  219.4860 C   0  0  0  0  0  0  0  0  0  0  0  0
  138.8160   76.8380  221.2800 C   0  0  0  0  0  0  0  0  0  0  0  0
  138.1670   77.7790  222.0400 C   0  0  0  0  0  0  0  0  0  0  0  0
  137.1910   77.4220  222.9320 C   0  0  0  0  0  0  0  0  0  0  0  0
  136.8190   76.0870  223.1060 C   0  0  0  0  0  0  0  0  0  0  0  0
  137.4580   75.1290  222.3540 C   0  0  0  0  0  0  0  0  0  0  0  0
  138.4380   75.4990  221.4590 C   0  0  0  0  0  0  0  0  0  0  0  0
  141.2644   73.1474  222.9736 H   0  0  0  0  0  0  0  0  0  0  0  0
  141.4512   71.4111  225.2961 H   0  0  0  0  0  0  0  0  0  0  0  0
  140.8741   70.9994  227.9245 H   0  0  0  0  0  0  0  0  0  0  0  0
  141.2890   66.9000  228.7770 H   0  0  0  0  0  0  0  0  0  0  0  0
  140.4633   67.0350  226.2785 H   0  0  0  0  0  0  0  0  0  0  0  0
  138.5906   68.1606  225.1921 H   0  0  0  0  0  0  0  0  0  0  0  0
  137.7881   69.0293  223.0017 H   0  0  0  0  0  0  0  0  0  0  0  0
  138.1320   71.0170  221.1500 H   0  0  0  0  0  0  0  0  0  0  0  0
  140.1995   75.2550  218.7227 H   0  0  0  0  0  0  0  0  0  0  0  0
  138.5739   75.7718  218.7290 H   0  0  0  0  0  0  0  0  0  0  0  0
  141.4407   77.0285  221.7149 H   0  0  0  0  0  0  0  0  0  0  0  0
  141.3892   75.4327  221.0357 H   0  0  0  0  0  0  0  0  0  0  0  0
  143.1755   77.1399  219.9350 H   0  0  0  0  0  0  0  0  0  0  0  0
  142.1941   76.3243  218.7535 H   0  0  0  0  0  0  0  0  0  0  0  0
  143.0589   79.3744  219.9312 H   0  0  0  0  0  0  0  0  0  0  0  0
  141.5494   80.1854  219.1393 H   0  0  0  0  0  0  0  0  0  0  0  0
  140.3945   79.7513  221.2834 H   0  0  0  0  0  0  0  0  0  0  0  0
  142.3671   81.7836  220.7963 H   0  0  0  0  0  0  0  0  0  0  0  0
  140.5229   81.7338  220.8320 H   0  0  0  0  0  0  0  0  0  0  0  0
  142.3404   82.5593  222.8527 H   0  0  0  0  0  0  0  0  0  0  0  0
  140.5099   82.5056  222.8183 H   0  0  0  0  0  0  0  0  0  0  0  0
  141.5563   81.3214  224.7646 H   0  0  0  0  0  0  0  0  0  0  0  0
  140.4847   80.3202  223.7931 H   0  0  0  0  0  0  0  0  0  0  0  0
  143.5100   80.5941  223.1691 H   0  0  0  0  0  0  0  0  0  0  0  0
  142.9171   79.3361  224.2609 H   0  0  0  0  0  0  0  0  0  0  0  0
  143.0985   78.7394  221.7713 H   0  0  0  0  0  0  0  0  0  0  0  0
  141.4867   78.4332  222.6068 H   0  0  0  0  0  0  0  0  0  0  0  0
  139.6490   78.9141  220.0428 H   0  0  0  0  0  0  0  0  0  0  0  0
  139.5708   78.0216  218.5088 H   0  0  0  0  0  0  0  0  0  0  0  0
  138.4360   78.8400  221.9305 H   0  0  0  0  0  0  0  0  0  0  0  0
  136.6899   78.2025  223.5234 H   0  0  0  0  0  0  0  0  0  0  0  0
  136.0352   75.8090  223.8259 H   0  0  0  0  0  0  0  0  0  0  0  0
  137.1870   74.0689  222.4669 H   0  0  0  0  0  0  0  0  0  0  0  0
  1  2  2  0
  2  3  1  0
  3  4  2  0
  4  5  1  0
  5  6  2  0
  6  7  1  0
  7  8  1  0
  8  9  1  0
  9 10  2  0
 10 11  1  0
 11 12  1  0
  7 13  2  0
 13 14  1  0
 14 15  2  0
 15 16  1  0
  2 17  1  0
 17 18  1  0
 19 18  1  6
 19 20  1  0
 20 21  1  0
 21 22  1  0
 22 23  1  0
 23 24  1  0
 24 25  1  0
 25 26  1  0
 26 27  1  0
 27 28  1  0
 28 29  1  0
 22 30  1  0
 19 31  1  0
 31 32  2  0
 32 33  1  0
 33 34  2  0
 34 35  1  0
 35 36  2  0
 16  3  1  0
 36 17  1  0
 15  5  1  0
 30 19  1  0
 36 31  1  0
 12  8  2  0
 29 24  1  0
  4 37  1  0
  6 38  1  0
  9 39  1  0
 11 40  1  0
 12 41  1  0
 13 42  1  0
 14 43  1  0
 16 44  1  0
 18 45  1  0
 18 46  1  0
 20 47  1  0
 20 48  1  0
 21 49  1  0
 21 50  1  0
 23 51  1  0
 23 52  1  0
 24 53  1  0
 25 54  1  0
 25 55  1  0
 26 56  1  0
 26 57  1  0
 27 58  1  0
 27 59  1  0
 28 60  1  0
 28 61  1  0
 29 62  1  0
 29 63  1  0
 30 64  1  0
 30 65  1  0
 32 66  1  0
 33 67  1  0
 34 68  1  0
 35 69  1  0
M  END
>  <smiles>  (41) 
O=C(c1cc2cc(-c3cn[nH]c3)ccc2[nH]1)N1C[C@]2(CCN(CC3CCCCC3)C2)c2ccccc21

>  <score_type>  (41) 
oracle

>  <origin>  (41) 
autodockgpu

>  <m_score__min__energy>  (41) 
-9.5899999999999999

>  <m_primary>  (41) 
energy

>  <rmsd>  (41) 
3.027205618671867

>  <m_score__min__rmsd>  (41) 
3.027205618671867

>  <meeko>  (41) 
{"free_energy": -8.93, "intermolecular_energy": -10.42, "internal_energy": -1.92, "cluster_size": 8, "cluster_id": 4, "rank_in_cluster": 5}

>  <energy>  (41) 
-8.68

>  <cluster_rmsd>  (41) 
0.3

>  <cluster>  (41) 
6

$$$$

     RDKit          3D

 69 75  0  0  0  0  0  0  0  0999 V2000
  137.4700   77.2520  222.7230 O   0  0  0  0  0  0  0  0  0  0  0  0
  138.7490   77.5060  222.6780 C   0  0  0  0  0  0  0  0  0  0  0  0
  139.5460   76.3810  222.2450 C   0  0  0  0  0  0  0  0  0  0  0  0
  140.7830   76.5270  221.6470 C   0  0  0  0  0  0  0  0  0  0  0  0
  141.3370   75.2810  221.3750 C   0  0  0  0  0  0  0  0  0  0  0  0
  142.5170   74.8660  220.8180 C   0  0  0  0  0  0  0  0  0  0  0  0
  142.7730   73.5220  220.7050 C   0  0  0  0  0  0  0  0  0  0  0  0
  144.0220   72.9990  220.1380 C   0  0  0  0  0  0  0  0  0  0  0  0
  145.2000   73.6570  219.8690 C   0  0  0  0  0  0  0  0  0  0  0  0
  146.0640   72.7680  219.3470 N   0  0  0  0  0  0  0  0  0  0  0  0
  145.4930   71.5760  219.2700 N   0  0  0  0  0  0  0  0  0  0  0  0
  144.2370   71.6760  219.7460 C   0  0  0  0  0  0  0  0  0  0  0  0
  141.8610   72.5550  221.1410 C   0  0  0  0  0  0  0  0  0  0  0  0
  140.6870   73.0290  221.6920 C   0  0  0  0  0  0  0  0  0  0  0  0
  140.4140   74.3770  221.8160 C   0  0  0  0  0  0  0  0  0  0  0  0
  139.3500   75.0590  222.3330 N   0  0  0  0  0  0  0  0  0  0  0  0
  139.1150   78.7810  223.0370 N   0  0  0  0  0  0  0  0  0  0  0  0
  138.1080   79.8860  223.2030 C   0  0  0  0  0  0  0  0  0  0  0  0
  138.8290   80.8890  222.3100 C   0  0  1  0  0  0  0  0  0  0  0  0
  138.6920   80.4110  220.9000 C   0  0  0  0  0  0  0  0  0  0  0  0
  137.3460   81.0810  220.4990 C   0  0  0  0  0  0  0  0  0  0  0  0
  137.5190   82.3750  221.0200 N   0  0  0  0  0  0  0  0  0  0  0  0
  137.9700   83.4500  220.2630 C   0  0  0  0  0  0  0  0  0  0  0  0
  139.1800   83.3250  219.3920 C   0  0  0  0  0  0  0  0  0  0  0  0
  139.0700   82.2990  218.3670 C   0  0  0  0  0  0  0  0  0  0  0  0
  140.3800   81.8000  217.7920 C   0  0  0  0  0  0  0  0  0  0  0  0
  141.5950   82.4520  218.3790 C   0  0  0  0  0  0  0  0  0  0  0  0
  141.4270   82.2700  219.8940 C   0  0  0  0  0  0  0  0  0  0  0  0
  140.3710   83.2500  220.3020 C   0  0  0  0  0  0  0  0  0  0  0  0
  138.2460   82.2470  222.2880 C   0  0  0  0  0  0  0  0  0  0  0  0
  140.2090   80.7840  222.8480 C   0  0  0  0  0  0  0  0  0  0  0  0
  141.2960   81.6060  223.0150 C   0  0  0  0  0  0  0  0  0  0  0  0
  142.4560   81.1450  223.5810 C   0  0  0  0  0  0  0  0  0  0  0  0
  142.5790   79.8210  224.0080 C   0  0  0  0  0  0  0  0  0  0  0  0
  141.5010   78.9810  223.8480 C   0  0  0  0  0  0  0  0  0  0  0  0
  140.3400   79.4560  223.2790 C   0  0  0  0  0  0  0  0  0  0  0  0
  141.2611   77.4910  221.4188 H   0  0  0  0  0  0  0  0  0  0  0  0
  143.2532   75.6028  220.4643 H   0  0  0  0  0  0  0  0  0  0  0  0
  145.4002   74.7235  220.0493 H   0  0  0  0  0  0  0  0  0  0  0  0
  145.9690   70.7180  218.8930 H   0  0  0  0  0  0  0  0  0  0  0  0
  143.5063   70.8566  219.8142 H   0  0  0  0  0  0  0  0  0  0  0  0
  142.0674   71.4784  221.0501 H   0  0  0  0  0  0  0  0  0  0  0  0
  139.9394   72.3040  222.0463 H   0  0  0  0  0  0  0  0  0  0  0  0
  138.5460   74.5610  222.7290 H   0  0  0  0  0  0  0  0  0  0  0  0
  137.1124   79.6153  222.8215 H   0  0  0  0  0  0  0  0  0  0  0  0
  137.8743   80.2037  224.2299 H   0  0  0  0  0  0  0  0  0  0  0  0
  139.5230   80.7618  220.2704 H   0  0  0  0  0  0  0  0  0  0  0  0
  138.7103   79.3172  220.7844 H   0  0  0  0  0  0  0  0  0  0  0  0
  137.2150   81.1004  219.4070 H   0  0  0  0  0  0  0  0  0  0  0  0
  136.4529   80.5593  220.8735 H   0  0  0  0  0  0  0  0  0  0  0  0
  137.1384   83.7389  219.6035 H   0  0  0  0  0  0  0  0  0  0  0  0
  138.2975   84.1663  221.0309 H   0  0  0  0  0  0  0  0  0  0  0  0
  139.2999   84.2123  218.7530 H   0  0  0  0  0  0  0  0  0  0  0  0
  138.5441   81.4383  218.8058 H   0  0  0  0  0  0  0  0  0  0  0  0
  138.5351   82.7694  217.5288 H   0  0  0  0  0  0  0  0  0  0  0  0
  140.4470   80.7173  217.9745 H   0  0  0  0  0  0  0  0  0  0  0  0
  140.3719   82.0512  216.7211 H   0  0  0  0  0  0  0  0  0  0  0  0
  142.5119   81.9572  218.0262 H   0  0  0  0  0  0  0  0  0  0  0  0
  141.6863   83.5094  218.0898 H   0  0  0  0  0  0  0  0  0  0  0  0
  141.1075   81.2429  220.1244 H   0  0  0  0  0  0  0  0  0  0  0  0
  142.3711   82.4411  220.4319 H   0  0  0  0  0  0  0  0  0  0  0  0
  140.0157   82.9691  221.3044 H   0  0  0  0  0  0  0  0  0  0  0  0
  140.8454   84.2417  220.2646 H   0  0  0  0  0  0  0  0  0  0  0  0
  139.0434   83.0025  222.3454 H   0  0  0  0  0  0  0  0  0  0  0  0
  137.5749   82.4027  223.1455 H   0  0  0  0  0  0  0  0  0  0  0  0
  141.2347   82.6546  222.6883 H   0  0  0  0  0  0  0  0  0  0  0  0
  143.3070   81.8315  223.7013 H   0  0  0  0  0  0  0  0  0  0  0  0
  143.5139   79.4589  224.4607 H   0  0  0  0  0  0  0  0  0  0  0  0
  141.5662   77.9324  224.1738 H   0  0  0  0  0  0  0  0  0  0  0  0
  1  2  2  0
  2  3  1  0
  3  4  2  0
  4  5  1  0
  5  6  2  0
  6  7  1  0
  7  8  1  0
  8  9  1  0
  9 10  2  0
 10 11  1  0
 11 12  1  0
  7 13  2  0
 13 14  1  0
 14 15  2  0
 15 16  1  0
  2 17  1  0
 17 18  1  0
 19 18  1  1
 19 20  1  0
 20 21  1  0
 21 22  1  0
 22 23  1  0
 23 24  1  0
 24 25  1  0
 25 26  1  0
 26 27  1  0
 27 28  1  0
 28 29  1  0
 22 30  1  0
 19 31  1  0
 31 32  2  0
 32 33  1  0
 33 34  2  0
 34 35  1  0
 35 36  2  0
 16  3  1  0
 36 17  1  0
 15  5  1  0
 30 19  1  0
 36 31  1  0
 12  8  2  0
 29 24  1  0
  4 37  1  0
  6 38  1  0
  9 39  1  0
 11 40  1  0
 12 41  1  0
 13 42  1  0
 14 43  1  0
 16 44  1  0
 18 45  1  0
 18 46  1  0
 20 47  1  0
 20 48  1  0
 21 49  1  0
 21 50  1  0
 23 51  1  0
 23 52  1  0
 24 53  1  0
 25 54  1  0
 25 55  1  0
 26 56  1  0
 26 57  1  0
 27 58  1  0
 27 59  1  0
 28 60  1  0
 28 61  1  0
 29 62  1  0
 29 63  1  0
 30 64  1  0
 30 65  1  0
 32 66  1  0
 33 67  1  0
 34 68  1  0
 35 69  1  0
M  END
>  <smiles>  (42) 
O=C(c1cc2cc(-c3cn[nH]c3)ccc2[nH]1)N1C[C@]2(CCN(CC3CCCCC3)C2)c2ccccc21

>  <score_type>  (42) 
oracle

>  <origin>  (42) 
autodockgpu

>  <m_score__min__energy>  (42) 
-9.5899999999999999

>  <m_primary>  (42) 
energy

>  <rmsd>  (42) 
5.377457866336745

>  <m_score__min__rmsd>  (42) 
5.377457866336745

>  <meeko>  (42) 
{"free_energy": -8.75, "intermolecular_energy": -10.24, "internal_energy": -2.07, "cluster_size": 20, "cluster_id": 6, "rank_in_cluster": 4}

>  <energy>  (42) 
-8.65

>  <cluster_rmsd>  (42) 
0.66

>  <cluster>  (42) 
6

$$$$

     RDKit          3D

 69 75  0  0  0  0  0  0  0  0999 V2000
  137.6500   79.8150  220.9780 O   0  0  0  0  0  0  0  0  0  0  0  0
  138.3990   80.3330  221.9130 C   0  0  0  0  0  0  0  0  0  0  0  0
  137.6440   80.9510  222.9800 C   0  0  0  0  0  0  0  0  0  0  0  0
  137.6810   80.4940  224.2840 C   0  0  0  0  0  0  0  0  0  0  0  0
  136.8950   81.3010  225.0990 C   0  0  0  0  0  0  0  0  0  0  0  0
  136.6020   81.3020  226.4360 C   0  0  0  0  0  0  0  0  0  0  0  0
  135.7790   82.2770  226.9460 C   0  0  0  0  0  0  0  0  0  0  0  0
  135.4350   82.3570  228.3710 C   0  0  0  0  0  0  0  0  0  0  0  0
  135.8880   81.5930  229.4210 C   0  0  0  0  0  0  0  0  0  0  0  0
  135.2860   82.0290  230.5420 N   0  0  0  0  0  0  0  0  0  0  0  0
  134.4720   83.0330  230.2570 N   0  0  0  0  0  0  0  0  0  0  0  0
  134.5350   83.2660  228.9310 C   0  0  0  0  0  0  0  0  0  0  0  0
  135.2250   83.2750  226.1370 C   0  0  0  0  0  0  0  0  0  0  0  0
  135.5520   83.2240  224.7960 C   0  0  0  0  0  0  0  0  0  0  0  0
  136.3790   82.2530  224.2680 C   0  0  0  0  0  0  0  0  0  0  0  0
  136.8420   82.0230  223.0040 N   0  0  0  0  0  0  0  0  0  0  0  0
  139.7540   80.1990  221.7320 N   0  0  0  0  0  0  0  0  0  0  0  0
  140.3410   79.6320  220.4690 C   0  0  0  0  0  0  0  0  0  0  0  0
  141.2340   78.6070  221.1590 C   0  0  1  0  0  0  0  0  0  0  0  0
  140.3440   77.5440  221.7180 C   0  0  0  0  0  0  0  0  0  0  0  0
  140.2480   76.5810  220.5000 C   0  0  0  0  0  0  0  0  0  0  0  0
  141.5880   76.5340  220.0810 N   0  0  0  0  0  0  0  0  0  0  0  0
  142.4730   75.5310  220.4620 C   0  0  0  0  0  0  0  0  0  0  0  0
  142.1400   74.0890  220.2490 C   0  0  0  0  0  0  0  0  0  0  0  0
  141.2500   73.5300  221.2540 C   0  0  0  0  0  0  0  0  0  0  0  0
  141.2620   72.0200  221.3790 C   0  0  0  0  0  0  0  0  0  0  0  0
  142.2000   71.3350  220.4330 C   0  0  0  0  0  0  0  0  0  0  0  0
  143.5500   72.0270  220.6710 C   0  0  0  0  0  0  0  0  0  0  0  0
  143.4350   73.3680  220.0140 C   0  0  0  0  0  0  0  0  0  0  0  0
  142.1570   77.8740  220.2680 C   0  0  0  0  0  0  0  0  0  0  0  0
  141.8720   79.4610  222.1930 C   0  0  0  0  0  0  0  0  0  0  0  0
  143.0770   79.5270  222.8480 C   0  0  0  0  0  0  0  0  0  0  0  0
  143.3260   80.5010  223.7800 C   0  0  0  0  0  0  0  0  0  0  0  0
  142.3650   81.4610  224.1020 C   0  0  0  0  0  0  0  0  0  0  0  0
  141.1510   81.4100  223.4580 C   0  0  0  0  0  0  0  0  0  0  0  0
  140.9110   80.4280  222.5220 C   0  0  0  0  0  0  0  0  0  0  0  0
  138.2504   79.6178  224.6276 H   0  0  0  0  0  0  0  0  0  0  0  0
  137.0217   80.5290  227.0965 H   0  0  0  0  0  0  0  0  0  0  0  0
  136.6149   80.7700  229.3556 H   0  0  0  0  0  0  0  0  0  0  0  0
  133.8880   83.5400  230.9700 H   0  0  0  0  0  0  0  0  0  0  0  0
  133.9744   84.0386  228.3844 H   0  0  0  0  0  0  0  0  0  0  0  0
  134.5666   84.0557  226.5456 H   0  0  0  0  0  0  0  0  0  0  0  0
  135.1368   83.9876  224.1219 H   0  0  0  0  0  0  0  0  0  0  0  0
  136.5780   82.6360  222.2260 H   0  0  0  0  0  0  0  0  0  0  0  0
  139.5845   79.1682  219.8189 H   0  0  0  0  0  0  0  0  0  0  0  0
  140.8257   80.3378  219.7784 H   0  0  0  0  0  0  0  0  0  0  0  0
  140.7989   77.0512  222.5899 H   0  0  0  0  0  0  0  0  0  0  0  0
  139.3752   77.9080  222.0906 H   0  0  0  0  0  0  0  0  0  0  0  0
  139.8847   75.5870  220.8000 H   0  0  0  0  0  0  0  0  0  0  0  0
  139.5434   76.9080  219.7212 H   0  0  0  0  0  0  0  0  0  0  0  0
  143.4112   75.7189  219.9193 H   0  0  0  0  0  0  0  0  0  0  0  0
  142.4804   75.6183  221.5585 H   0  0  0  0  0  0  0  0  0  0  0  0
  141.5140   73.9574  219.3541 H   0  0  0  0  0  0  0  0  0  0  0  0
  141.5350   73.9516  222.2292 H   0  0  0  0  0  0  0  0  0  0  0  0
  140.2321   73.7950  220.9322 H   0  0  0  0  0  0  0  0  0  0  0  0
  141.5574   71.7608  222.4064 H   0  0  0  0  0  0  0  0  0  0  0  0
  140.2489   71.6730  221.1276 H   0  0  0  0  0  0  0  0  0  0  0  0
  142.2672   70.2608  220.6602 H   0  0  0  0  0  0  0  0  0  0  0  0
  141.8690   71.4073  219.3865 H   0  0  0  0  0  0  0  0  0  0  0  0
  143.7381   72.1420  221.7487 H   0  0  0  0  0  0  0  0  0  0  0  0
  144.3859   71.4420  220.2599 H   0  0  0  0  0  0  0  0  0  0  0  0
  144.2504   74.0024  220.3917 H   0  0  0  0  0  0  0  0  0  0  0  0
  143.4868   73.1813  218.9312 H   0  0  0  0  0  0  0  0  0  0  0  0
  143.1526   77.8019  220.7301 H   0  0  0  0  0  0  0  0  0  0  0  0
  142.2723   78.3927  219.3049 H   0  0  0  0  0  0  0  0  0  0  0  0
  143.8566   78.7850  222.6208 H   0  0  0  0  0  0  0  0  0  0  0  0
  144.3032   80.5266  224.2845 H   0  0  0  0  0  0  0  0  0  0  0  0
  142.5735   82.2384  224.8518 H   0  0  0  0  0  0  0  0  0  0  0  0
  140.3728   82.1521  223.6898 H   0  0  0  0  0  0  0  0  0  0  0  0
  1  2  2  0
  2  3  1  0
  3  4  2  0
  4  5  1  0
  5  6  2  0
  6  7  1  0
  7  8  1  0
  8  9  1  0
  9 10  2  0
 10 11  1  0
 11 12  1  0
  7 13  2  0
 13 14  1  0
 14 15  2  0
 15 16  1  0
  2 17  1  0
 17 18  1  0
 19 18  1  6
 19 20  1  0
 20 21  1  0
 21 22  1  0
 22 23  1  0
 23 24  1  0
 24 25  1  0
 25 26  1  0
 26 27  1  0
 27 28  1  0
 28 29  1  0
 22 30  1  0
 19 31  1  0
 31 32  2  0
 32 33  1  0
 33 34  2  0
 34 35  1  0
 35 36  2  0
 16  3  1  0
 36 17  1  0
 15  5  1  0
 30 19  1  0
 36 31  1  0
 12  8  2  0
 29 24  1  0
  4 37  1  0
  6 38  1  0
  9 39  1  0
 11 40  1  0
 12 41  1  0
 13 42  1  0
 14 43  1  0
 16 44  1  0
 18 45  1  0
 18 46  1  0
 20 47  1  0
 20 48  1  0
 21 49  1  0
 21 50  1  0
 23 51  1  0
 23 52  1  0
 24 53  1  0
 25 54  1  0
 25 55  1  0
 26 56  1  0
 26 57  1  0
 27 58  1  0
 27 59  1  0
 28 60  1  0
 28 61  1  0
 29 62  1  0
 29 63  1  0
 30 64  1  0
 30 65  1  0
 32 66  1  0
 33 67  1  0
 34 68  1  0
 35 69  1  0
M  END
>  <smiles>  (43) 
O=C(c1cc2cc(-c3cn[nH]c3)ccc2[nH]1)N1C[C@]2(CCN(CC3CCCCC3)C2)c2ccccc21

>  <score_type>  (43) 
oracle

>  <origin>  (43) 
autodockgpu

>  <m_score__min__energy>  (43) 
-9.5899999999999999

>  <m_primary>  (43) 
energy

>  <rmsd>  (43) 
10.086340773931674

>  <m_score__min__rmsd>  (43) 
10.086340773931674

>  <meeko>  (43) 
{"free_energy": -8.88, "intermolecular_energy": -10.37, "internal_energy": -1.5, "cluster_size": 4, "cluster_id": 1, "rank_in_cluster": 4}

>  <energy>  (43) 
-8.65

>  <cluster_rmsd>  (43) 
0.67

>  <cluster>  (43) 
6

$$$$

     RDKit          3D

 69 75  0  0  0  0  0  0  0  0999 V2000
  137.7690   77.1660  223.0860 O   0  0  0  0  0  0  0  0  0  0  0  0
  138.9720   77.4510  222.6700 C   0  0  0  0  0  0  0  0  0  0  0  0
  139.7130   76.2970  222.2130 C   0  0  0  0  0  0  0  0  0  0  0  0
  140.9270   76.3980  221.5590 C   0  0  0  0  0  0  0  0  0  0  0  0
  141.4280   75.1330  221.2750 C   0  0  0  0  0  0  0  0  0  0  0  0
  142.5670   74.6750  220.6710 C   0  0  0  0  0  0  0  0  0  0  0  0
  142.7760   73.3230  220.5590 C   0  0  0  0  0  0  0  0  0  0  0  0
  143.9810   72.7550  219.9420 C   0  0  0  0  0  0  0  0  0  0  0  0
  145.1070   73.3960  219.4780 C   0  0  0  0  0  0  0  0  0  0  0  0
  145.9440   72.4640  218.9900 N   0  0  0  0  0  0  0  0  0  0  0  0
  145.4070   71.2610  219.1200 N   0  0  0  0  0  0  0  0  0  0  0  0
  144.1990   71.3970  219.7020 C   0  0  0  0  0  0  0  0  0  0  0  0
  141.8540   72.3890  221.0460 C   0  0  0  0  0  0  0  0  0  0  0  0
  140.7220   72.9060  221.6440 C   0  0  0  0  0  0  0  0  0  0  0  0
  140.4980   74.2620  221.7670 C   0  0  0  0  0  0  0  0  0  0  0  0
  139.4800   74.9830  222.3240 N   0  0  0  0  0  0  0  0  0  0  0  0
  139.3230   78.7780  222.7280 N   0  0  0  0  0  0  0  0  0  0  0  0
  138.3840   79.8730  222.3040 C   0  0  0  0  0  0  0  0  0  0  0  0
  139.3710   80.5750  221.3780 C   0  0  1  0  0  0  0  0  0  0  0  0
  139.5580   79.7000  220.1800 C   0  0  0  0  0  0  0  0  0  0  0  0
  138.4030   80.2090  219.2700 C   0  0  0  0  0  0  0  0  0  0  0  0
  138.5270   81.6010  219.4230 N   0  0  0  0  0  0  0  0  0  0  0  0
  139.2250   82.4080  218.5310 C   0  0  0  0  0  0  0  0  0  0  0  0
  140.7180   82.3600  218.4550 C   0  0  0  0  0  0  0  0  0  0  0  0
  141.3320   83.6060  218.0250 C   0  0  0  0  0  0  0  0  0  0  0  0
  142.7390   83.4910  217.4740 C   0  0  0  0  0  0  0  0  0  0  0  0
  143.2800   82.0940  217.4610 C   0  0  0  0  0  0  0  0  0  0  0  0
  142.2110   81.2810  216.7160 C   0  0  0  0  0  0  0  0  0  0  0  0
  141.0790   81.1240  217.6830 C   0  0  0  0  0  0  0  0  0  0  0  0
  138.9060   81.8600  220.8170 C   0  0  0  0  0  0  0  0  0  0  0  0
  140.5630   80.6460  222.2610 C   0  0  0  0  0  0  0  0  0  0  0  0
  141.6270   81.4900  222.4580 C   0  0  0  0  0  0  0  0  0  0  0  0
  142.5760   81.2270  223.4120 C   0  0  0  0  0  0  0  0  0  0  0  0
  142.4980   80.0900  224.2190 C   0  0  0  0  0  0  0  0  0  0  0  0
  141.4400   79.2310  224.0350 C   0  0  0  0  0  0  0  0  0  0  0  0
  140.4920   79.5050  223.0740 C   0  0  0  0  0  0  0  0  0  0  0  0
  141.4251   77.3441  221.3005 H   0  0  0  0  0  0  0  0  0  0  0  0
  143.3097   75.3849  220.2781 H   0  0  0  0  0  0  0  0  0  0  0  0
  145.2900   74.4804  219.5022 H   0  0  0  0  0  0  0  0  0  0  0  0
  145.8720   70.3710  218.8090 H   0  0  0  0  0  0  0  0  0  0  0  0
  143.5048   70.5793  219.9458 H   0  0  0  0  0  0  0  0  0  0  0  0
  142.0217   71.3055  220.9574 H   0  0  0  0  0  0  0  0  0  0  0  0
  139.9682   72.2087  222.0383 H   0  0  0  0  0  0  0  0  0  0  0  0
  138.6800   74.5150  222.7600 H   0  0  0  0  0  0  0  0  0  0  0  0
  137.4990   79.4926  221.7729 H   0  0  0  0  0  0  0  0  0  0  0  0
  137.9238   80.4772  223.0997 H   0  0  0  0  0  0  0  0  0  0  0  0
  140.5415   79.8567  219.7129 H   0  0  0  0  0  0  0  0  0  0  0  0
  139.5306   78.6212  220.3930 H   0  0  0  0  0  0  0  0  0  0  0  0
  138.5502   79.9039  218.2235 H   0  0  0  0  0  0  0  0  0  0  0  0
  137.4117   79.8125  219.5350 H   0  0  0  0  0  0  0  0  0  0  0  0
  138.8525   82.1588  217.5264 H   0  0  0  0  0  0  0  0  0  0  0  0
  139.0349   83.4192  218.9199 H   0  0  0  0  0  0  0  0  0  0  0  0
  141.1613   82.2732  219.4580 H   0  0  0  0  0  0  0  0  0  0  0  0
  140.6966   84.0424  217.2402 H   0  0  0  0  0  0  0  0  0  0  0  0
  141.4147   84.2266  218.9295 H   0  0  0  0  0  0  0  0  0  0  0  0
  142.7374   83.8701  216.4414 H   0  0  0  0  0  0  0  0  0  0  0  0
  143.3891   84.0760  218.1412 H   0  0  0  0  0  0  0  0  0  0  0  0
  144.2418   82.0534  216.9288 H   0  0  0  0  0  0  0  0  0  0  0  0
  143.4726   81.7081  218.4729 H   0  0  0  0  0  0  0  0  0  0  0  0
  141.8763   81.8193  215.8170 H   0  0  0  0  0  0  0  0  0  0  0  0
  142.5991   80.3075  216.3818 H   0  0  0  0  0  0  0  0  0  0  0  0
  140.1909   80.8051  217.1176 H   0  0  0  0  0  0  0  0  0  0  0  0
  141.4154   80.3878  218.4279 H   0  0  0  0  0  0  0  0  0  0  0  0
  139.7138   82.6055  220.8577 H   0  0  0  0  0  0  0  0  0  0  0  0
  138.0552   82.2565  221.3905 H   0  0  0  0  0  0  0  0  0  0  0  0
  141.7203   82.3945  221.8389 H   0  0  0  0  0  0  0  0  0  0  0  0
  143.4154   81.9255  223.5443 H   0  0  0  0  0  0  0  0  0  0  0  0
  143.2634   79.8867  224.9824 H   0  0  0  0  0  0  0  0  0  0  0  0
  141.3509   78.3263  224.6544 H   0  0  0  0  0  0  0  0  0  0  0  0
  1  2  2  0
  2  3  1  0
  3  4  2  0
  4  5  1  0
  5  6  2  0
  6  7  1  0
  7  8  1  0
  8  9  1  0
  9 10  2  0
 10 11  1  0
 11 12  1  0
  7 13  2  0
 13 14  1  0
 14 15  2  0
 15 16  1  0
  2 17  1  0
 17 18  1  0
 19 18  1  1
 19 20  1  0
 20 21  1  0
 21 22  1  0
 22 23  1  0
 23 24  1  0
 24 25  1  0
 25 26  1  0
 26 27  1  0
 27 28  1  0
 28 29  1  0
 22 30  1  0
 19 31  1  0
 31 32  2  0
 32 33  1  0
 33 34  2  0
 34 35  1  0
 35 36  2  0
 16  3  1  0
 36 17  1  0
 15  5  1  0
 30 19  1  0
 36 31  1  0
 12  8  2  0
 29 24  1  0
  4 37  1  0
  6 38  1  0
  9 39  1  0
 11 40  1  0
 12 41  1  0
 13 42  1  0
 14 43  1  0
 16 44  1  0
 18 45  1  0
 18 46  1  0
 20 47  1  0
 20 48  1  0
 21 49  1  0
 21 50  1  0
 23 51  1  0
 23 52  1  0
 24 53  1  0
 25 54  1  0
 25 55  1  0
 26 56  1  0
 26 57  1  0
 27 58  1  0
 27 59  1  0
 28 60  1  0
 28 61  1  0
 29 62  1  0
 29 63  1  0
 30 64  1  0
 30 65  1  0
 32 66  1  0
 33 67  1  0
 34 68  1  0
 35 69  1  0
M  END
>  <smiles>  (44) 
O=C(c1cc2cc(-c3cn[nH]c3)ccc2[nH]1)N1C[C@]2(CCN(CC3CCCCC3)C2)c2ccccc21

>  <score_type>  (44) 
oracle

>  <origin>  (44) 
autodockgpu

>  <m_score__min__energy>  (44) 
-9.5899999999999999

>  <m_primary>  (44) 
energy

>  <rmsd>  (44) 
5.50308267900947

>  <m_score__min__rmsd>  (44) 
5.50308267900947

>  <meeko>  (44) 
{"free_energy": -8.7, "intermolecular_energy": -10.2, "internal_energy": -2.0, "cluster_size": 20, "cluster_id": 6, "rank_in_cluster": 10}

>  <energy>  (44) 
-8.61

>  <cluster_rmsd>  (44) 
0.91

>  <cluster>  (44) 
6

$$$$

     RDKit          3D

 69 75  0  0  0  0  0  0  0  0999 V2000
  140.5140   73.0990  219.9320 O   0  0  0  0  0  0  0  0  0  0  0  0
  139.7250   73.5100  220.8850 C   0  0  0  0  0  0  0  0  0  0  0  0
  139.5800   72.5590  221.9650 C   0  0  0  0  0  0  0  0  0  0  0  0
  140.5660   72.3420  222.9080 C   0  0  0  0  0  0  0  0  0  0  0  0
  140.1390   71.4080  223.8460 C   0  0  0  0  0  0  0  0  0  0  0  0
  140.7030   70.8600  224.9660 C   0  0  0  0  0  0  0  0  0  0  0  0
  139.9880   69.9500  225.7050 C   0  0  0  0  0  0  0  0  0  0  0  0
  140.5150   69.3330  226.9280 C   0  0  0  0  0  0  0  0  0  0  0  0
  141.0110   69.9330  228.0620 C   0  0  0  0  0  0  0  0  0  0  0  0
  141.3850   68.9630  228.9160 N   0  0  0  0  0  0  0  0  0  0  0  0
  141.1520   67.7750  228.3800 N   0  0  0  0  0  0  0  0  0  0  0  0
  140.6170   67.9600  227.1570 C   0  0  0  0  0  0  0  0  0  0  0  0
  138.6920   69.5610  225.3470 C   0  0  0  0  0  0  0  0  0  0  0  0
  138.1740   70.1440  224.2070 C   0  0  0  0  0  0  0  0  0  0  0  0
  138.8780   71.0620  223.4540 C   0  0  0  0  0  0  0  0  0  0  0  0
  138.5650   71.7640  222.3260 N   0  0  0  0  0  0  0  0  0  0  0  0
  139.1790   74.7590  220.7100 N   0  0  0  0  0  0  0  0  0  0  0  0
  139.4400   75.5800  219.4780 C   0  0  0  0  0  0  0  0  0  0  0  0
  139.8560   76.8460  220.2190 C   0  0  1  0  0  0  0  0  0  0  0  0
  141.1930   76.5830  220.8350 C   0  0  0  0  0  0  0  0  0  0  0  0
  142.1340   77.0050  219.6700 C   0  0  0  0  0  0  0  0  0  0  0  0
  141.5310   78.2040  219.2520 N   0  0  0  0  0  0  0  0  0  0  0  0
  141.9460   79.4590  219.6830 C   0  0  0  0  0  0  0  0  0  0  0  0
  141.4400   80.0380  220.9660 C   0  0  0  0  0  0  0  0  0  0  0  0
  141.4270   81.4910  220.9970 C   0  0  0  0  0  0  0  0  0  0  0  0
  141.3960   82.1210  222.3760 C   0  0  0  0  0  0  0  0  0  0  0  0
  141.3830   81.1310  223.5000 C   0  0  0  0  0  0  0  0  0  0  0  0
  142.5870   80.2210  223.2170 C   0  0  0  0  0  0  0  0  0  0  0  0
  142.1670   79.3420  222.0800 C   0  0  0  0  0  0  0  0  0  0  0  0
  140.0780   78.0320  219.3670 C   0  0  0  0  0  0  0  0  0  0  0  0
  138.7510   76.9530  221.2050 C   0  0  0  0  0  0  0  0  0  0  0  0
  138.0670   77.9510  221.8540 C   0  0  0  0  0  0  0  0  0  0  0  0
  137.0550   77.6640  222.7330 C   0  0  0  0  0  0  0  0  0  0  0  0
  136.6820   76.3460  223.0050 C   0  0  0  0  0  0  0  0  0  0  0  0
  137.3570   75.3320  222.3660 C   0  0  0  0  0  0  0  0  0  0  0  0
  138.3710   75.6320  221.4840 C   0  0  0  0  0  0  0  0  0  0  0  0
  141.5483   72.8371  222.9159 H   0  0  0  0  0  0  0  0  0  0  0  0
  141.7203   71.1460  225.2716 H   0  0  0  0  0  0  0  0  0  0  0  0
  141.0883   71.0158  228.2395 H   0  0  0  0  0  0  0  0  0  0  0  0
  141.3630   66.8620  228.8570 H   0  0  0  0  0  0  0  0  0  0  0  0
  140.3131   67.1657  226.4594 H   0  0  0  0  0  0  0  0  0  0  0  0
  138.1189   68.8327  225.9396 H   0  0  0  0  0  0  0  0  0  0  0  0
  137.1594   69.8655  223.8862 H   0  0  0  0  0  0  0  0  0  0  0  0
  137.6520   71.6540  221.8730 H   0  0  0  0  0  0  0  0  0  0  0  0
  140.2470   75.1672  218.8548 H   0  0  0  0  0  0  0  0  0  0  0  0
  138.6199   75.6697  218.7504 H   0  0  0  0  0  0  0  0  0  0  0  0
  141.3551   77.2001  221.7311 H   0  0  0  0  0  0  0  0  0  0  0  0
  141.3382   75.5517  221.1891 H   0  0  0  0  0  0  0  0  0  0  0  0
  143.1622   77.1727  220.0230 H   0  0  0  0  0  0  0  0  0  0  0  0
  142.2358   76.2504  218.8762 H   0  0  0  0  0  0  0  0  0  0  0  0
  143.0415   79.4133  219.7708 H   0  0  0  0  0  0  0  0  0  0  0  0
  141.5132   80.1304  218.9267 H   0  0  0  0  0  0  0  0  0  0  0  0
  140.3650   79.8411  221.0907 H   0  0  0  0  0  0  0  0  0  0  0  0
  142.3318   81.8477  220.4832 H   0  0  0  0  0  0  0  0  0  0  0  0
  140.4879   81.7920  220.5096 H   0  0  0  0  0  0  0  0  0  0  0  0
  142.2871   82.7566  222.4856 H   0  0  0  0  0  0  0  0  0  0  0  0
  140.4573   82.6905  222.4438 H   0  0  0  0  0  0  0  0  0  0  0  0
  141.4979   81.6395  224.4686 H   0  0  0  0  0  0  0  0  0  0  0  0
  140.4374   80.5718  223.5570 H   0  0  0  0  0  0  0  0  0  0  0  0
  143.4644   80.8214  222.9347 H   0  0  0  0  0  0  0  0  0  0  0  0
  142.8713   79.6339  224.1027 H   0  0  0  0  0  0  0  0  0  0  0  0
  143.0703   78.8771  221.6581 H   0  0  0  0  0  0  0  0  0  0  0  0
  141.4549   78.6177  222.5023 H   0  0  0  0  0  0  0  0  0  0  0  0
  139.6267   78.9215  219.8307 H   0  0  0  0  0  0  0  0  0  0  0  0
  139.6161   77.8998  218.3775 H   0  0  0  0  0  0  0  0  0  0  0  0
  138.3361   79.0007  221.6651 H   0  0  0  0  0  0  0  0  0  0  0  0
  136.5262   78.4882  223.2340 H   0  0  0  0  0  0  0  0  0  0  0  0
  135.8692   76.1244  223.7122 H   0  0  0  0  0  0  0  0  0  0  0  0
  137.0872   74.2833  222.5592 H   0  0  0  0  0  0  0  0  0  0  0  0
  1  2  2  0
  2  3  1  0
  3  4  2  0
  4  5  1  0
  5  6  2  0
  6  7  1  0
  7  8  1  0
  8  9  1  0
  9 10  2  0
 10 11  1  0
 11 12  1  0
  7 13  2  0
 13 14  1  0
 14 15  2  0
 15 16  1  0
  2 17  1  0
 17 18  1  0
 19 18  1  6
 19 20  1  0
 20 21  1  0
 21 22  1  0
 22 23  1  0
 23 24  1  0
 24 25  1  0
 25 26  1  0
 26 27  1  0
 27 28  1  0
 28 29  1  0
 22 30  1  0
 19 31  1  0
 31 32  2  0
 32 33  1  0
 33 34  2  0
 34 35  1  0
 35 36  2  0
 16  3  1  0
 36 17  1  0
 15  5  1  0
 30 19  1  0
 36 31  1  0
 12  8  2  0
 29 24  1  0
  4 37  1  0
  6 38  1  0
  9 39  1  0
 11 40  1  0
 12 41  1  0
 13 42  1  0
 14 43  1  0
 16 44  1  0
 18 45  1  0
 18 46  1  0
 20 47  1  0
 20 48  1  0
 21 49  1  0
 21 50  1  0
 23 51  1  0
 23 52  1  0
 24 53  1  0
 25 54  1  0
 25 55  1  0
 26 56  1  0
 26 57  1  0
 27 58  1  0
 27 59  1  0
 28 60  1  0
 28 61  1  0
 29 62  1  0
 29 63  1  0
 30 64  1  0
 30 65  1  0
 32 66  1  0
 33 67  1  0
 34 68  1  0
 35 69  1  0
M  END
>  <smiles>  (45) 
O=C(c1cc2cc(-c3cn[nH]c3)ccc2[nH]1)N1C[C@]2(CCN(CC3CCCCC3)C2)c2ccccc21

>  <score_type>  (45) 
oracle

>  <origin>  (45) 
autodockgpu

>  <m_score__min__energy>  (45) 
-9.5899999999999999

>  <m_primary>  (45) 
energy

>  <rmsd>  (45) 
3.0114104175068688

>  <m_score__min__rmsd>  (45) 
3.0114104175068688

>  <meeko>  (45) 
{"free_energy": -9.01, "intermolecular_energy": -10.5, "internal_energy": -1.88, "cluster_size": 8, "cluster_id": 4, "rank_in_cluster": 1}

>  <energy>  (45) 
-8.58

>  <cluster_rmsd>  (45) 
0.97

>  <cluster>  (45) 
6

$$$$

     RDKit          3D

 69 75  0  0  0  0  0  0  0  0999 V2000
  137.7910   77.1800  223.0830 O   0  0  0  0  0  0  0  0  0  0  0  0
  138.9910   77.4670  222.6580 C   0  0  0  0  0  0  0  0  0  0  0  0
  139.7340   76.3120  222.2050 C   0  0  0  0  0  0  0  0  0  0  0  0
  140.9470   76.4130  221.5520 C   0  0  0  0  0  0  0  0  0  0  0  0
  141.4500   75.1470  221.2710 C   0  0  0  0  0  0  0  0  0  0  0  0
  142.5900   74.6890  220.6690 C   0  0  0  0  0  0  0  0  0  0  0  0
  142.8010   73.3360  220.5620 C   0  0  0  0  0  0  0  0  0  0  0  0
  144.0070   72.7680  219.9480 C   0  0  0  0  0  0  0  0  0  0  0  0
  145.1280   73.4090  219.4750 C   0  0  0  0  0  0  0  0  0  0  0  0
  145.9680   72.4760  218.9930 N   0  0  0  0  0  0  0  0  0  0  0  0
  145.4360   71.2720  219.1350 N   0  0  0  0  0  0  0  0  0  0  0  0
  144.2290   71.4090  219.7190 C   0  0  0  0  0  0  0  0  0  0  0  0
  141.8790   72.4030  221.0510 C   0  0  0  0  0  0  0  0  0  0  0  0
  140.7460   72.9200  221.6470 C   0  0  0  0  0  0  0  0  0  0  0  0
  140.5200   74.2770  221.7650 C   0  0  0  0  0  0  0  0  0  0  0  0
  139.5020   74.9980  222.3190 N   0  0  0  0  0  0  0  0  0  0  0  0
  139.3370   78.7960  222.7060 N   0  0  0  0  0  0  0  0  0  0  0  0
  138.3980   79.8840  222.2660 C   0  0  0  0  0  0  0  0  0  0  0  0
  139.3880   80.5790  221.3380 C   0  0  1  0  0  0  0  0  0  0  0  0
  139.5830   79.6930  220.1500 C   0  0  0  0  0  0  0  0  0  0  0  0
  138.4320   80.1900  219.2280 C   0  0  0  0  0  0  0  0  0  0  0  0
  138.5510   81.5830  219.3680 N   0  0  0  0  0  0  0  0  0  0  0  0
  139.2520   82.3840  218.4730 C   0  0  0  0  0  0  0  0  0  0  0  0
  140.7460   82.3490  218.4140 C   0  0  0  0  0  0  0  0  0  0  0  0
  141.3550   83.6080  218.0170 C   0  0  0  0  0  0  0  0  0  0  0  0
  142.7690   83.5150  217.4810 C   0  0  0  0  0  0  0  0  0  0  0  0
  143.3210   82.1230  217.4470 C   0  0  0  0  0  0  0  0  0  0  0  0
  142.2680   81.3170  216.6730 C   0  0  0  0  0  0  0  0  0  0  0  0
  141.1260   81.1320  217.6230 C   0  0  0  0  0  0  0  0  0  0  0  0
  138.9210   81.8570  220.7620 C   0  0  0  0  0  0  0  0  0  0  0  0
  140.5740   80.6620  222.2260 C   0  0  0  0  0  0  0  0  0  0  0  0
  141.6350   81.5120  222.4220 C   0  0  0  0  0  0  0  0  0  0  0  0
  142.5790   81.2610  223.3830 C   0  0  0  0  0  0  0  0  0  0  0  0
  142.5010   80.1310  224.2000 C   0  0  0  0  0  0  0  0  0  0  0  0
  141.4460   79.2670  224.0190 C   0  0  0  0  0  0  0  0  0  0  0  0
  140.5020   79.5290  223.0500 C   0  0  0  0  0  0  0  0  0  0  0  0
  141.4440   77.3591  221.2915 H   0  0  0  0  0  0  0  0  0  0  0  0
  143.3317   75.3987  220.2738 H   0  0  0  0  0  0  0  0  0  0  0  0
  145.3063   74.4944  219.4886 H   0  0  0  0  0  0  0  0  0  0  0  0
  145.9040   70.3820  218.8310 H   0  0  0  0  0  0  0  0  0  0  0  0
  143.5382   70.5911  219.9715 H   0  0  0  0  0  0  0  0  0  0  0  0
  142.0476   71.3194  220.9652 H   0  0  0  0  0  0  0  0  0  0  0  0
  139.9932   72.2229  222.0437 H   0  0  0  0  0  0  0  0  0  0  0  0
  138.7010   74.5300  222.7560 H   0  0  0  0  0  0  0  0  0  0  0  0
  137.5167   79.4961  221.7342 H   0  0  0  0  0  0  0  0  0  0  0  0
  137.9323   80.4952  223.0532 H   0  0  0  0  0  0  0  0  0  0  0  0
  140.5687   79.8471  219.6868 H   0  0  0  0  0  0  0  0  0  0  0  0
  139.5563   78.6164  220.3739 H   0  0  0  0  0  0  0  0  0  0  0  0
  138.5864   79.8752  218.1854 H   0  0  0  0  0  0  0  0  0  0  0  0
  137.4403   79.7933  219.4909 H   0  0  0  0  0  0  0  0  0  0  0  0
  138.8931   82.1177  217.4679 H   0  0  0  0  0  0  0  0  0  0  0  0
  139.0487   83.3985  218.8464 H   0  0  0  0  0  0  0  0  0  0  0  0
  141.1782   82.2455  219.4202 H   0  0  0  0  0  0  0  0  0  0  0  0
  140.7256   84.0554  217.2336 H   0  0  0  0  0  0  0  0  0  0  0  0
  141.4218   84.2107  218.9348 H   0  0  0  0  0  0  0  0  0  0  0  0
  142.7767   83.9146  216.4562 H   0  0  0  0  0  0  0  0  0  0  0  0
  143.4064   84.0918  218.1673 H   0  0  0  0  0  0  0  0  0  0  0  0
  144.2896   82.1004  216.9261 H   0  0  0  0  0  0  0  0  0  0  0  0
  143.5042   81.7185  218.4534 H   0  0  0  0  0  0  0  0  0  0  0  0
  141.9398   81.8706  215.7809 H   0  0  0  0  0  0  0  0  0  0  0  0
  142.6679   80.3535  216.3240 H   0  0  0  0  0  0  0  0  0  0  0  0
  140.2474   80.8171  217.0409 H   0  0  0  0  0  0  0  0  0  0  0  0
  141.4595   80.3840  218.3574 H   0  0  0  0  0  0  0  0  0  0  0  0
  139.7256   82.6062  220.8001 H   0  0  0  0  0  0  0  0  0  0  0  0
  138.0653   82.2556  221.3268 H   0  0  0  0  0  0  0  0  0  0  0  0
  141.7287   82.4113  221.7956 H   0  0  0  0  0  0  0  0  0  0  0  0
  143.4151   81.9637  223.5136 H   0  0  0  0  0  0  0  0  0  0  0  0
  143.2637   79.9368  224.9685 H   0  0  0  0  0  0  0  0  0  0  0  0
  141.3561   78.3683  224.6469 H   0  0  0  0  0  0  0  0  0  0  0  0
  1  2  2  0
  2  3  1  0
  3  4  2  0
  4  5  1  0
  5  6  2  0
  6  7  1  0
  7  8  1  0
  8  9  1  0
  9 10  2  0
 10 11  1  0
 11 12  1  0
  7 13  2  0
 13 14  1  0
 14 15  2  0
 15 16  1  0
  2 17  1  0
 17 18  1  0
 19 18  1  1
 19 20  1  0
 20 21  1  0
 21 22  1  0
 22 23  1  0
 23 24  1  0
 24 25  1  0
 25 26  1  0
 26 27  1  0
 27 28  1  0
 28 29  1  0
 22 30  1  0
 19 31  1  0
 31 32  2  0
 32 33  1  0
 33 34  2  0
 34 35  1  0
 35 36  2  0
 16  3  1  0
 36 17  1  0
 15  5  1  0
 30 19  1  0
 36 31  1  0
 12  8  2  0
 29 24  1  0
  4 37  1  0
  6 38  1  0
  9 39  1  0
 11 40  1  0
 12 41  1  0
 13 42  1  0
 14 43  1  0
 16 44  1  0
 18 45  1  0
 18 46  1  0
 20 47  1  0
 20 48  1  0
 21 49  1  0
 21 50  1  0
 23 51  1  0
 23 52  1  0
 24 53  1  0
 25 54  1  0
 25 55  1  0
 26 56  1  0
 26 57  1  0
 27 58  1  0
 27 59  1  0
 28 60  1  0
 28 61  1  0
 29 62  1  0
 29 63  1  0
 30 64  1  0
 30 65  1  0
 32 66  1  0
 33 67  1  0
 34 68  1  0
 35 69  1  0
M  END
>  <smiles>  (46) 
O=C(c1cc2cc(-c3cn[nH]c3)ccc2[nH]1)N1C[C@]2(CCN(CC3CCCCC3)C2)c2ccccc21

>  <score_type>  (46) 
oracle

>  <origin>  (46) 
autodockgpu

>  <m_score__min__energy>  (46) 
-9.5899999999999999

>  <m_primary>  (46) 
energy

>  <rmsd>  (46) 
5.517062384048424

>  <m_score__min__rmsd>  (46) 
5.517062384048424

>  <meeko>  (46) 
{"free_energy": -8.68, "intermolecular_energy": -10.17, "internal_energy": -2.01, "cluster_size": 20, "cluster_id": 6, "rank_in_cluster": 14}

>  <energy>  (46) 
-8.54

>  <cluster_rmsd>  (46) 
0.86

>  <cluster>  (46) 
6

$$$$

     RDKit          3D

 69 75  0  0  0  0  0  0  0  0999 V2000
  134.3430   69.2180  223.8130 O   0  0  0  0  0  0  0  0  0  0  0  0
  135.0950   70.2450  224.0990 C   0  0  0  0  0  0  0  0  0  0  0  0
  134.4390   71.2230  224.9380 C   0  0  0  0  0  0  0  0  0  0  0  0
  134.7450   72.5700  224.8950 C   0  0  0  0  0  0  0  0  0  0  0  0
  133.9340   73.2760  225.7770 C   0  0  0  0  0  0  0  0  0  0  0  0
  133.8140   74.5990  226.1060 C   0  0  0  0  0  0  0  0  0  0  0  0
  132.8740   74.9830  227.0310 C   0  0  0  0  0  0  0  0  0  0  0  0
  132.6720   76.3830  227.4220 C   0  0  0  0  0  0  0  0  0  0  0  0
  133.4070   77.4960  227.0870 C   0  0  0  0  0  0  0  0  0  0  0  0
  132.8470   78.5610  227.6870 N   0  0  0  0  0  0  0  0  0  0  0  0
  131.7910   78.1800  228.3880 N   0  0  0  0  0  0  0  0  0  0  0  0
  131.6490   76.8470  228.2510 C   0  0  0  0  0  0  0  0  0  0  0  0
  132.0290   74.0570  227.6540 C   0  0  0  0  0  0  0  0  0  0  0  0
  132.1940   72.7370  227.2850 C   0  0  0  0  0  0  0  0  0  0  0  0
  133.1320   72.3350  226.3560 C   0  0  0  0  0  0  0  0  0  0  0  0
  133.4540   71.1130  225.8380 N   0  0  0  0  0  0  0  0  0  0  0  0
  136.3620   70.2210  223.5700 N   0  0  0  0  0  0  0  0  0  0  0  0
  137.1480   68.9470  223.4320 C   0  0  0  0  0  0  0  0  0  0  0  0
  138.4080   69.4660  224.1160 C   0  0  1  0  0  0  0  0  0  0  0  0
  138.0990   69.6090  225.5720 C   0  0  0  0  0  0  0  0  0  0  0  0
  138.4570   68.1840  226.0830 C   0  0  0  0  0  0  0  0  0  0  0  0
  139.6740   67.9520  225.4170 N   0  0  0  0  0  0  0  0  0  0  0  0
  140.9170   68.1800  225.9960 C   0  0  0  0  0  0  0  0  0  0  0  0
  141.1960   69.4410  226.7510 C   0  0  0  0  0  0  0  0  0  0  0  0
  140.2700   69.6960  227.8430 C   0  0  0  0  0  0  0  0  0  0  0  0
  140.1910   71.1340  228.3170 C   0  0  0  0  0  0  0  0  0  0  0  0
  141.0920   72.0730  227.5760 C   0  0  0  0  0  0  0  0  0  0  0  0
  140.7420   71.8460  226.0980 C   0  0  0  0  0  0  0  0  0  0  0  0
  141.3640   70.5330  225.7350 C   0  0  0  0  0  0  0  0  0  0  0  0
  139.5670   68.5510  224.0810 C   0  0  0  0  0  0  0  0  0  0  0  0
  138.5820   70.7610  223.4090 C   0  0  0  0  0  0  0  0  0  0  0  0
  139.6210   71.5670  223.0170 C   0  0  0  0  0  0  0  0  0  0  0  0
  139.3950   72.7420  222.3480 C   0  0  0  0  0  0  0  0  0  0  0  0
  138.1000   73.1660  222.0420 C   0  0  0  0  0  0  0  0  0  0  0  0
  137.0460   72.3710  222.4280 C   0  0  0  0  0  0  0  0  0  0  0  0
  137.2840   71.1920  223.0980 C   0  0  0  0  0  0  0  0  0  0  0  0
  135.5188   73.0192  224.2551 H   0  0  0  0  0  0  0  0  0  0  0  0
  134.4652   75.3490  225.6334 H   0  0  0  0  0  0  0  0  0  0  0  0
  134.2973   77.5121  226.4412 H   0  0  0  0  0  0  0  0  0  0  0  0
  131.1870   78.8350  228.9470 H   0  0  0  0  0  0  0  0  0  0  0  0
  130.8631   76.2311  228.7125 H   0  0  0  0  0  0  0  0  0  0  0  0
  131.2764   74.3637  228.3953 H   0  0  0  0  0  0  0  0  0  0  0  0
  131.5518   71.9747  227.7503 H   0  0  0  0  0  0  0  0  0  0  0  0
  132.9580   70.2670  226.1360 H   0  0  0  0  0  0  0  0  0  0  0  0
  136.6891   68.1037  223.9689 H   0  0  0  0  0  0  0  0  0  0  0  0
  137.2599   68.5323  222.4194 H   0  0  0  0  0  0  0  0  0  0  0  0
  138.7256   70.3790  226.0458 H   0  0  0  0  0  0  0  0  0  0  0  0
  137.0694   69.9279  225.7915 H   0  0  0  0  0  0  0  0  0  0  0  0
  138.5860   68.1681  227.1753 H   0  0  0  0  0  0  0  0  0  0  0  0
  137.6837   67.4267  225.8866 H   0  0  0  0  0  0  0  0  0  0  0  0
  141.0923   67.3506  226.6970 H   0  0  0  0  0  0  0  0  0  0  0  0
  141.5781   68.2705  225.1215 H   0  0  0  0  0  0  0  0  0  0  0  0
  142.1345   69.3619  227.3193 H   0  0  0  0  0  0  0  0  0  0  0  0
  139.2656   69.3939  227.5116 H   0  0  0  0  0  0  0  0  0  0  0  0
  140.6502   69.1191  228.6989 H   0  0  0  0  0  0  0  0  0  0  0  0
  139.1545   71.4814  228.1948 H   0  0  0  0  0  0  0  0  0  0  0  0
  140.5206   71.1404  229.3664 H   0  0  0  0  0  0  0  0  0  0  0  0
  140.8941   73.1149  227.8679 H   0  0  0  0  0  0  0  0  0  0  0  0
  142.1558   71.8913  227.7891 H   0  0  0  0  0  0  0  0  0  0  0  0
  139.6510   71.8045  225.9636 H   0  0  0  0  0  0  0  0  0  0  0  0
  141.1132   72.6626  225.4613 H   0  0  0  0  0  0  0  0  0  0  0  0
  140.9121   70.1921  224.7918 H   0  0  0  0  0  0  0  0  0  0  0  0
  142.4459   70.7183  225.6637 H   0  0  0  0  0  0  0  0  0  0  0  0
  140.4838   69.1099  223.8419 H   0  0  0  0  0  0  0  0  0  0  0  0
  139.4361   67.7770  223.3104 H   0  0  0  0  0  0  0  0  0  0  0  0
  140.6541   71.2648  223.2437 H   0  0  0  0  0  0  0  0  0  0  0  0
  140.2510   73.3634  222.0461 H   0  0  0  0  0  0  0  0  0  0  0  0
  137.9274   74.1111  221.5063 H   0  0  0  0  0  0  0  0  0  0  0  0
  136.0139   72.6769  222.2016 H   0  0  0  0  0  0  0  0  0  0  0  0
  1  2  2  0
  2  3  1  0
  3  4  2  0
  4  5  1  0
  5  6  2  0
  6  7  1  0
  7  8  1  0
  8  9  1  0
  9 10  2  0
 10 11  1  0
 11 12  1  0
  7 13  2  0
 13 14  1  0
 14 15  2  0
 15 16  1  0
  2 17  1  0
 17 18  1  0
 19 18  1  6
 19 20  1  0
 20 21  1  0
 21 22  1  0
 22 23  1  0
 23 24  1  0
 24 25  1  0
 25 26  1  0
 26 27  1  0
 27 28  1  0
 28 29  1  0
 22 30  1  0
 19 31  1  0
 31 32  2  0
 32 33  1  0
 33 34  2  0
 34 35  1  0
 35 36  2  0
 16  3  1  0
 36 17  1  0
 15  5  1  0
 30 19  1  0
 36 31  1  0
 12  8  2  0
 29 24  1  0
  4 37  1  0
  6 38  1  0
  9 39  1  0
 11 40  1  0
 12 41  1  0
 13 42  1  0
 14 43  1  0
 16 44  1  0
 18 45  1  0
 18 46  1  0
 20 47  1  0
 20 48  1  0
 21 49  1  0
 21 50  1  0
 23 51  1  0
 23 52  1  0
 24 53  1  0
 25 54  1  0
 25 55  1  0
 26 56  1  0
 26 57  1  0
 27 58  1  0
 27 59  1  0
 28 60  1  0
 28 61  1  0
 29 62  1  0
 29 63  1  0
 30 64  1  0
 30 65  1  0
 32 66  1  0
 33 67  1  0
 34 68  1  0
 35 69  1  0
M  END
>  <smiles>  (47) 
O=C(c1cc2cc(-c3cn[nH]c3)ccc2[nH]1)N1C[C@]2(CCN(CC3CCCCC3)C2)c2ccccc21

>  <score_type>  (47) 
oracle

>  <origin>  (47) 
autodockgpu

>  <m_score__min__energy>  (47) 
-9.5899999999999999

>  <m_primary>  (47) 
energy

>  <rmsd>  (47) 
10.41157881612832

>  <m_score__min__rmsd>  (47) 
10.41157881612832

>  <meeko>  (47) 
{"free_energy": -8.6, "intermolecular_energy": -10.09, "internal_energy": -2.08, "cluster_size": 5, "cluster_id": 5, "rank_in_cluster": 5}

>  <energy>  (47) 
-8.78

>  <cluster_rmsd>  (47) 
0.0

>  <cluster>  (47) 
7

$$$$

     RDKit          3D

 69 75  0  0  0  0  0  0  0  0999 V2000
  137.4200   77.2820  222.4780 O   0  0  0  0  0  0  0  0  0  0  0  0
  138.7030   77.4940  222.5780 C   0  0  0  0  0  0  0  0  0  0  0  0
  139.5090   76.3640  222.1720 C   0  0  0  0  0  0  0  0  0  0  0  0
  140.7290   76.5050  221.5380 C   0  0  0  0  0  0  0  0  0  0  0  0
  141.2960   75.2570  221.3040 C   0  0  0  0  0  0  0  0  0  0  0  0
  142.4690   74.8370  220.7360 C   0  0  0  0  0  0  0  0  0  0  0  0
  142.7450   73.4940  220.6720 C   0  0  0  0  0  0  0  0  0  0  0  0
  143.9880   72.9680  220.0960 C   0  0  0  0  0  0  0  0  0  0  0  0
  145.0170   73.6410  219.4790 C   0  0  0  0  0  0  0  0  0  0  0  0
  145.9410   72.7390  219.1070 N   0  0  0  0  0  0  0  0  0  0  0  0
  145.5520   71.5230  219.4560 N   0  0  0  0  0  0  0  0  0  0  0  0
  144.3550   71.6210  220.0680 C   0  0  0  0  0  0  0  0  0  0  0  0
  141.8600   72.5320  221.1710 C   0  0  0  0  0  0  0  0  0  0  0  0
  140.6920   73.0110  221.7310 C   0  0  0  0  0  0  0  0  0  0  0  0
  140.4000   74.3580  221.8060 C   0  0  0  0  0  0  0  0  0  0  0  0
  139.3380   75.0450  222.3210 N   0  0  0  0  0  0  0  0  0  0  0  0
  139.0670   78.7370  223.0380 N   0  0  0  0  0  0  0  0  0  0  0  0
  138.0510   79.7900  223.3850 C   0  0  0  0  0  0  0  0  0  0  0  0
  138.6840   80.8980  222.5500 C   0  0  1  0  0  0  0  0  0  0  0  0
  138.4550   80.5590  221.1120 C   0  0  0  0  0  0  0  0  0  0  0  0
  137.0690   81.2260  220.8760 C   0  0  0  0  0  0  0  0  0  0  0  0
  137.2510   82.4660  221.5130 N   0  0  0  0  0  0  0  0  0  0  0  0
  137.6230   83.6240  220.8390 C   0  0  0  0  0  0  0  0  0  0  0  0
  138.7660   83.6200  219.8740 C   0  0  0  0  0  0  0  0  0  0  0  0
  138.5920   82.7130  218.7510 C   0  0  0  0  0  0  0  0  0  0  0  0
  139.8610   82.3060  218.0300 C   0  0  0  0  0  0  0  0  0  0  0  0
  141.1090   82.9130  218.5960 C   0  0  0  0  0  0  0  0  0  0  0  0
  141.0560   82.5610  220.0900 C   0  0  0  0  0  0  0  0  0  0  0  0
  140.0220   83.4680  220.6810 C   0  0  0  0  0  0  0  0  0  0  0  0
  138.0710   82.2340  222.7080 C   0  0  0  0  0  0  0  0  0  0  0  0
  140.1010   80.7790  222.9770 C   0  0  0  0  0  0  0  0  0  0  0  0
  141.1790   81.6120  223.1500 C   0  0  0  0  0  0  0  0  0  0  0  0
  142.3860   81.1310  223.5840 C   0  0  0  0  0  0  0  0  0  0  0  0
  142.5690   79.7750  223.8650 C   0  0  0  0  0  0  0  0  0  0  0  0
  141.5010   78.9240  223.6960 C   0  0  0  0  0  0  0  0  0  0  0  0
  140.2910   79.4190  223.2610 C   0  0  0  0  0  0  0  0  0  0  0  0
  141.1857   77.4660  221.2587 H   0  0  0  0  0  0  0  0  0  0  0  0
  143.1842   75.5699  220.3343 H   0  0  0  0  0  0  0  0  0  0  0  0
  145.0736   74.7277  219.3182 H   0  0  0  0  0  0  0  0  0  0  0  0
  146.1080   70.6500  219.2710 H   0  0  0  0  0  0  0  0  0  0  0  0
  143.7685   70.7842  220.4751 H   0  0  0  0  0  0  0  0  0  0  0  0
  142.0818   71.4558  221.1202 H   0  0  0  0  0  0  0  0  0  0  0  0
  139.9652   72.2901  222.1335 H   0  0  0  0  0  0  0  0  0  0  0  0
  138.5520   74.5510  222.7570 H   0  0  0  0  0  0  0  0  0  0  0  0
  137.0366   79.5300  223.0482 H   0  0  0  0  0  0  0  0  0  0  0  0
  137.8851   79.9967  224.4526 H   0  0  0  0  0  0  0  0  0  0  0  0
  139.2301   80.9947  220.4644 H   0  0  0  0  0  0  0  0  0  0  0  0
  138.4886   79.4831  220.8854 H   0  0  0  0  0  0  0  0  0  0  0  0
  136.8590   81.3507  219.8035 H   0  0  0  0  0  0  0  0  0  0  0  0
  136.2169   80.6436  221.2565 H   0  0  0  0  0  0  0  0  0  0  0  0
  136.7386   83.9554  220.2750 H   0  0  0  0  0  0  0  0  0  0  0  0
  137.9935   84.2678  221.6503 H   0  0  0  0  0  0  0  0  0  0  0  0
  138.8279   84.5749  219.3314 H   0  0  0  0  0  0  0  0  0  0  0  0
  138.1094   81.7989  219.1270 H   0  0  0  0  0  0  0  0  0  0  0  0
  137.9918   83.2639  218.0119 H   0  0  0  0  0  0  0  0  0  0  0  0
  139.9536   81.2113  218.0854 H   0  0  0  0  0  0  0  0  0  0  0  0
  139.7703   82.6734  216.9972 H   0  0  0  0  0  0  0  0  0  0  0  0
  142.0027   82.4783  218.1244 H   0  0  0  0  0  0  0  0  0  0  0  0
  141.1667   83.9974  218.4207 H   0  0  0  0  0  0  0  0  0  0  0  0
  140.7667   81.5085  220.2265 H   0  0  0  0  0  0  0  0  0  0  0  0
  142.0354   82.6907  220.5737 H   0  0  0  0  0  0  0  0  0  0  0  0
  139.7454   83.0702  221.6686 H   0  0  0  0  0  0  0  0  0  0  0  0
  140.4807   84.4670  220.7211 H   0  0  0  0  0  0  0  0  0  0  0  0
  138.8534   83.0032  222.7860 H   0  0  0  0  0  0  0  0  0  0  0  0
  137.4611   82.2838  223.6221 H   0  0  0  0  0  0  0  0  0  0  0  0
  141.0713   82.6856  222.9360 H   0  0  0  0  0  0  0  0  0  0  0  0
  143.2281   81.8267  223.7138 H   0  0  0  0  0  0  0  0  0  0  0  0
  143.5419   79.3972  224.2125 H   0  0  0  0  0  0  0  0  0  0  0  0
  141.6131   77.8504  223.9078 H   0  0  0  0  0  0  0  0  0  0  0  0
  1  2  2  0
  2  3  1  0
  3  4  2  0
  4  5  1  0
  5  6  2  0
  6  7  1  0
  7  8  1  0
  8  9  1  0
  9 10  2  0
 10 11  1  0
 11 12  1  0
  7 13  2  0
 13 14  1  0
 14 15  2  0
 15 16  1  0
  2 17  1  0
 17 18  1  0
 19 18  1  1
 19 20  1  0
 20 21  1  0
 21 22  1  0
 22 23  1  0
 23 24  1  0
 24 25  1  0
 25 26  1  0
 26 27  1  0
 27 28  1  0
 28 29  1  0
 22 30  1  0
 19 31  1  0
 31 32  2  0
 32 33  1  0
 33 34  2  0
 34 35  1  0
 35 36  2  0
 16  3  1  0
 36 17  1  0
 15  5  1  0
 30 19  1  0
 36 31  1  0
 12  8  2  0
 29 24  1  0
  4 37  1  0
  6 38  1  0
  9 39  1  0
 11 40  1  0
 12 41  1  0
 13 42  1  0
 14 43  1  0
 16 44  1  0
 18 45  1  0
 18 46  1  0
 20 47  1  0
 20 48  1  0
 21 49  1  0
 21 50  1  0
 23 51  1  0
 23 52  1  0
 24 53  1  0
 25 54  1  0
 25 55  1  0
 26 56  1  0
 26 57  1  0
 27 58  1  0
 27 59  1  0
 28 60  1  0
 28 61  1  0
 29 62  1  0
 29 63  1  0
 30 64  1  0
 30 65  1  0
 32 66  1  0
 33 67  1  0
 34 68  1  0
 35 69  1  0
M  END
>  <smiles>  (48) 
O=C(c1cc2cc(-c3cn[nH]c3)ccc2[nH]1)N1C[C@]2(CCN(CC3CCCCC3)C2)c2ccccc21

>  <score_type>  (48) 
oracle

>  <origin>  (48) 
autodockgpu

>  <m_score__min__energy>  (48) 
-9.5899999999999999

>  <m_primary>  (48) 
energy

>  <rmsd>  (48) 
5.382103095636699

>  <m_score__min__rmsd>  (48) 
5.382103095636699

>  <meeko>  (48) 
{"free_energy": -8.7, "intermolecular_energy": -10.19, "internal_energy": -2.03, "cluster_size": 20, "cluster_id": 6, "rank_in_cluster": 13}

>  <energy>  (48) 
-8.77

>  <cluster_rmsd>  (48) 
0.0

>  <cluster>  (48) 
8

$$$$

     RDKit          3D

 69 75  0  0  0  0  0  0  0  0999 V2000
  139.5100   75.3570  218.7720 O   0  0  0  0  0  0  0  0  0  0  0  0
  140.2040   75.1910  219.8640 C   0  0  0  0  0  0  0  0  0  0  0  0
  140.1340   76.3160  220.7700 C   0  0  0  0  0  0  0  0  0  0  0  0
  138.9720   77.0320  220.9840 C   0  0  0  0  0  0  0  0  0  0  0  0
  139.1860   78.0270  221.9310 C   0  0  0  0  0  0  0  0  0  0  0  0
  138.3910   78.9820  222.5040 C   0  0  0  0  0  0  0  0  0  0  0  0
  138.9210   79.8250  223.4490 C   0  0  0  0  0  0  0  0  0  0  0  0
  138.1280   80.8600  224.1220 C   0  0  0  0  0  0  0  0  0  0  0  0
  137.7040   80.9220  225.4290 C   0  0  0  0  0  0  0  0  0  0  0  0
  136.9990   82.0560  225.5850 N   0  0  0  0  0  0  0  0  0  0  0  0
  136.9530   82.7200  224.4410 N   0  0  0  0  0  0  0  0  0  0  0  0
  137.6360   82.0180  223.5150 C   0  0  0  0  0  0  0  0  0  0  0  0
  140.2600   79.7400  223.8480 C   0  0  0  0  0  0  0  0  0  0  0  0
  141.0170   78.7600  223.2370 C   0  0  0  0  0  0  0  0  0  0  0  0
  140.4990   77.9030  222.2870 C   0  0  0  0  0  0  0  0  0  0  0  0
  141.0450   76.8710  221.5780 N   0  0  0  0  0  0  0  0  0  0  0  0
  140.8690   73.9930  219.9700 N   0  0  0  0  0  0  0  0  0  0  0  0
  140.1470   72.6740  219.9590 C   0  0  0  0  0  0  0  0  0  0  0  0
  140.8010   72.1280  221.2240 C   0  0  1  0  0  0  0  0  0  0  0  0
  140.2460   72.8970  222.3800 C   0  0  0  0  0  0  0  0  0  0  0  0
  138.9860   72.0450  222.7120 C   0  0  0  0  0  0  0  0  0  0  0  0
  139.5080   70.7430  222.6370 N   0  0  0  0  0  0  0  0  0  0  0  0
  139.9510   70.0310  223.7460 C   0  0  0  0  0  0  0  0  0  0  0  0
  139.9140   70.6360  225.1140 C   0  0  0  0  0  0  0  0  0  0  0  0
  141.0340   71.5170  225.4040 C   0  0  0  0  0  0  0  0  0  0  0  0
  141.3140   71.7650  226.8720 C   0  0  0  0  0  0  0  0  0  0  0  0
  140.3780   71.0550  227.8030 C   0  0  0  0  0  0  0  0  0  0  0  0
  140.4440   69.5870  227.3570 C   0  0  0  0  0  0  0  0  0  0  0  0
  139.6620   69.5180  226.0820 C   0  0  0  0  0  0  0  0  0  0  0  0
  140.4840   70.7200  221.5400 C   0  0  0  0  0  0  0  0  0  0  0  0
  142.2280   72.4230  220.9360 C   0  0  0  0  0  0  0  0  0  0  0  0
  143.4520   71.8710  221.2190 C   0  0  0  0  0  0  0  0  0  0  0  0
  144.6120   72.4400  220.7610 C   0  0  0  0  0  0  0  0  0  0  0  0
  144.5940   73.6050  219.9910 C   0  0  0  0  0  0  0  0  0  0  0  0
  143.3760   74.1750  219.6990 C   0  0  0  0  0  0  0  0  0  0  0  0
  142.2170   73.5940  220.1630 C   0  0  0  0  0  0  0  0  0  0  0  0
  138.0143   76.8419  220.4774 H   0  0  0  0  0  0  0  0  0  0  0  0
  137.3351   79.0736  222.2096 H   0  0  0  0  0  0  0  0  0  0  0  0
  137.9064   80.1744  226.2101 H   0  0  0  0  0  0  0  0  0  0  0  0
  136.4560   83.6380  224.3120 H   0  0  0  0  0  0  0  0  0  0  0  0
  137.7809   82.3069  222.4635 H   0  0  0  0  0  0  0  0  0  0  0  0
  140.6850   80.4154  224.6051 H   0  0  0  0  0  0  0  0  0  0  0  0
  142.0754   78.6582  223.5187 H   0  0  0  0  0  0  0  0  0  0  0  0
  142.0270   76.6060  221.7060 H   0  0  0  0  0  0  0  0  0  0  0  0
  139.0570   72.7847  220.0572 H   0  0  0  0  0  0  0  0  0  0  0  0
  140.2277   72.0638  219.0473 H   0  0  0  0  0  0  0  0  0  0  0  0
  140.9506   72.9253  223.2242 H   0  0  0  0  0  0  0  0  0  0  0  0
  140.0390   73.9563  222.1677 H   0  0  0  0  0  0  0  0  0  0  0  0
  138.6026   72.2680  223.7186 H   0  0  0  0  0  0  0  0  0  0  0  0
  138.1302   72.2268  222.0453 H   0  0  0  0  0  0  0  0  0  0  0  0
  139.3442   69.1147  223.7925 H   0  0  0  0  0  0  0  0  0  0  0  0
  141.0295   69.9304  223.5545 H   0  0  0  0  0  0  0  0  0  0  0  0
  139.0859   71.3542  225.2059 H   0  0  0  0  0  0  0  0  0  0  0  0
  141.9366   71.0735  224.9584 H   0  0  0  0  0  0  0  0  0  0  0  0
  140.7617   72.4957  224.9820 H   0  0  0  0  0  0  0  0  0  0  0  0
  142.3385   71.4288  227.0897 H   0  0  0  0  0  0  0  0  0  0  0  0
  141.1745   72.8426  227.0435 H   0  0  0  0  0  0  0  0  0  0  0  0
  140.7105   71.1611  228.8462 H   0  0  0  0  0  0  0  0  0  0  0  0
  139.3566   71.4615  227.7642 H   0  0  0  0  0  0  0  0  0  0  0  0
  141.4875   69.2847  227.1843 H   0  0  0  0  0  0  0  0  0  0  0  0
  140.0356   68.9104  228.1221 H   0  0  0  0  0  0  0  0  0  0  0  0
  139.9124   68.5715  225.5806 H   0  0  0  0  0  0  0  0  0  0  0  0
  138.6033   69.5977  226.3698 H   0  0  0  0  0  0  0  0  0  0  0  0
  141.3941   70.1877  221.8535 H   0  0  0  0  0  0  0  0  0  0  0  0
  140.0783   70.1988  220.6604 H   0  0  0  0  0  0  0  0  0  0  0  0
  143.5033   70.9544  221.8249 H   0  0  0  0  0  0  0  0  0  0  0  0
  145.5761   71.9697  221.0048 H   0  0  0  0  0  0  0  0  0  0  0  0
  145.5293   74.0554  219.6273 H   0  0  0  0  0  0  0  0  0  0  0  0
  143.3283   75.0936  219.0957 H   0  0  0  0  0  0  0  0  0  0  0  0
  1  2  2  0
  2  3  1  0
  3  4  2  0
  4  5  1  0
  5  6  2  0
  6  7  1  0
  7  8  1  0
  8  9  1  0
  9 10  2  0
 10 11  1  0
 11 12  1  0
  7 13  2  0
 13 14  1  0
 14 15  2  0
 15 16  1  0
  2 17  1  0
 17 18  1  0
 19 18  1  6
 19 20  1  0
 20 21  1  0
 21 22  1  0
 22 23  1  0
 23 24  1  0
 24 25  1  0
 25 26  1  0
 26 27  1  0
 27 28  1  0
 28 29  1  0
 22 30  1  0
 19 31  1  0
 31 32  2  0
 32 33  1  0
 33 34  2  0
 34 35  1  0
 35 36  2  0
 16  3  1  0
 36 17  1  0
 15  5  1  0
 30 19  1  0
 36 31  1  0
 12  8  2  0
 29 24  1  0
  4 37  1  0
  6 38  1  0
  9 39  1  0
 11 40  1  0
 12 41  1  0
 13 42  1  0
 14 43  1  0
 16 44  1  0
 18 45  1  0
 18 46  1  0
 20 47  1  0
 20 48  1  0
 21 49  1  0
 21 50  1  0
 23 51  1  0
 23 52  1  0
 24 53  1  0
 25 54  1  0
 25 55  1  0
 26 56  1  0
 26 57  1  0
 27 58  1  0
 27 59  1  0
 28 60  1  0
 28 61  1  0
 29 62  1  0
 29 63  1  0
 30 64  1  0
 30 65  1  0
 32 66  1  0
 33 67  1  0
 34 68  1  0
 35 69  1  0
M  END
>  <smiles>  (49) 
O=C(c1cc2cc(-c3cn[nH]c3)ccc2[nH]1)N1C[C@]2(CCN(CC3CCCCC3)C2)c2ccccc21

>  <score_type>  (49) 
oracle

>  <origin>  (49) 
autodockgpu

>  <m_score__min__energy>  (49) 
-9.5899999999999999

>  <m_primary>  (49) 
energy

>  <rmsd>  (49) 
9.707313314580743

>  <m_score__min__rmsd>  (49) 
9.707313314580743

>  <meeko>  (49) 
{"free_energy": -9.27, "intermolecular_energy": -10.76, "internal_energy": -1.7, "cluster_size": 6, "cluster_id": 2, "rank_in_cluster": 1}

>  <energy>  (49) 
-8.57

>  <cluster_rmsd>  (49) 
1.25

>  <cluster>  (49) 
8

$$$$

     RDKit          3D

 69 75  0  0  0  0  0  0  0  0999 V2000
  139.5200   75.4210  218.7220 O   0  0  0  0  0  0  0  0  0  0  0  0
  140.1460   75.2260  219.8500 C   0  0  0  0  0  0  0  0  0  0  0  0
  140.0010   76.3180  220.7860 C   0  0  0  0  0  0  0  0  0  0  0  0
  138.7790   76.8890  221.0870 C   0  0  0  0  0  0  0  0  0  0  0  0
  138.9350   77.8850  222.0450 C   0  0  0  0  0  0  0  0  0  0  0  0
  138.0700   78.7290  222.6880 C   0  0  0  0  0  0  0  0  0  0  0  0
  138.5570   79.6110  223.6210 C   0  0  0  0  0  0  0  0  0  0  0  0
  137.6920   80.5330  224.3660 C   0  0  0  0  0  0  0  0  0  0  0  0
  138.0290   81.4720  225.3130 C   0  0  0  0  0  0  0  0  0  0  0  0
  136.8990   82.0750  225.7230 N   0  0  0  0  0  0  0  0  0  0  0  0
  135.8580   81.5660  225.0830 N   0  0  0  0  0  0  0  0  0  0  0  0
  136.3030   80.6140  224.2390 C   0  0  0  0  0  0  0  0  0  0  0  0
  139.9180   79.6760  223.9390 C   0  0  0  0  0  0  0  0  0  0  0  0
  140.7450   78.8030  223.2590 C   0  0  0  0  0  0  0  0  0  0  0  0
  140.2720   77.9090  222.3200 C   0  0  0  0  0  0  0  0  0  0  0  0
  140.8900   76.9620  221.5540 N   0  0  0  0  0  0  0  0  0  0  0  0
  140.8200   74.0340  219.9580 N   0  0  0  0  0  0  0  0  0  0  0  0
  140.1090   72.7100  219.9500 C   0  0  0  0  0  0  0  0  0  0  0  0
  140.7680   72.1710  221.2160 C   0  0  1  0  0  0  0  0  0  0  0  0
  140.2080   72.9370  222.3710 C   0  0  0  0  0  0  0  0  0  0  0  0
  138.9550   72.0770  222.7050 C   0  0  0  0  0  0  0  0  0  0  0  0
  139.4870   70.7780  222.6320 N   0  0  0  0  0  0  0  0  0  0  0  0
  139.9360   70.0720  223.7430 C   0  0  0  0  0  0  0  0  0  0  0  0
  139.8970   70.6800  225.1090 C   0  0  0  0  0  0  0  0  0  0  0  0
  141.0370   71.5290  225.4140 C   0  0  0  0  0  0  0  0  0  0  0  0
  141.3020   71.7710  226.8870 C   0  0  0  0  0  0  0  0  0  0  0  0
  140.3330   71.0890  227.8040 C   0  0  0  0  0  0  0  0  0  0  0  0
  140.3640   69.6190  227.3610 C   0  0  0  0  0  0  0  0  0  0  0  0
  139.5980   69.5710  226.0750 C   0  0  0  0  0  0  0  0  0  0  0  0
  140.4620   70.7610  221.5350 C   0  0  0  0  0  0  0  0  0  0  0  0
  142.1920   72.4770  220.9260 C   0  0  0  0  0  0  0  0  0  0  0  0
  143.4210   71.9350  221.2090 C   0  0  0  0  0  0  0  0  0  0  0  0
  144.5760   72.5130  220.7500 C   0  0  0  0  0  0  0  0  0  0  0  0
  144.5480   73.6760  219.9770 C   0  0  0  0  0  0  0  0  0  0  0  0
  143.3260   74.2350  219.6850 C   0  0  0  0  0  0  0  0  0  0  0  0
  142.1710   73.6460  220.1510 C   0  0  0  0  0  0  0  0  0  0  0  0
  137.8201   76.5974  220.6337 H   0  0  0  0  0  0  0  0  0  0  0  0
  136.9944   78.7009  222.4593 H   0  0  0  0  0  0  0  0  0  0  0  0
  139.0453   81.6914  225.6722 H   0  0  0  0  0  0  0  0  0  0  0  0
  134.8650   81.8750  225.2340 H   0  0  0  0  0  0  0  0  0  0  0  0
  135.6802   80.0059  223.5664 H   0  0  0  0  0  0  0  0  0  0  0  0
  140.3072   80.3818  224.6876 H   0  0  0  0  0  0  0  0  0  0  0  0
  141.8235   78.8212  223.4746 H   0  0  0  0  0  0  0  0  0  0  0  0
  141.9020   76.8120  221.6160 H   0  0  0  0  0  0  0  0  0  0  0  0
  139.0182   72.8123  220.0486 H   0  0  0  0  0  0  0  0  0  0  0  0
  140.1942   72.0989  219.0394 H   0  0  0  0  0  0  0  0  0  0  0  0
  140.9129   72.9715  223.2148 H   0  0  0  0  0  0  0  0  0  0  0  0
  139.9930   73.9944  222.1572 H   0  0  0  0  0  0  0  0  0  0  0  0
  138.5705   72.2990  223.7114 H   0  0  0  0  0  0  0  0  0  0  0  0
  138.0975   72.2514  222.0385 H   0  0  0  0  0  0  0  0  0  0  0  0
  139.3351   69.1520  223.7928 H   0  0  0  0  0  0  0  0  0  0  0  0
  141.0150   69.9783  223.5504 H   0  0  0  0  0  0  0  0  0  0  0  0
  139.0891   71.4223  225.1881 H   0  0  0  0  0  0  0  0  0  0  0  0
  141.9331   71.0593  224.9823 H   0  0  0  0  0  0  0  0  0  0  0  0
  140.7994   72.5143  224.9866 H   0  0  0  0  0  0  0  0  0  0  0  0
  142.3133   71.4064  227.1203 H   0  0  0  0  0  0  0  0  0  0  0  0
  141.1902   72.8523  227.0555 H   0  0  0  0  0  0  0  0  0  0  0  0
  140.6526   71.1872  228.8519 H   0  0  0  0  0  0  0  0  0  0  0  0
  139.3241   71.5239  227.7490 H   0  0  0  0  0  0  0  0  0  0  0  0
  141.4008   69.2871  227.2032 H   0  0  0  0  0  0  0  0  0  0  0  0
  139.9264   68.9550  228.1210 H   0  0  0  0  0  0  0  0  0  0  0  0
  139.8271   68.6166  225.5783 H   0  0  0  0  0  0  0  0  0  0  0  0
  138.5382   69.6824  226.3477 H   0  0  0  0  0  0  0  0  0  0  0  0
  141.3765   70.2364  221.8489 H   0  0  0  0  0  0  0  0  0  0  0  0
  140.0596   70.2353  220.6565 H   0  0  0  0  0  0  0  0  0  0  0  0
  143.4801   71.0193  221.8157 H   0  0  0  0  0  0  0  0  0  0  0  0
  145.5441   72.0518  220.9953 H   0  0  0  0  0  0  0  0  0  0  0  0
  145.4794   74.1330  219.6113 H   0  0  0  0  0  0  0  0  0  0  0  0
  143.2707   75.1518  219.0797 H   0  0  0  0  0  0  0  0  0  0  0  0
  1  2  2  0
  2  3  1  0
  3  4  2  0
  4  5  1  0
  5  6  2  0
  6  7  1  0
  7  8  1  0
  8  9  1  0
  9 10  2  0
 10 11  1  0
 11 12  1  0
  7 13  2  0
 13 14  1  0
 14 15  2  0
 15 16  1  0
  2 17  1  0
 17 18  1  0
 19 18  1  6
 19 20  1  0
 20 21  1  0
 21 22  1  0
 22 23  1  0
 23 24  1  0
 24 25  1  0
 25 26  1  0
 26 27  1  0
 27 28  1  0
 28 29  1  0
 22 30  1  0
 19 31  1  0
 31 32  2  0
 32 33  1  0
 33 34  2  0
 34 35  1  0
 35 36  2  0
 16  3  1  0
 36 17  1  0
 15  5  1  0
 30 19  1  0
 36 31  1  0
 12  8  2  0
 29 24  1  0
  4 37  1  0
  6 38  1  0
  9 39  1  0
 11 40  1  0
 12 41  1  0
 13 42  1  0
 14 43  1  0
 16 44  1  0
 18 45  1  0
 18 46  1  0
 20 47  1  0
 20 48  1  0
 21 49  1  0
 21 50  1  0
 23 51  1  0
 23 52  1  0
 24 53  1  0
 25 54  1  0
 25 55  1  0
 26 56  1  0
 26 57  1  0
 27 58  1  0
 27 59  1  0
 28 60  1  0
 28 61  1  0
 29 62  1  0
 29 63  1  0
 30 64  1  0
 30 65  1  0
 32 66  1  0
 33 67  1  0
 34 68  1  0
 35 69  1  0
M  END
>  <smiles>  (50) 
O=C(c1cc2cc(-c3cn[nH]c3)ccc2[nH]1)N1C[C@]2(CCN(CC3CCCCC3)C2)c2ccccc21

>  <score_type>  (50) 
oracle

>  <origin>  (50) 
autodockgpu

>  <m_score__min__energy>  (50) 
-9.5899999999999999

>  <m_primary>  (50) 
energy

>  <rmsd>  (50) 
9.55503180725644

>  <m_score__min__rmsd>  (50) 
9.55503180725644

>  <meeko>  (50) 
{"free_energy": -9.03, "intermolecular_energy": -10.52, "internal_energy": -1.71, "cluster_size": 6, "cluster_id": 2, "rank_in_cluster": 5}

>  <energy>  (50) 
-8.45

>  <cluster_rmsd>  (50) 
0.0

>  <cluster>  (50) 
9

$$$$
