
     RDKit          3D

 64 69  0  0  0  0  0  0  0  0999 V2000
  139.8480   70.0860  222.0760 O   0  0  0  0  0  0  0  0  0  0  0  0
  139.7400   71.1870  222.6750 C   0  0  0  0  0  0  0  0  0  0  0  0
  139.0140   71.2970  223.8820 N   0  0  0  0  0  0  0  0  0  0  0  0
  138.3360   70.2240  224.5480 C   0  0  0  0  0  0  0  0  0  0  0  0
  139.1870   69.4700  225.5060 C   0  0  0  0  0  0  0  0  0  0  0  0
  139.9600   70.2410  226.3710 C   0  0  0  0  0  0  0  0  0  0  0  0
  140.7810   69.5920  227.2900 C   0  0  0  0  0  0  0  0  0  0  0  0
  140.8300   68.2470  227.3400 N   0  0  0  0  0  0  0  0  0  0  0  0
  140.0690   67.5180  226.4870 C   0  0  0  0  0  0  0  0  0  0  0  0
  139.2330   68.0930  225.5540 C   0  0  0  0  0  0  0  0  0  0  0  0
  140.3920   72.3800  222.0980 C   0  0  0  0  0  0  0  0  0  0  0  0
  141.4880   72.2270  221.2740 C   0  0  0  0  0  0  0  0  0  0  0  0
  142.1410   73.3080  220.7110 C   0  0  0  0  0  0  0  0  0  0  0  0
  143.2690   73.1430  219.8610 N   0  0  0  0  0  0  0  0  0  0  0  0
  143.3620   73.9950  218.7010 C   0  0  0  0  0  0  0  0  0  0  0  0
  144.4540   73.6530  217.7530 C   0  0  0  0  0  0  0  0  0  0  0  0
  144.9920   72.3010  217.8690 C   0  0  0  0  0  0  0  0  0  0  0  0
  145.6130   71.7270  216.7800 C   0  0  0  0  0  0  0  0  0  0  0  0
  146.1420   70.4410  216.8450 C   0  0  0  0  0  0  0  0  0  0  0  0
  146.0500   69.7130  218.0190 C   0  0  0  0  0  0  0  0  0  0  0  0
  145.4280   70.2880  219.1090 C   0  0  0  0  0  0  0  0  0  0  0  0
  144.9130   71.5580  219.0200 C   0  0  0  0  0  0  0  0  0  0  0  0
  144.2550   72.1360  220.2060 C   0  0  0  0  0  0  0  0  0  0  0  0
  141.6480   74.5280  221.0120 N   0  0  0  0  0  0  0  0  0  0  0  0
  140.5790   74.6990  221.8130 C   0  0  0  0  0  0  0  0  0  0  0  0
  140.1480   76.0350  222.0670 N   0  0  0  0  0  0  0  0  0  0  0  0
  138.8090   76.2380  222.5930 C   0  0  0  0  0  0  0  0  0  0  0  0
  138.2690   77.5470  221.9940 C   0  0  0  0  0  0  0  0  0  0  0  0
  139.1800   78.6030  222.5700 C   0  0  0  0  0  0  0  0  0  0  0  0
  138.6720   79.7310  223.1720 C   0  0  0  0  0  0  0  0  0  0  0  0
  139.5250   80.6770  223.6960 C   0  0  0  0  0  0  0  0  0  0  0  0
  140.8920   80.4530  223.5940 C   0  0  0  0  0  0  0  0  0  0  0  0
  141.3910   79.3040  222.9780 C   0  0  0  0  0  0  0  0  0  0  0  0
  140.5300   78.3430  222.4470 C   0  0  0  0  0  0  0  0  0  0  0  0
  141.0660   77.1220  221.7910 C   0  0  0  0  0  0  0  0  0  0  0  0
  139.9610   73.6230  222.3500 N   0  0  0  0  0  0  0  0  0  0  0  0
  138.9810   72.2710  224.3130 H   0  0  0  0  0  0  0  0  0  0  0  0
  137.4830   70.6446  225.1007 H   0  0  0  0  0  0  0  0  0  0  0  0
  138.0277   69.5114  223.7688 H   0  0  0  0  0  0  0  0  0  0  0  0
  139.9228   71.3396  226.3292 H   0  0  0  0  0  0  0  0  0  0  0  0
  141.3964   70.1847  227.9828 H   0  0  0  0  0  0  0  0  0  0  0  0
  140.1209   66.4206  226.5418 H   0  0  0  0  0  0  0  0  0  0  0  0
  138.6261   67.4770  224.8741 H   0  0  0  0  0  0  0  0  0  0  0  0
  141.8541   71.2124  221.0580 H   0  0  0  0  0  0  0  0  0  0  0  0
  142.4077   73.9355  218.1572 H   0  0  0  0  0  0  0  0  0  0  0  0
  143.5891   75.0028  219.0788 H   0  0  0  0  0  0  0  0  0  0  0  0
  144.0654   73.7757  216.7313 H   0  0  0  0  0  0  0  0  0  0  0  0
  145.2864   74.3292  217.9976 H   0  0  0  0  0  0  0  0  0  0  0  0
  145.6919   72.2961  215.8420 H   0  0  0  0  0  0  0  0  0  0  0  0
  146.6332   70.0032  215.9635 H   0  0  0  0  0  0  0  0  0  0  0  0
  146.4645   68.6960  218.0820 H   0  0  0  0  0  0  0  0  0  0  0  0
  145.3446   69.7273  220.0517 H   0  0  0  0  0  0  0  0  0  0  0  0
  143.7547   71.3282  220.7602 H   0  0  0  0  0  0  0  0  0  0  0  0
  145.0314   72.6239  220.8135 H   0  0  0  0  0  0  0  0  0  0  0  0
  138.1608   75.3976  222.3040 H   0  0  0  0  0  0  0  0  0  0  0  0
  138.8294   76.2947  223.6913 H   0  0  0  0  0  0  0  0  0  0  0  0
  138.3309   77.5314  220.8959 H   0  0  0  0  0  0  0  0  0  0  0  0
  137.2092   77.7207  222.2319 H   0  0  0  0  0  0  0  0  0  0  0  0
  137.5836   79.8775  223.2349 H   0  0  0  0  0  0  0  0  0  0  0  0
  139.1349   81.5838  224.1813 H   0  0  0  0  0  0  0  0  0  0  0  0
  141.5934   81.1937  224.0057 H   0  0  0  0  0  0  0  0  0  0  0  0
  142.4786   79.1541  222.9102 H   0  0  0  0  0  0  0  0  0  0  0  0
  141.1414   77.2823  220.7054 H   0  0  0  0  0  0  0  0  0  0  0  0
  142.0692   76.8864  222.1759 H   0  0  0  0  0  0  0  0  0  0  0  0
  1  2  2  0
  2  3  1  0
  3  4  1  0
  4  5  1  0
  5  6  2  0
  6  7  1  0
  7  8  2  0
  8  9  1  0
  9 10  2  0
  2 11  1  0
 11 12  2  0
 12 13  1  0
 13 14  1  0
 14 15  1  0
 15 16  1  0
 16 17  1  0
 17 18  2  0
 18 19  1  0
 19 20  2  0
 20 21  1  0
 21 22  2  0
 22 23  1  0
 13 24  2  0
 24 25  1  0
 25 26  1  0
 26 27  1  0
 27 28  1  0
 28 29  1  0
 29 30  2  0
 30 31  1  0
 31 32  2  0
 32 33  1  0
 33 34  2  0
 34 35  1  0
 25 36  2  0
 10  5  1  0
 36 11  1  0
 23 14  1  0
 35 26  1  0
 22 17  1  0
 34 29  1  0
  3 37  1  0
  4 38  1  0
  4 39  1  0
  6 40  1  0
  7 41  1  0
  9 42  1  0
 10 43  1  0
 12 44  1  0
 15 45  1  0
 15 46  1  0
 16 47  1  0
 16 48  1  0
 18 49  1  0
 19 50  1  0
 20 51  1  0
 21 52  1  0
 23 53  1  0
 23 54  1  0
 27 55  1  0
 27 56  1  0
 28 57  1  0
 28 58  1  0
 30 59  1  0
 31 60  1  0
 32 61  1  0
 33 62  1  0
 35 63  1  0
 35 64  1  0
M  END
