
     RDKit          3D

 49 52  0  0  0  0  0  0  0  0999 V2000
  142.8730   76.4340  219.8340 O   0  0  0  0  0  0  0  0  0  0  0  0
  141.9710   75.9010  220.5180 C   0  0  0  0  0  0  0  0  0  0  0  0
  142.0740   74.5460  220.7280 C   0  0  0  0  0  0  0  0  0  0  0  0
  143.1190   73.8200  220.2000 C   0  0  0  0  0  0  0  0  0  0  0  0
  143.1620   72.4830  220.4420 C   0  0  0  0  0  0  0  0  0  0  0  0
  142.1730   71.8960  221.1980 C   0  0  0  0  0  0  0  0  0  0  0  0
  141.1120   72.6130  221.7390 C   0  0  0  0  0  0  0  0  0  0  0  0
  141.0950   73.9600  221.4770 C   0  0  0  0  0  0  0  0  0  0  0  0
  140.1190   74.6970  221.9560 N   0  0  0  0  0  0  0  0  0  0  0  0
  139.9780   76.0530  221.7710 C   0  0  0  0  0  0  0  0  0  0  0  0
  138.8470   76.6350  222.4140 C   0  0  0  0  0  0  0  0  0  0  0  0
  137.9680   77.5070  222.0360 C   0  0  0  0  0  0  0  0  0  0  0  0
  138.0980   78.9630  222.2520 C   0  0  0  0  0  0  0  0  0  0  0  0
  138.0340   79.8830  221.2400 C   0  0  0  0  0  0  0  0  0  0  0  0
  138.1670   81.2450  221.5240 C   0  0  0  0  0  0  0  0  0  0  0  0
  138.3640   81.7050  222.8110 C   0  0  0  0  0  0  0  0  0  0  0  0
  138.4230   80.7700  223.7940 N   0  0  0  0  0  0  0  0  0  0  0  0
  138.2960   79.4580  223.5310 C   0  0  0  0  0  0  0  0  0  0  0  0
  140.9260   76.6330  221.0410 N   0  0  0  0  0  0  0  0  0  0  0  0
  140.9810   78.0400  220.7430 C   0  0  0  0  0  0  0  0  0  0  0  0
  141.7220   78.8950  221.7110 C   0  0  0  0  0  0  0  0  0  0  0  0
  141.4920   80.3620  221.3750 C   0  0  0  0  0  0  0  0  0  0  0  0
  141.9270   81.2650  222.4860 C   0  0  0  0  0  0  0  0  0  0  0  0
  142.8590   80.5740  223.4580 C   0  0  0  0  0  0  0  0  0  0  0  0
  142.1960   79.3860  224.1150 C   0  0  0  0  0  0  0  0  0  0  0  0
  141.3410   78.5970  223.1360 C   0  0  0  0  0  0  0  0  0  0  0  0
  143.8986   74.3096  219.5980 H   0  0  0  0  0  0  0  0  0  0  0  0
  143.9828   71.8736  220.0358 H   0  0  0  0  0  0  0  0  0  0  0  0
  142.2243   70.8127  221.3821 H   0  0  0  0  0  0  0  0  0  0  0  0
  140.3306   72.1283  222.3427 H   0  0  0  0  0  0  0  0  0  0  0  0
  138.6890   76.2691  223.4392 H   0  0  0  0  0  0  0  0  0  0  0  0
  137.0673   77.1409  221.5214 H   0  0  0  0  0  0  0  0  0  0  0  0
  137.8779   79.5501  220.2033 H   0  0  0  0  0  0  0  0  0  0  0  0
  138.1133   81.9708  220.6992 H   0  0  0  0  0  0  0  0  0  0  0  0
  138.4682   82.7780  223.0296 H   0  0  0  0  0  0  0  0  0  0  0  0
  138.3517   78.7461  224.3677 H   0  0  0  0  0  0  0  0  0  0  0  0
  141.4608   78.1550  219.7599 H   0  0  0  0  0  0  0  0  0  0  0  0
  139.9383   78.3879  220.7856 H   0  0  0  0  0  0  0  0  0  0  0  0
  142.7944   78.6675  221.6205 H   0  0  0  0  0  0  0  0  0  0  0  0
  142.0630   80.6128  220.4689 H   0  0  0  0  0  0  0  0  0  0  0  0
  140.4133   80.5103  221.2184 H   0  0  0  0  0  0  0  0  0  0  0  0
  142.4471   82.1324  222.0534 H   0  0  0  0  0  0  0  0  0  0  0  0
  141.0284   81.5708  223.0418 H   0  0  0  0  0  0  0  0  0  0  0  0
  143.7507   80.2294  222.9139 H   0  0  0  0  0  0  0  0  0  0  0  0
  143.1320   81.2938  224.2437 H   0  0  0  0  0  0  0  0  0  0  0  0
  142.9752   78.7235  224.5199 H   0  0  0  0  0  0  0  0  0  0  0  0
  141.5391   79.7621  224.9131 H   0  0  0  0  0  0  0  0  0  0  0  0
  141.4785   77.5223  223.3261 H   0  0  0  0  0  0  0  0  0  0  0  0
  140.2901   78.8876  223.2816 H   0  0  0  0  0  0  0  0  0  0  0  0
  1  2  2  0
  2  3  1  0
  3  4  2  0
  4  5  1  0
  5  6  2  0
  6  7  1  0
  7  8  2  0
  8  9  1  0
  9 10  2  0
 10 11  1  0
 11 12  2  0
 12 13  1  0
 13 14  2  0
 14 15  1  0
 15 16  2  0
 16 17  1  0
 17 18  2  0
 10 19  1  0
 19 20  1  0
 20 21  1  0
 21 22  1  0
 22 23  1  0
 23 24  1  0
 24 25  1  0
 25 26  1  0
 19  2  1  0
 26 21  1  0
  8  3  1  0
 18 13  1  0
  4 27  1  0
  5 28  1  0
  6 29  1  0
  7 30  1  0
 11 31  1  0
 12 32  1  0
 14 33  1  0
 15 34  1  0
 16 35  1  0
 18 36  1  0
 20 37  1  0
 20 38  1  0
 21 39  1  0
 22 40  1  0
 22 41  1  0
 23 42  1  0
 23 43  1  0
 24 44  1  0
 24 45  1  0
 25 46  1  0
 25 47  1  0
 26 48  1  0
 26 49  1  0
M  END
>  <smiles>  (1) 
O=c1c2ccccc2nc(/C=C/c2cccnc2)n1CC1CCCCC1

>  <score_type>  (1) 
oracle

>  <origin>  (1) 
autodockgpu

>  <m_score__min__energy>  (1) 
-7.3099999999999996

>  <m_primary>  (1) 
energy

>  <rmsd>  (1) 
7.542111904725981

>  <m_score__min__rmsd>  (1) 
7.542111904725981

>  <meeko>  (1) 
{"free_energy": -6.44, "intermolecular_energy": -7.94, "internal_energy": -1.94, "cluster_size": 15, "cluster_id": 5, "rank_in_cluster": 11}

>  <energy>  (1) 
-7.31

>  <cluster_rmsd>  (1) 
0.0

>  <cluster>  (1) 
1

$$$$

     RDKit          3D

 49 52  0  0  0  0  0  0  0  0999 V2000
  139.0810   67.7280  225.4360 O   0  0  0  0  0  0  0  0  0  0  0  0
  139.3380   68.9330  225.2140 C   0  0  0  0  0  0  0  0  0  0  0  0
  139.9890   69.6200  226.2110 C   0  0  0  0  0  0  0  0  0  0  0  0
  140.3280   69.0040  227.3960 C   0  0  0  0  0  0  0  0  0  0  0  0
  140.9690   69.7390  228.3440 C   0  0  0  0  0  0  0  0  0  0  0  0
  141.2570   71.0630  228.0990 C   0  0  0  0  0  0  0  0  0  0  0  0
  140.9220   71.6990  226.9090 C   0  0  0  0  0  0  0  0  0  0  0  0
  140.2760   70.9330  225.9720 C   0  0  0  0  0  0  0  0  0  0  0  0
  139.9290   71.4720  224.8260 N   0  0  0  0  0  0  0  0  0  0  0  0
  139.2790   70.8230  223.8030 C   0  0  0  0  0  0  0  0  0  0  0  0
  139.0340   71.6160  222.6450 C   0  0  0  0  0  0  0  0  0  0  0  0
  139.5060   72.7490  222.2350 C   0  0  0  0  0  0  0  0  0  0  0  0
  140.8400   72.9200  221.6230 C   0  0  0  0  0  0  0  0  0  0  0  0
  141.7090   71.8840  221.4110 C   0  0  0  0  0  0  0  0  0  0  0  0
  142.9560   72.1260  220.8280 C   0  0  0  0  0  0  0  0  0  0  0  0
  143.3520   73.3940  220.4520 C   0  0  0  0  0  0  0  0  0  0  0  0
  142.4690   74.4030  220.6760 N   0  0  0  0  0  0  0  0  0  0  0  0
  141.2670   74.1790  221.2350 C   0  0  0  0  0  0  0  0  0  0  0  0
  138.9930   69.5440  224.0260 N   0  0  0  0  0  0  0  0  0  0  0  0
  138.3350   68.6770  223.0840 C   0  0  0  0  0  0  0  0  0  0  0  0
  139.1990   68.0510  222.0440 C   0  0  0  0  0  0  0  0  0  0  0  0
  138.8930   66.5630  221.9560 C   0  0  0  0  0  0  0  0  0  0  0  0
  139.4750   65.9440  220.7240 C   0  0  0  0  0  0  0  0  0  0  0  0
  140.5560   66.8020  220.1050 C   0  0  0  0  0  0  0  0  0  0  0  0
  140.0240   68.1530  219.6880 C   0  0  0  0  0  0  0  0  0  0  0  0
  139.0450   68.7190  220.7040 C   0  0  0  0  0  0  0  0  0  0  0  0
  140.0865   67.9452  227.5708 H   0  0  0  0  0  0  0  0  0  0  0  0
  141.2557   69.2784  229.3009 H   0  0  0  0  0  0  0  0  0  0  0  0
  141.7742   71.6422  228.8781 H   0  0  0  0  0  0  0  0  0  0  0  0
  141.1615   72.7574  226.7288 H   0  0  0  0  0  0  0  0  0  0  0  0
  138.2936   71.1760  221.9608 H   0  0  0  0  0  0  0  0  0  0  0  0
  138.8737   73.6418  222.3494 H   0  0  0  0  0  0  0  0  0  0  0  0
  141.4260   70.8609  221.6995 H   0  0  0  0  0  0  0  0  0  0  0  0
  143.6418   71.2817  220.6640 H   0  0  0  0  0  0  0  0  0  0  0  0
  144.3346   73.5789  219.9933 H   0  0  0  0  0  0  0  0  0  0  0  0
  140.5926   75.0339  221.3912 H   0  0  0  0  0  0  0  0  0  0  0  0
  137.8559   67.8667  223.6531 H   0  0  0  0  0  0  0  0  0  0  0  0
  137.6352   69.3222  222.5327 H   0  0  0  0  0  0  0  0  0  0  0  0
  140.2493   68.1865  222.3414 H   0  0  0  0  0  0  0  0  0  0  0  0
  139.3145   66.0607  222.8392 H   0  0  0  0  0  0  0  0  0  0  0  0
  137.8005   66.4422  221.9139 H   0  0  0  0  0  0  0  0  0  0  0  0
  139.9070   64.9677  220.9891 H   0  0  0  0  0  0  0  0  0  0  0  0
  138.6658   65.8389  219.9863 H   0  0  0  0  0  0  0  0  0  0  0  0
  141.3612   66.9470  220.8402 H   0  0  0  0  0  0  0  0  0  0  0  0
  140.9309   66.2882  219.2075 H   0  0  0  0  0  0  0  0  0  0  0  0
  140.8685   68.8499  219.5825 H   0  0  0  0  0  0  0  0  0  0  0  0
  139.4893   68.0277  218.7349 H   0  0  0  0  0  0  0  0  0  0  0  0
  139.2304   69.7973  220.8179 H   0  0  0  0  0  0  0  0  0  0  0  0
  138.0231   68.5357  220.3404 H   0  0  0  0  0  0  0  0  0  0  0  0
  1  2  2  0
  2  3  1  0
  3  4  2  0
  4  5  1  0
  5  6  2  0
  6  7  1  0
  7  8  2  0
  8  9  1  0
  9 10  2  0
 10 11  1  0
 11 12  2  0
 12 13  1  0
 13 14  2  0
 14 15  1  0
 15 16  2  0
 16 17  1  0
 17 18  2  0
 10 19  1  0
 19 20  1  0
 20 21  1  0
 21 22  1  0
 22 23  1  0
 23 24  1  0
 24 25  1  0
 25 26  1  0
 19  2  1  0
 26 21  1  0
  8  3  1  0
 18 13  1  0
  4 27  1  0
  5 28  1  0
  6 29  1  0
  7 30  1  0
 11 31  1  0
 12 32  1  0
 14 33  1  0
 15 34  1  0
 16 35  1  0
 18 36  1  0
 20 37  1  0
 20 38  1  0
 21 39  1  0
 22 40  1  0
 22 41  1  0
 23 42  1  0
 23 43  1  0
 24 44  1  0
 24 45  1  0
 25 46  1  0
 25 47  1  0
 26 48  1  0
 26 49  1  0
M  END
>  <smiles>  (2) 
O=c1c2ccccc2nc(/C=C/c2cccnc2)n1CC1CCCCC1

>  <score_type>  (2) 
oracle

>  <origin>  (2) 
autodockgpu

>  <m_score__min__energy>  (2) 
-7.3099999999999996

>  <m_primary>  (2) 
energy

>  <rmsd>  (2) 
11.72900890813616

>  <m_score__min__rmsd>  (2) 
11.72900890813616

>  <meeko>  (2) 
{"free_energy": -7.05, "intermolecular_energy": -8.54, "internal_energy": -1.44, "cluster_size": 8, "cluster_id": 1, "rank_in_cluster": 6}

>  <energy>  (2) 
-7.28

>  <cluster_rmsd>  (2) 
0.12

>  <cluster>  (2) 
1

$$$$

     RDKit          3D

 49 52  0  0  0  0  0  0  0  0999 V2000
  140.5340   74.4990  221.9750 O   0  0  0  0  0  0  0  0  0  0  0  0
  141.3730   75.0370  221.2180 C   0  0  0  0  0  0  0  0  0  0  0  0
  142.4160   74.2500  220.7920 C   0  0  0  0  0  0  0  0  0  0  0  0
  142.5270   72.9370  221.1920 C   0  0  0  0  0  0  0  0  0  0  0  0
  143.5840   72.2110  220.7380 C   0  0  0  0  0  0  0  0  0  0  0  0
  144.5040   72.8010  219.9010 C   0  0  0  0  0  0  0  0  0  0  0  0
  144.4070   74.1240  219.4870 C   0  0  0  0  0  0  0  0  0  0  0  0
  143.3310   74.8300  219.9620 C   0  0  0  0  0  0  0  0  0  0  0  0
  143.1790   76.0870  219.6120 N   0  0  0  0  0  0  0  0  0  0  0  0
  142.1530   76.9100  220.0130 C   0  0  0  0  0  0  0  0  0  0  0  0
  142.1910   78.2290  219.4760 C   0  0  0  0  0  0  0  0  0  0  0  0
  141.2690   79.0580  219.1030 C   0  0  0  0  0  0  0  0  0  0  0  0
  140.9620   80.3250  219.7970 C   0  0  0  0  0  0  0  0  0  0  0  0
  139.7700   80.9850  219.6670 C   0  0  0  0  0  0  0  0  0  0  0  0
  139.5540   82.1820  220.3560 C   0  0  0  0  0  0  0  0  0  0  0  0
  140.5170   82.7330  221.1790 C   0  0  0  0  0  0  0  0  0  0  0  0
  141.6900   82.0560  221.2880 N   0  0  0  0  0  0  0  0  0  0  0  0
  141.9060   80.9050  220.6300 C   0  0  0  0  0  0  0  0  0  0  0  0
  141.2560   76.3540  220.8230 N   0  0  0  0  0  0  0  0  0  0  0  0
  140.0960   77.0280  221.3430 C   0  0  0  0  0  0  0  0  0  0  0  0
  140.3470   78.2710  222.1260 C   0  0  0  0  0  0  0  0  0  0  0  0
  139.0560   78.7180  222.7960 C   0  0  0  0  0  0  0  0  0  0  0  0
  139.3030   79.7530  223.8490 C   0  0  0  0  0  0  0  0  0  0  0  0
  140.6590   80.4080  223.7060 C   0  0  0  0  0  0  0  0  0  0  0  0
  141.7790   79.4020  223.8320 C   0  0  0  0  0  0  0  0  0  0  0  0
  141.4510   78.0930  223.1330 C   0  0  0  0  0  0  0  0  0  0  0  0
  141.7797   72.4866  221.8618 H   0  0  0  0  0  0  0  0  0  0  0  0
  143.7028   71.1593  221.0378 H   0  0  0  0  0  0  0  0  0  0  0  0
  145.3528   72.1990  219.5444 H   0  0  0  0  0  0  0  0  0  0  0  0
  145.1508   74.5793  218.8165 H   0  0  0  0  0  0  0  0  0  0  0  0
  143.2106   78.6232  219.3534 H   0  0  0  0  0  0  0  0  0  0  0  0
  140.6764   78.8023  218.2122 H   0  0  0  0  0  0  0  0  0  0  0  0
  138.9815   80.5733  219.0200 H   0  0  0  0  0  0  0  0  0  0  0  0
  138.5904   82.6996  220.2396 H   0  0  0  0  0  0  0  0  0  0  0  0
  140.3426   83.6747  221.7201 H   0  0  0  0  0  0  0  0  0  0  0  0
  142.8750   80.4003  220.7579 H   0  0  0  0  0  0  0  0  0  0  0  0
  139.4531   77.2934  220.4908 H   0  0  0  0  0  0  0  0  0  0  0  0
  139.6419   76.3218  222.0537 H   0  0  0  0  0  0  0  0  0  0  0  0
  140.6839   79.0544  221.4312 H   0  0  0  0  0  0  0  0  0  0  0  0
  138.3867   79.1405  222.0321 H   0  0  0  0  0  0  0  0  0  0  0  0
  138.6016   77.8409  223.2800 H   0  0  0  0  0  0  0  0  0  0  0  0
  138.5263   80.5281  223.7718 H   0  0  0  0  0  0  0  0  0  0  0  0
  139.2745   79.2503  224.8270 H   0  0  0  0  0  0  0  0  0  0  0  0
  140.7207   80.8890  222.7187 H   0  0  0  0  0  0  0  0  0  0  0  0
  140.7698   81.1487  224.5116 H   0  0  0  0  0  0  0  0  0  0  0  0
  142.6892   79.8260  223.3827 H   0  0  0  0  0  0  0  0  0  0  0  0
  141.9248   79.1886  224.9012 H   0  0  0  0  0  0  0  0  0  0  0  0
  142.3510   77.7274  222.6168 H   0  0  0  0  0  0  0  0  0  0  0  0
  141.1155   77.3699  223.8910 H   0  0  0  0  0  0  0  0  0  0  0  0
  1  2  2  0
  2  3  1  0
  3  4  2  0
  4  5  1  0
  5  6  2  0
  6  7  1  0
  7  8  2  0
  8  9  1  0
  9 10  2  0
 10 11  1  0
 11 12  2  0
 12 13  1  0
 13 14  2  0
 14 15  1  0
 15 16  2  0
 16 17  1  0
 17 18  2  0
 10 19  1  0
 19 20  1  0
 20 21  1  0
 21 22  1  0
 22 23  1  0
 23 24  1  0
 24 25  1  0
 25 26  1  0
 19  2  1  0
 26 21  1  0
  8  3  1  0
 18 13  1  0
  4 27  1  0
  5 28  1  0
  6 29  1  0
  7 30  1  0
 11 31  1  0
 12 32  1  0
 14 33  1  0
 15 34  1  0
 16 35  1  0
 18 36  1  0
 20 37  1  0
 20 38  1  0
 21 39  1  0
 22 40  1  0
 22 41  1  0
 23 42  1  0
 23 43  1  0
 24 44  1  0
 24 45  1  0
 25 46  1  0
 25 47  1  0
 26 48  1  0
 26 49  1  0
M  END
>  <smiles>  (3) 
O=c1c2ccccc2nc(/C=C/c2cccnc2)n1CC1CCCCC1

>  <score_type>  (3) 
oracle

>  <origin>  (3) 
autodockgpu

>  <m_score__min__energy>  (3) 
-7.3099999999999996

>  <m_primary>  (3) 
energy

>  <rmsd>  (3) 
7.8042414489698375

>  <m_score__min__rmsd>  (3) 
7.8042414489698375

>  <meeko>  (3) 
{"free_energy": -6.41, "intermolecular_energy": -7.9, "internal_energy": -1.89, "cluster_size": 8, "cluster_id": 4, "rank_in_cluster": 7}

>  <energy>  (3) 
-7.23

>  <cluster_rmsd>  (3) 
0.36

>  <cluster>  (3) 
1

$$$$

     RDKit          3D

 49 52  0  0  0  0  0  0  0  0999 V2000
  140.6030   71.8570  225.2870 O   0  0  0  0  0  0  0  0  0  0  0  0
  139.9510   70.7880  225.2780 C   0  0  0  0  0  0  0  0  0  0  0  0
  140.1700   69.9210  226.3230 C   0  0  0  0  0  0  0  0  0  0  0  0
  141.0710   70.2210  227.3200 C   0  0  0  0  0  0  0  0  0  0  0  0
  141.2450   69.3210  228.3250 C   0  0  0  0  0  0  0  0  0  0  0  0
  140.5250   68.1480  228.3180 C   0  0  0  0  0  0  0  0  0  0  0  0
  139.6120   67.8290  227.3200 C   0  0  0  0  0  0  0  0  0  0  0  0
  139.4590   68.7560  226.3200 C   0  0  0  0  0  0  0  0  0  0  0  0
  138.6140   68.5180  225.3430 N   0  0  0  0  0  0  0  0  0  0  0  0
  138.3630   69.3550  224.2820 C   0  0  0  0  0  0  0  0  0  0  0  0
  137.3810   68.8870  223.3620 C   0  0  0  0  0  0  0  0  0  0  0  0
  136.0860   68.8900  223.3750 C   0  0  0  0  0  0  0  0  0  0  0  0
  135.2690   69.4530  224.4710 C   0  0  0  0  0  0  0  0  0  0  0  0
  135.1140   70.7970  224.6810 C   0  0  0  0  0  0  0  0  0  0  0  0
  134.3250   71.2520  225.7410 C   0  0  0  0  0  0  0  0  0  0  0  0
  133.6850   70.3800  226.6000 C   0  0  0  0  0  0  0  0  0  0  0  0
  133.8590   69.0530  226.3680 N   0  0  0  0  0  0  0  0  0  0  0  0
  134.6150   68.6060  225.3510 C   0  0  0  0  0  0  0  0  0  0  0  0
  139.0520   70.4920  224.2740 N   0  0  0  0  0  0  0  0  0  0  0  0
  138.9300   71.5160  223.2690 C   0  0  0  0  0  0  0  0  0  0  0  0
  140.1470   71.7970  222.4570 C   0  0  0  0  0  0  0  0  0  0  0  0
  140.2440   70.7880  221.3220 C   0  0  0  0  0  0  0  0  0  0  0  0
  141.2420   71.2060  220.2870 C   0  0  0  0  0  0  0  0  0  0  0  0
  142.1980   72.2590  220.8020 C   0  0  0  0  0  0  0  0  0  0  0  0
  141.4700   73.5160  221.2180 C   0  0  0  0  0  0  0  0  0  0  0  0
  140.1660   73.2080  221.9350 C   0  0  0  0  0  0  0  0  0  0  0  0
  141.6359   71.1647  227.3042 H   0  0  0  0  0  0  0  0  0  0  0  0
  141.9563   69.5292  229.1378 H   0  0  0  0  0  0  0  0  0  0  0  0
  140.6790   67.4316  229.1384 H   0  0  0  0  0  0  0  0  0  0  0  0
  139.0443   66.8869  227.3311 H   0  0  0  0  0  0  0  0  0  0  0  0
  137.8095   68.4307  222.4575 H   0  0  0  0  0  0  0  0  0  0  0  0
  135.5609   68.4457  222.5166 H   0  0  0  0  0  0  0  0  0  0  0  0
  135.6104   71.5186  224.0155 H   0  0  0  0  0  0  0  0  0  0  0  0
  134.2104   72.3350  225.8956 H   0  0  0  0  0  0  0  0  0  0  0  0
  133.0640   70.7429  227.4323 H   0  0  0  0  0  0  0  0  0  0  0  0
  134.7192   67.5199  225.2110 H   0  0  0  0  0  0  0  0  0  0  0  0
  138.1296   71.2128  222.5780 H   0  0  0  0  0  0  0  0  0  0  0  0
  138.7275   72.4450  223.8222 H   0  0  0  0  0  0  0  0  0  0  0  0
  141.0275   71.6946  223.1083 H   0  0  0  0  0  0  0  0  0  0  0  0
  140.5474   69.8151  221.7361 H   0  0  0  0  0  0  0  0  0  0  0  0
  139.2582   70.7232  220.8384 H   0  0  0  0  0  0  0  0  0  0  0  0
  141.8213   70.3235  219.9777 H   0  0  0  0  0  0  0  0  0  0  0  0
  140.6878   71.6399  219.4417 H   0  0  0  0  0  0  0  0  0  0  0  0
  142.7389   71.8557  221.6708 H   0  0  0  0  0  0  0  0  0  0  0  0
  142.8945   72.5175  219.9907 H   0  0  0  0  0  0  0  0  0  0  0  0
  142.1180   74.0949  221.8925 H   0  0  0  0  0  0  0  0  0  0  0  0
  141.2310   74.0869  220.3086 H   0  0  0  0  0  0  0  0  0  0  0  0
  140.0486   73.9036  222.7791 H   0  0  0  0  0  0  0  0  0  0  0  0
  139.3405   73.3229  221.2171 H   0  0  0  0  0  0  0  0  0  0  0  0
  1  2  2  0
  2  3  1  0
  3  4  2  0
  4  5  1  0
  5  6  2  0
  6  7  1  0
  7  8  2  0
  8  9  1  0
  9 10  2  0
 10 11  1  0
 11 12  2  0
 12 13  1  0
 13 14  2  0
 14 15  1  0
 15 16  2  0
 16 17  1  0
 17 18  2  0
 10 19  1  0
 19 20  1  0
 20 21  1  0
 21 22  1  0
 22 23  1  0
 23 24  1  0
 24 25  1  0
 25 26  1  0
 19  2  1  0
 26 21  1  0
  8  3  1  0
 18 13  1  0
  4 27  1  0
  5 28  1  0
  6 29  1  0
  7 30  1  0
 11 31  1  0
 12 32  1  0
 14 33  1  0
 15 34  1  0
 16 35  1  0
 18 36  1  0
 20 37  1  0
 20 38  1  0
 21 39  1  0
 22 40  1  0
 22 41  1  0
 23 42  1  0
 23 43  1  0
 24 44  1  0
 24 45  1  0
 25 46  1  0
 25 47  1  0
 26 48  1  0
 26 49  1  0
M  END
>  <smiles>  (4) 
O=c1c2ccccc2nc(/C=C/c2cccnc2)n1CC1CCCCC1

>  <score_type>  (4) 
oracle

>  <origin>  (4) 
autodockgpu

>  <m_score__min__energy>  (4) 
-7.3099999999999996

>  <m_primary>  (4) 
energy

>  <rmsd>  (4) 
10.728147492019312

>  <m_score__min__rmsd>  (4) 
10.728147492019312

>  <meeko>  (4) 
{"free_energy": -7.24, "intermolecular_energy": -8.73, "internal_energy": -1.38, "cluster_size": 16, "cluster_id": 2, "rank_in_cluster": 1}

>  <energy>  (4) 
-7.13

>  <cluster_rmsd>  (4) 
0.72

>  <cluster>  (4) 
1

$$$$

     RDKit          3D

 49 52  0  0  0  0  0  0  0  0999 V2000
  142.8890   76.4180  219.8660 O   0  0  0  0  0  0  0  0  0  0  0  0
  141.9840   75.8770  220.5410 C   0  0  0  0  0  0  0  0  0  0  0  0
  142.0910   74.5210  220.7440 C   0  0  0  0  0  0  0  0  0  0  0  0
  143.1420   73.8030  220.2180 C   0  0  0  0  0  0  0  0  0  0  0  0
  143.1900   72.4640  220.4520 C   0  0  0  0  0  0  0  0  0  0  0  0
  142.1980   71.8690  221.1980 C   0  0  0  0  0  0  0  0  0  0  0  0
  141.1300   72.5780  221.7360 C   0  0  0  0  0  0  0  0  0  0  0  0
  141.1090   73.9260  221.4830 C   0  0  0  0  0  0  0  0  0  0  0  0
  140.1280   74.6570  221.9600 N   0  0  0  0  0  0  0  0  0  0  0  0
  139.9820   76.0130  221.7820 C   0  0  0  0  0  0  0  0  0  0  0  0
  138.8450   76.5870  222.4220 C   0  0  0  0  0  0  0  0  0  0  0  0
  137.9680   77.4620  222.0450 C   0  0  0  0  0  0  0  0  0  0  0  0
  138.1060   78.9180  222.2540 C   0  0  0  0  0  0  0  0  0  0  0  0
  138.0780   79.8310  221.2340 C   0  0  0  0  0  0  0  0  0  0  0  0
  138.2160   81.1940  221.5110 C   0  0  0  0  0  0  0  0  0  0  0  0
  138.3840   81.6620  222.8000 C   0  0  0  0  0  0  0  0  0  0  0  0
  138.4080   80.7330  223.7910 N   0  0  0  0  0  0  0  0  0  0  0  0
  138.2750   79.4210  223.5340 C   0  0  0  0  0  0  0  0  0  0  0  0
  140.9320   76.6020  221.0620 N   0  0  0  0  0  0  0  0  0  0  0  0
  140.9840   78.0110  220.7720 C   0  0  0  0  0  0  0  0  0  0  0  0
  141.7340   78.8600  221.7400 C   0  0  0  0  0  0  0  0  0  0  0  0
  141.5370   80.3270  221.3880 C   0  0  0  0  0  0  0  0  0  0  0  0
  141.9810   81.2320  222.4950 C   0  0  0  0  0  0  0  0  0  0  0  0
  142.8910   80.5310  223.4800 C   0  0  0  0  0  0  0  0  0  0  0  0
  142.1990   79.3630  224.1420 C   0  0  0  0  0  0  0  0  0  0  0  0
  141.3360   78.5820  223.1640 C   0  0  0  0  0  0  0  0  0  0  0  0
  143.9229   74.2999  219.6236 H   0  0  0  0  0  0  0  0  0  0  0  0
  144.0161   71.8606  220.0477 H   0  0  0  0  0  0  0  0  0  0  0  0
  142.2527   70.7849  221.3763 H   0  0  0  0  0  0  0  0  0  0  0  0
  140.3463   72.0859  222.3308 H   0  0  0  0  0  0  0  0  0  0  0  0
  138.6790   76.2107  223.4422 H   0  0  0  0  0  0  0  0  0  0  0  0
  137.0628   77.0981  221.5369 H   0  0  0  0  0  0  0  0  0  0  0  0
  137.9468   79.4916  220.1959 H   0  0  0  0  0  0  0  0  0  0  0  0
  138.1901   81.9140  220.6798 H   0  0  0  0  0  0  0  0  0  0  0  0
  138.4931   82.7355  223.0137 H   0  0  0  0  0  0  0  0  0  0  0  0
  138.3014   78.7149  224.3770 H   0  0  0  0  0  0  0  0  0  0  0  0
  141.4552   78.1324  219.7855 H   0  0  0  0  0  0  0  0  0  0  0  0
  139.9417   78.3587  220.8252 H   0  0  0  0  0  0  0  0  0  0  0  0
  142.8024   78.6104  221.6620 H   0  0  0  0  0  0  0  0  0  0  0  0
  142.1209   80.5573  220.4847 H   0  0  0  0  0  0  0  0  0  0  0  0
  140.4631   80.4957  221.2202 H   0  0  0  0  0  0  0  0  0  0  0  0
  142.5217   82.0850  222.0591 H   0  0  0  0  0  0  0  0  0  0  0  0
  141.0844   81.5610  223.0407 H   0  0  0  0  0  0  0  0  0  0  0  0
  143.7796   80.1635  222.9459 H   0  0  0  0  0  0  0  0  0  0  0  0
  143.1727   81.2520  224.2615 H   0  0  0  0  0  0  0  0  0  0  0  0
  142.9615   78.6888  224.5593 H   0  0  0  0  0  0  0  0  0  0  0  0
  141.5433   79.7600  224.9310 H   0  0  0  0  0  0  0  0  0  0  0  0
  141.4509   77.5066  223.3646 H   0  0  0  0  0  0  0  0  0  0  0  0
  140.2898   78.8938  223.2990 H   0  0  0  0  0  0  0  0  0  0  0  0
  1  2  2  0
  2  3  1  0
  3  4  2  0
  4  5  1  0
  5  6  2  0
  6  7  1  0
  7  8  2  0
  8  9  1  0
  9 10  2  0
 10 11  1  0
 11 12  2  0
 12 13  1  0
 13 14  2  0
 14 15  1  0
 15 16  2  0
 16 17  1  0
 17 18  2  0
 10 19  1  0
 19 20  1  0
 20 21  1  0
 21 22  1  0
 22 23  1  0
 23 24  1  0
 24 25  1  0
 25 26  1  0
 19  2  1  0
 26 21  1  0
  8  3  1  0
 18 13  1  0
  4 27  1  0
  5 28  1  0
  6 29  1  0
  7 30  1  0
 11 31  1  0
 12 32  1  0
 14 33  1  0
 15 34  1  0
 16 35  1  0
 18 36  1  0
 20 37  1  0
 20 38  1  0
 21 39  1  0
 22 40  1  0
 22 41  1  0
 23 42  1  0
 23 43  1  0
 24 44  1  0
 24 45  1  0
 25 46  1  0
 25 47  1  0
 26 48  1  0
 26 49  1  0
M  END
>  <smiles>  (5) 
O=c1c2ccccc2nc(/C=C/c2cccnc2)n1CC1CCCCC1

>  <score_type>  (5) 
oracle

>  <origin>  (5) 
autodockgpu

>  <m_score__min__energy>  (5) 
-7.3099999999999996

>  <m_primary>  (5) 
energy

>  <rmsd>  (5) 
7.554968302741319

>  <m_score__min__rmsd>  (5) 
7.554968302741319

>  <meeko>  (5) 
{"free_energy": -6.44, "intermolecular_energy": -7.93, "internal_energy": -1.95, "cluster_size": 15, "cluster_id": 5, "rank_in_cluster": 14}

>  <energy>  (5) 
-7.09

>  <cluster_rmsd>  (5) 
0.74

>  <cluster>  (5) 
1

$$$$

     RDKit          3D

 49 52  0  0  0  0  0  0  0  0999 V2000
  140.5930   71.8490  225.3120 O   0  0  0  0  0  0  0  0  0  0  0  0
  139.9480   70.7760  225.3020 C   0  0  0  0  0  0  0  0  0  0  0  0
  140.1700   69.9120  226.3480 C   0  0  0  0  0  0  0  0  0  0  0  0
  141.0660   70.2190  227.3480 C   0  0  0  0  0  0  0  0  0  0  0  0
  141.2420   69.3220  228.3550 C   0  0  0  0  0  0  0  0  0  0  0  0
  140.5300   68.1440  228.3480 C   0  0  0  0  0  0  0  0  0  0  0  0
  139.6220   67.8180  227.3470 C   0  0  0  0  0  0  0  0  0  0  0  0
  139.4660   68.7420  226.3450 C   0  0  0  0  0  0  0  0  0  0  0  0
  138.6250   68.4970  225.3660 N   0  0  0  0  0  0  0  0  0  0  0  0
  138.3730   69.3310  224.3030 C   0  0  0  0  0  0  0  0  0  0  0  0
  137.3960   68.8550  223.3810 C   0  0  0  0  0  0  0  0  0  0  0  0
  136.1050   68.9400  223.3410 C   0  0  0  0  0  0  0  0  0  0  0  0
  135.2750   69.4960  224.4300 C   0  0  0  0  0  0  0  0  0  0  0  0
  135.0970   70.8380  224.6310 C   0  0  0  0  0  0  0  0  0  0  0  0
  134.2970   71.2870  225.6860 C   0  0  0  0  0  0  0  0  0  0  0  0
  133.6700   70.4110  226.5490 C   0  0  0  0  0  0  0  0  0  0  0  0
  133.8650   69.0850  226.3250 N   0  0  0  0  0  0  0  0  0  0  0  0
  134.6320   68.6440  225.3130 C   0  0  0  0  0  0  0  0  0  0  0  0
  139.0540   70.4730  224.2960 N   0  0  0  0  0  0  0  0  0  0  0  0
  138.9280   71.4940  223.2890 C   0  0  0  0  0  0  0  0  0  0  0  0
  140.1360   71.7590  222.4580 C   0  0  0  0  0  0  0  0  0  0  0  0
  140.1970   70.7570  221.3150 C   0  0  0  0  0  0  0  0  0  0  0  0
  141.1840   71.1640  220.2660 C   0  0  0  0  0  0  0  0  0  0  0  0
  142.1680   72.1960  220.7720 C   0  0  0  0  0  0  0  0  0  0  0  0
  141.4690   73.4630  221.2080 C   0  0  0  0  0  0  0  0  0  0  0  0
  140.1720   73.1730  221.9460 C   0  0  0  0  0  0  0  0  0  0  0  0
  141.6253   71.1661  227.3326 H   0  0  0  0  0  0  0  0  0  0  0  0
  141.9490   69.5365  229.1700 H   0  0  0  0  0  0  0  0  0  0  0  0
  140.6862   67.4298  229.1699 H   0  0  0  0  0  0  0  0  0  0  0  0
  139.0602   66.8723  227.3578 H   0  0  0  0  0  0  0  0  0  0  0  0
  137.8260   68.3040  222.5316 H   0  0  0  0  0  0  0  0  0  0  0  0
  135.5928   68.5750  222.4385 H   0  0  0  0  0  0  0  0  0  0  0  0
  135.5835   71.5635  223.9624 H   0  0  0  0  0  0  0  0  0  0  0  0
  134.1635   72.3690  225.8325 H   0  0  0  0  0  0  0  0  0  0  0  0
  133.0425   70.7692  227.3784 H   0  0  0  0  0  0  0  0  0  0  0  0
  134.7545   67.5589  225.1802 H   0  0  0  0  0  0  0  0  0  0  0  0
  138.1144   71.1966  222.6111 H   0  0  0  0  0  0  0  0  0  0  0  0
  138.7434   72.4272  223.8413 H   0  0  0  0  0  0  0  0  0  0  0  0
  141.0251   71.6358  223.0938 H   0  0  0  0  0  0  0  0  0  0  0  0
  140.4904   69.7762  221.7175 H   0  0  0  0  0  0  0  0  0  0  0  0
  139.2023   70.7132  220.8475 H   0  0  0  0  0  0  0  0  0  0  0  0
  141.7416   70.2734  219.9406 H   0  0  0  0  0  0  0  0  0  0  0  0
  140.6234   71.6139  219.4333 H   0  0  0  0  0  0  0  0  0  0  0  0
  142.7157   71.7772  221.6291 H   0  0  0  0  0  0  0  0  0  0  0  0
  142.8562   72.4472  219.9515 H   0  0  0  0  0  0  0  0  0  0  0  0
  142.1384   74.0265  221.8745 H   0  0  0  0  0  0  0  0  0  0  0  0
  141.2242   74.0434  220.3062 H   0  0  0  0  0  0  0  0  0  0  0  0
  140.0823   73.8641  222.7970 H   0  0  0  0  0  0  0  0  0  0  0  0
  139.3364   73.3081  221.2435 H   0  0  0  0  0  0  0  0  0  0  0  0
  1  2  2  0
  2  3  1  0
  3  4  2  0
  4  5  1  0
  5  6  2  0
  6  7  1  0
  7  8  2  0
  8  9  1  0
  9 10  2  0
 10 11  1  0
 11 12  2  0
 12 13  1  0
 13 14  2  0
 14 15  1  0
 15 16  2  0
 16 17  1  0
 17 18  2  0
 10 19  1  0
 19 20  1  0
 20 21  1  0
 21 22  1  0
 22 23  1  0
 23 24  1  0
 24 25  1  0
 25 26  1  0
 19  2  1  0
 26 21  1  0
  8  3  1  0
 18 13  1  0
  4 27  1  0
  5 28  1  0
  6 29  1  0
  7 30  1  0
 11 31  1  0
 12 32  1  0
 14 33  1  0
 15 34  1  0
 16 35  1  0
 18 36  1  0
 20 37  1  0
 20 38  1  0
 21 39  1  0
 22 40  1  0
 22 41  1  0
 23 42  1  0
 23 43  1  0
 24 44  1  0
 24 45  1  0
 25 46  1  0
 25 47  1  0
 26 48  1  0
 26 49  1  0
M  END
>  <smiles>  (6) 
O=c1c2ccccc2nc(/C=C/c2cccnc2)n1CC1CCCCC1

>  <score_type>  (6) 
oracle

>  <origin>  (6) 
autodockgpu

>  <m_score__min__energy>  (6) 
-7.3099999999999996

>  <m_primary>  (6) 
energy

>  <rmsd>  (6) 
10.745192610626187

>  <m_score__min__rmsd>  (6) 
10.745192610626187

>  <meeko>  (6) 
{"free_energy": -7.21, "intermolecular_energy": -8.7, "internal_energy": -1.39, "cluster_size": 16, "cluster_id": 2, "rank_in_cluster": 13}

>  <energy>  (6) 
-7.05

>  <cluster_rmsd>  (6) 
1.63

>  <cluster>  (6) 
1

$$$$

     RDKit          3D

 49 52  0  0  0  0  0  0  0  0999 V2000
  139.2290   67.4170  225.4940 O   0  0  0  0  0  0  0  0  0  0  0  0
  139.5200   68.5890  225.1640 C   0  0  0  0  0  0  0  0  0  0  0  0
  140.0410   69.3960  226.1470 C   0  0  0  0  0  0  0  0  0  0  0  0
  140.2210   68.9300  227.4310 C   0  0  0  0  0  0  0  0  0  0  0  0
  140.7390   69.7790  228.3590 C   0  0  0  0  0  0  0  0  0  0  0  0
  141.0640   71.0660  227.9960 C   0  0  0  0  0  0  0  0  0  0  0  0
  140.8890   71.5530  226.7060 C   0  0  0  0  0  0  0  0  0  0  0  0
  140.3640   70.6740  225.7920 C   0  0  0  0  0  0  0  0  0  0  0  0
  140.1700   71.0690  224.5550 N   0  0  0  0  0  0  0  0  0  0  0  0
  139.6540   70.2960  223.5410 C   0  0  0  0  0  0  0  0  0  0  0  0
  139.5640   70.9430  222.2750 C   0  0  0  0  0  0  0  0  0  0  0  0
  140.4460   71.4780  221.4920 C   0  0  0  0  0  0  0  0  0  0  0  0
  140.7130   72.9290  221.4130 C   0  0  0  0  0  0  0  0  0  0  0  0
  141.7930   73.4610  220.7610 C   0  0  0  0  0  0  0  0  0  0  0  0
  141.9780   74.8470  220.7300 C   0  0  0  0  0  0  0  0  0  0  0  0
  141.0960   75.7140  221.3450 C   0  0  0  0  0  0  0  0  0  0  0  0
  140.0340   75.1570  221.9840 N   0  0  0  0  0  0  0  0  0  0  0  0
  139.8480   73.8260  222.0180 C   0  0  0  0  0  0  0  0  0  0  0  0
  139.3340   69.0500  223.8770 N   0  0  0  0  0  0  0  0  0  0  0  0
  138.7980   68.0700  222.9690 C   0  0  0  0  0  0  0  0  0  0  0  0
  137.4280   68.3310  222.4460 C   0  0  0  0  0  0  0  0  0  0  0  0
  136.8350   67.0370  221.9070 C   0  0  0  0  0  0  0  0  0  0  0  0
  135.3610   67.1510  221.6750 C   0  0  0  0  0  0  0  0  0  0  0  0
  134.8980   68.5910  221.6110 C   0  0  0  0  0  0  0  0  0  0  0  0
  135.1810   69.3230  222.9010 C   0  0  0  0  0  0  0  0  0  0  0  0
  136.5330   68.9490  223.4860 C   0  0  0  0  0  0  0  0  0  0  0  0
  139.9526   67.8974  227.6989 H   0  0  0  0  0  0  0  0  0  0  0  0
  140.8971   69.4389  229.3931 H   0  0  0  0  0  0  0  0  0  0  0  0
  141.4805   71.7387  228.7602 H   0  0  0  0  0  0  0  0  0  0  0  0
  141.1562   72.5846  226.4331 H   0  0  0  0  0  0  0  0  0  0  0  0
  138.5377   70.9996  221.8832 H   0  0  0  0  0  0  0  0  0  0  0  0
  141.0334   70.8100  220.8450 H   0  0  0  0  0  0  0  0  0  0  0  0
  142.5152   72.7984  220.2616 H   0  0  0  0  0  0  0  0  0  0  0  0
  142.8504   75.2581  220.2010 H   0  0  0  0  0  0  0  0  0  0  0  0
  141.2461   76.8034  221.3188 H   0  0  0  0  0  0  0  0  0  0  0  0
  138.9697   73.4316  222.5500 H   0  0  0  0  0  0  0  0  0  0  0  0
  139.4784   68.0048  222.1072 H   0  0  0  0  0  0  0  0  0  0  0  0
  138.7152   67.1429  223.5552 H   0  0  0  0  0  0  0  0  0  0  0  0
  137.5048   69.0621  221.6277 H   0  0  0  0  0  0  0  0  0  0  0  0
  137.3266   66.7906  220.9543 H   0  0  0  0  0  0  0  0  0  0  0  0
  137.0016   66.2486  222.6557 H   0  0  0  0  0  0  0  0  0  0  0  0
  135.1136   66.6575  220.7236 H   0  0  0  0  0  0  0  0  0  0  0  0
  134.8494   66.6709  222.5222 H   0  0  0  0  0  0  0  0  0  0  0  0
  135.4240   69.0991  220.7893 H   0  0  0  0  0  0  0  0  0  0  0  0
  133.8108   68.5961  221.4436 H   0  0  0  0  0  0  0  0  0  0  0  0
  135.1664   70.4053  222.7052 H   0  0  0  0  0  0  0  0  0  0  0  0
  134.4067   69.0385  223.6287 H   0  0  0  0  0  0  0  0  0  0  0  0
  137.0155   69.8553  223.8808 H   0  0  0  0  0  0  0  0  0  0  0  0
  136.3724   68.2125  224.2871 H   0  0  0  0  0  0  0  0  0  0  0  0
  1  2  2  0
  2  3  1  0
  3  4  2  0
  4  5  1  0
  5  6  2  0
  6  7  1  0
  7  8  2  0
  8  9  1  0
  9 10  2  0
 10 11  1  0
 11 12  2  0
 12 13  1  0
 13 14  2  0
 14 15  1  0
 15 16  2  0
 16 17  1  0
 17 18  2  0
 10 19  1  0
 19 20  1  0
 20 21  1  0
 21 22  1  0
 22 23  1  0
 23 24  1  0
 24 25  1  0
 25 26  1  0
 19  2  1  0
 26 21  1  0
  8  3  1  0
 18 13  1  0
  4 27  1  0
  5 28  1  0
  6 29  1  0
  7 30  1  0
 11 31  1  0
 12 32  1  0
 14 33  1  0
 15 34  1  0
 16 35  1  0
 18 36  1  0
 20 37  1  0
 20 38  1  0
 21 39  1  0
 22 40  1  0
 22 41  1  0
 23 42  1  0
 23 43  1  0
 24 44  1  0
 24 45  1  0
 25 46  1  0
 25 47  1  0
 26 48  1  0
 26 49  1  0
M  END
>  <smiles>  (7) 
O=c1c2ccccc2nc(/C=C/c2cccnc2)n1CC1CCCCC1

>  <score_type>  (7) 
oracle

>  <origin>  (7) 
autodockgpu

>  <m_score__min__energy>  (7) 
-7.3099999999999996

>  <m_primary>  (7) 
energy

>  <rmsd>  (7) 
11.733475453728678

>  <m_score__min__rmsd>  (7) 
11.733475453728678

>  <meeko>  (7) 
{"free_energy": -7.28, "intermolecular_energy": -8.77, "internal_energy": -1.23, "cluster_size": 8, "cluster_id": 1, "rank_in_cluster": 2}

>  <energy>  (7) 
-7.04

>  <cluster_rmsd>  (7) 
0.79

>  <cluster>  (7) 
1

$$$$

     RDKit          3D

 49 52  0  0  0  0  0  0  0  0999 V2000
  140.4520   71.8770  225.3480 O   0  0  0  0  0  0  0  0  0  0  0  0
  139.8740   70.7670  225.3450 C   0  0  0  0  0  0  0  0  0  0  0  0
  140.1770   69.9090  226.3750 C   0  0  0  0  0  0  0  0  0  0  0  0
  141.0810   70.2610  227.3530 C   0  0  0  0  0  0  0  0  0  0  0  0
  141.3400   69.3670  228.3440 C   0  0  0  0  0  0  0  0  0  0  0  0
  140.7010   68.1470  228.3440 C   0  0  0  0  0  0  0  0  0  0  0  0
  139.7870   67.7760  227.3650 C   0  0  0  0  0  0  0  0  0  0  0  0
  139.5470   68.6980  226.3780 C   0  0  0  0  0  0  0  0  0  0  0  0
  138.6950   68.4110  225.4200 N   0  0  0  0  0  0  0  0  0  0  0  0
  138.3620   69.2380  224.3730 C   0  0  0  0  0  0  0  0  0  0  0  0
  137.3910   68.7110  223.4730 C   0  0  0  0  0  0  0  0  0  0  0  0
  136.1220   68.9180  223.3240 C   0  0  0  0  0  0  0  0  0  0  0  0
  135.2330   69.4280  224.3890 C   0  0  0  0  0  0  0  0  0  0  0  0
  135.1470   70.7520  224.7280 C   0  0  0  0  0  0  0  0  0  0  0  0
  134.2830   71.1570  225.7500 C   0  0  0  0  0  0  0  0  0  0  0  0
  133.4990   70.2540  226.4420 C   0  0  0  0  0  0  0  0  0  0  0  0
  133.6070   68.9480  226.0850 N   0  0  0  0  0  0  0  0  0  0  0  0
  134.4340   68.5500  225.1030 C   0  0  0  0  0  0  0  0  0  0  0  0
  138.9720   70.4190  224.3600 N   0  0  0  0  0  0  0  0  0  0  0  0
  138.7560   71.4400  223.3680 C   0  0  0  0  0  0  0  0  0  0  0  0
  139.9340   71.8200  222.5400 C   0  0  0  0  0  0  0  0  0  0  0  0
  140.1360   70.7890  221.4390 C   0  0  0  0  0  0  0  0  0  0  0  0
  141.0810   71.2750  220.3850 C   0  0  0  0  0  0  0  0  0  0  0  0
  141.9210   72.4410  220.8580 C   0  0  0  0  0  0  0  0  0  0  0  0
  141.0650   73.6260  221.2350 C   0  0  0  0  0  0  0  0  0  0  0  0
  139.8020   73.2070  221.9700 C   0  0  0  0  0  0  0  0  0  0  0  0
  141.5807   71.2407  227.3327 H   0  0  0  0  0  0  0  0  0  0  0  0
  142.0557   69.6166  229.1411 H   0  0  0  0  0  0  0  0  0  0  0  0
  140.9235   67.4360  229.1533 H   0  0  0  0  0  0  0  0  0  0  0  0
  139.2842   66.7978  227.3807 H   0  0  0  0  0  0  0  0  0  0  0  0
  137.8031   67.9807  222.7611 H   0  0  0  0  0  0  0  0  0  0  0  0
  135.6767   68.7004  222.3420 H   0  0  0  0  0  0  0  0  0  0  0  0
  135.7575   71.4967  224.1964 H   0  0  0  0  0  0  0  0  0  0  0  0
  134.2259   72.2242  226.0103 H   0  0  0  0  0  0  0  0  0  0  0  0
  132.8194   70.5775  227.2442 H   0  0  0  0  0  0  0  0  0  0  0  0
  134.4783   67.4792  224.8552 H   0  0  0  0  0  0  0  0  0  0  0  0
  137.9694   71.0834  222.6868 H   0  0  0  0  0  0  0  0  0  0  0  0
  138.4930   72.3457  223.9341 H   0  0  0  0  0  0  0  0  0  0  0  0
  140.8215   71.8334  223.1897 H   0  0  0  0  0  0  0  0  0  0  0  0
  140.5425   69.8688  221.8839 H   0  0  0  0  0  0  0  0  0  0  0  0
  139.1617   70.6031  220.9634 H   0  0  0  0  0  0  0  0  0  0  0  0
  141.7502   70.4490  220.1023 H   0  0  0  0  0  0  0  0  0  0  0  0
  140.4815   71.6185  219.5291 H   0  0  0  0  0  0  0  0  0  0  0  0
  142.5039   72.1278  221.7367 H   0  0  0  0  0  0  0  0  0  0  0  0
  142.5841   72.7438  220.0342 H   0  0  0  0  0  0  0  0  0  0  0  0
  141.6494   74.2933  221.8856 H   0  0  0  0  0  0  0  0  0  0  0  0
  140.7645   74.1360  220.3079 H   0  0  0  0  0  0  0  0  0  0  0  0
  139.6137   73.9149  222.7906 H   0  0  0  0  0  0  0  0  0  0  0  0
  138.9671   73.2094  221.2538 H   0  0  0  0  0  0  0  0  0  0  0  0
  1  2  2  0
  2  3  1  0
  3  4  2  0
  4  5  1  0
  5  6  2  0
  6  7  1  0
  7  8  2  0
  8  9  1  0
  9 10  2  0
 10 11  1  0
 11 12  2  0
 12 13  1  0
 13 14  2  0
 14 15  1  0
 15 16  2  0
 16 17  1  0
 17 18  2  0
 10 19  1  0
 19 20  1  0
 20 21  1  0
 21 22  1  0
 22 23  1  0
 23 24  1  0
 24 25  1  0
 25 26  1  0
 19  2  1  0
 26 21  1  0
  8  3  1  0
 18 13  1  0
  4 27  1  0
  5 28  1  0
  6 29  1  0
  7 30  1  0
 11 31  1  0
 12 32  1  0
 14 33  1  0
 15 34  1  0
 16 35  1  0
 18 36  1  0
 20 37  1  0
 20 38  1  0
 21 39  1  0
 22 40  1  0
 22 41  1  0
 23 42  1  0
 23 43  1  0
 24 44  1  0
 24 45  1  0
 25 46  1  0
 25 47  1  0
 26 48  1  0
 26 49  1  0
M  END
>  <smiles>  (8) 
O=c1c2ccccc2nc(/C=C/c2cccnc2)n1CC1CCCCC1

>  <score_type>  (8) 
oracle

>  <origin>  (8) 
autodockgpu

>  <m_score__min__energy>  (8) 
-7.3099999999999996

>  <m_primary>  (8) 
energy

>  <rmsd>  (8) 
10.740564510185324

>  <m_score__min__rmsd>  (8) 
10.740564510185324

>  <meeko>  (8) 
{"free_energy": -7.21, "intermolecular_energy": -8.7, "internal_energy": -1.38, "cluster_size": 16, "cluster_id": 2, "rank_in_cluster": 14}

>  <energy>  (8) 
-7.01

>  <cluster_rmsd>  (8) 
1.71

>  <cluster>  (8) 
1

$$$$

     RDKit          3D

 49 52  0  0  0  0  0  0  0  0999 V2000
  140.4050   71.8970  225.1480 O   0  0  0  0  0  0  0  0  0  0  0  0
  139.7770   70.8150  225.1650 C   0  0  0  0  0  0  0  0  0  0  0  0
  140.0770   69.9420  226.1840 C   0  0  0  0  0  0  0  0  0  0  0  0
  141.0300   70.2510  227.1300 C   0  0  0  0  0  0  0  0  0  0  0  0
  141.2820   69.3440  228.1110 C   0  0  0  0  0  0  0  0  0  0  0  0
  140.5890   68.1550  228.1330 C   0  0  0  0  0  0  0  0  0  0  0  0
  139.6240   67.8270  227.1870 C   0  0  0  0  0  0  0  0  0  0  0  0
  139.3920   68.7610  226.2100 C   0  0  0  0  0  0  0  0  0  0  0  0
  138.4950   68.5150  225.2820 N   0  0  0  0  0  0  0  0  0  0  0  0
  138.1640   69.3580  224.2480 C   0  0  0  0  0  0  0  0  0  0  0  0
  137.1380   68.8780  223.3830 C   0  0  0  0  0  0  0  0  0  0  0  0
  135.8470   68.8590  223.4700 C   0  0  0  0  0  0  0  0  0  0  0  0
  135.0820   69.4580  224.5840 C   0  0  0  0  0  0  0  0  0  0  0  0
  135.0650   70.8010  224.8490 C   0  0  0  0  0  0  0  0  0  0  0  0
  134.3170   71.2920  225.9220 C   0  0  0  0  0  0  0  0  0  0  0  0
  133.5810   70.4570  226.7400 C   0  0  0  0  0  0  0  0  0  0  0  0
  133.6170   69.1300  226.4530 N   0  0  0  0  0  0  0  0  0  0  0  0
  134.3330   68.6490  225.4230 C   0  0  0  0  0  0  0  0  0  0  0  0
  138.8270   70.5100  224.2130 N   0  0  0  0  0  0  0  0  0  0  0  0
  138.6220   71.5410  223.2290 C   0  0  0  0  0  0  0  0  0  0  0  0
  139.4970   71.4920  222.0250 C   0  0  0  0  0  0  0  0  0  0  0  0
  140.7120   72.3830  222.2420 C   0  0  0  0  0  0  0  0  0  0  0  0
  141.7820   72.1270  221.2280 C   0  0  0  0  0  0  0  0  0  0  0  0
  141.2590   71.3930  220.0130 C   0  0  0  0  0  0  0  0  0  0  0  0
  140.6930   70.0410  220.3800 C   0  0  0  0  0  0  0  0  0  0  0  0
  139.9080   70.0860  221.6810 C   0  0  0  0  0  0  0  0  0  0  0  0
  141.5730   71.2069  227.0925 H   0  0  0  0  0  0  0  0  0  0  0  0
  142.0356   69.5592  228.8829 H   0  0  0  0  0  0  0  0  0  0  0  0
  140.8080   67.4330  228.9335 H   0  0  0  0  0  0  0  0  0  0  0  0
  139.0778   66.8727  227.2204 H   0  0  0  0  0  0  0  0  0  0  0  0
  137.5213   68.4335  222.4527 H   0  0  0  0  0  0  0  0  0  0  0  0
  135.2834   68.3660  222.6642 H   0  0  0  0  0  0  0  0  0  0  0  0
  135.6403   71.4936  224.2171 H   0  0  0  0  0  0  0  0  0  0  0  0
  134.3141   72.3738  226.1210 H   0  0  0  0  0  0  0  0  0  0  0  0
  132.9936   70.8482  227.5838 H   0  0  0  0  0  0  0  0  0  0  0  0
  134.3241   67.5648  225.2376 H   0  0  0  0  0  0  0  0  0  0  0  0
  137.5786   71.4743  222.8871 H   0  0  0  0  0  0  0  0  0  0  0  0
  138.8764   72.4833  223.7364 H   0  0  0  0  0  0  0  0  0  0  0  0
  138.9218   71.8679  221.1660 H   0  0  0  0  0  0  0  0  0  0  0  0
  140.3986   73.4349  222.1700 H   0  0  0  0  0  0  0  0  0  0  0  0
  141.1251   72.1586  223.2365 H   0  0  0  0  0  0  0  0  0  0  0  0
  142.2012   73.0914  220.9052 H   0  0  0  0  0  0  0  0  0  0  0  0
  142.5475   71.4934  221.6998 H   0  0  0  0  0  0  0  0  0  0  0  0
  140.4671   71.9963  219.5451 H   0  0  0  0  0  0  0  0  0  0  0  0
  142.0974   71.2375  219.3181 H   0  0  0  0  0  0  0  0  0  0  0  0
  140.0247   69.7051  219.5735 H   0  0  0  0  0  0  0  0  0  0  0  0
  141.5347   69.3458  220.5151 H   0  0  0  0  0  0  0  0  0  0  0  0
  139.0062   69.4647  221.5767 H   0  0  0  0  0  0  0  0  0  0  0  0
  140.5522   69.7061  222.4877 H   0  0  0  0  0  0  0  0  0  0  0  0
  1  2  2  0
  2  3  1  0
  3  4  2  0
  4  5  1  0
  5  6  2  0
  6  7  1  0
  7  8  2  0
  8  9  1  0
  9 10  2  0
 10 11  1  0
 11 12  2  0
 12 13  1  0
 13 14  2  0
 14 15  1  0
 15 16  2  0
 16 17  1  0
 17 18  2  0
 10 19  1  0
 19 20  1  0
 20 21  1  0
 21 22  1  0
 22 23  1  0
 23 24  1  0
 24 25  1  0
 25 26  1  0
 19  2  1  0
 26 21  1  0
  8  3  1  0
 18 13  1  0
  4 27  1  0
  5 28  1  0
  6 29  1  0
  7 30  1  0
 11 31  1  0
 12 32  1  0
 14 33  1  0
 15 34  1  0
 16 35  1  0
 18 36  1  0
 20 37  1  0
 20 38  1  0
 21 39  1  0
 22 40  1  0
 22 41  1  0
 23 42  1  0
 23 43  1  0
 24 44  1  0
 24 45  1  0
 25 46  1  0
 25 47  1  0
 26 48  1  0
 26 49  1  0
M  END
>  <smiles>  (9) 
O=c1c2ccccc2nc(/C=C/c2cccnc2)n1CC1CCCCC1

>  <score_type>  (9) 
oracle

>  <origin>  (9) 
autodockgpu

>  <m_score__min__energy>  (9) 
-7.3099999999999996

>  <m_primary>  (9) 
energy

>  <rmsd>  (9) 
10.477268458369585

>  <m_score__min__rmsd>  (9) 
10.477268458369585

>  <meeko>  (9) 
{"free_energy": -6.84, "intermolecular_energy": -8.34, "internal_energy": -1.53, "cluster_size": 16, "cluster_id": 2, "rank_in_cluster": 16}

>  <energy>  (9) 
-7.24

>  <cluster_rmsd>  (9) 
0.0

>  <cluster>  (9) 
2

$$$$

     RDKit          3D

 49 52  0  0  0  0  0  0  0  0999 V2000
  140.4960   71.8800  225.3510 O   0  0  0  0  0  0  0  0  0  0  0  0
  139.9100   70.7740  225.3370 C   0  0  0  0  0  0  0  0  0  0  0  0
  140.1930   69.9110  226.3690 C   0  0  0  0  0  0  0  0  0  0  0  0
  141.0870   70.2530  227.3590 C   0  0  0  0  0  0  0  0  0  0  0  0
  141.3270   69.3540  228.3510 C   0  0  0  0  0  0  0  0  0  0  0  0
  140.6790   68.1400  228.3390 C   0  0  0  0  0  0  0  0  0  0  0  0
  139.7740   67.7780  227.3480 C   0  0  0  0  0  0  0  0  0  0  0  0
  139.5530   68.7050  226.3610 C   0  0  0  0  0  0  0  0  0  0  0  0
  138.7120   68.4270  225.3910 N   0  0  0  0  0  0  0  0  0  0  0  0
  138.3980   69.2590  224.3430 C   0  0  0  0  0  0  0  0  0  0  0  0
  137.4340   68.7430  223.4290 C   0  0  0  0  0  0  0  0  0  0  0  0
  136.1540   68.8960  223.3170 C   0  0  0  0  0  0  0  0  0  0  0  0
  135.2790   69.3940  224.3990 C   0  0  0  0  0  0  0  0  0  0  0  0
  135.1650   70.7190  224.7250 C   0  0  0  0  0  0  0  0  0  0  0  0
  134.3170   71.1130  225.7640 C   0  0  0  0  0  0  0  0  0  0  0  0
  133.5770   70.1980  226.4870 C   0  0  0  0  0  0  0  0  0  0  0  0
  133.7110   68.8910  226.1410 N   0  0  0  0  0  0  0  0  0  0  0  0
  134.5240   68.5030  225.1430 C   0  0  0  0  0  0  0  0  0  0  0  0
  139.0180   70.4360  224.3400 N   0  0  0  0  0  0  0  0  0  0  0  0
  138.8220   71.4610  223.3490 C   0  0  0  0  0  0  0  0  0  0  0  0
  140.0180   71.8490  222.5510 C   0  0  0  0  0  0  0  0  0  0  0  0
  140.2620   70.8120  221.4630 C   0  0  0  0  0  0  0  0  0  0  0  0
  141.2300   71.3010  220.4320 C   0  0  0  0  0  0  0  0  0  0  0  0
  142.0440   72.4800  220.9200 C   0  0  0  0  0  0  0  0  0  0  0  0
  141.1640   73.6580  221.2640 C   0  0  0  0  0  0  0  0  0  0  0  0
  139.8860   73.2300  221.9670 C   0  0  0  0  0  0  0  0  0  0  0  0
  141.5944   71.2289  227.3478 H   0  0  0  0  0  0  0  0  0  0  0  0
  142.0346   69.5958  229.1578 H   0  0  0  0  0  0  0  0  0  0  0  0
  140.8862   67.4250  229.1489 H   0  0  0  0  0  0  0  0  0  0  0  0
  139.2639   66.8035  227.3547 H   0  0  0  0  0  0  0  0  0  0  0  0
  137.8653   68.0807  222.6640 H   0  0  0  0  0  0  0  0  0  0  0  0
  135.6872   68.6389  222.3547 H   0  0  0  0  0  0  0  0  0  0  0  0
  135.7409   71.4736  224.1691 H   0  0  0  0  0  0  0  0  0  0  0  0
  134.2368   72.1815  226.0127 H   0  0  0  0  0  0  0  0  0  0  0  0
  132.9109   70.5124  227.3040 H   0  0  0  0  0  0  0  0  0  0  0  0
  134.5924   67.4308  224.9071 H   0  0  0  0  0  0  0  0  0  0  0  0
  138.0529   71.1054  222.6476 H   0  0  0  0  0  0  0  0  0  0  0  0
  138.5426   72.3629  223.9133 H   0  0  0  0  0  0  0  0  0  0  0  0
  140.8869   71.8776  223.2249 H   0  0  0  0  0  0  0  0  0  0  0  0
  140.6663   69.8996  221.9258 H   0  0  0  0  0  0  0  0  0  0  0  0
  139.3033   70.6118  220.9622 H   0  0  0  0  0  0  0  0  0  0  0  0
  141.9158   70.4806  220.1737 H   0  0  0  0  0  0  0  0  0  0  0  0
  140.6507   71.6317  219.5573 H   0  0  0  0  0  0  0  0  0  0  0  0
  142.6053   72.1796  221.8170 H   0  0  0  0  0  0  0  0  0  0  0  0
  142.7270   72.7844  220.1132 H   0  0  0  0  0  0  0  0  0  0  0  0
  141.7224   74.3369  221.9252 H   0  0  0  0  0  0  0  0  0  0  0  0
  140.8835   74.1574  220.3249 H   0  0  0  0  0  0  0  0  0  0  0  0
  139.6670   73.9418  222.7766 H   0  0  0  0  0  0  0  0  0  0  0  0
  139.0713   73.2176  221.2280 H   0  0  0  0  0  0  0  0  0  0  0  0
  1  2  2  0
  2  3  1  0
  3  4  2  0
  4  5  1  0
  5  6  2  0
  6  7  1  0
  7  8  2  0
  8  9  1  0
  9 10  2  0
 10 11  1  0
 11 12  2  0
 12 13  1  0
 13 14  2  0
 14 15  1  0
 15 16  2  0
 16 17  1  0
 17 18  2  0
 10 19  1  0
 19 20  1  0
 20 21  1  0
 21 22  1  0
 22 23  1  0
 23 24  1  0
 24 25  1  0
 25 26  1  0
 19  2  1  0
 26 21  1  0
  8  3  1  0
 18 13  1  0
  4 27  1  0
  5 28  1  0
  6 29  1  0
  7 30  1  0
 11 31  1  0
 12 32  1  0
 14 33  1  0
 15 34  1  0
 16 35  1  0
 18 36  1  0
 20 37  1  0
 20 38  1  0
 21 39  1  0
 22 40  1  0
 22 41  1  0
 23 42  1  0
 23 43  1  0
 24 44  1  0
 24 45  1  0
 25 46  1  0
 25 47  1  0
 26 48  1  0
 26 49  1  0
M  END
>  <smiles>  (10) 
O=c1c2ccccc2nc(/C=C/c2cccnc2)n1CC1CCCCC1

>  <score_type>  (10) 
oracle

>  <origin>  (10) 
autodockgpu

>  <m_score__min__energy>  (10) 
-7.3099999999999996

>  <m_primary>  (10) 
energy

>  <rmsd>  (10) 
10.74401459827591

>  <m_score__min__rmsd>  (10) 
10.74401459827591

>  <meeko>  (10) 
{"free_energy": -7.23, "intermolecular_energy": -8.72, "internal_energy": -1.37, "cluster_size": 16, "cluster_id": 2, "rank_in_cluster": 5}

>  <energy>  (10) 
-7.23

>  <cluster_rmsd>  (10) 
0.06

>  <cluster>  (10) 
2

$$$$

     RDKit          3D

 49 52  0  0  0  0  0  0  0  0999 V2000
  139.2260   67.3940  225.4670 O   0  0  0  0  0  0  0  0  0  0  0  0
  139.5000   68.5750  225.1560 C   0  0  0  0  0  0  0  0  0  0  0  0
  140.0390   69.3660  226.1430 C   0  0  0  0  0  0  0  0  0  0  0  0
  140.2550   68.8740  227.4110 C   0  0  0  0  0  0  0  0  0  0  0  0
  140.7890   69.7070  228.3440 C   0  0  0  0  0  0  0  0  0  0  0  0
  141.0950   71.0050  228.0020 C   0  0  0  0  0  0  0  0  0  0  0  0
  140.8840   71.5170  226.7270 C   0  0  0  0  0  0  0  0  0  0  0  0
  140.3440   70.6530  225.8080 C   0  0  0  0  0  0  0  0  0  0  0  0
  140.1160   71.0730  224.5840 N   0  0  0  0  0  0  0  0  0  0  0  0
  139.5800   70.3180  223.5670 C   0  0  0  0  0  0  0  0  0  0  0  0
  139.4540   70.9910  222.3170 C   0  0  0  0  0  0  0  0  0  0  0  0
  140.3170   71.5110  221.5040 C   0  0  0  0  0  0  0  0  0  0  0  0
  140.6270   72.9540  221.4350 C   0  0  0  0  0  0  0  0  0  0  0  0
  141.7580   73.4540  220.8460 C   0  0  0  0  0  0  0  0  0  0  0  0
  141.9820   74.8330  220.8220 C   0  0  0  0  0  0  0  0  0  0  0  0
  141.0890   75.7270  221.3800 C   0  0  0  0  0  0  0  0  0  0  0  0
  139.9770   75.2020  221.9580 N   0  0  0  0  0  0  0  0  0  0  0  0
  139.7530   73.8770  221.9850 C   0  0  0  0  0  0  0  0  0  0  0  0
  139.2780   69.0630  223.8840 N   0  0  0  0  0  0  0  0  0  0  0  0
  138.7270   68.0980  222.9680 C   0  0  0  0  0  0  0  0  0  0  0  0
  137.2700   68.2120  222.6830 C   0  0  0  0  0  0  0  0  0  0  0  0
  136.6080   69.0690  223.7530 C   0  0  0  0  0  0  0  0  0  0  0  0
  135.2300   69.4940  223.3540 C   0  0  0  0  0  0  0  0  0  0  0  0
  134.6690   68.6500  222.2310 C   0  0  0  0  0  0  0  0  0  0  0  0
  135.5170   68.7480  220.9850 C   0  0  0  0  0  0  0  0  0  0  0  0
  137.0030   68.7580  221.3060 C   0  0  0  0  0  0  0  0  0  0  0  0
  140.0020   67.8335  227.6628 H   0  0  0  0  0  0  0  0  0  0  0  0
  140.9754   69.3457  229.3661 H   0  0  0  0  0  0  0  0  0  0  0  0
  141.5246   71.6648  228.7702 H   0  0  0  0  0  0  0  0  0  0  0  0
  141.1358   72.5563  226.4693 H   0  0  0  0  0  0  0  0  0  0  0  0
  138.4135   71.0882  221.9737 H   0  0  0  0  0  0  0  0  0  0  0  0
  140.8535   70.8357  220.8213 H   0  0  0  0  0  0  0  0  0  0  0  0
  142.4900   72.7699  220.3918 H   0  0  0  0  0  0  0  0  0  0  0  0
  142.8956   75.2177  220.3451 H   0  0  0  0  0  0  0  0  0  0  0  0
  141.2694   76.8119  221.3575 H   0  0  0  0  0  0  0  0  0  0  0  0
  138.8344   73.5092  222.4655 H   0  0  0  0  0  0  0  0  0  0  0  0
  139.2636   68.1987  222.0131 H   0  0  0  0  0  0  0  0  0  0  0  0
  138.8528   67.1226  223.4608 H   0  0  0  0  0  0  0  0  0  0  0  0
  136.8344   67.2022  222.7075 H   0  0  0  0  0  0  0  0  0  0  0  0
  136.5451   68.4883  224.6851 H   0  0  0  0  0  0  0  0  0  0  0  0
  137.2176   69.9743  223.8901 H   0  0  0  0  0  0  0  0  0  0  0  0
  134.5666   69.4065  224.2271 H   0  0  0  0  0  0  0  0  0  0  0  0
  135.2897   70.5323  222.9957 H   0  0  0  0  0  0  0  0  0  0  0  0
  134.6335   67.6000  222.5570 H   0  0  0  0  0  0  0  0  0  0  0  0
  133.6616   69.0213  221.9917 H   0  0  0  0  0  0  0  0  0  0  0  0
  135.2992   67.8850  220.3386 H   0  0  0  0  0  0  0  0  0  0  0  0
  135.2721   69.6947  220.4813 H   0  0  0  0  0  0  0  0  0  0  0  0
  137.5332   68.1398  220.5666 H   0  0  0  0  0  0  0  0  0  0  0  0
  137.3583   69.7985  221.2707 H   0  0  0  0  0  0  0  0  0  0  0  0
  1  2  2  0
  2  3  1  0
  3  4  2  0
  4  5  1  0
  5  6  2  0
  6  7  1  0
  7  8  2  0
  8  9  1  0
  9 10  2  0
 10 11  1  0
 11 12  2  0
 12 13  1  0
 13 14  2  0
 14 15  1  0
 15 16  2  0
 16 17  1  0
 17 18  2  0
 10 19  1  0
 19 20  1  0
 20 21  1  0
 21 22  1  0
 22 23  1  0
 23 24  1  0
 24 25  1  0
 25 26  1  0
 19  2  1  0
 26 21  1  0
  8  3  1  0
 18 13  1  0
  4 27  1  0
  5 28  1  0
  6 29  1  0
  7 30  1  0
 11 31  1  0
 12 32  1  0
 14 33  1  0
 15 34  1  0
 16 35  1  0
 18 36  1  0
 20 37  1  0
 20 38  1  0
 21 39  1  0
 22 40  1  0
 22 41  1  0
 23 42  1  0
 23 43  1  0
 24 44  1  0
 24 45  1  0
 25 46  1  0
 25 47  1  0
 26 48  1  0
 26 49  1  0
M  END
>  <smiles>  (11) 
O=c1c2ccccc2nc(/C=C/c2cccnc2)n1CC1CCCCC1

>  <score_type>  (11) 
oracle

>  <origin>  (11) 
autodockgpu

>  <m_score__min__energy>  (11) 
-7.3099999999999996

>  <m_primary>  (11) 
energy

>  <rmsd>  (11) 
11.74552792353832

>  <m_score__min__rmsd>  (11) 
11.74552792353832

>  <meeko>  (11) 
{"free_energy": -7.23, "intermolecular_energy": -8.72, "internal_energy": -1.3, "cluster_size": 8, "cluster_id": 1, "rank_in_cluster": 3}

>  <energy>  (11) 
-7.23

>  <cluster_rmsd>  (11) 
0.18

>  <cluster>  (11) 
2

$$$$

     RDKit          3D

 49 52  0  0  0  0  0  0  0  0999 V2000
  140.5420   74.5130  221.9650 O   0  0  0  0  0  0  0  0  0  0  0  0
  141.3800   75.0480  221.2050 C   0  0  0  0  0  0  0  0  0  0  0  0
  142.4260   74.2610  220.7860 C   0  0  0  0  0  0  0  0  0  0  0  0
  142.5390   72.9500  221.1960 C   0  0  0  0  0  0  0  0  0  0  0  0
  143.5980   72.2240  220.7480 C   0  0  0  0  0  0  0  0  0  0  0  0
  144.5190   72.8100  219.9080 C   0  0  0  0  0  0  0  0  0  0  0  0
  144.4190   74.1310  219.4850 C   0  0  0  0  0  0  0  0  0  0  0  0
  143.3410   74.8380  219.9530 C   0  0  0  0  0  0  0  0  0  0  0  0
  143.1860   76.0920  219.5950 N   0  0  0  0  0  0  0  0  0  0  0  0
  142.1570   76.9140  219.9890 C   0  0  0  0  0  0  0  0  0  0  0  0
  142.1940   78.2300  219.4430 C   0  0  0  0  0  0  0  0  0  0  0  0
  141.2700   79.0730  219.1080 C   0  0  0  0  0  0  0  0  0  0  0  0
  141.0160   80.3480  219.8120 C   0  0  0  0  0  0  0  0  0  0  0  0
  139.8580   81.0660  219.6740 C   0  0  0  0  0  0  0  0  0  0  0  0
  139.6920   82.2650  220.3730 C   0  0  0  0  0  0  0  0  0  0  0  0
  140.6710   82.7620  221.2110 C   0  0  0  0  0  0  0  0  0  0  0  0
  141.8090   82.0290  221.3270 N   0  0  0  0  0  0  0  0  0  0  0  0
  141.9770   80.8740  220.6600 C   0  0  0  0  0  0  0  0  0  0  0  0
  141.2610   76.3620  220.8010 N   0  0  0  0  0  0  0  0  0  0  0  0
  140.0990   77.0370  221.3160 C   0  0  0  0  0  0  0  0  0  0  0  0
  140.3470   78.2740  222.1080 C   0  0  0  0  0  0  0  0  0  0  0  0
  139.0530   78.7190  222.7750 C   0  0  0  0  0  0  0  0  0  0  0  0
  139.2950   79.7460  223.8360 C   0  0  0  0  0  0  0  0  0  0  0  0
  140.6530   80.4000  223.7050 C   0  0  0  0  0  0  0  0  0  0  0  0
  141.7710   79.3910  223.8310 C   0  0  0  0  0  0  0  0  0  0  0  0
  141.4450   78.0870  223.1200 C   0  0  0  0  0  0  0  0  0  0  0  0
  141.7920   72.5026  221.8681 H   0  0  0  0  0  0  0  0  0  0  0  0
  143.7185   71.1745  221.0548 H   0  0  0  0  0  0  0  0  0  0  0  0
  145.3697   72.2075  219.5569 H   0  0  0  0  0  0  0  0  0  0  0  0
  145.1628   74.5835  218.8127 H   0  0  0  0  0  0  0  0  0  0  0  0
  143.2136   78.6054  219.2715 H   0  0  0  0  0  0  0  0  0  0  0  0
  140.6341   78.8249  218.2454 H   0  0  0  0  0  0  0  0  0  0  0  0
  139.0587   80.6992  219.0132 H   0  0  0  0  0  0  0  0  0  0  0  0
  138.7552   82.8287  220.2523 H   0  0  0  0  0  0  0  0  0  0  0  0
  140.5357   83.7064  221.7585 H   0  0  0  0  0  0  0  0  0  0  0  0
  142.9192   80.3221  220.7934 H   0  0  0  0  0  0  0  0  0  0  0  0
  139.4638   77.3095  220.4603 H   0  0  0  0  0  0  0  0  0  0  0  0
  139.6375   76.3280  222.0191 H   0  0  0  0  0  0  0  0  0  0  0  0
  140.6881   79.0614  221.4198 H   0  0  0  0  0  0  0  0  0  0  0  0
  138.3883   79.1477  222.0105 H   0  0  0  0  0  0  0  0  0  0  0  0
  138.5955   77.8392  223.2511 H   0  0  0  0  0  0  0  0  0  0  0  0
  138.5198   80.5227  223.7595 H   0  0  0  0  0  0  0  0  0  0  0  0
  139.2600   79.2369  224.8105 H   0  0  0  0  0  0  0  0  0  0  0  0
  140.7211   80.8873  222.7212 H   0  0  0  0  0  0  0  0  0  0  0  0
  140.7603   81.1354  224.5160 H   0  0  0  0  0  0  0  0  0  0  0  0
  142.6847   79.8167  223.3906 H   0  0  0  0  0  0  0  0  0  0  0  0
  141.9097   79.1696  224.8995 H   0  0  0  0  0  0  0  0  0  0  0  0
  142.3474   77.7240  222.6063 H   0  0  0  0  0  0  0  0  0  0  0  0
  141.1041   77.3588  223.8707 H   0  0  0  0  0  0  0  0  0  0  0  0
  1  2  2  0
  2  3  1  0
  3  4  2  0
  4  5  1  0
  5  6  2  0
  6  7  1  0
  7  8  2  0
  8  9  1  0
  9 10  2  0
 10 11  1  0
 11 12  2  0
 12 13  1  0
 13 14  2  0
 14 15  1  0
 15 16  2  0
 16 17  1  0
 17 18  2  0
 10 19  1  0
 19 20  1  0
 20 21  1  0
 21 22  1  0
 22 23  1  0
 23 24  1  0
 24 25  1  0
 25 26  1  0
 19  2  1  0
 26 21  1  0
  8  3  1  0
 18 13  1  0
  4 27  1  0
  5 28  1  0
  6 29  1  0
  7 30  1  0
 11 31  1  0
 12 32  1  0
 14 33  1  0
 15 34  1  0
 16 35  1  0
 18 36  1  0
 20 37  1  0
 20 38  1  0
 21 39  1  0
 22 40  1  0
 22 41  1  0
 23 42  1  0
 23 43  1  0
 24 44  1  0
 24 45  1  0
 25 46  1  0
 25 47  1  0
 26 48  1  0
 26 49  1  0
M  END
>  <smiles>  (12) 
O=c1c2ccccc2nc(/C=C/c2cccnc2)n1CC1CCCCC1

>  <score_type>  (12) 
oracle

>  <origin>  (12) 
autodockgpu

>  <m_score__min__energy>  (12) 
-7.3099999999999996

>  <m_primary>  (12) 
energy

>  <rmsd>  (12) 
7.7981268342018355

>  <m_score__min__rmsd>  (12) 
7.7981268342018355

>  <meeko>  (12) 
{"free_energy": -6.42, "intermolecular_energy": -7.91, "internal_energy": -1.88, "cluster_size": 8, "cluster_id": 4, "rank_in_cluster": 4}

>  <energy>  (12) 
-7.23

>  <cluster_rmsd>  (12) 
0.13

>  <cluster>  (12) 
2

$$$$

     RDKit          3D

 49 52  0  0  0  0  0  0  0  0999 V2000
  139.2450   67.4430  225.4710 O   0  0  0  0  0  0  0  0  0  0  0  0
  139.5000   68.6280  225.1610 C   0  0  0  0  0  0  0  0  0  0  0  0
  140.0320   69.4240  226.1480 C   0  0  0  0  0  0  0  0  0  0  0  0
  140.2620   68.9320  227.4130 C   0  0  0  0  0  0  0  0  0  0  0  0
  140.7890   69.7700  228.3460 C   0  0  0  0  0  0  0  0  0  0  0  0
  141.0740   71.0730  228.0050 C   0  0  0  0  0  0  0  0  0  0  0  0
  140.8480   71.5860  226.7330 C   0  0  0  0  0  0  0  0  0  0  0  0
  140.3160   70.7170  225.8140 C   0  0  0  0  0  0  0  0  0  0  0  0
  140.0750   71.1370  224.5930 N   0  0  0  0  0  0  0  0  0  0  0  0
  139.5450   70.3770  223.5770 C   0  0  0  0  0  0  0  0  0  0  0  0
  139.4020   71.0510  222.3300 C   0  0  0  0  0  0  0  0  0  0  0  0
  140.2540   71.5650  221.5020 C   0  0  0  0  0  0  0  0  0  0  0  0
  140.5880   73.0030  221.4410 C   0  0  0  0  0  0  0  0  0  0  0  0
  141.7290   73.4860  220.8570 C   0  0  0  0  0  0  0  0  0  0  0  0
  141.9760   74.8620  220.8410 C   0  0  0  0  0  0  0  0  0  0  0  0
  141.0980   75.7670  221.4030 C   0  0  0  0  0  0  0  0  0  0  0  0
  139.9760   75.2590  221.9750 N   0  0  0  0  0  0  0  0  0  0  0  0
  139.7290   73.9380  221.9950 C   0  0  0  0  0  0  0  0  0  0  0  0
  139.2640   69.1160  223.8920 N   0  0  0  0  0  0  0  0  0  0  0  0
  138.7220   68.1460  222.9770 C   0  0  0  0  0  0  0  0  0  0  0  0
  137.3340   68.3910  222.4960 C   0  0  0  0  0  0  0  0  0  0  0  0
  136.7500   67.0970  221.9460 C   0  0  0  0  0  0  0  0  0  0  0  0
  135.2690   67.1880  221.7560 C   0  0  0  0  0  0  0  0  0  0  0  0
  134.7780   68.6190  221.7350 C   0  0  0  0  0  0  0  0  0  0  0  0
  135.0820   69.3300  223.0320 C   0  0  0  0  0  0  0  0  0  0  0  0
  136.4560   68.9690  223.5730 C   0  0  0  0  0  0  0  0  0  0  0  0
  140.0255   67.8872  227.6631 H   0  0  0  0  0  0  0  0  0  0  0  0
  140.9861   69.4089  229.3662 H   0  0  0  0  0  0  0  0  0  0  0  0
  141.4989   71.7368  228.7723 H   0  0  0  0  0  0  0  0  0  0  0  0
  141.0825   72.6299  226.4775 H   0  0  0  0  0  0  0  0  0  0  0  0
  138.3563   71.1558  222.0052 H   0  0  0  0  0  0  0  0  0  0  0  0
  140.7617   70.8881  220.7991 H   0  0  0  0  0  0  0  0  0  0  0  0
  142.4503   72.7919  220.4010 H   0  0  0  0  0  0  0  0  0  0  0  0
  142.8963   75.2341  220.3671 H   0  0  0  0  0  0  0  0  0  0  0  0
  141.2978   76.8486  221.3882 H   0  0  0  0  0  0  0  0  0  0  0  0
  138.8036   73.5835  222.4725 H   0  0  0  0  0  0  0  0  0  0  0  0
  139.3802   68.1128  222.0963 H   0  0  0  0  0  0  0  0  0  0  0  0
  138.6721   67.2053  223.5450 H   0  0  0  0  0  0  0  0  0  0  0  0
  137.3756   69.1398  221.6913 H   0  0  0  0  0  0  0  0  0  0  0  0
  137.2200   66.8793  220.9756 H   0  0  0  0  0  0  0  0  0  0  0  0
  136.9511   66.2968  222.6734 H   0  0  0  0  0  0  0  0  0  0  0  0
  135.0051   66.7098  220.8012 H   0  0  0  0  0  0  0  0  0  0  0  0
  134.7896   66.6809  222.6063 H   0  0  0  0  0  0  0  0  0  0  0  0
  135.2720   69.1538  220.9104 H   0  0  0  0  0  0  0  0  0  0  0  0
  133.6867   68.6064  221.5971 H   0  0  0  0  0  0  0  0  0  0  0  0
  135.0428   70.4156  222.8591 H   0  0  0  0  0  0  0  0  0  0  0  0
  134.3326   69.0169  223.7739 H   0  0  0  0  0  0  0  0  0  0  0  0
  136.9321   69.8754  223.9752 H   0  0  0  0  0  0  0  0  0  0  0  0
  136.3305   68.2123  224.3615 H   0  0  0  0  0  0  0  0  0  0  0  0
  1  2  2  0
  2  3  1  0
  3  4  2  0
  4  5  1  0
  5  6  2  0
  6  7  1  0
  7  8  2  0
  8  9  1  0
  9 10  2  0
 10 11  1  0
 11 12  2  0
 12 13  1  0
 13 14  2  0
 14 15  1  0
 15 16  2  0
 16 17  1  0
 17 18  2  0
 10 19  1  0
 19 20  1  0
 20 21  1  0
 21 22  1  0
 22 23  1  0
 23 24  1  0
 24 25  1  0
 25 26  1  0
 19  2  1  0
 26 21  1  0
  8  3  1  0
 18 13  1  0
  4 27  1  0
  5 28  1  0
  6 29  1  0
  7 30  1  0
 11 31  1  0
 12 32  1  0
 14 33  1  0
 15 34  1  0
 16 35  1  0
 18 36  1  0
 20 37  1  0
 20 38  1  0
 21 39  1  0
 22 40  1  0
 22 41  1  0
 23 42  1  0
 23 43  1  0
 24 44  1  0
 24 45  1  0
 25 46  1  0
 25 47  1  0
 26 48  1  0
 26 49  1  0
M  END
>  <smiles>  (13) 
O=c1c2ccccc2nc(/C=C/c2cccnc2)n1CC1CCCCC1

>  <score_type>  (13) 
oracle

>  <origin>  (13) 
autodockgpu

>  <m_score__min__energy>  (13) 
-7.3099999999999996

>  <m_primary>  (13) 
energy

>  <rmsd>  (13) 
11.729935316118933

>  <m_score__min__rmsd>  (13) 
11.729935316118933

>  <meeko>  (13) 
{"free_energy": -7.31, "intermolecular_energy": -8.8, "internal_energy": -1.23, "cluster_size": 8, "cluster_id": 1, "rank_in_cluster": 1}

>  <energy>  (13) 
-7.23

>  <cluster_rmsd>  (13) 
0.18

>  <cluster>  (13) 
2

$$$$

     RDKit          3D

 49 52  0  0  0  0  0  0  0  0999 V2000
  140.5690   71.8810  225.3200 O   0  0  0  0  0  0  0  0  0  0  0  0
  139.9310   70.8040  225.3120 C   0  0  0  0  0  0  0  0  0  0  0  0
  140.1650   69.9390  226.3540 C   0  0  0  0  0  0  0  0  0  0  0  0
  141.0670   70.2480  227.3480 C   0  0  0  0  0  0  0  0  0  0  0  0
  141.2570   69.3490  228.3510 C   0  0  0  0  0  0  0  0  0  0  0  0
  140.5520   68.1670  228.3460 C   0  0  0  0  0  0  0  0  0  0  0  0
  139.6370   67.8380  227.3510 C   0  0  0  0  0  0  0  0  0  0  0  0
  139.4680   68.7650  226.3540 C   0  0  0  0  0  0  0  0  0  0  0  0
  138.6220   68.5180  225.3800 N   0  0  0  0  0  0  0  0  0  0  0  0
  138.3560   69.3530  224.3210 C   0  0  0  0  0  0  0  0  0  0  0  0
  137.3750   68.8740  223.4060 C   0  0  0  0  0  0  0  0  0  0  0  0
  136.0810   68.9100  223.3990 C   0  0  0  0  0  0  0  0  0  0  0  0
  135.2610   69.4680  224.4950 C   0  0  0  0  0  0  0  0  0  0  0  0
  135.0850   70.8110  224.6950 C   0  0  0  0  0  0  0  0  0  0  0  0
  134.2950   71.2630  225.7560 C   0  0  0  0  0  0  0  0  0  0  0  0
  133.6740   70.3880  226.6260 C   0  0  0  0  0  0  0  0  0  0  0  0
  133.8670   69.0620  226.4030 N   0  0  0  0  0  0  0  0  0  0  0  0
  134.6240   68.6190  225.3850 C   0  0  0  0  0  0  0  0  0  0  0  0
  139.0310   70.4990  224.3120 N   0  0  0  0  0  0  0  0  0  0  0  0
  138.8910   71.5220  223.3090 C   0  0  0  0  0  0  0  0  0  0  0  0
  140.1060   71.8330  222.5060 C   0  0  0  0  0  0  0  0  0  0  0  0
  140.2700   70.7920  221.4080 C   0  0  0  0  0  0  0  0  0  0  0  0
  141.2630   71.2220  220.3740 C   0  0  0  0  0  0  0  0  0  0  0  0
  142.1600   72.3370  220.8660 C   0  0  0  0  0  0  0  0  0  0  0  0
  141.3650   73.5710  221.2260 C   0  0  0  0  0  0  0  0  0  0  0  0
  140.0660   73.2250  221.9350 C   0  0  0  0  0  0  0  0  0  0  0  0
  141.6202   71.1986  227.3312 H   0  0  0  0  0  0  0  0  0  0  0  0
  141.9694   69.5653  229.1607 H   0  0  0  0  0  0  0  0  0  0  0  0
  140.7193   67.4512  229.1644 H   0  0  0  0  0  0  0  0  0  0  0  0
  139.0809   66.8890  227.3630 H   0  0  0  0  0  0  0  0  0  0  0  0
  137.8042   68.3714  222.5267 H   0  0  0  0  0  0  0  0  0  0  0  0
  135.5588   68.4995  222.5222 H   0  0  0  0  0  0  0  0  0  0  0  0
  135.5656   71.5348  224.0203 H   0  0  0  0  0  0  0  0  0  0  0  0
  134.1642   72.3454  225.9021 H   0  0  0  0  0  0  0  0  0  0  0  0
  133.0529   70.7478  227.4595 H   0  0  0  0  0  0  0  0  0  0  0  0
  134.7431   67.5335  225.2525 H   0  0  0  0  0  0  0  0  0  0  0  0
  138.1023   71.2018  222.6123 H   0  0  0  0  0  0  0  0  0  0  0  0
  138.6628   72.4447  223.8627 H   0  0  0  0  0  0  0  0  0  0  0  0
  140.9794   71.7949  223.1736 H   0  0  0  0  0  0  0  0  0  0  0  0
  140.6129   69.8496  221.8600 H   0  0  0  0  0  0  0  0  0  0  0  0
  139.2964   70.6634  220.9125 H   0  0  0  0  0  0  0  0  0  0  0  0
  141.8884   70.3584  220.1037 H   0  0  0  0  0  0  0  0  0  0  0  0
  140.7023   71.6000  219.5064 H   0  0  0  0  0  0  0  0  0  0  0  0
  142.7047   71.9906  221.7566 H   0  0  0  0  0  0  0  0  0  0  0  0
  142.8577   72.6003  220.0573 H   0  0  0  0  0  0  0  0  0  0  0  0
  141.9732   74.2045  221.8884 H   0  0  0  0  0  0  0  0  0  0  0  0
  141.1132   74.0969  220.2932 H   0  0  0  0  0  0  0  0  0  0  0  0
  139.9023   73.9426  222.7525 H   0  0  0  0  0  0  0  0  0  0  0  0
  139.2474   73.2751  221.2019 H   0  0  0  0  0  0  0  0  0  0  0  0
  1  2  2  0
  2  3  1  0
  3  4  2  0
  4  5  1  0
  5  6  2  0
  6  7  1  0
  7  8  2  0
  8  9  1  0
  9 10  2  0
 10 11  1  0
 11 12  2  0
 12 13  1  0
 13 14  2  0
 14 15  1  0
 15 16  2  0
 16 17  1  0
 17 18  2  0
 10 19  1  0
 19 20  1  0
 20 21  1  0
 21 22  1  0
 22 23  1  0
 23 24  1  0
 24 25  1  0
 25 26  1  0
 19  2  1  0
 26 21  1  0
  8  3  1  0
 18 13  1  0
  4 27  1  0
  5 28  1  0
  6 29  1  0
  7 30  1  0
 11 31  1  0
 12 32  1  0
 14 33  1  0
 15 34  1  0
 16 35  1  0
 18 36  1  0
 20 37  1  0
 20 38  1  0
 21 39  1  0
 22 40  1  0
 22 41  1  0
 23 42  1  0
 23 43  1  0
 24 44  1  0
 24 45  1  0
 25 46  1  0
 25 47  1  0
 26 48  1  0
 26 49  1  0
M  END
>  <smiles>  (14) 
O=c1c2ccccc2nc(/C=C/c2cccnc2)n1CC1CCCCC1

>  <score_type>  (14) 
oracle

>  <origin>  (14) 
autodockgpu

>  <m_score__min__energy>  (14) 
-7.3099999999999996

>  <m_primary>  (14) 
energy

>  <rmsd>  (14) 
10.730423563601981

>  <m_score__min__rmsd>  (14) 
10.730423563601981

>  <meeko>  (14) 
{"free_energy": -7.23, "intermolecular_energy": -8.72, "internal_energy": -1.38, "cluster_size": 16, "cluster_id": 2, "rank_in_cluster": 2}

>  <energy>  (14) 
-7.23

>  <cluster_rmsd>  (14) 
0.03

>  <cluster>  (14) 
2

$$$$

     RDKit          3D

 49 52  0  0  0  0  0  0  0  0999 V2000
  139.0580   76.6850  222.5150 O   0  0  0  0  0  0  0  0  0  0  0  0
  140.0770   77.1300  221.9410 C   0  0  0  0  0  0  0  0  0  0  0  0
  140.5730   78.3270  222.4020 C   0  0  0  0  0  0  0  0  0  0  0  0
  139.9650   78.9980  223.4390 C   0  0  0  0  0  0  0  0  0  0  0  0
  140.5030   80.1790  223.8470 C   0  0  0  0  0  0  0  0  0  0  0  0
  141.6270   80.6670  223.2200 C   0  0  0  0  0  0  0  0  0  0  0  0
  142.2540   80.0020  222.1720 C   0  0  0  0  0  0  0  0  0  0  0  0
  141.6880   78.8140  221.7820 C   0  0  0  0  0  0  0  0  0  0  0  0
  142.2280   78.1350  220.7960 N   0  0  0  0  0  0  0  0  0  0  0  0
  141.7660   76.9370  220.3050 C   0  0  0  0  0  0  0  0  0  0  0  0
  142.5410   76.3800  219.2460 C   0  0  0  0  0  0  0  0  0  0  0  0
  142.8540   75.1650  218.9260 C   0  0  0  0  0  0  0  0  0  0  0  0
  144.0360   74.4480  219.4480 C   0  0  0  0  0  0  0  0  0  0  0  0
  144.4100   74.4720  220.7640 C   0  0  0  0  0  0  0  0  0  0  0  0
  145.5430   73.7680  221.1820 C   0  0  0  0  0  0  0  0  0  0  0  0
  146.3130   73.0360  220.2990 C   0  0  0  0  0  0  0  0  0  0  0  0
  145.9180   73.0320  218.9990 N   0  0  0  0  0  0  0  0  0  0  0  0
  144.8290   73.7050  218.5890 C   0  0  0  0  0  0  0  0  0  0  0  0
  140.6800   76.4540  220.9010 N   0  0  0  0  0  0  0  0  0  0  0  0
  140.0450   75.2080  220.5570 C   0  0  0  0  0  0  0  0  0  0  0  0
  140.3450   74.0460  221.4380 C   0  0  0  0  0  0  0  0  0  0  0  0
  139.0440   73.4630  221.9730 C   0  0  0  0  0  0  0  0  0  0  0  0
  139.2470   72.1130  222.5860 C   0  0  0  0  0  0  0  0  0  0  0  0
  140.6980   71.8430  222.9170 C   0  0  0  0  0  0  0  0  0  0  0  0
  141.5660   71.8800  221.6820 C   0  0  0  0  0  0  0  0  0  0  0  0
  141.1620   72.9970  220.7340 C   0  0  0  0  0  0  0  0  0  0  0  0
  139.0669   78.5895  223.9254 H   0  0  0  0  0  0  0  0  0  0  0  0
  140.0425   80.7407  224.6731 H   0  0  0  0  0  0  0  0  0  0  0  0
  142.0473   81.6241  223.5626 H   0  0  0  0  0  0  0  0  0  0  0  0
  143.1530   80.4054  221.6831 H   0  0  0  0  0  0  0  0  0  0  0  0
  142.9572   77.1349  218.5627 H   0  0  0  0  0  0  0  0  0  0  0  0
  142.1985   74.6328  218.2209 H   0  0  0  0  0  0  0  0  0  0  0  0
  143.8189   75.0455  221.4932 H   0  0  0  0  0  0  0  0  0  0  0  0
  145.8294   73.7977  222.2436 H   0  0  0  0  0  0  0  0  0  0  0  0
  147.2034   72.4828  220.6324 H   0  0  0  0  0  0  0  0  0  0  0  0
  144.5555   73.6639  217.5243 H   0  0  0  0  0  0  0  0  0  0  0  0
  138.9572   75.3704  220.5763 H   0  0  0  0  0  0  0  0  0  0  0  0
  140.4482   74.9377  219.5699 H   0  0  0  0  0  0  0  0  0  0  0  0
  140.9553   74.4025  222.2809 H   0  0  0  0  0  0  0  0  0  0  0  0
  138.6374   74.1426  222.7365 H   0  0  0  0  0  0  0  0  0  0  0  0
  138.3477   73.3524  221.1286 H   0  0  0  0  0  0  0  0  0  0  0  0
  138.6562   72.0529  223.5119 H   0  0  0  0  0  0  0  0  0  0  0  0
  138.9242   71.3594  221.8526 H   0  0  0  0  0  0  0  0  0  0  0  0
  141.0510   72.6077  223.6245 H   0  0  0  0  0  0  0  0  0  0  0  0
  140.7691   70.8376  223.3575 H   0  0  0  0  0  0  0  0  0  0  0  0
  142.6114   72.0344  221.9874 H   0  0  0  0  0  0  0  0  0  0  0  0
  141.4428   70.9240  221.1520 H   0  0  0  0  0  0  0  0  0  0  0  0
  142.0696   73.4651  220.3250 H   0  0  0  0  0  0  0  0  0  0  0  0
  140.5497   72.5637  219.9294 H   0  0  0  0  0  0  0  0  0  0  0  0
  1  2  2  0
  2  3  1  0
  3  4  2  0
  4  5  1  0
  5  6  2  0
  6  7  1  0
  7  8  2  0
  8  9  1  0
  9 10  2  0
 10 11  1  0
 11 12  2  0
 12 13  1  0
 13 14  2  0
 14 15  1  0
 15 16  2  0
 16 17  1  0
 17 18  2  0
 10 19  1  0
 19 20  1  0
 20 21  1  0
 21 22  1  0
 22 23  1  0
 23 24  1  0
 24 25  1  0
 25 26  1  0
 19  2  1  0
 26 21  1  0
  8  3  1  0
 18 13  1  0
  4 27  1  0
  5 28  1  0
  6 29  1  0
  7 30  1  0
 11 31  1  0
 12 32  1  0
 14 33  1  0
 15 34  1  0
 16 35  1  0
 18 36  1  0
 20 37  1  0
 20 38  1  0
 21 39  1  0
 22 40  1  0
 22 41  1  0
 23 42  1  0
 23 43  1  0
 24 44  1  0
 24 45  1  0
 25 46  1  0
 25 47  1  0
 26 48  1  0
 26 49  1  0
M  END
>  <smiles>  (15) 
O=c1c2ccccc2nc(/C=C/c2cccnc2)n1CC1CCCCC1

>  <score_type>  (15) 
oracle

>  <origin>  (15) 
autodockgpu

>  <m_score__min__energy>  (15) 
-7.3099999999999996

>  <m_primary>  (15) 
energy

>  <rmsd>  (15) 
4.936329299592835

>  <m_score__min__rmsd>  (15) 
4.936329299592835

>  <meeko>  (15) 
{"free_energy": -7.02, "intermolecular_energy": -8.51, "internal_energy": -1.57, "cluster_size": 3, "cluster_id": 3, "rank_in_cluster": 3}

>  <energy>  (15) 
-7.22

>  <cluster_rmsd>  (15) 
0.05

>  <cluster>  (15) 
2

$$$$

     RDKit          3D

 49 52  0  0  0  0  0  0  0  0999 V2000
  140.5590   71.8740  225.3210 O   0  0  0  0  0  0  0  0  0  0  0  0
  139.9340   70.7900  225.3110 C   0  0  0  0  0  0  0  0  0  0  0  0
  140.1800   69.9260  226.3520 C   0  0  0  0  0  0  0  0  0  0  0  0
  141.0780   70.2450  227.3460 C   0  0  0  0  0  0  0  0  0  0  0  0
  141.2780   69.3470  228.3470 C   0  0  0  0  0  0  0  0  0  0  0  0
  140.5870   68.1560  228.3400 C   0  0  0  0  0  0  0  0  0  0  0  0
  139.6780   67.8180  227.3450 C   0  0  0  0  0  0  0  0  0  0  0  0
  139.4970   68.7430  226.3490 C   0  0  0  0  0  0  0  0  0  0  0  0
  138.6540   68.4870  225.3750 N   0  0  0  0  0  0  0  0  0  0  0  0
  138.3780   69.3210  224.3170 C   0  0  0  0  0  0  0  0  0  0  0  0
  137.4030   68.8320  223.4010 C   0  0  0  0  0  0  0  0  0  0  0  0
  136.1160   68.9540  223.3310 C   0  0  0  0  0  0  0  0  0  0  0  0
  135.2750   69.5020  224.4160 C   0  0  0  0  0  0  0  0  0  0  0  0
  135.0950   70.8430  224.6250 C   0  0  0  0  0  0  0  0  0  0  0  0
  134.2840   71.2840  225.6750 C   0  0  0  0  0  0  0  0  0  0  0  0
  133.6470   70.4000  226.5250 C   0  0  0  0  0  0  0  0  0  0  0  0
  133.8450   69.0770  226.2930 N   0  0  0  0  0  0  0  0  0  0  0  0
  134.6220   68.6430  225.2860 C   0  0  0  0  0  0  0  0  0  0  0  0
  139.0380   70.4750  224.3100 N   0  0  0  0  0  0  0  0  0  0  0  0
  138.8860   71.4980  223.3090 C   0  0  0  0  0  0  0  0  0  0  0  0
  140.0900   71.8070  222.4870 C   0  0  0  0  0  0  0  0  0  0  0  0
  140.2250   70.7750  221.3770 C   0  0  0  0  0  0  0  0  0  0  0  0
  141.2040   71.2060  220.3300 C   0  0  0  0  0  0  0  0  0  0  0  0
  142.1190   72.3080  220.8170 C   0  0  0  0  0  0  0  0  0  0  0  0
  141.3430   73.5450  221.2030 C   0  0  0  0  0  0  0  0  0  0  0  0
  140.0530   73.2040  221.9310 C   0  0  0  0  0  0  0  0  0  0  0  0
  141.6198   71.2022  227.3305 H   0  0  0  0  0  0  0  0  0  0  0  0
  141.9874   69.5705  229.1574 H   0  0  0  0  0  0  0  0  0  0  0  0
  140.7622   67.4412  229.1575 H   0  0  0  0  0  0  0  0  0  0  0  0
  139.1340   66.8620  227.3556 H   0  0  0  0  0  0  0  0  0  0  0  0
  137.8306   68.2276  222.5874 H   0  0  0  0  0  0  0  0  0  0  0  0
  135.6170   68.6295  222.4060 H   0  0  0  0  0  0  0  0  0  0  0  0
  135.5884   71.5734  223.9669 H   0  0  0  0  0  0  0  0  0  0  0  0
  134.1492   72.3648  225.8288 H   0  0  0  0  0  0  0  0  0  0  0  0
  133.0100   70.7514  227.3501 H   0  0  0  0  0  0  0  0  0  0  0  0
  134.7451   67.5589  225.1461 H   0  0  0  0  0  0  0  0  0  0  0  0
  138.0863   71.1795  222.6241 H   0  0  0  0  0  0  0  0  0  0  0  0
  138.6688   72.4212  223.8663 H   0  0  0  0  0  0  0  0  0  0  0  0
  140.9749   71.7555  223.1384 H   0  0  0  0  0  0  0  0  0  0  0  0
  140.5670   69.8253  221.8141 H   0  0  0  0  0  0  0  0  0  0  0  0
  139.2418   70.6597  220.8974 H   0  0  0  0  0  0  0  0  0  0  0  0
  141.8169   70.3395  220.0409 H   0  0  0  0  0  0  0  0  0  0  0  0
  140.6320   71.5971  219.4757 H   0  0  0  0  0  0  0  0  0  0  0  0
  142.6761   71.9478  221.6944 H   0  0  0  0  0  0  0  0  0  0  0  0
  142.8042   72.5732  219.9984 H   0  0  0  0  0  0  0  0  0  0  0  0
  141.9687   74.1658  221.8611 H   0  0  0  0  0  0  0  0  0  0  0  0
  141.0803   74.0829  220.2802 H   0  0  0  0  0  0  0  0  0  0  0  0
  139.9101   73.9149  222.7582 H   0  0  0  0  0  0  0  0  0  0  0  0
  139.2223   73.2691  221.2128 H   0  0  0  0  0  0  0  0  0  0  0  0
  1  2  2  0
  2  3  1  0
  3  4  2  0
  4  5  1  0
  5  6  2  0
  6  7  1  0
  7  8  2  0
  8  9  1  0
  9 10  2  0
 10 11  1  0
 11 12  2  0
 12 13  1  0
 13 14  2  0
 14 15  1  0
 15 16  2  0
 16 17  1  0
 17 18  2  0
 10 19  1  0
 19 20  1  0
 20 21  1  0
 21 22  1  0
 22 23  1  0
 23 24  1  0
 24 25  1  0
 25 26  1  0
 19  2  1  0
 26 21  1  0
  8  3  1  0
 18 13  1  0
  4 27  1  0
  5 28  1  0
  6 29  1  0
  7 30  1  0
 11 31  1  0
 12 32  1  0
 14 33  1  0
 15 34  1  0
 16 35  1  0
 18 36  1  0
 20 37  1  0
 20 38  1  0
 21 39  1  0
 22 40  1  0
 22 41  1  0
 23 42  1  0
 23 43  1  0
 24 44  1  0
 24 45  1  0
 25 46  1  0
 25 47  1  0
 26 48  1  0
 26 49  1  0
M  END
>  <smiles>  (16) 
O=c1c2ccccc2nc(/C=C/c2cccnc2)n1CC1CCCCC1

>  <score_type>  (16) 
oracle

>  <origin>  (16) 
autodockgpu

>  <m_score__min__energy>  (16) 
-7.3099999999999996

>  <m_primary>  (16) 
energy

>  <rmsd>  (16) 
10.734739411969795

>  <m_score__min__rmsd>  (16) 
10.734739411969795

>  <meeko>  (16) 
{"free_energy": -7.21, "intermolecular_energy": -8.7, "internal_energy": -1.39, "cluster_size": 16, "cluster_id": 2, "rank_in_cluster": 12}

>  <energy>  (16) 
-7.22

>  <cluster_rmsd>  (16) 
0.12

>  <cluster>  (16) 
2

$$$$

     RDKit          3D

 49 52  0  0  0  0  0  0  0  0999 V2000
  142.7720   76.4630  219.8900 O   0  0  0  0  0  0  0  0  0  0  0  0
  141.8760   75.9090  220.5670 C   0  0  0  0  0  0  0  0  0  0  0  0
  142.0030   74.5550  220.7700 C   0  0  0  0  0  0  0  0  0  0  0  0
  143.0630   73.8520  220.2420 C   0  0  0  0  0  0  0  0  0  0  0  0
  143.1300   72.5140  220.4770 C   0  0  0  0  0  0  0  0  0  0  0  0
  142.1480   71.9050  221.2250 C   0  0  0  0  0  0  0  0  0  0  0  0
  141.0720   72.5990  221.7650 C   0  0  0  0  0  0  0  0  0  0  0  0
  141.0310   73.9470  221.5110 C   0  0  0  0  0  0  0  0  0  0  0  0
  140.0400   74.6640  221.9900 N   0  0  0  0  0  0  0  0  0  0  0  0
  139.8750   76.0170  221.8120 C   0  0  0  0  0  0  0  0  0  0  0  0
  138.7310   76.5750  222.4530 C   0  0  0  0  0  0  0  0  0  0  0  0
  137.8760   77.4810  222.1020 C   0  0  0  0  0  0  0  0  0  0  0  0
  138.0510   78.9280  222.3490 C   0  0  0  0  0  0  0  0  0  0  0  0
  138.2840   79.4560  223.5900 C   0  0  0  0  0  0  0  0  0  0  0  0
  138.4380   80.8370  223.7440 C   0  0  0  0  0  0  0  0  0  0  0  0
  138.3600   81.7030  222.6700 C   0  0  0  0  0  0  0  0  0  0  0  0
  138.1280   81.1500  221.4520 N   0  0  0  0  0  0  0  0  0  0  0  0
  137.9800   79.8230  221.2940 C   0  0  0  0  0  0  0  0  0  0  0  0
  140.8150   76.6190  221.0900 N   0  0  0  0  0  0  0  0  0  0  0  0
  140.8460   78.0290  220.8000 C   0  0  0  0  0  0  0  0  0  0  0  0
  141.6360   78.8810  221.7310 C   0  0  0  0  0  0  0  0  0  0  0  0
  141.4290   80.3470  221.3800 C   0  0  0  0  0  0  0  0  0  0  0  0
  141.9190   81.2560  222.4630 C   0  0  0  0  0  0  0  0  0  0  0  0
  142.8650   80.5580  223.4160 C   0  0  0  0  0  0  0  0  0  0  0  0
  142.1970   79.3960  224.1110 C   0  0  0  0  0  0  0  0  0  0  0  0
  141.2940   78.6120  223.1720 C   0  0  0  0  0  0  0  0  0  0  0  0
  143.8355   74.3595  219.6456 H   0  0  0  0  0  0  0  0  0  0  0  0
  143.9639   71.9221  220.0717 H   0  0  0  0  0  0  0  0  0  0  0  0
  142.2180   70.8218  221.4031 H   0  0  0  0  0  0  0  0  0  0  0  0
  140.2970   72.0963  222.3622 H   0  0  0  0  0  0  0  0  0  0  0  0
  138.5348   76.1492  223.4481 H   0  0  0  0  0  0  0  0  0  0  0  0
  136.9608   77.1535  221.5871 H   0  0  0  0  0  0  0  0  0  0  0  0
  138.3501   78.7940  224.4660 H   0  0  0  0  0  0  0  0  0  0  0  0
  138.6265   81.2455  224.7478 H   0  0  0  0  0  0  0  0  0  0  0  0
  138.4802   82.7891  222.7960 H   0  0  0  0  0  0  0  0  0  0  0  0
  137.7945   79.4310  220.2831 H   0  0  0  0  0  0  0  0  0  0  0  0
  141.2689   78.1538  219.7923 H   0  0  0  0  0  0  0  0  0  0  0  0
  139.8056   78.3708  220.9041 H   0  0  0  0  0  0  0  0  0  0  0  0
  142.6997   78.6281  221.6104 H   0  0  0  0  0  0  0  0  0  0  0  0
  141.9769   80.5712  220.4529 H   0  0  0  0  0  0  0  0  0  0  0  0
  140.3496   80.5178  221.2548 H   0  0  0  0  0  0  0  0  0  0  0  0
  142.4448   82.1047  222.0012 H   0  0  0  0  0  0  0  0  0  0  0  0
  141.0454   81.5906  223.0417 H   0  0  0  0  0  0  0  0  0  0  0  0
  143.7313   80.1851  222.8498 H   0  0  0  0  0  0  0  0  0  0  0  0
  143.1785   81.2827  224.1818 H   0  0  0  0  0  0  0  0  0  0  0  0
  142.9736   78.7220  224.5016 H   0  0  0  0  0  0  0  0  0  0  0  0
  141.5740   79.7990  224.9230 H   0  0  0  0  0  0  0  0  0  0  0  0
  141.4140   77.5374  223.3740 H   0  0  0  0  0  0  0  0  0  0  0  0
  140.2548   78.9277  223.3464 H   0  0  0  0  0  0  0  0  0  0  0  0
  1  2  2  0
  2  3  1  0
  3  4  2  0
  4  5  1  0
  5  6  2  0
  6  7  1  0
  7  8  2  0
  8  9  1  0
  9 10  2  0
 10 11  1  0
 11 12  2  0
 12 13  1  0
 13 14  2  0
 14 15  1  0
 15 16  2  0
 16 17  1  0
 17 18  2  0
 10 19  1  0
 19 20  1  0
 20 21  1  0
 21 22  1  0
 22 23  1  0
 23 24  1  0
 24 25  1  0
 25 26  1  0
 19  2  1  0
 26 21  1  0
  8  3  1  0
 18 13  1  0
  4 27  1  0
  5 28  1  0
  6 29  1  0
  7 30  1  0
 11 31  1  0
 12 32  1  0
 14 33  1  0
 15 34  1  0
 16 35  1  0
 18 36  1  0
 20 37  1  0
 20 38  1  0
 21 39  1  0
 22 40  1  0
 22 41  1  0
 23 42  1  0
 23 43  1  0
 24 44  1  0
 24 45  1  0
 25 46  1  0
 25 47  1  0
 26 48  1  0
 26 49  1  0
M  END
>  <smiles>  (17) 
O=c1c2ccccc2nc(/C=C/c2cccnc2)n1CC1CCCCC1

>  <score_type>  (17) 
oracle

>  <origin>  (17) 
autodockgpu

>  <m_score__min__energy>  (17) 
-7.3099999999999996

>  <m_primary>  (17) 
energy

>  <rmsd>  (17) 
7.5159573880284265

>  <m_score__min__rmsd>  (17) 
7.5159573880284265

>  <meeko>  (17) 
{"free_energy": -6.53, "intermolecular_energy": -8.02, "internal_energy": -1.95, "cluster_size": 15, "cluster_id": 5, "rank_in_cluster": 7}

>  <energy>  (17) 
-7.22

>  <cluster_rmsd>  (17) 
0.07

>  <cluster>  (17) 
2

$$$$

     RDKit          3D

 49 52  0  0  0  0  0  0  0  0999 V2000
  140.5660   71.8660  225.2890 O   0  0  0  0  0  0  0  0  0  0  0  0
  139.9490   70.7770  225.2800 C   0  0  0  0  0  0  0  0  0  0  0  0
  140.1940   69.9190  226.3260 C   0  0  0  0  0  0  0  0  0  0  0  0
  141.0820   70.2490  227.3250 C   0  0  0  0  0  0  0  0  0  0  0  0
  141.2820   69.3570  228.3310 C   0  0  0  0  0  0  0  0  0  0  0  0
  140.6010   68.1600  228.3250 C   0  0  0  0  0  0  0  0  0  0  0  0
  139.7010   67.8110  227.3250 C   0  0  0  0  0  0  0  0  0  0  0  0
  139.5200   68.7310  226.3230 C   0  0  0  0  0  0  0  0  0  0  0  0
  138.6850   68.4650  225.3450 N   0  0  0  0  0  0  0  0  0  0  0  0
  138.4100   69.2920  224.2820 C   0  0  0  0  0  0  0  0  0  0  0  0
  137.4450   68.7910  223.3610 C   0  0  0  0  0  0  0  0  0  0  0  0
  136.1620   68.9300  223.2640 C   0  0  0  0  0  0  0  0  0  0  0  0
  135.2950   69.4180  224.3570 C   0  0  0  0  0  0  0  0  0  0  0  0
  135.1620   70.7430  224.6770 C   0  0  0  0  0  0  0  0  0  0  0  0
  134.3220   71.1270  225.7270 C   0  0  0  0  0  0  0  0  0  0  0  0
  133.6110   70.2020  226.4670 C   0  0  0  0  0  0  0  0  0  0  0  0
  133.7640   68.8960  226.1260 N   0  0  0  0  0  0  0  0  0  0  0  0
  134.5680   68.5180  225.1180 C   0  0  0  0  0  0  0  0  0  0  0  0
  139.0620   70.4510  224.2740 N   0  0  0  0  0  0  0  0  0  0  0  0
  138.9090   71.4690  223.2670 C   0  0  0  0  0  0  0  0  0  0  0  0
  140.1180   71.7890  222.4590 C   0  0  0  0  0  0  0  0  0  0  0  0
  140.2650   70.7710  221.3380 C   0  0  0  0  0  0  0  0  0  0  0  0
  141.2510   71.2160  220.3040 C   0  0  0  0  0  0  0  0  0  0  0  0
  142.1600   72.3140  220.8100 C   0  0  0  0  0  0  0  0  0  0  0  0
  141.3780   73.5450  221.2050 C   0  0  0  0  0  0  0  0  0  0  0  0
  140.0830   73.1930  221.9190 C   0  0  0  0  0  0  0  0  0  0  0  0
  141.6163   71.2104  227.3095 H   0  0  0  0  0  0  0  0  0  0  0  0
  141.9839   69.5899  229.1453 H   0  0  0  0  0  0  0  0  0  0  0  0
  140.7768   67.4500  229.1465 H   0  0  0  0  0  0  0  0  0  0  0  0
  139.1639   66.8511  227.3361 H   0  0  0  0  0  0  0  0  0  0  0  0
  137.8784   68.1578  222.5728 H   0  0  0  0  0  0  0  0  0  0  0  0
  135.6865   68.6683  222.3072 H   0  0  0  0  0  0  0  0  0  0  0  0
  135.7156   71.5047  224.1084 H   0  0  0  0  0  0  0  0  0  0  0  0
  134.2247   72.1953  225.9705 H   0  0  0  0  0  0  0  0  0  0  0  0
  132.9523   70.5085  227.2930 H   0  0  0  0  0  0  0  0  0  0  0  0
  134.6525   67.4459  224.8870 H   0  0  0  0  0  0  0  0  0  0  0  0
  138.1214   71.1383  222.5740 H   0  0  0  0  0  0  0  0  0  0  0  0
  138.6736   72.3915  223.8180 H   0  0  0  0  0  0  0  0  0  0  0  0
  140.9973   71.7306  223.1174 H   0  0  0  0  0  0  0  0  0  0  0  0
  140.6058   69.8170  221.7667 H   0  0  0  0  0  0  0  0  0  0  0  0
  139.2860   70.6596  220.8490 H   0  0  0  0  0  0  0  0  0  0  0  0
  141.8679   70.3541  220.0098 H   0  0  0  0  0  0  0  0  0  0  0  0
  140.6846   71.6160  219.4501 H   0  0  0  0  0  0  0  0  0  0  0  0
  142.7118   71.9449  221.6871 H   0  0  0  0  0  0  0  0  0  0  0  0
  142.8504   72.5902  219.9994 H   0  0  0  0  0  0  0  0  0  0  0  0
  141.9974   74.1591  221.8753 H   0  0  0  0  0  0  0  0  0  0  0  0
  141.1211   74.0932  220.2866 H   0  0  0  0  0  0  0  0  0  0  0  0
  139.9325   73.8938  222.7534 H   0  0  0  0  0  0  0  0  0  0  0  0
  139.2579   73.2651  221.1951 H   0  0  0  0  0  0  0  0  0  0  0  0
  1  2  2  0
  2  3  1  0
  3  4  2  0
  4  5  1  0
  5  6  2  0
  6  7  1  0
  7  8  2  0
  8  9  1  0
  9 10  2  0
 10 11  1  0
 11 12  2  0
 12 13  1  0
 13 14  2  0
 14 15  1  0
 15 16  2  0
 16 17  1  0
 17 18  2  0
 10 19  1  0
 19 20  1  0
 20 21  1  0
 21 22  1  0
 22 23  1  0
 23 24  1  0
 24 25  1  0
 25 26  1  0
 19  2  1  0
 26 21  1  0
  8  3  1  0
 18 13  1  0
  4 27  1  0
  5 28  1  0
  6 29  1  0
  7 30  1  0
 11 31  1  0
 12 32  1  0
 14 33  1  0
 15 34  1  0
 16 35  1  0
 18 36  1  0
 20 37  1  0
 20 38  1  0
 21 39  1  0
 22 40  1  0
 22 41  1  0
 23 42  1  0
 23 43  1  0
 24 44  1  0
 24 45  1  0
 25 46  1  0
 25 47  1  0
 26 48  1  0
 26 49  1  0
M  END
>  <smiles>  (18) 
O=c1c2ccccc2nc(/C=C/c2cccnc2)n1CC1CCCCC1

>  <score_type>  (18) 
oracle

>  <origin>  (18) 
autodockgpu

>  <m_score__min__energy>  (18) 
-7.3099999999999996

>  <m_primary>  (18) 
energy

>  <rmsd>  (18) 
10.729539999059146

>  <m_score__min__rmsd>  (18) 
10.729539999059146

>  <meeko>  (18) 
{"free_energy": -7.22, "intermolecular_energy": -8.71, "internal_energy": -1.38, "cluster_size": 16, "cluster_id": 2, "rank_in_cluster": 8}

>  <energy>  (18) 
-7.22

>  <cluster_rmsd>  (18) 
0.08

>  <cluster>  (18) 
2

$$$$

     RDKit          3D

 49 52  0  0  0  0  0  0  0  0999 V2000
  142.7710   76.4400  219.8640 O   0  0  0  0  0  0  0  0  0  0  0  0
  141.8730   75.8920  220.5440 C   0  0  0  0  0  0  0  0  0  0  0  0
  141.9930   74.5380  220.7490 C   0  0  0  0  0  0  0  0  0  0  0  0
  143.0490   73.8280  220.2220 C   0  0  0  0  0  0  0  0  0  0  0  0
  143.1090   72.4900  220.4590 C   0  0  0  0  0  0  0  0  0  0  0  0
  142.1250   71.8880  221.2100 C   0  0  0  0  0  0  0  0  0  0  0  0
  141.0530   72.5890  221.7500 C   0  0  0  0  0  0  0  0  0  0  0  0
  141.0190   73.9370  221.4930 C   0  0  0  0  0  0  0  0  0  0  0  0
  140.0320   74.6600  221.9710 N   0  0  0  0  0  0  0  0  0  0  0  0
  139.8740   76.0140  221.7910 C   0  0  0  0  0  0  0  0  0  0  0  0
  138.7340   76.5790  222.4320 C   0  0  0  0  0  0  0  0  0  0  0  0
  137.8790   77.4830  222.0770 C   0  0  0  0  0  0  0  0  0  0  0  0
  138.0490   78.9300  222.3250 C   0  0  0  0  0  0  0  0  0  0  0  0
  138.2720   79.4590  223.5680 C   0  0  0  0  0  0  0  0  0  0  0  0
  138.4210   80.8410  223.7230 C   0  0  0  0  0  0  0  0  0  0  0  0
  138.3500   81.7060  222.6490 C   0  0  0  0  0  0  0  0  0  0  0  0
  138.1270   81.1530  221.4290 N   0  0  0  0  0  0  0  0  0  0  0  0
  137.9830   79.8260  221.2700 C   0  0  0  0  0  0  0  0  0  0  0  0
  140.8170   76.6090  221.0660 N   0  0  0  0  0  0  0  0  0  0  0  0
  140.8550   78.0180  220.7730 C   0  0  0  0  0  0  0  0  0  0  0  0
  141.6350   78.8700  221.7140 C   0  0  0  0  0  0  0  0  0  0  0  0
  141.4240   80.3370  221.3650 C   0  0  0  0  0  0  0  0  0  0  0  0
  141.9020   81.2450  222.4540 C   0  0  0  0  0  0  0  0  0  0  0  0
  142.8440   80.5480  223.4120 C   0  0  0  0  0  0  0  0  0  0  0  0
  142.1750   79.3810  224.0990 C   0  0  0  0  0  0  0  0  0  0  0  0
  141.2820   78.5960  223.1510 C   0  0  0  0  0  0  0  0  0  0  0  0
  143.8242   74.3303  219.6246 H   0  0  0  0  0  0  0  0  0  0  0  0
  143.9387   71.8927  220.0530 H   0  0  0  0  0  0  0  0  0  0  0  0
  142.1898   70.8049  221.3907 H   0  0  0  0  0  0  0  0  0  0  0  0
  140.2760   72.0918  222.3492 H   0  0  0  0  0  0  0  0  0  0  0  0
  138.5416   76.1621  223.4316 H   0  0  0  0  0  0  0  0  0  0  0  0
  136.9672   77.1534  221.5573 H   0  0  0  0  0  0  0  0  0  0  0  0
  138.3340   78.7972  224.4445 H   0  0  0  0  0  0  0  0  0  0  0  0
  138.5997   81.2502  224.7283 H   0  0  0  0  0  0  0  0  0  0  0  0
  138.4686   82.7922  222.7758 H   0  0  0  0  0  0  0  0  0  0  0  0
  137.8049   79.4341  220.2577 H   0  0  0  0  0  0  0  0  0  0  0  0
  141.2920   78.1397  219.7709 H   0  0  0  0  0  0  0  0  0  0  0  0
  139.8142   78.3628  220.8613 H   0  0  0  0  0  0  0  0  0  0  0  0
  142.7006   78.6210  221.6022 H   0  0  0  0  0  0  0  0  0  0  0  0
  141.9777   80.5661  220.4426 H   0  0  0  0  0  0  0  0  0  0  0  0
  140.3448   80.5035  221.2321 H   0  0  0  0  0  0  0  0  0  0  0  0
  142.4276   82.0972  221.9985 H   0  0  0  0  0  0  0  0  0  0  0  0
  141.0228   81.5745  223.0271 H   0  0  0  0  0  0  0  0  0  0  0  0
  143.7158   80.1801  222.8511 H   0  0  0  0  0  0  0  0  0  0  0  0
  143.1492   81.2717  224.1821 H   0  0  0  0  0  0  0  0  0  0  0  0
  142.9513   78.7089  224.4936 H   0  0  0  0  0  0  0  0  0  0  0  0
  141.5443   79.7794  224.9074 H   0  0  0  0  0  0  0  0  0  0  0  0
  141.4041   77.5213  223.3513 H   0  0  0  0  0  0  0  0  0  0  0  0
  140.2402   78.9073  223.3179 H   0  0  0  0  0  0  0  0  0  0  0  0
  1  2  2  0
  2  3  1  0
  3  4  2  0
  4  5  1  0
  5  6  2  0
  6  7  1  0
  7  8  2  0
  8  9  1  0
  9 10  2  0
 10 11  1  0
 11 12  2  0
 12 13  1  0
 13 14  2  0
 14 15  1  0
 15 16  2  0
 16 17  1  0
 17 18  2  0
 10 19  1  0
 19 20  1  0
 20 21  1  0
 21 22  1  0
 22 23  1  0
 23 24  1  0
 24 25  1  0
 25 26  1  0
 19  2  1  0
 26 21  1  0
  8  3  1  0
 18 13  1  0
  4 27  1  0
  5 28  1  0
  6 29  1  0
  7 30  1  0
 11 31  1  0
 12 32  1  0
 14 33  1  0
 15 34  1  0
 16 35  1  0
 18 36  1  0
 20 37  1  0
 20 38  1  0
 21 39  1  0
 22 40  1  0
 22 41  1  0
 23 42  1  0
 23 43  1  0
 24 44  1  0
 24 45  1  0
 25 46  1  0
 25 47  1  0
 26 48  1  0
 26 49  1  0
M  END
>  <smiles>  (19) 
O=c1c2ccccc2nc(/C=C/c2cccnc2)n1CC1CCCCC1

>  <score_type>  (19) 
oracle

>  <origin>  (19) 
autodockgpu

>  <m_score__min__energy>  (19) 
-7.3099999999999996

>  <m_primary>  (19) 
energy

>  <rmsd>  (19) 
7.516906352848955

>  <m_score__min__rmsd>  (19) 
7.516906352848955

>  <meeko>  (19) 
{"free_energy": -6.53, "intermolecular_energy": -8.02, "internal_energy": -1.95, "cluster_size": 15, "cluster_id": 5, "rank_in_cluster": 8}

>  <energy>  (19) 
-7.21

>  <cluster_rmsd>  (19) 
0.1

>  <cluster>  (19) 
2

$$$$

     RDKit          3D

 49 52  0  0  0  0  0  0  0  0999 V2000
  138.8340   67.7750  225.2800 O   0  0  0  0  0  0  0  0  0  0  0  0
  139.2410   68.9550  225.1830 C   0  0  0  0  0  0  0  0  0  0  0  0
  139.9230   69.4640  226.2630 C   0  0  0  0  0  0  0  0  0  0  0  0
  140.1340   68.7070  227.3940 C   0  0  0  0  0  0  0  0  0  0  0  0
  140.8140   69.2700  228.4280 C   0  0  0  0  0  0  0  0  0  0  0  0
  141.2660   70.5660  228.3210 C   0  0  0  0  0  0  0  0  0  0  0  0
  141.0620   71.3440  227.1870 C   0  0  0  0  0  0  0  0  0  0  0  0
  140.3730   70.7490  226.1600 C   0  0  0  0  0  0  0  0  0  0  0  0
  140.1420   71.4280  225.0600 N   0  0  0  0  0  0  0  0  0  0  0  0
  139.4660   70.9590  223.9580 C   0  0  0  0  0  0  0  0  0  0  0  0
  139.3670   71.8780  222.8740 C   0  0  0  0  0  0  0  0  0  0  0  0
  139.8500   71.8810  221.6730 C   0  0  0  0  0  0  0  0  0  0  0  0
  141.0780   72.6000  221.2740 C   0  0  0  0  0  0  0  0  0  0  0  0
  141.1650   73.9650  221.2130 C   0  0  0  0  0  0  0  0  0  0  0  0
  142.3620   74.5730  220.8250 C   0  0  0  0  0  0  0  0  0  0  0  0
  143.4810   73.8340  220.4940 C   0  0  0  0  0  0  0  0  0  0  0  0
  143.3640   72.4820  220.5630 N   0  0  0  0  0  0  0  0  0  0  0  0
  142.2170   71.8890  220.9360 C   0  0  0  0  0  0  0  0  0  0  0  0
  139.0220   69.7090  224.0480 N   0  0  0  0  0  0  0  0  0  0  0  0
  138.3100   69.0170  223.0060 C   0  0  0  0  0  0  0  0  0  0  0  0
  139.1320   68.2010  222.0700 C   0  0  0  0  0  0  0  0  0  0  0  0
  138.7830   66.7290  222.2360 C   0  0  0  0  0  0  0  0  0  0  0  0
  139.3200   65.8970  221.1140 C   0  0  0  0  0  0  0  0  0  0  0  0
  140.4100   66.6070  220.3420 C   0  0  0  0  0  0  0  0  0  0  0  0
  139.9060   67.8860  219.7150 C   0  0  0  0  0  0  0  0  0  0  0  0
  138.9660   68.6420  220.6400 C   0  0  0  0  0  0  0  0  0  0  0  0
  139.7621   67.6738  227.4591 H   0  0  0  0  0  0  0  0  0  0  0  0
  141.0020   68.6929  229.3454 H   0  0  0  0  0  0  0  0  0  0  0  0
  141.8120   71.0048  229.1691 H   0  0  0  0  0  0  0  0  0  0  0  0
  141.4318   72.3776  227.1169 H   0  0  0  0  0  0  0  0  0  0  0  0
  138.7569   72.7640  223.1040 H   0  0  0  0  0  0  0  0  0  0  0  0
  139.3122   71.3122  220.9002 H   0  0  0  0  0  0  0  0  0  0  0  0
  140.2922   74.5834  221.4695 H   0  0  0  0  0  0  0  0  0  0  0  0
  142.4145   75.6709  220.7820 H   0  0  0  0  0  0  0  0  0  0  0  0
  144.4213   74.3166  220.1893 H   0  0  0  0  0  0  0  0  0  0  0  0
  142.1816   70.7902  220.9745 H   0  0  0  0  0  0  0  0  0  0  0  0
  137.5840   68.3447  223.4866 H   0  0  0  0  0  0  0  0  0  0  0  0
  137.8599   69.8066  222.3863 H   0  0  0  0  0  0  0  0  0  0  0  0
  140.1921   68.3512  222.3223 H   0  0  0  0  0  0  0  0  0  0  0  0
  139.2102   66.3670  223.1828 H   0  0  0  0  0  0  0  0  0  0  0  0
  137.6869   66.6367  222.2338 H   0  0  0  0  0  0  0  0  0  0  0  0
  139.7309   64.9653  221.5300 H   0  0  0  0  0  0  0  0  0  0  0  0
  138.4919   65.6961  220.4184 H   0  0  0  0  0  0  0  0  0  0  0  0
  141.2350   66.8473  221.0287 H   0  0  0  0  0  0  0  0  0  0  0  0
  140.7505   65.9402  219.5361 H   0  0  0  0  0  0  0  0  0  0  0  0
  140.7667   68.5295  219.4801 H   0  0  0  0  0  0  0  0  0  0  0  0
  139.3471   67.6211  218.8053 H   0  0  0  0  0  0  0  0  0  0  0  0
  139.1831   69.7181  220.5696 H   0  0  0  0  0  0  0  0  0  0  0  0
  137.9316   68.4320  220.3303 H   0  0  0  0  0  0  0  0  0  0  0  0
  1  2  2  0
  2  3  1  0
  3  4  2  0
  4  5  1  0
  5  6  2  0
  6  7  1  0
  7  8  2  0
  8  9  1  0
  9 10  2  0
 10 11  1  0
 11 12  2  0
 12 13  1  0
 13 14  2  0
 14 15  1  0
 15 16  2  0
 16 17  1  0
 17 18  2  0
 10 19  1  0
 19 20  1  0
 20 21  1  0
 21 22  1  0
 22 23  1  0
 23 24  1  0
 24 25  1  0
 25 26  1  0
 19  2  1  0
 26 21  1  0
  8  3  1  0
 18 13  1  0
  4 27  1  0
  5 28  1  0
  6 29  1  0
  7 30  1  0
 11 31  1  0
 12 32  1  0
 14 33  1  0
 15 34  1  0
 16 35  1  0
 18 36  1  0
 20 37  1  0
 20 38  1  0
 21 39  1  0
 22 40  1  0
 22 41  1  0
 23 42  1  0
 23 43  1  0
 24 44  1  0
 24 45  1  0
 25 46  1  0
 25 47  1  0
 26 48  1  0
 26 49  1  0
M  END
>  <smiles>  (20) 
O=c1c2ccccc2nc(/C=C/c2cccnc2)n1CC1CCCCC1

>  <score_type>  (20) 
oracle

>  <origin>  (20) 
autodockgpu

>  <m_score__min__energy>  (20) 
-7.3099999999999996

>  <m_primary>  (20) 
energy

>  <rmsd>  (20) 
11.91046221283407

>  <m_score__min__rmsd>  (20) 
11.91046221283407

>  <meeko>  (20) 
{"free_energy": -7.01, "intermolecular_energy": -8.51, "internal_energy": -1.34, "cluster_size": 8, "cluster_id": 1, "rank_in_cluster": 8}

>  <energy>  (20) 
-7.21

>  <cluster_rmsd>  (20) 
0.07

>  <cluster>  (20) 
2

$$$$

     RDKit          3D

 49 52  0  0  0  0  0  0  0  0999 V2000
  140.5250   74.4480  221.9940 O   0  0  0  0  0  0  0  0  0  0  0  0
  141.3690   74.9940  221.2480 C   0  0  0  0  0  0  0  0  0  0  0  0
  142.4160   74.2110  220.8210 C   0  0  0  0  0  0  0  0  0  0  0  0
  142.5240   72.8940  221.2080 C   0  0  0  0  0  0  0  0  0  0  0  0
  143.5840   72.1730  220.7540 C   0  0  0  0  0  0  0  0  0  0  0  0
  144.5100   72.7720  219.9300 C   0  0  0  0  0  0  0  0  0  0  0  0
  144.4160   74.0990  219.5290 C   0  0  0  0  0  0  0  0  0  0  0  0
  143.3370   74.8010  220.0040 C   0  0  0  0  0  0  0  0  0  0  0  0
  143.1870   76.0610  219.6660 N   0  0  0  0  0  0  0  0  0  0  0  0
  142.1580   76.8790  220.0690 C   0  0  0  0  0  0  0  0  0  0  0  0
  142.2000   78.2050  219.5460 C   0  0  0  0  0  0  0  0  0  0  0  0
  141.2810   79.0400  219.1830 C   0  0  0  0  0  0  0  0  0  0  0  0
  141.0340   80.3400  219.8410 C   0  0  0  0  0  0  0  0  0  0  0  0
  139.8930   81.0740  219.6530 C   0  0  0  0  0  0  0  0  0  0  0  0
  139.7330   82.2970  220.3110 C   0  0  0  0  0  0  0  0  0  0  0  0
  140.7000   82.8010  221.1580 C   0  0  0  0  0  0  0  0  0  0  0  0
  141.8200   82.0510  221.3250 N   0  0  0  0  0  0  0  0  0  0  0  0
  141.9830   80.8740  220.6970 C   0  0  0  0  0  0  0  0  0  0  0  0
  141.2560   76.3150  220.8660 N   0  0  0  0  0  0  0  0  0  0  0  0
  140.0920   76.9840  221.3860 C   0  0  0  0  0  0  0  0  0  0  0  0
  140.3340   78.2400  222.1490 C   0  0  0  0  0  0  0  0  0  0  0  0
  139.0410   78.6890  222.8140 C   0  0  0  0  0  0  0  0  0  0  0  0
  139.2820   79.7420  223.8500 C   0  0  0  0  0  0  0  0  0  0  0  0
  140.6330   80.4040  223.6950 C   0  0  0  0  0  0  0  0  0  0  0  0
  141.7600   79.4080  223.8360 C   0  0  0  0  0  0  0  0  0  0  0  0
  141.4410   78.0860  223.1570 C   0  0  0  0  0  0  0  0  0  0  0  0
  141.7719   72.4366  221.8677 H   0  0  0  0  0  0  0  0  0  0  0  0
  143.7007   71.1182  221.0433 H   0  0  0  0  0  0  0  0  0  0  0  0
  145.3615   72.1739  219.5735 H   0  0  0  0  0  0  0  0  0  0  0  0
  145.1643   74.5607  218.8681 H   0  0  0  0  0  0  0  0  0  0  0  0
  143.2207   78.5974  219.4272 H   0  0  0  0  0  0  0  0  0  0  0  0
  140.6429   78.7649  218.3303 H   0  0  0  0  0  0  0  0  0  0  0  0
  139.1029   80.7013  218.9845 H   0  0  0  0  0  0  0  0  0  0  0  0
  138.8106   82.8741  220.1494 H   0  0  0  0  0  0  0  0  0  0  0  0
  140.5695   83.7642  221.6731 H   0  0  0  0  0  0  0  0  0  0  0  0
  142.9112   80.3098  220.8705 H   0  0  0  0  0  0  0  0  0  0  0  0
  139.4397   77.2300  220.5351 H   0  0  0  0  0  0  0  0  0  0  0  0
  139.6520   76.2829  222.1105 H   0  0  0  0  0  0  0  0  0  0  0  0
  140.6635   79.0148  221.4411 H   0  0  0  0  0  0  0  0  0  0  0  0
  138.3678   79.0948  222.0445 H   0  0  0  0  0  0  0  0  0  0  0  0
  138.5936   77.8166  223.3127 H   0  0  0  0  0  0  0  0  0  0  0  0
  138.4998   80.5103  223.7616 H   0  0  0  0  0  0  0  0  0  0  0  0
  139.2582   79.2546  224.8358 H   0  0  0  0  0  0  0  0  0  0  0  0
  140.6904   80.8694  222.7000 H   0  0  0  0  0  0  0  0  0  0  0  0
  140.7394   81.1584  224.4884 H   0  0  0  0  0  0  0  0  0  0  0  0
  142.6671   79.8314  223.3801 H   0  0  0  0  0  0  0  0  0  0  0  0
  141.9075   79.2119  224.9083 H   0  0  0  0  0  0  0  0  0  0  0  0
  142.3430   77.7197  222.6449 H   0  0  0  0  0  0  0  0  0  0  0  0
  141.1121   77.3719  223.9264 H   0  0  0  0  0  0  0  0  0  0  0  0
  1  2  2  0
  2  3  1  0
  3  4  2  0
  4  5  1  0
  5  6  2  0
  6  7  1  0
  7  8  2  0
  8  9  1  0
  9 10  2  0
 10 11  1  0
 11 12  2  0
 12 13  1  0
 13 14  2  0
 14 15  1  0
 15 16  2  0
 16 17  1  0
 17 18  2  0
 10 19  1  0
 19 20  1  0
 20 21  1  0
 21 22  1  0
 22 23  1  0
 23 24  1  0
 24 25  1  0
 25 26  1  0
 19  2  1  0
 26 21  1  0
  8  3  1  0
 18 13  1  0
  4 27  1  0
  5 28  1  0
  6 29  1  0
  7 30  1  0
 11 31  1  0
 12 32  1  0
 14 33  1  0
 15 34  1  0
 16 35  1  0
 18 36  1  0
 20 37  1  0
 20 38  1  0
 21 39  1  0
 22 40  1  0
 22 41  1  0
 23 42  1  0
 23 43  1  0
 24 44  1  0
 24 45  1  0
 25 46  1  0
 25 47  1  0
 26 48  1  0
 26 49  1  0
M  END
>  <smiles>  (21) 
O=c1c2ccccc2nc(/C=C/c2cccnc2)n1CC1CCCCC1

>  <score_type>  (21) 
oracle

>  <origin>  (21) 
autodockgpu

>  <m_score__min__energy>  (21) 
-7.3099999999999996

>  <m_primary>  (21) 
energy

>  <rmsd>  (21) 
7.8179739245042015

>  <m_score__min__rmsd>  (21) 
7.8179739245042015

>  <meeko>  (21) 
{"free_energy": -6.44, "intermolecular_energy": -7.93, "internal_energy": -1.85, "cluster_size": 8, "cluster_id": 4, "rank_in_cluster": 2}

>  <energy>  (21) 
-7.21

>  <cluster_rmsd>  (21) 
0.05

>  <cluster>  (21) 
2

$$$$

     RDKit          3D

 49 52  0  0  0  0  0  0  0  0999 V2000
  138.9030   76.7120  222.5220 O   0  0  0  0  0  0  0  0  0  0  0  0
  139.9700   77.0620  221.9680 C   0  0  0  0  0  0  0  0  0  0  0  0
  140.5540   78.2180  222.4290 C   0  0  0  0  0  0  0  0  0  0  0  0
  139.9800   78.9520  223.4430 C   0  0  0  0  0  0  0  0  0  0  0  0
  140.6060   80.0880  223.8520 C   0  0  0  0  0  0  0  0  0  0  0  0
  141.7820   80.4710  223.2470 C   0  0  0  0  0  0  0  0  0  0  0  0
  142.3750   79.7430  222.2220 C   0  0  0  0  0  0  0  0  0  0  0  0
  141.7200   78.6030  221.8320 C   0  0  0  0  0  0  0  0  0  0  0  0
  142.2240   77.8680  220.8670 N   0  0  0  0  0  0  0  0  0  0  0  0
  141.6750   76.7060  220.3770 C   0  0  0  0  0  0  0  0  0  0  0  0
  142.4240   76.0730  219.3440 C   0  0  0  0  0  0  0  0  0  0  0  0
  142.7020   74.8350  219.0860 C   0  0  0  0  0  0  0  0  0  0  0  0
  143.9280   74.1470  219.5410 C   0  0  0  0  0  0  0  0  0  0  0  0
  144.3650   74.1670  220.8380 C   0  0  0  0  0  0  0  0  0  0  0  0
  145.5370   73.4920  221.1910 C   0  0  0  0  0  0  0  0  0  0  0  0
  146.2850   72.7950  220.2630 C   0  0  0  0  0  0  0  0  0  0  0  0
  145.8270   72.7940  218.9840 N   0  0  0  0  0  0  0  0  0  0  0  0
  144.7010   73.4390  218.6350 C   0  0  0  0  0  0  0  0  0  0  0  0
  140.5380   76.3240  220.9500 N   0  0  0  0  0  0  0  0  0  0  0  0
  139.8080   75.1320  220.6040 C   0  0  0  0  0  0  0  0  0  0  0  0
  139.8790   74.0060  221.5760 C   0  0  0  0  0  0  0  0  0  0  0  0
  138.5070   73.3590  221.7070 C   0  0  0  0  0  0  0  0  0  0  0  0
  138.5770   72.0350  222.4010 C   0  0  0  0  0  0  0  0  0  0  0  0
  139.8680   71.8560  223.1700 C   0  0  0  0  0  0  0  0  0  0  0  0
  141.0710   71.9190  222.2590 C   0  0  0  0  0  0  0  0  0  0  0  0
  140.9240   72.9930  221.1930 C   0  0  0  0  0  0  0  0  0  0  0  0
  139.0386   78.6276  223.9105 H   0  0  0  0  0  0  0  0  0  0  0  0
  140.1756   80.6968  224.6608 H   0  0  0  0  0  0  0  0  0  0  0  0
  142.2737   81.3934  223.5897 H   0  0  0  0  0  0  0  0  0  0  0  0
  143.3159   80.0630  221.7506 H   0  0  0  0  0  0  0  0  0  0  0  0
  142.8534   76.7792  218.6181 H   0  0  0  0  0  0  0  0  0  0  0  0
  141.9792   74.2585  218.4899 H   0  0  0  0  0  0  0  0  0  0  0  0
  143.7939   74.7142  221.6025 H   0  0  0  0  0  0  0  0  0  0  0  0
  145.8730   73.5168  222.2381 H   0  0  0  0  0  0  0  0  0  0  0  0
  147.2072   72.2661  220.5456 H   0  0  0  0  0  0  0  0  0  0  0  0
  144.3788   73.4033  217.5838 H   0  0  0  0  0  0  0  0  0  0  0  0
  138.7496   75.4091  220.4898 H   0  0  0  0  0  0  0  0  0  0  0  0
  140.2822   74.7554  219.6857 H   0  0  0  0  0  0  0  0  0  0  0  0
  140.1815   74.4125  222.5523 H   0  0  0  0  0  0  0  0  0  0  0  0
  137.8520   74.0285  222.2839 H   0  0  0  0  0  0  0  0  0  0  0  0
  138.1114   73.1920  220.6943 H   0  0  0  0  0  0  0  0  0  0  0  0
  137.7337   71.9589  223.1032 H   0  0  0  0  0  0  0  0  0  0  0  0
  138.5322   71.2497  221.6320 H   0  0  0  0  0  0  0  0  0  0  0  0
  139.9484   72.6536  223.9232 H   0  0  0  0  0  0  0  0  0  0  0  0
  139.8495   70.8652  223.6475 H   0  0  0  0  0  0  0  0  0  0  0  0
  141.9631   72.1390  222.8638 H   0  0  0  0  0  0  0  0  0  0  0  0
  141.1634   70.9475  221.7514 H   0  0  0  0  0  0  0  0  0  0  0  0
  141.8891   73.5050  221.0651 H   0  0  0  0  0  0  0  0  0  0  0  0
  140.6115   72.5102  220.2553 H   0  0  0  0  0  0  0  0  0  0  0  0
  1  2  2  0
  2  3  1  0
  3  4  2  0
  4  5  1  0
  5  6  2  0
  6  7  1  0
  7  8  2  0
  8  9  1  0
  9 10  2  0
 10 11  1  0
 11 12  2  0
 12 13  1  0
 13 14  2  0
 14 15  1  0
 15 16  2  0
 16 17  1  0
 17 18  2  0
 10 19  1  0
 19 20  1  0
 20 21  1  0
 21 22  1  0
 22 23  1  0
 23 24  1  0
 24 25  1  0
 25 26  1  0
 19  2  1  0
 26 21  1  0
  8  3  1  0
 18 13  1  0
  4 27  1  0
  5 28  1  0
  6 29  1  0
  7 30  1  0
 11 31  1  0
 12 32  1  0
 14 33  1  0
 15 34  1  0
 16 35  1  0
 18 36  1  0
 20 37  1  0
 20 38  1  0
 21 39  1  0
 22 40  1  0
 22 41  1  0
 23 42  1  0
 23 43  1  0
 24 44  1  0
 24 45  1  0
 25 46  1  0
 25 47  1  0
 26 48  1  0
 26 49  1  0
M  END
>  <smiles>  (22) 
O=c1c2ccccc2nc(/C=C/c2cccnc2)n1CC1CCCCC1

>  <score_type>  (22) 
oracle

>  <origin>  (22) 
autodockgpu

>  <m_score__min__energy>  (22) 
-7.3099999999999996

>  <m_primary>  (22) 
energy

>  <rmsd>  (22) 
5.014695156385893

>  <m_score__min__rmsd>  (22) 
5.014695156385893

>  <meeko>  (22) 
{"free_energy": -7.06, "intermolecular_energy": -8.55, "internal_energy": -1.48, "cluster_size": 3, "cluster_id": 3, "rank_in_cluster": 2}

>  <energy>  (22) 
-7.21

>  <cluster_rmsd>  (22) 
0.21

>  <cluster>  (22) 
2

$$$$

     RDKit          3D

 49 52  0  0  0  0  0  0  0  0999 V2000
  140.4830   71.8700  225.3250 O   0  0  0  0  0  0  0  0  0  0  0  0
  139.8970   70.7640  225.3140 C   0  0  0  0  0  0  0  0  0  0  0  0
  140.1850   69.9010  226.3450 C   0  0  0  0  0  0  0  0  0  0  0  0
  141.0820   70.2450  227.3320 C   0  0  0  0  0  0  0  0  0  0  0  0
  141.3260   69.3470  228.3240 C   0  0  0  0  0  0  0  0  0  0  0  0
  140.6780   68.1320  228.3150 C   0  0  0  0  0  0  0  0  0  0  0  0
  139.7700   67.7690  227.3270 C   0  0  0  0  0  0  0  0  0  0  0  0
  139.5450   68.6960  226.3400 C   0  0  0  0  0  0  0  0  0  0  0  0
  138.7000   68.4170  225.3740 N   0  0  0  0  0  0  0  0  0  0  0  0
  138.3830   69.2480  224.3260 C   0  0  0  0  0  0  0  0  0  0  0  0
  137.4160   68.7310  223.4160 C   0  0  0  0  0  0  0  0  0  0  0  0
  136.1360   68.8880  223.3050 C   0  0  0  0  0  0  0  0  0  0  0  0
  135.2660   69.3990  224.3850 C   0  0  0  0  0  0  0  0  0  0  0  0
  135.1750   70.7240  224.7150 C   0  0  0  0  0  0  0  0  0  0  0  0
  134.3300   71.1310  225.7510 C   0  0  0  0  0  0  0  0  0  0  0  0
  133.5690   70.2280  226.4670 C   0  0  0  0  0  0  0  0  0  0  0  0
  133.6790   68.9200  226.1180 N   0  0  0  0  0  0  0  0  0  0  0  0
  134.4890   68.5200  225.1220 C   0  0  0  0  0  0  0  0  0  0  0  0
  139.0020   70.4250  224.3200 N   0  0  0  0  0  0  0  0  0  0  0  0
  138.8020   71.4500  223.3290 C   0  0  0  0  0  0  0  0  0  0  0  0
  139.9970   71.8430  222.5320 C   0  0  0  0  0  0  0  0  0  0  0  0
  140.2380   70.8170  221.4350 C   0  0  0  0  0  0  0  0  0  0  0  0
  141.2050   71.3130  220.4070 C   0  0  0  0  0  0  0  0  0  0  0  0
  142.0210   72.4870  220.9030 C   0  0  0  0  0  0  0  0  0  0  0  0
  141.1430   73.6630  221.2600 C   0  0  0  0  0  0  0  0  0  0  0  0
  139.8660   73.2300  221.9620 C   0  0  0  0  0  0  0  0  0  0  0  0
  141.5883   71.2215  227.3183 H   0  0  0  0  0  0  0  0  0  0  0  0
  142.0363   69.5897  229.1281 H   0  0  0  0  0  0  0  0  0  0  0  0
  140.8880   67.4177  229.1248 H   0  0  0  0  0  0  0  0  0  0  0  0
  139.2607   66.7941  227.3356 H   0  0  0  0  0  0  0  0  0  0  0  0
  137.8439   68.0634  222.6536 H   0  0  0  0  0  0  0  0  0  0  0  0
  135.6659   68.6244  222.3461 H   0  0  0  0  0  0  0  0  0  0  0  0
  135.7675   71.4694  224.1643 H   0  0  0  0  0  0  0  0  0  0  0  0
  134.2694   72.2000  226.0031 H   0  0  0  0  0  0  0  0  0  0  0  0
  132.9050   70.5528  227.2816 H   0  0  0  0  0  0  0  0  0  0  0  0
  134.5368   67.4476  224.8818 H   0  0  0  0  0  0  0  0  0  0  0  0
  138.0347   71.0916  222.6270 H   0  0  0  0  0  0  0  0  0  0  0  0
  138.5183   72.3505  223.8934 H   0  0  0  0  0  0  0  0  0  0  0  0
  140.8674   71.8632  223.2043 H   0  0  0  0  0  0  0  0  0  0  0  0
  140.6414   69.8998  221.8889 H   0  0  0  0  0  0  0  0  0  0  0  0
  139.2782   70.6236  220.9336 H   0  0  0  0  0  0  0  0  0  0  0  0
  141.8895   70.4939  220.1413 H   0  0  0  0  0  0  0  0  0  0  0  0
  140.6249   71.6514  219.5358 H   0  0  0  0  0  0  0  0  0  0  0  0
  142.5846   72.1783  221.7958 H   0  0  0  0  0  0  0  0  0  0  0  0
  142.7017   72.7980  220.0968 H   0  0  0  0  0  0  0  0  0  0  0  0
  141.7037   74.3351  221.9262 H   0  0  0  0  0  0  0  0  0  0  0  0
  140.8609   74.1713  220.3262 H   0  0  0  0  0  0  0  0  0  0  0  0
  139.6502   73.9340  222.7792 H   0  0  0  0  0  0  0  0  0  0  0  0
  139.0495   73.2262  221.2249 H   0  0  0  0  0  0  0  0  0  0  0  0
  1  2  2  0
  2  3  1  0
  3  4  2  0
  4  5  1  0
  5  6  2  0
  6  7  1  0
  7  8  2  0
  8  9  1  0
  9 10  2  0
 10 11  1  0
 11 12  2  0
 12 13  1  0
 13 14  2  0
 14 15  1  0
 15 16  2  0
 16 17  1  0
 17 18  2  0
 10 19  1  0
 19 20  1  0
 20 21  1  0
 21 22  1  0
 22 23  1  0
 23 24  1  0
 24 25  1  0
 25 26  1  0
 19  2  1  0
 26 21  1  0
  8  3  1  0
 18 13  1  0
  4 27  1  0
  5 28  1  0
  6 29  1  0
  7 30  1  0
 11 31  1  0
 12 32  1  0
 14 33  1  0
 15 34  1  0
 16 35  1  0
 18 36  1  0
 20 37  1  0
 20 38  1  0
 21 39  1  0
 22 40  1  0
 22 41  1  0
 23 42  1  0
 23 43  1  0
 24 44  1  0
 24 45  1  0
 25 46  1  0
 25 47  1  0
 26 48  1  0
 26 49  1  0
M  END
>  <smiles>  (23) 
O=c1c2ccccc2nc(/C=C/c2cccnc2)n1CC1CCCCC1

>  <score_type>  (23) 
oracle

>  <origin>  (23) 
autodockgpu

>  <m_score__min__energy>  (23) 
-7.3099999999999996

>  <m_primary>  (23) 
energy

>  <rmsd>  (23) 
10.737277888305307

>  <m_score__min__rmsd>  (23) 
10.737277888305307

>  <meeko>  (23) 
{"free_energy": -7.23, "intermolecular_energy": -8.72, "internal_energy": -1.38, "cluster_size": 16, "cluster_id": 2, "rank_in_cluster": 3}

>  <energy>  (23) 
-7.18

>  <cluster_rmsd>  (23) 
0.1

>  <cluster>  (23) 
2

$$$$

     RDKit          3D

 49 52  0  0  0  0  0  0  0  0999 V2000
  140.5840   71.8890  225.3000 O   0  0  0  0  0  0  0  0  0  0  0  0
  139.9540   70.8080  225.2830 C   0  0  0  0  0  0  0  0  0  0  0  0
  140.1820   69.9440  226.3280 C   0  0  0  0  0  0  0  0  0  0  0  0
  141.0680   70.2600  227.3330 C   0  0  0  0  0  0  0  0  0  0  0  0
  141.2510   69.3610  228.3380 C   0  0  0  0  0  0  0  0  0  0  0  0
  140.5550   68.1730  228.3230 C   0  0  0  0  0  0  0  0  0  0  0  0
  139.6560   67.8390  227.3160 C   0  0  0  0  0  0  0  0  0  0  0  0
  139.4940   68.7650  226.3170 C   0  0  0  0  0  0  0  0  0  0  0  0
  138.6610   68.5120  225.3330 N   0  0  0  0  0  0  0  0  0  0  0  0
  138.4030   69.3460  224.2700 C   0  0  0  0  0  0  0  0  0  0  0  0
  137.4380   68.8600  223.3420 C   0  0  0  0  0  0  0  0  0  0  0  0
  136.1460   68.9240  223.2970 C   0  0  0  0  0  0  0  0  0  0  0  0
  135.3020   69.4520  224.3900 C   0  0  0  0  0  0  0  0  0  0  0  0
  135.1700   70.7870  224.6600 C   0  0  0  0  0  0  0  0  0  0  0  0
  134.3540   71.2100  225.7140 C   0  0  0  0  0  0  0  0  0  0  0  0
  133.6640   70.3130  226.5060 C   0  0  0  0  0  0  0  0  0  0  0  0
  133.8150   68.9950  226.2140 N   0  0  0  0  0  0  0  0  0  0  0  0
  134.5970   68.5790  225.2030 C   0  0  0  0  0  0  0  0  0  0  0  0
  139.0690   70.4970  224.2710 N   0  0  0  0  0  0  0  0  0  0  0  0
  138.9350   71.5190  223.2670 C   0  0  0  0  0  0  0  0  0  0  0  0
  140.1510   71.8220  222.4620 C   0  0  0  0  0  0  0  0  0  0  0  0
  140.2860   70.8020  221.3410 C   0  0  0  0  0  0  0  0  0  0  0  0
  141.2820   71.2330  220.3100 C   0  0  0  0  0  0  0  0  0  0  0  0
  142.2040   72.3180  220.8190 C   0  0  0  0  0  0  0  0  0  0  0  0
  141.4390   73.5600  221.2110 C   0  0  0  0  0  0  0  0  0  0  0  0
  140.1370   73.2270  221.9210 C   0  0  0  0  0  0  0  0  0  0  0  0
  141.6141   71.2148  227.3239 H   0  0  0  0  0  0  0  0  0  0  0  0
  141.9508   69.5820  229.1575 H   0  0  0  0  0  0  0  0  0  0  0  0
  140.7170   67.4575  229.1427 H   0  0  0  0  0  0  0  0  0  0  0  0
  139.1060   66.8864  227.3203 H   0  0  0  0  0  0  0  0  0  0  0  0
  137.8803   68.3211  222.4912 H   0  0  0  0  0  0  0  0  0  0  0  0
  135.6439   68.5625  222.3875 H   0  0  0  0  0  0  0  0  0  0  0  0
  135.7058   71.5275  224.0479 H   0  0  0  0  0  0  0  0  0  0  0  0
  134.2590   72.2867  225.9180 H   0  0  0  0  0  0  0  0  0  0  0  0
  133.0227   70.6500  227.3338 H   0  0  0  0  0  0  0  0  0  0  0  0
  134.6809   67.4988  225.0128 H   0  0  0  0  0  0  0  0  0  0  0  0
  138.1437   71.2027  222.5714 H   0  0  0  0  0  0  0  0  0  0  0  0
  138.7136   72.4437  223.8200 H   0  0  0  0  0  0  0  0  0  0  0  0
  141.0276   71.7514  223.1228 H   0  0  0  0  0  0  0  0  0  0  0  0
  140.6112   69.8429  221.7704 H   0  0  0  0  0  0  0  0  0  0  0  0
  139.3069   70.7051  220.8491 H   0  0  0  0  0  0  0  0  0  0  0  0
  141.8878   70.3625  220.0182 H   0  0  0  0  0  0  0  0  0  0  0  0
  140.7243   71.6405  219.4539 H   0  0  0  0  0  0  0  0  0  0  0  0
  142.7473   71.9412  221.6981 H   0  0  0  0  0  0  0  0  0  0  0  0
  142.9007   72.5843  220.0105 H   0  0  0  0  0  0  0  0  0  0  0  0
  142.0651   74.1653  221.8830 H   0  0  0  0  0  0  0  0  0  0  0  0
  141.1930   74.1116  220.2916 H   0  0  0  0  0  0  0  0  0  0  0  0
  139.9937   73.9302  222.7546 H   0  0  0  0  0  0  0  0  0  0  0  0
  139.3150   73.3105  221.1948 H   0  0  0  0  0  0  0  0  0  0  0  0
  1  2  2  0
  2  3  1  0
  3  4  2  0
  4  5  1  0
  5  6  2  0
  6  7  1  0
  7  8  2  0
  8  9  1  0
  9 10  2  0
 10 11  1  0
 11 12  2  0
 12 13  1  0
 13 14  2  0
 14 15  1  0
 15 16  2  0
 16 17  1  0
 17 18  2  0
 10 19  1  0
 19 20  1  0
 20 21  1  0
 21 22  1  0
 22 23  1  0
 23 24  1  0
 24 25  1  0
 25 26  1  0
 19  2  1  0
 26 21  1  0
  8  3  1  0
 18 13  1  0
  4 27  1  0
  5 28  1  0
  6 29  1  0
  7 30  1  0
 11 31  1  0
 12 32  1  0
 14 33  1  0
 15 34  1  0
 16 35  1  0
 18 36  1  0
 20 37  1  0
 20 38  1  0
 21 39  1  0
 22 40  1  0
 22 41  1  0
 23 42  1  0
 23 43  1  0
 24 44  1  0
 24 45  1  0
 25 46  1  0
 25 47  1  0
 26 48  1  0
 26 49  1  0
M  END
>  <smiles>  (24) 
O=c1c2ccccc2nc(/C=C/c2cccnc2)n1CC1CCCCC1

>  <score_type>  (24) 
oracle

>  <origin>  (24) 
autodockgpu

>  <m_score__min__energy>  (24) 
-7.3099999999999996

>  <m_primary>  (24) 
energy

>  <rmsd>  (24) 
10.714484094936298

>  <m_score__min__rmsd>  (24) 
10.714484094936298

>  <meeko>  (24) 
{"free_energy": -7.22, "intermolecular_energy": -8.71, "internal_energy": -1.39, "cluster_size": 16, "cluster_id": 2, "rank_in_cluster": 9}

>  <energy>  (24) 
-6.84

>  <cluster_rmsd>  (24) 
0.45

>  <cluster>  (24) 
2

$$$$

     RDKit          3D

 49 52  0  0  0  0  0  0  0  0999 V2000
  140.5670   71.8750  225.2970 O   0  0  0  0  0  0  0  0  0  0  0  0
  139.9490   70.7870  225.2820 C   0  0  0  0  0  0  0  0  0  0  0  0
  140.1860   69.9270  226.3280 C   0  0  0  0  0  0  0  0  0  0  0  0
  141.0690   70.2540  227.3330 C   0  0  0  0  0  0  0  0  0  0  0  0
  141.2620   69.3590  228.3390 C   0  0  0  0  0  0  0  0  0  0  0  0
  140.5790   68.1640  228.3260 C   0  0  0  0  0  0  0  0  0  0  0  0
  139.6840   67.8180  227.3200 C   0  0  0  0  0  0  0  0  0  0  0  0
  139.5110   68.7400  226.3190 C   0  0  0  0  0  0  0  0  0  0  0  0
  138.6820   68.4770  225.3350 N   0  0  0  0  0  0  0  0  0  0  0  0
  138.4140   69.3070  224.2720 C   0  0  0  0  0  0  0  0  0  0  0  0
  137.4540   68.8090  223.3440 C   0  0  0  0  0  0  0  0  0  0  0  0
  136.1660   68.9070  223.2680 C   0  0  0  0  0  0  0  0  0  0  0  0
  135.3060   69.4080  224.3610 C   0  0  0  0  0  0  0  0  0  0  0  0
  135.1760   70.7360  224.6680 C   0  0  0  0  0  0  0  0  0  0  0  0
  134.3430   71.1320  225.7190 C   0  0  0  0  0  0  0  0  0  0  0  0
  133.6360   70.2160  226.4730 C   0  0  0  0  0  0  0  0  0  0  0  0
  133.7860   68.9070  226.1460 N   0  0  0  0  0  0  0  0  0  0  0  0
  134.5830   68.5170  225.1370 C   0  0  0  0  0  0  0  0  0  0  0  0
  139.0680   70.4640  224.2700 N   0  0  0  0  0  0  0  0  0  0  0  0
  138.9220   71.4840  223.2650 C   0  0  0  0  0  0  0  0  0  0  0  0
  140.1280   71.7810  222.4420 C   0  0  0  0  0  0  0  0  0  0  0  0
  140.2290   70.7740  221.3060 C   0  0  0  0  0  0  0  0  0  0  0  0
  141.2120   71.2050  220.2630 C   0  0  0  0  0  0  0  0  0  0  0  0
  142.1580   72.2710  220.7690 C   0  0  0  0  0  0  0  0  0  0  0  0
  141.4170   73.5180  221.1910 C   0  0  0  0  0  0  0  0  0  0  0  0
  140.1230   73.1930  221.9200 C   0  0  0  0  0  0  0  0  0  0  0  0
  141.6047   71.2147  227.3225 H   0  0  0  0  0  0  0  0  0  0  0  0
  141.9596   69.5888  229.1579 H   0  0  0  0  0  0  0  0  0  0  0  0
  140.7487   67.4520  229.1471 H   0  0  0  0  0  0  0  0  0  0  0  0
  139.1450   66.8591  227.3263 H   0  0  0  0  0  0  0  0  0  0  0  0
  137.8980   68.2222  222.5264 H   0  0  0  0  0  0  0  0  0  0  0  0
  135.6802   68.5979  222.3307 H   0  0  0  0  0  0  0  0  0  0  0  0
  135.7267   71.4912  224.0880 H   0  0  0  0  0  0  0  0  0  0  0  0
  134.2482   72.2029  225.9517 H   0  0  0  0  0  0  0  0  0  0  0  0
  132.9824   70.5321  227.2993 H   0  0  0  0  0  0  0  0  0  0  0  0
  134.6650   67.4423  224.9174 H   0  0  0  0  0  0  0  0  0  0  0  0
  138.1201   71.1680  222.5816 H   0  0  0  0  0  0  0  0  0  0  0  0
  138.7104   72.4109  223.8182 H   0  0  0  0  0  0  0  0  0  0  0  0
  141.0155   71.6897  223.0854 H   0  0  0  0  0  0  0  0  0  0  0  0
  140.5488   69.8051  221.7172 H   0  0  0  0  0  0  0  0  0  0  0  0
  139.2401   70.6965  220.8306 H   0  0  0  0  0  0  0  0  0  0  0  0
  141.8005   70.3303  219.9491 H   0  0  0  0  0  0  0  0  0  0  0  0
  140.6446   71.6312  219.4225 H   0  0  0  0  0  0  0  0  0  0  0  0
  142.7121   71.8755  221.6331 H   0  0  0  0  0  0  0  0  0  0  0  0
  142.8435   72.5385  219.9514 H   0  0  0  0  0  0  0  0  0  0  0  0
  142.0632   74.1058  221.8595 H   0  0  0  0  0  0  0  0  0  0  0  0
  141.1623   74.0850  220.2835 H   0  0  0  0  0  0  0  0  0  0  0  0
  140.0041   73.8869  222.7652 H   0  0  0  0  0  0  0  0  0  0  0  0
  139.2893   73.2973  221.2100 H   0  0  0  0  0  0  0  0  0  0  0  0
  1  2  2  0
  2  3  1  0
  3  4  2  0
  4  5  1  0
  5  6  2  0
  6  7  1  0
  7  8  2  0
  8  9  1  0
  9 10  2  0
 10 11  1  0
 11 12  2  0
 12 13  1  0
 13 14  2  0
 14 15  1  0
 15 16  2  0
 16 17  1  0
 17 18  2  0
 10 19  1  0
 19 20  1  0
 20 21  1  0
 21 22  1  0
 22 23  1  0
 23 24  1  0
 24 25  1  0
 25 26  1  0
 19  2  1  0
 26 21  1  0
  8  3  1  0
 18 13  1  0
  4 27  1  0
  5 28  1  0
  6 29  1  0
  7 30  1  0
 11 31  1  0
 12 32  1  0
 14 33  1  0
 15 34  1  0
 16 35  1  0
 18 36  1  0
 20 37  1  0
 20 38  1  0
 21 39  1  0
 22 40  1  0
 22 41  1  0
 23 42  1  0
 23 43  1  0
 24 44  1  0
 24 45  1  0
 25 46  1  0
 25 47  1  0
 26 48  1  0
 26 49  1  0
M  END
>  <smiles>  (25) 
O=c1c2ccccc2nc(/C=C/c2cccnc2)n1CC1CCCCC1

>  <score_type>  (25) 
oracle

>  <origin>  (25) 
autodockgpu

>  <m_score__min__energy>  (25) 
-7.3099999999999996

>  <m_primary>  (25) 
energy

>  <rmsd>  (25) 
10.723585429790749

>  <m_score__min__rmsd>  (25) 
10.723585429790749

>  <meeko>  (25) 
{"free_energy": -7.21, "intermolecular_energy": -8.7, "internal_energy": -1.39, "cluster_size": 16, "cluster_id": 2, "rank_in_cluster": 11}

>  <energy>  (25) 
-7.07

>  <cluster_rmsd>  (25) 
0.0

>  <cluster>  (25) 
3

$$$$

     RDKit          3D

 49 52  0  0  0  0  0  0  0  0999 V2000
  142.8460   76.4600  219.8340 O   0  0  0  0  0  0  0  0  0  0  0  0
  141.9410   75.9310  220.5180 C   0  0  0  0  0  0  0  0  0  0  0  0
  142.0390   74.5760  220.7300 C   0  0  0  0  0  0  0  0  0  0  0  0
  143.0820   73.8460  220.2050 C   0  0  0  0  0  0  0  0  0  0  0  0
  143.1210   72.5090  220.4490 C   0  0  0  0  0  0  0  0  0  0  0  0
  142.1290   71.9260  221.2040 C   0  0  0  0  0  0  0  0  0  0  0  0
  141.0700   72.6480  221.7430 C   0  0  0  0  0  0  0  0  0  0  0  0
  141.0570   73.9940  221.4790 C   0  0  0  0  0  0  0  0  0  0  0  0
  140.0830   74.7360  221.9550 N   0  0  0  0  0  0  0  0  0  0  0  0
  139.9460   76.0910  221.7680 C   0  0  0  0  0  0  0  0  0  0  0  0
  138.8170   76.6780  222.4090 C   0  0  0  0  0  0  0  0  0  0  0  0
  137.9580   77.5730  222.0390 C   0  0  0  0  0  0  0  0  0  0  0  0
  138.0960   79.0190  222.3150 C   0  0  0  0  0  0  0  0  0  0  0  0
  138.2940   79.5300  223.5690 C   0  0  0  0  0  0  0  0  0  0  0  0
  138.4130   80.9110  223.7500 C   0  0  0  0  0  0  0  0  0  0  0  0
  138.3360   81.7940  222.6910 C   0  0  0  0  0  0  0  0  0  0  0  0
  138.1370   81.2580  221.4590 N   0  0  0  0  0  0  0  0  0  0  0  0
  138.0230   79.9310  221.2750 C   0  0  0  0  0  0  0  0  0  0  0  0
  140.8970   76.6670  221.0390 N   0  0  0  0  0  0  0  0  0  0  0  0
  140.9570   78.0740  220.7380 C   0  0  0  0  0  0  0  0  0  0  0  0
  141.6880   78.9300  221.7140 C   0  0  0  0  0  0  0  0  0  0  0  0
  141.4510   80.3960  221.3820 C   0  0  0  0  0  0  0  0  0  0  0  0
  141.8740   81.2980  222.4980 C   0  0  0  0  0  0  0  0  0  0  0  0
  142.8050   80.6090  223.4730 C   0  0  0  0  0  0  0  0  0  0  0  0
  142.1460   79.4150  224.1220 C   0  0  0  0  0  0  0  0  0  0  0  0
  141.3010   78.6240  223.1360 C   0  0  0  0  0  0  0  0  0  0  0  0
  143.8640   74.3324  219.6033 H   0  0  0  0  0  0  0  0  0  0  0  0
  143.9408   71.8968  220.0452 H   0  0  0  0  0  0  0  0  0  0  0  0
  142.1759   70.8427  221.3889 H   0  0  0  0  0  0  0  0  0  0  0  0
  140.2867   72.1669  222.3471 H   0  0  0  0  0  0  0  0  0  0  0  0
  138.6393   76.2926  223.4238 H   0  0  0  0  0  0  0  0  0  0  0  0
  137.0696   77.2366  221.4844 H   0  0  0  0  0  0  0  0  0  0  0  0
  138.3595   78.8541  224.4344 H   0  0  0  0  0  0  0  0  0  0  0  0
  138.5724   81.3054  224.7644 H   0  0  0  0  0  0  0  0  0  0  0  0
  138.4313   82.8799  222.8383 H   0  0  0  0  0  0  0  0  0  0  0  0
  137.8649   79.5531  220.2541 H   0  0  0  0  0  0  0  0  0  0  0  0
  141.4487   78.1864  219.7604 H   0  0  0  0  0  0  0  0  0  0  0  0
  139.9144   78.4235  220.7666 H   0  0  0  0  0  0  0  0  0  0  0  0
  142.7623   78.7094  221.6290 H   0  0  0  0  0  0  0  0  0  0  0  0
  142.0255   80.6534  220.4800 H   0  0  0  0  0  0  0  0  0  0  0  0
  140.3723   80.5380  221.2202 H   0  0  0  0  0  0  0  0  0  0  0  0
  142.3912   82.1700  222.0712 H   0  0  0  0  0  0  0  0  0  0  0  0
  140.9705   81.5968  223.0497 H   0  0  0  0  0  0  0  0  0  0  0  0
  143.7018   80.2718  222.9326 H   0  0  0  0  0  0  0  0  0  0  0  0
  143.0691   81.3277  224.2628 H   0  0  0  0  0  0  0  0  0  0  0  0
  142.9271   78.7559  224.5287 H   0  0  0  0  0  0  0  0  0  0  0  0
  141.4824   79.7844  224.9178 H   0  0  0  0  0  0  0  0  0  0  0  0
  141.4443   77.5495  223.3229 H   0  0  0  0  0  0  0  0  0  0  0  0
  140.2474   78.9069  223.2772 H   0  0  0  0  0  0  0  0  0  0  0  0
  1  2  2  0
  2  3  1  0
  3  4  2  0
  4  5  1  0
  5  6  2  0
  6  7  1  0
  7  8  2  0
  8  9  1  0
  9 10  2  0
 10 11  1  0
 11 12  2  0
 12 13  1  0
 13 14  2  0
 14 15  1  0
 15 16  2  0
 16 17  1  0
 17 18  2  0
 10 19  1  0
 19 20  1  0
 20 21  1  0
 21 22  1  0
 22 23  1  0
 23 24  1  0
 24 25  1  0
 25 26  1  0
 19  2  1  0
 26 21  1  0
  8  3  1  0
 18 13  1  0
  4 27  1  0
  5 28  1  0
  6 29  1  0
  7 30  1  0
 11 31  1  0
 12 32  1  0
 14 33  1  0
 15 34  1  0
 16 35  1  0
 18 36  1  0
 20 37  1  0
 20 38  1  0
 21 39  1  0
 22 40  1  0
 22 41  1  0
 23 42  1  0
 23 43  1  0
 24 44  1  0
 24 45  1  0
 25 46  1  0
 25 47  1  0
 26 48  1  0
 26 49  1  0
M  END
>  <smiles>  (26) 
O=c1c2ccccc2nc(/C=C/c2cccnc2)n1CC1CCCCC1

>  <score_type>  (26) 
oracle

>  <origin>  (26) 
autodockgpu

>  <m_score__min__energy>  (26) 
-7.3099999999999996

>  <m_primary>  (26) 
energy

>  <rmsd>  (26) 
7.527751583538004

>  <m_score__min__rmsd>  (26) 
7.527751583538004

>  <meeko>  (26) 
{"free_energy": -6.54, "intermolecular_energy": -8.03, "internal_energy": -1.93, "cluster_size": 15, "cluster_id": 5, "rank_in_cluster": 5}

>  <energy>  (26) 
-7.06

>  <cluster_rmsd>  (26) 
0.43

>  <cluster>  (26) 
3

$$$$

     RDKit          3D

 49 52  0  0  0  0  0  0  0  0999 V2000
  140.3870   74.4700  222.0200 O   0  0  0  0  0  0  0  0  0  0  0  0
  141.2510   74.9980  221.2840 C   0  0  0  0  0  0  0  0  0  0  0  0
  142.2710   74.1860  220.8490 C   0  0  0  0  0  0  0  0  0  0  0  0
  142.3330   72.8600  221.2170 C   0  0  0  0  0  0  0  0  0  0  0  0
  143.3690   72.1100  220.7550 C   0  0  0  0  0  0  0  0  0  0  0  0
  144.3180   72.6880  219.9430 C   0  0  0  0  0  0  0  0  0  0  0  0
  144.2710   74.0230  219.5610 C   0  0  0  0  0  0  0  0  0  0  0  0
  143.2150   74.7550  220.0420 C   0  0  0  0  0  0  0  0  0  0  0  0
  143.1100   76.0240  219.7230 N   0  0  0  0  0  0  0  0  0  0  0  0
  142.1080   76.8710  220.1340 C   0  0  0  0  0  0  0  0  0  0  0  0
  142.1980   78.2020  219.6310 C   0  0  0  0  0  0  0  0  0  0  0  0
  141.3260   79.0160  219.1280 C   0  0  0  0  0  0  0  0  0  0  0  0
  140.9430   80.3040  219.7420 C   0  0  0  0  0  0  0  0  0  0  0  0
  141.8230   81.1100  220.4130 C   0  0  0  0  0  0  0  0  0  0  0  0
  141.3840   82.3150  220.9680 C   0  0  0  0  0  0  0  0  0  0  0  0
  140.0710   82.7300  220.8650 C   0  0  0  0  0  0  0  0  0  0  0  0
  139.2200   81.9090  220.1950 N   0  0  0  0  0  0  0  0  0  0  0  0
  139.6340   80.7490  219.6560 C   0  0  0  0  0  0  0  0  0  0  0  0
  141.1850   76.3270  220.9210 N   0  0  0  0  0  0  0  0  0  0  0  0
  140.0430   77.0280  221.4470 C   0  0  0  0  0  0  0  0  0  0  0  0
  140.3210   78.3000  222.1710 C   0  0  0  0  0  0  0  0  0  0  0  0
  139.0430   78.8030  222.8260 C   0  0  0  0  0  0  0  0  0  0  0  0
  139.3150   79.8800  223.8280 C   0  0  0  0  0  0  0  0  0  0  0  0
  140.6830   80.5010  223.6500 C   0  0  0  0  0  0  0  0  0  0  0  0
  141.7830   79.4800  223.8170 C   0  0  0  0  0  0  0  0  0  0  0  0
  141.4270   78.1470  223.1800 C   0  0  0  0  0  0  0  0  0  0  0  0
  141.5639   72.4189  221.8681 H   0  0  0  0  0  0  0  0  0  0  0  0
  143.4481   71.0475  221.0287 H   0  0  0  0  0  0  0  0  0  0  0  0
  145.1498   72.0661  219.5807 H   0  0  0  0  0  0  0  0  0  0  0  0
  145.0374   74.4681  218.9095 H   0  0  0  0  0  0  0  0  0  0  0  0
  143.2134   78.6221  219.6802 H   0  0  0  0  0  0  0  0  0  0  0  0
  140.8394   78.7306  218.1837 H   0  0  0  0  0  0  0  0  0  0  0  0
  142.8760   80.8090  220.5153 H   0  0  0  0  0  0  0  0  0  0  0  0
  142.1050   82.9512  221.5022 H   0  0  0  0  0  0  0  0  0  0  0  0
  139.7303   83.6793  221.3040 H   0  0  0  0  0  0  0  0  0  0  0  0
  138.9008   80.1257  219.1231 H   0  0  0  0  0  0  0  0  0  0  0  0
  139.3766   77.2619  220.6037 H   0  0  0  0  0  0  0  0  0  0  0  0
  139.6076   76.3535  222.1990 H   0  0  0  0  0  0  0  0  0  0  0  0
  140.6681   79.0440  221.4389 H   0  0  0  0  0  0  0  0  0  0  0  0
  138.3776   79.2026  222.0465 H   0  0  0  0  0  0  0  0  0  0  0  0
  138.5751   77.9582  223.3528 H   0  0  0  0  0  0  0  0  0  0  0  0
  138.5532   80.6658  223.7176 H   0  0  0  0  0  0  0  0  0  0  0  0
  139.2813   79.4238  224.8284 H   0  0  0  0  0  0  0  0  0  0  0  0
  140.7493   80.9355  222.6416 H   0  0  0  0  0  0  0  0  0  0  0  0
  140.8123   81.2752  224.4206 H   0  0  0  0  0  0  0  0  0  0  0  0
  142.6991   79.8652  223.3453 H   0  0  0  0  0  0  0  0  0  0  0  0
  141.9290   79.3124  224.8943 H   0  0  0  0  0  0  0  0  0  0  0  0
  142.3172   77.7414  222.6769 H   0  0  0  0  0  0  0  0  0  0  0  0
  141.0823   77.4655  223.9716 H   0  0  0  0  0  0  0  0  0  0  0  0
  1  2  2  0
  2  3  1  0
  3  4  2  0
  4  5  1  0
  5  6  2  0
  6  7  1  0
  7  8  2  0
  8  9  1  0
  9 10  2  0
 10 11  1  0
 11 12  2  0
 12 13  1  0
 13 14  2  0
 14 15  1  0
 15 16  2  0
 16 17  1  0
 17 18  2  0
 10 19  1  0
 19 20  1  0
 20 21  1  0
 21 22  1  0
 22 23  1  0
 23 24  1  0
 24 25  1  0
 25 26  1  0
 19  2  1  0
 26 21  1  0
  8  3  1  0
 18 13  1  0
  4 27  1  0
  5 28  1  0
  6 29  1  0
  7 30  1  0
 11 31  1  0
 12 32  1  0
 14 33  1  0
 15 34  1  0
 16 35  1  0
 18 36  1  0
 20 37  1  0
 20 38  1  0
 21 39  1  0
 22 40  1  0
 22 41  1  0
 23 42  1  0
 23 43  1  0
 24 44  1  0
 24 45  1  0
 25 46  1  0
 25 47  1  0
 26 48  1  0
 26 49  1  0
M  END
>  <smiles>  (27) 
O=c1c2ccccc2nc(/C=C/c2cccnc2)n1CC1CCCCC1

>  <score_type>  (27) 
oracle

>  <origin>  (27) 
autodockgpu

>  <m_score__min__energy>  (27) 
-7.3099999999999996

>  <m_primary>  (27) 
energy

>  <rmsd>  (27) 
7.826991500164367

>  <m_score__min__rmsd>  (27) 
7.826991500164367

>  <meeko>  (27) 
{"free_energy": -6.41, "intermolecular_energy": -7.91, "internal_energy": -1.9, "cluster_size": 8, "cluster_id": 4, "rank_in_cluster": 6}

>  <energy>  (27) 
-7.02

>  <cluster_rmsd>  (27) 
0.21

>  <cluster>  (27) 
3

$$$$

     RDKit          3D

 49 52  0  0  0  0  0  0  0  0999 V2000
  138.8670   76.7520  222.3730 O   0  0  0  0  0  0  0  0  0  0  0  0
  139.9410   77.2020  221.9120 C   0  0  0  0  0  0  0  0  0  0  0  0
  140.3770   78.4020  222.4210 C   0  0  0  0  0  0  0  0  0  0  0  0
  139.6570   79.0720  223.3840 C   0  0  0  0  0  0  0  0  0  0  0  0
  140.1410   80.2560  223.8450 C   0  0  0  0  0  0  0  0  0  0  0  0
  141.3240   80.7490  223.3420 C   0  0  0  0  0  0  0  0  0  0  0  0
  142.0640   80.0860  222.3700 C   0  0  0  0  0  0  0  0  0  0  0  0
  141.5500   78.8950  221.9240 C   0  0  0  0  0  0  0  0  0  0  0  0
  142.1970   78.2160  221.0040 N   0  0  0  0  0  0  0  0  0  0  0  0
  141.7980   77.0140  220.4690 C   0  0  0  0  0  0  0  0  0  0  0  0
  142.6850   76.4600  219.5020 C   0  0  0  0  0  0  0  0  0  0  0  0
  142.8980   75.2510  219.0890 C   0  0  0  0  0  0  0  0  0  0  0  0
  144.0370   74.4150  219.5200 C   0  0  0  0  0  0  0  0  0  0  0  0
  144.3860   74.2360  220.8320 C   0  0  0  0  0  0  0  0  0  0  0  0
  145.4790   73.4300  221.1620 C   0  0  0  0  0  0  0  0  0  0  0  0
  146.2350   72.7970  220.1940 C   0  0  0  0  0  0  0  0  0  0  0  0
  145.8670   72.9940  218.9020 N   0  0  0  0  0  0  0  0  0  0  0  0
  144.8160   73.7660  218.5760 C   0  0  0  0  0  0  0  0  0  0  0  0
  140.6560   76.5270  220.9450 N   0  0  0  0  0  0  0  0  0  0  0  0
  140.0680   75.2770  220.5380 C   0  0  0  0  0  0  0  0  0  0  0  0
  140.3440   74.1000  221.4080 C   0  0  0  0  0  0  0  0  0  0  0  0
  139.0340   73.5620  221.9650 C   0  0  0  0  0  0  0  0  0  0  0  0
  139.2000   72.2030  222.5690 C   0  0  0  0  0  0  0  0  0  0  0  0
  140.6470   71.8790  222.8700 C   0  0  0  0  0  0  0  0  0  0  0  0
  141.4920   71.8910  221.6190 C   0  0  0  0  0  0  0  0  0  0  0  0
  141.1100   73.0270  220.6830 C   0  0  0  0  0  0  0  0  0  0  0  0
  138.7134   78.6598  223.7710 H   0  0  0  0  0  0  0  0  0  0  0  0
  139.5908   80.8166  224.6151 H   0  0  0  0  0  0  0  0  0  0  0  0
  141.6997   81.7089  223.7259 H   0  0  0  0  0  0  0  0  0  0  0  0
  143.0086   80.4934  221.9804 H   0  0  0  0  0  0  0  0  0  0  0  0
  143.3171   77.2109  219.0054 H   0  0  0  0  0  0  0  0  0  0  0  0
  142.1850   74.8191  218.3713 H   0  0  0  0  0  0  0  0  0  0  0  0
  143.8055   74.7271  221.6269 H   0  0  0  0  0  0  0  0  0  0  0  0
  145.7446   73.2959  222.2210 H   0  0  0  0  0  0  0  0  0  0  0  0
  147.0946   72.1633  220.4577 H   0  0  0  0  0  0  0  0  0  0  0  0
  144.5632   73.8878  217.5124 H   0  0  0  0  0  0  0  0  0  0  0  0
  138.9776   75.4168  220.5004 H   0  0  0  0  0  0  0  0  0  0  0  0
  140.5308   75.0386  219.5690 H   0  0  0  0  0  0  0  0  0  0  0  0
  140.9829   74.4289  222.2408 H   0  0  0  0  0  0  0  0  0  0  0  0
  138.6664   74.2523  222.7385 H   0  0  0  0  0  0  0  0  0  0  0  0
  138.3184   73.4801  221.1336 H   0  0  0  0  0  0  0  0  0  0  0  0
  138.6260   72.1604  223.5064 H   0  0  0  0  0  0  0  0  0  0  0  0
  138.8355   71.4647  221.8396 H   0  0  0  0  0  0  0  0  0  0  0  0
  141.0411   72.6268  223.5739 H   0  0  0  0  0  0  0  0  0  0  0  0
  140.6899   70.8692  223.3040 H   0  0  0  0  0  0  0  0  0  0  0  0
  142.5479   72.0066  221.9050 H   0  0  0  0  0  0  0  0  0  0  0  0
  141.3247   70.9426  221.0875 H   0  0  0  0  0  0  0  0  0  0  0  0
  142.0257   73.4650  220.2590 H   0  0  0  0  0  0  0  0  0  0  0  0
  140.4682   72.6200  219.8877 H   0  0  0  0  0  0  0  0  0  0  0  0
  1  2  2  0
  2  3  1  0
  3  4  2  0
  4  5  1  0
  5  6  2  0
  6  7  1  0
  7  8  2  0
  8  9  1  0
  9 10  2  0
 10 11  1  0
 11 12  2  0
 12 13  1  0
 13 14  2  0
 14 15  1  0
 15 16  2  0
 16 17  1  0
 17 18  2  0
 10 19  1  0
 19 20  1  0
 20 21  1  0
 21 22  1  0
 22 23  1  0
 23 24  1  0
 24 25  1  0
 25 26  1  0
 19  2  1  0
 26 21  1  0
  8  3  1  0
 18 13  1  0
  4 27  1  0
  5 28  1  0
  6 29  1  0
  7 30  1  0
 11 31  1  0
 12 32  1  0
 14 33  1  0
 15 34  1  0
 16 35  1  0
 18 36  1  0
 20 37  1  0
 20 38  1  0
 21 39  1  0
 22 40  1  0
 22 41  1  0
 23 42  1  0
 23 43  1  0
 24 44  1  0
 24 45  1  0
 25 46  1  0
 25 47  1  0
 26 48  1  0
 26 49  1  0
M  END
>  <smiles>  (28) 
O=c1c2ccccc2nc(/C=C/c2cccnc2)n1CC1CCCCC1

>  <score_type>  (28) 
oracle

>  <origin>  (28) 
autodockgpu

>  <m_score__min__energy>  (28) 
-7.3099999999999996

>  <m_primary>  (28) 
energy

>  <rmsd>  (28) 
4.87011841318575

>  <m_score__min__rmsd>  (28) 
4.87011841318575

>  <meeko>  (28) 
{"free_energy": -7.07, "intermolecular_energy": -8.56, "internal_energy": -1.52, "cluster_size": 3, "cluster_id": 3, "rank_in_cluster": 1}

>  <energy>  (28) 
-6.56

>  <cluster_rmsd>  (28) 
0.0

>  <cluster>  (28) 
4

$$$$

     RDKit          3D

 49 52  0  0  0  0  0  0  0  0999 V2000
  139.2770   67.3730  225.5320 O   0  0  0  0  0  0  0  0  0  0  0  0
  139.5050   68.5600  225.2050 C   0  0  0  0  0  0  0  0  0  0  0  0
  140.0400   69.3760  226.1740 C   0  0  0  0  0  0  0  0  0  0  0  0
  140.2990   68.9030  227.4410 C   0  0  0  0  0  0  0  0  0  0  0  0
  140.8260   69.7610  228.3550 C   0  0  0  0  0  0  0  0  0  0  0  0
  141.0820   71.0650  227.9940 C   0  0  0  0  0  0  0  0  0  0  0  0
  140.8260   71.5590  226.7200 C   0  0  0  0  0  0  0  0  0  0  0  0
  140.2950   70.6700  225.8210 C   0  0  0  0  0  0  0  0  0  0  0  0
  140.0260   71.0710  224.5990 N   0  0  0  0  0  0  0  0  0  0  0  0
  139.4940   70.2900  223.6010 C   0  0  0  0  0  0  0  0  0  0  0  0
  139.3180   70.9470  222.3490 C   0  0  0  0  0  0  0  0  0  0  0  0
  138.5520   71.9150  221.9590 C   0  0  0  0  0  0  0  0  0  0  0  0
  138.9490   73.3380  221.9550 C   0  0  0  0  0  0  0  0  0  0  0  0
  138.0500   74.3710  221.9470 C   0  0  0  0  0  0  0  0  0  0  0  0
  138.5050   75.6930  221.9420 C   0  0  0  0  0  0  0  0  0  0  0  0
  139.8510   76.0010  221.9430 C   0  0  0  0  0  0  0  0  0  0  0  0
  140.7190   74.9560  221.9490 N   0  0  0  0  0  0  0  0  0  0  0  0
  140.2910   73.6820  221.9550 C   0  0  0  0  0  0  0  0  0  0  0  0
  139.2400   69.0280  223.9350 N   0  0  0  0  0  0  0  0  0  0  0  0
  138.7010   68.0380  223.0390 C   0  0  0  0  0  0  0  0  0  0  0  0
  137.3530   68.3210  222.4720 C   0  0  0  0  0  0  0  0  0  0  0  0
  136.7840   67.0520  221.8550 C   0  0  0  0  0  0  0  0  0  0  0  0
  135.3210   67.1770  221.5660 C   0  0  0  0  0  0  0  0  0  0  0  0
  134.8610   68.6180  221.5440 C   0  0  0  0  0  0  0  0  0  0  0  0
  135.0890   69.2960  222.8750 C   0  0  0  0  0  0  0  0  0  0  0  0
  136.4150   68.8960  223.4990 C   0  0  0  0  0  0  0  0  0  0  0  0
  140.0850   67.8574  227.7071 H   0  0  0  0  0  0  0  0  0  0  0  0
  141.0463   69.4157  229.3759 H   0  0  0  0  0  0  0  0  0  0  0  0
  141.5075   71.7453  228.7464 H   0  0  0  0  0  0  0  0  0  0  0  0
  141.0374   72.6038  226.4485 H   0  0  0  0  0  0  0  0  0  0  0  0
  139.9644   70.5513  221.5518 H   0  0  0  0  0  0  0  0  0  0  0  0
  137.5407   71.6618  221.6081 H   0  0  0  0  0  0  0  0  0  0  0  0
  136.9703   74.1607  221.9445 H   0  0  0  0  0  0  0  0  0  0  0  0
  137.7697   76.5111  221.9371 H   0  0  0  0  0  0  0  0  0  0  0  0
  140.2037   77.0429  221.9391 H   0  0  0  0  0  0  0  0  0  0  0  0
  141.0398   72.8763  221.9601 H   0  0  0  0  0  0  0  0  0  0  0  0
  139.4019   67.9309  222.1980 H   0  0  0  0  0  0  0  0  0  0  0  0
  138.5770   67.1301  223.6476 H   0  0  0  0  0  0  0  0  0  0  0  0
  137.4628   69.0857  221.6889 H   0  0  0  0  0  0  0  0  0  0  0  0
  137.3155   66.8451  220.9144 H   0  0  0  0  0  0  0  0  0  0  0  0
  136.9192   66.2329  222.5766 H   0  0  0  0  0  0  0  0  0  0  0  0
  135.1144   66.7247  220.5848 H   0  0  0  0  0  0  0  0  0  0  0  0
  134.7741   66.6615  222.3692 H   0  0  0  0  0  0  0  0  0  0  0  0
  135.4208   69.1594  220.7672 H   0  0  0  0  0  0  0  0  0  0  0  0
  133.7817   68.6310  221.3321 H   0  0  0  0  0  0  0  0  0  0  0  0
  135.0821   70.3856  222.7241 H   0  0  0  0  0  0  0  0  0  0  0  0
  134.2849   68.9831  223.5573 H   0  0  0  0  0  0  0  0  0  0  0  0
  136.8802   69.7842  223.9513 H   0  0  0  0  0  0  0  0  0  0  0  0
  136.2214   68.1265  224.2608 H   0  0  0  0  0  0  0  0  0  0  0  0
  1  2  2  0
  2  3  1  0
  3  4  2  0
  4  5  1  0
  5  6  2  0
  6  7  1  0
  7  8  2  0
  8  9  1  0
  9 10  2  0
 10 11  1  0
 11 12  2  0
 12 13  1  0
 13 14  2  0
 14 15  1  0
 15 16  2  0
 16 17  1  0
 17 18  2  0
 10 19  1  0
 19 20  1  0
 20 21  1  0
 21 22  1  0
 22 23  1  0
 23 24  1  0
 24 25  1  0
 25 26  1  0
 19  2  1  0
 26 21  1  0
  8  3  1  0
 18 13  1  0
  4 27  1  0
  5 28  1  0
  6 29  1  0
  7 30  1  0
 11 31  1  0
 12 32  1  0
 14 33  1  0
 15 34  1  0
 16 35  1  0
 18 36  1  0
 20 37  1  0
 20 38  1  0
 21 39  1  0
 22 40  1  0
 22 41  1  0
 23 42  1  0
 23 43  1  0
 24 44  1  0
 24 45  1  0
 25 46  1  0
 25 47  1  0
 26 48  1  0
 26 49  1  0
M  END
>  <smiles>  (29) 
O=c1c2ccccc2nc(/C=C/c2cccnc2)n1CC1CCCCC1

>  <score_type>  (29) 
oracle

>  <origin>  (29) 
autodockgpu

>  <m_score__min__energy>  (29) 
-7.3099999999999996

>  <m_primary>  (29) 
energy

>  <rmsd>  (29) 
11.732870909161111

>  <m_score__min__rmsd>  (29) 
11.732870909161111

>  <meeko>  (29) 
{"free_energy": -7.13, "intermolecular_energy": -8.62, "internal_energy": -1.33, "cluster_size": 8, "cluster_id": 1, "rank_in_cluster": 4}

>  <energy>  (29) 
-6.44

>  <cluster_rmsd>  (29) 
1.41

>  <cluster>  (29) 
4

$$$$

     RDKit          3D

 49 52  0  0  0  0  0  0  0  0999 V2000
  143.0630   76.5140  219.7680 O   0  0  0  0  0  0  0  0  0  0  0  0
  142.1790   75.9370  220.4400 C   0  0  0  0  0  0  0  0  0  0  0  0
  142.3240   74.5810  220.6180 C   0  0  0  0  0  0  0  0  0  0  0  0
  143.3900   73.9010  220.0730 C   0  0  0  0  0  0  0  0  0  0  0  0
  143.4760   72.5600  220.2830 C   0  0  0  0  0  0  0  0  0  0  0  0
  142.5060   71.9250  221.0260 C   0  0  0  0  0  0  0  0  0  0  0  0
  141.4240   72.5960  221.5840 C   0  0  0  0  0  0  0  0  0  0  0  0
  141.3650   73.9470  221.3540 C   0  0  0  0  0  0  0  0  0  0  0  0
  140.3670   74.6430  221.8510 N   0  0  0  0  0  0  0  0  0  0  0  0
  140.1840   75.9970  221.6980 C   0  0  0  0  0  0  0  0  0  0  0  0
  139.0360   76.5280  222.3560 C   0  0  0  0  0  0  0  0  0  0  0  0
  138.1350   77.3870  222.0020 C   0  0  0  0  0  0  0  0  0  0  0  0
  138.2240   78.8390  222.2630 C   0  0  0  0  0  0  0  0  0  0  0  0
  138.3610   79.3710  223.5170 C   0  0  0  0  0  0  0  0  0  0  0  0
  138.4370   80.7570  223.6830 C   0  0  0  0  0  0  0  0  0  0  0  0
  138.3770   81.6250  222.6100 C   0  0  0  0  0  0  0  0  0  0  0  0
  138.2400   81.0680  221.3780 N   0  0  0  0  0  0  0  0  0  0  0  0
  138.1670   79.7360  221.2090 C   0  0  0  0  0  0  0  0  0  0  0  0
  141.1120   76.6240  220.9820 N   0  0  0  0  0  0  0  0  0  0  0  0
  141.1230   78.0390  220.7160 C   0  0  0  0  0  0  0  0  0  0  0  0
  141.8130   78.8960  221.7190 C   0  0  0  0  0  0  0  0  0  0  0  0
  141.5630   80.3620  221.3940 C   0  0  0  0  0  0  0  0  0  0  0  0
  141.9430   81.2590  222.5300 C   0  0  0  0  0  0  0  0  0  0  0  0
  142.8560   80.5750  223.5240 C   0  0  0  0  0  0  0  0  0  0  0  0
  142.1980   79.3650  224.1430 C   0  0  0  0  0  0  0  0  0  0  0  0
  141.3930   78.5710  223.1270 C   0  0  0  0  0  0  0  0  0  0  0  0
  144.1531   74.4292  219.4824 H   0  0  0  0  0  0  0  0  0  0  0  0
  144.3149   71.9864  219.8621 H   0  0  0  0  0  0  0  0  0  0  0  0
  142.5910   70.8399  221.1848 H   0  0  0  0  0  0  0  0  0  0  0  0
  140.6586   72.0733  222.1763 H   0  0  0  0  0  0  0  0  0  0  0  0
  138.8858   76.1265  223.3690 H   0  0  0  0  0  0  0  0  0  0  0  0
  137.2462   77.0125  221.4731 H   0  0  0  0  0  0  0  0  0  0  0  0
  138.4112   78.7082  224.3935 H   0  0  0  0  0  0  0  0  0  0  0  0
  138.5478   81.1682  224.6972 H   0  0  0  0  0  0  0  0  0  0  0  0
  138.4372   82.7149  222.7463 H   0  0  0  0  0  0  0  0  0  0  0  0
  138.0571   79.3411  220.1882 H   0  0  0  0  0  0  0  0  0  0  0  0
  141.6189   78.1934  219.7463 H   0  0  0  0  0  0  0  0  0  0  0  0
  140.0681   78.3495  220.7429 H   0  0  0  0  0  0  0  0  0  0  0  0
  142.8924   78.6919  221.6613 H   0  0  0  0  0  0  0  0  0  0  0  0
  142.1575   80.6365  220.5101 H   0  0  0  0  0  0  0  0  0  0  0  0
  140.4871   80.4900  221.2042 H   0  0  0  0  0  0  0  0  0  0  0  0
  142.4594   82.1420  222.1255 H   0  0  0  0  0  0  0  0  0  0  0  0
  141.0204   81.5392  223.0594 H   0  0  0  0  0  0  0  0  0  0  0  0
  143.7728   80.2568  223.0061 H   0  0  0  0  0  0  0  0  0  0  0  0
  143.0863   81.2899  224.3277 H   0  0  0  0  0  0  0  0  0  0  0  0
  142.9777   78.7139  224.5650 H   0  0  0  0  0  0  0  0  0  0  0  0
  141.5070   79.7165  224.9234 H   0  0  0  0  0  0  0  0  0  0  0  0
  141.5480   77.4971  223.3079 H   0  0  0  0  0  0  0  0  0  0  0  0
  140.3318   78.8369  223.2419 H   0  0  0  0  0  0  0  0  0  0  0  0
  1  2  2  0
  2  3  1  0
  3  4  2  0
  4  5  1  0
  5  6  2  0
  6  7  1  0
  7  8  2  0
  8  9  1  0
  9 10  2  0
 10 11  1  0
 11 12  2  0
 12 13  1  0
 13 14  2  0
 14 15  1  0
 15 16  2  0
 16 17  1  0
 17 18  2  0
 10 19  1  0
 19 20  1  0
 20 21  1  0
 21 22  1  0
 22 23  1  0
 23 24  1  0
 24 25  1  0
 25 26  1  0
 19  2  1  0
 26 21  1  0
  8  3  1  0
 18 13  1  0
  4 27  1  0
  5 28  1  0
  6 29  1  0
  7 30  1  0
 11 31  1  0
 12 32  1  0
 14 33  1  0
 15 34  1  0
 16 35  1  0
 18 36  1  0
 20 37  1  0
 20 38  1  0
 21 39  1  0
 22 40  1  0
 22 41  1  0
 23 42  1  0
 23 43  1  0
 24 44  1  0
 24 45  1  0
 25 46  1  0
 25 47  1  0
 26 48  1  0
 26 49  1  0
M  END
>  <smiles>  (30) 
O=c1c2ccccc2nc(/C=C/c2cccnc2)n1CC1CCCCC1

>  <score_type>  (30) 
oracle

>  <origin>  (30) 
autodockgpu

>  <m_score__min__energy>  (30) 
-7.3099999999999996

>  <m_primary>  (30) 
energy

>  <rmsd>  (30) 
7.584770283033188

>  <m_score__min__rmsd>  (30) 
7.584770283033188

>  <meeko>  (30) 
{"free_energy": -6.55, "intermolecular_energy": -8.04, "internal_energy": -1.91, "cluster_size": 15, "cluster_id": 5, "rank_in_cluster": 1}

>  <energy>  (30) 
-6.44

>  <cluster_rmsd>  (30) 
1.53

>  <cluster>  (30) 
4

$$$$

     RDKit          3D

 49 52  0  0  0  0  0  0  0  0999 V2000
  139.2050   67.3900  225.4550 O   0  0  0  0  0  0  0  0  0  0  0  0
  139.4530   68.5830  225.1680 C   0  0  0  0  0  0  0  0  0  0  0  0
  139.9980   69.3570  226.1640 C   0  0  0  0  0  0  0  0  0  0  0  0
  140.2470   68.8380  227.4150 C   0  0  0  0  0  0  0  0  0  0  0  0
  140.7860   69.6560  228.3580 C   0  0  0  0  0  0  0  0  0  0  0  0
  141.0640   70.9670  228.0420 C   0  0  0  0  0  0  0  0  0  0  0  0
  140.8190   71.5080  226.7850 C   0  0  0  0  0  0  0  0  0  0  0  0
  140.2750   70.6580  225.8550 C   0  0  0  0  0  0  0  0  0  0  0  0
  140.0160   71.1040  224.6480 N   0  0  0  0  0  0  0  0  0  0  0  0
  139.4720   70.3660  223.6230 C   0  0  0  0  0  0  0  0  0  0  0  0
  139.3100   71.0670  222.3930 C   0  0  0  0  0  0  0  0  0  0  0  0
  138.5720   72.0700  222.0400 C   0  0  0  0  0  0  0  0  0  0  0  0
  139.0450   73.4690  221.9820 C   0  0  0  0  0  0  0  0  0  0  0  0
  138.2030   74.5480  221.9470 C   0  0  0  0  0  0  0  0  0  0  0  0
  138.7270   75.8420  221.8920 C   0  0  0  0  0  0  0  0  0  0  0  0
  140.0870   76.0780  221.8710 C   0  0  0  0  0  0  0  0  0  0  0  0
  140.8980   74.9880  221.9070 N   0  0  0  0  0  0  0  0  0  0  0  0
  140.4040   73.7400  221.9600 C   0  0  0  0  0  0  0  0  0  0  0  0
  139.1980   69.0980  223.9140 N   0  0  0  0  0  0  0  0  0  0  0  0
  138.6450   68.1470  222.9850 C   0  0  0  0  0  0  0  0  0  0  0  0
  137.1840   68.2560  222.7150 C   0  0  0  0  0  0  0  0  0  0  0  0
  136.5250   69.0840  223.8100 C   0  0  0  0  0  0  0  0  0  0  0  0
  135.1400   69.5080  223.4340 C   0  0  0  0  0  0  0  0  0  0  0  0
  134.5750   68.6850  222.2970 C   0  0  0  0  0  0  0  0  0  0  0  0
  135.4120   68.8170  221.0460 C   0  0  0  0  0  0  0  0  0  0  0  0
  136.9000   68.8300  221.3530 C   0  0  0  0  0  0  0  0  0  0  0  0
  140.0156   67.7877  227.6457 H   0  0  0  0  0  0  0  0  0  0  0  0
  140.9986   69.2728  229.3669 H   0  0  0  0  0  0  0  0  0  0  0  0
  141.4988   71.6144  228.8178 H   0  0  0  0  0  0  0  0  0  0  0  0
  141.0482   72.5577  226.5493 H   0  0  0  0  0  0  0  0  0  0  0  0
  139.9391   70.6770  221.5793 H   0  0  0  0  0  0  0  0  0  0  0  0
  137.5260   71.8683  221.7656 H   0  0  0  0  0  0  0  0  0  0  0  0
  137.1136   74.3961  221.9622 H   0  0  0  0  0  0  0  0  0  0  0  0
  138.0360   76.6974  221.8646 H   0  0  0  0  0  0  0  0  0  0  0  0
  140.4945   77.0988  221.8273 H   0  0  0  0  0  0  0  0  0  0  0  0
  141.1090   72.8961  221.9872 H   0  0  0  0  0  0  0  0  0  0  0  0
  139.1722   68.2695  222.0274 H   0  0  0  0  0  0  0  0  0  0  0  0
  138.7817   67.1635  223.4583 H   0  0  0  0  0  0  0  0  0  0  0  0
  136.7566   67.2424  222.7205 H   0  0  0  0  0  0  0  0  0  0  0  0
  136.4751   68.4820  224.7293 H   0  0  0  0  0  0  0  0  0  0  0  0
  137.1292   69.9907  223.9611 H   0  0  0  0  0  0  0  0  0  0  0  0
  134.4856   69.3956  224.3110 H   0  0  0  0  0  0  0  0  0  0  0  0
  135.1883   70.5548  223.0995 H   0  0  0  0  0  0  0  0  0  0  0  0
  134.5496   67.6278  222.5997 H   0  0  0  0  0  0  0  0  0  0  0  0
  133.5629   69.0541  222.0746 H   0  0  0  0  0  0  0  0  0  0  0  0
  135.1942   67.9674  220.3821 H   0  0  0  0  0  0  0  0  0  0  0  0
  135.1565   69.7736  220.5667 H   0  0  0  0  0  0  0  0  0  0  0  0
  137.4271   68.2317  220.5953 H   0  0  0  0  0  0  0  0  0  0  0  0
  137.2479   69.8734  221.3373 H   0  0  0  0  0  0  0  0  0  0  0  0
  1  2  2  0
  2  3  1  0
  3  4  2  0
  4  5  1  0
  5  6  2  0
  6  7  1  0
  7  8  2  0
  8  9  1  0
  9 10  2  0
 10 11  1  0
 11 12  2  0
 12 13  1  0
 13 14  2  0
 14 15  1  0
 15 16  2  0
 16 17  1  0
 17 18  2  0
 10 19  1  0
 19 20  1  0
 20 21  1  0
 21 22  1  0
 22 23  1  0
 23 24  1  0
 24 25  1  0
 25 26  1  0
 19  2  1  0
 26 21  1  0
  8  3  1  0
 18 13  1  0
  4 27  1  0
  5 28  1  0
  6 29  1  0
  7 30  1  0
 11 31  1  0
 12 32  1  0
 14 33  1  0
 15 34  1  0
 16 35  1  0
 18 36  1  0
 20 37  1  0
 20 38  1  0
 21 39  1  0
 22 40  1  0
 22 41  1  0
 23 42  1  0
 23 43  1  0
 24 44  1  0
 24 45  1  0
 25 46  1  0
 25 47  1  0
 26 48  1  0
 26 49  1  0
M  END
>  <smiles>  (31) 
O=c1c2ccccc2nc(/C=C/c2cccnc2)n1CC1CCCCC1

>  <score_type>  (31) 
oracle

>  <origin>  (31) 
autodockgpu

>  <m_score__min__energy>  (31) 
-7.3099999999999996

>  <m_primary>  (31) 
energy

>  <rmsd>  (31) 
11.779802429211486

>  <m_score__min__rmsd>  (31) 
11.779802429211486

>  <meeko>  (31) 
{"free_energy": -7.04, "intermolecular_energy": -8.53, "internal_energy": -1.41, "cluster_size": 8, "cluster_id": 1, "rank_in_cluster": 7}

>  <energy>  (31) 
-6.42

>  <cluster_rmsd>  (31) 
1.42

>  <cluster>  (31) 
4

$$$$

     RDKit          3D

 49 52  0  0  0  0  0  0  0  0999 V2000
  142.9060   76.4070  219.8170 O   0  0  0  0  0  0  0  0  0  0  0  0
  142.0050   75.8790  220.5070 C   0  0  0  0  0  0  0  0  0  0  0  0
  142.1020   74.5230  220.7160 C   0  0  0  0  0  0  0  0  0  0  0  0
  143.1380   73.7920  220.1810 C   0  0  0  0  0  0  0  0  0  0  0  0
  143.1760   72.4540  220.4230 C   0  0  0  0  0  0  0  0  0  0  0  0
  142.1880   71.8730  221.1860 C   0  0  0  0  0  0  0  0  0  0  0  0
  141.1350   72.5960  221.7340 C   0  0  0  0  0  0  0  0  0  0  0  0
  141.1240   73.9430  221.4720 C   0  0  0  0  0  0  0  0  0  0  0  0
  140.1560   74.6860  221.9570 N   0  0  0  0  0  0  0  0  0  0  0  0
  140.0220   76.0420  221.7740 C   0  0  0  0  0  0  0  0  0  0  0  0
  138.8990   76.6310  222.4250 C   0  0  0  0  0  0  0  0  0  0  0  0
  138.0070   77.4890  222.0440 C   0  0  0  0  0  0  0  0  0  0  0  0
  138.1210   78.9490  222.2440 C   0  0  0  0  0  0  0  0  0  0  0  0
  138.0640   79.8550  221.2190 C   0  0  0  0  0  0  0  0  0  0  0  0
  138.1810   81.2220  221.4880 C   0  0  0  0  0  0  0  0  0  0  0  0
  138.3560   81.7000  222.7730 C   0  0  0  0  0  0  0  0  0  0  0  0
  138.4090   80.7770  223.7680 N   0  0  0  0  0  0  0  0  0  0  0  0
  138.2970   79.4610  223.5190 C   0  0  0  0  0  0  0  0  0  0  0  0
  140.9680   76.6170  221.0380 N   0  0  0  0  0  0  0  0  0  0  0  0
  141.0290   78.0240  220.7390 C   0  0  0  0  0  0  0  0  0  0  0  0
  141.7520   78.8800  221.7210 C   0  0  0  0  0  0  0  0  0  0  0  0
  141.5160   80.3460  221.3880 C   0  0  0  0  0  0  0  0  0  0  0  0
  141.9300   81.2470  222.5090 C   0  0  0  0  0  0  0  0  0  0  0  0
  142.8540   80.5580  223.4900 C   0  0  0  0  0  0  0  0  0  0  0  0
  142.1910   79.3630  224.1330 C   0  0  0  0  0  0  0  0  0  0  0  0
  141.3540   78.5720  223.1400 C   0  0  0  0  0  0  0  0  0  0  0  0
  143.9157   74.2774  219.5731 H   0  0  0  0  0  0  0  0  0  0  0  0
  143.9908   71.8401  220.0118 H   0  0  0  0  0  0  0  0  0  0  0  0
  142.2341   70.7895  221.3699 H   0  0  0  0  0  0  0  0  0  0  0  0
  140.3549   72.1158  222.3430 H   0  0  0  0  0  0  0  0  0  0  0  0
  138.7624   76.2870  223.4609 H   0  0  0  0  0  0  0  0  0  0  0  0
  137.1073   77.1070  221.5395 H   0  0  0  0  0  0  0  0  0  0  0  0
  137.9262   79.5076  220.1844 H   0  0  0  0  0  0  0  0  0  0  0  0
  138.1324   81.9371  220.6536 H   0  0  0  0  0  0  0  0  0  0  0  0
  138.4480   82.7764  222.9799 H   0  0  0  0  0  0  0  0  0  0  0  0
  138.3473   78.7597  224.3649 H   0  0  0  0  0  0  0  0  0  0  0  0
  141.5277   78.1377  219.7652 H   0  0  0  0  0  0  0  0  0  0  0  0
  139.9859   78.3724  220.7605 H   0  0  0  0  0  0  0  0  0  0  0  0
  142.8272   78.6610  221.6443 H   0  0  0  0  0  0  0  0  0  0  0  0
  142.0972   80.6048  220.4907 H   0  0  0  0  0  0  0  0  0  0  0  0
  140.4386   80.4875  221.2173 H   0  0  0  0  0  0  0  0  0  0  0  0
  142.4496   82.1201  222.0874 H   0  0  0  0  0  0  0  0  0  0  0  0
  141.0220   81.5438  223.0543 H   0  0  0  0  0  0  0  0  0  0  0  0
  143.7551   80.2219  222.9560 H   0  0  0  0  0  0  0  0  0  0  0  0
  143.1118   81.2761  224.2824 H   0  0  0  0  0  0  0  0  0  0  0  0
  142.9695   78.7042  224.5451 H   0  0  0  0  0  0  0  0  0  0  0  0
  141.5211   79.7313  224.9239 H   0  0  0  0  0  0  0  0  0  0  0  0
  141.4968   77.4975  223.3270 H   0  0  0  0  0  0  0  0  0  0  0  0
  140.2991   78.8536  223.2735 H   0  0  0  0  0  0  0  0  0  0  0  0
  1  2  2  0
  2  3  1  0
  3  4  2  0
  4  5  1  0
  5  6  2  0
  6  7  1  0
  7  8  2  0
  8  9  1  0
  9 10  2  0
 10 11  1  0
 11 12  2  0
 12 13  1  0
 13 14  2  0
 14 15  1  0
 15 16  2  0
 16 17  1  0
 17 18  2  0
 10 19  1  0
 19 20  1  0
 20 21  1  0
 21 22  1  0
 22 23  1  0
 23 24  1  0
 24 25  1  0
 25 26  1  0
 19  2  1  0
 26 21  1  0
  8  3  1  0
 18 13  1  0
  4 27  1  0
  5 28  1  0
  6 29  1  0
  7 30  1  0
 11 31  1  0
 12 32  1  0
 14 33  1  0
 15 34  1  0
 16 35  1  0
 18 36  1  0
 20 37  1  0
 20 38  1  0
 21 39  1  0
 22 40  1  0
 22 41  1  0
 23 42  1  0
 23 43  1  0
 24 44  1  0
 24 45  1  0
 25 46  1  0
 25 47  1  0
 26 48  1  0
 26 49  1  0
M  END
>  <smiles>  (32) 
O=c1c2ccccc2nc(/C=C/c2cccnc2)n1CC1CCCCC1

>  <score_type>  (32) 
oracle

>  <origin>  (32) 
autodockgpu

>  <m_score__min__energy>  (32) 
-7.3099999999999996

>  <m_primary>  (32) 
energy

>  <rmsd>  (32) 
7.559483165824774

>  <m_score__min__rmsd>  (32) 
7.559483165824774

>  <meeko>  (32) 
{"free_energy": -6.44, "intermolecular_energy": -7.94, "internal_energy": -1.93, "cluster_size": 15, "cluster_id": 5, "rank_in_cluster": 12}

>  <energy>  (32) 
-6.42

>  <cluster_rmsd>  (32) 
1.54

>  <cluster>  (32) 
4

$$$$

     RDKit          3D

 49 52  0  0  0  0  0  0  0  0999 V2000
  140.5850   71.8720  225.3290 O   0  0  0  0  0  0  0  0  0  0  0  0
  139.9360   70.8020  225.3160 C   0  0  0  0  0  0  0  0  0  0  0  0
  140.1590   69.9320  226.3570 C   0  0  0  0  0  0  0  0  0  0  0  0
  141.0600   70.2300  227.3550 C   0  0  0  0  0  0  0  0  0  0  0  0
  141.2370   69.3270  228.3560 C   0  0  0  0  0  0  0  0  0  0  0  0
  140.5210   68.1510  228.3450 C   0  0  0  0  0  0  0  0  0  0  0  0
  139.6070   67.8340  227.3460 C   0  0  0  0  0  0  0  0  0  0  0  0
  139.4510   68.7650  226.3500 C   0  0  0  0  0  0  0  0  0  0  0  0
  138.6050   68.5280  225.3740 N   0  0  0  0  0  0  0  0  0  0  0  0
  138.3510   69.3690  224.3160 C   0  0  0  0  0  0  0  0  0  0  0  0
  137.3690   68.9010  223.3950 C   0  0  0  0  0  0  0  0  0  0  0  0
  136.0750   68.8820  223.4200 C   0  0  0  0  0  0  0  0  0  0  0  0
  135.2560   69.4590  224.5060 C   0  0  0  0  0  0  0  0  0  0  0  0
  135.1070   70.8060  224.7010 C   0  0  0  0  0  0  0  0  0  0  0  0
  134.3160   71.2760  225.7540 C   0  0  0  0  0  0  0  0  0  0  0  0
  133.6690   70.4160  226.6200 C   0  0  0  0  0  0  0  0  0  0  0  0
  133.8370   69.0860  226.4020 N   0  0  0  0  0  0  0  0  0  0  0  0
  134.5940   68.6250  225.3920 C   0  0  0  0  0  0  0  0  0  0  0  0
  139.0370   70.5080  224.3120 N   0  0  0  0  0  0  0  0  0  0  0  0
  138.9110   71.5350  223.3110 C   0  0  0  0  0  0  0  0  0  0  0  0
  140.1270   71.8250  222.5010 C   0  0  0  0  0  0  0  0  0  0  0  0
  140.2720   70.7760  221.4080 C   0  0  0  0  0  0  0  0  0  0  0  0
  141.2680   71.1860  220.3690 C   0  0  0  0  0  0  0  0  0  0  0  0
  142.1810   72.2910  220.8510 C   0  0  0  0  0  0  0  0  0  0  0  0
  141.4060   73.5380  221.2080 C   0  0  0  0  0  0  0  0  0  0  0  0
  140.1040   73.2140  221.9230 C   0  0  0  0  0  0  0  0  0  0  0  0
  141.6226   71.1752  227.3426 H   0  0  0  0  0  0  0  0  0  0  0  0
  141.9477   69.5347  229.1695 H   0  0  0  0  0  0  0  0  0  0  0  0
  140.6788   67.4312  229.1617 H   0  0  0  0  0  0  0  0  0  0  0  0
  139.0413   66.8907  227.3537 H   0  0  0  0  0  0  0  0  0  0  0  0
  137.7970   68.4690  222.4784 H   0  0  0  0  0  0  0  0  0  0  0  0
  135.5512   68.4055  222.5783 H   0  0  0  0  0  0  0  0  0  0  0  0
  135.6093   71.5181  224.0297 H   0  0  0  0  0  0  0  0  0  0  0  0
  134.2059   72.3611  225.8967 H   0  0  0  0  0  0  0  0  0  0  0  0
  133.0474   70.7905  227.4467 H   0  0  0  0  0  0  0  0  0  0  0  0
  134.6923   67.5370  225.2631 H   0  0  0  0  0  0  0  0  0  0  0  0
  138.1125   71.2306  222.6183 H   0  0  0  0  0  0  0  0  0  0  0  0
  138.7038   72.4609  223.8676 H   0  0  0  0  0  0  0  0  0  0  0  0
  141.0026   71.7784  223.1652 H   0  0  0  0  0  0  0  0  0  0  0  0
  140.6023   69.8309  221.8638 H   0  0  0  0  0  0  0  0  0  0  0  0
  139.2951   70.6592  220.9161 H   0  0  0  0  0  0  0  0  0  0  0  0
  141.8808   70.3122  220.1026 H   0  0  0  0  0  0  0  0  0  0  0  0
  140.7100   71.5663  219.5007 H   0  0  0  0  0  0  0  0  0  0  0  0
  142.7248   71.9418  221.7411 H   0  0  0  0  0  0  0  0  0  0  0  0
  142.8778   72.5406  220.0372 H   0  0  0  0  0  0  0  0  0  0  0  0
  142.0258   74.1653  221.8656 H   0  0  0  0  0  0  0  0  0  0  0  0
  141.1590   74.0637  220.2739 H   0  0  0  0  0  0  0  0  0  0  0  0
  139.9528   73.9381  222.7371 H   0  0  0  0  0  0  0  0  0  0  0  0
  139.2837   73.2718  221.1924 H   0  0  0  0  0  0  0  0  0  0  0  0
  1  2  2  0
  2  3  1  0
  3  4  2  0
  4  5  1  0
  5  6  2  0
  6  7  1  0
  7  8  2  0
  8  9  1  0
  9 10  2  0
 10 11  1  0
 11 12  2  0
 12 13  1  0
 13 14  2  0
 14 15  1  0
 15 16  2  0
 16 17  1  0
 17 18  2  0
 10 19  1  0
 19 20  1  0
 20 21  1  0
 21 22  1  0
 22 23  1  0
 23 24  1  0
 24 25  1  0
 25 26  1  0
 19  2  1  0
 26 21  1  0
  8  3  1  0
 18 13  1  0
  4 27  1  0
  5 28  1  0
  6 29  1  0
  7 30  1  0
 11 31  1  0
 12 32  1  0
 14 33  1  0
 15 34  1  0
 16 35  1  0
 18 36  1  0
 20 37  1  0
 20 38  1  0
 21 39  1  0
 22 40  1  0
 22 41  1  0
 23 42  1  0
 23 43  1  0
 24 44  1  0
 24 45  1  0
 25 46  1  0
 25 47  1  0
 26 48  1  0
 26 49  1  0
M  END
>  <smiles>  (33) 
O=c1c2ccccc2nc(/C=C/c2cccnc2)n1CC1CCCCC1

>  <score_type>  (33) 
oracle

>  <origin>  (33) 
autodockgpu

>  <m_score__min__energy>  (33) 
-7.3099999999999996

>  <m_primary>  (33) 
energy

>  <rmsd>  (33) 
10.740902646891517

>  <m_score__min__rmsd>  (33) 
10.740902646891517

>  <meeko>  (33) 
{"free_energy": -7.22, "intermolecular_energy": -8.72, "internal_energy": -1.38, "cluster_size": 16, "cluster_id": 2, "rank_in_cluster": 7}

>  <energy>  (33) 
-6.41

>  <cluster_rmsd>  (33) 
1.55

>  <cluster>  (33) 
4

$$$$

     RDKit          3D

 49 52  0  0  0  0  0  0  0  0999 V2000
  139.2030   67.7050  225.5690 O   0  0  0  0  0  0  0  0  0  0  0  0
  139.5150   68.8570  225.1930 C   0  0  0  0  0  0  0  0  0  0  0  0
  140.0500   69.6940  226.1430 C   0  0  0  0  0  0  0  0  0  0  0  0
  140.2220   69.2760  227.4450 C   0  0  0  0  0  0  0  0  0  0  0  0
  140.7540   70.1520  228.3380 C   0  0  0  0  0  0  0  0  0  0  0  0
  141.1020   71.4180  227.9240 C   0  0  0  0  0  0  0  0  0  0  0  0
  140.9360   71.8560  226.6150 C   0  0  0  0  0  0  0  0  0  0  0  0
  140.3970   70.9500  225.7380 C   0  0  0  0  0  0  0  0  0  0  0  0
  140.2100   71.2980  224.4850 N   0  0  0  0  0  0  0  0  0  0  0  0
  139.6800   70.4950  223.5030 C   0  0  0  0  0  0  0  0  0  0  0  0
  139.6020   71.0920  222.2110 C   0  0  0  0  0  0  0  0  0  0  0  0
  138.8620   72.0310  221.7160 C   0  0  0  0  0  0  0  0  0  0  0  0
  139.1540   73.4740  221.8460 C   0  0  0  0  0  0  0  0  0  0  0  0
  138.1820   74.4320  221.9560 C   0  0  0  0  0  0  0  0  0  0  0  0
  138.5380   75.7780  222.0750 C   0  0  0  0  0  0  0  0  0  0  0  0
  139.8580   76.1850  222.0840 C   0  0  0  0  0  0  0  0  0  0  0  0
  140.8000   75.2130  221.9710 N   0  0  0  0  0  0  0  0  0  0  0  0
  140.4670   73.9160  221.8580 C   0  0  0  0  0  0  0  0  0  0  0  0
  139.3380   69.2700  223.8880 N   0  0  0  0  0  0  0  0  0  0  0  0
  138.7840   68.2640  223.0190 C   0  0  0  0  0  0  0  0  0  0  0  0
  137.3940   68.4970  222.5370 C   0  0  0  0  0  0  0  0  0  0  0  0
  136.8380   67.2080  221.9490 C   0  0  0  0  0  0  0  0  0  0  0  0
  135.3560   67.2780  221.7510 C   0  0  0  0  0  0  0  0  0  0  0  0
  134.8400   68.7000  221.7650 C   0  0  0  0  0  0  0  0  0  0  0  0
  135.1230   69.3820  223.0830 C   0  0  0  0  0  0  0  0  0  0  0  0
  136.5000   69.0310  223.6220 C   0  0  0  0  0  0  0  0  0  0  0  0
  139.9361   68.2596  227.7536 H   0  0  0  0  0  0  0  0  0  0  0  0
  140.9055   69.8511  229.3851 H   0  0  0  0  0  0  0  0  0  0  0  0
  141.5301   72.1133  228.6610 H   0  0  0  0  0  0  0  0  0  0  0  0
  141.2207   72.8710  226.3008 H   0  0  0  0  0  0  0  0  0  0  0  0
  140.3153   70.6688  221.4885 H   0  0  0  0  0  0  0  0  0  0  0  0
  137.9578   71.7364  221.1631 H   0  0  0  0  0  0  0  0  0  0  0  0
  137.1209   74.1421  221.9507 H   0  0  0  0  0  0  0  0  0  0  0  0
  137.7447   76.5348  222.1640 H   0  0  0  0  0  0  0  0  0  0  0  0
  140.1332   77.2458  222.1782 H   0  0  0  0  0  0  0  0  0  0  0  0
  141.2727   73.1722  221.7712 H   0  0  0  0  0  0  0  0  0  0  0  0
  139.4360   68.1885  222.1363 H   0  0  0  0  0  0  0  0  0  0  0  0
  138.7326   67.3489  223.6273 H   0  0  0  0  0  0  0  0  0  0  0  0
  137.4257   69.2683  221.7533 H   0  0  0  0  0  0  0  0  0  0  0  0
  137.3183   67.0246  220.9766 H   0  0  0  0  0  0  0  0  0  0  0  0
  137.0491   66.3922  222.6560 H   0  0  0  0  0  0  0  0  0  0  0  0
  135.1069   66.8211  220.7819 H   0  0  0  0  0  0  0  0  0  0  0  0
  134.8801   66.7398  222.5839 H   0  0  0  0  0  0  0  0  0  0  0  0
  135.3296   69.2653  220.9583 H   0  0  0  0  0  0  0  0  0  0  0  0
  133.7500   68.6716  221.6197 H   0  0  0  0  0  0  0  0  0  0  0  0
  135.0651   70.4710  222.9389 H   0  0  0  0  0  0  0  0  0  0  0  0
  134.3749   69.0365  223.8117 H   0  0  0  0  0  0  0  0  0  0  0  0
  136.9577   69.9348  224.0504 H   0  0  0  0  0  0  0  0  0  0  0  0
  136.3831   68.2515  224.3893 H   0  0  0  0  0  0  0  0  0  0  0  0
  1  2  2  0
  2  3  1  0
  3  4  2  0
  4  5  1  0
  5  6  2  0
  6  7  1  0
  7  8  2  0
  8  9  1  0
  9 10  2  0
 10 11  1  0
 11 12  2  0
 12 13  1  0
 13 14  2  0
 14 15  1  0
 15 16  2  0
 16 17  1  0
 17 18  2  0
 10 19  1  0
 19 20  1  0
 20 21  1  0
 21 22  1  0
 22 23  1  0
 23 24  1  0
 24 25  1  0
 25 26  1  0
 19  2  1  0
 26 21  1  0
  8  3  1  0
 18 13  1  0
  4 27  1  0
  5 28  1  0
  6 29  1  0
  7 30  1  0
 11 31  1  0
 12 32  1  0
 14 33  1  0
 15 34  1  0
 16 35  1  0
 18 36  1  0
 20 37  1  0
 20 38  1  0
 21 39  1  0
 22 40  1  0
 22 41  1  0
 23 42  1  0
 23 43  1  0
 24 44  1  0
 24 45  1  0
 25 46  1  0
 25 47  1  0
 26 48  1  0
 26 49  1  0
M  END
>  <smiles>  (34) 
O=c1c2ccccc2nc(/C=C/c2cccnc2)n1CC1CCCCC1

>  <score_type>  (34) 
oracle

>  <origin>  (34) 
autodockgpu

>  <m_score__min__energy>  (34) 
-7.3099999999999996

>  <m_primary>  (34) 
energy

>  <rmsd>  (34) 
11.530482242072287

>  <m_score__min__rmsd>  (34) 
11.530482242072287

>  <meeko>  (34) 
{"free_energy": -7.09, "intermolecular_energy": -8.58, "internal_energy": -1.36, "cluster_size": 8, "cluster_id": 1, "rank_in_cluster": 5}

>  <energy>  (34) 
-6.41

>  <cluster_rmsd>  (34) 
1.44

>  <cluster>  (34) 
4

$$$$

     RDKit          3D

 49 52  0  0  0  0  0  0  0  0999 V2000
  140.6140   71.8560  225.2950 O   0  0  0  0  0  0  0  0  0  0  0  0
  139.9600   70.7890  225.2810 C   0  0  0  0  0  0  0  0  0  0  0  0
  140.1770   69.9180  226.3220 C   0  0  0  0  0  0  0  0  0  0  0  0
  141.0780   70.2120  227.3220 C   0  0  0  0  0  0  0  0  0  0  0  0
  141.2480   69.3080  228.3230 C   0  0  0  0  0  0  0  0  0  0  0  0
  140.5260   68.1360  228.3110 C   0  0  0  0  0  0  0  0  0  0  0  0
  139.6130   67.8230  227.3110 C   0  0  0  0  0  0  0  0  0  0  0  0
  139.4630   68.7540  226.3150 C   0  0  0  0  0  0  0  0  0  0  0  0
  138.6180   68.5220  225.3370 N   0  0  0  0  0  0  0  0  0  0  0  0
  138.3700   69.3640  224.2780 C   0  0  0  0  0  0  0  0  0  0  0  0
  137.3870   68.9010  223.3560 C   0  0  0  0  0  0  0  0  0  0  0  0
  136.0930   68.8710  223.3860 C   0  0  0  0  0  0  0  0  0  0  0  0
  135.2750   69.4510  224.4710 C   0  0  0  0  0  0  0  0  0  0  0  0
  135.1340   70.7980  224.6710 C   0  0  0  0  0  0  0  0  0  0  0  0
  134.3420   71.2700  225.7220 C   0  0  0  0  0  0  0  0  0  0  0  0
  133.6860   70.4110  226.5820 C   0  0  0  0  0  0  0  0  0  0  0  0
  133.8450   69.0810  226.3600 N   0  0  0  0  0  0  0  0  0  0  0  0
  134.6030   68.6180  225.3510 C   0  0  0  0  0  0  0  0  0  0  0  0
  139.0610   70.4990  224.2750 N   0  0  0  0  0  0  0  0  0  0  0  0
  138.9420   71.5270  223.2740 C   0  0  0  0  0  0  0  0  0  0  0  0
  140.1630   71.8170  222.4720 C   0  0  0  0  0  0  0  0  0  0  0  0
  140.3020   70.7820  221.3650 C   0  0  0  0  0  0  0  0  0  0  0  0
  141.3050   71.1970  220.3340 C   0  0  0  0  0  0  0  0  0  0  0  0
  142.2270   72.2870  220.8350 C   0  0  0  0  0  0  0  0  0  0  0  0
  141.4630   73.5350  221.2070 C   0  0  0  0  0  0  0  0  0  0  0  0
  140.1560   73.2140  221.9140 C   0  0  0  0  0  0  0  0  0  0  0  0
  141.6454   71.1543  227.3107 H   0  0  0  0  0  0  0  0  0  0  0  0
  141.9583   69.5118  229.1378 H   0  0  0  0  0  0  0  0  0  0  0  0
  140.6783   67.4159  229.1285 H   0  0  0  0  0  0  0  0  0  0  0  0
  139.0431   66.8822  227.3179 H   0  0  0  0  0  0  0  0  0  0  0  0
  137.8141   68.4848  222.4317 H   0  0  0  0  0  0  0  0  0  0  0  0
  135.5695   68.3828  222.5508 H   0  0  0  0  0  0  0  0  0  0  0  0
  135.6440   71.5092  224.0046 H   0  0  0  0  0  0  0  0  0  0  0  0
  134.2384   72.3553  225.8680 H   0  0  0  0  0  0  0  0  0  0  0  0
  133.0641   70.7867  227.4078 H   0  0  0  0  0  0  0  0  0  0  0  0
  134.6938   67.5298  225.2181 H   0  0  0  0  0  0  0  0  0  0  0  0
  138.1477   71.2237  222.5760 H   0  0  0  0  0  0  0  0  0  0  0  0
  138.7320   72.4525  223.8302 H   0  0  0  0  0  0  0  0  0  0  0  0
  141.0358   71.7529  223.1385 H   0  0  0  0  0  0  0  0  0  0  0  0
  140.6224   69.8278  221.8087 H   0  0  0  0  0  0  0  0  0  0  0  0
  139.3255   70.6811  220.8687 H   0  0  0  0  0  0  0  0  0  0  0  0
  141.9104   70.3213  220.0570 H   0  0  0  0  0  0  0  0  0  0  0  0
  140.7535   71.5943  219.4692 H   0  0  0  0  0  0  0  0  0  0  0  0
  142.7645   71.9200  221.7218 H   0  0  0  0  0  0  0  0  0  0  0  0
  142.9288   72.5417  220.0272 H   0  0  0  0  0  0  0  0  0  0  0  0
  142.0868   74.1473  221.8748 H   0  0  0  0  0  0  0  0  0  0  0  0
  141.2233   74.0754  220.2794 H   0  0  0  0  0  0  0  0  0  0  0  0
  140.0101   73.9279  222.7381 H   0  0  0  0  0  0  0  0  0  0  0  0
  139.3384   73.2905  221.1821 H   0  0  0  0  0  0  0  0  0  0  0  0
  1  2  2  0
  2  3  1  0
  3  4  2  0
  4  5  1  0
  5  6  2  0
  6  7  1  0
  7  8  2  0
  8  9  1  0
  9 10  2  0
 10 11  1  0
 11 12  2  0
 12 13  1  0
 13 14  2  0
 14 15  1  0
 15 16  2  0
 16 17  1  0
 17 18  2  0
 10 19  1  0
 19 20  1  0
 20 21  1  0
 21 22  1  0
 22 23  1  0
 23 24  1  0
 24 25  1  0
 25 26  1  0
 19  2  1  0
 26 21  1  0
  8  3  1  0
 18 13  1  0
  4 27  1  0
  5 28  1  0
  6 29  1  0
  7 30  1  0
 11 31  1  0
 12 32  1  0
 14 33  1  0
 15 34  1  0
 16 35  1  0
 18 36  1  0
 20 37  1  0
 20 38  1  0
 21 39  1  0
 22 40  1  0
 22 41  1  0
 23 42  1  0
 23 43  1  0
 24 44  1  0
 24 45  1  0
 25 46  1  0
 25 47  1  0
 26 48  1  0
 26 49  1  0
M  END
>  <smiles>  (35) 
O=c1c2ccccc2nc(/C=C/c2cccnc2)n1CC1CCCCC1

>  <score_type>  (35) 
oracle

>  <origin>  (35) 
autodockgpu

>  <m_score__min__energy>  (35) 
-7.3099999999999996

>  <m_primary>  (35) 
energy

>  <rmsd>  (35) 
10.736719586656744

>  <m_score__min__rmsd>  (35) 
10.736719586656744

>  <meeko>  (35) 
{"free_energy": -7.23, "intermolecular_energy": -8.72, "internal_energy": -1.38, "cluster_size": 16, "cluster_id": 2, "rank_in_cluster": 6}

>  <energy>  (35) 
-6.36

>  <cluster_rmsd>  (35) 
1.49

>  <cluster>  (35) 
4

$$$$

     RDKit          3D

 49 52  0  0  0  0  0  0  0  0999 V2000
  142.8930   76.4180  219.8340 O   0  0  0  0  0  0  0  0  0  0  0  0
  141.9890   75.8880  220.5190 C   0  0  0  0  0  0  0  0  0  0  0  0
  142.0890   74.5340  220.7320 C   0  0  0  0  0  0  0  0  0  0  0  0
  143.1320   73.8050  220.2050 C   0  0  0  0  0  0  0  0  0  0  0  0
  143.1730   72.4680  220.4500 C   0  0  0  0  0  0  0  0  0  0  0  0
  142.1820   71.8840  221.2070 C   0  0  0  0  0  0  0  0  0  0  0  0
  141.1230   72.6050  221.7460 C   0  0  0  0  0  0  0  0  0  0  0  0
  141.1090   73.9510  221.4820 C   0  0  0  0  0  0  0  0  0  0  0  0
  140.1350   74.6920  221.9590 N   0  0  0  0  0  0  0  0  0  0  0  0
  139.9960   76.0470  221.7710 C   0  0  0  0  0  0  0  0  0  0  0  0
  138.8670   76.6330  222.4130 C   0  0  0  0  0  0  0  0  0  0  0  0
  137.9820   77.4960  222.0290 C   0  0  0  0  0  0  0  0  0  0  0  0
  138.0980   78.9540  222.2400 C   0  0  0  0  0  0  0  0  0  0  0  0
  138.0290   79.8700  221.2240 C   0  0  0  0  0  0  0  0  0  0  0  0
  138.1500   81.2340  221.5030 C   0  0  0  0  0  0  0  0  0  0  0  0
  138.3400   81.7010  222.7890 C   0  0  0  0  0  0  0  0  0  0  0  0
  138.4050   80.7700  223.7760 N   0  0  0  0  0  0  0  0  0  0  0  0
  138.2900   79.4560  223.5170 C   0  0  0  0  0  0  0  0  0  0  0  0
  140.9450   76.6240  221.0410 N   0  0  0  0  0  0  0  0  0  0  0  0
  141.0040   78.0310  220.7390 C   0  0  0  0  0  0  0  0  0  0  0  0
  141.7240   78.8900  221.7200 C   0  0  0  0  0  0  0  0  0  0  0  0
  141.4770   80.3550  221.3910 C   0  0  0  0  0  0  0  0  0  0  0  0
  141.8890   81.2570  222.5110 C   0  0  0  0  0  0  0  0  0  0  0  0
  142.8210   80.5730  223.4870 C   0  0  0  0  0  0  0  0  0  0  0  0
  142.1690   79.3720  224.1300 C   0  0  0  0  0  0  0  0  0  0  0  0
  141.3340   78.5770  223.1400 C   0  0  0  0  0  0  0  0  0  0  0  0
  143.9120   74.2919  219.6013 H   0  0  0  0  0  0  0  0  0  0  0  0
  143.9932   71.8565  220.0458 H   0  0  0  0  0  0  0  0  0  0  0  0
  142.2305   70.8009  221.3930 H   0  0  0  0  0  0  0  0  0  0  0  0
  140.3402   72.1233  222.3503 H   0  0  0  0  0  0  0  0  0  0  0  0
  138.7171   76.2805  223.4441 H   0  0  0  0  0  0  0  0  0  0  0  0
  137.0864   77.1201  221.5127 H   0  0  0  0  0  0  0  0  0  0  0  0
  137.8783   79.5319  220.1882 H   0  0  0  0  0  0  0  0  0  0  0  0
  138.0923   81.9561  220.6752 H   0  0  0  0  0  0  0  0  0  0  0  0
  138.4342   82.7757  223.0036 H   0  0  0  0  0  0  0  0  0  0  0  0
  138.3510   78.7477  224.3564 H   0  0  0  0  0  0  0  0  0  0  0  0
  141.5039   78.1435  219.7656 H   0  0  0  0  0  0  0  0  0  0  0  0
  139.9602   78.3777  220.7583 H   0  0  0  0  0  0  0  0  0  0  0  0
  142.8003   78.6781  221.6386 H   0  0  0  0  0  0  0  0  0  0  0  0
  142.0529   80.6192  220.4918 H   0  0  0  0  0  0  0  0  0  0  0  0
  140.3979   80.4893  221.2255 H   0  0  0  0  0  0  0  0  0  0  0  0
  142.4011   82.1341  222.0885 H   0  0  0  0  0  0  0  0  0  0  0  0
  140.9812   81.5473  223.0602 H   0  0  0  0  0  0  0  0  0  0  0  0
  143.7226   80.2445  222.9492 H   0  0  0  0  0  0  0  0  0  0  0  0
  143.0764   81.2914  224.2799 H   0  0  0  0  0  0  0  0  0  0  0  0
  142.9539   78.7180  224.5377 H   0  0  0  0  0  0  0  0  0  0  0  0
  141.4995   79.7343  224.9240 H   0  0  0  0  0  0  0  0  0  0  0  0
  141.4852   77.5032  223.3247 H   0  0  0  0  0  0  0  0  0  0  0  0
  140.2776   78.8507  223.2783 H   0  0  0  0  0  0  0  0  0  0  0  0
  1  2  2  0
  2  3  1  0
  3  4  2  0
  4  5  1  0
  5  6  2  0
  6  7  1  0
  7  8  2  0
  8  9  1  0
  9 10  2  0
 10 11  1  0
 11 12  2  0
 12 13  1  0
 13 14  2  0
 14 15  1  0
 15 16  2  0
 16 17  1  0
 17 18  2  0
 10 19  1  0
 19 20  1  0
 20 21  1  0
 21 22  1  0
 22 23  1  0
 23 24  1  0
 24 25  1  0
 25 26  1  0
 19  2  1  0
 26 21  1  0
  8  3  1  0
 18 13  1  0
  4 27  1  0
  5 28  1  0
  6 29  1  0
  7 30  1  0
 11 31  1  0
 12 32  1  0
 14 33  1  0
 15 34  1  0
 16 35  1  0
 18 36  1  0
 20 37  1  0
 20 38  1  0
 21 39  1  0
 22 40  1  0
 22 41  1  0
 23 42  1  0
 23 43  1  0
 24 44  1  0
 24 45  1  0
 25 46  1  0
 25 47  1  0
 26 48  1  0
 26 49  1  0
M  END
>  <smiles>  (36) 
O=c1c2ccccc2nc(/C=C/c2cccnc2)n1CC1CCCCC1

>  <score_type>  (36) 
oracle

>  <origin>  (36) 
autodockgpu

>  <m_score__min__energy>  (36) 
-7.3099999999999996

>  <m_primary>  (36) 
energy

>  <rmsd>  (36) 
7.551625115593127

>  <m_score__min__rmsd>  (36) 
7.551625115593127

>  <meeko>  (36) 
{"free_energy": -6.45, "intermolecular_energy": -7.94, "internal_energy": -1.93, "cluster_size": 15, "cluster_id": 5, "rank_in_cluster": 9}

>  <energy>  (36) 
-6.55

>  <cluster_rmsd>  (36) 
0.0

>  <cluster>  (36) 
5

$$$$

     RDKit          3D

 49 52  0  0  0  0  0  0  0  0999 V2000
  142.8950   76.3880  219.8260 O   0  0  0  0  0  0  0  0  0  0  0  0
  141.9880   75.8710  220.5160 C   0  0  0  0  0  0  0  0  0  0  0  0
  142.0820   74.5190  220.7470 C   0  0  0  0  0  0  0  0  0  0  0  0
  143.1230   73.7790  220.2320 C   0  0  0  0  0  0  0  0  0  0  0  0
  143.1580   72.4450  220.4940 C   0  0  0  0  0  0  0  0  0  0  0  0
  142.1630   71.8760  221.2570 C   0  0  0  0  0  0  0  0  0  0  0  0
  141.1060   72.6080  221.7850 C   0  0  0  0  0  0  0  0  0  0  0  0
  141.0980   73.9500  221.5030 C   0  0  0  0  0  0  0  0  0  0  0  0
  140.1260   74.7010  221.9690 N   0  0  0  0  0  0  0  0  0  0  0  0
  139.9930   76.0540  221.7630 C   0  0  0  0  0  0  0  0  0  0  0  0
  138.8650   76.6530  222.3960 C   0  0  0  0  0  0  0  0  0  0  0  0
  137.9980   77.5310  222.0060 C   0  0  0  0  0  0  0  0  0  0  0  0
  138.0870   78.9760  222.3050 C   0  0  0  0  0  0  0  0  0  0  0  0
  137.9310   79.9520  221.3580 C   0  0  0  0  0  0  0  0  0  0  0  0
  138.0310   81.2990  221.7180 C   0  0  0  0  0  0  0  0  0  0  0  0
  138.2870   81.6880  223.0190 C   0  0  0  0  0  0  0  0  0  0  0  0
  138.4380   80.6980  223.9360 N   0  0  0  0  0  0  0  0  0  0  0  0
  138.3420   79.4000  223.5990 C   0  0  0  0  0  0  0  0  0  0  0  0
  140.9460   76.6180  221.0270 N   0  0  0  0  0  0  0  0  0  0  0  0
  141.0100   78.0200  220.7070 C   0  0  0  0  0  0  0  0  0  0  0  0
  141.7210   78.8910  221.6850 C   0  0  0  0  0  0  0  0  0  0  0  0
  141.4140   80.3510  221.3820 C   0  0  0  0  0  0  0  0  0  0  0  0
  141.8180   81.2510  222.5070 C   0  0  0  0  0  0  0  0  0  0  0  0
  142.7960   80.5880  223.4520 C   0  0  0  0  0  0  0  0  0  0  0  0
  142.2010   79.3560  224.0920 C   0  0  0  0  0  0  0  0  0  0  0  0
  141.3740   78.5450  223.1080 C   0  0  0  0  0  0  0  0  0  0  0  0
  143.9065   74.2550  219.6240 H   0  0  0  0  0  0  0  0  0  0  0  0
  143.9759   71.8245  220.0989 H   0  0  0  0  0  0  0  0  0  0  0  0
  142.2065   70.7953  221.4574 H   0  0  0  0  0  0  0  0  0  0  0  0
  140.3204   72.1375  222.3945 H   0  0  0  0  0  0  0  0  0  0  0  0
  138.6978   76.2971  223.4233 H   0  0  0  0  0  0  0  0  0  0  0  0
  137.1399   77.1796  221.4142 H   0  0  0  0  0  0  0  0  0  0  0  0
  137.7268   79.6761  220.3129 H   0  0  0  0  0  0  0  0  0  0  0  0
  137.9024   82.0704  220.9445 H   0  0  0  0  0  0  0  0  0  0  0  0
  138.3648   82.7491  223.2985 H   0  0  0  0  0  0  0  0  0  0  0  0
  138.4716   78.6415  224.3851 H   0  0  0  0  0  0  0  0  0  0  0  0
  141.5205   78.1191  219.7377 H   0  0  0  0  0  0  0  0  0  0  0  0
  139.9666   78.3683  220.7100 H   0  0  0  0  0  0  0  0  0  0  0  0
  142.8022   78.7190  221.5778 H   0  0  0  0  0  0  0  0  0  0  0  0
  141.9604   80.6485  220.4748 H   0  0  0  0  0  0  0  0  0  0  0  0
  140.3275   80.4487  221.2404 H   0  0  0  0  0  0  0  0  0  0  0  0
  142.2881   82.1525  222.0871 H   0  0  0  0  0  0  0  0  0  0  0  0
  140.9126   81.4990  223.0804 H   0  0  0  0  0  0  0  0  0  0  0  0
  143.6961   80.2990  222.8896 H   0  0  0  0  0  0  0  0  0  0  0  0
  143.0445   81.3043  224.2489 H   0  0  0  0  0  0  0  0  0  0  0  0
  143.0171   78.7252  224.4742 H   0  0  0  0  0  0  0  0  0  0  0  0
  141.5363   79.6834  224.9050 H   0  0  0  0  0  0  0  0  0  0  0  0
  141.5678   77.4750  223.2739 H   0  0  0  0  0  0  0  0  0  0  0  0
  140.3118   78.7787  223.2725 H   0  0  0  0  0  0  0  0  0  0  0  0
  1  2  2  0
  2  3  1  0
  3  4  2  0
  4  5  1  0
  5  6  2  0
  6  7  1  0
  7  8  2  0
  8  9  1  0
  9 10  2  0
 10 11  1  0
 11 12  2  0
 12 13  1  0
 13 14  2  0
 14 15  1  0
 15 16  2  0
 16 17  1  0
 17 18  2  0
 10 19  1  0
 19 20  1  0
 20 21  1  0
 21 22  1  0
 22 23  1  0
 23 24  1  0
 24 25  1  0
 25 26  1  0
 19  2  1  0
 26 21  1  0
  8  3  1  0
 18 13  1  0
  4 27  1  0
  5 28  1  0
  6 29  1  0
  7 30  1  0
 11 31  1  0
 12 32  1  0
 14 33  1  0
 15 34  1  0
 16 35  1  0
 18 36  1  0
 20 37  1  0
 20 38  1  0
 21 39  1  0
 22 40  1  0
 22 41  1  0
 23 42  1  0
 23 43  1  0
 24 44  1  0
 24 45  1  0
 25 46  1  0
 25 47  1  0
 26 48  1  0
 26 49  1  0
M  END
>  <smiles>  (37) 
O=c1c2ccccc2nc(/C=C/c2cccnc2)n1CC1CCCCC1

>  <score_type>  (37) 
oracle

>  <origin>  (37) 
autodockgpu

>  <m_score__min__energy>  (37) 
-7.3099999999999996

>  <m_primary>  (37) 
energy

>  <rmsd>  (37) 
7.550264094912744

>  <m_score__min__rmsd>  (37) 
7.550264094912744

>  <meeko>  (37) 
{"free_energy": -6.44, "intermolecular_energy": -7.93, "internal_energy": -1.93, "cluster_size": 15, "cluster_id": 5, "rank_in_cluster": 13}

>  <energy>  (37) 
-6.54

>  <cluster_rmsd>  (37) 
0.23

>  <cluster>  (37) 
5

$$$$

     RDKit          3D

 49 52  0  0  0  0  0  0  0  0999 V2000
  142.9020   76.4180  219.7810 O   0  0  0  0  0  0  0  0  0  0  0  0
  142.0020   75.8980  220.4770 C   0  0  0  0  0  0  0  0  0  0  0  0
  142.0990   74.5450  220.7030 C   0  0  0  0  0  0  0  0  0  0  0  0
  143.1350   73.8070  220.1750 C   0  0  0  0  0  0  0  0  0  0  0  0
  143.1730   72.4720  220.4320 C   0  0  0  0  0  0  0  0  0  0  0  0
  142.1860   71.9000  221.2030 C   0  0  0  0  0  0  0  0  0  0  0  0
  141.1340   72.6290  221.7430 C   0  0  0  0  0  0  0  0  0  0  0  0
  141.1220   73.9730  221.4660 C   0  0  0  0  0  0  0  0  0  0  0  0
  140.1540   74.7210  221.9430 N   0  0  0  0  0  0  0  0  0  0  0  0
  140.0190   76.0750  221.7440 C   0  0  0  0  0  0  0  0  0  0  0  0
  138.8960   76.6710  222.3890 C   0  0  0  0  0  0  0  0  0  0  0  0
  138.0270   77.5540  222.0120 C   0  0  0  0  0  0  0  0  0  0  0  0
  138.1110   78.9930  222.3370 C   0  0  0  0  0  0  0  0  0  0  0  0
  138.3790   79.4650  223.5940 C   0  0  0  0  0  0  0  0  0  0  0  0
  138.4400   80.8430  223.8240 C   0  0  0  0  0  0  0  0  0  0  0  0
  138.2350   81.7610  222.8120 C   0  0  0  0  0  0  0  0  0  0  0  0
  137.9710   81.2620  221.5770 N   0  0  0  0  0  0  0  0  0  0  0  0
  137.9110   79.9390  221.3460 C   0  0  0  0  0  0  0  0  0  0  0  0
  140.9640   76.6420  221.0000 N   0  0  0  0  0  0  0  0  0  0  0  0
  141.0250   78.0450  220.6850 C   0  0  0  0  0  0  0  0  0  0  0  0
  141.7150   78.9180  221.6750 C   0  0  0  0  0  0  0  0  0  0  0  0
  141.3710   80.3740  221.3960 C   0  0  0  0  0  0  0  0  0  0  0  0
  141.7540   81.2670  222.5350 C   0  0  0  0  0  0  0  0  0  0  0  0
  142.7490   80.6140  223.4690 C   0  0  0  0  0  0  0  0  0  0  0  0
  142.1870   79.3570  224.0890 C   0  0  0  0  0  0  0  0  0  0  0  0
  141.3790   78.5410  223.0930 C   0  0  0  0  0  0  0  0  0  0  0  0
  143.9122   74.2853  219.5608 H   0  0  0  0  0  0  0  0  0  0  0  0
  143.9870   71.8532  220.0265 H   0  0  0  0  0  0  0  0  0  0  0  0
  142.2325   70.8188  221.3999 H   0  0  0  0  0  0  0  0  0  0  0  0
  140.3545   72.1556  222.3580 H   0  0  0  0  0  0  0  0  0  0  0  0
  138.7351   76.3072  223.4145 H   0  0  0  0  0  0  0  0  0  0  0  0
  137.1717   77.2109  221.4114 H   0  0  0  0  0  0  0  0  0  0  0  0
  138.5462   78.7608  224.4223 H   0  0  0  0  0  0  0  0  0  0  0  0
  138.6573   81.2063  224.8393 H   0  0  0  0  0  0  0  0  0  0  0  0
  138.2833   82.8441  222.9978 H   0  0  0  0  0  0  0  0  0  0  0  0
  137.6935   79.5928  220.3248 H   0  0  0  0  0  0  0  0  0  0  0  0
  141.5499   78.1494  219.7240 H   0  0  0  0  0  0  0  0  0  0  0  0
  139.9796   78.3869  220.6735 H   0  0  0  0  0  0  0  0  0  0  0  0
  142.7999   78.7752  221.5632 H   0  0  0  0  0  0  0  0  0  0  0  0
  141.9082   80.6994  220.4929 H   0  0  0  0  0  0  0  0  0  0  0  0
  140.2821   80.4463  221.2578 H   0  0  0  0  0  0  0  0  0  0  0  0
  142.2013   82.1861  222.1286 H   0  0  0  0  0  0  0  0  0  0  0  0
  140.8434   81.4838  223.1127 H   0  0  0  0  0  0  0  0  0  0  0  0
  143.6560   80.3576  222.9018 H   0  0  0  0  0  0  0  0  0  0  0  0
  142.9788   81.3235  224.2776 H   0  0  0  0  0  0  0  0  0  0  0  0
  143.0197   78.7412  224.4595 H   0  0  0  0  0  0  0  0  0  0  0  0
  141.5154   79.6539  224.9081 H   0  0  0  0  0  0  0  0  0  0  0  0
  141.5999   77.4737  223.2417 H   0  0  0  0  0  0  0  0  0  0  0  0
  140.3115   78.7454  223.2624 H   0  0  0  0  0  0  0  0  0  0  0  0
  1  2  2  0
  2  3  1  0
  3  4  2  0
  4  5  1  0
  5  6  2  0
  6  7  1  0
  7  8  2  0
  8  9  1  0
  9 10  2  0
 10 11  1  0
 11 12  2  0
 12 13  1  0
 13 14  2  0
 14 15  1  0
 15 16  2  0
 16 17  1  0
 17 18  2  0
 10 19  1  0
 19 20  1  0
 20 21  1  0
 21 22  1  0
 22 23  1  0
 23 24  1  0
 24 25  1  0
 25 26  1  0
 19  2  1  0
 26 21  1  0
  8  3  1  0
 18 13  1  0
  4 27  1  0
  5 28  1  0
  6 29  1  0
  7 30  1  0
 11 31  1  0
 12 32  1  0
 14 33  1  0
 15 34  1  0
 16 35  1  0
 18 36  1  0
 20 37  1  0
 20 38  1  0
 21 39  1  0
 22 40  1  0
 22 41  1  0
 23 42  1  0
 23 43  1  0
 24 44  1  0
 24 45  1  0
 25 46  1  0
 25 47  1  0
 26 48  1  0
 26 49  1  0
M  END
>  <smiles>  (38) 
O=c1c2ccccc2nc(/C=C/c2cccnc2)n1CC1CCCCC1

>  <score_type>  (38) 
oracle

>  <origin>  (38) 
autodockgpu

>  <m_score__min__energy>  (38) 
-7.3099999999999996

>  <m_primary>  (38) 
energy

>  <rmsd>  (38) 
7.547358879476707

>  <m_score__min__rmsd>  (38) 
7.547358879476707

>  <meeko>  (38) 
{"free_energy": -6.54, "intermolecular_energy": -8.04, "internal_energy": -1.9, "cluster_size": 15, "cluster_id": 5, "rank_in_cluster": 2}

>  <energy>  (38) 
-6.54

>  <cluster_rmsd>  (38) 
0.23

>  <cluster>  (38) 
5

$$$$

     RDKit          3D

 49 52  0  0  0  0  0  0  0  0999 V2000
  140.4860   74.4630  221.9870 O   0  0  0  0  0  0  0  0  0  0  0  0
  141.3360   75.0050  221.2450 C   0  0  0  0  0  0  0  0  0  0  0  0
  142.3760   74.2150  220.8160 C   0  0  0  0  0  0  0  0  0  0  0  0
  142.4720   72.8950  221.1970 C   0  0  0  0  0  0  0  0  0  0  0  0
  143.5260   72.1660  220.7410 C   0  0  0  0  0  0  0  0  0  0  0  0
  144.4590   72.7600  219.9210 C   0  0  0  0  0  0  0  0  0  0  0  0
  144.3770   74.0900  219.5260 C   0  0  0  0  0  0  0  0  0  0  0  0
  143.3030   74.7990  220.0020 C   0  0  0  0  0  0  0  0  0  0  0  0
  143.1660   76.0630  219.6700 N   0  0  0  0  0  0  0  0  0  0  0  0
  142.1430   76.8880  220.0740 C   0  0  0  0  0  0  0  0  0  0  0  0
  142.1990   78.2150  219.5580 C   0  0  0  0  0  0  0  0  0  0  0  0
  141.2940   79.0300  219.1190 C   0  0  0  0  0  0  0  0  0  0  0  0
  140.9280   80.2990  219.7820 C   0  0  0  0  0  0  0  0  0  0  0  0
  141.8270   81.0830  220.4550 C   0  0  0  0  0  0  0  0  0  0  0  0
  141.4040   82.2710  221.0580 C   0  0  0  0  0  0  0  0  0  0  0  0
  140.0900   82.6910  220.9990 C   0  0  0  0  0  0  0  0  0  0  0  0
  139.2210   81.8930  220.3240 N   0  0  0  0  0  0  0  0  0  0  0  0
  139.6190   80.7490  219.7410 C   0  0  0  0  0  0  0  0  0  0  0  0
  141.2360   76.3290  220.8680 N   0  0  0  0  0  0  0  0  0  0  0  0
  140.0770   77.0060  221.3900 C   0  0  0  0  0  0  0  0  0  0  0  0
  140.3290   78.2640  222.1450 C   0  0  0  0  0  0  0  0  0  0  0  0
  139.0450   78.7110  222.8310 C   0  0  0  0  0  0  0  0  0  0  0  0
  139.3000   79.7670  223.8600 C   0  0  0  0  0  0  0  0  0  0  0  0
  140.6470   80.4330  223.6810 C   0  0  0  0  0  0  0  0  0  0  0  0
  141.7790   79.4400  223.8060 C   0  0  0  0  0  0  0  0  0  0  0  0
  141.4520   78.1150  223.1360 C   0  0  0  0  0  0  0  0  0  0  0  0
  141.7151   72.4415  221.8538 H   0  0  0  0  0  0  0  0  0  0  0  0
  143.6323   71.1088  221.0255 H   0  0  0  0  0  0  0  0  0  0  0  0
  145.3058   72.1559  219.5631 H   0  0  0  0  0  0  0  0  0  0  0  0
  145.1306   74.5484  218.8688 H   0  0  0  0  0  0  0  0  0  0  0  0
  143.2168   78.6310  219.5262 H   0  0  0  0  0  0  0  0  0  0  0  0
  140.7637   78.7608  218.1936 H   0  0  0  0  0  0  0  0  0  0  0  0
  142.8818   80.7778  220.5210 H   0  0  0  0  0  0  0  0  0  0  0  0
  142.1389   82.8889  221.5948 H   0  0  0  0  0  0  0  0  0  0  0  0
  139.7621   83.6267  221.4755 H   0  0  0  0  0  0  0  0  0  0  0  0
  138.8716   80.1433  219.2076 H   0  0  0  0  0  0  0  0  0  0  0  0
  139.4218   77.2508  220.5410 H   0  0  0  0  0  0  0  0  0  0  0  0
  139.6366   76.3106  222.1198 H   0  0  0  0  0  0  0  0  0  0  0  0
  140.6456   79.0374  221.4297 H   0  0  0  0  0  0  0  0  0  0  0  0
  138.3577   79.1128  222.0719 H   0  0  0  0  0  0  0  0  0  0  0  0
  138.6087   77.8384  223.3392 H   0  0  0  0  0  0  0  0  0  0  0  0
  138.5141   80.5328  223.7827 H   0  0  0  0  0  0  0  0  0  0  0  0
  139.2941   79.2819  224.8472 H   0  0  0  0  0  0  0  0  0  0  0  0
  140.6867   80.8960  222.6840 H   0  0  0  0  0  0  0  0  0  0  0  0
  140.7644   81.1900  224.4704 H   0  0  0  0  0  0  0  0  0  0  0  0
  142.6773   79.8644  223.3338 H   0  0  0  0  0  0  0  0  0  0  0  0
  141.9449   79.2474  224.8762 H   0  0  0  0  0  0  0  0  0  0  0  0
  142.3466   77.7489  222.6110 H   0  0  0  0  0  0  0  0  0  0  0  0
  141.1367   77.4026  223.9125 H   0  0  0  0  0  0  0  0  0  0  0  0
  1  2  2  0
  2  3  1  0
  3  4  2  0
  4  5  1  0
  5  6  2  0
  6  7  1  0
  7  8  2  0
  8  9  1  0
  9 10  2  0
 10 11  1  0
 11 12  2  0
 12 13  1  0
 13 14  2  0
 14 15  1  0
 15 16  2  0
 16 17  1  0
 17 18  2  0
 10 19  1  0
 19 20  1  0
 20 21  1  0
 21 22  1  0
 22 23  1  0
 23 24  1  0
 24 25  1  0
 25 26  1  0
 19  2  1  0
 26 21  1  0
  8  3  1  0
 18 13  1  0
  4 27  1  0
  5 28  1  0
  6 29  1  0
  7 30  1  0
 11 31  1  0
 12 32  1  0
 14 33  1  0
 15 34  1  0
 16 35  1  0
 18 36  1  0
 20 37  1  0
 20 38  1  0
 21 39  1  0
 22 40  1  0
 22 41  1  0
 23 42  1  0
 23 43  1  0
 24 44  1  0
 24 45  1  0
 25 46  1  0
 25 47  1  0
 26 48  1  0
 26 49  1  0
M  END
>  <smiles>  (39) 
O=c1c2ccccc2nc(/C=C/c2cccnc2)n1CC1CCCCC1

>  <score_type>  (39) 
oracle

>  <origin>  (39) 
autodockgpu

>  <m_score__min__energy>  (39) 
-7.3099999999999996

>  <m_primary>  (39) 
energy

>  <rmsd>  (39) 
7.817842553250834

>  <m_score__min__rmsd>  (39) 
7.817842553250834

>  <meeko>  (39) 
{"free_energy": -6.44, "intermolecular_energy": -7.93, "internal_energy": -1.91, "cluster_size": 8, "cluster_id": 4, "rank_in_cluster": 3}

>  <energy>  (39) 
-6.54

>  <cluster_rmsd>  (39) 
0.24

>  <cluster>  (39) 
5

$$$$

     RDKit          3D

 49 52  0  0  0  0  0  0  0  0999 V2000
  140.3880   74.4980  222.0070 O   0  0  0  0  0  0  0  0  0  0  0  0
  141.2500   75.0110  221.2590 C   0  0  0  0  0  0  0  0  0  0  0  0
  142.2630   74.1880  220.8280 C   0  0  0  0  0  0  0  0  0  0  0  0
  142.3210   72.8670  221.2130 C   0  0  0  0  0  0  0  0  0  0  0  0
  143.3500   72.1050  220.7540 C   0  0  0  0  0  0  0  0  0  0  0  0
  144.2960   72.6680  219.9270 C   0  0  0  0  0  0  0  0  0  0  0  0
  144.2530   73.9990  219.5280 C   0  0  0  0  0  0  0  0  0  0  0  0
  143.2040   74.7420  220.0080 C   0  0  0  0  0  0  0  0  0  0  0  0
  143.1030   76.0080  219.6720 N   0  0  0  0  0  0  0  0  0  0  0  0
  142.1080   76.8650  220.0790 C   0  0  0  0  0  0  0  0  0  0  0  0
  142.2010   78.1880  219.5580 C   0  0  0  0  0  0  0  0  0  0  0  0
  141.3270   79.0080  219.0680 C   0  0  0  0  0  0  0  0  0  0  0  0
  140.8970   80.2560  219.7310 C   0  0  0  0  0  0  0  0  0  0  0  0
  139.6180   80.7420  219.6650 C   0  0  0  0  0  0  0  0  0  0  0  0
  139.2880   81.9320  220.3190 C   0  0  0  0  0  0  0  0  0  0  0  0
  140.2210   82.6500  221.0410 C   0  0  0  0  0  0  0  0  0  0  0  0
  141.4810   82.1450  221.0880 N   0  0  0  0  0  0  0  0  0  0  0  0
  141.8080   81.0010  220.4630 C   0  0  0  0  0  0  0  0  0  0  0  0
  141.1880   76.3360  220.8790 N   0  0  0  0  0  0  0  0  0  0  0  0
  140.0530   77.0500  221.4040 C   0  0  0  0  0  0  0  0  0  0  0  0
  140.3470   78.3050  222.1510 C   0  0  0  0  0  0  0  0  0  0  0  0
  139.0740   78.8120  222.8140 C   0  0  0  0  0  0  0  0  0  0  0  0
  139.3580   79.8670  223.8360 C   0  0  0  0  0  0  0  0  0  0  0  0
  140.7340   80.4740  223.6690 C   0  0  0  0  0  0  0  0  0  0  0  0
  141.8220   79.4370  223.8190 C   0  0  0  0  0  0  0  0  0  0  0  0
  141.4490   78.1200  223.1580 C   0  0  0  0  0  0  0  0  0  0  0  0
  141.5542   72.4387  221.8753 H   0  0  0  0  0  0  0  0  0  0  0  0
  143.4259   71.0460  221.0416 H   0  0  0  0  0  0  0  0  0  0  0  0
  145.1218   72.0371  219.5663 H   0  0  0  0  0  0  0  0  0  0  0  0
  145.0166   74.4320  218.8651 H   0  0  0  0  0  0  0  0  0  0  0  0
  143.2227   78.5953  219.5757 H   0  0  0  0  0  0  0  0  0  0  0  0
  140.8759   78.7595  218.0960 H   0  0  0  0  0  0  0  0  0  0  0  0
  138.8506   80.1955  219.0971 H   0  0  0  0  0  0  0  0  0  0  0  0
  138.2559   82.3075  220.2570 H   0  0  0  0  0  0  0  0  0  0  0  0
  139.9562   83.5865  221.5537 H   0  0  0  0  0  0  0  0  0  0  0  0
  142.8445   80.6400  220.5357 H   0  0  0  0  0  0  0  0  0  0  0  0
  139.4003   77.3096  220.5575 H   0  0  0  0  0  0  0  0  0  0  0  0
  139.5967   76.3721  222.1403 H   0  0  0  0  0  0  0  0  0  0  0  0
  140.7052   79.0573  221.4329 H   0  0  0  0  0  0  0  0  0  0  0  0
  138.4147   79.2341  222.0413 H   0  0  0  0  0  0  0  0  0  0  0  0
  138.5950   77.9636  223.3246 H   0  0  0  0  0  0  0  0  0  0  0  0
  138.6059   80.6640  223.7399 H   0  0  0  0  0  0  0  0  0  0  0  0
  139.3177   79.3935  224.8280 H   0  0  0  0  0  0  0  0  0  0  0  0
  140.8061   80.9247  222.6682 H   0  0  0  0  0  0  0  0  0  0  0  0
  140.8722   81.2331  224.4530 H   0  0  0  0  0  0  0  0  0  0  0  0
  142.7431   79.8190  223.3546 H   0  0  0  0  0  0  0  0  0  0  0  0
  141.9662   79.2490  224.8932 H   0  0  0  0  0  0  0  0  0  0  0  0
  142.3344   77.7115  222.6489 H   0  0  0  0  0  0  0  0  0  0  0  0
  141.0941   77.4295  223.9372 H   0  0  0  0  0  0  0  0  0  0  0  0
  1  2  2  0
  2  3  1  0
  3  4  2  0
  4  5  1  0
  5  6  2  0
  6  7  1  0
  7  8  2  0
  8  9  1  0
  9 10  2  0
 10 11  1  0
 11 12  2  0
 12 13  1  0
 13 14  2  0
 14 15  1  0
 15 16  2  0
 16 17  1  0
 17 18  2  0
 10 19  1  0
 19 20  1  0
 20 21  1  0
 21 22  1  0
 22 23  1  0
 23 24  1  0
 24 25  1  0
 25 26  1  0
 19  2  1  0
 26 21  1  0
  8  3  1  0
 18 13  1  0
  4 27  1  0
  5 28  1  0
  6 29  1  0
  7 30  1  0
 11 31  1  0
 12 32  1  0
 14 33  1  0
 15 34  1  0
 16 35  1  0
 18 36  1  0
 20 37  1  0
 20 38  1  0
 21 39  1  0
 22 40  1  0
 22 41  1  0
 23 42  1  0
 23 43  1  0
 24 44  1  0
 24 45  1  0
 25 46  1  0
 25 47  1  0
 26 48  1  0
 26 49  1  0
M  END
>  <smiles>  (40) 
O=c1c2ccccc2nc(/C=C/c2cccnc2)n1CC1CCCCC1

>  <score_type>  (40) 
oracle

>  <origin>  (40) 
autodockgpu

>  <m_score__min__energy>  (40) 
-7.3099999999999996

>  <m_primary>  (40) 
energy

>  <rmsd>  (40) 
7.828011976999933

>  <m_score__min__rmsd>  (40) 
7.828011976999933

>  <meeko>  (40) 
{"free_energy": -6.36, "intermolecular_energy": -7.85, "internal_energy": -1.92, "cluster_size": 8, "cluster_id": 4, "rank_in_cluster": 8}

>  <energy>  (40) 
-6.54

>  <cluster_rmsd>  (40) 
0.25

>  <cluster>  (40) 
5

$$$$

     RDKit          3D

 49 52  0  0  0  0  0  0  0  0999 V2000
  142.9030   77.4860  219.2700 O   0  0  0  0  0  0  0  0  0  0  0  0
  142.2260   76.7730  220.0450 C   0  0  0  0  0  0  0  0  0  0  0  0
  142.6170   75.4610  220.1770 C   0  0  0  0  0  0  0  0  0  0  0  0
  143.6960   74.9660  219.4790 C   0  0  0  0  0  0  0  0  0  0  0  0
  144.0310   73.6590  219.6520 C   0  0  0  0  0  0  0  0  0  0  0  0
  143.2900   72.8740  220.5070 C   0  0  0  0  0  0  0  0  0  0  0  0
  142.1980   73.3580  221.2190 C   0  0  0  0  0  0  0  0  0  0  0  0
  141.8850   74.6800  221.0240 C   0  0  0  0  0  0  0  0  0  0  0  0
  140.8630   75.2020  221.6630 N   0  0  0  0  0  0  0  0  0  0  0  0
  140.4390   76.5060  221.5620 C   0  0  0  0  0  0  0  0  0  0  0  0
  139.3200   76.8420  222.3780 C   0  0  0  0  0  0  0  0  0  0  0  0
  138.2770   77.5820  222.1840 C   0  0  0  0  0  0  0  0  0  0  0  0
  138.1410   78.9700  222.6730 C   0  0  0  0  0  0  0  0  0  0  0  0
  138.7390   79.4270  223.8170 C   0  0  0  0  0  0  0  0  0  0  0  0
  138.5620   80.7540  224.2160 C   0  0  0  0  0  0  0  0  0  0  0  0
  137.7920   81.6380  223.4860 C   0  0  0  0  0  0  0  0  0  0  0  0
  137.2100   81.1570  222.3570 N   0  0  0  0  0  0  0  0  0  0  0  0
  137.3750   79.8820  221.9650 C   0  0  0  0  0  0  0  0  0  0  0  0
  141.1440   77.2750  220.7380 N   0  0  0  0  0  0  0  0  0  0  0  0
  140.8840   78.6710  220.5000 C   0  0  0  0  0  0  0  0  0  0  0  0
  141.1350   79.5960  221.6400 C   0  0  0  0  0  0  0  0  0  0  0  0
  142.3320   79.1030  222.4410 C   0  0  0  0  0  0  0  0  0  0  0  0
  142.8370   80.1460  223.3880 C   0  0  0  0  0  0  0  0  0  0  0  0
  141.8200   81.2380  223.6390 C   0  0  0  0  0  0  0  0  0  0  0  0
  141.4590   81.9650  222.3650 C   0  0  0  0  0  0  0  0  0  0  0  0
  141.3320   81.0160  221.1840 C   0  0  0  0  0  0  0  0  0  0  0  0
  144.2721   75.6109  218.7991 H   0  0  0  0  0  0  0  0  0  0  0  0
  144.8888   73.2316  219.1121 H   0  0  0  0  0  0  0  0  0  0  0  0
  143.5741   71.8187  220.6321 H   0  0  0  0  0  0  0  0  0  0  0  0
  141.6180   72.7177  221.8998 H   0  0  0  0  0  0  0  0  0  0  0  0
  139.3492   76.3780  223.3749 H   0  0  0  0  0  0  0  0  0  0  0  0
  137.4376   77.1506  221.6189 H   0  0  0  0  0  0  0  0  0  0  0  0
  139.3589   78.7490  224.4220 H   0  0  0  0  0  0  0  0  0  0  0  0
  139.0496   81.1047  225.1376 H   0  0  0  0  0  0  0  0  0  0  0  0
  137.6565   82.6823  223.8039 H   0  0  0  0  0  0  0  0  0  0  0  0
  136.8800   79.5478  221.0413 H   0  0  0  0  0  0  0  0  0  0  0  0
  141.5209   78.9918  219.6625 H   0  0  0  0  0  0  0  0  0  0  0  0
  139.8038   78.7372  220.3029 H   0  0  0  0  0  0  0  0  0  0  0  0
  140.2442   79.5972  222.2853 H   0  0  0  0  0  0  0  0  0  0  0  0
  142.0332   78.2146  223.0167 H   0  0  0  0  0  0  0  0  0  0  0  0
  143.1403   78.8639  221.7342 H   0  0  0  0  0  0  0  0  0  0  0  0
  143.0820   79.6644  224.3461 H   0  0  0  0  0  0  0  0  0  0  0  0
  143.7236   80.6115  222.9327 H   0  0  0  0  0  0  0  0  0  0  0  0
  140.9103   80.7880  224.0633 H   0  0  0  0  0  0  0  0  0  0  0  0
  142.2609   81.9650  224.3370 H   0  0  0  0  0  0  0  0  0  0  0  0
  140.4986   82.4812  222.5106 H   0  0  0  0  0  0  0  0  0  0  0  0
  142.2650   82.6795  222.1415 H   0  0  0  0  0  0  0  0  0  0  0  0
  140.4690   81.3187  220.5728 H   0  0  0  0  0  0  0  0  0  0  0  0
  142.2617   81.0658  220.5982 H   0  0  0  0  0  0  0  0  0  0  0  0
  1  2  2  0
  2  3  1  0
  3  4  2  0
  4  5  1  0
  5  6  2  0
  6  7  1  0
  7  8  2  0
  8  9  1  0
  9 10  2  0
 10 11  1  0
 11 12  2  0
 12 13  1  0
 13 14  2  0
 14 15  1  0
 15 16  2  0
 16 17  1  0
 17 18  2  0
 10 19  1  0
 19 20  1  0
 20 21  1  0
 21 22  1  0
 22 23  1  0
 23 24  1  0
 24 25  1  0
 25 26  1  0
 19  2  1  0
 26 21  1  0
  8  3  1  0
 18 13  1  0
  4 27  1  0
  5 28  1  0
  6 29  1  0
  7 30  1  0
 11 31  1  0
 12 32  1  0
 14 33  1  0
 15 34  1  0
 16 35  1  0
 18 36  1  0
 20 37  1  0
 20 38  1  0
 21 39  1  0
 22 40  1  0
 22 41  1  0
 23 42  1  0
 23 43  1  0
 24 44  1  0
 24 45  1  0
 25 46  1  0
 25 47  1  0
 26 48  1  0
 26 49  1  0
M  END
>  <smiles>  (41) 
O=c1c2ccccc2nc(/C=C/c2cccnc2)n1CC1CCCCC1

>  <score_type>  (41) 
oracle

>  <origin>  (41) 
autodockgpu

>  <m_score__min__energy>  (41) 
-7.3099999999999996

>  <m_primary>  (41) 
energy

>  <rmsd>  (41) 
7.369464302371573

>  <m_score__min__rmsd>  (41) 
7.369464302371573

>  <meeko>  (41) 
{"free_energy": -6.4, "intermolecular_energy": -7.89, "internal_energy": -1.92, "cluster_size": 15, "cluster_id": 5, "rank_in_cluster": 15}

>  <energy>  (41) 
-6.53

>  <cluster_rmsd>  (41) 
0.23

>  <cluster>  (41) 
5

$$$$

     RDKit          3D

 49 52  0  0  0  0  0  0  0  0999 V2000
  142.9070   76.4020  219.7980 O   0  0  0  0  0  0  0  0  0  0  0  0
  141.9920   75.8900  220.4820 C   0  0  0  0  0  0  0  0  0  0  0  0
  142.0750   74.5370  220.7100 C   0  0  0  0  0  0  0  0  0  0  0  0
  143.1130   73.7900  220.2000 C   0  0  0  0  0  0  0  0  0  0  0  0
  143.1360   72.4550  220.4590 C   0  0  0  0  0  0  0  0  0  0  0  0
  142.1320   71.8920  221.2150 C   0  0  0  0  0  0  0  0  0  0  0  0
  141.0780   72.6320  221.7390 C   0  0  0  0  0  0  0  0  0  0  0  0
  141.0820   73.9750  221.4600 C   0  0  0  0  0  0  0  0  0  0  0  0
  140.1130   74.7320  221.9210 N   0  0  0  0  0  0  0  0  0  0  0  0
  139.9920   76.0870  221.7180 C   0  0  0  0  0  0  0  0  0  0  0  0
  138.8650   76.6930  222.3450 C   0  0  0  0  0  0  0  0  0  0  0  0
  138.0130   77.5870  221.9550 C   0  0  0  0  0  0  0  0  0  0  0  0
  138.1220   79.0280  222.2640 C   0  0  0  0  0  0  0  0  0  0  0  0
  138.3440   79.5130  223.5250 C   0  0  0  0  0  0  0  0  0  0  0  0
  138.4330   80.8920  223.7370 C   0  0  0  0  0  0  0  0  0  0  0  0
  138.3030   81.7980  222.7040 C   0  0  0  0  0  0  0  0  0  0  0  0
  138.0830   81.2880  221.4640 N   0  0  0  0  0  0  0  0  0  0  0  0
  137.9970   79.9640  221.2500 C   0  0  0  0  0  0  0  0  0  0  0  0
  140.9540   76.6440  220.9880 N   0  0  0  0  0  0  0  0  0  0  0  0
  141.0310   78.0470  220.6710 C   0  0  0  0  0  0  0  0  0  0  0  0
  141.7290   78.9120  221.6620 C   0  0  0  0  0  0  0  0  0  0  0  0
  141.4190   80.3730  221.3690 C   0  0  0  0  0  0  0  0  0  0  0  0
  141.8100   81.2660  222.5040 C   0  0  0  0  0  0  0  0  0  0  0  0
  142.7810   80.6000  223.4540 C   0  0  0  0  0  0  0  0  0  0  0  0
  142.1860   79.3590  224.0780 C   0  0  0  0  0  0  0  0  0  0  0  0
  141.3710   78.5530  223.0790 C   0  0  0  0  0  0  0  0  0  0  0  0
  143.9040   74.2611  219.5981 H   0  0  0  0  0  0  0  0  0  0  0  0
  143.9513   71.8291  220.0672 H   0  0  0  0  0  0  0  0  0  0  0  0
  142.1654   70.8104  221.4128 H   0  0  0  0  0  0  0  0  0  0  0  0
  140.2854   72.1666  222.3434 H   0  0  0  0  0  0  0  0  0  0  0  0
  138.6817   76.3278  223.3663 H   0  0  0  0  0  0  0  0  0  0  0  0
  137.1535   77.2524  221.3556 H   0  0  0  0  0  0  0  0  0  0  0  0
  138.4523   78.8181  224.3708 H   0  0  0  0  0  0  0  0  0  0  0  0
  138.6117   81.2655  224.7561 H   0  0  0  0  0  0  0  0  0  0  0  0
  138.3741   82.8821  222.8765 H   0  0  0  0  0  0  0  0  0  0  0  0
  137.8195   79.6076  220.2246 H   0  0  0  0  0  0  0  0  0  0  0  0
  141.5589   78.1448  219.7109 H   0  0  0  0  0  0  0  0  0  0  0  0
  139.9896   78.4010  220.6562 H   0  0  0  0  0  0  0  0  0  0  0  0
  142.8117   78.7449  221.5626 H   0  0  0  0  0  0  0  0  0  0  0  0
  141.9715   80.6799  220.4687 H   0  0  0  0  0  0  0  0  0  0  0  0
  140.3332   80.4674  221.2201 H   0  0  0  0  0  0  0  0  0  0  0  0
  142.2813   82.1717  222.0947 H   0  0  0  0  0  0  0  0  0  0  0  0
  140.8984   81.5068  223.0706 H   0  0  0  0  0  0  0  0  0  0  0  0
  143.6886   80.3204  222.8989 H   0  0  0  0  0  0  0  0  0  0  0  0
  143.0166   81.3110  224.2595 H   0  0  0  0  0  0  0  0  0  0  0  0
  143.0017   78.7285  224.4616 H   0  0  0  0  0  0  0  0  0  0  0  0
  141.5128   79.6758  224.8882 H   0  0  0  0  0  0  0  0  0  0  0  0
  141.5676   77.4824  223.2376 H   0  0  0  0  0  0  0  0  0  0  0  0
  140.3065   78.7817  223.2358 H   0  0  0  0  0  0  0  0  0  0  0  0
  1  2  2  0
  2  3  1  0
  3  4  2  0
  4  5  1  0
  5  6  2  0
  6  7  1  0
  7  8  2  0
  8  9  1  0
  9 10  2  0
 10 11  1  0
 11 12  2  0
 12 13  1  0
 13 14  2  0
 14 15  1  0
 15 16  2  0
 16 17  1  0
 17 18  2  0
 10 19  1  0
 19 20  1  0
 20 21  1  0
 21 22  1  0
 22 23  1  0
 23 24  1  0
 24 25  1  0
 25 26  1  0
 19  2  1  0
 26 21  1  0
  8  3  1  0
 18 13  1  0
  4 27  1  0
  5 28  1  0
  6 29  1  0
  7 30  1  0
 11 31  1  0
 12 32  1  0
 14 33  1  0
 15 34  1  0
 16 35  1  0
 18 36  1  0
 20 37  1  0
 20 38  1  0
 21 39  1  0
 22 40  1  0
 22 41  1  0
 23 42  1  0
 23 43  1  0
 24 44  1  0
 24 45  1  0
 25 46  1  0
 25 47  1  0
 26 48  1  0
 26 49  1  0
M  END
>  <smiles>  (42) 
O=c1c2ccccc2nc(/C=C/c2cccnc2)n1CC1CCCCC1

>  <score_type>  (42) 
oracle

>  <origin>  (42) 
autodockgpu

>  <m_score__min__energy>  (42) 
-7.3099999999999996

>  <m_primary>  (42) 
energy

>  <rmsd>  (42) 
7.542893569368722

>  <m_score__min__rmsd>  (42) 
7.542893569368722

>  <meeko>  (42) 
{"free_energy": -6.54, "intermolecular_energy": -8.03, "internal_energy": -1.93, "cluster_size": 15, "cluster_id": 5, "rank_in_cluster": 4}

>  <energy>  (42) 
-6.53

>  <cluster_rmsd>  (42) 
0.27

>  <cluster>  (42) 
5

$$$$

     RDKit          3D

 49 52  0  0  0  0  0  0  0  0999 V2000
  143.0590   76.5770  219.8020 O   0  0  0  0  0  0  0  0  0  0  0  0
  142.1750   75.9970  220.4730 C   0  0  0  0  0  0  0  0  0  0  0  0
  142.3250   74.6420  220.6510 C   0  0  0  0  0  0  0  0  0  0  0  0
  143.3940   73.9650  220.1080 C   0  0  0  0  0  0  0  0  0  0  0  0
  143.4830   72.6250  220.3190 C   0  0  0  0  0  0  0  0  0  0  0  0
  142.5150   71.9860  221.0600 C   0  0  0  0  0  0  0  0  0  0  0  0
  141.4290   72.6540  221.6160 C   0  0  0  0  0  0  0  0  0  0  0  0
  141.3660   74.0050  221.3860 C   0  0  0  0  0  0  0  0  0  0  0  0
  140.3650   74.6980  221.8800 N   0  0  0  0  0  0  0  0  0  0  0  0
  140.1780   76.0510  221.7270 C   0  0  0  0  0  0  0  0  0  0  0  0
  139.0280   76.5790  222.3820 C   0  0  0  0  0  0  0  0  0  0  0  0
  138.1050   77.4100  222.0150 C   0  0  0  0  0  0  0  0  0  0  0  0
  138.1690   78.8700  222.2310 C   0  0  0  0  0  0  0  0  0  0  0  0
  138.0760   79.7860  221.2180 C   0  0  0  0  0  0  0  0  0  0  0  0
  138.1470   81.1530  221.5030 C   0  0  0  0  0  0  0  0  0  0  0  0
  138.3110   81.6210  222.7920 C   0  0  0  0  0  0  0  0  0  0  0  0
  138.4010   80.6890  223.7760 N   0  0  0  0  0  0  0  0  0  0  0  0
  138.3330   79.3730  223.5120 C   0  0  0  0  0  0  0  0  0  0  0  0
  141.1050   76.6810  221.0120 N   0  0  0  0  0  0  0  0  0  0  0  0
  141.1120   78.0950  220.7460 C   0  0  0  0  0  0  0  0  0  0  0  0
  141.7860   78.9570  221.7570 C   0  0  0  0  0  0  0  0  0  0  0  0
  141.4990   80.4200  221.4520 C   0  0  0  0  0  0  0  0  0  0  0  0
  141.8610   81.3110  222.5980 C   0  0  0  0  0  0  0  0  0  0  0  0
  142.7970   80.6380  223.5780 C   0  0  0  0  0  0  0  0  0  0  0  0
  142.1720   79.4040  224.1850 C   0  0  0  0  0  0  0  0  0  0  0  0
  141.3810   78.6030  223.1630 C   0  0  0  0  0  0  0  0  0  0  0  0
  144.1566   74.4950  219.5185 H   0  0  0  0  0  0  0  0  0  0  0  0
  144.3246   72.0542  219.8996 H   0  0  0  0  0  0  0  0  0  0  0  0
  142.6040   70.9012  221.2192 H   0  0  0  0  0  0  0  0  0  0  0  0
  140.6640   72.1288  222.2067 H   0  0  0  0  0  0  0  0  0  0  0  0
  138.8977   76.2046  223.4081 H   0  0  0  0  0  0  0  0  0  0  0  0
  137.2166   77.0027  221.5102 H   0  0  0  0  0  0  0  0  0  0  0  0
  137.9454   79.4466  220.1798 H   0  0  0  0  0  0  0  0  0  0  0  0
  138.0701   81.8759  220.6775 H   0  0  0  0  0  0  0  0  0  0  0  0
  138.3661   82.6975  223.0114 H   0  0  0  0  0  0  0  0  0  0  0  0
  138.4109   78.6640  224.3494 H   0  0  0  0  0  0  0  0  0  0  0  0
  141.6184   78.2515  219.7821 H   0  0  0  0  0  0  0  0  0  0  0  0
  140.0552   78.3998  220.7608 H   0  0  0  0  0  0  0  0  0  0  0  0
  142.8699   78.7812  221.6916 H   0  0  0  0  0  0  0  0  0  0  0  0
  142.0833   80.7205  220.5698 H   0  0  0  0  0  0  0  0  0  0  0  0
  140.4196   80.5240  221.2675 H   0  0  0  0  0  0  0  0  0  0  0  0
  142.3517   82.2128  222.2031 H   0  0  0  0  0  0  0  0  0  0  0  0
  140.9341   81.5594  223.1358 H   0  0  0  0  0  0  0  0  0  0  0  0
  143.7184   80.3493  223.0511 H   0  0  0  0  0  0  0  0  0  0  0  0
  143.0149   81.3482  224.3892 H   0  0  0  0  0  0  0  0  0  0  0  0
  142.9698   78.7671  224.5947 H   0  0  0  0  0  0  0  0  0  0  0  0
  141.4768   79.7286  224.9732 H   0  0  0  0  0  0  0  0  0  0  0  0
  141.5635   77.5310  223.3291 H   0  0  0  0  0  0  0  0  0  0  0  0
  140.3141   78.8404  223.2868 H   0  0  0  0  0  0  0  0  0  0  0  0
  1  2  2  0
  2  3  1  0
  3  4  2  0
  4  5  1  0
  5  6  2  0
  6  7  1  0
  7  8  2  0
  8  9  1  0
  9 10  2  0
 10 11  1  0
 11 12  2  0
 12 13  1  0
 13 14  2  0
 14 15  1  0
 15 16  2  0
 16 17  1  0
 17 18  2  0
 10 19  1  0
 19 20  1  0
 20 21  1  0
 21 22  1  0
 22 23  1  0
 23 24  1  0
 24 25  1  0
 25 26  1  0
 19  2  1  0
 26 21  1  0
  8  3  1  0
 18 13  1  0
  4 27  1  0
  5 28  1  0
  6 29  1  0
  7 30  1  0
 11 31  1  0
 12 32  1  0
 14 33  1  0
 15 34  1  0
 16 35  1  0
 18 36  1  0
 20 37  1  0
 20 38  1  0
 21 39  1  0
 22 40  1  0
 22 41  1  0
 23 42  1  0
 23 43  1  0
 24 44  1  0
 24 45  1  0
 25 46  1  0
 25 47  1  0
 26 48  1  0
 26 49  1  0
M  END
>  <smiles>  (43) 
O=c1c2ccccc2nc(/C=C/c2cccnc2)n1CC1CCCCC1

>  <score_type>  (43) 
oracle

>  <origin>  (43) 
autodockgpu

>  <m_score__min__energy>  (43) 
-7.3099999999999996

>  <m_primary>  (43) 
energy

>  <rmsd>  (43) 
7.576891646445588

>  <m_score__min__rmsd>  (43) 
7.576891646445588

>  <meeko>  (43) 
{"free_energy": -6.44, "intermolecular_energy": -7.94, "internal_energy": -1.91, "cluster_size": 15, "cluster_id": 5, "rank_in_cluster": 10}

>  <energy>  (43) 
-6.53

>  <cluster_rmsd>  (43) 
0.27

>  <cluster>  (43) 
5

$$$$

     RDKit          3D

 49 52  0  0  0  0  0  0  0  0999 V2000
  140.5630   71.8690  225.3630 O   0  0  0  0  0  0  0  0  0  0  0  0
  139.9340   70.7870  225.3510 C   0  0  0  0  0  0  0  0  0  0  0  0
  140.1760   69.9200  226.3900 C   0  0  0  0  0  0  0  0  0  0  0  0
  141.0740   70.2340  227.3850 C   0  0  0  0  0  0  0  0  0  0  0  0
  141.2710   69.3320  228.3850 C   0  0  0  0  0  0  0  0  0  0  0  0
  140.5760   68.1440  228.3750 C   0  0  0  0  0  0  0  0  0  0  0  0
  139.6650   67.8120  227.3790 C   0  0  0  0  0  0  0  0  0  0  0  0
  139.4890   68.7400  226.3840 C   0  0  0  0  0  0  0  0  0  0  0  0
  138.6450   68.4890  225.4100 N   0  0  0  0  0  0  0  0  0  0  0  0
  138.3720   69.3270  224.3540 C   0  0  0  0  0  0  0  0  0  0  0  0
  137.3960   68.8420  223.4360 C   0  0  0  0  0  0  0  0  0  0  0  0
  136.1030   68.9100  223.4040 C   0  0  0  0  0  0  0  0  0  0  0  0
  135.2740   69.4590  224.4970 C   0  0  0  0  0  0  0  0  0  0  0  0
  135.0890   70.8010  224.7000 C   0  0  0  0  0  0  0  0  0  0  0  0
  134.2900   71.2440  225.7580 C   0  0  0  0  0  0  0  0  0  0  0  0
  133.6710   70.3620  226.6230 C   0  0  0  0  0  0  0  0  0  0  0  0
  133.8740   69.0380  226.3970 N   0  0  0  0  0  0  0  0  0  0  0  0
  134.6390   68.6030  225.3810 C   0  0  0  0  0  0  0  0  0  0  0  0
  139.0370   70.4780  224.3490 N   0  0  0  0  0  0  0  0  0  0  0  0
  138.8890   71.5040  223.3500 C   0  0  0  0  0  0  0  0  0  0  0  0
  140.0900   71.8010  222.5210 C   0  0  0  0  0  0  0  0  0  0  0  0
  140.2140   70.7620  221.4150 C   0  0  0  0  0  0  0  0  0  0  0  0
  141.1910   71.1820  220.3620 C   0  0  0  0  0  0  0  0  0  0  0  0
  142.1150   72.2810  220.8380 C   0  0  0  0  0  0  0  0  0  0  0  0
  141.3480   73.5250  221.2220 C   0  0  0  0  0  0  0  0  0  0  0  0
  140.0590   73.1960  221.9580 C   0  0  0  0  0  0  0  0  0  0  0  0
  141.6186   71.1897  227.3722 H   0  0  0  0  0  0  0  0  0  0  0  0
  141.9811   69.5510  229.1960 H   0  0  0  0  0  0  0  0  0  0  0  0
  140.7490   67.4263  229.1904 H   0  0  0  0  0  0  0  0  0  0  0  0
  139.1160   66.8588  227.3881 H   0  0  0  0  0  0  0  0  0  0  0  0
  137.8281   68.3003  222.5817 H   0  0  0  0  0  0  0  0  0  0  0  0
  135.5895   68.5353  222.5063 H   0  0  0  0  0  0  0  0  0  0  0  0
  135.5691   71.5299  224.0306 H   0  0  0  0  0  0  0  0  0  0  0  0
  134.1501   72.3250  225.9061 H   0  0  0  0  0  0  0  0  0  0  0  0
  133.0438   70.7151  227.4549 H   0  0  0  0  0  0  0  0  0  0  0  0
  134.7663   67.5188  225.2458 H   0  0  0  0  0  0  0  0  0  0  0  0
  138.0815   71.1947  222.6701 H   0  0  0  0  0  0  0  0  0  0  0  0
  138.6851   72.4287  223.9097 H   0  0  0  0  0  0  0  0  0  0  0  0
  140.9776   71.7471  223.1685 H   0  0  0  0  0  0  0  0  0  0  0  0
  140.5521   69.8124  221.8554 H   0  0  0  0  0  0  0  0  0  0  0  0
  139.2281   70.6501  220.9402 H   0  0  0  0  0  0  0  0  0  0  0  0
  141.7974   70.3103  220.0749 H   0  0  0  0  0  0  0  0  0  0  0  0
  140.6171   71.5725  219.5087 H   0  0  0  0  0  0  0  0  0  0  0  0
  142.6749   71.9221  221.7142 H   0  0  0  0  0  0  0  0  0  0  0  0
  142.7972   72.5379  220.0142 H   0  0  0  0  0  0  0  0  0  0  0  0
  141.9808   74.1450  221.8741 H   0  0  0  0  0  0  0  0  0  0  0  0
  141.0840   74.0598  220.2977 H   0  0  0  0  0  0  0  0  0  0  0  0
  139.9246   73.9119  222.7823 H   0  0  0  0  0  0  0  0  0  0  0  0
  139.2252   73.2630  221.2436 H   0  0  0  0  0  0  0  0  0  0  0  0
  1  2  2  0
  2  3  1  0
  3  4  2  0
  4  5  1  0
  5  6  2  0
  6  7  1  0
  7  8  2  0
  8  9  1  0
  9 10  2  0
 10 11  1  0
 11 12  2  0
 12 13  1  0
 13 14  2  0
 14 15  1  0
 15 16  2  0
 16 17  1  0
 17 18  2  0
 10 19  1  0
 19 20  1  0
 20 21  1  0
 21 22  1  0
 22 23  1  0
 23 24  1  0
 24 25  1  0
 25 26  1  0
 19  2  1  0
 26 21  1  0
  8  3  1  0
 18 13  1  0
  4 27  1  0
  5 28  1  0
  6 29  1  0
  7 30  1  0
 11 31  1  0
 12 32  1  0
 14 33  1  0
 15 34  1  0
 16 35  1  0
 18 36  1  0
 20 37  1  0
 20 38  1  0
 21 39  1  0
 22 40  1  0
 22 41  1  0
 23 42  1  0
 23 43  1  0
 24 44  1  0
 24 45  1  0
 25 46  1  0
 25 47  1  0
 26 48  1  0
 26 49  1  0
M  END
>  <smiles>  (44) 
O=c1c2ccccc2nc(/C=C/c2cccnc2)n1CC1CCCCC1

>  <score_type>  (44) 
oracle

>  <origin>  (44) 
autodockgpu

>  <m_score__min__energy>  (44) 
-7.3099999999999996

>  <m_primary>  (44) 
energy

>  <rmsd>  (44) 
10.756748107143993

>  <m_score__min__rmsd>  (44) 
10.756748107143993

>  <meeko>  (44) 
{"free_energy": -7.22, "intermolecular_energy": -8.71, "internal_energy": -1.39, "cluster_size": 16, "cluster_id": 2, "rank_in_cluster": 10}

>  <energy>  (44) 
-6.45

>  <cluster_rmsd>  (44) 
0.57

>  <cluster>  (44) 
5

$$$$

     RDKit          3D

 49 52  0  0  0  0  0  0  0  0999 V2000
  140.5760   71.8860  225.3080 O   0  0  0  0  0  0  0  0  0  0  0  0
  139.9310   70.8130  225.2860 C   0  0  0  0  0  0  0  0  0  0  0  0
  140.1440   69.9420  226.3280 C   0  0  0  0  0  0  0  0  0  0  0  0
  141.0320   70.2430  227.3370 C   0  0  0  0  0  0  0  0  0  0  0  0
  141.1990   69.3380  228.3390 C   0  0  0  0  0  0  0  0  0  0  0  0
  140.4870   68.1600  228.3180 C   0  0  0  0  0  0  0  0  0  0  0  0
  139.5870   67.8420  227.3080 C   0  0  0  0  0  0  0  0  0  0  0  0
  139.4390   68.7730  226.3110 C   0  0  0  0  0  0  0  0  0  0  0  0
  138.6070   68.5350  225.3240 N   0  0  0  0  0  0  0  0  0  0  0  0
  138.3630   69.3770  224.2640 C   0  0  0  0  0  0  0  0  0  0  0  0
  137.3930   68.9070  223.3310 C   0  0  0  0  0  0  0  0  0  0  0  0
  136.1060   68.7800  223.3840 C   0  0  0  0  0  0  0  0  0  0  0  0
  135.2580   69.3630  224.4440 C   0  0  0  0  0  0  0  0  0  0  0  0
  135.2170   70.7030  224.7240 C   0  0  0  0  0  0  0  0  0  0  0  0
  134.3890   71.1790  225.7450 C   0  0  0  0  0  0  0  0  0  0  0  0
  133.5970   70.3320  226.4950 C   0  0  0  0  0  0  0  0  0  0  0  0
  133.6590   69.0080  226.1960 N   0  0  0  0  0  0  0  0  0  0  0  0
  134.4510   68.5420  225.2150 C   0  0  0  0  0  0  0  0  0  0  0  0
  139.0450   70.5180  224.2700 N   0  0  0  0  0  0  0  0  0  0  0  0
  138.9270   71.5460  223.2690 C   0  0  0  0  0  0  0  0  0  0  0  0
  140.1530   71.8440  222.4780 C   0  0  0  0  0  0  0  0  0  0  0  0
  140.3120   70.8050  221.3770 C   0  0  0  0  0  0  0  0  0  0  0  0
  141.3200   71.2250  220.3530 C   0  0  0  0  0  0  0  0  0  0  0  0
  142.2280   72.3260  220.8570 C   0  0  0  0  0  0  0  0  0  0  0  0
  141.4480   73.5690  221.2160 C   0  0  0  0  0  0  0  0  0  0  0  0
  140.1380   73.2390  221.9120 C   0  0  0  0  0  0  0  0  0  0  0  0
  141.5914   71.1901  227.3328 H   0  0  0  0  0  0  0  0  0  0  0  0
  141.8991   69.5464  229.1614 H   0  0  0  0  0  0  0  0  0  0  0  0
  140.6369   67.4396  229.1357 H   0  0  0  0  0  0  0  0  0  0  0  0
  139.0246   66.8966  227.3078 H   0  0  0  0  0  0  0  0  0  0  0  0
  137.8261   68.5875  222.3716 H   0  0  0  0  0  0  0  0  0  0  0  0
  135.6123   68.2013  222.5894 H   0  0  0  0  0  0  0  0  0  0  0  0
  135.8356   71.4049  224.1455 H   0  0  0  0  0  0  0  0  0  0  0  0
  134.3678   72.2582  225.9568 H   0  0  0  0  0  0  0  0  0  0  0  0
  132.9465   70.7114  227.2968 H   0  0  0  0  0  0  0  0  0  0  0  0
  134.4588   67.4603  225.0153 H   0  0  0  0  0  0  0  0  0  0  0  0
  138.1406   71.2380  222.5642 H   0  0  0  0  0  0  0  0  0  0  0  0
  138.7055   72.4697  223.8236 H   0  0  0  0  0  0  0  0  0  0  0  0
  141.0196   71.7918  223.1535 H   0  0  0  0  0  0  0  0  0  0  0  0
  140.6378   69.8561  221.8281 H   0  0  0  0  0  0  0  0  0  0  0  0
  139.3410   70.6922  220.8726 H   0  0  0  0  0  0  0  0  0  0  0  0
  141.9358   70.3538  220.0851 H   0  0  0  0  0  0  0  0  0  0  0  0
  140.7722   71.6137  219.4819 H   0  0  0  0  0  0  0  0  0  0  0  0
  142.7608   71.9684  221.7504 H   0  0  0  0  0  0  0  0  0  0  0  0
  142.9352   72.5832  220.0547 H   0  0  0  0  0  0  0  0  0  0  0  0
  142.0595   74.1905  221.8867 H   0  0  0  0  0  0  0  0  0  0  0  0
  141.2118   74.1026  220.2835 H   0  0  0  0  0  0  0  0  0  0  0  0
  139.9773   73.9557  222.7308 H   0  0  0  0  0  0  0  0  0  0  0  0
  139.3268   73.3036  221.1719 H   0  0  0  0  0  0  0  0  0  0  0  0
  1  2  2  0
  2  3  1  0
  3  4  2  0
  4  5  1  0
  5  6  2  0
  6  7  1  0
  7  8  2  0
  8  9  1  0
  9 10  2  0
 10 11  1  0
 11 12  2  0
 12 13  1  0
 13 14  2  0
 14 15  1  0
 15 16  2  0
 16 17  1  0
 17 18  2  0
 10 19  1  0
 19 20  1  0
 20 21  1  0
 21 22  1  0
 22 23  1  0
 23 24  1  0
 24 25  1  0
 25 26  1  0
 19  2  1  0
 26 21  1  0
  8  3  1  0
 18 13  1  0
  4 27  1  0
  5 28  1  0
  6 29  1  0
  7 30  1  0
 11 31  1  0
 12 32  1  0
 14 33  1  0
 15 34  1  0
 16 35  1  0
 18 36  1  0
 20 37  1  0
 20 38  1  0
 21 39  1  0
 22 40  1  0
 22 41  1  0
 23 42  1  0
 23 43  1  0
 24 44  1  0
 24 45  1  0
 25 46  1  0
 25 47  1  0
 26 48  1  0
 26 49  1  0
M  END
>  <smiles>  (45) 
O=c1c2ccccc2nc(/C=C/c2cccnc2)n1CC1CCCCC1

>  <score_type>  (45) 
oracle

>  <origin>  (45) 
autodockgpu

>  <m_score__min__energy>  (45) 
-7.3099999999999996

>  <m_primary>  (45) 
energy

>  <rmsd>  (45) 
10.721203699507027

>  <m_score__min__rmsd>  (45) 
10.721203699507027

>  <meeko>  (45) 
{"free_energy": -7.18, "intermolecular_energy": -8.67, "internal_energy": -1.37, "cluster_size": 16, "cluster_id": 2, "rank_in_cluster": 15}

>  <energy>  (45) 
-6.44

>  <cluster_rmsd>  (45) 
0.54

>  <cluster>  (45) 
5

$$$$

     RDKit          3D

 49 52  0  0  0  0  0  0  0  0999 V2000
  140.5430   71.8820  225.3010 O   0  0  0  0  0  0  0  0  0  0  0  0
  139.9360   70.7870  225.2800 C   0  0  0  0  0  0  0  0  0  0  0  0
  140.1920   69.9180  226.3140 C   0  0  0  0  0  0  0  0  0  0  0  0
  141.0820   70.2430  227.3140 C   0  0  0  0  0  0  0  0  0  0  0  0
  141.2940   69.3390  228.3080 C   0  0  0  0  0  0  0  0  0  0  0  0
  140.6230   68.1370  228.2880 C   0  0  0  0  0  0  0  0  0  0  0  0
  139.7220   67.7930  227.2870 C   0  0  0  0  0  0  0  0  0  0  0  0
  139.5300   68.7250  226.2980 C   0  0  0  0  0  0  0  0  0  0  0  0
  138.6930   68.4640  225.3190 N   0  0  0  0  0  0  0  0  0  0  0  0
  138.4070   69.3020  224.2680 C   0  0  0  0  0  0  0  0  0  0  0  0
  137.4430   68.8050  223.3440 C   0  0  0  0  0  0  0  0  0  0  0  0
  136.1550   68.9130  223.2680 C   0  0  0  0  0  0  0  0  0  0  0  0
  135.2980   69.4130  224.3630 C   0  0  0  0  0  0  0  0  0  0  0  0
  135.1790   70.7400  224.6800 C   0  0  0  0  0  0  0  0  0  0  0  0
  134.3480   71.1350  225.7320 C   0  0  0  0  0  0  0  0  0  0  0  0
  133.6300   70.2200  226.4770 C   0  0  0  0  0  0  0  0  0  0  0  0
  133.7690   68.9110  226.1400 N   0  0  0  0  0  0  0  0  0  0  0  0
  134.5650   68.5220  225.1300 C   0  0  0  0  0  0  0  0  0  0  0  0
  139.0480   70.4670  224.2730 N   0  0  0  0  0  0  0  0  0  0  0  0
  138.8820   71.4960  223.2810 C   0  0  0  0  0  0  0  0  0  0  0  0
  140.0890   71.8460  222.4800 C   0  0  0  0  0  0  0  0  0  0  0  0
  140.2810   70.8180  221.3740 C   0  0  0  0  0  0  0  0  0  0  0  0
  141.2620   71.2820  220.3440 C   0  0  0  0  0  0  0  0  0  0  0  0
  142.1280   72.4170  220.8440 C   0  0  0  0  0  0  0  0  0  0  0  0
  141.3020   73.6260  221.2150 C   0  0  0  0  0  0  0  0  0  0  0  0
  140.0120   73.2410  221.9200 C   0  0  0  0  0  0  0  0  0  0  0  0
  141.6079   71.2091  227.3088 H   0  0  0  0  0  0  0  0  0  0  0  0
  141.9971   69.5669  229.1227 H   0  0  0  0  0  0  0  0  0  0  0  0
  140.8079   67.4176  229.0994 H   0  0  0  0  0  0  0  0  0  0  0  0
  139.1929   66.8286  227.2875 H   0  0  0  0  0  0  0  0  0  0  0  0
  137.8819   68.2088  222.5304 H   0  0  0  0  0  0  0  0  0  0  0  0
  135.6677   68.6135  222.3284 H   0  0  0  0  0  0  0  0  0  0  0  0
  135.7373   71.4948  224.1068 H   0  0  0  0  0  0  0  0  0  0  0  0
  134.2634   72.2048  225.9735 H   0  0  0  0  0  0  0  0  0  0  0  0
  132.9768   70.5359  227.3038 H   0  0  0  0  0  0  0  0  0  0  0  0
  134.6380   67.4484  224.9019 H   0  0  0  0  0  0  0  0  0  0  0  0
  138.1011   71.1633  222.5813 H   0  0  0  0  0  0  0  0  0  0  0  0
  138.6314   72.4069  223.8444 H   0  0  0  0  0  0  0  0  0  0  0  0
  140.9631   71.8263  223.1475 H   0  0  0  0  0  0  0  0  0  0  0  0
  140.6489   69.8817  221.8189 H   0  0  0  0  0  0  0  0  0  0  0  0
  139.3113   70.6673  220.8771 H   0  0  0  0  0  0  0  0  0  0  0  0
  141.9107   70.4376  220.0680 H   0  0  0  0  0  0  0  0  0  0  0  0
  140.6914   71.6508  219.4789 H   0  0  0  0  0  0  0  0  0  0  0  0
  142.6831   72.0782  221.7312 H   0  0  0  0  0  0  0  0  0  0  0  0
  142.8163   72.7058  220.0360 H   0  0  0  0  0  0  0  0  0  0  0  0
  141.8937   74.2685  221.8836 H   0  0  0  0  0  0  0  0  0  0  0  0
  141.0370   74.1536  220.2869 H   0  0  0  0  0  0  0  0  0  0  0  0
  139.8289   73.9476  222.7429 H   0  0  0  0  0  0  0  0  0  0  0  0
  139.1925   73.2757  221.1870 H   0  0  0  0  0  0  0  0  0  0  0  0
  1  2  2  0
  2  3  1  0
  3  4  2  0
  4  5  1  0
  5  6  2  0
  6  7  1  0
  7  8  2  0
  8  9  1  0
  9 10  2  0
 10 11  1  0
 11 12  2  0
 12 13  1  0
 13 14  2  0
 14 15  1  0
 15 16  2  0
 16 17  1  0
 17 18  2  0
 10 19  1  0
 19 20  1  0
 20 21  1  0
 21 22  1  0
 22 23  1  0
 23 24  1  0
 24 25  1  0
 25 26  1  0
 19  2  1  0
 26 21  1  0
  8  3  1  0
 18 13  1  0
  4 27  1  0
  5 28  1  0
  6 29  1  0
  7 30  1  0
 11 31  1  0
 12 32  1  0
 14 33  1  0
 15 34  1  0
 16 35  1  0
 18 36  1  0
 20 37  1  0
 20 38  1  0
 21 39  1  0
 22 40  1  0
 22 41  1  0
 23 42  1  0
 23 43  1  0
 24 44  1  0
 24 45  1  0
 25 46  1  0
 25 47  1  0
 26 48  1  0
 26 49  1  0
M  END
>  <smiles>  (46) 
O=c1c2ccccc2nc(/C=C/c2cccnc2)n1CC1CCCCC1

>  <score_type>  (46) 
oracle

>  <origin>  (46) 
autodockgpu

>  <m_score__min__energy>  (46) 
-7.3099999999999996

>  <m_primary>  (46) 
energy

>  <rmsd>  (46) 
10.720486008487725

>  <m_score__min__rmsd>  (46) 
10.720486008487725

>  <meeko>  (46) 
{"free_energy": -7.23, "intermolecular_energy": -8.72, "internal_energy": -1.38, "cluster_size": 16, "cluster_id": 2, "rank_in_cluster": 4}

>  <energy>  (46) 
-6.44

>  <cluster_rmsd>  (46) 
0.57

>  <cluster>  (46) 
5

$$$$

     RDKit          3D

 49 52  0  0  0  0  0  0  0  0999 V2000
  140.4180   74.4550  222.0140 O   0  0  0  0  0  0  0  0  0  0  0  0
  141.2760   74.9850  221.2730 C   0  0  0  0  0  0  0  0  0  0  0  0
  142.3000   74.1770  220.8380 C   0  0  0  0  0  0  0  0  0  0  0  0
  142.3730   72.8540  221.2130 C   0  0  0  0  0  0  0  0  0  0  0  0
  143.4120   72.1090  220.7510 C   0  0  0  0  0  0  0  0  0  0  0  0
  144.3540   72.6890  219.9320 C   0  0  0  0  0  0  0  0  0  0  0  0
  144.2960   74.0220  219.5430 C   0  0  0  0  0  0  0  0  0  0  0  0
  143.2360   74.7490  220.0250 C   0  0  0  0  0  0  0  0  0  0  0  0
  143.1210   76.0160  219.6990 N   0  0  0  0  0  0  0  0  0  0  0  0
  142.1150   76.8580  220.1100 C   0  0  0  0  0  0  0  0  0  0  0  0
  142.1930   78.1860  219.5990 C   0  0  0  0  0  0  0  0  0  0  0  0
  141.3080   79.0040  219.1270 C   0  0  0  0  0  0  0  0  0  0  0  0
  140.9330   80.2820  219.7680 C   0  0  0  0  0  0  0  0  0  0  0  0
  141.8230   81.0790  220.4370 C   0  0  0  0  0  0  0  0  0  0  0  0
  141.3910   82.2740  221.0190 C   0  0  0  0  0  0  0  0  0  0  0  0
  140.0750   82.6870  220.9430 C   0  0  0  0  0  0  0  0  0  0  0  0
  139.2150   81.8760  220.2740 N   0  0  0  0  0  0  0  0  0  0  0  0
  139.6220   80.7260  219.7110 C   0  0  0  0  0  0  0  0  0  0  0  0
  141.1990   76.3120  220.9030 N   0  0  0  0  0  0  0  0  0  0  0  0
  140.0540   77.0070  221.4300 C   0  0  0  0  0  0  0  0  0  0  0  0
  140.3290   78.2690  222.1740 C   0  0  0  0  0  0  0  0  0  0  0  0
  139.0510   78.7510  222.8460 C   0  0  0  0  0  0  0  0  0  0  0  0
  139.3230   79.8120  223.8660 C   0  0  0  0  0  0  0  0  0  0  0  0
  140.6860   80.4460  223.6880 C   0  0  0  0  0  0  0  0  0  0  0  0
  141.7940   79.4300  223.8300 C   0  0  0  0  0  0  0  0  0  0  0  0
  141.4420   78.1060  223.1720 C   0  0  0  0  0  0  0  0  0  0  0  0
  141.6098   72.4112  221.8698 H   0  0  0  0  0  0  0  0  0  0  0  0
  143.4994   71.0486  221.0301 H   0  0  0  0  0  0  0  0  0  0  0  0
  145.1887   72.0709  219.5698 H   0  0  0  0  0  0  0  0  0  0  0  0
  145.0565   74.4692  218.8860 H   0  0  0  0  0  0  0  0  0  0  0  0
  143.2121   78.5998  219.6074 H   0  0  0  0  0  0  0  0  0  0  0  0
  140.8027   78.7307  218.1889 H   0  0  0  0  0  0  0  0  0  0  0  0
  142.8782   80.7787  220.5164 H   0  0  0  0  0  0  0  0  0  0  0  0
  142.1190   82.9030  221.5523 H   0  0  0  0  0  0  0  0  0  0  0  0
  139.7393   83.6283  221.4026 H   0  0  0  0  0  0  0  0  0  0  0  0
  138.8811   80.1094  219.1811 H   0  0  0  0  0  0  0  0  0  0  0  0
  139.3942   77.2537  220.5851 H   0  0  0  0  0  0  0  0  0  0  0  0
  139.6116   76.3228  222.1690 H   0  0  0  0  0  0  0  0  0  0  0  0
  140.6667   79.0283  221.4533 H   0  0  0  0  0  0  0  0  0  0  0  0
  138.3779   79.1600  222.0781 H   0  0  0  0  0  0  0  0  0  0  0  0
  138.5917   77.8937  223.3599 H   0  0  0  0  0  0  0  0  0  0  0  0
  138.5548   80.5942  223.7759 H   0  0  0  0  0  0  0  0  0  0  0  0
  139.3001   79.3378  224.8583 H   0  0  0  0  0  0  0  0  0  0  0  0
  140.7418   80.8975  222.6865 H   0  0  0  0  0  0  0  0  0  0  0  0
  140.8158   81.2085  224.4702 H   0  0  0  0  0  0  0  0  0  0  0  0
  142.7043   79.8294  223.3590 H   0  0  0  0  0  0  0  0  0  0  0  0
  141.9489   79.2448  224.9032 H   0  0  0  0  0  0  0  0  0  0  0  0
  142.3313   77.7151  222.6559 H   0  0  0  0  0  0  0  0  0  0  0  0
  141.1069   77.4087  223.9540 H   0  0  0  0  0  0  0  0  0  0  0  0
  1  2  2  0
  2  3  1  0
  3  4  2  0
  4  5  1  0
  5  6  2  0
  6  7  1  0
  7  8  2  0
  8  9  1  0
  9 10  2  0
 10 11  1  0
 11 12  2  0
 12 13  1  0
 13 14  2  0
 14 15  1  0
 15 16  2  0
 16 17  1  0
 17 18  2  0
 10 19  1  0
 19 20  1  0
 20 21  1  0
 21 22  1  0
 22 23  1  0
 23 24  1  0
 24 25  1  0
 25 26  1  0
 19  2  1  0
 26 21  1  0
  8  3  1  0
 18 13  1  0
  4 27  1  0
  5 28  1  0
  6 29  1  0
  7 30  1  0
 11 31  1  0
 12 32  1  0
 14 33  1  0
 15 34  1  0
 16 35  1  0
 18 36  1  0
 20 37  1  0
 20 38  1  0
 21 39  1  0
 22 40  1  0
 22 41  1  0
 23 42  1  0
 23 43  1  0
 24 44  1  0
 24 45  1  0
 25 46  1  0
 25 47  1  0
 26 48  1  0
 26 49  1  0
M  END
>  <smiles>  (47) 
O=c1c2ccccc2nc(/C=C/c2cccnc2)n1CC1CCCCC1

>  <score_type>  (47) 
oracle

>  <origin>  (47) 
autodockgpu

>  <m_score__min__energy>  (47) 
-7.3099999999999996

>  <m_primary>  (47) 
energy

>  <rmsd>  (47) 
7.83341193947848

>  <m_score__min__rmsd>  (47) 
7.83341193947848

>  <meeko>  (47) 
{"free_energy": -6.42, "intermolecular_energy": -7.91, "internal_energy": -1.91, "cluster_size": 8, "cluster_id": 4, "rank_in_cluster": 5}

>  <energy>  (47) 
-6.44

>  <cluster_rmsd>  (47) 
0.56

>  <cluster>  (47) 
5

$$$$

     RDKit          3D

 49 52  0  0  0  0  0  0  0  0999 V2000
  142.8470   76.4060  219.7970 O   0  0  0  0  0  0  0  0  0  0  0  0
  141.9480   75.8830  220.4920 C   0  0  0  0  0  0  0  0  0  0  0  0
  142.0410   74.5280  220.7060 C   0  0  0  0  0  0  0  0  0  0  0  0
  143.0750   73.7920  220.1700 C   0  0  0  0  0  0  0  0  0  0  0  0
  143.1100   72.4550  220.4160 C   0  0  0  0  0  0  0  0  0  0  0  0
  142.1230   71.8790  221.1850 C   0  0  0  0  0  0  0  0  0  0  0  0
  141.0740   72.6070  221.7330 C   0  0  0  0  0  0  0  0  0  0  0  0
  141.0650   73.9520  221.4670 C   0  0  0  0  0  0  0  0  0  0  0  0
  140.1000   74.7000  221.9530 N   0  0  0  0  0  0  0  0  0  0  0  0
  139.9680   76.0560  221.7650 C   0  0  0  0  0  0  0  0  0  0  0  0
  138.8490   76.6500  222.4170 C   0  0  0  0  0  0  0  0  0  0  0  0
  137.9840   77.5390  222.0510 C   0  0  0  0  0  0  0  0  0  0  0  0
  138.1200   78.9870  222.3120 C   0  0  0  0  0  0  0  0  0  0  0  0
  138.2930   79.5130  223.5640 C   0  0  0  0  0  0  0  0  0  0  0  0
  138.4130   80.8960  223.7300 C   0  0  0  0  0  0  0  0  0  0  0  0
  138.3630   81.7660  222.6590 C   0  0  0  0  0  0  0  0  0  0  0  0
  138.1900   81.2160  221.4290 N   0  0  0  0  0  0  0  0  0  0  0  0
  138.0740   79.8870  221.2600 C   0  0  0  0  0  0  0  0  0  0  0  0
  140.9140   76.6260  221.0240 N   0  0  0  0  0  0  0  0  0  0  0  0
  140.9770   78.0310  220.7190 C   0  0  0  0  0  0  0  0  0  0  0  0
  141.7080   78.8880  221.6940 C   0  0  0  0  0  0  0  0  0  0  0  0
  141.4810   80.3540  221.3530 C   0  0  0  0  0  0  0  0  0  0  0  0
  141.9050   81.2590  222.4670 C   0  0  0  0  0  0  0  0  0  0  0  0
  142.8270   80.5700  223.4500 C   0  0  0  0  0  0  0  0  0  0  0  0
  142.1580   79.3830  224.1020 C   0  0  0  0  0  0  0  0  0  0  0  0
  141.3130   78.5920  223.1160 C   0  0  0  0  0  0  0  0  0  0  0  0
  143.8524   74.2736  219.5587 H   0  0  0  0  0  0  0  0  0  0  0  0
  143.9214   71.8374  220.0035 H   0  0  0  0  0  0  0  0  0  0  0  0
  142.1671   70.7961  221.3734 H   0  0  0  0  0  0  0  0  0  0  0  0
  140.2945   72.1309  222.3459 H   0  0  0  0  0  0  0  0  0  0  0  0
  138.6882   76.2767  223.4391 H   0  0  0  0  0  0  0  0  0  0  0  0
  137.0896   77.1951  221.5107 H   0  0  0  0  0  0  0  0  0  0  0  0
  138.3376   78.8478  224.4390 H   0  0  0  0  0  0  0  0  0  0  0  0
  138.5512   81.3026  224.7427 H   0  0  0  0  0  0  0  0  0  0  0  0
  138.4588   82.8533  222.7953 H   0  0  0  0  0  0  0  0  0  0  0  0
  137.9364   79.4971  220.2407 H   0  0  0  0  0  0  0  0  0  0  0  0
  141.4706   78.1396  219.7420 H   0  0  0  0  0  0  0  0  0  0  0  0
  139.9350   78.3827  220.7443 H   0  0  0  0  0  0  0  0  0  0  0  0
  142.7813   78.6605  221.6152 H   0  0  0  0  0  0  0  0  0  0  0  0
  142.0609   80.6033  220.4521 H   0  0  0  0  0  0  0  0  0  0  0  0
  140.4040   80.5018  221.1853 H   0  0  0  0  0  0  0  0  0  0  0  0
  142.4296   82.1255  222.0381 H   0  0  0  0  0  0  0  0  0  0  0  0
  141.0007   81.5656  223.0131 H   0  0  0  0  0  0  0  0  0  0  0  0
  143.7246   80.2249  222.9159 H   0  0  0  0  0  0  0  0  0  0  0  0
  143.0912   81.2913  224.2374 H   0  0  0  0  0  0  0  0  0  0  0  0
  142.9334   78.7215  224.5157 H   0  0  0  0  0  0  0  0  0  0  0  0
  141.4930   79.7602  224.8929 H   0  0  0  0  0  0  0  0  0  0  0  0
  141.4491   77.5177  223.3091 H   0  0  0  0  0  0  0  0  0  0  0  0
  140.2606   78.8823  223.2508 H   0  0  0  0  0  0  0  0  0  0  0  0
  1  2  2  0
  2  3  1  0
  3  4  2  0
  4  5  1  0
  5  6  2  0
  6  7  1  0
  7  8  2  0
  8  9  1  0
  9 10  2  0
 10 11  1  0
 11 12  2  0
 12 13  1  0
 13 14  2  0
 14 15  1  0
 15 16  2  0
 16 17  1  0
 17 18  2  0
 10 19  1  0
 19 20  1  0
 20 21  1  0
 21 22  1  0
 22 23  1  0
 23 24  1  0
 24 25  1  0
 25 26  1  0
 19  2  1  0
 26 21  1  0
  8  3  1  0
 18 13  1  0
  4 27  1  0
  5 28  1  0
  6 29  1  0
  7 30  1  0
 11 31  1  0
 12 32  1  0
 14 33  1  0
 15 34  1  0
 16 35  1  0
 18 36  1  0
 20 37  1  0
 20 38  1  0
 21 39  1  0
 22 40  1  0
 22 41  1  0
 23 42  1  0
 23 43  1  0
 24 44  1  0
 24 45  1  0
 25 46  1  0
 25 47  1  0
 26 48  1  0
 26 49  1  0
M  END
>  <smiles>  (48) 
O=c1c2ccccc2nc(/C=C/c2cccnc2)n1CC1CCCCC1

>  <score_type>  (48) 
oracle

>  <origin>  (48) 
autodockgpu

>  <m_score__min__energy>  (48) 
-7.3099999999999996

>  <m_primary>  (48) 
energy

>  <rmsd>  (48) 
7.538187697715327

>  <m_score__min__rmsd>  (48) 
7.538187697715327

>  <meeko>  (48) 
{"free_energy": -6.54, "intermolecular_energy": -8.03, "internal_energy": -1.92, "cluster_size": 15, "cluster_id": 5, "rank_in_cluster": 3}

>  <energy>  (48) 
-6.44

>  <cluster_rmsd>  (48) 
0.6

>  <cluster>  (48) 
5

$$$$

     RDKit          3D

 49 52  0  0  0  0  0  0  0  0999 V2000
  142.8700   76.4000  219.8160 O   0  0  0  0  0  0  0  0  0  0  0  0
  141.9610   75.8750  220.4980 C   0  0  0  0  0  0  0  0  0  0  0  0
  142.0550   74.5210  220.7150 C   0  0  0  0  0  0  0  0  0  0  0  0
  143.0980   73.7860  220.1960 C   0  0  0  0  0  0  0  0  0  0  0  0
  143.1330   72.4500  220.4450 C   0  0  0  0  0  0  0  0  0  0  0  0
  142.1360   71.8720  221.1990 C   0  0  0  0  0  0  0  0  0  0  0  0
  141.0770   72.5980  221.7310 C   0  0  0  0  0  0  0  0  0  0  0  0
  141.0690   73.9440  221.4630 C   0  0  0  0  0  0  0  0  0  0  0  0
  140.0950   74.6900  221.9330 N   0  0  0  0  0  0  0  0  0  0  0  0
  139.9630   76.0450  221.7410 C   0  0  0  0  0  0  0  0  0  0  0  0
  138.8320   76.6370  222.3750 C   0  0  0  0  0  0  0  0  0  0  0  0
  137.9790   77.5340  222.0000 C   0  0  0  0  0  0  0  0  0  0  0  0
  138.1180   78.9790  222.2760 C   0  0  0  0  0  0  0  0  0  0  0  0
  138.3280   79.4890  223.5290 C   0  0  0  0  0  0  0  0  0  0  0  0
  138.4490   80.8700  223.7100 C   0  0  0  0  0  0  0  0  0  0  0  0
  138.3620   81.7550  222.6530 C   0  0  0  0  0  0  0  0  0  0  0  0
  138.1530   81.2200  221.4220 N   0  0  0  0  0  0  0  0  0  0  0  0
  138.0370   79.8930  221.2380 C   0  0  0  0  0  0  0  0  0  0  0  0
  140.9170   76.6160  221.0130 N   0  0  0  0  0  0  0  0  0  0  0  0
  140.9820   78.0220  220.7080 C   0  0  0  0  0  0  0  0  0  0  0  0
  141.7130   78.8780  221.6820 C   0  0  0  0  0  0  0  0  0  0  0  0
  141.4680   80.3440  221.3550 C   0  0  0  0  0  0  0  0  0  0  0  0
  141.8920   81.2450  222.4720 C   0  0  0  0  0  0  0  0  0  0  0  0
  142.8300   80.5590  223.4410 C   0  0  0  0  0  0  0  0  0  0  0  0
  142.1800   79.3600  224.0890 C   0  0  0  0  0  0  0  0  0  0  0  0
  141.3340   78.5670  223.1050 C   0  0  0  0  0  0  0  0  0  0  0  0
  143.8831   74.2681  219.5950 H   0  0  0  0  0  0  0  0  0  0  0  0
  143.9528   71.8343  220.0466 H   0  0  0  0  0  0  0  0  0  0  0  0
  142.1797   70.7893  221.3883 H   0  0  0  0  0  0  0  0  0  0  0  0
  140.2896   72.1207  222.3329 H   0  0  0  0  0  0  0  0  0  0  0  0
  138.6471   76.2531  223.3891 H   0  0  0  0  0  0  0  0  0  0  0  0
  137.0933   77.1998  221.4397 H   0  0  0  0  0  0  0  0  0  0  0  0
  138.4015   78.8124  224.3932 H   0  0  0  0  0  0  0  0  0  0  0  0
  138.6184   81.2631  224.7233 H   0  0  0  0  0  0  0  0  0  0  0  0
  138.4574   82.8408  222.8010 H   0  0  0  0  0  0  0  0  0  0  0  0
  137.8704   79.5164  220.2180 H   0  0  0  0  0  0  0  0  0  0  0  0
  141.4760   78.1299  219.7311 H   0  0  0  0  0  0  0  0  0  0  0  0
  139.9404   78.3747  220.7336 H   0  0  0  0  0  0  0  0  0  0  0  0
  142.7878   78.6621  221.5913 H   0  0  0  0  0  0  0  0  0  0  0  0
  142.0374   80.6064  220.4512 H   0  0  0  0  0  0  0  0  0  0  0  0
  140.3880   80.4817  221.1982 H   0  0  0  0  0  0  0  0  0  0  0  0
  142.4032   82.1205  222.0452 H   0  0  0  0  0  0  0  0  0  0  0  0
  140.9894   81.5374  223.0285 H   0  0  0  0  0  0  0  0  0  0  0  0
  143.7266   80.2282  222.8963 H   0  0  0  0  0  0  0  0  0  0  0  0
  143.0934   81.2769  224.2317 H   0  0  0  0  0  0  0  0  0  0  0  0
  142.9663   78.7037  224.4902 H   0  0  0  0  0  0  0  0  0  0  0  0
  141.5180   79.7241  224.8885 H   0  0  0  0  0  0  0  0  0  0  0  0
  141.4833   77.4928  223.2888 H   0  0  0  0  0  0  0  0  0  0  0  0
  140.2798   78.8446  223.2517 H   0  0  0  0  0  0  0  0  0  0  0  0
  1  2  2  0
  2  3  1  0
  3  4  2  0
  4  5  1  0
  5  6  2  0
  6  7  1  0
  7  8  2  0
  8  9  1  0
  9 10  2  0
 10 11  1  0
 11 12  2  0
 12 13  1  0
 13 14  2  0
 14 15  1  0
 15 16  2  0
 16 17  1  0
 17 18  2  0
 10 19  1  0
 19 20  1  0
 20 21  1  0
 21 22  1  0
 22 23  1  0
 23 24  1  0
 24 25  1  0
 25 26  1  0
 19  2  1  0
 26 21  1  0
  8  3  1  0
 18 13  1  0
  4 27  1  0
  5 28  1  0
  6 29  1  0
  7 30  1  0
 11 31  1  0
 12 32  1  0
 14 33  1  0
 15 34  1  0
 16 35  1  0
 18 36  1  0
 20 37  1  0
 20 38  1  0
 21 39  1  0
 22 40  1  0
 22 41  1  0
 23 42  1  0
 23 43  1  0
 24 44  1  0
 24 45  1  0
 25 46  1  0
 25 47  1  0
 26 48  1  0
 26 49  1  0
M  END
>  <smiles>  (49) 
O=c1c2ccccc2nc(/C=C/c2cccnc2)n1CC1CCCCC1

>  <score_type>  (49) 
oracle

>  <origin>  (49) 
autodockgpu

>  <m_score__min__energy>  (49) 
-7.3099999999999996

>  <m_primary>  (49) 
energy

>  <rmsd>  (49) 
7.540699329300107

>  <m_score__min__rmsd>  (49) 
7.540699329300107

>  <meeko>  (49) 
{"free_energy": -6.53, "intermolecular_energy": -8.02, "internal_energy": -1.93, "cluster_size": 15, "cluster_id": 5, "rank_in_cluster": 6}

>  <energy>  (49) 
-6.44

>  <cluster_rmsd>  (49) 
0.57

>  <cluster>  (49) 
5

$$$$

     RDKit          3D

 49 52  0  0  0  0  0  0  0  0999 V2000
  139.9670   74.5110  221.9760 O   0  0  0  0  0  0  0  0  0  0  0  0
  140.7500   75.2260  221.3100 C   0  0  0  0  0  0  0  0  0  0  0  0
  141.9230   74.6390  220.8970 C   0  0  0  0  0  0  0  0  0  0  0  0
  142.2150   73.3310  221.2130 C   0  0  0  0  0  0  0  0  0  0  0  0
  143.3930   72.8090  220.7770 C   0  0  0  0  0  0  0  0  0  0  0  0
  144.2520   73.5930  220.0410 C   0  0  0  0  0  0  0  0  0  0  0  0
  143.9730   74.9150  219.7120 C   0  0  0  0  0  0  0  0  0  0  0  0
  142.7780   75.4130  220.1670 C   0  0  0  0  0  0  0  0  0  0  0  0
  142.4520   76.6560  219.8950 N   0  0  0  0  0  0  0  0  0  0  0  0
  141.2910   77.2810  220.2870 C   0  0  0  0  0  0  0  0  0  0  0  0
  141.1530   78.6290  219.8440 C   0  0  0  0  0  0  0  0  0  0  0  0
  141.7770   79.7240  220.1410 C   0  0  0  0  0  0  0  0  0  0  0  0
  141.9960   80.2060  221.5210 C   0  0  0  0  0  0  0  0  0  0  0  0
  142.5020   79.4200  222.5210 C   0  0  0  0  0  0  0  0  0  0  0  0
  142.6800   79.9490  223.8030 C   0  0  0  0  0  0  0  0  0  0  0  0
  142.3580   81.2580  224.1020 C   0  0  0  0  0  0  0  0  0  0  0  0
  141.8570   82.0130  223.0900 N   0  0  0  0  0  0  0  0  0  0  0  0
  141.6840   81.5140  221.8550 C   0  0  0  0  0  0  0  0  0  0  0  0
  140.4520   76.5360  221.0000 N   0  0  0  0  0  0  0  0  0  0  0  0
  139.1760   76.9860  221.4930 C   0  0  0  0  0  0  0  0  0  0  0  0
  139.0960   78.4110  221.9200 C   0  0  0  0  0  0  0  0  0  0  0  0
  137.8150   79.0320  221.3820 C   0  0  0  0  0  0  0  0  0  0  0  0
  137.5100   80.3420  222.0380 C   0  0  0  0  0  0  0  0  0  0  0  0
  138.7170   80.9330  222.7330 C   0  0  0  0  0  0  0  0  0  0  0  0
  139.2310   80.0230  223.8240 C   0  0  0  0  0  0  0  0  0  0  0  0
  139.1870   78.5600  223.4150 C   0  0  0  0  0  0  0  0  0  0  0  0
  141.5132   72.7234  221.8032 H   0  0  0  0  0  0  0  0  0  0  0  0
  143.6573   71.7672  221.0111 H   0  0  0  0  0  0  0  0  0  0  0  0
  145.2008   73.1547  219.6980 H   0  0  0  0  0  0  0  0  0  0  0  0
  144.6704   75.5266  219.1208 H   0  0  0  0  0  0  0  0  0  0  0  0
  140.3552   78.7667  219.0993 H   0  0  0  0  0  0  0  0  0  0  0  0
  142.1689   80.3342  219.3139 H   0  0  0  0  0  0  0  0  0  0  0  0
  142.7685   78.3726  222.3161 H   0  0  0  0  0  0  0  0  0  0  0  0
  143.0879   79.3044  224.5955 H   0  0  0  0  0  0  0  0  0  0  0  0
  142.5005   81.6699  225.1120 H   0  0  0  0  0  0  0  0  0  0  0  0
  141.2766   82.1730  221.0741 H   0  0  0  0  0  0  0  0  0  0  0  0
  138.4359   76.8341  220.6935 H   0  0  0  0  0  0  0  0  0  0  0  0
  138.9904   76.3973  222.4035 H   0  0  0  0  0  0  0  0  0  0  0  0
  139.9610   78.9454  221.5002 H   0  0  0  0  0  0  0  0  0  0  0  0
  137.9259   79.1939  220.2996 H   0  0  0  0  0  0  0  0  0  0  0  0
  136.9857   78.3422  221.5977 H   0  0  0  0  0  0  0  0  0  0  0  0
  137.1627   81.0492  221.2704 H   0  0  0  0  0  0  0  0  0  0  0  0
  136.7374   80.1638  222.8004 H   0  0  0  0  0  0  0  0  0  0  0  0
  139.5151   81.0884  221.9921 H   0  0  0  0  0  0  0  0  0  0  0  0
  138.4170   81.8862  223.1927 H   0  0  0  0  0  0  0  0  0  0  0  0
  140.2716   80.2963  224.0531 H   0  0  0  0  0  0  0  0  0  0  0  0
  138.5829   80.1488  224.7038 H   0  0  0  0  0  0  0  0  0  0  0  0
  140.1012   78.0615  223.7695 H   0  0  0  0  0  0  0  0  0  0  0  0
  138.2936   78.1014  223.8640 H   0  0  0  0  0  0  0  0  0  0  0  0
  1  2  2  0
  2  3  1  0
  3  4  2  0
  4  5  1  0
  5  6  2  0
  6  7  1  0
  7  8  2  0
  8  9  1  0
  9 10  2  0
 10 11  1  0
 11 12  2  0
 12 13  1  0
 13 14  2  0
 14 15  1  0
 15 16  2  0
 16 17  1  0
 17 18  2  0
 10 19  1  0
 19 20  1  0
 20 21  1  0
 21 22  1  0
 22 23  1  0
 23 24  1  0
 24 25  1  0
 25 26  1  0
 19  2  1  0
 26 21  1  0
  8  3  1  0
 18 13  1  0
  4 27  1  0
  5 28  1  0
  6 29  1  0
  7 30  1  0
 11 31  1  0
 12 32  1  0
 14 33  1  0
 15 34  1  0
 16 35  1  0
 18 36  1  0
 20 37  1  0
 20 38  1  0
 21 39  1  0
 22 40  1  0
 22 41  1  0
 23 42  1  0
 23 43  1  0
 24 44  1  0
 24 45  1  0
 25 46  1  0
 25 47  1  0
 26 48  1  0
 26 49  1  0
M  END
>  <smiles>  (50) 
O=c1c2ccccc2nc(/C=C/c2cccnc2)n1CC1CCCCC1

>  <score_type>  (50) 
oracle

>  <origin>  (50) 
autodockgpu

>  <m_score__min__energy>  (50) 
-7.3099999999999996

>  <m_primary>  (50) 
energy

>  <rmsd>  (50) 
7.288994930937276

>  <m_score__min__rmsd>  (50) 
7.288994930937276

>  <meeko>  (50) 
{"free_energy": -6.56, "intermolecular_energy": -8.05, "internal_energy": -1.85, "cluster_size": 8, "cluster_id": 4, "rank_in_cluster": 1}

>  <energy>  (50) 
-6.4

>  <cluster_rmsd>  (50) 
0.83

>  <cluster>  (50) 
5

$$$$
