
     RDKit          3D

 56 60  0  0  0  0  0  0  0  0999 V2000
  136.9990   72.9180  221.2240 O   0  0  0  0  0  0  0  0  0  0  0  0
  138.1830   73.0120  221.6130 C   0  0  0  0  0  0  0  0  0  0  0  0
  139.0550   74.0070  220.9640 C   0  0  0  0  0  0  0  0  0  0  0  0
  140.4400   73.9780  221.5250 C   0  0  0  0  0  0  0  0  0  0  0  0
  141.4140   74.8980  220.9320 C   0  0  0  0  0  0  0  0  0  0  0  0
  142.6450   74.4930  220.4600 C   0  0  0  0  0  0  0  0  0  0  0  0
  143.5100   75.4140  219.8610 C   0  0  0  0  0  0  0  0  0  0  0  0
  143.1730   76.7510  219.7220 C   0  0  0  0  0  0  0  0  0  0  0  0
  141.9610   77.1530  220.1890 C   0  0  0  0  0  0  0  0  0  0  0  0
  141.4560   78.5310  220.0980 C   0  0  0  0  0  0  0  0  0  0  0  0
  141.1340   79.0700  219.0120 O   0  0  0  0  0  0  0  0  0  0  0  0
  141.3400   79.2690  221.3040 N   0  0  0  0  0  0  0  0  0  0  0  0
  141.6740   78.7100  222.6130 C   0  0  0  0  0  0  0  0  0  0  0  0
  142.5650   79.6630  223.3760 C   0  0  0  0  0  0  0  0  0  0  0  0
  142.1260   80.9620  223.3790 O   0  0  0  0  0  0  0  0  0  0  0  0
  141.8390   81.5090  222.1590 C   0  0  0  0  0  0  0  0  0  0  0  0
  140.8950   80.6690  221.3240 C   0  0  0  0  0  0  0  0  0  0  0  0
  141.1100   76.2420  220.7760 C   0  0  0  0  0  0  0  0  0  0  0  0
  140.8040   73.1850  222.4710 N   0  0  0  0  0  0  0  0  0  0  0  0
  139.9750   72.2350  223.1090 C   0  0  0  0  0  0  0  0  0  0  0  0
  140.4260   71.3760  224.1120 C   0  0  0  0  0  0  0  0  0  0  0  0
  139.5380   70.4550  224.6510 C   0  0  0  0  0  0  0  0  0  0  0  0
  139.8810   69.5230  225.6530 N   0  0  0  0  0  0  0  0  0  0  0  0
  139.5450   68.1400  225.7070 C   0  0  0  0  0  0  0  0  0  0  0  0
  140.6590   67.4000  226.4590 C   0  0  0  0  0  0  0  0  0  0  0  0
  140.8480   67.8580  227.7440 O   0  0  0  0  0  0  0  0  0  0  0  0
  140.3320   69.1360  227.9610 C   0  0  0  0  0  0  0  0  0  0  0  0
  140.6410   70.0600  226.8040 C   0  0  0  0  0  0  0  0  0  0  0  0
  138.2150   70.3990  224.1910 C   0  0  0  0  0  0  0  0  0  0  0  0
  137.7650   71.2430  223.2040 C   0  0  0  0  0  0  0  0  0  0  0  0
  138.6570   72.1450  222.6840 C   0  0  0  0  0  0  0  0  0  0  0  0
  139.1022   73.7907  219.8865 H   0  0  0  0  0  0  0  0  0  0  0  0
  138.6316   75.0055  221.1475 H   0  0  0  0  0  0  0  0  0  0  0  0
  142.9480   73.4398  220.5553 H   0  0  0  0  0  0  0  0  0  0  0  0
  144.4857   75.0674  219.4895 H   0  0  0  0  0  0  0  0  0  0  0  0
  143.8640   77.4643  219.2490 H   0  0  0  0  0  0  0  0  0  0  0  0
  140.7485   78.5425  223.1834 H   0  0  0  0  0  0  0  0  0  0  0  0
  142.2056   77.7575  222.4713 H   0  0  0  0  0  0  0  0  0  0  0  0
  142.6272   79.3174  224.4185 H   0  0  0  0  0  0  0  0  0  0  0  0
  143.5403   79.6600  222.8673 H   0  0  0  0  0  0  0  0  0  0  0  0
  141.3776   82.4945  222.3198 H   0  0  0  0  0  0  0  0  0  0  0  0
  142.7868   81.5758  221.6048 H   0  0  0  0  0  0  0  0  0  0  0  0
  139.8843   80.7223  221.7549 H   0  0  0  0  0  0  0  0  0  0  0  0
  140.8869   81.0565  220.2945 H   0  0  0  0  0  0  0  0  0  0  0  0
  140.1362   76.6005  221.1408 H   0  0  0  0  0  0  0  0  0  0  0  0
  141.4653   71.4276  224.4688 H   0  0  0  0  0  0  0  0  0  0  0  0
  138.5896   68.0102  226.2366 H   0  0  0  0  0  0  0  0  0  0  0  0
  139.4431   67.7358  224.6890 H   0  0  0  0  0  0  0  0  0  0  0  0
  140.3997   66.3320  226.5039 H   0  0  0  0  0  0  0  0  0  0  0  0
  141.5954   67.5773  225.9096 H   0  0  0  0  0  0  0  0  0  0  0  0
  139.2409   69.0657  228.0812 H   0  0  0  0  0  0  0  0  0  0  0  0
  140.7990   69.5484  228.8675 H   0  0  0  0  0  0  0  0  0  0  0  0
  140.3162   71.0855  227.0340 H   0  0  0  0  0  0  0  0  0  0  0  0
  141.7200   70.1041  226.5948 H   0  0  0  0  0  0  0  0  0  0  0  0
  137.5229   69.6646  224.6289 H   0  0  0  0  0  0  0  0  0  0  0  0
  136.7265   71.1965  222.8442 H   0  0  0  0  0  0  0  0  0  0  0  0
  1  2  2  0
  2  3  1  0
  3  4  1  0
  4  5  1  0
  5  6  2  0
  6  7  1  0
  7  8  2  0
  8  9  1  0
  9 10  1  0
 10 11  2  0
 10 12  1  0
 12 13  1  0
 13 14  1  0
 14 15  1  0
 15 16  1  0
 16 17  1  0
  9 18  2  0
  4 19  2  0
 19 20  1  0
 20 21  2  0
 21 22  1  0
 22 23  1  0
 23 24  1  0
 24 25  1  0
 25 26  1  0
 26 27  1  0
 27 28  1  0
 22 29  2  0
 29 30  1  0
 30 31  2  0
 31  2  1  0
 18  5  1  0
 31 20  1  0
 17 12  1  0
 28 23  1  0
  3 32  1  0
  3 33  1  0
  6 34  1  0
  7 35  1  0
  8 36  1  0
 13 37  1  0
 13 38  1  0
 14 39  1  0
 14 40  1  0
 16 41  1  0
 16 42  1  0
 17 43  1  0
 17 44  1  0
 18 45  1  0
 21 46  1  0
 24 47  1  0
 24 48  1  0
 25 49  1  0
 25 50  1  0
 27 51  1  0
 27 52  1  0
 28 53  1  0
 28 54  1  0
 29 55  1  0
 30 56  1  0
M  END
>  <smiles>  (1) 
O=C1CC(c2cccc(C(=O)N3CCOCC3)c2)=Nc2cc(N3CCOCC3)ccc21

>  <score_type>  (1) 
oracle

>  <origin>  (1) 
autodockgpu

>  <m_score__min__energy>  (1) 
-9.1199999999999992

>  <m_primary>  (1) 
energy

>  <rmsd>  (1) 
6.978501550645132

>  <m_score__min__rmsd>  (1) 
6.978501550645132

>  <meeko>  (1) 
{"free_energy": -8.55, "intermolecular_energy": -9.45, "internal_energy": -0.9, "cluster_size": 50, "cluster_id": 1, "rank_in_cluster": 48}

>  <energy>  (1) 
-9.12

>  <cluster_rmsd>  (1) 
0.0

>  <cluster>  (1) 
1

$$$$

     RDKit          3D

 56 60  0  0  0  0  0  0  0  0999 V2000
  142.6910   72.2860  219.7660 O   0  0  0  0  0  0  0  0  0  0  0  0
  141.8510   72.7550  220.5650 C   0  0  0  0  0  0  0  0  0  0  0  0
  140.9990   71.8140  221.3130 C   0  0  0  0  0  0  0  0  0  0  0  0
  140.0370   72.5300  222.2050 C   0  0  0  0  0  0  0  0  0  0  0  0
  139.1050   71.7010  222.9750 C   0  0  0  0  0  0  0  0  0  0  0  0
  137.7410   71.9040  222.9780 C   0  0  0  0  0  0  0  0  0  0  0  0
  136.9020   71.0470  223.6980 C   0  0  0  0  0  0  0  0  0  0  0  0
  137.3980   69.9790  224.4270 C   0  0  0  0  0  0  0  0  0  0  0  0
  138.7430   69.7800  224.4270 C   0  0  0  0  0  0  0  0  0  0  0  0
  139.4150   68.6810  225.1390 C   0  0  0  0  0  0  0  0  0  0  0  0
  139.1850   67.4720  224.9000 O   0  0  0  0  0  0  0  0  0  0  0  0
  140.3600   69.0280  226.1380 N   0  0  0  0  0  0  0  0  0  0  0  0
  140.7020   70.4120  226.4640 C   0  0  0  0  0  0  0  0  0  0  0  0
  140.6500   70.6240  227.9590 C   0  0  0  0  0  0  0  0  0  0  0  0
  141.3050   69.6630  228.6870 O   0  0  0  0  0  0  0  0  0  0  0  0
  140.9730   68.3650  228.4140 C   0  0  0  0  0  0  0  0  0  0  0  0
  141.0530   68.0130  226.9440 C   0  0  0  0  0  0  0  0  0  0  0  0
  139.5670   70.6240  223.7160 C   0  0  0  0  0  0  0  0  0  0  0  0
  139.9850   73.8120  222.3060 N   0  0  0  0  0  0  0  0  0  0  0  0
  140.8040   74.7230  221.6030 C   0  0  0  0  0  0  0  0  0  0  0  0
  140.6890   76.1080  221.7260 C   0  0  0  0  0  0  0  0  0  0  0  0
  141.5220   76.9180  220.9640 C   0  0  0  0  0  0  0  0  0  0  0  0
  141.4860   78.3280  220.9860 N   0  0  0  0  0  0  0  0  0  0  0  0
  141.3890   79.2140  219.8750 C   0  0  0  0  0  0  0  0  0  0  0  0
  140.6560   80.4820  220.3300 C   0  0  0  0  0  0  0  0  0  0  0  0
  141.2880   81.1380  221.3630 O   0  0  0  0  0  0  0  0  0  0  0  0
  142.1840   80.3340  222.0680 C   0  0  0  0  0  0  0  0  0  0  0  0
  141.6090   78.9580  222.3200 C   0  0  0  0  0  0  0  0  0  0  0  0
  142.4580   76.3440  220.0930 C   0  0  0  0  0  0  0  0  0  0  0  0
  142.5760   74.9800  219.9680 C   0  0  0  0  0  0  0  0  0  0  0  0
  141.7440   74.1980  220.7280 C   0  0  0  0  0  0  0  0  0  0  0  0
  140.4326   71.1997  220.5976 H   0  0  0  0  0  0  0  0  0  0  0  0
  141.6490   71.1876  221.9416 H   0  0  0  0  0  0  0  0  0  0  0  0
  137.3109   72.7434  222.4118 H   0  0  0  0  0  0  0  0  0  0  0  0
  135.8168   71.2266  223.6848 H   0  0  0  0  0  0  0  0  0  0  0  0
  136.7255   69.3133  224.9879 H   0  0  0  0  0  0  0  0  0  0  0  0
  141.7171   70.6306  226.1011 H   0  0  0  0  0  0  0  0  0  0  0  0
  139.9776   71.0841  225.9808 H   0  0  0  0  0  0  0  0  0  0  0  0
  141.1066   71.5989  228.1851 H   0  0  0  0  0  0  0  0  0  0  0  0
  139.5901   70.5719  228.2487 H   0  0  0  0  0  0  0  0  0  0  0  0
  141.6600   67.7072  228.9665 H   0  0  0  0  0  0  0  0  0  0  0  0
  139.9253   68.2298  228.7205 H   0  0  0  0  0  0  0  0  0  0  0  0
  142.1088   67.9662  226.6390 H   0  0  0  0  0  0  0  0  0  0  0  0
  140.5706   67.0376  226.7829 H   0  0  0  0  0  0  0  0  0  0  0  0
  140.6501   70.4334  223.7372 H   0  0  0  0  0  0  0  0  0  0  0  0
  139.9528   76.5504  222.4132 H   0  0  0  0  0  0  0  0  0  0  0  0
  142.3965   79.4748  219.5187 H   0  0  0  0  0  0  0  0  0  0  0  0
  140.8373   78.7323  219.0543 H   0  0  0  0  0  0  0  0  0  0  0  0
  140.5828   81.1687  219.4738 H   0  0  0  0  0  0  0  0  0  0  0  0
  139.6676   80.1710  220.6991 H   0  0  0  0  0  0  0  0  0  0  0  0
  143.1107   80.2333  221.4839 H   0  0  0  0  0  0  0  0  0  0  0  0
  142.3851   80.8088  223.0396 H   0  0  0  0  0  0  0  0  0  0  0  0
  142.2835   78.3714  222.9610 H   0  0  0  0  0  0  0  0  0  0  0  0
  140.6393   79.0103  222.8366 H   0  0  0  0  0  0  0  0  0  0  0  0
  143.1115   76.9982  219.4972 H   0  0  0  0  0  0  0  0  0  0  0  0
  143.3111   74.5320  219.2832 H   0  0  0  0  0  0  0  0  0  0  0  0
  1  2  2  0
  2  3  1  0
  3  4  1  0
  4  5  1  0
  5  6  2  0
  6  7  1  0
  7  8  2  0
  8  9  1  0
  9 10  1  0
 10 11  2  0
 10 12  1  0
 12 13  1  0
 13 14  1  0
 14 15  1  0
 15 16  1  0
 16 17  1  0
  9 18  2  0
  4 19  2  0
 19 20  1  0
 20 21  2  0
 21 22  1  0
 22 23  1  0
 23 24  1  0
 24 25  1  0
 25 26  1  0
 26 27  1  0
 27 28  1  0
 22 29  2  0
 29 30  1  0
 30 31  2  0
 31  2  1  0
 18  5  1  0
 31 20  1  0
 17 12  1  0
 28 23  1  0
  3 32  1  0
  3 33  1  0
  6 34  1  0
  7 35  1  0
  8 36  1  0
 13 37  1  0
 13 38  1  0
 14 39  1  0
 14 40  1  0
 16 41  1  0
 16 42  1  0
 17 43  1  0
 17 44  1  0
 18 45  1  0
 21 46  1  0
 24 47  1  0
 24 48  1  0
 25 49  1  0
 25 50  1  0
 27 51  1  0
 27 52  1  0
 28 53  1  0
 28 54  1  0
 29 55  1  0
 30 56  1  0
M  END
>  <smiles>  (2) 
O=C1CC(c2cccc(C(=O)N3CCOCC3)c2)=Nc2cc(N3CCOCC3)ccc21

>  <score_type>  (2) 
oracle

>  <origin>  (2) 
autodockgpu

>  <m_score__min__energy>  (2) 
-9.1199999999999992

>  <m_primary>  (2) 
energy

>  <rmsd>  (2) 
6.259948677728819

>  <m_score__min__rmsd>  (2) 
6.259948677728819

>  <meeko>  (2) 
{"free_energy": -9.05, "intermolecular_energy": -9.95, "internal_energy": -0.82, "cluster_size": 50, "cluster_id": 1, "rank_in_cluster": 34}

>  <energy>  (2) 
-9.1

>  <cluster_rmsd>  (2) 
0.07

>  <cluster>  (2) 
1

$$$$

     RDKit          3D

 56 60  0  0  0  0  0  0  0  0999 V2000
  142.6550   72.2930  219.7100 O   0  0  0  0  0  0  0  0  0  0  0  0
  141.8320   72.7630  220.5250 C   0  0  0  0  0  0  0  0  0  0  0  0
  140.9800   71.8250  221.2760 C   0  0  0  0  0  0  0  0  0  0  0  0
  140.0400   72.5430  222.1900 C   0  0  0  0  0  0  0  0  0  0  0  0
  139.1090   71.7170  222.9650 C   0  0  0  0  0  0  0  0  0  0  0  0
  137.7450   71.9180  222.9680 C   0  0  0  0  0  0  0  0  0  0  0  0
  136.9070   71.0650  223.6930 C   0  0  0  0  0  0  0  0  0  0  0  0
  137.4050   70.0010  224.4270 C   0  0  0  0  0  0  0  0  0  0  0  0
  138.7500   69.8020  224.4270 C   0  0  0  0  0  0  0  0  0  0  0  0
  139.4240   68.7080  225.1420 C   0  0  0  0  0  0  0  0  0  0  0  0
  139.1990   67.4970  224.9060 O   0  0  0  0  0  0  0  0  0  0  0  0
  140.3650   69.0600  226.1430 N   0  0  0  0  0  0  0  0  0  0  0  0
  140.7010   70.4460  226.4680 C   0  0  0  0  0  0  0  0  0  0  0  0
  140.6440   70.6610  227.9620 C   0  0  0  0  0  0  0  0  0  0  0  0
  141.3000   69.7040  228.6930 O   0  0  0  0  0  0  0  0  0  0  0  0
  140.9740   68.4040  228.4230 C   0  0  0  0  0  0  0  0  0  0  0  0
  141.0590   68.0490  226.9540 C   0  0  0  0  0  0  0  0  0  0  0  0
  139.5720   70.6440  223.7100 C   0  0  0  0  0  0  0  0  0  0  0  0
  140.0040   73.8240  222.3050 N   0  0  0  0  0  0  0  0  0  0  0  0
  140.8240   74.7330  221.5980 C   0  0  0  0  0  0  0  0  0  0  0  0
  140.7270   76.1180  221.7370 C   0  0  0  0  0  0  0  0  0  0  0  0
  141.5580   76.9250  220.9720 C   0  0  0  0  0  0  0  0  0  0  0  0
  141.5390   78.3360  221.0080 N   0  0  0  0  0  0  0  0  0  0  0  0
  141.3140   79.1740  222.1370 C   0  0  0  0  0  0  0  0  0  0  0  0
  142.0850   80.4840  221.9300 C   0  0  0  0  0  0  0  0  0  0  0  0
  141.7100   81.1650  220.7920 O   0  0  0  0  0  0  0  0  0  0  0  0
  141.0580   80.3650  219.8540 C   0  0  0  0  0  0  0  0  0  0  0  0
  141.7350   79.0200  219.7100 C   0  0  0  0  0  0  0  0  0  0  0  0
  142.4750   76.3490  220.0810 C   0  0  0  0  0  0  0  0  0  0  0  0
  142.5750   74.9860  219.9410 C   0  0  0  0  0  0  0  0  0  0  0  0
  141.7450   74.2060  220.7050 C   0  0  0  0  0  0  0  0  0  0  0  0
  140.3955   71.2251  220.5629 H   0  0  0  0  0  0  0  0  0  0  0  0
  141.6318   71.1845  221.8884 H   0  0  0  0  0  0  0  0  0  0  0  0
  137.3138   72.7536  222.3972 H   0  0  0  0  0  0  0  0  0  0  0  0
  135.8217   71.2440  223.6801 H   0  0  0  0  0  0  0  0  0  0  0  0
  136.7334   69.3379  224.9921 H   0  0  0  0  0  0  0  0  0  0  0  0
  141.7164   70.6676  226.1077 H   0  0  0  0  0  0  0  0  0  0  0  0
  139.9752   71.1143  225.9817 H   0  0  0  0  0  0  0  0  0  0  0  0
  141.0967   71.6379  228.1875 H   0  0  0  0  0  0  0  0  0  0  0  0
  139.5835   70.6063  228.2490 H   0  0  0  0  0  0  0  0  0  0  0  0
  141.6625   67.7505  228.9788 H   0  0  0  0  0  0  0  0  0  0  0  0
  139.9262   68.2649  228.7277 H   0  0  0  0  0  0  0  0  0  0  0  0
  142.1158   68.0048  226.6521 H   0  0  0  0  0  0  0  0  0  0  0  0
  140.5798   67.0719  226.7940 H   0  0  0  0  0  0  0  0  0  0  0  0
  140.6553   70.4541  223.7301 H   0  0  0  0  0  0  0  0  0  0  0  0
  140.0060   76.5618  222.4392 H   0  0  0  0  0  0  0  0  0  0  0  0
  140.2391   79.3869  222.2331 H   0  0  0  0  0  0  0  0  0  0  0  0
  141.6593   78.6734  223.0536 H   0  0  0  0  0  0  0  0  0  0  0  0
  141.9082   81.1340  222.7997 H   0  0  0  0  0  0  0  0  0  0  0  0
  143.1472   80.2216  221.8166 H   0  0  0  0  0  0  0  0  0  0  0  0
  140.0182   80.2095  220.1773 H   0  0  0  0  0  0  0  0  0  0  0  0
  141.0918   80.8756  218.8803 H   0  0  0  0  0  0  0  0  0  0  0  0
  141.2715   78.4417  218.8972 H   0  0  0  0  0  0  0  0  0  0  0  0
  142.8014   79.1251  219.4617 H   0  0  0  0  0  0  0  0  0  0  0  0
  143.1273   77.0016  219.4822 H   0  0  0  0  0  0  0  0  0  0  0  0
  143.2949   74.5364  219.2413 H   0  0  0  0  0  0  0  0  0  0  0  0
  1  2  2  0
  2  3  1  0
  3  4  1  0
  4  5  1  0
  5  6  2  0
  6  7  1  0
  7  8  2  0
  8  9  1  0
  9 10  1  0
 10 11  2  0
 10 12  1  0
 12 13  1  0
 13 14  1  0
 14 15  1  0
 15 16  1  0
 16 17  1  0
  9 18  2  0
  4 19  2  0
 19 20  1  0
 20 21  2  0
 21 22  1  0
 22 23  1  0
 23 24  1  0
 24 25  1  0
 25 26  1  0
 26 27  1  0
 27 28  1  0
 22 29  2  0
 29 30  1  0
 30 31  2  0
 31  2  1  0
 18  5  1  0
 31 20  1  0
 17 12  1  0
 28 23  1  0
  3 32  1  0
  3 33  1  0
  6 34  1  0
  7 35  1  0
  8 36  1  0
 13 37  1  0
 13 38  1  0
 14 39  1  0
 14 40  1  0
 16 41  1  0
 16 42  1  0
 17 43  1  0
 17 44  1  0
 18 45  1  0
 21 46  1  0
 24 47  1  0
 24 48  1  0
 25 49  1  0
 25 50  1  0
 27 51  1  0
 27 52  1  0
 28 53  1  0
 28 54  1  0
 29 55  1  0
 30 56  1  0
M  END
>  <smiles>  (3) 
O=C1CC(c2cccc(C(=O)N3CCOCC3)c2)=Nc2cc(N3CCOCC3)ccc21

>  <score_type>  (3) 
oracle

>  <origin>  (3) 
autodockgpu

>  <m_score__min__energy>  (3) 
-9.1199999999999992

>  <m_primary>  (3) 
energy

>  <rmsd>  (3) 
6.270153876914704

>  <m_score__min__rmsd>  (3) 
6.270153876914704

>  <meeko>  (3) 
{"free_energy": -8.99, "intermolecular_energy": -9.89, "internal_energy": -0.82, "cluster_size": 50, "cluster_id": 1, "rank_in_cluster": 42}

>  <energy>  (3) 
-9.1

>  <cluster_rmsd>  (3) 
0.24

>  <cluster>  (3) 
1

$$$$

     RDKit          3D

 56 60  0  0  0  0  0  0  0  0999 V2000
  142.4800   72.3850  219.5920 O   0  0  0  0  0  0  0  0  0  0  0  0
  141.6930   72.8370  220.4530 C   0  0  0  0  0  0  0  0  0  0  0  0
  140.8570   71.8830  221.2030 C   0  0  0  0  0  0  0  0  0  0  0  0
  139.9600   72.5800  222.1740 C   0  0  0  0  0  0  0  0  0  0  0  0
  139.0480   71.7390  222.9540 C   0  0  0  0  0  0  0  0  0  0  0  0
  137.6800   71.9080  222.9560 C   0  0  0  0  0  0  0  0  0  0  0  0
  136.8610   71.0410  223.6860 C   0  0  0  0  0  0  0  0  0  0  0  0
  137.3830   69.9940  224.4280 C   0  0  0  0  0  0  0  0  0  0  0  0
  138.7330   69.8260  224.4300 C   0  0  0  0  0  0  0  0  0  0  0  0
  139.4310   68.7530  225.1540 C   0  0  0  0  0  0  0  0  0  0  0  0
  139.2360   67.5360  224.9240 O   0  0  0  0  0  0  0  0  0  0  0  0
  140.3600   69.1340  226.1550 N   0  0  0  0  0  0  0  0  0  0  0  0
  140.6620   70.5290  226.4720 C   0  0  0  0  0  0  0  0  0  0  0  0
  140.5960   70.7530  227.9640 C   0  0  0  0  0  0  0  0  0  0  0  0
  141.2730   69.8160  228.7030 O   0  0  0  0  0  0  0  0  0  0  0  0
  140.9790   68.5070  228.4400 C   0  0  0  0  0  0  0  0  0  0  0  0
  141.0770   68.1450  226.9730 C   0  0  0  0  0  0  0  0  0  0  0  0
  139.5360   70.6820  223.7070 C   0  0  0  0  0  0  0  0  0  0  0  0
  139.9440   73.8570  222.3320 N   0  0  0  0  0  0  0  0  0  0  0  0
  140.7490   74.7800  221.6270 C   0  0  0  0  0  0  0  0  0  0  0  0
  140.6740   76.1600  221.8160 C   0  0  0  0  0  0  0  0  0  0  0  0
  141.4860   76.9840  221.0480 C   0  0  0  0  0  0  0  0  0  0  0  0
  141.4860   78.3930  221.1320 N   0  0  0  0  0  0  0  0  0  0  0  0
  141.4570   79.3290  220.0590 C   0  0  0  0  0  0  0  0  0  0  0  0
  140.7390   80.5960  220.5410 C   0  0  0  0  0  0  0  0  0  0  0  0
  141.3450   81.1880  221.6280 O   0  0  0  0  0  0  0  0  0  0  0  0
  142.1900   80.3290  222.3310 C   0  0  0  0  0  0  0  0  0  0  0  0
  141.5700   78.9590  222.4970 C   0  0  0  0  0  0  0  0  0  0  0  0
  142.3630   76.4290  220.1050 C   0  0  0  0  0  0  0  0  0  0  0  0
  142.4420   75.0700  219.9160 C   0  0  0  0  0  0  0  0  0  0  0  0
  141.6310   74.2730  220.6830 C   0  0  0  0  0  0  0  0  0  0  0  0
  140.2397   71.3142  220.4921 H   0  0  0  0  0  0  0  0  0  0  0  0
  141.5224   71.2147  221.7691 H   0  0  0  0  0  0  0  0  0  0  0  0
  137.2298   72.7298  222.3799 H   0  0  0  0  0  0  0  0  0  0  0  0
  135.7719   71.1946  223.6707 H   0  0  0  0  0  0  0  0  0  0  0  0
  136.7266   69.3197  224.9976 H   0  0  0  0  0  0  0  0  0  0  0  0
  141.6729   70.7722  226.1128 H   0  0  0  0  0  0  0  0  0  0  0  0
  139.9215   71.1765  225.9796 H   0  0  0  0  0  0  0  0  0  0  0  0
  141.0250   71.7418  228.1839 H   0  0  0  0  0  0  0  0  0  0  0  0
  139.5364   70.6757  228.2491 H   0  0  0  0  0  0  0  0  0  0  0  0
  141.6812   67.8735  229.0019 H   0  0  0  0  0  0  0  0  0  0  0  0
  139.9339   68.3448  228.7425 H   0  0  0  0  0  0  0  0  0  0  0  0
  142.1354   68.1253  226.6739 H   0  0  0  0  0  0  0  0  0  0  0  0
  140.6233   67.1551  226.8174 H   0  0  0  0  0  0  0  0  0  0  0  0
  140.6234   70.5175  223.7287 H   0  0  0  0  0  0  0  0  0  0  0  0
  139.9848   76.5873  222.5592 H   0  0  0  0  0  0  0  0  0  0  0  0
  142.4845   79.5773  219.7547 H   0  0  0  0  0  0  0  0  0  0  0  0
  140.9267   78.8990  219.1966 H   0  0  0  0  0  0  0  0  0  0  0  0
  140.7195   81.3216  219.7145 H   0  0  0  0  0  0  0  0  0  0  0  0
  139.7282   80.2970  220.8554 H   0  0  0  0  0  0  0  0  0  0  0  0
  143.1371   80.2290  221.7806 H   0  0  0  0  0  0  0  0  0  0  0  0
  142.3626   80.7544  223.3306 H   0  0  0  0  0  0  0  0  0  0  0  0
  142.2024   78.3262  223.1370 H   0  0  0  0  0  0  0  0  0  0  0  0
  140.5816   79.0146  222.9765 H   0  0  0  0  0  0  0  0  0  0  0  0
  143.0005   77.0947  219.5045 H   0  0  0  0  0  0  0  0  0  0  0  0
  143.1311   74.6369  219.1760 H   0  0  0  0  0  0  0  0  0  0  0  0
  1  2  2  0
  2  3  1  0
  3  4  1  0
  4  5  1  0
  5  6  2  0
  6  7  1  0
  7  8  2  0
  8  9  1  0
  9 10  1  0
 10 11  2  0
 10 12  1  0
 12 13  1  0
 13 14  1  0
 14 15  1  0
 15 16  1  0
 16 17  1  0
  9 18  2  0
  4 19  2  0
 19 20  1  0
 20 21  2  0
 21 22  1  0
 22 23  1  0
 23 24  1  0
 24 25  1  0
 25 26  1  0
 26 27  1  0
 27 28  1  0
 22 29  2  0
 29 30  1  0
 30 31  2  0
 31  2  1  0
 18  5  1  0
 31 20  1  0
 17 12  1  0
 28 23  1  0
  3 32  1  0
  3 33  1  0
  6 34  1  0
  7 35  1  0
  8 36  1  0
 13 37  1  0
 13 38  1  0
 14 39  1  0
 14 40  1  0
 16 41  1  0
 16 42  1  0
 17 43  1  0
 17 44  1  0
 18 45  1  0
 21 46  1  0
 24 47  1  0
 24 48  1  0
 25 49  1  0
 25 50  1  0
 27 51  1  0
 27 52  1  0
 28 53  1  0
 28 54  1  0
 29 55  1  0
 30 56  1  0
M  END
>  <smiles>  (4) 
O=C1CC(c2cccc(C(=O)N3CCOCC3)c2)=Nc2cc(N3CCOCC3)ccc21

>  <score_type>  (4) 
oracle

>  <origin>  (4) 
autodockgpu

>  <m_score__min__energy>  (4) 
-9.1199999999999992

>  <m_primary>  (4) 
energy

>  <rmsd>  (4) 
6.28082124094316

>  <m_score__min__rmsd>  (4) 
6.28082124094316

>  <meeko>  (4) 
{"free_energy": -9.09, "intermolecular_energy": -9.98, "internal_energy": -0.83, "cluster_size": 50, "cluster_id": 1, "rank_in_cluster": 8}

>  <energy>  (4) 
-9.09

>  <cluster_rmsd>  (4) 
0.48

>  <cluster>  (4) 
1

$$$$

     RDKit          3D

 56 60  0  0  0  0  0  0  0  0999 V2000
  141.9820   72.8430  219.1640 O   0  0  0  0  0  0  0  0  0  0  0  0
  141.3230   73.2050  220.1630 C   0  0  0  0  0  0  0  0  0  0  0  0
  140.5060   72.1990  220.8640 C   0  0  0  0  0  0  0  0  0  0  0  0
  139.7660   72.7940  222.0180 C   0  0  0  0  0  0  0  0  0  0  0  0
  138.8850   71.8980  222.7720 C   0  0  0  0  0  0  0  0  0  0  0  0
  137.5090   71.9860  222.7370 C   0  0  0  0  0  0  0  0  0  0  0  0
  136.7250   71.0700  223.4440 C   0  0  0  0  0  0  0  0  0  0  0  0
  137.2870   70.0530  224.1980 C   0  0  0  0  0  0  0  0  0  0  0  0
  138.6440   69.9660  224.2360 C   0  0  0  0  0  0  0  0  0  0  0  0
  139.3850   68.9330  224.9770 C   0  0  0  0  0  0  0  0  0  0  0  0
  139.2240   67.7050  224.7820 O   0  0  0  0  0  0  0  0  0  0  0  0
  140.3160   69.3680  225.9540 N   0  0  0  0  0  0  0  0  0  0  0  0
  140.5790   70.7800  226.2300 C   0  0  0  0  0  0  0  0  0  0  0  0
  140.5270   71.0400  227.7170 C   0  0  0  0  0  0  0  0  0  0  0  0
  141.2430   70.1450  228.4700 O   0  0  0  0  0  0  0  0  0  0  0  0
  140.9860   68.8200  228.2450 C   0  0  0  0  0  0  0  0  0  0  0  0
  141.0740   68.4240  226.7870 C   0  0  0  0  0  0  0  0  0  0  0  0
  139.4140   70.8690  223.5360 C   0  0  0  0  0  0  0  0  0  0  0  0
  139.8560   74.0330  222.3530 N   0  0  0  0  0  0  0  0  0  0  0  0
  140.6440   75.0050  221.6960 C   0  0  0  0  0  0  0  0  0  0  0  0
  140.6840   76.3450  222.0820 C   0  0  0  0  0  0  0  0  0  0  0  0
  141.4670   77.2270  221.3480 C   0  0  0  0  0  0  0  0  0  0  0  0
  141.5730   78.6060  221.6270 N   0  0  0  0  0  0  0  0  0  0  0  0
  141.5760   79.6850  220.6970 C   0  0  0  0  0  0  0  0  0  0  0  0
  140.9700   80.9160  221.3800 C   0  0  0  0  0  0  0  0  0  0  0  0
  141.6540   81.3060  222.5110 O   0  0  0  0  0  0  0  0  0  0  0  0
  142.4570   80.3010  223.0500 C   0  0  0  0  0  0  0  0  0  0  0  0
  141.7440   78.9670  223.0530 C   0  0  0  0  0  0  0  0  0  0  0  0
  142.1990   76.7690  220.2440 C   0  0  0  0  0  0  0  0  0  0  0  0
  142.1640   75.4500  219.8600 C   0  0  0  0  0  0  0  0  0  0  0  0
  141.3840   74.5950  220.5970 C   0  0  0  0  0  0  0  0  0  0  0  0
  139.7796   71.7736  220.1560 H   0  0  0  0  0  0  0  0  0  0  0  0
  141.1795   71.4212  221.2531 H   0  0  0  0  0  0  0  0  0  0  0  0
  137.0262   72.7810  222.1498 H   0  0  0  0  0  0  0  0  0  0  0  0
  135.6295   71.1594  223.4004 H   0  0  0  0  0  0  0  0  0  0  0  0
  136.6565   69.3390  224.7481 H   0  0  0  0  0  0  0  0  0  0  0  0
  141.5766   71.0448  225.8496 H   0  0  0  0  0  0  0  0  0  0  0  0
  139.8123   71.3916  225.7319 H   0  0  0  0  0  0  0  0  0  0  0  0
  140.9274   72.0471  227.9052 H   0  0  0  0  0  0  0  0  0  0  0  0
  139.4744   70.9362  228.0192 H   0  0  0  0  0  0  0  0  0  0  0  0
  141.7157   68.2232  228.8119 H   0  0  0  0  0  0  0  0  0  0  0  0
  139.9511   68.6332  228.5677 H   0  0  0  0  0  0  0  0  0  0  0  0
  142.1282   68.4289  226.4729 H   0  0  0  0  0  0  0  0  0  0  0  0
  140.6480   67.4173  226.6639 H   0  0  0  0  0  0  0  0  0  0  0  0
  140.5082   70.7681  223.5860 H   0  0  0  0  0  0  0  0  0  0  0  0
  140.1071   76.6962  222.9502 H   0  0  0  0  0  0  0  0  0  0  0  0
  142.6080   79.9037  220.3855 H   0  0  0  0  0  0  0  0  0  0  0  0
  140.9862   79.4183  219.8077 H   0  0  0  0  0  0  0  0  0  0  0  0
  140.9760   81.7507  220.6636 H   0  0  0  0  0  0  0  0  0  0  0  0
  139.9511   80.6450  221.6937 H   0  0  0  0  0  0  0  0  0  0  0  0
  143.3744   80.2151  222.4492 H   0  0  0  0  0  0  0  0  0  0  0  0
  142.6951   80.5686  224.0900 H   0  0  0  0  0  0  0  0  0  0  0  0
  142.3493   78.2089  223.5715 H   0  0  0  0  0  0  0  0  0  0  0  0
  140.7792   79.0214  223.5785 H   0  0  0  0  0  0  0  0  0  0  0  0
  142.8142   77.4800  219.6731 H   0  0  0  0  0  0  0  0  0  0  0  0
  142.7401   75.0928  218.9937 H   0  0  0  0  0  0  0  0  0  0  0  0
  1  2  2  0
  2  3  1  0
  3  4  1  0
  4  5  1  0
  5  6  2  0
  6  7  1  0
  7  8  2  0
  8  9  1  0
  9 10  1  0
 10 11  2  0
 10 12  1  0
 12 13  1  0
 13 14  1  0
 14 15  1  0
 15 16  1  0
 16 17  1  0
  9 18  2  0
  4 19  2  0
 19 20  1  0
 20 21  2  0
 21 22  1  0
 22 23  1  0
 23 24  1  0
 24 25  1  0
 25 26  1  0
 26 27  1  0
 27 28  1  0
 22 29  2  0
 29 30  1  0
 30 31  2  0
 31  2  1  0
 18  5  1  0
 31 20  1  0
 17 12  1  0
 28 23  1  0
  3 32  1  0
  3 33  1  0
  6 34  1  0
  7 35  1  0
  8 36  1  0
 13 37  1  0
 13 38  1  0
 14 39  1  0
 14 40  1  0
 16 41  1  0
 16 42  1  0
 17 43  1  0
 17 44  1  0
 18 45  1  0
 21 46  1  0
 24 47  1  0
 24 48  1  0
 25 49  1  0
 25 50  1  0
 27 51  1  0
 27 52  1  0
 28 53  1  0
 28 54  1  0
 29 55  1  0
 30 56  1  0
M  END
>  <smiles>  (5) 
O=C1CC(c2cccc(C(=O)N3CCOCC3)c2)=Nc2cc(N3CCOCC3)ccc21

>  <score_type>  (5) 
oracle

>  <origin>  (5) 
autodockgpu

>  <m_score__min__energy>  (5) 
-9.1199999999999992

>  <m_primary>  (5) 
energy

>  <rmsd>  (5) 
6.318312265838091

>  <m_score__min__rmsd>  (5) 
6.318312265838091

>  <meeko>  (5) 
{"free_energy": -9.08, "intermolecular_energy": -9.98, "internal_energy": -0.78, "cluster_size": 50, "cluster_id": 1, "rank_in_cluster": 12}

>  <energy>  (5) 
-9.09

>  <cluster_rmsd>  (5) 
0.52

>  <cluster>  (5) 
1

$$$$

     RDKit          3D

 56 60  0  0  0  0  0  0  0  0999 V2000
  142.2820   72.3750  219.4480 O   0  0  0  0  0  0  0  0  0  0  0  0
  141.5480   72.8190  220.3570 C   0  0  0  0  0  0  0  0  0  0  0  0
  140.7200   71.8630  221.1140 C   0  0  0  0  0  0  0  0  0  0  0  0
  139.8870   72.5510  222.1460 C   0  0  0  0  0  0  0  0  0  0  0  0
  138.9880   71.7090  222.9410 C   0  0  0  0  0  0  0  0  0  0  0  0
  137.6190   71.8760  222.9620 C   0  0  0  0  0  0  0  0  0  0  0  0
  136.8130   71.0080  223.7050 C   0  0  0  0  0  0  0  0  0  0  0  0
  137.3470   69.9620  224.4400 C   0  0  0  0  0  0  0  0  0  0  0  0
  138.6970   69.7970  224.4220 C   0  0  0  0  0  0  0  0  0  0  0  0
  139.4080   68.7250  225.1360 C   0  0  0  0  0  0  0  0  0  0  0  0
  139.2120   67.5070  224.9090 O   0  0  0  0  0  0  0  0  0  0  0  0
  140.3510   69.1080  226.1240 N   0  0  0  0  0  0  0  0  0  0  0  0
  140.6540   70.5040  226.4360 C   0  0  0  0  0  0  0  0  0  0  0  0
  140.6080   70.7280  227.9290 C   0  0  0  0  0  0  0  0  0  0  0  0
  141.2980   69.7930  228.6590 O   0  0  0  0  0  0  0  0  0  0  0  0
  141.0030   68.4820  228.4000 C   0  0  0  0  0  0  0  0  0  0  0  0
  141.0800   68.1210  226.9320 C   0  0  0  0  0  0  0  0  0  0  0  0
  139.4880   70.6530  223.6870 C   0  0  0  0  0  0  0  0  0  0  0  0
  139.9140   73.8220  222.3460 N   0  0  0  0  0  0  0  0  0  0  0  0
  140.7110   74.7470  221.6340 C   0  0  0  0  0  0  0  0  0  0  0  0
  140.6820   76.1220  221.8700 C   0  0  0  0  0  0  0  0  0  0  0  0
  141.4820   76.9490  221.0920 C   0  0  0  0  0  0  0  0  0  0  0  0
  141.5250   78.3530  221.2210 N   0  0  0  0  0  0  0  0  0  0  0  0
  141.2910   79.1270  222.3930 C   0  0  0  0  0  0  0  0  0  0  0  0
  142.1270   80.4100  222.3010 C   0  0  0  0  0  0  0  0  0  0  0  0
  141.8290   81.1790  221.1980 O   0  0  0  0  0  0  0  0  0  0  0  0
  141.1810   80.4720  220.1850 C   0  0  0  0  0  0  0  0  0  0  0  0
  141.8020   79.1090  219.9780 C   0  0  0  0  0  0  0  0  0  0  0  0
  142.3000   76.4020  220.0930 C   0  0  0  0  0  0  0  0  0  0  0  0
  142.3330   75.0480  219.8580 C   0  0  0  0  0  0  0  0  0  0  0  0
  141.5350   74.2490  220.6360 C   0  0  0  0  0  0  0  0  0  0  0  0
  140.0561   71.3341  220.4143 H   0  0  0  0  0  0  0  0  0  0  0  0
  141.3913   71.1593  221.6280 H   0  0  0  0  0  0  0  0  0  0  0  0
  137.1590   72.6962  222.3914 H   0  0  0  0  0  0  0  0  0  0  0  0
  135.7236   71.1600  223.7060 H   0  0  0  0  0  0  0  0  0  0  0  0
  136.7001   69.2868  225.0194 H   0  0  0  0  0  0  0  0  0  0  0  0
  141.6592   70.7496  226.0628 H   0  0  0  0  0  0  0  0  0  0  0  0
  139.9055   71.1497  225.9535 H   0  0  0  0  0  0  0  0  0  0  0  0
  141.0370   71.7181  228.1428 H   0  0  0  0  0  0  0  0  0  0  0  0
  139.5527   70.6475  228.2286 H   0  0  0  0  0  0  0  0  0  0  0  0
  141.7150   67.8501  228.9511 H   0  0  0  0  0  0  0  0  0  0  0  0
  139.9630   68.3169  228.7182 H   0  0  0  0  0  0  0  0  0  0  0  0
  142.1340   68.1026  226.6179 H   0  0  0  0  0  0  0  0  0  0  0  0
  140.6244   67.1309  226.7832 H   0  0  0  0  0  0  0  0  0  0  0  0
  140.5758   70.4895  223.6925 H   0  0  0  0  0  0  0  0  0  0  0  0
  140.0383   76.5426  222.6566 H   0  0  0  0  0  0  0  0  0  0  0  0
  140.2235   79.3833  222.4619 H   0  0  0  0  0  0  0  0  0  0  0  0
  141.5758   78.5537  223.2876 H   0  0  0  0  0  0  0  0  0  0  0  0
  141.9446   81.0106  223.2044 H   0  0  0  0  0  0  0  0  0  0  0  0
  143.1801   80.1056  222.2097 H   0  0  0  0  0  0  0  0  0  0  0  0
  140.1229   80.3453  220.4577 H   0  0  0  0  0  0  0  0  0  0  0  0
  141.2779   81.0419  219.2491 H   0  0  0  0  0  0  0  0  0  0  0  0
  141.3453   78.6062  219.1128 H   0  0  0  0  0  0  0  0  0  0  0  0
  142.8810   79.1794  219.7760 H   0  0  0  0  0  0  0  0  0  0  0  0
  142.9280   77.0699  219.4851 H   0  0  0  0  0  0  0  0  0  0  0  0
  142.9761   74.6210  219.0744 H   0  0  0  0  0  0  0  0  0  0  0  0
  1  2  2  0
  2  3  1  0
  3  4  1  0
  4  5  1  0
  5  6  2  0
  6  7  1  0
  7  8  2  0
  8  9  1  0
  9 10  1  0
 10 11  2  0
 10 12  1  0
 12 13  1  0
 13 14  1  0
 14 15  1  0
 15 16  1  0
 16 17  1  0
  9 18  2  0
  4 19  2  0
 19 20  1  0
 20 21  2  0
 21 22  1  0
 22 23  1  0
 23 24  1  0
 24 25  1  0
 25 26  1  0
 26 27  1  0
 27 28  1  0
 22 29  2  0
 29 30  1  0
 30 31  2  0
 31  2  1  0
 18  5  1  0
 31 20  1  0
 17 12  1  0
 28 23  1  0
  3 32  1  0
  3 33  1  0
  6 34  1  0
  7 35  1  0
  8 36  1  0
 13 37  1  0
 13 38  1  0
 14 39  1  0
 14 40  1  0
 16 41  1  0
 16 42  1  0
 17 43  1  0
 17 44  1  0
 18 45  1  0
 21 46  1  0
 24 47  1  0
 24 48  1  0
 25 49  1  0
 25 50  1  0
 27 51  1  0
 27 52  1  0
 28 53  1  0
 28 54  1  0
 29 55  1  0
 30 56  1  0
M  END
>  <smiles>  (6) 
O=C1CC(c2cccc(C(=O)N3CCOCC3)c2)=Nc2cc(N3CCOCC3)ccc21

>  <score_type>  (6) 
oracle

>  <origin>  (6) 
autodockgpu

>  <m_score__min__energy>  (6) 
-9.1199999999999992

>  <m_primary>  (6) 
energy

>  <rmsd>  (6) 
6.286957369453337

>  <m_score__min__rmsd>  (6) 
6.286957369453337

>  <meeko>  (6) 
{"free_energy": -9.02, "intermolecular_energy": -9.92, "internal_energy": -0.82, "cluster_size": 50, "cluster_id": 1, "rank_in_cluster": 40}

>  <energy>  (6) 
-9.09

>  <cluster_rmsd>  (6) 
0.44

>  <cluster>  (6) 
1

$$$$

     RDKit          3D

 56 60  0  0  0  0  0  0  0  0999 V2000
  142.0580   72.4740  219.2870 O   0  0  0  0  0  0  0  0  0  0  0  0
  141.3780   72.8920  220.2490 C   0  0  0  0  0  0  0  0  0  0  0  0
  140.5600   71.9220  220.9990 C   0  0  0  0  0  0  0  0  0  0  0  0
  139.7930   72.5810  222.1000 C   0  0  0  0  0  0  0  0  0  0  0  0
  138.9100   71.7250  222.8960 C   0  0  0  0  0  0  0  0  0  0  0  0
  137.5390   71.8780  222.9280 C   0  0  0  0  0  0  0  0  0  0  0  0
  136.7480   70.9970  223.6720 C   0  0  0  0  0  0  0  0  0  0  0  0
  137.2980   69.9520  224.3970 C   0  0  0  0  0  0  0  0  0  0  0  0
  138.6500   69.8010  224.3680 C   0  0  0  0  0  0  0  0  0  0  0  0
  139.3770   68.7320  225.0700 C   0  0  0  0  0  0  0  0  0  0  0  0
  139.2080   67.5150  224.8220 O   0  0  0  0  0  0  0  0  0  0  0  0
  140.3030   69.1180  226.0720 N   0  0  0  0  0  0  0  0  0  0  0  0
  140.5750   70.5150  226.4100 C   0  0  0  0  0  0  0  0  0  0  0  0
  140.5130   70.7130  227.9060 C   0  0  0  0  0  0  0  0  0  0  0  0
  141.2160   69.7810  228.6260 O   0  0  0  0  0  0  0  0  0  0  0  0
  140.9500   68.4690  228.3430 C   0  0  0  0  0  0  0  0  0  0  0  0
  141.0470   68.1340  226.8700 C   0  0  0  0  0  0  0  0  0  0  0  0
  139.4260   70.6700  223.6320 C   0  0  0  0  0  0  0  0  0  0  0  0
  139.8640   73.8400  222.3570 N   0  0  0  0  0  0  0  0  0  0  0  0
  140.6530   74.7770  221.6520 C   0  0  0  0  0  0  0  0  0  0  0  0
  140.6730   76.1400  221.9520 C   0  0  0  0  0  0  0  0  0  0  0  0
  141.4580   76.9820  221.1770 C   0  0  0  0  0  0  0  0  0  0  0  0
  141.5450   78.3780  221.3680 N   0  0  0  0  0  0  0  0  0  0  0  0
  141.6000   79.3910  220.3700 C   0  0  0  0  0  0  0  0  0  0  0  0
  140.9520   80.6620  220.9330 C   0  0  0  0  0  0  0  0  0  0  0  0
  141.5680   81.1310  222.0730 O   0  0  0  0  0  0  0  0  0  0  0  0
  142.3400   80.1690  222.7240 C   0  0  0  0  0  0  0  0  0  0  0  0
  141.6320   78.8340  222.7740 C   0  0  0  0  0  0  0  0  0  0  0  0
  142.2140   76.4630  220.1170 C   0  0  0  0  0  0  0  0  0  0  0  0
  142.1990   75.1220  219.8170 C   0  0  0  0  0  0  0  0  0  0  0  0
  141.4170   74.3070  220.5940 C   0  0  0  0  0  0  0  0  0  0  0  0
  139.8511   71.4433  220.3075 H   0  0  0  0  0  0  0  0  0  0  0  0
  141.2350   71.1786  221.4482 H   0  0  0  0  0  0  0  0  0  0  0  0
  137.0662   72.6967  222.3657 H   0  0  0  0  0  0  0  0  0  0  0  0
  135.6571   71.1377  223.6820 H   0  0  0  0  0  0  0  0  0  0  0  0
  136.6624   69.2668  224.9771 H   0  0  0  0  0  0  0  0  0  0  0  0
  141.5778   70.7872  226.0490 H   0  0  0  0  0  0  0  0  0  0  0  0
  139.8170   71.1532  225.9325 H   0  0  0  0  0  0  0  0  0  0  0  0
  140.9199   71.7080  228.1395 H   0  0  0  0  0  0  0  0  0  0  0  0
  139.4573   70.6056  228.1956 H   0  0  0  0  0  0  0  0  0  0  0  0
  141.6699   67.8426  228.8900 H   0  0  0  0  0  0  0  0  0  0  0  0
  139.9109   68.2777  228.6491 H   0  0  0  0  0  0  0  0  0  0  0  0
  142.1037   68.1439  226.5647 H   0  0  0  0  0  0  0  0  0  0  0  0
  140.6147   67.1367  226.7012 H   0  0  0  0  0  0  0  0  0  0  0  0
  140.5154   70.5179  223.6285 H   0  0  0  0  0  0  0  0  0  0  0  0
  140.0780   76.5391  222.7867 H   0  0  0  0  0  0  0  0  0  0  0  0
  142.6480   79.5946  220.1049 H   0  0  0  0  0  0  0  0  0  0  0  0
  141.0639   79.0617  219.4677 H   0  0  0  0  0  0  0  0  0  0  0  0
  140.9978   81.4470  220.1637 H   0  0  0  0  0  0  0  0  0  0  0  0
  139.9172   80.4062  221.2046 H   0  0  0  0  0  0  0  0  0  0  0  0
  143.2916   80.0494  222.1853 H   0  0  0  0  0  0  0  0  0  0  0  0
  142.5152   80.5065  223.7562 H   0  0  0  0  0  0  0  0  0  0  0  0
  142.2082   78.1158  223.3759 H   0  0  0  0  0  0  0  0  0  0  0  0
  140.6380   78.9169  223.2378 H   0  0  0  0  0  0  0  0  0  0  0  0
  142.8322   77.1432  219.5127 H   0  0  0  0  0  0  0  0  0  0  0  0
  142.7927   74.7174  218.9840 H   0  0  0  0  0  0  0  0  0  0  0  0
  1  2  2  0
  2  3  1  0
  3  4  1  0
  4  5  1  0
  5  6  2  0
  6  7  1  0
  7  8  2  0
  8  9  1  0
  9 10  1  0
 10 11  2  0
 10 12  1  0
 12 13  1  0
 13 14  1  0
 14 15  1  0
 15 16  1  0
 16 17  1  0
  9 18  2  0
  4 19  2  0
 19 20  1  0
 20 21  2  0
 21 22  1  0
 22 23  1  0
 23 24  1  0
 24 25  1  0
 25 26  1  0
 26 27  1  0
 27 28  1  0
 22 29  2  0
 29 30  1  0
 30 31  2  0
 31  2  1  0
 18  5  1  0
 31 20  1  0
 17 12  1  0
 28 23  1  0
  3 32  1  0
  3 33  1  0
  6 34  1  0
  7 35  1  0
  8 36  1  0
 13 37  1  0
 13 38  1  0
 14 39  1  0
 14 40  1  0
 16 41  1  0
 16 42  1  0
 17 43  1  0
 17 44  1  0
 18 45  1  0
 21 46  1  0
 24 47  1  0
 24 48  1  0
 25 49  1  0
 25 50  1  0
 27 51  1  0
 27 52  1  0
 28 53  1  0
 28 54  1  0
 29 55  1  0
 30 56  1  0
M  END
>  <smiles>  (7) 
O=C1CC(c2cccc(C(=O)N3CCOCC3)c2)=Nc2cc(N3CCOCC3)ccc21

>  <score_type>  (7) 
oracle

>  <origin>  (7) 
autodockgpu

>  <m_score__min__energy>  (7) 
-9.1199999999999992

>  <m_primary>  (7) 
energy

>  <rmsd>  (7) 
6.303963736432298

>  <m_score__min__rmsd>  (7) 
6.303963736432298

>  <meeko>  (7) 
{"free_energy": -9.05, "intermolecular_energy": -9.95, "internal_energy": -0.83, "cluster_size": 50, "cluster_id": 1, "rank_in_cluster": 33}

>  <energy>  (7) 
-9.09

>  <cluster_rmsd>  (7) 
0.55

>  <cluster>  (7) 
1

$$$$

     RDKit          3D

 56 60  0  0  0  0  0  0  0  0999 V2000
  141.7980   72.9800  219.0550 O   0  0  0  0  0  0  0  0  0  0  0  0
  141.1870   73.3270  220.0900 C   0  0  0  0  0  0  0  0  0  0  0  0
  140.3800   72.3160  220.7950 C   0  0  0  0  0  0  0  0  0  0  0  0
  139.6980   72.8910  221.9940 C   0  0  0  0  0  0  0  0  0  0  0  0
  138.8310   71.9900  222.7580 C   0  0  0  0  0  0  0  0  0  0  0  0
  137.4540   72.0740  222.7440 C   0  0  0  0  0  0  0  0  0  0  0  0
  136.6830   71.1540  223.4590 C   0  0  0  0  0  0  0  0  0  0  0  0
  137.2590   70.1370  224.2020 C   0  0  0  0  0  0  0  0  0  0  0  0
  138.6170   70.0530  224.2200 C   0  0  0  0  0  0  0  0  0  0  0  0
  139.3720   69.0210  224.9470 C   0  0  0  0  0  0  0  0  0  0  0  0
  139.2300   67.7930  224.7320 O   0  0  0  0  0  0  0  0  0  0  0  0
  140.2940   69.4550  225.9330 N   0  0  0  0  0  0  0  0  0  0  0  0
  140.5340   70.8660  226.2320 C   0  0  0  0  0  0  0  0  0  0  0  0
  140.4740   71.1020  227.7230 C   0  0  0  0  0  0  0  0  0  0  0  0
  141.2020   70.2060  228.4640 O   0  0  0  0  0  0  0  0  0  0  0  0
  140.9650   68.8820  228.2180 C   0  0  0  0  0  0  0  0  0  0  0  0
  141.0630   68.5090  226.7540 C   0  0  0  0  0  0  0  0  0  0  0  0
  139.3740   70.9610  223.5120 C   0  0  0  0  0  0  0  0  0  0  0  0
  139.8250   74.1180  222.3590 N   0  0  0  0  0  0  0  0  0  0  0  0
  140.6050   75.0940  221.6980 C   0  0  0  0  0  0  0  0  0  0  0  0
  140.6870   76.4220  222.1190 C   0  0  0  0  0  0  0  0  0  0  0  0
  141.4560   77.3100  221.3790 C   0  0  0  0  0  0  0  0  0  0  0  0
  141.6000   78.6780  221.6910 N   0  0  0  0  0  0  0  0  0  0  0  0
  141.7810   79.7630  220.7860 C   0  0  0  0  0  0  0  0  0  0  0  0
  141.1600   81.0210  221.4070 C   0  0  0  0  0  0  0  0  0  0  0  0
  141.7140   81.3610  222.6220 O   0  0  0  0  0  0  0  0  0  0  0  0
  142.3850   80.3080  223.2430 C   0  0  0  0  0  0  0  0  0  0  0  0
  141.6070   79.0160  223.1320 C   0  0  0  0  0  0  0  0  0  0  0  0
  142.1350   76.8700  220.2340 C   0  0  0  0  0  0  0  0  0  0  0  0
  142.0580   75.5630  219.8150 C   0  0  0  0  0  0  0  0  0  0  0  0
  141.2930   74.7020  220.5590 C   0  0  0  0  0  0  0  0  0  0  0  0
  139.6180   71.9238  220.1053 H   0  0  0  0  0  0  0  0  0  0  0  0
  141.0537   71.5155  221.1347 H   0  0  0  0  0  0  0  0  0  0  0  0
  136.9604   72.8697  222.1667 H   0  0  0  0  0  0  0  0  0  0  0  0
  135.5867   71.2399  223.4310 H   0  0  0  0  0  0  0  0  0  0  0  0
  136.6385   69.4201  224.7597 H   0  0  0  0  0  0  0  0  0  0  0  0
  141.5283   71.1523  225.8587 H   0  0  0  0  0  0  0  0  0  0  0  0
  139.7590   71.4732  225.7415 H   0  0  0  0  0  0  0  0  0  0  0  0
  140.8584   72.1120  227.9281 H   0  0  0  0  0  0  0  0  0  0  0  0
  139.4224   70.9775  228.0206 H   0  0  0  0  0  0  0  0  0  0  0  0
  141.7015   68.2872  228.7782 H   0  0  0  0  0  0  0  0  0  0  0  0
  139.9318   68.6757  228.5343 H   0  0  0  0  0  0  0  0  0  0  0  0
  142.1179   68.5334  226.4433 H   0  0  0  0  0  0  0  0  0  0  0  0
  140.6518   67.4983  226.6144 H   0  0  0  0  0  0  0  0  0  0  0  0
  140.4692   70.8641  223.5469 H   0  0  0  0  0  0  0  0  0  0  0  0
  140.1527   76.7586  223.0197 H   0  0  0  0  0  0  0  0  0  0  0  0
  142.8548   79.9261  220.6117 H   0  0  0  0  0  0  0  0  0  0  0  0
  141.2964   79.5378  219.8245 H   0  0  0  0  0  0  0  0  0  0  0  0
  141.3032   81.8607  220.7110 H   0  0  0  0  0  0  0  0  0  0  0  0
  140.0960   80.8051  221.5838 H   0  0  0  0  0  0  0  0  0  0  0  0
  143.3665   80.1770  222.7640 H   0  0  0  0  0  0  0  0  0  0  0  0
  142.5005   80.5520  224.3094 H   0  0  0  0  0  0  0  0  0  0  0  0
  142.0993   78.2205  223.7106 H   0  0  0  0  0  0  0  0  0  0  0  0
  140.5870   79.1196  223.5307 H   0  0  0  0  0  0  0  0  0  0  0  0
  142.7417   77.5852  219.6592 H   0  0  0  0  0  0  0  0  0  0  0  0
  142.5907   75.2204  218.9156 H   0  0  0  0  0  0  0  0  0  0  0  0
  1  2  2  0
  2  3  1  0
  3  4  1  0
  4  5  1  0
  5  6  2  0
  6  7  1  0
  7  8  2  0
  8  9  1  0
  9 10  1  0
 10 11  2  0
 10 12  1  0
 12 13  1  0
 13 14  1  0
 14 15  1  0
 15 16  1  0
 16 17  1  0
  9 18  2  0
  4 19  2  0
 19 20  1  0
 20 21  2  0
 21 22  1  0
 22 23  1  0
 23 24  1  0
 24 25  1  0
 25 26  1  0
 26 27  1  0
 27 28  1  0
 22 29  2  0
 29 30  1  0
 30 31  2  0
 31  2  1  0
 18  5  1  0
 31 20  1  0
 17 12  1  0
 28 23  1  0
  3 32  1  0
  3 33  1  0
  6 34  1  0
  7 35  1  0
  8 36  1  0
 13 37  1  0
 13 38  1  0
 14 39  1  0
 14 40  1  0
 16 41  1  0
 16 42  1  0
 17 43  1  0
 17 44  1  0
 18 45  1  0
 21 46  1  0
 24 47  1  0
 24 48  1  0
 25 49  1  0
 25 50  1  0
 27 51  1  0
 27 52  1  0
 28 53  1  0
 28 54  1  0
 29 55  1  0
 30 56  1  0
M  END
>  <smiles>  (8) 
O=C1CC(c2cccc(C(=O)N3CCOCC3)c2)=Nc2cc(N3CCOCC3)ccc21

>  <score_type>  (8) 
oracle

>  <origin>  (8) 
autodockgpu

>  <m_score__min__energy>  (8) 
-9.1199999999999992

>  <m_primary>  (8) 
energy

>  <rmsd>  (8) 
6.3505742292550105

>  <m_score__min__rmsd>  (8) 
6.3505742292550105

>  <meeko>  (8) 
{"free_energy": -9.03, "intermolecular_energy": -9.92, "internal_energy": -0.8, "cluster_size": 50, "cluster_id": 1, "rank_in_cluster": 39}

>  <energy>  (8) 
-9.09

>  <cluster_rmsd>  (8) 
0.53

>  <cluster>  (8) 
1

$$$$

     RDKit          3D

 56 60  0  0  0  0  0  0  0  0999 V2000
  137.0900   72.6490  221.0160 O   0  0  0  0  0  0  0  0  0  0  0  0
  138.2360   72.8370  221.4800 C   0  0  0  0  0  0  0  0  0  0  0  0
  139.0970   73.8380  220.8280 C   0  0  0  0  0  0  0  0  0  0  0  0
  140.4370   73.9270  221.4850 C   0  0  0  0  0  0  0  0  0  0  0  0
  141.4000   74.8640  220.9010 C   0  0  0  0  0  0  0  0  0  0  0  0
  142.6350   74.4770  220.4240 C   0  0  0  0  0  0  0  0  0  0  0  0
  143.4900   75.4130  219.8350 C   0  0  0  0  0  0  0  0  0  0  0  0
  143.1390   76.7470  219.7100 C   0  0  0  0  0  0  0  0  0  0  0  0
  141.9230   77.1320  220.1810 C   0  0  0  0  0  0  0  0  0  0  0  0
  141.4030   78.5060  220.1050 C   0  0  0  0  0  0  0  0  0  0  0  0
  141.0480   79.0430  219.0280 O   0  0  0  0  0  0  0  0  0  0  0  0
  141.3110   79.2410  221.3140 N   0  0  0  0  0  0  0  0  0  0  0  0
  141.6850   78.6840  222.6140 C   0  0  0  0  0  0  0  0  0  0  0  0
  142.5860   79.6440  223.3540 C   0  0  0  0  0  0  0  0  0  0  0  0
  142.1350   80.9400  223.3700 O   0  0  0  0  0  0  0  0  0  0  0  0
  141.8120   81.4850  222.1580 C   0  0  0  0  0  0  0  0  0  0  0  0
  140.8550   80.6370  221.3480 C   0  0  0  0  0  0  0  0  0  0  0  0
  141.0820   76.2060  220.7590 C   0  0  0  0  0  0  0  0  0  0  0  0
  140.7730   73.2180  222.5050 N   0  0  0  0  0  0  0  0  0  0  0  0
  139.9520   72.2630  223.1460 C   0  0  0  0  0  0  0  0  0  0  0  0
  140.3740   71.4970  224.2330 C   0  0  0  0  0  0  0  0  0  0  0  0
  139.5000   70.5610  224.7700 C   0  0  0  0  0  0  0  0  0  0  0  0
  139.8180   69.7160  225.8540 N   0  0  0  0  0  0  0  0  0  0  0  0
  139.6490   68.3040  225.9350 C   0  0  0  0  0  0  0  0  0  0  0  0
  140.7350   67.7390  226.8590 C   0  0  0  0  0  0  0  0  0  0  0  0
  140.6950   68.2620  228.1330 O   0  0  0  0  0  0  0  0  0  0  0  0
  140.0040   69.4710  228.2170 C   0  0  0  0  0  0  0  0  0  0  0  0
  140.3490   70.3850  227.0630 C   0  0  0  0  0  0  0  0  0  0  0  0
  138.2190   70.3980  224.2230 C   0  0  0  0  0  0  0  0  0  0  0  0
  137.7980   71.1500  223.1530 C   0  0  0  0  0  0  0  0  0  0  0  0
  138.6760   72.0680  222.6360 C   0  0  0  0  0  0  0  0  0  0  0  0
  139.2350   73.5569  219.7735 H   0  0  0  0  0  0  0  0  0  0  0  0
  138.6073   74.8193  220.9136 H   0  0  0  0  0  0  0  0  0  0  0  0
  142.9488   73.4260  220.5075 H   0  0  0  0  0  0  0  0  0  0  0  0
  144.4693   75.0807  219.4602 H   0  0  0  0  0  0  0  0  0  0  0  0
  143.8225   77.4722  219.2443 H   0  0  0  0  0  0  0  0  0  0  0  0
  140.7764   78.5072  223.2083 H   0  0  0  0  0  0  0  0  0  0  0  0
  142.2219   77.7368  222.4572 H   0  0  0  0  0  0  0  0  0  0  0  0
  142.6785   79.2981  224.3941 H   0  0  0  0  0  0  0  0  0  0  0  0
  143.5476   79.6505  222.8198 H   0  0  0  0  0  0  0  0  0  0  0  0
  141.3460   82.4663  222.3310 H   0  0  0  0  0  0  0  0  0  0  0  0
  142.7446   81.5609  221.5796 H   0  0  0  0  0  0  0  0  0  0  0  0
  139.8556   80.6808  221.8055 H   0  0  0  0  0  0  0  0  0  0  0  0
  140.8171   81.0252  220.3195 H   0  0  0  0  0  0  0  0  0  0  0  0
  140.1047   76.5505  221.1280 H   0  0  0  0  0  0  0  0  0  0  0  0
  141.3801   71.6320  224.6567 H   0  0  0  0  0  0  0  0  0  0  0  0
  138.6549   68.0717  226.3446 H   0  0  0  0  0  0  0  0  0  0  0  0
  139.7330   67.8552  224.9343 H   0  0  0  0  0  0  0  0  0  0  0  0
  140.6041   66.6488  226.9252 H   0  0  0  0  0  0  0  0  0  0  0  0
  141.7072   68.0151  226.4247 H   0  0  0  0  0  0  0  0  0  0  0  0
  138.9231   69.2673  228.2014 H   0  0  0  0  0  0  0  0  0  0  0  0
  140.2936   69.9709  229.1531 H   0  0  0  0  0  0  0  0  0  0  0  0
  139.8752   71.3686  227.1971 H   0  0  0  0  0  0  0  0  0  0  0  0
  141.4329   70.5578  226.9901 H   0  0  0  0  0  0  0  0  0  0  0  0
  137.5375   69.6530  224.6595 H   0  0  0  0  0  0  0  0  0  0  0  0
  136.7925   71.0204  222.7262 H   0  0  0  0  0  0  0  0  0  0  0  0
  1  2  2  0
  2  3  1  0
  3  4  1  0
  4  5  1  0
  5  6  2  0
  6  7  1  0
  7  8  2  0
  8  9  1  0
  9 10  1  0
 10 11  2  0
 10 12  1  0
 12 13  1  0
 13 14  1  0
 14 15  1  0
 15 16  1  0
 16 17  1  0
  9 18  2  0
  4 19  2  0
 19 20  1  0
 20 21  2  0
 21 22  1  0
 22 23  1  0
 23 24  1  0
 24 25  1  0
 25 26  1  0
 26 27  1  0
 27 28  1  0
 22 29  2  0
 29 30  1  0
 30 31  2  0
 31  2  1  0
 18  5  1  0
 31 20  1  0
 17 12  1  0
 28 23  1  0
  3 32  1  0
  3 33  1  0
  6 34  1  0
  7 35  1  0
  8 36  1  0
 13 37  1  0
 13 38  1  0
 14 39  1  0
 14 40  1  0
 16 41  1  0
 16 42  1  0
 17 43  1  0
 17 44  1  0
 18 45  1  0
 21 46  1  0
 24 47  1  0
 24 48  1  0
 25 49  1  0
 25 50  1  0
 27 51  1  0
 27 52  1  0
 28 53  1  0
 28 54  1  0
 29 55  1  0
 30 56  1  0
M  END
>  <smiles>  (9) 
O=C1CC(c2cccc(C(=O)N3CCOCC3)c2)=Nc2cc(N3CCOCC3)ccc21

>  <score_type>  (9) 
oracle

>  <origin>  (9) 
autodockgpu

>  <m_score__min__energy>  (9) 
-9.1199999999999992

>  <m_primary>  (9) 
energy

>  <rmsd>  (9) 
6.9571787876222135

>  <m_score__min__rmsd>  (9) 
6.9571787876222135

>  <meeko>  (9) 
{"free_energy": -8.58, "intermolecular_energy": -9.47, "internal_energy": -0.9, "cluster_size": 50, "cluster_id": 1, "rank_in_cluster": 44}

>  <energy>  (9) 
-9.09

>  <cluster_rmsd>  (9) 
0.56

>  <cluster>  (9) 
1

$$$$

     RDKit          3D

 56 60  0  0  0  0  0  0  0  0999 V2000
  142.2380   72.4060  219.4160 O   0  0  0  0  0  0  0  0  0  0  0  0
  141.5170   72.8460  220.3370 C   0  0  0  0  0  0  0  0  0  0  0  0
  140.6900   71.8890  221.0940 C   0  0  0  0  0  0  0  0  0  0  0  0
  139.8720   72.5730  222.1410 C   0  0  0  0  0  0  0  0  0  0  0  0
  138.9750   71.7290  222.9370 C   0  0  0  0  0  0  0  0  0  0  0  0
  137.6070   71.8970  222.9620 C   0  0  0  0  0  0  0  0  0  0  0  0
  136.8030   71.0280  223.7060 C   0  0  0  0  0  0  0  0  0  0  0  0
  137.3380   69.9810  224.4380 C   0  0  0  0  0  0  0  0  0  0  0  0
  138.6880   69.8150  224.4150 C   0  0  0  0  0  0  0  0  0  0  0  0
  139.4010   68.7420  225.1260 C   0  0  0  0  0  0  0  0  0  0  0  0
  139.2040   67.5250  224.8980 O   0  0  0  0  0  0  0  0  0  0  0  0
  140.3460   69.1230  226.1120 N   0  0  0  0  0  0  0  0  0  0  0  0
  140.6500   70.5190  226.4260 C   0  0  0  0  0  0  0  0  0  0  0  0
  140.6090   70.7400  227.9190 C   0  0  0  0  0  0  0  0  0  0  0  0
  141.3010   69.8030  228.6460 O   0  0  0  0  0  0  0  0  0  0  0  0
  141.0040   68.4940  228.3850 C   0  0  0  0  0  0  0  0  0  0  0  0
  141.0780   68.1350  226.9170 C   0  0  0  0  0  0  0  0  0  0  0  0
  139.4770   70.6720  223.6800 C   0  0  0  0  0  0  0  0  0  0  0  0
  139.9100   73.8420  222.3530 N   0  0  0  0  0  0  0  0  0  0  0  0
  140.7070   74.7670  221.6420 C   0  0  0  0  0  0  0  0  0  0  0  0
  140.6910   76.1400  221.8910 C   0  0  0  0  0  0  0  0  0  0  0  0
  141.4890   76.9690  221.1130 C   0  0  0  0  0  0  0  0  0  0  0  0
  141.5430   78.3720  221.2550 N   0  0  0  0  0  0  0  0  0  0  0  0
  141.5690   79.3510  220.2210 C   0  0  0  0  0  0  0  0  0  0  0  0
  140.8940   80.6250  220.7440 C   0  0  0  0  0  0  0  0  0  0  0  0
  141.5050   81.1480  221.8620 O   0  0  0  0  0  0  0  0  0  0  0  0
  142.3040   80.2280  222.5420 C   0  0  0  0  0  0  0  0  0  0  0  0
  141.6280   78.8790  222.6430 C   0  0  0  0  0  0  0  0  0  0  0  0
  142.2930   76.4250  220.1010 C   0  0  0  0  0  0  0  0  0  0  0  0
  142.3130   75.0740  219.8520 C   0  0  0  0  0  0  0  0  0  0  0  0
  141.5170   74.2730  220.6300 C   0  0  0  0  0  0  0  0  0  0  0  0
  140.0154   71.3711  220.3964 H   0  0  0  0  0  0  0  0  0  0  0  0
  141.3618   71.1764  221.5949 H   0  0  0  0  0  0  0  0  0  0  0  0
  137.1458   72.7184  222.3941 H   0  0  0  0  0  0  0  0  0  0  0  0
  135.7136   71.1804  223.7100 H   0  0  0  0  0  0  0  0  0  0  0  0
  136.6925   69.3058  225.0189 H   0  0  0  0  0  0  0  0  0  0  0  0
  141.6539   70.7654  226.0499 H   0  0  0  0  0  0  0  0  0  0  0  0
  139.8997   71.1655  225.9474 H   0  0  0  0  0  0  0  0  0  0  0  0
  141.0393   71.7294  228.1332 H   0  0  0  0  0  0  0  0  0  0  0  0
  139.5545   70.6592  228.2216 H   0  0  0  0  0  0  0  0  0  0  0  0
  141.7160   67.8602  228.9339 H   0  0  0  0  0  0  0  0  0  0  0  0
  139.9641   68.3303  228.7041 H   0  0  0  0  0  0  0  0  0  0  0  0
  142.1313   68.1179  226.6004 H   0  0  0  0  0  0  0  0  0  0  0  0
  140.6231   67.1446  226.7678 H   0  0  0  0  0  0  0  0  0  0  0  0
  140.5648   70.5087  223.6828 H   0  0  0  0  0  0  0  0  0  0  0  0
  140.0585   76.5578  222.6882 H   0  0  0  0  0  0  0  0  0  0  0  0
  142.6104   79.5698  219.9425 H   0  0  0  0  0  0  0  0  0  0  0  0
  141.0366   78.9780  219.3337 H   0  0  0  0  0  0  0  0  0  0  0  0
  140.9160   81.3834  219.9476 H   0  0  0  0  0  0  0  0  0  0  0  0
  139.8674   80.3540  221.0317 H   0  0  0  0  0  0  0  0  0  0  0  0
  143.2553   80.1121  222.0020 H   0  0  0  0  0  0  0  0  0  0  0  0
  142.4770   80.6058  223.5605 H   0  0  0  0  0  0  0  0  0  0  0  0
  142.2247   78.1960  223.2655 H   0  0  0  0  0  0  0  0  0  0  0  0
  140.6351   78.9550  223.1103 H   0  0  0  0  0  0  0  0  0  0  0  0
  142.9207   77.0939  219.4939 H   0  0  0  0  0  0  0  0  0  0  0  0
  142.9446   74.6502  219.0574 H   0  0  0  0  0  0  0  0  0  0  0  0
  1  2  2  0
  2  3  1  0
  3  4  1  0
  4  5  1  0
  5  6  2  0
  6  7  1  0
  7  8  2  0
  8  9  1  0
  9 10  1  0
 10 11  2  0
 10 12  1  0
 12 13  1  0
 13 14  1  0
 14 15  1  0
 15 16  1  0
 16 17  1  0
  9 18  2  0
  4 19  2  0
 19 20  1  0
 20 21  2  0
 21 22  1  0
 22 23  1  0
 23 24  1  0
 24 25  1  0
 25 26  1  0
 26 27  1  0
 27 28  1  0
 22 29  2  0
 29 30  1  0
 30 31  2  0
 31  2  1  0
 18  5  1  0
 31 20  1  0
 17 12  1  0
 28 23  1  0
  3 32  1  0
  3 33  1  0
  6 34  1  0
  7 35  1  0
  8 36  1  0
 13 37  1  0
 13 38  1  0
 14 39  1  0
 14 40  1  0
 16 41  1  0
 16 42  1  0
 17 43  1  0
 17 44  1  0
 18 45  1  0
 21 46  1  0
 24 47  1  0
 24 48  1  0
 25 49  1  0
 25 50  1  0
 27 51  1  0
 27 52  1  0
 28 53  1  0
 28 54  1  0
 29 55  1  0
 30 56  1  0
M  END
>  <smiles>  (10) 
O=C1CC(c2cccc(C(=O)N3CCOCC3)c2)=Nc2cc(N3CCOCC3)ccc21

>  <score_type>  (10) 
oracle

>  <origin>  (10) 
autodockgpu

>  <m_score__min__energy>  (10) 
-9.1199999999999992

>  <m_primary>  (10) 
energy

>  <rmsd>  (10) 
6.291076718729889

>  <m_score__min__rmsd>  (10) 
6.291076718729889

>  <meeko>  (10) 
{"free_energy": -9.08, "intermolecular_energy": -9.98, "internal_energy": -0.82, "cluster_size": 50, "cluster_id": 1, "rank_in_cluster": 16}

>  <energy>  (10) 
-9.08

>  <cluster_rmsd>  (10) 
0.25

>  <cluster>  (10) 
1

$$$$

     RDKit          3D

 56 60  0  0  0  0  0  0  0  0999 V2000
  138.8860   70.7720  219.8820 O   0  0  0  0  0  0  0  0  0  0  0  0
  139.4430   71.5440  220.6930 C   0  0  0  0  0  0  0  0  0  0  0  0
  139.9320   72.8420  220.1970 C   0  0  0  0  0  0  0  0  0  0  0  0
  140.5890   73.6350  221.2810 C   0  0  0  0  0  0  0  0  0  0  0  0
  141.1540   74.9330  220.9010 C   0  0  0  0  0  0  0  0  0  0  0  0
  142.2450   75.0670  220.0680 C   0  0  0  0  0  0  0  0  0  0  0  0
  142.7060   76.3370  219.7070 C   0  0  0  0  0  0  0  0  0  0  0  0
  142.0980   77.4940  220.1650 C   0  0  0  0  0  0  0  0  0  0  0  0
  141.0230   77.3640  220.9890 C   0  0  0  0  0  0  0  0  0  0  0  0
  140.2640   78.4960  221.5410 C   0  0  0  0  0  0  0  0  0  0  0  0
  139.1120   78.8020  221.1490 O   0  0  0  0  0  0  0  0  0  0  0  0
  140.8810   79.2660  222.5590 N   0  0  0  0  0  0  0  0  0  0  0  0
  142.2120   78.9670  223.0870 C   0  0  0  0  0  0  0  0  0  0  0  0
  143.0560   80.2190  223.1190 C   0  0  0  0  0  0  0  0  0  0  0  0
  142.4280   81.3060  223.6730 O   0  0  0  0  0  0  0  0  0  0  0  0
  141.1960   81.6180  223.1670 C   0  0  0  0  0  0  0  0  0  0  0  0
  140.2350   80.4490  223.1460 C   0  0  0  0  0  0  0  0  0  0  0  0
  140.5700   76.1110  221.3410 C   0  0  0  0  0  0  0  0  0  0  0  0
  140.6910   73.2250  222.4960 N   0  0  0  0  0  0  0  0  0  0  0  0
  140.2160   71.9870  222.9850 C   0  0  0  0  0  0  0  0  0  0  0  0
  140.3770   71.5750  224.3090 C   0  0  0  0  0  0  0  0  0  0  0  0
  139.9010   70.3250  224.6810 C   0  0  0  0  0  0  0  0  0  0  0  0
  140.0230   69.7900  225.9810 N   0  0  0  0  0  0  0  0  0  0  0  0
  139.7430   68.4590  226.4040 C   0  0  0  0  0  0  0  0  0  0  0  0
  140.6650   68.1220  227.5830 C   0  0  0  0  0  0  0  0  0  0  0  0
  140.5090   68.9690  228.6580 O   0  0  0  0  0  0  0  0  0  0  0  0
  139.9020   70.1810  228.3290 C   0  0  0  0  0  0  0  0  0  0  0  0
  140.4500   70.7380  227.0340 C   0  0  0  0  0  0  0  0  0  0  0  0
  139.2710   69.5010  223.7380 C   0  0  0  0  0  0  0  0  0  0  0  0
  139.1090   69.9020  222.4340 C   0  0  0  0  0  0  0  0  0  0  0  0
  139.5860   71.1400  222.0850 C   0  0  0  0  0  0  0  0  0  0  0  0
  140.6612   72.6648  219.3927 H   0  0  0  0  0  0  0  0  0  0  0  0
  139.0693   73.4153  219.8268 H   0  0  0  0  0  0  0  0  0  0  0  0
  142.7550   74.1705  219.6857 H   0  0  0  0  0  0  0  0  0  0  0  0
  143.5768   76.4194  219.0399 H   0  0  0  0  0  0  0  0  0  0  0  0
  142.4721   78.4861  219.8721 H   0  0  0  0  0  0  0  0  0  0  0  0
  142.1164   78.5675  224.1074 H   0  0  0  0  0  0  0  0  0  0  0  0
  142.6970   78.2248  222.4360 H   0  0  0  0  0  0  0  0  0  0  0  0
  143.9630   80.0089  223.7048 H   0  0  0  0  0  0  0  0  0  0  0  0
  143.2754   80.4795  222.0730 H   0  0  0  0  0  0  0  0  0  0  0  0
  140.7587   82.4164  223.7844 H   0  0  0  0  0  0  0  0  0  0  0  0
  141.3461   81.9305  222.1231 H   0  0  0  0  0  0  0  0  0  0  0  0
  139.9222   80.2182  224.1750 H   0  0  0  0  0  0  0  0  0  0  0  0
  139.3595   80.7173  222.5364 H   0  0  0  0  0  0  0  0  0  0  0  0
  139.6976   76.0417  222.0074 H   0  0  0  0  0  0  0  0  0  0  0  0
  140.8714   72.2280  225.0433 H   0  0  0  0  0  0  0  0  0  0  0  0
  138.6922   68.3830  226.7205 H   0  0  0  0  0  0  0  0  0  0  0  0
  139.9149   67.7551  225.5763 H   0  0  0  0  0  0  0  0  0  0  0  0
  140.4478   67.0955  227.9133 H   0  0  0  0  0  0  0  0  0  0  0  0
  141.7002   68.2340  227.2284 H   0  0  0  0  0  0  0  0  0  0  0  0
  138.8191   70.0212  228.2202 H   0  0  0  0  0  0  0  0  0  0  0  0
  140.1108   70.9026  229.1325 H   0  0  0  0  0  0  0  0  0  0  0  0
  140.0360   71.7386  226.8407 H   0  0  0  0  0  0  0  0  0  0  0  0
  141.5444   70.8437  227.0671 H   0  0  0  0  0  0  0  0  0  0  0  0
  138.8989   68.5135  224.0484 H   0  0  0  0  0  0  0  0  0  0  0  0
  138.6144   69.2534  221.6960 H   0  0  0  0  0  0  0  0  0  0  0  0
  1  2  2  0
  2  3  1  0
  3  4  1  0
  4  5  1  0
  5  6  2  0
  6  7  1  0
  7  8  2  0
  8  9  1  0
  9 10  1  0
 10 11  2  0
 10 12  1  0
 12 13  1  0
 13 14  1  0
 14 15  1  0
 15 16  1  0
 16 17  1  0
  9 18  2  0
  4 19  2  0
 19 20  1  0
 20 21  2  0
 21 22  1  0
 22 23  1  0
 23 24  1  0
 24 25  1  0
 25 26  1  0
 26 27  1  0
 27 28  1  0
 22 29  2  0
 29 30  1  0
 30 31  2  0
 31  2  1  0
 18  5  1  0
 31 20  1  0
 17 12  1  0
 28 23  1  0
  3 32  1  0
  3 33  1  0
  6 34  1  0
  7 35  1  0
  8 36  1  0
 13 37  1  0
 13 38  1  0
 14 39  1  0
 14 40  1  0
 16 41  1  0
 16 42  1  0
 17 43  1  0
 17 44  1  0
 18 45  1  0
 21 46  1  0
 24 47  1  0
 24 48  1  0
 25 49  1  0
 25 50  1  0
 27 51  1  0
 27 52  1  0
 28 53  1  0
 28 54  1  0
 29 55  1  0
 30 56  1  0
M  END
>  <smiles>  (11) 
O=C1CC(c2cccc(C(=O)N3CCOCC3)c2)=Nc2cc(N3CCOCC3)ccc21

>  <score_type>  (11) 
oracle

>  <origin>  (11) 
autodockgpu

>  <m_score__min__energy>  (11) 
-9.1199999999999992

>  <m_primary>  (11) 
energy

>  <rmsd>  (11) 
6.9377948276542485

>  <m_score__min__rmsd>  (11) 
6.9377948276542485

>  <meeko>  (11) 
{"free_energy": -8.53, "intermolecular_energy": -9.42, "internal_energy": -0.9, "cluster_size": 50, "cluster_id": 1, "rank_in_cluster": 50}

>  <energy>  (11) 
-9.08

>  <cluster_rmsd>  (11) 
0.49

>  <cluster>  (11) 
1

$$$$

     RDKit          3D

 56 60  0  0  0  0  0  0  0  0999 V2000
  142.2740   72.4280  219.4380 O   0  0  0  0  0  0  0  0  0  0  0  0
  141.5380   72.8660  220.3490 C   0  0  0  0  0  0  0  0  0  0  0  0
  140.7140   71.9040  221.1030 C   0  0  0  0  0  0  0  0  0  0  0  0
  139.8790   72.5860  222.1380 C   0  0  0  0  0  0  0  0  0  0  0  0
  138.9840   71.7370  222.9300 C   0  0  0  0  0  0  0  0  0  0  0  0
  137.6140   71.8980  222.9510 C   0  0  0  0  0  0  0  0  0  0  0  0
  136.8110   71.0250  223.6900 C   0  0  0  0  0  0  0  0  0  0  0  0
  137.3500   69.9790  224.4230 C   0  0  0  0  0  0  0  0  0  0  0  0
  138.7000   69.8200  224.4050 C   0  0  0  0  0  0  0  0  0  0  0  0
  139.4150   68.7490  225.1170 C   0  0  0  0  0  0  0  0  0  0  0  0
  139.2250   67.5310  224.8880 O   0  0  0  0  0  0  0  0  0  0  0  0
  140.3560   69.1340  226.1060 N   0  0  0  0  0  0  0  0  0  0  0  0
  140.6530   70.5310  226.4220 C   0  0  0  0  0  0  0  0  0  0  0  0
  140.6060   70.7500  227.9160 C   0  0  0  0  0  0  0  0  0  0  0  0
  141.3000   69.8170  228.6430 O   0  0  0  0  0  0  0  0  0  0  0  0
  141.0100   68.5060  228.3810 C   0  0  0  0  0  0  0  0  0  0  0  0
  141.0900   68.1480  226.9130 C   0  0  0  0  0  0  0  0  0  0  0  0
  139.4880   70.6820  223.6740 C   0  0  0  0  0  0  0  0  0  0  0  0
  139.9020   73.8560  222.3430 N   0  0  0  0  0  0  0  0  0  0  0  0
  140.6960   74.7860  221.6340 C   0  0  0  0  0  0  0  0  0  0  0  0
  140.6620   76.1600  221.8750 C   0  0  0  0  0  0  0  0  0  0  0  0
  141.4590   76.9920  221.1000 C   0  0  0  0  0  0  0  0  0  0  0  0
  141.4970   78.3960  221.2340 N   0  0  0  0  0  0  0  0  0  0  0  0
  141.4870   79.3710  220.1960 C   0  0  0  0  0  0  0  0  0  0  0  0
  140.8060   80.6380  220.7270 C   0  0  0  0  0  0  0  0  0  0  0  0
  141.4330   81.1750  221.8290 O   0  0  0  0  0  0  0  0  0  0  0  0
  142.2590   80.2690  222.4960 C   0  0  0  0  0  0  0  0  0  0  0  0
  141.6040   78.9120  222.6180 C   0  0  0  0  0  0  0  0  0  0  0  0
  142.2780   76.4520  220.0990 C   0  0  0  0  0  0  0  0  0  0  0  0
  142.3150   75.1000  219.8580 C   0  0  0  0  0  0  0  0  0  0  0  0
  141.5210   74.2940  220.6330 C   0  0  0  0  0  0  0  0  0  0  0  0
  140.0516   71.3751  220.4019 H   0  0  0  0  0  0  0  0  0  0  0  0
  141.3880   71.2007  221.6140 H   0  0  0  0  0  0  0  0  0  0  0  0
  137.1510   72.7183  222.3828 H   0  0  0  0  0  0  0  0  0  0  0  0
  135.7209   71.1719  223.6901 H   0  0  0  0  0  0  0  0  0  0  0  0
  136.7060   69.2995  225.0006 H   0  0  0  0  0  0  0  0  0  0  0  0
  141.6571   70.7821  226.0495 H   0  0  0  0  0  0  0  0  0  0  0  0
  139.9018   71.1750  225.9413 H   0  0  0  0  0  0  0  0  0  0  0  0
  141.0302   71.7415  228.1328 H   0  0  0  0  0  0  0  0  0  0  0  0
  139.5511   70.6630  228.2152 H   0  0  0  0  0  0  0  0  0  0  0  0
  141.7235   67.8755  228.9318 H   0  0  0  0  0  0  0  0  0  0  0  0
  139.9701   68.3369  228.6974 H   0  0  0  0  0  0  0  0  0  0  0  0
  142.1443   68.1354  226.5996 H   0  0  0  0  0  0  0  0  0  0  0  0
  140.6397   67.1558  226.7618 H   0  0  0  0  0  0  0  0  0  0  0  0
  140.5766   70.5242  223.6813 H   0  0  0  0  0  0  0  0  0  0  0  0
  140.0168   76.5757  222.6630 H   0  0  0  0  0  0  0  0  0  0  0  0
  142.5191   79.6028  219.8944 H   0  0  0  0  0  0  0  0  0  0  0  0
  140.9403   78.9866  219.3223 H   0  0  0  0  0  0  0  0  0  0  0  0
  140.8008   81.3926  219.9266 H   0  0  0  0  0  0  0  0  0  0  0  0
  139.7896   80.3544  221.0378 H   0  0  0  0  0  0  0  0  0  0  0  0
  143.1999   80.1632  221.9361 H   0  0  0  0  0  0  0  0  0  0  0  0
  142.4487   80.6542  223.5087 H   0  0  0  0  0  0  0  0  0  0  0  0
  142.2228   78.2406  223.2314 H   0  0  0  0  0  0  0  0  0  0  0  0
  140.6201   78.9771  223.1055 H   0  0  0  0  0  0  0  0  0  0  0  0
  142.9039   77.1244  219.4940 H   0  0  0  0  0  0  0  0  0  0  0  0
  142.9585   74.6790  219.0715 H   0  0  0  0  0  0  0  0  0  0  0  0
  1  2  2  0
  2  3  1  0
  3  4  1  0
  4  5  1  0
  5  6  2  0
  6  7  1  0
  7  8  2  0
  8  9  1  0
  9 10  1  0
 10 11  2  0
 10 12  1  0
 12 13  1  0
 13 14  1  0
 14 15  1  0
 15 16  1  0
 16 17  1  0
  9 18  2  0
  4 19  2  0
 19 20  1  0
 20 21  2  0
 21 22  1  0
 22 23  1  0
 23 24  1  0
 24 25  1  0
 25 26  1  0
 26 27  1  0
 27 28  1  0
 22 29  2  0
 29 30  1  0
 30 31  2  0
 31  2  1  0
 18  5  1  0
 31 20  1  0
 17 12  1  0
 28 23  1  0
  3 32  1  0
  3 33  1  0
  6 34  1  0
  7 35  1  0
  8 36  1  0
 13 37  1  0
 13 38  1  0
 14 39  1  0
 14 40  1  0
 16 41  1  0
 16 42  1  0
 17 43  1  0
 17 44  1  0
 18 45  1  0
 21 46  1  0
 24 47  1  0
 24 48  1  0
 25 49  1  0
 25 50  1  0
 27 51  1  0
 27 52  1  0
 28 53  1  0
 28 54  1  0
 29 55  1  0
 30 56  1  0
M  END
>  <smiles>  (12) 
O=C1CC(c2cccc(C(=O)N3CCOCC3)c2)=Nc2cc(N3CCOCC3)ccc21

>  <score_type>  (12) 
oracle

>  <origin>  (12) 
autodockgpu

>  <m_score__min__energy>  (12) 
-9.1199999999999992

>  <m_primary>  (12) 
energy

>  <rmsd>  (12) 
6.291567371325395

>  <m_score__min__rmsd>  (12) 
6.291567371325395

>  <meeko>  (12) 
{"free_energy": -9.09, "intermolecular_energy": -9.98, "internal_energy": -0.82, "cluster_size": 50, "cluster_id": 1, "rank_in_cluster": 6}

>  <energy>  (12) 
-9.08

>  <cluster_rmsd>  (12) 
0.08

>  <cluster>  (12) 
1

$$$$

     RDKit          3D

 56 60  0  0  0  0  0  0  0  0999 V2000
  141.9900   72.4850  219.2290 O   0  0  0  0  0  0  0  0  0  0  0  0
  141.3330   72.9010  220.2080 C   0  0  0  0  0  0  0  0  0  0  0  0
  140.5200   71.9330  220.9640 C   0  0  0  0  0  0  0  0  0  0  0  0
  139.7810   72.5890  222.0850 C   0  0  0  0  0  0  0  0  0  0  0  0
  138.9040   71.7340  222.8900 C   0  0  0  0  0  0  0  0  0  0  0  0
  137.5320   71.8760  222.9200 C   0  0  0  0  0  0  0  0  0  0  0  0
  136.7470   70.9970  223.6730 C   0  0  0  0  0  0  0  0  0  0  0  0
  137.3060   69.9640  224.4090 C   0  0  0  0  0  0  0  0  0  0  0  0
  138.6580   69.8240  224.3820 C   0  0  0  0  0  0  0  0  0  0  0  0
  139.3930   68.7690  225.0960 C   0  0  0  0  0  0  0  0  0  0  0  0
  139.2310   67.5470  224.8640 O   0  0  0  0  0  0  0  0  0  0  0  0
  140.3210   69.1730  226.0900 N   0  0  0  0  0  0  0  0  0  0  0  0
  140.5850   70.5750  226.4090 C   0  0  0  0  0  0  0  0  0  0  0  0
  140.5260   70.7920  227.9020 C   0  0  0  0  0  0  0  0  0  0  0  0
  141.2370   69.8730  228.6320 O   0  0  0  0  0  0  0  0  0  0  0  0
  140.9780   68.5560  228.3670 C   0  0  0  0  0  0  0  0  0  0  0  0
  141.0720   68.2030  226.8990 C   0  0  0  0  0  0  0  0  0  0  0  0
  139.4280   70.6910  223.6380 C   0  0  0  0  0  0  0  0  0  0  0  0
  139.8690   73.8440  222.3520 N   0  0  0  0  0  0  0  0  0  0  0  0
  140.6540   74.7800  221.6410 C   0  0  0  0  0  0  0  0  0  0  0  0
  140.6930   76.1400  221.9530 C   0  0  0  0  0  0  0  0  0  0  0  0
  141.4720   76.9820  221.1710 C   0  0  0  0  0  0  0  0  0  0  0  0
  141.5760   78.3740  221.3740 N   0  0  0  0  0  0  0  0  0  0  0  0
  141.6940   79.3910  220.3840 C   0  0  0  0  0  0  0  0  0  0  0  0
  141.0460   80.6720  220.9260 C   0  0  0  0  0  0  0  0  0  0  0  0
  141.6210   81.1230  222.0930 O   0  0  0  0  0  0  0  0  0  0  0  0
  142.3460   80.1440  222.7730 C   0  0  0  0  0  0  0  0  0  0  0  0
  141.6110   78.8220  222.7840 C   0  0  0  0  0  0  0  0  0  0  0  0
  142.2030   76.4650  220.0920 C   0  0  0  0  0  0  0  0  0  0  0  0
  142.1690   75.1270  219.7810 C   0  0  0  0  0  0  0  0  0  0  0  0
  141.3930   74.3120  220.5650 C   0  0  0  0  0  0  0  0  0  0  0  0
  139.7932   71.4679  220.2817 H   0  0  0  0  0  0  0  0  0  0  0  0
  141.1958   71.1787  221.3934 H   0  0  0  0  0  0  0  0  0  0  0  0
  137.0530   72.6848  222.3487 H   0  0  0  0  0  0  0  0  0  0  0  0
  135.6550   71.1292  223.6814 H   0  0  0  0  0  0  0  0  0  0  0  0
  136.6760   69.2795  224.9960 H   0  0  0  0  0  0  0  0  0  0  0  0
  141.5850   70.8488  226.0416 H   0  0  0  0  0  0  0  0  0  0  0  0
  139.8216   71.2022  225.9255 H   0  0  0  0  0  0  0  0  0  0  0  0
  140.9276   71.7923  228.1214 H   0  0  0  0  0  0  0  0  0  0  0  0
  139.4717   70.6824  228.1962 H   0  0  0  0  0  0  0  0  0  0  0  0
  141.7036   67.9410  228.9196 H   0  0  0  0  0  0  0  0  0  0  0  0
  139.9412   68.3623  228.6793 H   0  0  0  0  0  0  0  0  0  0  0  0
  142.1278   68.2139  226.5904 H   0  0  0  0  0  0  0  0  0  0  0  0
  140.6435   67.2017  226.7445 H   0  0  0  0  0  0  0  0  0  0  0  0
  140.5186   70.5478  223.6375 H   0  0  0  0  0  0  0  0  0  0  0  0
  140.1175   76.5370  222.8022 H   0  0  0  0  0  0  0  0  0  0  0  0
  142.7562   79.5756  220.1658 H   0  0  0  0  0  0  0  0  0  0  0  0
  141.1919   79.0764  219.4572 H   0  0  0  0  0  0  0  0  0  0  0  0
  141.1395   81.4597  220.1639 H   0  0  0  0  0  0  0  0  0  0  0  0
  139.9958   80.4349  221.1514 H   0  0  0  0  0  0  0  0  0  0  0  0
  143.3183   80.0090  222.2766 H   0  0  0  0  0  0  0  0  0  0  0  0
  142.4819   80.4736  223.8136 H   0  0  0  0  0  0  0  0  0  0  0  0
  142.1468   78.0900  223.4062 H   0  0  0  0  0  0  0  0  0  0  0  0
  140.5994   78.9224  223.2043 H   0  0  0  0  0  0  0  0  0  0  0  0
  142.8163   77.1445  219.4819 H   0  0  0  0  0  0  0  0  0  0  0  0
  142.7434   74.7241  218.9338 H   0  0  0  0  0  0  0  0  0  0  0  0
  1  2  2  0
  2  3  1  0
  3  4  1  0
  4  5  1  0
  5  6  2  0
  6  7  1  0
  7  8  2  0
  8  9  1  0
  9 10  1  0
 10 11  2  0
 10 12  1  0
 12 13  1  0
 13 14  1  0
 14 15  1  0
 15 16  1  0
 16 17  1  0
  9 18  2  0
  4 19  2  0
 19 20  1  0
 20 21  2  0
 21 22  1  0
 22 23  1  0
 23 24  1  0
 24 25  1  0
 25 26  1  0
 26 27  1  0
 27 28  1  0
 22 29  2  0
 29 30  1  0
 30 31  2  0
 31  2  1  0
 18  5  1  0
 31 20  1  0
 17 12  1  0
 28 23  1  0
  3 32  1  0
  3 33  1  0
  6 34  1  0
  7 35  1  0
  8 36  1  0
 13 37  1  0
 13 38  1  0
 14 39  1  0
 14 40  1  0
 16 41  1  0
 16 42  1  0
 17 43  1  0
 17 44  1  0
 18 45  1  0
 21 46  1  0
 24 47  1  0
 24 48  1  0
 25 49  1  0
 25 50  1  0
 27 51  1  0
 27 52  1  0
 28 53  1  0
 28 54  1  0
 29 55  1  0
 30 56  1  0
M  END
>  <smiles>  (13) 
O=C1CC(c2cccc(C(=O)N3CCOCC3)c2)=Nc2cc(N3CCOCC3)ccc21

>  <score_type>  (13) 
oracle

>  <origin>  (13) 
autodockgpu

>  <m_score__min__energy>  (13) 
-9.1199999999999992

>  <m_primary>  (13) 
energy

>  <rmsd>  (13) 
6.312100047408828

>  <m_score__min__rmsd>  (13) 
6.312100047408828

>  <meeko>  (13) 
{"free_energy": -9.04, "intermolecular_energy": -9.94, "internal_energy": -0.83, "cluster_size": 50, "cluster_id": 1, "rank_in_cluster": 37}

>  <energy>  (13) 
-9.08

>  <cluster_rmsd>  (13) 
0.59

>  <cluster>  (13) 
1

$$$$

     RDKit          3D

 56 60  0  0  0  0  0  0  0  0999 V2000
  142.2390   72.4270  219.4060 O   0  0  0  0  0  0  0  0  0  0  0  0
  141.5180   72.8600  220.3310 C   0  0  0  0  0  0  0  0  0  0  0  0
  140.6950   71.8970  221.0830 C   0  0  0  0  0  0  0  0  0  0  0  0
  139.8760   72.5730  222.1360 C   0  0  0  0  0  0  0  0  0  0  0  0
  138.9840   71.7230  222.9280 C   0  0  0  0  0  0  0  0  0  0  0  0
  137.6140   71.8860  222.9560 C   0  0  0  0  0  0  0  0  0  0  0  0
  136.8140   71.0110  223.6960 C   0  0  0  0  0  0  0  0  0  0  0  0
  137.3540   69.9620  224.4220 C   0  0  0  0  0  0  0  0  0  0  0  0
  138.7040   69.8000  224.3980 C   0  0  0  0  0  0  0  0  0  0  0  0
  139.4210   68.7260  225.1020 C   0  0  0  0  0  0  0  0  0  0  0  0
  139.2360   67.5090  224.8600 O   0  0  0  0  0  0  0  0  0  0  0  0
  140.3560   69.1050  226.0990 N   0  0  0  0  0  0  0  0  0  0  0  0
  140.6450   70.5000  226.4290 C   0  0  0  0  0  0  0  0  0  0  0  0
  140.5910   70.7050  227.9250 C   0  0  0  0  0  0  0  0  0  0  0  0
  141.2860   69.7670  228.6460 O   0  0  0  0  0  0  0  0  0  0  0  0
  141.0030   68.4580  228.3700 C   0  0  0  0  0  0  0  0  0  0  0  0
  141.0900   68.1150  226.8990 C   0  0  0  0  0  0  0  0  0  0  0  0
  139.4890   70.6640  223.6650 C   0  0  0  0  0  0  0  0  0  0  0  0
  139.9120   73.8400  222.3540 N   0  0  0  0  0  0  0  0  0  0  0  0
  140.7050   74.7720  221.6460 C   0  0  0  0  0  0  0  0  0  0  0  0
  140.6850   76.1440  221.9030 C   0  0  0  0  0  0  0  0  0  0  0  0
  141.4790   76.9780  221.1280 C   0  0  0  0  0  0  0  0  0  0  0  0
  141.5300   78.3810  221.2770 N   0  0  0  0  0  0  0  0  0  0  0  0
  141.5350   79.3660  220.2490 C   0  0  0  0  0  0  0  0  0  0  0  0
  140.8630   80.6340  220.7890 C   0  0  0  0  0  0  0  0  0  0  0  0
  141.4890   81.1530  221.9010 O   0  0  0  0  0  0  0  0  0  0  0  0
  142.3020   80.2330  222.5630 C   0  0  0  0  0  0  0  0  0  0  0  0
  141.6330   78.8800  222.6670 C   0  0  0  0  0  0  0  0  0  0  0  0
  142.2830   76.4430  220.1120 C   0  0  0  0  0  0  0  0  0  0  0  0
  142.3070   75.0930  219.8560 C   0  0  0  0  0  0  0  0  0  0  0  0
  141.5150   74.2850  220.6310 C   0  0  0  0  0  0  0  0  0  0  0  0
  140.0208   71.3815  220.3833 H   0  0  0  0  0  0  0  0  0  0  0  0
  141.3694   71.1833  221.5787 H   0  0  0  0  0  0  0  0  0  0  0  0
  137.1492   72.7088  222.3930 H   0  0  0  0  0  0  0  0  0  0  0  0
  135.7241   71.1596  223.7021 H   0  0  0  0  0  0  0  0  0  0  0  0
  136.7111   69.2816  224.9996 H   0  0  0  0  0  0  0  0  0  0  0  0
  141.6494   70.7593  226.0629 H   0  0  0  0  0  0  0  0  0  0  0  0
  139.8927   71.1448  225.9513 H   0  0  0  0  0  0  0  0  0  0  0  0
  141.0106   71.6959  228.1529 H   0  0  0  0  0  0  0  0  0  0  0  0
  139.5352   70.6118  228.2193 H   0  0  0  0  0  0  0  0  0  0  0  0
  141.7173   67.8253  228.9171 H   0  0  0  0  0  0  0  0  0  0  0  0
  139.9627   68.2811  228.6808 H   0  0  0  0  0  0  0  0  0  0  0  0
  142.1456   68.1095  226.5897 H   0  0  0  0  0  0  0  0  0  0  0  0
  140.6439   67.1227  226.7365 H   0  0  0  0  0  0  0  0  0  0  0  0
  140.5773   70.5038  223.6652 H   0  0  0  0  0  0  0  0  0  0  0  0
  140.0528   76.5558  222.7035 H   0  0  0  0  0  0  0  0  0  0  0  0
  142.5709   79.5910  219.9554 H   0  0  0  0  0  0  0  0  0  0  0  0
  140.9897   78.9955  219.3685 H   0  0  0  0  0  0  0  0  0  0  0  0
  140.8702   81.3970  219.9967 H   0  0  0  0  0  0  0  0  0  0  0  0
  139.8418   80.3576  221.0902 H   0  0  0  0  0  0  0  0  0  0  0  0
  143.2452   80.1242  222.0076 H   0  0  0  0  0  0  0  0  0  0  0  0
  142.4893   80.6059  223.5808 H   0  0  0  0  0  0  0  0  0  0  0  0
  142.2417   78.1961  223.2767 H   0  0  0  0  0  0  0  0  0  0  0  0
  140.6470   78.9487  223.1498 H   0  0  0  0  0  0  0  0  0  0  0  0
  142.9073   77.1173  219.5074 H   0  0  0  0  0  0  0  0  0  0  0  0
  142.9388   74.6755  219.0581 H   0  0  0  0  0  0  0  0  0  0  0  0
  1  2  2  0
  2  3  1  0
  3  4  1  0
  4  5  1  0
  5  6  2  0
  6  7  1  0
  7  8  2  0
  8  9  1  0
  9 10  1  0
 10 11  2  0
 10 12  1  0
 12 13  1  0
 13 14  1  0
 14 15  1  0
 15 16  1  0
 16 17  1  0
  9 18  2  0
  4 19  2  0
 19 20  1  0
 20 21  2  0
 21 22  1  0
 22 23  1  0
 23 24  1  0
 24 25  1  0
 25 26  1  0
 26 27  1  0
 27 28  1  0
 22 29  2  0
 29 30  1  0
 30 31  2  0
 31  2  1  0
 18  5  1  0
 31 20  1  0
 17 12  1  0
 28 23  1  0
  3 32  1  0
  3 33  1  0
  6 34  1  0
  7 35  1  0
  8 36  1  0
 13 37  1  0
 13 38  1  0
 14 39  1  0
 14 40  1  0
 16 41  1  0
 16 42  1  0
 17 43  1  0
 17 44  1  0
 18 45  1  0
 21 46  1  0
 24 47  1  0
 24 48  1  0
 25 49  1  0
 25 50  1  0
 27 51  1  0
 27 52  1  0
 28 53  1  0
 28 54  1  0
 29 55  1  0
 30 56  1  0
M  END
>  <smiles>  (14) 
O=C1CC(c2cccc(C(=O)N3CCOCC3)c2)=Nc2cc(N3CCOCC3)ccc21

>  <score_type>  (14) 
oracle

>  <origin>  (14) 
autodockgpu

>  <m_score__min__energy>  (14) 
-9.1199999999999992

>  <m_primary>  (14) 
energy

>  <rmsd>  (14) 
6.297069348783537

>  <m_score__min__rmsd>  (14) 
6.297069348783537

>  <meeko>  (14) 
{"free_energy": -9.06, "intermolecular_energy": -9.96, "internal_energy": -0.83, "cluster_size": 50, "cluster_id": 1, "rank_in_cluster": 23}

>  <energy>  (14) 
-9.08

>  <cluster_rmsd>  (14) 
0.09

>  <cluster>  (14) 
1

$$$$

     RDKit          3D

 56 60  0  0  0  0  0  0  0  0999 V2000
  138.6260   70.8880  219.9920 O   0  0  0  0  0  0  0  0  0  0  0  0
  139.2650   71.6180  220.7800 C   0  0  0  0  0  0  0  0  0  0  0  0
  139.7810   72.9040  220.2770 C   0  0  0  0  0  0  0  0  0  0  0  0
  140.5380   73.6460  221.3300 C   0  0  0  0  0  0  0  0  0  0  0  0
  141.1350   74.9250  220.9380 C   0  0  0  0  0  0  0  0  0  0  0  0
  142.2490   75.0220  220.1300 C   0  0  0  0  0  0  0  0  0  0  0  0
  142.7420   76.2760  219.7550 C   0  0  0  0  0  0  0  0  0  0  0  0
  142.1430   77.4530  220.1730 C   0  0  0  0  0  0  0  0  0  0  0  0
  141.0460   77.3590  220.9720 C   0  0  0  0  0  0  0  0  0  0  0  0
  140.2940   78.5160  221.4810 C   0  0  0  0  0  0  0  0  0  0  0  0
  139.1620   78.8380  221.0490 O   0  0  0  0  0  0  0  0  0  0  0  0
  140.8960   79.2910  222.5050 N   0  0  0  0  0  0  0  0  0  0  0  0
  142.2030   78.9740  223.0790 C   0  0  0  0  0  0  0  0  0  0  0  0
  143.0720   80.2100  223.1150 C   0  0  0  0  0  0  0  0  0  0  0  0
  142.4500   81.3190  223.6310 O   0  0  0  0  0  0  0  0  0  0  0  0
  141.2400   81.6470  223.0820 C   0  0  0  0  0  0  0  0  0  0  0  0
  140.2560   80.4970  223.0510 C   0  0  0  0  0  0  0  0  0  0  0  0
  140.5620   76.1230  221.3380 C   0  0  0  0  0  0  0  0  0  0  0  0
  140.6970   73.2070  222.5290 N   0  0  0  0  0  0  0  0  0  0  0  0
  140.1990   71.9810  223.0260 C   0  0  0  0  0  0  0  0  0  0  0  0
  140.4230   71.5370  224.3290 C   0  0  0  0  0  0  0  0  0  0  0  0
  139.9170   70.3010  224.7090 C   0  0  0  0  0  0  0  0  0  0  0  0
  140.0950   69.7350  225.9900 N   0  0  0  0  0  0  0  0  0  0  0  0
  139.9590   68.3680  226.3630 C   0  0  0  0  0  0  0  0  0  0  0  0
  140.9120   68.0880  227.5330 C   0  0  0  0  0  0  0  0  0  0  0  0
  140.6670   68.8740  228.6370 O   0  0  0  0  0  0  0  0  0  0  0  0
  139.9340   70.0260  228.3500 C   0  0  0  0  0  0  0  0  0  0  0  0
  140.4190   70.6850  227.0780 C   0  0  0  0  0  0  0  0  0  0  0  0
  139.1930   69.5240  223.7930 C   0  0  0  0  0  0  0  0  0  0  0  0
  138.9680   69.9580  222.5090 C   0  0  0  0  0  0  0  0  0  0  0  0
  139.4770   71.1810  222.1530 C   0  0  0  0  0  0  0  0  0  0  0  0
  140.4506   72.7110  219.4259 H   0  0  0  0  0  0  0  0  0  0  0  0
  138.9234   73.5217  219.9719 H   0  0  0  0  0  0  0  0  0  0  0  0
  142.7519   74.1088  219.7790 H   0  0  0  0  0  0  0  0  0  0  0  0
  143.6311   76.3291  219.1095 H   0  0  0  0  0  0  0  0  0  0  0  0
  142.5415   78.4321  219.8687 H   0  0  0  0  0  0  0  0  0  0  0  0
  142.0678   78.5952  224.1028 H   0  0  0  0  0  0  0  0  0  0  0  0
  142.6920   78.2099  222.4568 H   0  0  0  0  0  0  0  0  0  0  0  0
  143.9566   79.9922  223.7315 H   0  0  0  0  0  0  0  0  0  0  0  0
  143.3282   80.4473  222.0719 H   0  0  0  0  0  0  0  0  0  0  0  0
  140.8006   82.4646  223.6723 H   0  0  0  0  0  0  0  0  0  0  0  0
  141.4281   81.9384  222.0381 H   0  0  0  0  0  0  0  0  0  0  0  0
  139.9067   80.2909  224.0735 H   0  0  0  0  0  0  0  0  0  0  0  0
  139.4054   80.7716  222.4098 H   0  0  0  0  0  0  0  0  0  0  0  0
  139.6719   76.0836  221.9831 H   0  0  0  0  0  0  0  0  0  0  0  0
  140.9896   72.1540  225.0419 H   0  0  0  0  0  0  0  0  0  0  0  0
  138.9224   68.1687  226.6723 H   0  0  0  0  0  0  0  0  0  0  0  0
  140.2053   67.7174  225.5109 H   0  0  0  0  0  0  0  0  0  0  0  0
  140.8050   67.0329  227.8253 H   0  0  0  0  0  0  0  0  0  0  0  0
  141.9295   68.3219  227.1867 H   0  0  0  0  0  0  0  0  0  0  0  0
  138.8743   69.7559  228.2317 H   0  0  0  0  0  0  0  0  0  0  0  0
  140.0651   70.7360  229.1799 H   0  0  0  0  0  0  0  0  0  0  0  0
  139.9005   71.6421  226.9194 H   0  0  0  0  0  0  0  0  0  0  0  0
  141.4958   70.9059  227.1187 H   0  0  0  0  0  0  0  0  0  0  0  0
  138.7973   68.5475  224.1089 H   0  0  0  0  0  0  0  0  0  0  0  0
  138.4001   69.3467  221.7922 H   0  0  0  0  0  0  0  0  0  0  0  0
  1  2  2  0
  2  3  1  0
  3  4  1  0
  4  5  1  0
  5  6  2  0
  6  7  1  0
  7  8  2  0
  8  9  1  0
  9 10  1  0
 10 11  2  0
 10 12  1  0
 12 13  1  0
 13 14  1  0
 14 15  1  0
 15 16  1  0
 16 17  1  0
  9 18  2  0
  4 19  2  0
 19 20  1  0
 20 21  2  0
 21 22  1  0
 22 23  1  0
 23 24  1  0
 24 25  1  0
 25 26  1  0
 26 27  1  0
 27 28  1  0
 22 29  2  0
 29 30  1  0
 30 31  2  0
 31  2  1  0
 18  5  1  0
 31 20  1  0
 17 12  1  0
 28 23  1  0
  3 32  1  0
  3 33  1  0
  6 34  1  0
  7 35  1  0
  8 36  1  0
 13 37  1  0
 13 38  1  0
 14 39  1  0
 14 40  1  0
 16 41  1  0
 16 42  1  0
 17 43  1  0
 17 44  1  0
 18 45  1  0
 21 46  1  0
 24 47  1  0
 24 48  1  0
 25 49  1  0
 25 50  1  0
 27 51  1  0
 27 52  1  0
 28 53  1  0
 28 54  1  0
 29 55  1  0
 30 56  1  0
M  END
>  <smiles>  (15) 
O=C1CC(c2cccc(C(=O)N3CCOCC3)c2)=Nc2cc(N3CCOCC3)ccc21

>  <score_type>  (15) 
oracle

>  <origin>  (15) 
autodockgpu

>  <m_score__min__energy>  (15) 
-9.1199999999999992

>  <m_primary>  (15) 
energy

>  <rmsd>  (15) 
6.93232613183511

>  <m_score__min__rmsd>  (15) 
6.93232613183511

>  <meeko>  (15) 
{"free_energy": -8.55, "intermolecular_energy": -9.45, "internal_energy": -0.9, "cluster_size": 50, "cluster_id": 1, "rank_in_cluster": 47}

>  <energy>  (15) 
-9.08

>  <cluster_rmsd>  (15) 
0.55

>  <cluster>  (15) 
1

$$$$

     RDKit          3D

 56 60  0  0  0  0  0  0  0  0999 V2000
  141.9920   72.8540  219.1730 O   0  0  0  0  0  0  0  0  0  0  0  0
  141.3320   73.2240  220.1680 C   0  0  0  0  0  0  0  0  0  0  0  0
  140.5170   72.2220  220.8780 C   0  0  0  0  0  0  0  0  0  0  0  0
  139.7760   72.8260  222.0270 C   0  0  0  0  0  0  0  0  0  0  0  0
  138.8970   71.9340  222.7890 C   0  0  0  0  0  0  0  0  0  0  0  0
  137.5210   72.0320  222.7680 C   0  0  0  0  0  0  0  0  0  0  0  0
  136.7380   71.1200  223.4820 C   0  0  0  0  0  0  0  0  0  0  0  0
  137.3010   70.0990  224.2290 C   0  0  0  0  0  0  0  0  0  0  0  0
  138.6580   70.0020  224.2520 C   0  0  0  0  0  0  0  0  0  0  0  0
  139.3990   68.9630  224.9840 C   0  0  0  0  0  0  0  0  0  0  0  0
  139.2470   67.7370  224.7700 O   0  0  0  0  0  0  0  0  0  0  0  0
  140.3210   69.3890  225.9730 N   0  0  0  0  0  0  0  0  0  0  0  0
  140.5740   70.7980  226.2710 C   0  0  0  0  0  0  0  0  0  0  0  0
  140.5110   71.0370  227.7610 C   0  0  0  0  0  0  0  0  0  0  0  0
  141.2270   70.1350  228.5070 O   0  0  0  0  0  0  0  0  0  0  0  0
  140.9780   68.8130  228.2610 C   0  0  0  0  0  0  0  0  0  0  0  0
  141.0780   68.4370  226.7980 C   0  0  0  0  0  0  0  0  0  0  0  0
  139.4260   70.9010  223.5460 C   0  0  0  0  0  0  0  0  0  0  0  0
  139.8630   74.0680  222.3510 N   0  0  0  0  0  0  0  0  0  0  0  0
  140.6500   75.0350  221.6860 C   0  0  0  0  0  0  0  0  0  0  0  0
  140.6880   76.3790  222.0600 C   0  0  0  0  0  0  0  0  0  0  0  0
  141.4680   77.2560  221.3190 C   0  0  0  0  0  0  0  0  0  0  0  0
  141.5720   78.6380  221.5860 N   0  0  0  0  0  0  0  0  0  0  0  0
  141.6570   79.7020  220.6440 C   0  0  0  0  0  0  0  0  0  0  0  0
  141.0190   80.9510  221.2640 C   0  0  0  0  0  0  0  0  0  0  0  0
  141.6240   81.3490  222.4360 O   0  0  0  0  0  0  0  0  0  0  0  0
  142.3730   80.3420  223.0460 C   0  0  0  0  0  0  0  0  0  0  0  0
  141.6440   79.0170  223.0150 C   0  0  0  0  0  0  0  0  0  0  0  0
  142.2020   76.7890  220.2190 C   0  0  0  0  0  0  0  0  0  0  0  0
  142.1680   75.4670  219.8460 C   0  0  0  0  0  0  0  0  0  0  0  0
  141.3910   74.6170  220.5900 C   0  0  0  0  0  0  0  0  0  0  0  0
  139.7913   71.7889  220.1739 H   0  0  0  0  0  0  0  0  0  0  0  0
  141.1920   71.4488  221.2736 H   0  0  0  0  0  0  0  0  0  0  0  0
  137.0378   72.8313  222.1869 H   0  0  0  0  0  0  0  0  0  0  0  0
  135.6427   71.2163  223.4494 H   0  0  0  0  0  0  0  0  0  0  0  0
  136.6715   69.3893  224.7858 H   0  0  0  0  0  0  0  0  0  0  0  0
  141.5725   71.0738  225.9009 H   0  0  0  0  0  0  0  0  0  0  0  0
  139.8067   71.4121  225.7769 H   0  0  0  0  0  0  0  0  0  0  0  0
  140.9049   72.0435  227.9657 H   0  0  0  0  0  0  0  0  0  0  0  0
  139.4570   70.9234  228.0546 H   0  0  0  0  0  0  0  0  0  0  0  0
  141.7064   68.2116  228.8247 H   0  0  0  0  0  0  0  0  0  0  0  0
  139.9414   68.6176  228.5731 H   0  0  0  0  0  0  0  0  0  0  0  0
  142.1343   68.4511  226.4912 H   0  0  0  0  0  0  0  0  0  0  0  0
  140.6580   67.4300  226.6582 H   0  0  0  0  0  0  0  0  0  0  0  0
  140.5200   70.7931  223.5852 H   0  0  0  0  0  0  0  0  0  0  0  0
  140.1108   76.7365  222.9255 H   0  0  0  0  0  0  0  0  0  0  0  0
  142.7118   79.9034  220.4054 H   0  0  0  0  0  0  0  0  0  0  0  0
  141.1300   79.4292  219.7178 H   0  0  0  0  0  0  0  0  0  0  0  0
  141.0882   81.7748  220.5384 H   0  0  0  0  0  0  0  0  0  0  0  0
  139.9764   80.6974  221.5062 H   0  0  0  0  0  0  0  0  0  0  0  0
  143.3305   80.2363  222.5149 H   0  0  0  0  0  0  0  0  0  0  0  0
  142.5387   80.6217  224.0969 H   0  0  0  0  0  0  0  0  0  0  0  0
  142.2000   78.2589  223.5861 H   0  0  0  0  0  0  0  0  0  0  0  0
  140.6444   79.0907  223.4683 H   0  0  0  0  0  0  0  0  0  0  0  0
  142.8176   77.4956  219.6430 H   0  0  0  0  0  0  0  0  0  0  0  0
  142.7434   75.1038  218.9817 H   0  0  0  0  0  0  0  0  0  0  0  0
  1  2  2  0
  2  3  1  0
  3  4  1  0
  4  5  1  0
  5  6  2  0
  6  7  1  0
  7  8  2  0
  8  9  1  0
  9 10  1  0
 10 11  2  0
 10 12  1  0
 12 13  1  0
 13 14  1  0
 14 15  1  0
 15 16  1  0
 16 17  1  0
  9 18  2  0
  4 19  2  0
 19 20  1  0
 20 21  2  0
 21 22  1  0
 22 23  1  0
 23 24  1  0
 24 25  1  0
 25 26  1  0
 26 27  1  0
 27 28  1  0
 22 29  2  0
 29 30  1  0
 30 31  2  0
 31  2  1  0
 18  5  1  0
 31 20  1  0
 17 12  1  0
 28 23  1  0
  3 32  1  0
  3 33  1  0
  6 34  1  0
  7 35  1  0
  8 36  1  0
 13 37  1  0
 13 38  1  0
 14 39  1  0
 14 40  1  0
 16 41  1  0
 16 42  1  0
 17 43  1  0
 17 44  1  0
 18 45  1  0
 21 46  1  0
 24 47  1  0
 24 48  1  0
 25 49  1  0
 25 50  1  0
 27 51  1  0
 27 52  1  0
 28 53  1  0
 28 54  1  0
 29 55  1  0
 30 56  1  0
M  END
>  <smiles>  (16) 
O=C1CC(c2cccc(C(=O)N3CCOCC3)c2)=Nc2cc(N3CCOCC3)ccc21

>  <score_type>  (16) 
oracle

>  <origin>  (16) 
autodockgpu

>  <m_score__min__energy>  (16) 
-9.1199999999999992

>  <m_primary>  (16) 
energy

>  <rmsd>  (16) 
6.331839171008591

>  <m_score__min__rmsd>  (16) 
6.331839171008591

>  <meeko>  (16) 
{"free_energy": -9.06, "intermolecular_energy": -9.95, "internal_energy": -0.8, "cluster_size": 50, "cluster_id": 1, "rank_in_cluster": 31}

>  <energy>  (16) 
-9.08

>  <cluster_rmsd>  (16) 
0.44

>  <cluster>  (16) 
1

$$$$

     RDKit          3D

 56 60  0  0  0  0  0  0  0  0999 V2000
  142.1880   72.4050  219.4080 O   0  0  0  0  0  0  0  0  0  0  0  0
  141.4700   72.8450  220.3320 C   0  0  0  0  0  0  0  0  0  0  0  0
  140.6500   71.8870  221.0940 C   0  0  0  0  0  0  0  0  0  0  0  0
  139.8360   72.5710  222.1450 C   0  0  0  0  0  0  0  0  0  0  0  0
  138.9460   71.7270  222.9470 C   0  0  0  0  0  0  0  0  0  0  0  0
  137.5770   71.8910  222.9780 C   0  0  0  0  0  0  0  0  0  0  0  0
  136.7780   71.0220  223.7280 C   0  0  0  0  0  0  0  0  0  0  0  0
  137.3200   69.9780  224.4600 C   0  0  0  0  0  0  0  0  0  0  0  0
  138.6710   69.8160  224.4320 C   0  0  0  0  0  0  0  0  0  0  0  0
  139.3890   68.7470  225.1420 C   0  0  0  0  0  0  0  0  0  0  0  0
  139.2000   67.5280  224.9130 O   0  0  0  0  0  0  0  0  0  0  0  0
  140.3320   69.1330  226.1280 N   0  0  0  0  0  0  0  0  0  0  0  0
  140.6280   70.5300  226.4430 C   0  0  0  0  0  0  0  0  0  0  0  0
  140.5840   70.7500  227.9370 C   0  0  0  0  0  0  0  0  0  0  0  0
  141.2810   69.8170  228.6630 O   0  0  0  0  0  0  0  0  0  0  0  0
  140.9930   68.5060  228.4020 C   0  0  0  0  0  0  0  0  0  0  0  0
  141.0700   68.1490  226.9330 C   0  0  0  0  0  0  0  0  0  0  0  0
  139.4540   70.6740  223.6910 C   0  0  0  0  0  0  0  0  0  0  0  0
  139.8730   73.8400  222.3550 N   0  0  0  0  0  0  0  0  0  0  0  0
  140.6640   74.7670  221.6380 C   0  0  0  0  0  0  0  0  0  0  0  0
  140.6470   76.1400  221.8850 C   0  0  0  0  0  0  0  0  0  0  0  0
  141.4390   76.9690  221.1010 C   0  0  0  0  0  0  0  0  0  0  0  0
  141.4910   78.3720  221.2410 N   0  0  0  0  0  0  0  0  0  0  0  0
  141.6530   79.3430  220.2120 C   0  0  0  0  0  0  0  0  0  0  0  0
  140.9340   80.6280  220.6410 C   0  0  0  0  0  0  0  0  0  0  0  0
  141.4100   81.1530  221.8230 O   0  0  0  0  0  0  0  0  0  0  0  0
  142.1090   80.2290  222.6000 C   0  0  0  0  0  0  0  0  0  0  0  0
  141.4110   78.8880  222.6260 C   0  0  0  0  0  0  0  0  0  0  0  0
  142.2380   76.4250  220.0850 C   0  0  0  0  0  0  0  0  0  0  0  0
  142.2590   75.0740  219.8380 C   0  0  0  0  0  0  0  0  0  0  0  0
  141.4700   74.2720  220.6230 C   0  0  0  0  0  0  0  0  0  0  0  0
  139.9728   71.3667  220.4007 H   0  0  0  0  0  0  0  0  0  0  0  0
  141.3260   71.1761  221.5917 H   0  0  0  0  0  0  0  0  0  0  0  0
  137.1110   72.7096  222.4098 H   0  0  0  0  0  0  0  0  0  0  0  0
  135.6883   71.1717  223.7370 H   0  0  0  0  0  0  0  0  0  0  0  0
  136.6791   69.3019  225.0449 H   0  0  0  0  0  0  0  0  0  0  0  0
  141.6310   70.7821  226.0682 H   0  0  0  0  0  0  0  0  0  0  0  0
  139.8748   71.1727  225.9638 H   0  0  0  0  0  0  0  0  0  0  0  0
  141.0079   71.7419  228.1524 H   0  0  0  0  0  0  0  0  0  0  0  0
  139.5298   70.6628  228.2388 H   0  0  0  0  0  0  0  0  0  0  0  0
  141.7092   67.8768  228.9507 H   0  0  0  0  0  0  0  0  0  0  0  0
  139.9545   68.3343  228.7215 H   0  0  0  0  0  0  0  0  0  0  0  0
  142.1236   68.1390  226.6170 H   0  0  0  0  0  0  0  0  0  0  0  0
  140.6213   67.1560  226.7827 H   0  0  0  0  0  0  0  0  0  0  0  0
  140.5423   70.5144  223.6899 H   0  0  0  0  0  0  0  0  0  0  0  0
  140.0185   76.5579  222.6852 H   0  0  0  0  0  0  0  0  0  0  0  0
  142.7229   79.5488  220.0606 H   0  0  0  0  0  0  0  0  0  0  0  0
  141.2276   78.9688  219.2691 H   0  0  0  0  0  0  0  0  0  0  0  0
  141.0620   81.3803  219.8488 H   0  0  0  0  0  0  0  0  0  0  0  0
  139.8769   80.3701  220.8026 H   0  0  0  0  0  0  0  0  0  0  0  0
  143.1175   80.0992  222.1805 H   0  0  0  0  0  0  0  0  0  0  0  0
  142.1603   80.6120  223.6299 H   0  0  0  0  0  0  0  0  0  0  0  0
  141.9196   78.2036  223.3209 H   0  0  0  0  0  0  0  0  0  0  0  0
  140.3693   78.9774  222.9680 H   0  0  0  0  0  0  0  0  0  0  0  0
  142.8609   77.0941  219.4732 H   0  0  0  0  0  0  0  0  0  0  0  0
  142.8859   74.6504  219.0395 H   0  0  0  0  0  0  0  0  0  0  0  0
  1  2  2  0
  2  3  1  0
  3  4  1  0
  4  5  1  0
  5  6  2  0
  6  7  1  0
  7  8  2  0
  8  9  1  0
  9 10  1  0
 10 11  2  0
 10 12  1  0
 12 13  1  0
 13 14  1  0
 14 15  1  0
 15 16  1  0
 16 17  1  0
  9 18  2  0
  4 19  2  0
 19 20  1  0
 20 21  2  0
 21 22  1  0
 22 23  1  0
 23 24  1  0
 24 25  1  0
 25 26  1  0
 26 27  1  0
 27 28  1  0
 22 29  2  0
 29 30  1  0
 30 31  2  0
 31  2  1  0
 18  5  1  0
 31 20  1  0
 17 12  1  0
 28 23  1  0
  3 32  1  0
  3 33  1  0
  6 34  1  0
  7 35  1  0
  8 36  1  0
 13 37  1  0
 13 38  1  0
 14 39  1  0
 14 40  1  0
 16 41  1  0
 16 42  1  0
 17 43  1  0
 17 44  1  0
 18 45  1  0
 21 46  1  0
 24 47  1  0
 24 48  1  0
 25 49  1  0
 25 50  1  0
 27 51  1  0
 27 52  1  0
 28 53  1  0
 28 54  1  0
 29 55  1  0
 30 56  1  0
M  END
>  <smiles>  (17) 
O=C1CC(c2cccc(C(=O)N3CCOCC3)c2)=Nc2cc(N3CCOCC3)ccc21

>  <score_type>  (17) 
oracle

>  <origin>  (17) 
autodockgpu

>  <m_score__min__energy>  (17) 
-9.1199999999999992

>  <m_primary>  (17) 
energy

>  <rmsd>  (17) 
6.291066218852888

>  <m_score__min__rmsd>  (17) 
6.291066218852888

>  <meeko>  (17) 
{"free_energy": -9.07, "intermolecular_energy": -9.97, "internal_energy": -0.83, "cluster_size": 50, "cluster_id": 1, "rank_in_cluster": 21}

>  <energy>  (17) 
-9.08

>  <cluster_rmsd>  (17) 
0.45

>  <cluster>  (17) 
1

$$$$

     RDKit          3D

 56 60  0  0  0  0  0  0  0  0999 V2000
  142.2280   72.4010  219.4370 O   0  0  0  0  0  0  0  0  0  0  0  0
  141.5000   72.8430  220.3530 C   0  0  0  0  0  0  0  0  0  0  0  0
  140.6780   71.8850  221.1130 C   0  0  0  0  0  0  0  0  0  0  0  0
  139.8510   72.5700  222.1530 C   0  0  0  0  0  0  0  0  0  0  0  0
  138.9580   71.7250  222.9510 C   0  0  0  0  0  0  0  0  0  0  0  0
  137.5910   71.9020  222.9950 C   0  0  0  0  0  0  0  0  0  0  0  0
  136.7900   71.0320  223.7400 C   0  0  0  0  0  0  0  0  0  0  0  0
  137.3270   69.9740  224.4560 C   0  0  0  0  0  0  0  0  0  0  0  0
  138.6760   69.8000  224.4160 C   0  0  0  0  0  0  0  0  0  0  0  0
  139.3890   68.7150  225.1080 C   0  0  0  0  0  0  0  0  0  0  0  0
  139.2080   67.5020  224.8460 O   0  0  0  0  0  0  0  0  0  0  0  0
  140.3180   69.0790  226.1160 N   0  0  0  0  0  0  0  0  0  0  0  0
  140.6040   70.4690  226.4700 C   0  0  0  0  0  0  0  0  0  0  0  0
  140.5410   70.6510  227.9680 C   0  0  0  0  0  0  0  0  0  0  0  0
  141.2320   69.7030  228.6790 O   0  0  0  0  0  0  0  0  0  0  0  0
  140.9520   68.3980  228.3810 C   0  0  0  0  0  0  0  0  0  0  0  0
  141.0490   68.0780  226.9050 C   0  0  0  0  0  0  0  0  0  0  0  0
  139.4620   70.6580  223.6790 C   0  0  0  0  0  0  0  0  0  0  0  0
  139.8790   73.8400  222.3550 N   0  0  0  0  0  0  0  0  0  0  0  0
  140.6710   74.7670  221.6400 C   0  0  0  0  0  0  0  0  0  0  0  0
  140.6430   76.1420  221.8790 C   0  0  0  0  0  0  0  0  0  0  0  0
  141.4370   76.9710  221.0980 C   0  0  0  0  0  0  0  0  0  0  0  0
  141.4800   78.3750  221.2290 N   0  0  0  0  0  0  0  0  0  0  0  0
  141.5950   79.3430  220.1920 C   0  0  0  0  0  0  0  0  0  0  0  0
  140.8780   80.6230  220.6420 C   0  0  0  0  0  0  0  0  0  0  0  0
  141.3920   81.1570  221.8030 O   0  0  0  0  0  0  0  0  0  0  0  0
  142.1300   80.2440  222.5580 C   0  0  0  0  0  0  0  0  0  0  0  0
  141.4460   78.8960  222.6150 C   0  0  0  0  0  0  0  0  0  0  0  0
  142.2490   76.4260  220.0920 C   0  0  0  0  0  0  0  0  0  0  0  0
  142.2800   75.0740  219.8530 C   0  0  0  0  0  0  0  0  0  0  0  0
  141.4880   74.2720  220.6350 C   0  0  0  0  0  0  0  0  0  0  0  0
  140.0097   71.3575  220.4165 H   0  0  0  0  0  0  0  0  0  0  0  0
  141.3533   71.1806  221.6208 H   0  0  0  0  0  0  0  0  0  0  0  0
  137.1287   72.7322  222.4409 H   0  0  0  0  0  0  0  0  0  0  0  0
  135.7018   71.1917  223.7585 H   0  0  0  0  0  0  0  0  0  0  0  0
  136.6839   69.2971  225.0375 H   0  0  0  0  0  0  0  0  0  0  0  0
  141.6103   70.7346  226.1140 H   0  0  0  0  0  0  0  0  0  0  0  0
  139.8537   71.1205  225.9981 H   0  0  0  0  0  0  0  0  0  0  0  0
  140.9586   71.6386  228.2134 H   0  0  0  0  0  0  0  0  0  0  0  0
  139.4835   70.5524  228.2543 H   0  0  0  0  0  0  0  0  0  0  0  0
  141.6633   67.7575  228.9229 H   0  0  0  0  0  0  0  0  0  0  0  0
  139.9100   68.2153  228.6823 H   0  0  0  0  0  0  0  0  0  0  0  0
  142.1065   68.0794  226.6023 H   0  0  0  0  0  0  0  0  0  0  0  0
  140.6060   67.0875  226.7242 H   0  0  0  0  0  0  0  0  0  0  0  0
  140.5486   70.4875  223.6673 H   0  0  0  0  0  0  0  0  0  0  0  0
  140.0043   76.5606  222.6707 H   0  0  0  0  0  0  0  0  0  0  0  0
  142.6566   79.5592  220.0018 H   0  0  0  0  0  0  0  0  0  0  0  0
  141.1402   78.9608  219.2662 H   0  0  0  0  0  0  0  0  0  0  0  0
  140.9688   81.3733  219.8427 H   0  0  0  0  0  0  0  0  0  0  0  0
  139.8301   80.3555  220.8429 H   0  0  0  0  0  0  0  0  0  0  0  0
  143.1235   80.1224  222.1018 H   0  0  0  0  0  0  0  0  0  0  0  0
  142.2168   80.6323  223.5835 H   0  0  0  0  0  0  0  0  0  0  0  0
  141.9864   78.2193  223.2933 H   0  0  0  0  0  0  0  0  0  0  0  0
  140.4169   78.9768  222.9951 H   0  0  0  0  0  0  0  0  0  0  0  0
  142.8736   77.0953  219.4822 H   0  0  0  0  0  0  0  0  0  0  0  0
  142.9169   74.6494  219.0630 H   0  0  0  0  0  0  0  0  0  0  0  0
  1  2  2  0
  2  3  1  0
  3  4  1  0
  4  5  1  0
  5  6  2  0
  6  7  1  0
  7  8  2  0
  8  9  1  0
  9 10  1  0
 10 11  2  0
 10 12  1  0
 12 13  1  0
 13 14  1  0
 14 15  1  0
 15 16  1  0
 16 17  1  0
  9 18  2  0
  4 19  2  0
 19 20  1  0
 20 21  2  0
 21 22  1  0
 22 23  1  0
 23 24  1  0
 24 25  1  0
 25 26  1  0
 26 27  1  0
 27 28  1  0
 22 29  2  0
 29 30  1  0
 30 31  2  0
 31  2  1  0
 18  5  1  0
 31 20  1  0
 17 12  1  0
 28 23  1  0
  3 32  1  0
  3 33  1  0
  6 34  1  0
  7 35  1  0
  8 36  1  0
 13 37  1  0
 13 38  1  0
 14 39  1  0
 14 40  1  0
 16 41  1  0
 16 42  1  0
 17 43  1  0
 17 44  1  0
 18 45  1  0
 21 46  1  0
 24 47  1  0
 24 48  1  0
 25 49  1  0
 25 50  1  0
 27 51  1  0
 27 52  1  0
 28 53  1  0
 28 54  1  0
 29 55  1  0
 30 56  1  0
M  END
>  <smiles>  (18) 
O=C1CC(c2cccc(C(=O)N3CCOCC3)c2)=Nc2cc(N3CCOCC3)ccc21

>  <score_type>  (18) 
oracle

>  <origin>  (18) 
autodockgpu

>  <m_score__min__energy>  (18) 
-9.1199999999999992

>  <m_primary>  (18) 
energy

>  <rmsd>  (18) 
6.296178393631873

>  <m_score__min__rmsd>  (18) 
6.296178393631873

>  <meeko>  (18) 
{"free_energy": -9.05, "intermolecular_energy": -9.94, "internal_energy": -0.84, "cluster_size": 50, "cluster_id": 1, "rank_in_cluster": 36}

>  <energy>  (18) 
-9.08

>  <cluster_rmsd>  (18) 
0.07

>  <cluster>  (18) 
1

$$$$

     RDKit          3D

 56 60  0  0  0  0  0  0  0  0999 V2000
  142.4910   72.3740  219.6080 O   0  0  0  0  0  0  0  0  0  0  0  0
  141.6990   72.8310  220.4600 C   0  0  0  0  0  0  0  0  0  0  0  0
  140.8610   71.8810  221.2130 C   0  0  0  0  0  0  0  0  0  0  0  0
  139.9560   72.5840  222.1730 C   0  0  0  0  0  0  0  0  0  0  0  0
  139.0420   71.7470  222.9550 C   0  0  0  0  0  0  0  0  0  0  0  0
  137.6740   71.9250  222.9600 C   0  0  0  0  0  0  0  0  0  0  0  0
  136.8530   71.0610  223.6910 C   0  0  0  0  0  0  0  0  0  0  0  0
  137.3700   70.0110  224.4310 C   0  0  0  0  0  0  0  0  0  0  0  0
  138.7190   69.8350  224.4300 C   0  0  0  0  0  0  0  0  0  0  0  0
  139.4130   68.7570  225.1510 C   0  0  0  0  0  0  0  0  0  0  0  0
  139.2100   67.5410  224.9210 O   0  0  0  0  0  0  0  0  0  0  0  0
  140.3470   69.1310  226.1490 N   0  0  0  0  0  0  0  0  0  0  0  0
  140.6580   70.5250  226.4660 C   0  0  0  0  0  0  0  0  0  0  0  0
  140.5980   70.7480  227.9590 C   0  0  0  0  0  0  0  0  0  0  0  0
  141.2720   69.8070  228.6960 O   0  0  0  0  0  0  0  0  0  0  0  0
  140.9690   68.4990  228.4320 C   0  0  0  0  0  0  0  0  0  0  0  0
  141.0600   68.1380  226.9650 C   0  0  0  0  0  0  0  0  0  0  0  0
  139.5250   70.6870  223.7060 C   0  0  0  0  0  0  0  0  0  0  0  0
  139.9380   73.8620  222.3220 N   0  0  0  0  0  0  0  0  0  0  0  0
  140.7450   74.7810  221.6140 C   0  0  0  0  0  0  0  0  0  0  0  0
  140.6660   76.1630  221.7920 C   0  0  0  0  0  0  0  0  0  0  0  0
  141.4810   76.9820  221.0220 C   0  0  0  0  0  0  0  0  0  0  0  0
  141.4780   78.3910  221.0960 N   0  0  0  0  0  0  0  0  0  0  0  0
  141.4630   79.3190  220.0160 C   0  0  0  0  0  0  0  0  0  0  0  0
  140.7370   80.5890  220.4780 C   0  0  0  0  0  0  0  0  0  0  0  0
  141.3270   81.1900  221.5680 O   0  0  0  0  0  0  0  0  0  0  0  0
  142.1630   80.3380  222.2890 C   0  0  0  0  0  0  0  0  0  0  0  0
  141.5420   78.9690  222.4570 C   0  0  0  0  0  0  0  0  0  0  0  0
  142.3640   76.4210  220.0890 C   0  0  0  0  0  0  0  0  0  0  0  0
  142.4460   75.0610  219.9110 C   0  0  0  0  0  0  0  0  0  0  0  0
  141.6320   74.2690  220.6800 C   0  0  0  0  0  0  0  0  0  0  0  0
  140.2495   71.3046  220.5032 H   0  0  0  0  0  0  0  0  0  0  0  0
  141.5248   71.2192  221.7887 H   0  0  0  0  0  0  0  0  0  0  0  0
  137.2271   72.7504  222.3863 H   0  0  0  0  0  0  0  0  0  0  0  0
  135.7646   71.2200  223.6778 H   0  0  0  0  0  0  0  0  0  0  0  0
  136.7108   69.3404  225.0017 H   0  0  0  0  0  0  0  0  0  0  0  0
  141.6690   70.7629  226.1037 H   0  0  0  0  0  0  0  0  0  0  0  0
  139.9197   71.1771  225.9764 H   0  0  0  0  0  0  0  0  0  0  0  0
  141.0330   71.7343  228.1782 H   0  0  0  0  0  0  0  0  0  0  0  0
  139.5388   70.6757  228.2470 H   0  0  0  0  0  0  0  0  0  0  0  0
  141.6691   67.8606  228.9909 H   0  0  0  0  0  0  0  0  0  0  0  0
  139.9238   68.3430  228.7374 H   0  0  0  0  0  0  0  0  0  0  0  0
  142.1174   68.1121  226.6628 H   0  0  0  0  0  0  0  0  0  0  0  0
  140.5991   67.1512  226.8106 H   0  0  0  0  0  0  0  0  0  0  0  0
  140.6115   70.5162  223.7253 H   0  0  0  0  0  0  0  0  0  0  0  0
  139.9717   76.5949  222.5278 H   0  0  0  0  0  0  0  0  0  0  0  0
  142.4944   79.5661  219.7243 H   0  0  0  0  0  0  0  0  0  0  0  0
  140.9450   78.8819  219.1496 H   0  0  0  0  0  0  0  0  0  0  0  0
  140.7281   81.3080  219.6456 H   0  0  0  0  0  0  0  0  0  0  0  0
  139.7223   80.2913  220.7808 H   0  0  0  0  0  0  0  0  0  0  0  0
  143.1177   80.2347  221.7525 H   0  0  0  0  0  0  0  0  0  0  0  0
  142.3218   80.7715  223.2875 H   0  0  0  0  0  0  0  0  0  0  0  0
  142.1656   78.3422  223.1114 H   0  0  0  0  0  0  0  0  0  0  0  0
  140.5465   79.0279  222.9213 H   0  0  0  0  0  0  0  0  0  0  0  0
  143.0042   77.0828  219.4872 H   0  0  0  0  0  0  0  0  0  0  0  0
  143.1396   74.6231  219.1780 H   0  0  0  0  0  0  0  0  0  0  0  0
  1  2  2  0
  2  3  1  0
  3  4  1  0
  4  5  1  0
  5  6  2  0
  6  7  1  0
  7  8  2  0
  8  9  1  0
  9 10  1  0
 10 11  2  0
 10 12  1  0
 12 13  1  0
 13 14  1  0
 14 15  1  0
 15 16  1  0
 16 17  1  0
  9 18  2  0
  4 19  2  0
 19 20  1  0
 20 21  2  0
 21 22  1  0
 22 23  1  0
 23 24  1  0
 24 25  1  0
 25 26  1  0
 26 27  1  0
 27 28  1  0
 22 29  2  0
 29 30  1  0
 30 31  2  0
 31  2  1  0
 18  5  1  0
 31 20  1  0
 17 12  1  0
 28 23  1  0
  3 32  1  0
  3 33  1  0
  6 34  1  0
  7 35  1  0
  8 36  1  0
 13 37  1  0
 13 38  1  0
 14 39  1  0
 14 40  1  0
 16 41  1  0
 16 42  1  0
 17 43  1  0
 17 44  1  0
 18 45  1  0
 21 46  1  0
 24 47  1  0
 24 48  1  0
 25 49  1  0
 25 50  1  0
 27 51  1  0
 27 52  1  0
 28 53  1  0
 28 54  1  0
 29 55  1  0
 30 56  1  0
M  END
>  <smiles>  (19) 
O=C1CC(c2cccc(C(=O)N3CCOCC3)c2)=Nc2cc(N3CCOCC3)ccc21

>  <score_type>  (19) 
oracle

>  <origin>  (19) 
autodockgpu

>  <m_score__min__energy>  (19) 
-9.1199999999999992

>  <m_primary>  (19) 
energy

>  <rmsd>  (19) 
6.2774604951161335

>  <m_score__min__rmsd>  (19) 
6.2774604951161335

>  <meeko>  (19) 
{"free_energy": -9.08, "intermolecular_energy": -9.98, "internal_energy": -0.83, "cluster_size": 50, "cluster_id": 1, "rank_in_cluster": 15}

>  <energy>  (19) 
-9.07

>  <cluster_rmsd>  (19) 
0.43

>  <cluster>  (19) 
1

$$$$

     RDKit          3D

 56 60  0  0  0  0  0  0  0  0999 V2000
  141.8920   72.5640  219.1350 O   0  0  0  0  0  0  0  0  0  0  0  0
  141.2620   72.9630  220.1370 C   0  0  0  0  0  0  0  0  0  0  0  0
  140.4550   71.9850  220.8890 C   0  0  0  0  0  0  0  0  0  0  0  0
  139.7480   72.6220  222.0420 C   0  0  0  0  0  0  0  0  0  0  0  0
  138.8800   71.7570  222.8460 C   0  0  0  0  0  0  0  0  0  0  0  0
  137.5080   71.8900  222.8820 C   0  0  0  0  0  0  0  0  0  0  0  0
  136.7320   71.0020  223.6330 C   0  0  0  0  0  0  0  0  0  0  0  0
  137.3010   69.9700  224.3630 C   0  0  0  0  0  0  0  0  0  0  0  0
  138.6540   69.8390  224.3300 C   0  0  0  0  0  0  0  0  0  0  0  0
  139.3990   68.7860  225.0360 C   0  0  0  0  0  0  0  0  0  0  0  0
  139.2530   67.5640  224.7920 O   0  0  0  0  0  0  0  0  0  0  0  0
  140.3180   69.1910  226.0380 N   0  0  0  0  0  0  0  0  0  0  0  0
  140.5630   70.5940  226.3720 C   0  0  0  0  0  0  0  0  0  0  0  0
  140.4960   70.7940  227.8680 C   0  0  0  0  0  0  0  0  0  0  0  0
  141.2150   69.8770  228.5910 O   0  0  0  0  0  0  0  0  0  0  0  0
  140.9730   68.5600  228.3120 C   0  0  0  0  0  0  0  0  0  0  0  0
  141.0780   68.2220  226.8400 C   0  0  0  0  0  0  0  0  0  0  0  0
  139.4150   70.7150  223.5870 C   0  0  0  0  0  0  0  0  0  0  0  0
  139.8560   73.8700  222.3360 N   0  0  0  0  0  0  0  0  0  0  0  0
  140.6350   74.8150  221.6300 C   0  0  0  0  0  0  0  0  0  0  0  0
  140.6950   76.1660  221.9730 C   0  0  0  0  0  0  0  0  0  0  0  0
  141.4660   77.0180  221.1930 C   0  0  0  0  0  0  0  0  0  0  0  0
  141.5890   78.4040  221.4250 N   0  0  0  0  0  0  0  0  0  0  0  0
  141.7440   79.4390  220.4590 C   0  0  0  0  0  0  0  0  0  0  0  0
  141.1070   80.7190  221.0140 C   0  0  0  0  0  0  0  0  0  0  0  0
  141.6660   81.1370  222.2010 O   0  0  0  0  0  0  0  0  0  0  0  0
  142.3610   80.1320  222.8740 C   0  0  0  0  0  0  0  0  0  0  0  0
  141.6040   78.8230  222.8450 C   0  0  0  0  0  0  0  0  0  0  0  0
  142.1670   76.5190  220.0860 C   0  0  0  0  0  0  0  0  0  0  0  0
  142.1110   75.1900  219.7440 C   0  0  0  0  0  0  0  0  0  0  0  0
  141.3440   74.3640  220.5260 C   0  0  0  0  0  0  0  0  0  0  0  0
  139.7082   71.5437  220.2126 H   0  0  0  0  0  0  0  0  0  0  0  0
  141.1321   71.2140  221.2853 H   0  0  0  0  0  0  0  0  0  0  0  0
  137.0216   72.6988  222.3170 H   0  0  0  0  0  0  0  0  0  0  0  0
  135.6390   71.1257  223.6449 H   0  0  0  0  0  0  0  0  0  0  0  0
  136.6780   69.2793  224.9501 H   0  0  0  0  0  0  0  0  0  0  0  0
  141.5606   70.8845  226.0110 H   0  0  0  0  0  0  0  0  0  0  0  0
  139.7937   71.2167  225.8920 H   0  0  0  0  0  0  0  0  0  0  0  0
  140.8843   71.7968  228.0996 H   0  0  0  0  0  0  0  0  0  0  0  0
  139.4421   70.6676  228.1567 H   0  0  0  0  0  0  0  0  0  0  0  0
  141.7033   67.9483  228.8620 H   0  0  0  0  0  0  0  0  0  0  0  0
  139.9371   68.3511  228.6174 H   0  0  0  0  0  0  0  0  0  0  0  0
  142.1348   68.2492  226.5361 H   0  0  0  0  0  0  0  0  0  0  0  0
  140.6634   67.2168  226.6735 H   0  0  0  0  0  0  0  0  0  0  0  0
  140.5067   70.5800  223.5816 H   0  0  0  0  0  0  0  0  0  0  0  0
  140.1427   76.5487  222.8439 H   0  0  0  0  0  0  0  0  0  0  0  0
  142.8134   79.6098  220.2660 H   0  0  0  0  0  0  0  0  0  0  0  0
  141.2555   79.1520  219.5161 H   0  0  0  0  0  0  0  0  0  0  0  0
  141.2286   81.5201  220.2700 H   0  0  0  0  0  0  0  0  0  0  0  0
  140.0488   80.4951  221.2141 H   0  0  0  0  0  0  0  0  0  0  0  0
  143.3399   79.9900  222.3928 H   0  0  0  0  0  0  0  0  0  0  0  0
  142.4826   80.4384  223.9234 H   0  0  0  0  0  0  0  0  0  0  0  0
  142.1154   78.0698  223.4624 H   0  0  0  0  0  0  0  0  0  0  0  0
  140.5864   78.9319  223.2483 H   0  0  0  0  0  0  0  0  0  0  0  0
  142.7745   77.2062  219.4788 H   0  0  0  0  0  0  0  0  0  0  0  0
  142.6614   74.8018  218.8743 H   0  0  0  0  0  0  0  0  0  0  0  0
  1  2  2  0
  2  3  1  0
  3  4  1  0
  4  5  1  0
  5  6  2  0
  6  7  1  0
  7  8  2  0
  8  9  1  0
  9 10  1  0
 10 11  2  0
 10 12  1  0
 12 13  1  0
 13 14  1  0
 14 15  1  0
 15 16  1  0
 16 17  1  0
  9 18  2  0
  4 19  2  0
 19 20  1  0
 20 21  2  0
 21 22  1  0
 22 23  1  0
 23 24  1  0
 24 25  1  0
 25 26  1  0
 26 27  1  0
 27 28  1  0
 22 29  2  0
 29 30  1  0
 30 31  2  0
 31  2  1  0
 18  5  1  0
 31 20  1  0
 17 12  1  0
 28 23  1  0
  3 32  1  0
  3 33  1  0
  6 34  1  0
  7 35  1  0
  8 36  1  0
 13 37  1  0
 13 38  1  0
 14 39  1  0
 14 40  1  0
 16 41  1  0
 16 42  1  0
 17 43  1  0
 17 44  1  0
 18 45  1  0
 21 46  1  0
 24 47  1  0
 24 48  1  0
 25 49  1  0
 25 50  1  0
 27 51  1  0
 27 52  1  0
 28 53  1  0
 28 54  1  0
 29 55  1  0
 30 56  1  0
M  END
>  <smiles>  (20) 
O=C1CC(c2cccc(C(=O)N3CCOCC3)c2)=Nc2cc(N3CCOCC3)ccc21

>  <score_type>  (20) 
oracle

>  <origin>  (20) 
autodockgpu

>  <m_score__min__energy>  (20) 
-9.1199999999999992

>  <m_primary>  (20) 
energy

>  <rmsd>  (20) 
6.3287190551599695

>  <m_score__min__rmsd>  (20) 
6.3287190551599695

>  <meeko>  (20) 
{"free_energy": -9.01, "intermolecular_energy": -9.9, "internal_energy": -0.84, "cluster_size": 50, "cluster_id": 1, "rank_in_cluster": 41}

>  <energy>  (20) 
-9.07

>  <cluster_rmsd>  (20) 
0.47

>  <cluster>  (20) 
1

$$$$

     RDKit          3D

 56 60  0  0  0  0  0  0  0  0999 V2000
  142.0660   72.4720  219.2770 O   0  0  0  0  0  0  0  0  0  0  0  0
  141.3850   72.8910  220.2380 C   0  0  0  0  0  0  0  0  0  0  0  0
  140.5700   71.9210  220.9910 C   0  0  0  0  0  0  0  0  0  0  0  0
  139.8020   72.5810  222.0910 C   0  0  0  0  0  0  0  0  0  0  0  0
  138.9200   71.7240  222.8890 C   0  0  0  0  0  0  0  0  0  0  0  0
  137.5490   71.8710  222.9180 C   0  0  0  0  0  0  0  0  0  0  0  0
  136.7600   70.9900  223.6640 C   0  0  0  0  0  0  0  0  0  0  0  0
  137.3140   69.9510  224.3950 C   0  0  0  0  0  0  0  0  0  0  0  0
  138.6660   69.8060  224.3690 C   0  0  0  0  0  0  0  0  0  0  0  0
  139.3970   68.7440  225.0780 C   0  0  0  0  0  0  0  0  0  0  0  0
  139.2290   67.5250  224.8410 O   0  0  0  0  0  0  0  0  0  0  0  0
  140.3260   69.1400  226.0740 N   0  0  0  0  0  0  0  0  0  0  0  0
  140.5960   70.5400  226.4000 C   0  0  0  0  0  0  0  0  0  0  0  0
  140.5380   70.7500  227.8950 C   0  0  0  0  0  0  0  0  0  0  0  0
  141.2440   69.8240  228.6200 O   0  0  0  0  0  0  0  0  0  0  0  0
  140.9790   68.5100  228.3490 C   0  0  0  0  0  0  0  0  0  0  0  0
  141.0730   68.1630  226.8790 C   0  0  0  0  0  0  0  0  0  0  0  0
  139.4400   70.6750  223.6310 C   0  0  0  0  0  0  0  0  0  0  0  0
  139.8690   73.8400  222.3440 N   0  0  0  0  0  0  0  0  0  0  0  0
  140.6550   74.7780  221.6360 C   0  0  0  0  0  0  0  0  0  0  0  0
  140.6710   76.1410  221.9330 C   0  0  0  0  0  0  0  0  0  0  0  0
  141.4540   76.9840  221.1550 C   0  0  0  0  0  0  0  0  0  0  0  0
  141.5370   78.3800  221.3430 N   0  0  0  0  0  0  0  0  0  0  0  0
  141.5790   79.3920  220.3420 C   0  0  0  0  0  0  0  0  0  0  0  0
  140.9310   80.6610  220.9090 C   0  0  0  0  0  0  0  0  0  0  0  0
  141.5570   81.1350  222.0410 O   0  0  0  0  0  0  0  0  0  0  0  0
  142.3390   80.1770  222.6870 C   0  0  0  0  0  0  0  0  0  0  0  0
  141.6370   78.8390  222.7470 C   0  0  0  0  0  0  0  0  0  0  0  0
  142.2120   76.4640  220.0960 C   0  0  0  0  0  0  0  0  0  0  0  0
  142.2010   75.1220  219.8010 C   0  0  0  0  0  0  0  0  0  0  0  0
  141.4200   74.3060  220.5800 C   0  0  0  0  0  0  0  0  0  0  0  0
  139.8618   71.4387  220.3012 H   0  0  0  0  0  0  0  0  0  0  0  0
  141.2471   71.1804  221.4416 H   0  0  0  0  0  0  0  0  0  0  0  0
  137.0738   72.6854  222.3514 H   0  0  0  0  0  0  0  0  0  0  0  0
  135.6684   71.1255  223.6709 H   0  0  0  0  0  0  0  0  0  0  0  0
  136.6806   69.2657  224.9774 H   0  0  0  0  0  0  0  0  0  0  0  0
  141.5971   70.8114  226.0338 H   0  0  0  0  0  0  0  0  0  0  0  0
  139.8351   71.1728  225.9196 H   0  0  0  0  0  0  0  0  0  0  0  0
  140.9447   71.7471  228.1195 H   0  0  0  0  0  0  0  0  0  0  0  0
  139.4832   70.6444  228.1887 H   0  0  0  0  0  0  0  0  0  0  0  0
  141.7010   67.8890  228.8996 H   0  0  0  0  0  0  0  0  0  0  0  0
  139.9409   68.3199  228.6593 H   0  0  0  0  0  0  0  0  0  0  0  0
  142.1290   68.1713  226.5713 H   0  0  0  0  0  0  0  0  0  0  0  0
  140.6411   67.1640  226.7195 H   0  0  0  0  0  0  0  0  0  0  0  0
  140.5302   70.5282  223.6307 H   0  0  0  0  0  0  0  0  0  0  0  0
  140.0752   76.5402  222.7670 H   0  0  0  0  0  0  0  0  0  0  0  0
  142.6237   79.5994  220.0670 H   0  0  0  0  0  0  0  0  0  0  0  0
  141.0363   79.0590  219.4450 H   0  0  0  0  0  0  0  0  0  0  0  0
  140.9648   81.4445  220.1376 H   0  0  0  0  0  0  0  0  0  0  0  0
  139.9003   80.4012  221.1921 H   0  0  0  0  0  0  0  0  0  0  0  0
  143.2859   80.0599  222.1395 H   0  0  0  0  0  0  0  0  0  0  0  0
  142.5223   80.5176  223.7167 H   0  0  0  0  0  0  0  0  0  0  0  0
  142.2225   78.1244  223.3441 H   0  0  0  0  0  0  0  0  0  0  0  0
  140.6476   78.9187  223.2211 H   0  0  0  0  0  0  0  0  0  0  0  0
  142.8278   77.1441  219.4892 H   0  0  0  0  0  0  0  0  0  0  0  0
  142.7969   74.7164  218.9701 H   0  0  0  0  0  0  0  0  0  0  0  0
  1  2  2  0
  2  3  1  0
  3  4  1  0
  4  5  1  0
  5  6  2  0
  6  7  1  0
  7  8  2  0
  8  9  1  0
  9 10  1  0
 10 11  2  0
 10 12  1  0
 12 13  1  0
 13 14  1  0
 14 15  1  0
 15 16  1  0
 16 17  1  0
  9 18  2  0
  4 19  2  0
 19 20  1  0
 20 21  2  0
 21 22  1  0
 22 23  1  0
 23 24  1  0
 24 25  1  0
 25 26  1  0
 26 27  1  0
 27 28  1  0
 22 29  2  0
 29 30  1  0
 30 31  2  0
 31  2  1  0
 18  5  1  0
 31 20  1  0
 17 12  1  0
 28 23  1  0
  3 32  1  0
  3 33  1  0
  6 34  1  0
  7 35  1  0
  8 36  1  0
 13 37  1  0
 13 38  1  0
 14 39  1  0
 14 40  1  0
 16 41  1  0
 16 42  1  0
 17 43  1  0
 17 44  1  0
 18 45  1  0
 21 46  1  0
 24 47  1  0
 24 48  1  0
 25 49  1  0
 25 50  1  0
 27 51  1  0
 27 52  1  0
 28 53  1  0
 28 54  1  0
 29 55  1  0
 30 56  1  0
M  END
>  <smiles>  (21) 
O=C1CC(c2cccc(C(=O)N3CCOCC3)c2)=Nc2cc(N3CCOCC3)ccc21

>  <score_type>  (21) 
oracle

>  <origin>  (21) 
autodockgpu

>  <m_score__min__energy>  (21) 
-9.1199999999999992

>  <m_primary>  (21) 
energy

>  <rmsd>  (21) 
6.305957767631429

>  <m_score__min__rmsd>  (21) 
6.305957767631429

>  <meeko>  (21) 
{"free_energy": -9.06, "intermolecular_energy": -9.96, "internal_energy": -0.83, "cluster_size": 50, "cluster_id": 1, "rank_in_cluster": 25}

>  <energy>  (21) 
-9.07

>  <cluster_rmsd>  (21) 
0.46

>  <cluster>  (21) 
1

$$$$

     RDKit          3D

 56 60  0  0  0  0  0  0  0  0999 V2000
  138.4640   70.9770  220.0440 O   0  0  0  0  0  0  0  0  0  0  0  0
  139.1530   71.6780  220.8170 C   0  0  0  0  0  0  0  0  0  0  0  0
  139.6940   72.9510  220.3090 C   0  0  0  0  0  0  0  0  0  0  0  0
  140.5110   73.6560  221.3440 C   0  0  0  0  0  0  0  0  0  0  0  0
  141.1370   74.9190  220.9460 C   0  0  0  0  0  0  0  0  0  0  0  0
  142.2750   74.9860  220.1690 C   0  0  0  0  0  0  0  0  0  0  0  0
  142.7960   76.2250  219.7840 C   0  0  0  0  0  0  0  0  0  0  0  0
  142.2020   77.4180  220.1620 C   0  0  0  0  0  0  0  0  0  0  0  0
  141.0810   77.3550  220.9290 C   0  0  0  0  0  0  0  0  0  0  0  0
  140.3300   78.5310  221.3930 C   0  0  0  0  0  0  0  0  0  0  0  0
  139.2340   78.8830  220.8950 O   0  0  0  0  0  0  0  0  0  0  0  0
  140.8900   79.2910  222.4520 N   0  0  0  0  0  0  0  0  0  0  0  0
  142.1520   78.9410  223.1020 C   0  0  0  0  0  0  0  0  0  0  0  0
  143.0490   80.1530  223.1910 C   0  0  0  0  0  0  0  0  0  0  0  0
  142.4270   81.2790  223.6700 O   0  0  0  0  0  0  0  0  0  0  0  0
  141.2610   81.6370  223.0500 C   0  0  0  0  0  0  0  0  0  0  0  0
  140.2510   80.5130  222.9600 C   0  0  0  0  0  0  0  0  0  0  0  0
  140.5690   76.1320  221.3050 C   0  0  0  0  0  0  0  0  0  0  0  0
  140.6940   73.1990  222.5330 N   0  0  0  0  0  0  0  0  0  0  0  0
  140.1720   71.9850  223.0340 C   0  0  0  0  0  0  0  0  0  0  0  0
  140.4250   71.5180  224.3240 C   0  0  0  0  0  0  0  0  0  0  0  0
  139.8900   70.2960  224.7080 C   0  0  0  0  0  0  0  0  0  0  0  0
  140.0910   69.7100  225.9760 N   0  0  0  0  0  0  0  0  0  0  0  0
  139.9650   68.3370  226.3310 C   0  0  0  0  0  0  0  0  0  0  0  0
  140.9380   68.0410  227.4790 C   0  0  0  0  0  0  0  0  0  0  0  0
  140.7100   68.8090  228.6000 O   0  0  0  0  0  0  0  0  0  0  0  0
  139.9700   69.9630  228.3430 C   0  0  0  0  0  0  0  0  0  0  0  0
  140.4320   70.6430  227.0740 C   0  0  0  0  0  0  0  0  0  0  0  0
  139.1110   69.5540  223.8100 C   0  0  0  0  0  0  0  0  0  0  0  0
  138.8580   70.0090  222.5380 C   0  0  0  0  0  0  0  0  0  0  0  0
  139.3960   71.2180  222.1770 C   0  0  0  0  0  0  0  0  0  0  0  0
  140.3277   72.7452  219.4337 H   0  0  0  0  0  0  0  0  0  0  0  0
  138.8480   73.6000  220.0388 H   0  0  0  0  0  0  0  0  0  0  0  0
  142.7752   74.0595  219.8506 H   0  0  0  0  0  0  0  0  0  0  0  0
  143.7036   76.2533  219.1631 H   0  0  0  0  0  0  0  0  0  0  0  0
  142.6237   78.3854  219.8516 H   0  0  0  0  0  0  0  0  0  0  0  0
  141.9465   78.5663  224.1156 H   0  0  0  0  0  0  0  0  0  0  0  0
  142.6571   78.1646  222.5087 H   0  0  0  0  0  0  0  0  0  0  0  0
  143.8891   79.9122  223.8591 H   0  0  0  0  0  0  0  0  0  0  0  0
  143.3729   80.3828  222.1652 H   0  0  0  0  0  0  0  0  0  0  0  0
  140.8085   82.4665  223.6131 H   0  0  0  0  0  0  0  0  0  0  0  0
  141.5187   81.9216  222.0192 H   0  0  0  0  0  0  0  0  0  0  0  0
  139.8367   80.3168  223.9599 H   0  0  0  0  0  0  0  0  0  0  0  0
  139.4473   80.8093  222.2699 H   0  0  0  0  0  0  0  0  0  0  0  0
  139.6598   76.1172  221.9239 H   0  0  0  0  0  0  0  0  0  0  0  0
  141.0367   72.1068  225.0234 H   0  0  0  0  0  0  0  0  0  0  0  0
  138.9344   68.1305  226.6553 H   0  0  0  0  0  0  0  0  0  0  0  0
  140.1985   67.7004  225.4649 H   0  0  0  0  0  0  0  0  0  0  0  0
  140.8386   66.9811  227.7561 H   0  0  0  0  0  0  0  0  0  0  0  0
  141.9489   68.2830  227.1191 H   0  0  0  0  0  0  0  0  0  0  0  0
  138.9091   69.6920  228.2380 H   0  0  0  0  0  0  0  0  0  0  0  0
  140.1134   70.6603  229.1816 H   0  0  0  0  0  0  0  0  0  0  0  0
  139.9093   71.6015  226.9397 H   0  0  0  0  0  0  0  0  0  0  0  0
  141.5090   70.8651  227.0999 H   0  0  0  0  0  0  0  0  0  0  0  0
  138.6935   68.5878  224.1296 H   0  0  0  0  0  0  0  0  0  0  0  0
  138.2462   69.4247  221.8349 H   0  0  0  0  0  0  0  0  0  0  0  0
  1  2  2  0
  2  3  1  0
  3  4  1  0
  4  5  1  0
  5  6  2  0
  6  7  1  0
  7  8  2  0
  8  9  1  0
  9 10  1  0
 10 11  2  0
 10 12  1  0
 12 13  1  0
 13 14  1  0
 14 15  1  0
 15 16  1  0
 16 17  1  0
  9 18  2  0
  4 19  2  0
 19 20  1  0
 20 21  2  0
 21 22  1  0
 22 23  1  0
 23 24  1  0
 24 25  1  0
 25 26  1  0
 26 27  1  0
 27 28  1  0
 22 29  2  0
 29 30  1  0
 30 31  2  0
 31  2  1  0
 18  5  1  0
 31 20  1  0
 17 12  1  0
 28 23  1  0
  3 32  1  0
  3 33  1  0
  6 34  1  0
  7 35  1  0
  8 36  1  0
 13 37  1  0
 13 38  1  0
 14 39  1  0
 14 40  1  0
 16 41  1  0
 16 42  1  0
 17 43  1  0
 17 44  1  0
 18 45  1  0
 21 46  1  0
 24 47  1  0
 24 48  1  0
 25 49  1  0
 25 50  1  0
 27 51  1  0
 27 52  1  0
 28 53  1  0
 28 54  1  0
 29 55  1  0
 30 56  1  0
M  END
>  <smiles>  (22) 
O=C1CC(c2cccc(C(=O)N3CCOCC3)c2)=Nc2cc(N3CCOCC3)ccc21

>  <score_type>  (22) 
oracle

>  <origin>  (22) 
autodockgpu

>  <m_score__min__energy>  (22) 
-9.1199999999999992

>  <m_primary>  (22) 
energy

>  <rmsd>  (22) 
6.929908436660791

>  <m_score__min__rmsd>  (22) 
6.929908436660791

>  <meeko>  (22) 
{"free_energy": -8.53, "intermolecular_energy": -9.43, "internal_energy": -0.91, "cluster_size": 50, "cluster_id": 1, "rank_in_cluster": 49}

>  <energy>  (22) 
-9.07

>  <cluster_rmsd>  (22) 
0.45

>  <cluster>  (22) 
1

$$$$

     RDKit          3D

 56 60  0  0  0  0  0  0  0  0999 V2000
  141.9990   72.8110  219.1810 O   0  0  0  0  0  0  0  0  0  0  0  0
  141.3310   73.1800  220.1710 C   0  0  0  0  0  0  0  0  0  0  0  0
  140.5140   72.1760  220.8750 C   0  0  0  0  0  0  0  0  0  0  0  0
  139.7620   72.7780  222.0180 C   0  0  0  0  0  0  0  0  0  0  0  0
  138.8800   71.8840  222.7740 C   0  0  0  0  0  0  0  0  0  0  0  0
  137.5040   71.9430  222.6990 C   0  0  0  0  0  0  0  0  0  0  0  0
  136.7190   71.0300  223.4110 C   0  0  0  0  0  0  0  0  0  0  0  0
  137.2810   70.0470  224.2080 C   0  0  0  0  0  0  0  0  0  0  0  0
  138.6380   69.9890  224.2840 C   0  0  0  0  0  0  0  0  0  0  0  0
  139.3800   68.9930  225.0740 C   0  0  0  0  0  0  0  0  0  0  0  0
  139.2070   67.7570  224.9490 O   0  0  0  0  0  0  0  0  0  0  0  0
  140.3250   69.4740  226.0150 N   0  0  0  0  0  0  0  0  0  0  0  0
  140.6020   70.8970  226.2090 C   0  0  0  0  0  0  0  0  0  0  0  0
  140.5700   71.2400  227.6790 C   0  0  0  0  0  0  0  0  0  0  0  0
  141.2870   70.3820  228.4730 O   0  0  0  0  0  0  0  0  0  0  0  0
  141.0170   69.0490  228.3250 C   0  0  0  0  0  0  0  0  0  0  0  0
  141.0850   68.5710  226.8910 C   0  0  0  0  0  0  0  0  0  0  0  0
  139.4080   70.8890  223.5810 C   0  0  0  0  0  0  0  0  0  0  0  0
  139.8440   74.0200  222.3430 N   0  0  0  0  0  0  0  0  0  0  0  0
  140.6330   74.9900  221.6830 C   0  0  0  0  0  0  0  0  0  0  0  0
  140.6660   76.3330  222.0580 C   0  0  0  0  0  0  0  0  0  0  0  0
  141.4500   77.2120  221.3230 C   0  0  0  0  0  0  0  0  0  0  0  0
  141.5480   78.5940  221.5900 N   0  0  0  0  0  0  0  0  0  0  0  0
  141.4540   79.2450  222.8540 C   0  0  0  0  0  0  0  0  0  0  0  0
  142.3170   80.5120  222.8110 C   0  0  0  0  0  0  0  0  0  0  0  0
  141.9370   81.4000  221.8280 O   0  0  0  0  0  0  0  0  0  0  0  0
  141.1710   80.8170  220.8180 C   0  0  0  0  0  0  0  0  0  0  0  0
  141.7270   79.4710  220.4110 C   0  0  0  0  0  0  0  0  0  0  0  0
  142.1920   76.7470  220.2280 C   0  0  0  0  0  0  0  0  0  0  0  0
  142.1650   75.4250  219.8560 C   0  0  0  0  0  0  0  0  0  0  0  0
  141.3840   74.5730  220.5940 C   0  0  0  0  0  0  0  0  0  0  0  0
  139.7953   71.7402  220.1655 H   0  0  0  0  0  0  0  0  0  0  0  0
  141.1885   71.4053  221.2763 H   0  0  0  0  0  0  0  0  0  0  0  0
  137.0219   72.7113  222.0767 H   0  0  0  0  0  0  0  0  0  0  0  0
  135.6235   71.0948  223.3356 H   0  0  0  0  0  0  0  0  0  0  0  0
  136.6505   69.3359  224.7618 H   0  0  0  0  0  0  0  0  0  0  0  0
  141.5969   71.1319  225.8029 H   0  0  0  0  0  0  0  0  0  0  0  0
  139.8338   71.4861  225.6867 H   0  0  0  0  0  0  0  0  0  0  0  0
  140.9813   72.2523  227.8059 H   0  0  0  0  0  0  0  0  0  0  0  0
  139.5202   71.1629  227.9984 H   0  0  0  0  0  0  0  0  0  0  0  0
  141.7484   68.4786  228.9164 H   0  0  0  0  0  0  0  0  0  0  0  0
  139.9843   68.8897  228.6687 H   0  0  0  0  0  0  0  0  0  0  0  0
  142.1355   68.5489  226.5654 H   0  0  0  0  0  0  0  0  0  0  0  0
  140.6497   67.5627  226.8292 H   0  0  0  0  0  0  0  0  0  0  0  0
  140.5022   70.8138  223.6648 H   0  0  0  0  0  0  0  0  0  0  0  0
  140.0821   76.6889  222.9196 H   0  0  0  0  0  0  0  0  0  0  0  0
  140.4070   79.5153  223.0558 H   0  0  0  0  0  0  0  0  0  0  0  0
  141.8063   78.5745  223.6517 H   0  0  0  0  0  0  0  0  0  0  0  0
  142.2429   81.0175  223.7851 H   0  0  0  0  0  0  0  0  0  0  0  0
  143.3459   80.1965  222.5834 H   0  0  0  0  0  0  0  0  0  0  0  0
  140.1413   80.6838  221.1814 H   0  0  0  0  0  0  0  0  0  0  0  0
  141.1927   81.4801  219.9406 H   0  0  0  0  0  0  0  0  0  0  0  0
  141.1738   79.0720  219.5480 H   0  0  0  0  0  0  0  0  0  0  0  0
  142.7832   79.5403  220.1116 H   0  0  0  0  0  0  0  0  0  0  0  0
  142.8084   77.4554  219.6551 H   0  0  0  0  0  0  0  0  0  0  0  0
  142.7489   75.0628  218.9970 H   0  0  0  0  0  0  0  0  0  0  0  0
  1  2  2  0
  2  3  1  0
  3  4  1  0
  4  5  1  0
  5  6  2  0
  6  7  1  0
  7  8  2  0
  8  9  1  0
  9 10  1  0
 10 11  2  0
 10 12  1  0
 12 13  1  0
 13 14  1  0
 14 15  1  0
 15 16  1  0
 16 17  1  0
  9 18  2  0
  4 19  2  0
 19 20  1  0
 20 21  2  0
 21 22  1  0
 22 23  1  0
 23 24  1  0
 24 25  1  0
 25 26  1  0
 26 27  1  0
 27 28  1  0
 22 29  2  0
 29 30  1  0
 30 31  2  0
 31  2  1  0
 18  5  1  0
 31 20  1  0
 17 12  1  0
 28 23  1  0
  3 32  1  0
  3 33  1  0
  6 34  1  0
  7 35  1  0
  8 36  1  0
 13 37  1  0
 13 38  1  0
 14 39  1  0
 14 40  1  0
 16 41  1  0
 16 42  1  0
 17 43  1  0
 17 44  1  0
 18 45  1  0
 21 46  1  0
 24 47  1  0
 24 48  1  0
 25 49  1  0
 25 50  1  0
 27 51  1  0
 27 52  1  0
 28 53  1  0
 28 54  1  0
 29 55  1  0
 30 56  1  0
M  END
>  <smiles>  (23) 
O=C1CC(c2cccc(C(=O)N3CCOCC3)c2)=Nc2cc(N3CCOCC3)ccc21

>  <score_type>  (23) 
oracle

>  <origin>  (23) 
autodockgpu

>  <m_score__min__energy>  (23) 
-9.1199999999999992

>  <m_primary>  (23) 
energy

>  <rmsd>  (23) 
6.299836275809462

>  <m_score__min__rmsd>  (23) 
6.299836275809462

>  <meeko>  (23) 
{"free_energy": -9.05, "intermolecular_energy": -9.95, "internal_energy": -0.72, "cluster_size": 50, "cluster_id": 1, "rank_in_cluster": 35}

>  <energy>  (23) 
-9.06

>  <cluster_rmsd>  (23) 
0.44

>  <cluster>  (23) 
1

$$$$

     RDKit          3D

 56 60  0  0  0  0  0  0  0  0999 V2000
  141.9490   72.8310  219.1410 O   0  0  0  0  0  0  0  0  0  0  0  0
  141.3000   73.2030  220.1440 C   0  0  0  0  0  0  0  0  0  0  0  0
  140.4860   72.2040  220.8570 C   0  0  0  0  0  0  0  0  0  0  0  0
  139.7580   72.8090  222.0140 C   0  0  0  0  0  0  0  0  0  0  0  0
  138.8800   71.9220  222.7820 C   0  0  0  0  0  0  0  0  0  0  0  0
  137.5040   72.0130  222.7550 C   0  0  0  0  0  0  0  0  0  0  0  0
  136.7220   71.1040  223.4740 C   0  0  0  0  0  0  0  0  0  0  0  0
  137.2870   70.0930  224.2340 C   0  0  0  0  0  0  0  0  0  0  0  0
  138.6440   70.0030  224.2640 C   0  0  0  0  0  0  0  0  0  0  0  0
  139.3880   68.9750  225.0090 C   0  0  0  0  0  0  0  0  0  0  0  0
  139.2270   67.7460  224.8220 O   0  0  0  0  0  0  0  0  0  0  0  0
  140.3220   69.4160  225.9810 N   0  0  0  0  0  0  0  0  0  0  0  0
  140.5850   70.8300  226.2470 C   0  0  0  0  0  0  0  0  0  0  0  0
  140.5380   71.1000  227.7330 C   0  0  0  0  0  0  0  0  0  0  0  0
  141.2560   70.2090  228.4890 O   0  0  0  0  0  0  0  0  0  0  0  0
  140.9980   68.8830  228.2730 C   0  0  0  0  0  0  0  0  0  0  0  0
  141.0820   68.4770  226.8170 C   0  0  0  0  0  0  0  0  0  0  0  0
  139.4120   70.8980  223.5520 C   0  0  0  0  0  0  0  0  0  0  0  0
  139.8560   74.0500  222.3410 N   0  0  0  0  0  0  0  0  0  0  0  0
  140.6430   75.0140  221.6720 C   0  0  0  0  0  0  0  0  0  0  0  0
  140.6930   76.3570  222.0500 C   0  0  0  0  0  0  0  0  0  0  0  0
  141.4730   77.2310  221.3040 C   0  0  0  0  0  0  0  0  0  0  0  0
  141.5870   78.6110  221.5740 N   0  0  0  0  0  0  0  0  0  0  0  0
  141.6420   79.6800  220.6340 C   0  0  0  0  0  0  0  0  0  0  0  0
  141.0270   80.9270  221.2820 C   0  0  0  0  0  0  0  0  0  0  0  0
  141.6730   81.3190  222.4350 O   0  0  0  0  0  0  0  0  0  0  0  0
  142.4410   80.3080  223.0140 C   0  0  0  0  0  0  0  0  0  0  0  0
  141.7090   78.9840  223.0010 C   0  0  0  0  0  0  0  0  0  0  0  0
  142.1930   76.7630  220.1960 C   0  0  0  0  0  0  0  0  0  0  0  0
  142.1480   75.4420  219.8200 C   0  0  0  0  0  0  0  0  0  0  0  0
  141.3720   74.5940  220.5690 C   0  0  0  0  0  0  0  0  0  0  0  0
  139.7520   71.7771  220.1576 H   0  0  0  0  0  0  0  0  0  0  0  0
  141.1597   71.4256  221.2445 H   0  0  0  0  0  0  0  0  0  0  0  0
  137.0194   72.8047  222.1648 H   0  0  0  0  0  0  0  0  0  0  0  0
  135.6264   71.1942  223.4351 H   0  0  0  0  0  0  0  0  0  0  0  0
  136.6586   69.3858  224.7951 H   0  0  0  0  0  0  0  0  0  0  0  0
  141.5811   71.0929  225.8614 H   0  0  0  0  0  0  0  0  0  0  0  0
  139.8161   71.4378  225.7477 H   0  0  0  0  0  0  0  0  0  0  0  0
  140.9398   72.1080  227.9134 H   0  0  0  0  0  0  0  0  0  0  0  0
  139.4864   70.9994  228.0396 H   0  0  0  0  0  0  0  0  0  0  0  0
  141.7289   68.2896  228.8419 H   0  0  0  0  0  0  0  0  0  0  0  0
  139.9638   68.6990  228.5993 H   0  0  0  0  0  0  0  0  0  0  0  0
  142.1353   68.4794  226.4998 H   0  0  0  0  0  0  0  0  0  0  0  0
  140.6559   67.4695  226.7014 H   0  0  0  0  0  0  0  0  0  0  0  0
  140.5063   70.7951  223.5964 H   0  0  0  0  0  0  0  0  0  0  0  0
  140.1258   76.7159  222.9215 H   0  0  0  0  0  0  0  0  0  0  0  0
  142.6884   79.8810  220.3609 H   0  0  0  0  0  0  0  0  0  0  0  0
  141.0839   79.4125  219.7246 H   0  0  0  0  0  0  0  0  0  0  0  0
  141.0720   81.7543  220.5584 H   0  0  0  0  0  0  0  0  0  0  0  0
  139.9931   80.6732  221.5589 H   0  0  0  0  0  0  0  0  0  0  0  0
  143.3796   80.2038  222.4500 H   0  0  0  0  0  0  0  0  0  0  0  0
  142.6431   80.5821  224.0600 H   0  0  0  0  0  0  0  0  0  0  0  0
  142.2830   78.2225  223.5493 H   0  0  0  0  0  0  0  0  0  0  0  0
  140.7255   79.0577  223.4881 H   0  0  0  0  0  0  0  0  0  0  0  0
  142.8066   77.4677  219.6156 H   0  0  0  0  0  0  0  0  0  0  0  0
  142.7138   75.0776  218.9499 H   0  0  0  0  0  0  0  0  0  0  0  0
  1  2  2  0
  2  3  1  0
  3  4  1  0
  4  5  1  0
  5  6  2  0
  6  7  1  0
  7  8  2  0
  8  9  1  0
  9 10  1  0
 10 11  2  0
 10 12  1  0
 12 13  1  0
 13 14  1  0
 14 15  1  0
 15 16  1  0
 16 17  1  0
  9 18  2  0
  4 19  2  0
 19 20  1  0
 20 21  2  0
 21 22  1  0
 22 23  1  0
 23 24  1  0
 24 25  1  0
 25 26  1  0
 26 27  1  0
 27 28  1  0
 22 29  2  0
 29 30  1  0
 30 31  2  0
 31  2  1  0
 18  5  1  0
 31 20  1  0
 17 12  1  0
 28 23  1  0
  3 32  1  0
  3 33  1  0
  6 34  1  0
  7 35  1  0
  8 36  1  0
 13 37  1  0
 13 38  1  0
 14 39  1  0
 14 40  1  0
 16 41  1  0
 16 42  1  0
 17 43  1  0
 17 44  1  0
 18 45  1  0
 21 46  1  0
 24 47  1  0
 24 48  1  0
 25 49  1  0
 25 50  1  0
 27 51  1  0
 27 52  1  0
 28 53  1  0
 28 54  1  0
 29 55  1  0
 30 56  1  0
M  END
>  <smiles>  (24) 
O=C1CC(c2cccc(C(=O)N3CCOCC3)c2)=Nc2cc(N3CCOCC3)ccc21

>  <score_type>  (24) 
oracle

>  <origin>  (24) 
autodockgpu

>  <m_score__min__energy>  (24) 
-9.1199999999999992

>  <m_primary>  (24) 
energy

>  <rmsd>  (24) 
6.326900776303406

>  <m_score__min__rmsd>  (24) 
6.326900776303406

>  <meeko>  (24) 
{"free_energy": -9.08, "intermolecular_energy": -9.98, "internal_energy": -0.78, "cluster_size": 50, "cluster_id": 1, "rank_in_cluster": 14}

>  <energy>  (24) 
-9.06

>  <cluster_rmsd>  (24) 
0.63

>  <cluster>  (24) 
1

$$$$

     RDKit          3D

 56 60  0  0  0  0  0  0  0  0999 V2000
  142.6640   72.3290  219.7290 O   0  0  0  0  0  0  0  0  0  0  0  0
  141.8400   72.7930  220.5470 C   0  0  0  0  0  0  0  0  0  0  0  0
  140.9910   71.8480  221.2950 C   0  0  0  0  0  0  0  0  0  0  0  0
  140.0480   72.5590  222.2110 C   0  0  0  0  0  0  0  0  0  0  0  0
  139.1220   71.7260  222.9830 C   0  0  0  0  0  0  0  0  0  0  0  0
  137.7550   71.9150  222.9800 C   0  0  0  0  0  0  0  0  0  0  0  0
  136.9220   71.0550  223.7020 C   0  0  0  0  0  0  0  0  0  0  0  0
  137.4260   69.9960  224.4400 C   0  0  0  0  0  0  0  0  0  0  0  0
  138.7730   69.8090  224.4450 C   0  0  0  0  0  0  0  0  0  0  0  0
  139.4530   68.7210  225.1650 C   0  0  0  0  0  0  0  0  0  0  0  0
  139.2300   67.5080  224.9380 O   0  0  0  0  0  0  0  0  0  0  0  0
  140.3980   69.0820  226.1590 N   0  0  0  0  0  0  0  0  0  0  0  0
  140.7310   70.4720  226.4730 C   0  0  0  0  0  0  0  0  0  0  0  0
  140.6810   70.6970  227.9660 C   0  0  0  0  0  0  0  0  0  0  0  0
  141.3430   69.7470  228.7010 O   0  0  0  0  0  0  0  0  0  0  0  0
  141.0190   68.4440  228.4410 C   0  0  0  0  0  0  0  0  0  0  0  0
  141.0980   68.0790  226.9740 C   0  0  0  0  0  0  0  0  0  0  0  0
  139.5910   70.6570  223.7310 C   0  0  0  0  0  0  0  0  0  0  0  0
  140.0070   73.8390  222.3300 N   0  0  0  0  0  0  0  0  0  0  0  0
  140.8230   74.7540  221.6270 C   0  0  0  0  0  0  0  0  0  0  0  0
  140.7190   76.1380  221.7710 C   0  0  0  0  0  0  0  0  0  0  0  0
  141.5460   76.9520  221.0090 C   0  0  0  0  0  0  0  0  0  0  0  0
  141.5210   78.3630  221.0510 N   0  0  0  0  0  0  0  0  0  0  0  0
  141.5100   79.2660  219.9500 C   0  0  0  0  0  0  0  0  0  0  0  0
  140.7570   80.5340  220.3720 C   0  0  0  0  0  0  0  0  0  0  0  0
  141.3210   81.1680  221.4570 O   0  0  0  0  0  0  0  0  0  0  0  0
  142.1580   80.3450  222.2100 C   0  0  0  0  0  0  0  0  0  0  0  0
  141.5550   78.9710  222.4000 C   0  0  0  0  0  0  0  0  0  0  0  0
  142.4660   76.3840  220.1160 C   0  0  0  0  0  0  0  0  0  0  0  0
  142.5720   75.0220  219.9710 C   0  0  0  0  0  0  0  0  0  0  0  0
  141.7460   74.2350  220.7320 C   0  0  0  0  0  0  0  0  0  0  0  0
  140.4091   71.2482  220.5797 H   0  0  0  0  0  0  0  0  0  0  0  0
  141.6451   71.2079  221.9052 H   0  0  0  0  0  0  0  0  0  0  0  0
  137.3186   72.7463  222.4068 H   0  0  0  0  0  0  0  0  0  0  0  0
  135.8352   71.2239  223.6837 H   0  0  0  0  0  0  0  0  0  0  0  0
  136.7580   69.3281  225.0037 H   0  0  0  0  0  0  0  0  0  0  0  0
  141.7437   70.6947  226.1059 H   0  0  0  0  0  0  0  0  0  0  0  0
  140.0004   71.1345  225.9859 H   0  0  0  0  0  0  0  0  0  0  0  0
  141.1322   71.6766  228.1824 H   0  0  0  0  0  0  0  0  0  0  0  0
  139.6221   70.6411  228.2584 H   0  0  0  0  0  0  0  0  0  0  0  0
  141.7117   67.7960  228.9980 H   0  0  0  0  0  0  0  0  0  0  0  0
  139.9729   68.3045  228.7513 H   0  0  0  0  0  0  0  0  0  0  0  0
  142.1536   68.0353  226.6675 H   0  0  0  0  0  0  0  0  0  0  0  0
  140.6203   67.0997  226.8233 H   0  0  0  0  0  0  0  0  0  0  0  0
  140.6757   70.4760  223.7557 H   0  0  0  0  0  0  0  0  0  0  0  0
  139.9956   76.5756  222.4747 H   0  0  0  0  0  0  0  0  0  0  0  0
  142.5422   79.5228  219.6697 H   0  0  0  0  0  0  0  0  0  0  0  0
  141.0137   78.8017  219.0850 H   0  0  0  0  0  0  0  0  0  0  0  0
  140.7498   81.2342  219.5236 H   0  0  0  0  0  0  0  0  0  0  0  0
  139.7423   80.2273  220.6656 H   0  0  0  0  0  0  0  0  0  0  0  0
  143.1224   80.2440  221.6906 H   0  0  0  0  0  0  0  0  0  0  0  0
  142.2945   80.8033  223.2006 H   0  0  0  0  0  0  0  0  0  0  0  0
  142.1778   78.3684  223.0775 H   0  0  0  0  0  0  0  0  0  0  0  0
  140.5520   79.0244  222.8485 H   0  0  0  0  0  0  0  0  0  0  0  0
  143.1155   77.0419  219.5199 H   0  0  0  0  0  0  0  0  0  0  0  0
  143.2938   74.5784  219.2694 H   0  0  0  0  0  0  0  0  0  0  0  0
  1  2  2  0
  2  3  1  0
  3  4  1  0
  4  5  1  0
  5  6  2  0
  6  7  1  0
  7  8  2  0
  8  9  1  0
  9 10  1  0
 10 11  2  0
 10 12  1  0
 12 13  1  0
 13 14  1  0
 14 15  1  0
 15 16  1  0
 16 17  1  0
  9 18  2  0
  4 19  2  0
 19 20  1  0
 20 21  2  0
 21 22  1  0
 22 23  1  0
 23 24  1  0
 24 25  1  0
 25 26  1  0
 26 27  1  0
 27 28  1  0
 22 29  2  0
 29 30  1  0
 30 31  2  0
 31  2  1  0
 18  5  1  0
 31 20  1  0
 17 12  1  0
 28 23  1  0
  3 32  1  0
  3 33  1  0
  6 34  1  0
  7 35  1  0
  8 36  1  0
 13 37  1  0
 13 38  1  0
 14 39  1  0
 14 40  1  0
 16 41  1  0
 16 42  1  0
 17 43  1  0
 17 44  1  0
 18 45  1  0
 21 46  1  0
 24 47  1  0
 24 48  1  0
 25 49  1  0
 25 50  1  0
 27 51  1  0
 27 52  1  0
 28 53  1  0
 28 54  1  0
 29 55  1  0
 30 56  1  0
M  END
>  <smiles>  (25) 
O=C1CC(c2cccc(C(=O)N3CCOCC3)c2)=Nc2cc(N3CCOCC3)ccc21

>  <score_type>  (25) 
oracle

>  <origin>  (25) 
autodockgpu

>  <m_score__min__energy>  (25) 
-9.1199999999999992

>  <m_primary>  (25) 
energy

>  <rmsd>  (25) 
6.270114612262792

>  <m_score__min__rmsd>  (25) 
6.270114612262792

>  <meeko>  (25) 
{"free_energy": -9.06, "intermolecular_energy": -9.96, "internal_energy": -0.82, "cluster_size": 50, "cluster_id": 1, "rank_in_cluster": 24}

>  <energy>  (25) 
-9.06

>  <cluster_rmsd>  (25) 
0.37

>  <cluster>  (25) 
1

$$$$

     RDKit          3D

 56 60  0  0  0  0  0  0  0  0999 V2000
  142.2460   72.3770  219.4360 O   0  0  0  0  0  0  0  0  0  0  0  0
  141.5210   72.8160  220.3550 C   0  0  0  0  0  0  0  0  0  0  0  0
  140.6980   71.8570  221.1130 C   0  0  0  0  0  0  0  0  0  0  0  0
  139.8750   72.5400  222.1570 C   0  0  0  0  0  0  0  0  0  0  0  0
  138.9820   71.6950  222.9540 C   0  0  0  0  0  0  0  0  0  0  0  0
  137.6140   71.8680  222.9920 C   0  0  0  0  0  0  0  0  0  0  0  0
  136.8120   70.9970  223.7360 C   0  0  0  0  0  0  0  0  0  0  0  0
  137.3500   69.9420  224.4560 C   0  0  0  0  0  0  0  0  0  0  0  0
  138.6990   69.7710  224.4210 C   0  0  0  0  0  0  0  0  0  0  0  0
  139.4130   68.6900  225.1180 C   0  0  0  0  0  0  0  0  0  0  0  0
  139.2210   67.4750  224.8710 O   0  0  0  0  0  0  0  0  0  0  0  0
  140.3540   69.0600  226.1130 N   0  0  0  0  0  0  0  0  0  0  0  0
  140.6520   70.4520  226.4480 C   0  0  0  0  0  0  0  0  0  0  0  0
  140.6050   70.6500  227.9450 C   0  0  0  0  0  0  0  0  0  0  0  0
  141.2970   69.7060  228.6600 O   0  0  0  0  0  0  0  0  0  0  0  0
  141.0070   68.3990  228.3790 C   0  0  0  0  0  0  0  0  0  0  0  0
  141.0860   68.0620  226.9050 C   0  0  0  0  0  0  0  0  0  0  0  0
  139.4850   70.6300  223.6850 C   0  0  0  0  0  0  0  0  0  0  0  0
  139.9070   73.8100  222.3650 N   0  0  0  0  0  0  0  0  0  0  0  0
  140.7000   74.7370  221.6520 C   0  0  0  0  0  0  0  0  0  0  0  0
  140.6770   76.1110  221.8970 C   0  0  0  0  0  0  0  0  0  0  0  0
  141.4710   76.9410  221.1170 C   0  0  0  0  0  0  0  0  0  0  0  0
  141.5180   78.3450  221.2550 N   0  0  0  0  0  0  0  0  0  0  0  0
  141.6180   79.3180  220.2200 C   0  0  0  0  0  0  0  0  0  0  0  0
  140.9110   80.5960  220.6880 C   0  0  0  0  0  0  0  0  0  0  0  0
  141.4440   81.1240  221.8430 O   0  0  0  0  0  0  0  0  0  0  0  0
  142.1910   80.2070  222.5820 C   0  0  0  0  0  0  0  0  0  0  0  0
  141.5070   78.8590  222.6430 C   0  0  0  0  0  0  0  0  0  0  0  0
  142.2790   76.3990  220.1080 C   0  0  0  0  0  0  0  0  0  0  0  0
  142.3060   75.0470  219.8630 C   0  0  0  0  0  0  0  0  0  0  0  0
  141.5140   74.2440  220.6430 C   0  0  0  0  0  0  0  0  0  0  0  0
  140.0270   71.3338  220.4158 H   0  0  0  0  0  0  0  0  0  0  0  0
  141.3725   71.1489  221.6167 H   0  0  0  0  0  0  0  0  0  0  0  0
  137.1515   72.6955  222.4341 H   0  0  0  0  0  0  0  0  0  0  0  0
  135.7233   71.1536  223.7502 H   0  0  0  0  0  0  0  0  0  0  0  0
  136.7068   69.2647  225.0370 H   0  0  0  0  0  0  0  0  0  0  0  0
  141.6563   70.7075  226.0791 H   0  0  0  0  0  0  0  0  0  0  0  0
  139.9015   71.1033  225.9761 H   0  0  0  0  0  0  0  0  0  0  0  0
  141.0307   71.6377  228.1757 H   0  0  0  0  0  0  0  0  0  0  0  0
  139.5497   70.5601  228.2423 H   0  0  0  0  0  0  0  0  0  0  0  0
  141.7210   67.7607  228.9201 H   0  0  0  0  0  0  0  0  0  0  0  0
  139.9673   68.2253  228.6935 H   0  0  0  0  0  0  0  0  0  0  0  0
  142.1402   68.0521  226.5912 H   0  0  0  0  0  0  0  0  0  0  0  0
  140.6339   67.0729  226.7397 H   0  0  0  0  0  0  0  0  0  0  0  0
  140.5720   70.4615  223.6769 H   0  0  0  0  0  0  0  0  0  0  0  0
  140.0421   76.5281  222.6926 H   0  0  0  0  0  0  0  0  0  0  0  0
  142.6767   79.5334  220.0135 H   0  0  0  0  0  0  0  0  0  0  0  0
  141.1478   78.9410  219.2998 H   0  0  0  0  0  0  0  0  0  0  0  0
  140.9900   81.3500  219.8910 H   0  0  0  0  0  0  0  0  0  0  0  0
  139.8663   80.3285  220.9050 H   0  0  0  0  0  0  0  0  0  0  0  0
  143.1776   80.0866  222.1107 H   0  0  0  0  0  0  0  0  0  0  0  0
  142.2925   80.5903  223.6081 H   0  0  0  0  0  0  0  0  0  0  0  0
  142.0578   78.1785  223.3090 H   0  0  0  0  0  0  0  0  0  0  0  0
  140.4842   78.9387  223.0399 H   0  0  0  0  0  0  0  0  0  0  0  0
  142.9042   77.0694  219.4999 H   0  0  0  0  0  0  0  0  0  0  0  0
  142.9401   74.6242  219.0698 H   0  0  0  0  0  0  0  0  0  0  0  0
  1  2  2  0
  2  3  1  0
  3  4  1  0
  4  5  1  0
  5  6  2  0
  6  7  1  0
  7  8  2  0
  8  9  1  0
  9 10  1  0
 10 11  2  0
 10 12  1  0
 12 13  1  0
 13 14  1  0
 14 15  1  0
 15 16  1  0
 16 17  1  0
  9 18  2  0
  4 19  2  0
 19 20  1  0
 20 21  2  0
 21 22  1  0
 22 23  1  0
 23 24  1  0
 24 25  1  0
 25 26  1  0
 26 27  1  0
 27 28  1  0
 22 29  2  0
 29 30  1  0
 30 31  2  0
 31  2  1  0
 18  5  1  0
 31 20  1  0
 17 12  1  0
 28 23  1  0
  3 32  1  0
  3 33  1  0
  6 34  1  0
  7 35  1  0
  8 36  1  0
 13 37  1  0
 13 38  1  0
 14 39  1  0
 14 40  1  0
 16 41  1  0
 16 42  1  0
 17 43  1  0
 17 44  1  0
 18 45  1  0
 21 46  1  0
 24 47  1  0
 24 48  1  0
 25 49  1  0
 25 50  1  0
 27 51  1  0
 27 52  1  0
 28 53  1  0
 28 54  1  0
 29 55  1  0
 30 56  1  0
M  END
>  <smiles>  (26) 
O=C1CC(c2cccc(C(=O)N3CCOCC3)c2)=Nc2cc(N3CCOCC3)ccc21

>  <score_type>  (26) 
oracle

>  <origin>  (26) 
autodockgpu

>  <m_score__min__energy>  (26) 
-9.1199999999999992

>  <m_primary>  (26) 
energy

>  <rmsd>  (26) 
6.2916571901425415

>  <m_score__min__rmsd>  (26) 
6.2916571901425415

>  <meeko>  (26) 
{"free_energy": -9.06, "intermolecular_energy": -9.96, "internal_energy": -0.83, "cluster_size": 50, "cluster_id": 1, "rank_in_cluster": 27}

>  <energy>  (26) 
-9.06

>  <cluster_rmsd>  (26) 
0.46

>  <cluster>  (26) 
1

$$$$

     RDKit          3D

 56 60  0  0  0  0  0  0  0  0999 V2000
  142.3030   72.3050  219.5070 O   0  0  0  0  0  0  0  0  0  0  0  0
  141.5600   72.7550  220.4070 C   0  0  0  0  0  0  0  0  0  0  0  0
  140.7390   71.8040  221.1750 C   0  0  0  0  0  0  0  0  0  0  0  0
  139.8940   72.4990  222.1930 C   0  0  0  0  0  0  0  0  0  0  0  0
  139.0000   71.6600  222.9970 C   0  0  0  0  0  0  0  0  0  0  0  0
  137.6340   71.8420  223.0430 C   0  0  0  0  0  0  0  0  0  0  0  0
  136.8320   70.9770  223.7930 C   0  0  0  0  0  0  0  0  0  0  0  0
  137.3670   69.9200  224.5110 C   0  0  0  0  0  0  0  0  0  0  0  0
  138.7150   69.7410  224.4690 C   0  0  0  0  0  0  0  0  0  0  0  0
  139.4260   68.6570  225.1630 C   0  0  0  0  0  0  0  0  0  0  0  0
  139.2330   67.4430  224.9130 O   0  0  0  0  0  0  0  0  0  0  0  0
  140.3670   69.0220  226.1600 N   0  0  0  0  0  0  0  0  0  0  0  0
  140.6670   70.4130  226.5000 C   0  0  0  0  0  0  0  0  0  0  0  0
  140.6190   70.6070  227.9970 C   0  0  0  0  0  0  0  0  0  0  0  0
  141.3090   69.6600  228.7090 O   0  0  0  0  0  0  0  0  0  0  0  0
  141.0170   68.3540  228.4250 C   0  0  0  0  0  0  0  0  0  0  0  0
  141.0970   68.0210  226.9500 C   0  0  0  0  0  0  0  0  0  0  0  0
  139.5020   70.5940  223.7270 C   0  0  0  0  0  0  0  0  0  0  0  0
  139.9080   73.7730  222.3730 N   0  0  0  0  0  0  0  0  0  0  0  0
  140.6990   74.6950  221.6500 C   0  0  0  0  0  0  0  0  0  0  0  0
  140.6560   76.0730  221.8650 C   0  0  0  0  0  0  0  0  0  0  0  0
  141.4510   76.8950  221.0770 C   0  0  0  0  0  0  0  0  0  0  0  0
  141.4800   78.3020  221.1850 N   0  0  0  0  0  0  0  0  0  0  0  0
  141.3730   79.0870  222.3680 C   0  0  0  0  0  0  0  0  0  0  0  0
  142.1650   80.3840  222.1620 C   0  0  0  0  0  0  0  0  0  0  0  0
  141.7210   81.1330  221.0940 O   0  0  0  0  0  0  0  0  0  0  0  0
  140.9700   80.4000  220.1750 C   0  0  0  0  0  0  0  0  0  0  0  0
  141.5900   79.0460  219.9100 C   0  0  0  0  0  0  0  0  0  0  0  0
  142.2790   76.3410  220.0910 C   0  0  0  0  0  0  0  0  0  0  0  0
  142.3250   74.9850  219.8760 C   0  0  0  0  0  0  0  0  0  0  0  0
  141.5320   74.1890  220.6630 C   0  0  0  0  0  0  0  0  0  0  0  0
  140.0836   71.2575  220.4809 H   0  0  0  0  0  0  0  0  0  0  0  0
  141.4155   71.1159  221.7032 H   0  0  0  0  0  0  0  0  0  0  0  0
  137.1732   72.6717  222.4869 H   0  0  0  0  0  0  0  0  0  0  0  0
  135.7444   71.1404  223.8137 H   0  0  0  0  0  0  0  0  0  0  0  0
  136.7228   69.2472  225.0961 H   0  0  0  0  0  0  0  0  0  0  0  0
  141.6721   70.6680  226.1328 H   0  0  0  0  0  0  0  0  0  0  0  0
  139.9178   71.0667  226.0296 H   0  0  0  0  0  0  0  0  0  0  0  0
  141.0460   71.5934  228.2309 H   0  0  0  0  0  0  0  0  0  0  0  0
  139.5634   70.5183  228.2935 H   0  0  0  0  0  0  0  0  0  0  0  0
  141.7294   67.7131  228.9652 H   0  0  0  0  0  0  0  0  0  0  0  0
  139.9769   68.1809  228.7385 H   0  0  0  0  0  0  0  0  0  0  0  0
  142.1515   68.0107  226.6372 H   0  0  0  0  0  0  0  0  0  0  0  0
  140.6438   67.0329  226.7815 H   0  0  0  0  0  0  0  0  0  0  0  0
  140.5880   70.4197  223.7131 H   0  0  0  0  0  0  0  0  0  0  0  0
  140.0056   76.4996  222.6429 H   0  0  0  0  0  0  0  0  0  0  0  0
  140.3165   79.3238  222.5624 H   0  0  0  0  0  0  0  0  0  0  0  0
  141.7752   78.5312  223.2278 H   0  0  0  0  0  0  0  0  0  0  0  0
  142.0800   80.9929  223.0741 H   0  0  0  0  0  0  0  0  0  0  0  0
  143.2055   80.0984  221.9479 H   0  0  0  0  0  0  0  0  0  0  0  0
  139.9554   80.2568  220.5752 H   0  0  0  0  0  0  0  0  0  0  0  0
  140.9410   80.9587  219.2279 H   0  0  0  0  0  0  0  0  0  0  0  0
  141.0433   78.5228  219.1116 H   0  0  0  0  0  0  0  0  0  0  0  0
  142.6353   79.1345  219.5790 H   0  0  0  0  0  0  0  0  0  0  0  0
  142.9046   77.0055  219.4770 H   0  0  0  0  0  0  0  0  0  0  0  0
  142.9745   74.5529  219.1005 H   0  0  0  0  0  0  0  0  0  0  0  0
  1  2  2  0
  2  3  1  0
  3  4  1  0
  4  5  1  0
  5  6  2  0
  6  7  1  0
  7  8  2  0
  8  9  1  0
  9 10  1  0
 10 11  2  0
 10 12  1  0
 12 13  1  0
 13 14  1  0
 14 15  1  0
 15 16  1  0
 16 17  1  0
  9 18  2  0
  4 19  2  0
 19 20  1  0
 20 21  2  0
 21 22  1  0
 22 23  1  0
 23 24  1  0
 24 25  1  0
 25 26  1  0
 26 27  1  0
 27 28  1  0
 22 29  2  0
 29 30  1  0
 30 31  2  0
 31  2  1  0
 18  5  1  0
 31 20  1  0
 17 12  1  0
 28 23  1  0
  3 32  1  0
  3 33  1  0
  6 34  1  0
  7 35  1  0
  8 36  1  0
 13 37  1  0
 13 38  1  0
 14 39  1  0
 14 40  1  0
 16 41  1  0
 16 42  1  0
 17 43  1  0
 17 44  1  0
 18 45  1  0
 21 46  1  0
 24 47  1  0
 24 48  1  0
 25 49  1  0
 25 50  1  0
 27 51  1  0
 27 52  1  0
 28 53  1  0
 28 54  1  0
 29 55  1  0
 30 56  1  0
M  END
>  <smiles>  (27) 
O=C1CC(c2cccc(C(=O)N3CCOCC3)c2)=Nc2cc(N3CCOCC3)ccc21

>  <score_type>  (27) 
oracle

>  <origin>  (27) 
autodockgpu

>  <m_score__min__energy>  (27) 
-9.1199999999999992

>  <m_primary>  (27) 
energy

>  <rmsd>  (27) 
6.286940786076638

>  <m_score__min__rmsd>  (27) 
6.286940786076638

>  <meeko>  (27) 
{"free_energy": -8.98, "intermolecular_energy": -9.88, "internal_energy": -0.83, "cluster_size": 50, "cluster_id": 1, "rank_in_cluster": 43}

>  <energy>  (27) 
-9.06

>  <cluster_rmsd>  (27) 
0.49

>  <cluster>  (27) 
1

$$$$

     RDKit          3D

 56 60  0  0  0  0  0  0  0  0999 V2000
  141.7670   72.9570  219.0340 O   0  0  0  0  0  0  0  0  0  0  0  0
  141.1610   73.3010  220.0720 C   0  0  0  0  0  0  0  0  0  0  0  0
  140.3550   72.2890  220.7770 C   0  0  0  0  0  0  0  0  0  0  0  0
  139.6790   72.8620  221.9810 C   0  0  0  0  0  0  0  0  0  0  0  0
  138.8130   71.9600  222.7460 C   0  0  0  0  0  0  0  0  0  0  0  0
  137.4370   72.0450  222.7340 C   0  0  0  0  0  0  0  0  0  0  0  0
  136.6660   71.1230  223.4500 C   0  0  0  0  0  0  0  0  0  0  0  0
  137.2440   70.1050  224.1900 C   0  0  0  0  0  0  0  0  0  0  0  0
  138.6010   70.0210  224.2040 C   0  0  0  0  0  0  0  0  0  0  0  0
  139.3570   68.9870  224.9280 C   0  0  0  0  0  0  0  0  0  0  0  0
  139.2130   67.7600  224.7140 O   0  0  0  0  0  0  0  0  0  0  0  0
  140.2850   69.4190  225.9100 N   0  0  0  0  0  0  0  0  0  0  0  0
  140.5290   70.8290  226.2080 C   0  0  0  0  0  0  0  0  0  0  0  0
  140.4760   71.0660  227.6990 C   0  0  0  0  0  0  0  0  0  0  0  0
  141.2060   70.1680  228.4370 O   0  0  0  0  0  0  0  0  0  0  0  0
  140.9650   68.8440  228.1920 C   0  0  0  0  0  0  0  0  0  0  0  0
  141.0560   68.4710  226.7270 C   0  0  0  0  0  0  0  0  0  0  0  0
  139.3570   70.9290  223.4960 C   0  0  0  0  0  0  0  0  0  0  0  0
  139.8100   74.0870  222.3500 N   0  0  0  0  0  0  0  0  0  0  0  0
  140.5890   75.0640  221.6880 C   0  0  0  0  0  0  0  0  0  0  0  0
  140.6750   76.3900  222.1130 C   0  0  0  0  0  0  0  0  0  0  0  0
  141.4430   77.2790  221.3730 C   0  0  0  0  0  0  0  0  0  0  0  0
  141.5910   78.6460  221.6890 N   0  0  0  0  0  0  0  0  0  0  0  0
  141.7680   79.7340  220.7880 C   0  0  0  0  0  0  0  0  0  0  0  0
  141.1520   80.9900  221.4170 C   0  0  0  0  0  0  0  0  0  0  0  0
  141.7140   81.3260  222.6290 O   0  0  0  0  0  0  0  0  0  0  0  0
  142.3880   80.2690  223.2420 C   0  0  0  0  0  0  0  0  0  0  0  0
  141.6070   78.9790  223.1320 C   0  0  0  0  0  0  0  0  0  0  0  0
  142.1160   76.8410  220.2240 C   0  0  0  0  0  0  0  0  0  0  0  0
  142.0350   75.5360  219.8010 C   0  0  0  0  0  0  0  0  0  0  0  0
  141.2710   74.6740  220.5450 C   0  0  0  0  0  0  0  0  0  0  0  0
  139.5894   71.9005  220.0893 H   0  0  0  0  0  0  0  0  0  0  0  0
  141.0283   71.4859  221.1111 H   0  0  0  0  0  0  0  0  0  0  0  0
  136.9429   72.8417  222.1586 H   0  0  0  0  0  0  0  0  0  0  0  0
  135.5697   71.2090  223.4245 H   0  0  0  0  0  0  0  0  0  0  0  0
  136.6251   69.3874  224.7485 H   0  0  0  0  0  0  0  0  0  0  0  0
  141.5223   71.1132  225.8304 H   0  0  0  0  0  0  0  0  0  0  0  0
  139.7528   71.4374  225.7209 H   0  0  0  0  0  0  0  0  0  0  0  0
  140.8634   72.0753  227.9020 H   0  0  0  0  0  0  0  0  0  0  0  0
  139.4255   70.9444  228.0016 H   0  0  0  0  0  0  0  0  0  0  0  0
  141.7026   68.2476  228.7490 H   0  0  0  0  0  0  0  0  0  0  0  0
  139.9328   68.6397  228.5129 H   0  0  0  0  0  0  0  0  0  0  0  0
  142.1096   68.4935  226.4117 H   0  0  0  0  0  0  0  0  0  0  0  0
  140.6426   67.4611  226.5887 H   0  0  0  0  0  0  0  0  0  0  0  0
  140.4521   70.8306  223.5275 H   0  0  0  0  0  0  0  0  0  0  0  0
  140.1447   76.7247  223.0168 H   0  0  0  0  0  0  0  0  0  0  0  0
  142.8410   79.8967  220.6085 H   0  0  0  0  0  0  0  0  0  0  0  0
  141.2777   79.5131  219.8284 H   0  0  0  0  0  0  0  0  0  0  0  0
  141.2909   81.8318  220.7227 H   0  0  0  0  0  0  0  0  0  0  0  0
  140.0891   80.7738  221.6003 H   0  0  0  0  0  0  0  0  0  0  0  0
  143.3659   80.1379  222.7556 H   0  0  0  0  0  0  0  0  0  0  0  0
  142.5115   80.5091  224.3083 H   0  0  0  0  0  0  0  0  0  0  0  0
  142.1013   78.1806  223.7050 H   0  0  0  0  0  0  0  0  0  0  0  0
  140.5897   79.0828  223.5375 H   0  0  0  0  0  0  0  0  0  0  0  0
  142.7216   77.5569  219.6489 H   0  0  0  0  0  0  0  0  0  0  0  0
  142.5637   75.1954  218.8985 H   0  0  0  0  0  0  0  0  0  0  0  0
  1  2  2  0
  2  3  1  0
  3  4  1  0
  4  5  1  0
  5  6  2  0
  6  7  1  0
  7  8  2  0
  8  9  1  0
  9 10  1  0
 10 11  2  0
 10 12  1  0
 12 13  1  0
 13 14  1  0
 14 15  1  0
 15 16  1  0
 16 17  1  0
  9 18  2  0
  4 19  2  0
 19 20  1  0
 20 21  2  0
 21 22  1  0
 22 23  1  0
 23 24  1  0
 24 25  1  0
 25 26  1  0
 26 27  1  0
 27 28  1  0
 22 29  2  0
 29 30  1  0
 30 31  2  0
 31  2  1  0
 18  5  1  0
 31 20  1  0
 17 12  1  0
 28 23  1  0
  3 32  1  0
  3 33  1  0
  6 34  1  0
  7 35  1  0
  8 36  1  0
 13 37  1  0
 13 38  1  0
 14 39  1  0
 14 40  1  0
 16 41  1  0
 16 42  1  0
 17 43  1  0
 17 44  1  0
 18 45  1  0
 21 46  1  0
 24 47  1  0
 24 48  1  0
 25 49  1  0
 25 50  1  0
 27 51  1  0
 27 52  1  0
 28 53  1  0
 28 54  1  0
 29 55  1  0
 30 56  1  0
M  END
>  <smiles>  (28) 
O=C1CC(c2cccc(C(=O)N3CCOCC3)c2)=Nc2cc(N3CCOCC3)ccc21

>  <score_type>  (28) 
oracle

>  <origin>  (28) 
autodockgpu

>  <m_score__min__energy>  (28) 
-9.1199999999999992

>  <m_primary>  (28) 
energy

>  <rmsd>  (28) 
6.345132216630298

>  <m_score__min__rmsd>  (28) 
6.345132216630298

>  <meeko>  (28) 
{"free_energy": -9.06, "intermolecular_energy": -9.95, "internal_energy": -0.8, "cluster_size": 50, "cluster_id": 1, "rank_in_cluster": 29}

>  <energy>  (28) 
-9.06

>  <cluster_rmsd>  (28) 
0.45

>  <cluster>  (28) 
1

$$$$

     RDKit          3D

 56 60  0  0  0  0  0  0  0  0999 V2000
  141.9790   72.8900  219.1240 O   0  0  0  0  0  0  0  0  0  0  0  0
  141.3160   73.2450  220.1230 C   0  0  0  0  0  0  0  0  0  0  0  0
  140.4980   72.2330  220.8140 C   0  0  0  0  0  0  0  0  0  0  0  0
  139.7530   72.8190  221.9690 C   0  0  0  0  0  0  0  0  0  0  0  0
  138.8710   71.9170  222.7140 C   0  0  0  0  0  0  0  0  0  0  0  0
  137.4940   71.9830  222.6490 C   0  0  0  0  0  0  0  0  0  0  0  0
  136.7090   71.0620  223.3480 C   0  0  0  0  0  0  0  0  0  0  0  0
  137.2710   70.0620  224.1260 C   0  0  0  0  0  0  0  0  0  0  0  0
  138.6280   69.9970  224.1940 C   0  0  0  0  0  0  0  0  0  0  0  0
  139.3690   68.9850  224.9620 C   0  0  0  0  0  0  0  0  0  0  0  0
  139.2030   67.7520  224.8050 O   0  0  0  0  0  0  0  0  0  0  0  0
  140.3070   69.4450  225.9200 N   0  0  0  0  0  0  0  0  0  0  0  0
  140.5770   70.8640  226.1520 C   0  0  0  0  0  0  0  0  0  0  0  0
  140.5340   71.1690  227.6310 C   0  0  0  0  0  0  0  0  0  0  0  0
  141.2510   70.2940  228.4070 O   0  0  0  0  0  0  0  0  0  0  0  0
  140.9870   68.9640  228.2240 C   0  0  0  0  0  0  0  0  0  0  0  0
  141.0660   68.5230  226.7780 C   0  0  0  0  0  0  0  0  0  0  0  0
  139.3990   70.9050  223.5010 C   0  0  0  0  0  0  0  0  0  0  0  0
  139.8400   74.0560  222.3140 N   0  0  0  0  0  0  0  0  0  0  0  0
  140.6300   75.0330  221.6660 C   0  0  0  0  0  0  0  0  0  0  0  0
  140.6680   76.3710  222.0620 C   0  0  0  0  0  0  0  0  0  0  0  0
  141.4530   77.2590  221.3380 C   0  0  0  0  0  0  0  0  0  0  0  0
  141.5570   78.6360  221.6270 N   0  0  0  0  0  0  0  0  0  0  0  0
  141.5110   79.7240  220.7090 C   0  0  0  0  0  0  0  0  0  0  0  0
  140.9220   80.9420  221.4300 C   0  0  0  0  0  0  0  0  0  0  0  0
  141.6490   81.3270  222.5360 O   0  0  0  0  0  0  0  0  0  0  0  0
  142.4830   80.3250  223.0310 C   0  0  0  0  0  0  0  0  0  0  0  0
  141.7840   78.9840  223.0480 C   0  0  0  0  0  0  0  0  0  0  0  0
  142.1890   76.8090  220.2330 C   0  0  0  0  0  0  0  0  0  0  0  0
  142.1560   75.4930  219.8400 C   0  0  0  0  0  0  0  0  0  0  0  0
  141.3750   74.6320  220.5670 C   0  0  0  0  0  0  0  0  0  0  0  0
  139.7749   71.8113  220.1004 H   0  0  0  0  0  0  0  0  0  0  0  0
  141.1712   71.4535  221.2002 H   0  0  0  0  0  0  0  0  0  0  0  0
  137.0118   72.7647  222.0437 H   0  0  0  0  0  0  0  0  0  0  0  0
  135.6135   71.1327  223.2788 H   0  0  0  0  0  0  0  0  0  0  0  0
  136.6401   69.3442  224.6708 H   0  0  0  0  0  0  0  0  0  0  0  0
  141.5736   71.1132  225.7586 H   0  0  0  0  0  0  0  0  0  0  0  0
  139.8100   71.4634  225.6398 H   0  0  0  0  0  0  0  0  0  0  0  0
  140.9391   72.1798  227.7866 H   0  0  0  0  0  0  0  0  0  0  0  0
  139.4827   71.0785  227.9418 H   0  0  0  0  0  0  0  0  0  0  0  0
  141.7168   68.3815  228.8054 H   0  0  0  0  0  0  0  0  0  0  0  0
  139.9529   68.7919  228.5573 H   0  0  0  0  0  0  0  0  0  0  0  0
  142.1186   68.5138  226.4586 H   0  0  0  0  0  0  0  0  0  0  0  0
  140.6355   67.5148  226.6878 H   0  0  0  0  0  0  0  0  0  0  0  0
  140.4933   70.8223  223.5764 H   0  0  0  0  0  0  0  0  0  0  0  0
  140.0875   76.7154  222.9306 H   0  0  0  0  0  0  0  0  0  0  0  0
  142.5270   79.9562  220.3571 H   0  0  0  0  0  0  0  0  0  0  0  0
  140.8874   79.4604  219.8420 H   0  0  0  0  0  0  0  0  0  0  0  0
  140.8901   81.7841  220.7230 H   0  0  0  0  0  0  0  0  0  0  0  0
  139.9196   80.6576  221.7827 H   0  0  0  0  0  0  0  0  0  0  0  0
  143.3762   80.2550  222.3928 H   0  0  0  0  0  0  0  0  0  0  0  0
  142.7604   80.5840  224.0634 H   0  0  0  0  0  0  0  0  0  0  0  0
  142.4178   78.2266  223.5324 H   0  0  0  0  0  0  0  0  0  0  0  0
  140.8412   79.0233  223.6133 H   0  0  0  0  0  0  0  0  0  0  0  0
  142.8056   77.5243  219.6690 H   0  0  0  0  0  0  0  0  0  0  0  0
  142.7354   75.1426  218.9731 H   0  0  0  0  0  0  0  0  0  0  0  0
  1  2  2  0
  2  3  1  0
  3  4  1  0
  4  5  1  0
  5  6  2  0
  6  7  1  0
  7  8  2  0
  8  9  1  0
  9 10  1  0
 10 11  2  0
 10 12  1  0
 12 13  1  0
 13 14  1  0
 14 15  1  0
 15 16  1  0
 16 17  1  0
  9 18  2  0
  4 19  2  0
 19 20  1  0
 20 21  2  0
 21 22  1  0
 22 23  1  0
 23 24  1  0
 24 25  1  0
 25 26  1  0
 26 27  1  0
 27 28  1  0
 22 29  2  0
 29 30  1  0
 30 31  2  0
 31  2  1  0
 18  5  1  0
 31 20  1  0
 17 12  1  0
 28 23  1  0
  3 32  1  0
  3 33  1  0
  6 34  1  0
  7 35  1  0
  8 36  1  0
 13 37  1  0
 13 38  1  0
 14 39  1  0
 14 40  1  0
 16 41  1  0
 16 42  1  0
 17 43  1  0
 17 44  1  0
 18 45  1  0
 21 46  1  0
 24 47  1  0
 24 48  1  0
 25 49  1  0
 25 50  1  0
 27 51  1  0
 27 52  1  0
 28 53  1  0
 28 54  1  0
 29 55  1  0
 30 56  1  0
M  END
>  <smiles>  (29) 
O=C1CC(c2cccc(C(=O)N3CCOCC3)c2)=Nc2cc(N3CCOCC3)ccc21

>  <score_type>  (29) 
oracle

>  <origin>  (29) 
autodockgpu

>  <m_score__min__energy>  (29) 
-9.1199999999999992

>  <m_primary>  (29) 
energy

>  <rmsd>  (29) 
6.314472196590121

>  <m_score__min__rmsd>  (29) 
6.314472196590121

>  <meeko>  (29) 
{"free_energy": -9.12, "intermolecular_energy": -10.01, "internal_energy": -0.74, "cluster_size": 50, "cluster_id": 1, "rank_in_cluster": 1}

>  <energy>  (29) 
-9.06

>  <cluster_rmsd>  (29) 
0.13

>  <cluster>  (29) 
1

$$$$

     RDKit          3D

 56 60  0  0  0  0  0  0  0  0999 V2000
  142.4740   72.3660  219.5980 O   0  0  0  0  0  0  0  0  0  0  0  0
  141.6870   72.8220  220.4560 C   0  0  0  0  0  0  0  0  0  0  0  0
  140.8500   71.8730  221.2100 C   0  0  0  0  0  0  0  0  0  0  0  0
  139.9520   72.5750  222.1770 C   0  0  0  0  0  0  0  0  0  0  0  0
  139.0400   71.7380  222.9610 C   0  0  0  0  0  0  0  0  0  0  0  0
  137.6720   71.9170  222.9720 C   0  0  0  0  0  0  0  0  0  0  0  0
  136.8520   71.0540  223.7060 C   0  0  0  0  0  0  0  0  0  0  0  0
  137.3710   70.0010  224.4410 C   0  0  0  0  0  0  0  0  0  0  0  0
  138.7200   69.8240  224.4330 C   0  0  0  0  0  0  0  0  0  0  0  0
  139.4150   68.7430  225.1500 C   0  0  0  0  0  0  0  0  0  0  0  0
  139.2090   67.5280  224.9190 O   0  0  0  0  0  0  0  0  0  0  0  0
  140.3560   69.1140  226.1440 N   0  0  0  0  0  0  0  0  0  0  0  0
  140.6710   70.5070  226.4620 C   0  0  0  0  0  0  0  0  0  0  0  0
  140.6180   70.7280  227.9550 C   0  0  0  0  0  0  0  0  0  0  0  0
  141.2940   69.7840  228.6870 O   0  0  0  0  0  0  0  0  0  0  0  0
  140.9870   68.4780  228.4230 C   0  0  0  0  0  0  0  0  0  0  0  0
  141.0700   68.1190  226.9550 C   0  0  0  0  0  0  0  0  0  0  0  0
  139.5240   70.6750  223.7080 C   0  0  0  0  0  0  0  0  0  0  0  0
  139.9370   73.8530  222.3290 N   0  0  0  0  0  0  0  0  0  0  0  0
  140.7420   74.7720  221.6200 C   0  0  0  0  0  0  0  0  0  0  0  0
  140.6670   76.1530  221.8020 C   0  0  0  0  0  0  0  0  0  0  0  0
  141.4800   76.9730  221.0300 C   0  0  0  0  0  0  0  0  0  0  0  0
  141.4810   78.3820  221.1080 N   0  0  0  0  0  0  0  0  0  0  0  0
  141.4720   79.3130  220.0300 C   0  0  0  0  0  0  0  0  0  0  0  0
  140.7480   80.5830  220.4930 C   0  0  0  0  0  0  0  0  0  0  0  0
  141.3350   81.1800  221.5870 O   0  0  0  0  0  0  0  0  0  0  0  0
  142.1660   80.3230  222.3090 C   0  0  0  0  0  0  0  0  0  0  0  0
  141.5410   78.9550  222.4710 C   0  0  0  0  0  0  0  0  0  0  0  0
  142.3580   76.4120  220.0910 C   0  0  0  0  0  0  0  0  0  0  0  0
  142.4360   75.0530  219.9090 C   0  0  0  0  0  0  0  0  0  0  0  0
  141.6240   74.2610  220.6800 C   0  0  0  0  0  0  0  0  0  0  0  0
  140.2331   71.3009  220.5014 H   0  0  0  0  0  0  0  0  0  0  0  0
  141.5148   71.2077  221.7804 H   0  0  0  0  0  0  0  0  0  0  0  0
  137.2238   72.7430  222.4003 H   0  0  0  0  0  0  0  0  0  0  0  0
  135.7640   71.2161  223.6994 H   0  0  0  0  0  0  0  0  0  0  0  0
  136.7137   69.3294  225.0128 H   0  0  0  0  0  0  0  0  0  0  0  0
  141.6809   70.7435  226.0957 H   0  0  0  0  0  0  0  0  0  0  0  0
  139.9316   71.1611  225.9767 H   0  0  0  0  0  0  0  0  0  0  0  0
  141.0558   71.7131  228.1739 H   0  0  0  0  0  0  0  0  0  0  0  0
  139.5601   70.6578  228.2480 H   0  0  0  0  0  0  0  0  0  0  0  0
  141.6884   67.8373  228.9775 H   0  0  0  0  0  0  0  0  0  0  0  0
  139.9431   68.3237  228.7335 H   0  0  0  0  0  0  0  0  0  0  0  0
  142.1259   68.0910  226.6477 H   0  0  0  0  0  0  0  0  0  0  0  0
  140.6058   67.1337  226.8016 H   0  0  0  0  0  0  0  0  0  0  0  0
  140.6102   70.5019  223.7223 H   0  0  0  0  0  0  0  0  0  0  0  0
  139.9774   76.5843  222.5426 H   0  0  0  0  0  0  0  0  0  0  0  0
  142.5050   79.5583  219.7424 H   0  0  0  0  0  0  0  0  0  0  0  0
  140.9559   78.8795  219.1607 H   0  0  0  0  0  0  0  0  0  0  0  0
  140.7440   81.3044  219.6626 H   0  0  0  0  0  0  0  0  0  0  0  0
  139.7316   80.2866  220.7915 H   0  0  0  0  0  0  0  0  0  0  0  0
  143.1225   80.2186  221.7758 H   0  0  0  0  0  0  0  0  0  0  0  0
  142.3217   80.7532  223.3094 H   0  0  0  0  0  0  0  0  0  0  0  0
  142.1606   78.3247  223.1258 H   0  0  0  0  0  0  0  0  0  0  0  0
  140.5441   79.0146  222.9321 H   0  0  0  0  0  0  0  0  0  0  0  0
  142.9971   77.0740  219.4882 H   0  0  0  0  0  0  0  0  0  0  0  0
  143.1249   74.6155  219.1714 H   0  0  0  0  0  0  0  0  0  0  0  0
  1  2  2  0
  2  3  1  0
  3  4  1  0
  4  5  1  0
  5  6  2  0
  6  7  1  0
  7  8  2  0
  8  9  1  0
  9 10  1  0
 10 11  2  0
 10 12  1  0
 12 13  1  0
 13 14  1  0
 14 15  1  0
 15 16  1  0
 16 17  1  0
  9 18  2  0
  4 19  2  0
 19 20  1  0
 20 21  2  0
 21 22  1  0
 22 23  1  0
 23 24  1  0
 24 25  1  0
 25 26  1  0
 26 27  1  0
 27 28  1  0
 22 29  2  0
 29 30  1  0
 30 31  2  0
 31  2  1  0
 18  5  1  0
 31 20  1  0
 17 12  1  0
 28 23  1  0
  3 32  1  0
  3 33  1  0
  6 34  1  0
  7 35  1  0
  8 36  1  0
 13 37  1  0
 13 38  1  0
 14 39  1  0
 14 40  1  0
 16 41  1  0
 16 42  1  0
 17 43  1  0
 17 44  1  0
 18 45  1  0
 21 46  1  0
 24 47  1  0
 24 48  1  0
 25 49  1  0
 25 50  1  0
 27 51  1  0
 27 52  1  0
 28 53  1  0
 28 54  1  0
 29 55  1  0
 30 56  1  0
M  END
>  <smiles>  (30) 
O=C1CC(c2cccc(C(=O)N3CCOCC3)c2)=Nc2cc(N3CCOCC3)ccc21

>  <score_type>  (30) 
oracle

>  <origin>  (30) 
autodockgpu

>  <m_score__min__energy>  (30) 
-9.1199999999999992

>  <m_primary>  (30) 
energy

>  <rmsd>  (30) 
6.27794047089443

>  <m_score__min__rmsd>  (30) 
6.27794047089443

>  <meeko>  (30) 
{"free_energy": -9.09, "intermolecular_energy": -9.98, "internal_energy": -0.83, "cluster_size": 50, "cluster_id": 1, "rank_in_cluster": 7}

>  <energy>  (30) 
-9.06

>  <cluster_rmsd>  (30) 
0.71

>  <cluster>  (30) 
1

$$$$

     RDKit          3D

 56 60  0  0  0  0  0  0  0  0999 V2000
  142.2260   72.4130  219.4180 O   0  0  0  0  0  0  0  0  0  0  0  0
  141.5060   72.8430  220.3450 C   0  0  0  0  0  0  0  0  0  0  0  0
  140.6870   71.8770  221.0990 C   0  0  0  0  0  0  0  0  0  0  0  0
  139.8700   72.5500  222.1540 C   0  0  0  0  0  0  0  0  0  0  0  0
  138.9810   71.6970  222.9480 C   0  0  0  0  0  0  0  0  0  0  0  0
  137.6100   71.8480  222.9680 C   0  0  0  0  0  0  0  0  0  0  0  0
  136.8140   70.9700  223.7100 C   0  0  0  0  0  0  0  0  0  0  0  0
  137.3600   69.9310  224.4460 C   0  0  0  0  0  0  0  0  0  0  0  0
  138.7120   69.7820  224.4290 C   0  0  0  0  0  0  0  0  0  0  0  0
  139.4350   68.7200  225.1440 C   0  0  0  0  0  0  0  0  0  0  0  0
  139.2660   67.5000  224.9070 O   0  0  0  0  0  0  0  0  0  0  0  0
  140.3590   69.1140  226.1460 N   0  0  0  0  0  0  0  0  0  0  0  0
  140.6300   70.5140  226.4720 C   0  0  0  0  0  0  0  0  0  0  0  0
  140.5630   70.7260  227.9660 C   0  0  0  0  0  0  0  0  0  0  0  0
  141.2620   69.7990  228.6970 O   0  0  0  0  0  0  0  0  0  0  0  0
  140.9960   68.4850  228.4260 C   0  0  0  0  0  0  0  0  0  0  0  0
  141.0980   68.1360  226.9570 C   0  0  0  0  0  0  0  0  0  0  0  0
  139.4930   70.6480  223.6950 C   0  0  0  0  0  0  0  0  0  0  0  0
  139.9030   73.8180  222.3730 N   0  0  0  0  0  0  0  0  0  0  0  0
  140.6920   74.7520  221.6650 C   0  0  0  0  0  0  0  0  0  0  0  0
  140.6700   76.1230  221.9230 C   0  0  0  0  0  0  0  0  0  0  0  0
  141.4600   76.9610  221.1470 C   0  0  0  0  0  0  0  0  0  0  0  0
  141.5080   78.3630  221.2980 N   0  0  0  0  0  0  0  0  0  0  0  0
  141.5030   79.3490  220.2710 C   0  0  0  0  0  0  0  0  0  0  0  0
  140.8310   80.6150  220.8180 C   0  0  0  0  0  0  0  0  0  0  0  0
  141.4650   81.1350  221.9260 O   0  0  0  0  0  0  0  0  0  0  0  0
  142.2850   80.2160  222.5800 C   0  0  0  0  0  0  0  0  0  0  0  0
  141.6210   78.8610  222.6870 C   0  0  0  0  0  0  0  0  0  0  0  0
  142.2620   76.4280  220.1280 C   0  0  0  0  0  0  0  0  0  0  0  0
  142.2880   75.0790  219.8700 C   0  0  0  0  0  0  0  0  0  0  0  0
  141.5000   74.2680  220.6470 C   0  0  0  0  0  0  0  0  0  0  0  0
  140.0120   71.3604  220.4008 H   0  0  0  0  0  0  0  0  0  0  0  0
  141.3644   71.1644  221.5923 H   0  0  0  0  0  0  0  0  0  0  0  0
  137.1407   72.6630  222.3975 H   0  0  0  0  0  0  0  0  0  0  0  0
  135.7227   71.1082  223.7094 H   0  0  0  0  0  0  0  0  0  0  0  0
  136.7208   69.2485  225.0254 H   0  0  0  0  0  0  0  0  0  0  0  0
  141.6340   70.7828  226.1119 H   0  0  0  0  0  0  0  0  0  0  0  0
  139.8736   71.1478  225.9861 H   0  0  0  0  0  0  0  0  0  0  0  0
  140.9709   71.7223  228.1918 H   0  0  0  0  0  0  0  0  0  0  0  0
  139.5061   70.6234  228.2530 H   0  0  0  0  0  0  0  0  0  0  0  0
  141.7135   67.8633  228.9816 H   0  0  0  0  0  0  0  0  0  0  0  0
  139.9557   68.2973  228.7303 H   0  0  0  0  0  0  0  0  0  0  0  0
  142.1560   68.1408  226.6558 H   0  0  0  0  0  0  0  0  0  0  0  0
  140.6640   67.1381  226.7961 H   0  0  0  0  0  0  0  0  0  0  0  0
  140.5828   70.4985  223.7024 H   0  0  0  0  0  0  0  0  0  0  0  0
  140.0390   76.5323  222.7257 H   0  0  0  0  0  0  0  0  0  0  0  0
  142.5362   79.5773  219.9702 H   0  0  0  0  0  0  0  0  0  0  0  0
  140.9527   78.9780  219.3938 H   0  0  0  0  0  0  0  0  0  0  0  0
  140.8293   81.3789  220.0265 H   0  0  0  0  0  0  0  0  0  0  0  0
  139.8131   80.3352  221.1272 H   0  0  0  0  0  0  0  0  0  0  0  0
  143.2242   80.1107  222.0172 H   0  0  0  0  0  0  0  0  0  0  0  0
  142.4785   80.5876  223.5971 H   0  0  0  0  0  0  0  0  0  0  0  0
  142.2367   78.1782  223.2909 H   0  0  0  0  0  0  0  0  0  0  0  0
  140.6385   78.9265  223.1773 H   0  0  0  0  0  0  0  0  0  0  0  0
  142.8834   77.1042  219.5225 H   0  0  0  0  0  0  0  0  0  0  0  0
  142.9178   74.6640  219.0693 H   0  0  0  0  0  0  0  0  0  0  0  0
  1  2  2  0
  2  3  1  0
  3  4  1  0
  4  5  1  0
  5  6  2  0
  6  7  1  0
  7  8  2  0
  8  9  1  0
  9 10  1  0
 10 11  2  0
 10 12  1  0
 12 13  1  0
 13 14  1  0
 14 15  1  0
 15 16  1  0
 16 17  1  0
  9 18  2  0
  4 19  2  0
 19 20  1  0
 20 21  2  0
 21 22  1  0
 22 23  1  0
 23 24  1  0
 24 25  1  0
 25 26  1  0
 26 27  1  0
 27 28  1  0
 22 29  2  0
 29 30  1  0
 30 31  2  0
 31  2  1  0
 18  5  1  0
 31 20  1  0
 17 12  1  0
 28 23  1  0
  3 32  1  0
  3 33  1  0
  6 34  1  0
  7 35  1  0
  8 36  1  0
 13 37  1  0
 13 38  1  0
 14 39  1  0
 14 40  1  0
 16 41  1  0
 16 42  1  0
 17 43  1  0
 17 44  1  0
 18 45  1  0
 21 46  1  0
 24 47  1  0
 24 48  1  0
 25 49  1  0
 25 50  1  0
 27 51  1  0
 27 52  1  0
 28 53  1  0
 28 54  1  0
 29 55  1  0
 30 56  1  0
M  END
>  <smiles>  (31) 
O=C1CC(c2cccc(C(=O)N3CCOCC3)c2)=Nc2cc(N3CCOCC3)ccc21

>  <score_type>  (31) 
oracle

>  <origin>  (31) 
autodockgpu

>  <m_score__min__energy>  (31) 
-9.1199999999999992

>  <m_primary>  (31) 
energy

>  <rmsd>  (31) 
6.294820736887424

>  <m_score__min__rmsd>  (31) 
6.294820736887424

>  <meeko>  (31) 
{"free_energy": -9.05, "intermolecular_energy": -9.95, "internal_energy": -0.83, "cluster_size": 50, "cluster_id": 1, "rank_in_cluster": 32}

>  <energy>  (31) 
-9.06

>  <cluster_rmsd>  (31) 
0.1

>  <cluster>  (31) 
1

$$$$

     RDKit          3D

 56 60  0  0  0  0  0  0  0  0999 V2000
  142.3590   72.4100  219.5100 O   0  0  0  0  0  0  0  0  0  0  0  0
  141.5990   72.8500  220.3990 C   0  0  0  0  0  0  0  0  0  0  0  0
  140.7700   71.8880  221.1480 C   0  0  0  0  0  0  0  0  0  0  0  0
  139.9040   72.5720  222.1560 C   0  0  0  0  0  0  0  0  0  0  0  0
  139.0030   71.7230  222.9390 C   0  0  0  0  0  0  0  0  0  0  0  0
  137.6330   71.8860  222.9510 C   0  0  0  0  0  0  0  0  0  0  0  0
  136.8250   71.0110  223.6840 C   0  0  0  0  0  0  0  0  0  0  0  0
  137.3570   69.9640  224.4170 C   0  0  0  0  0  0  0  0  0  0  0  0
  138.7070   69.8030  224.4080 C   0  0  0  0  0  0  0  0  0  0  0  0
  139.4160   68.7290  225.1220 C   0  0  0  0  0  0  0  0  0  0  0  0
  139.2230   67.5120  224.8910 O   0  0  0  0  0  0  0  0  0  0  0  0
  140.3550   69.1100  226.1150 N   0  0  0  0  0  0  0  0  0  0  0  0
  140.6550   70.5060  226.4320 C   0  0  0  0  0  0  0  0  0  0  0  0
  140.6040   70.7250  227.9260 C   0  0  0  0  0  0  0  0  0  0  0  0
  141.2920   69.7890  228.6560 O   0  0  0  0  0  0  0  0  0  0  0  0
  140.9980   68.4790  228.3920 C   0  0  0  0  0  0  0  0  0  0  0  0
  141.0820   68.1220  226.9230 C   0  0  0  0  0  0  0  0  0  0  0  0
  139.5010   70.6650  223.6840 C   0  0  0  0  0  0  0  0  0  0  0  0
  139.9070   73.8450  222.3430 N   0  0  0  0  0  0  0  0  0  0  0  0
  140.7040   74.7760  221.6400 C   0  0  0  0  0  0  0  0  0  0  0  0
  140.6490   76.1520  221.8610 C   0  0  0  0  0  0  0  0  0  0  0  0
  141.4520   76.9850  221.0920 C   0  0  0  0  0  0  0  0  0  0  0  0
  141.4690   78.3910  221.2090 N   0  0  0  0  0  0  0  0  0  0  0  0
  141.4470   79.3510  220.1580 C   0  0  0  0  0  0  0  0  0  0  0  0
  140.7460   80.6160  220.6710 C   0  0  0  0  0  0  0  0  0  0  0  0
  141.3650   81.1760  221.7680 O   0  0  0  0  0  0  0  0  0  0  0  0
  142.2020   80.2910  222.4470 C   0  0  0  0  0  0  0  0  0  0  0  0
  141.5660   78.9250  222.5860 C   0  0  0  0  0  0  0  0  0  0  0  0
  142.2990   76.4420  220.1170 C   0  0  0  0  0  0  0  0  0  0  0  0
  142.3580   75.0870  219.8950 C   0  0  0  0  0  0  0  0  0  0  0  0
  141.5570   74.2820  220.6640 C   0  0  0  0  0  0  0  0  0  0  0  0
  140.1296   71.3420  220.4396 H   0  0  0  0  0  0  0  0  0  0  0  0
  141.4415   71.2003  221.6830 H   0  0  0  0  0  0  0  0  0  0  0  0
  137.1743   72.7078  222.3815 H   0  0  0  0  0  0  0  0  0  0  0  0
  135.7350   71.1590  223.6780 H   0  0  0  0  0  0  0  0  0  0  0  0
  136.7081   69.2840  224.9885 H   0  0  0  0  0  0  0  0  0  0  0  0
  141.6609   70.7543  226.0626 H   0  0  0  0  0  0  0  0  0  0  0  0
  139.9072   71.1522  225.9491 H   0  0  0  0  0  0  0  0  0  0  0  0
  141.0314   71.7148  228.1442 H   0  0  0  0  0  0  0  0  0  0  0  0
  139.5477   70.6419  228.2215 H   0  0  0  0  0  0  0  0  0  0  0  0
  141.7072   67.8454  228.9448 H   0  0  0  0  0  0  0  0  0  0  0  0
  139.9565   68.3133  228.7047 H   0  0  0  0  0  0  0  0  0  0  0  0
  142.1374   68.1061  226.6134 H   0  0  0  0  0  0  0  0  0  0  0  0
  140.6288   67.1315  226.7694 H   0  0  0  0  0  0  0  0  0  0  0  0
  140.5893   70.5053  223.6977 H   0  0  0  0  0  0  0  0  0  0  0  0
  139.9823   76.5698  222.6297 H   0  0  0  0  0  0  0  0  0  0  0  0
  142.4763   79.5937  219.8551 H   0  0  0  0  0  0  0  0  0  0  0  0
  140.9079   78.9468  219.2885 H   0  0  0  0  0  0  0  0  0  0  0  0
  140.7314   81.3599  219.8608 H   0  0  0  0  0  0  0  0  0  0  0  0
  139.7328   80.3229  220.9832 H   0  0  0  0  0  0  0  0  0  0  0  0
  143.1451   80.1915  221.8896 H   0  0  0  0  0  0  0  0  0  0  0  0
  142.3844   80.6918  223.4550 H   0  0  0  0  0  0  0  0  0  0  0  0
  142.1936   78.2705  223.2087 H   0  0  0  0  0  0  0  0  0  0  0  0
  140.5807   78.9815  223.0717 H   0  0  0  0  0  0  0  0  0  0  0  0
  142.9298   77.1141  219.5168 H   0  0  0  0  0  0  0  0  0  0  0  0
  143.0235   74.6635  219.1284 H   0  0  0  0  0  0  0  0  0  0  0  0
  1  2  2  0
  2  3  1  0
  3  4  1  0
  4  5  1  0
  5  6  2  0
  6  7  1  0
  7  8  2  0
  8  9  1  0
  9 10  1  0
 10 11  2  0
 10 12  1  0
 12 13  1  0
 13 14  1  0
 14 15  1  0
 15 16  1  0
 16 17  1  0
  9 18  2  0
  4 19  2  0
 19 20  1  0
 20 21  2  0
 21 22  1  0
 22 23  1  0
 23 24  1  0
 24 25  1  0
 25 26  1  0
 26 27  1  0
 27 28  1  0
 22 29  2  0
 29 30  1  0
 30 31  2  0
 31  2  1  0
 18  5  1  0
 31 20  1  0
 17 12  1  0
 28 23  1  0
  3 32  1  0
  3 33  1  0
  6 34  1  0
  7 35  1  0
  8 36  1  0
 13 37  1  0
 13 38  1  0
 14 39  1  0
 14 40  1  0
 16 41  1  0
 16 42  1  0
 17 43  1  0
 17 44  1  0
 18 45  1  0
 21 46  1  0
 24 47  1  0
 24 48  1  0
 25 49  1  0
 25 50  1  0
 27 51  1  0
 27 52  1  0
 28 53  1  0
 28 54  1  0
 29 55  1  0
 30 56  1  0
M  END
>  <smiles>  (32) 
O=C1CC(c2cccc(C(=O)N3CCOCC3)c2)=Nc2cc(N3CCOCC3)ccc21

>  <score_type>  (32) 
oracle

>  <origin>  (32) 
autodockgpu

>  <m_score__min__energy>  (32) 
-9.1199999999999992

>  <m_primary>  (32) 
energy

>  <rmsd>  (32) 
6.281782919560842

>  <m_score__min__rmsd>  (32) 
6.281782919560842

>  <meeko>  (32) 
{"free_energy": -9.09, "intermolecular_energy": -9.99, "internal_energy": -0.82, "cluster_size": 50, "cluster_id": 1, "rank_in_cluster": 4}

>  <energy>  (32) 
-9.05

>  <cluster_rmsd>  (32) 
0.44

>  <cluster>  (32) 
1

$$$$

     RDKit          3D

 56 60  0  0  0  0  0  0  0  0999 V2000
  142.1690   72.3890  219.3950 O   0  0  0  0  0  0  0  0  0  0  0  0
  141.4590   72.8300  220.3250 C   0  0  0  0  0  0  0  0  0  0  0  0
  140.6400   71.8740  221.0910 C   0  0  0  0  0  0  0  0  0  0  0  0
  139.8350   72.5600  222.1480 C   0  0  0  0  0  0  0  0  0  0  0  0
  138.9470   71.7170  222.9540 C   0  0  0  0  0  0  0  0  0  0  0  0
  137.5800   71.8950  223.0050 C   0  0  0  0  0  0  0  0  0  0  0  0
  136.7830   71.0260  223.7570 C   0  0  0  0  0  0  0  0  0  0  0  0
  137.3250   69.9710  224.4730 C   0  0  0  0  0  0  0  0  0  0  0  0
  138.6730   69.7960  224.4250 C   0  0  0  0  0  0  0  0  0  0  0  0
  139.3900   68.7130  225.1160 C   0  0  0  0  0  0  0  0  0  0  0  0
  139.2080   67.4990  224.8570 O   0  0  0  0  0  0  0  0  0  0  0  0
  140.3230   69.0790  226.1190 N   0  0  0  0  0  0  0  0  0  0  0  0
  140.6100   70.4700  226.4690 C   0  0  0  0  0  0  0  0  0  0  0  0
  140.5540   70.6550  227.9670 C   0  0  0  0  0  0  0  0  0  0  0  0
  141.2490   69.7080  228.6770 O   0  0  0  0  0  0  0  0  0  0  0  0
  140.9680   68.4020  228.3830 C   0  0  0  0  0  0  0  0  0  0  0  0
  141.0580   68.0800  226.9070 C   0  0  0  0  0  0  0  0  0  0  0  0
  139.4550   70.6520  223.6810 C   0  0  0  0  0  0  0  0  0  0  0  0
  139.8780   73.8280  222.3590 N   0  0  0  0  0  0  0  0  0  0  0  0
  140.6680   74.7530  221.6380 C   0  0  0  0  0  0  0  0  0  0  0  0
  140.6570   76.1250  221.8880 C   0  0  0  0  0  0  0  0  0  0  0  0
  141.4460   76.9530  221.1000 C   0  0  0  0  0  0  0  0  0  0  0  0
  141.5040   78.3560  221.2410 N   0  0  0  0  0  0  0  0  0  0  0  0
  141.7100   79.3260  220.2190 C   0  0  0  0  0  0  0  0  0  0  0  0
  140.9860   80.6160  220.6230 C   0  0  0  0  0  0  0  0  0  0  0  0
  141.4240   81.1370  221.8200 O   0  0  0  0  0  0  0  0  0  0  0  0
  142.0890   80.2090  222.6220 C   0  0  0  0  0  0  0  0  0  0  0  0
  141.3790   78.8730  222.6230 C   0  0  0  0  0  0  0  0  0  0  0  0
  142.2370   76.4090  220.0780 C   0  0  0  0  0  0  0  0  0  0  0  0
  142.2520   75.0570  219.8290 C   0  0  0  0  0  0  0  0  0  0  0  0
  141.4650   74.2570  220.6170 C   0  0  0  0  0  0  0  0  0  0  0  0
  139.9565   71.3571  220.4013 H   0  0  0  0  0  0  0  0  0  0  0  0
  141.3163   71.1599  221.5837 H   0  0  0  0  0  0  0  0  0  0  0  0
  137.1148   72.7241  222.4517 H   0  0  0  0  0  0  0  0  0  0  0  0
  135.6948   71.1847  223.7807 H   0  0  0  0  0  0  0  0  0  0  0  0
  136.6856   69.2965  225.0615 H   0  0  0  0  0  0  0  0  0  0  0  0
  141.6145   70.7354  226.1077 H   0  0  0  0  0  0  0  0  0  0  0  0
  139.8571   71.1202  225.9994 H   0  0  0  0  0  0  0  0  0  0  0  0
  140.9725   71.6432  228.2085 H   0  0  0  0  0  0  0  0  0  0  0  0
  139.4979   70.5567  228.2585 H   0  0  0  0  0  0  0  0  0  0  0  0
  141.6823   67.7627  228.9225 H   0  0  0  0  0  0  0  0  0  0  0  0
  139.9277   68.2190  228.6901 H   0  0  0  0  0  0  0  0  0  0  0  0
  142.1141   68.0814  226.5995 H   0  0  0  0  0  0  0  0  0  0  0  0
  140.6141   67.0892  226.7302 H   0  0  0  0  0  0  0  0  0  0  0  0
  140.5415   70.4810  223.6630 H   0  0  0  0  0  0  0  0  0  0  0  0
  140.0356   76.5432  222.6936 H   0  0  0  0  0  0  0  0  0  0  0  0
  142.7862   79.5238  220.1060 H   0  0  0  0  0  0  0  0  0  0  0  0
  141.3158   78.9554  219.2612 H   0  0  0  0  0  0  0  0  0  0  0  0
  141.1470   81.3674  219.8359 H   0  0  0  0  0  0  0  0  0  0  0  0
  139.9221   80.3659  220.7476 H   0  0  0  0  0  0  0  0  0  0  0  0
  143.1107   80.0713  222.2384 H   0  0  0  0  0  0  0  0  0  0  0  0
  142.1081   80.5923  223.6529 H   0  0  0  0  0  0  0  0  0  0  0  0
  141.8569   78.1845  223.3355 H   0  0  0  0  0  0  0  0  0  0  0  0
  140.3266   78.9710  222.9278 H   0  0  0  0  0  0  0  0  0  0  0  0
  142.8579   77.0773  219.4633 H   0  0  0  0  0  0  0  0  0  0  0  0
  142.8730   74.6323  219.0265 H   0  0  0  0  0  0  0  0  0  0  0  0
  1  2  2  0
  2  3  1  0
  3  4  1  0
  4  5  1  0
  5  6  2  0
  6  7  1  0
  7  8  2  0
  8  9  1  0
  9 10  1  0
 10 11  2  0
 10 12  1  0
 12 13  1  0
 13 14  1  0
 14 15  1  0
 15 16  1  0
 16 17  1  0
  9 18  2  0
  4 19  2  0
 19 20  1  0
 20 21  2  0
 21 22  1  0
 22 23  1  0
 23 24  1  0
 24 25  1  0
 25 26  1  0
 26 27  1  0
 27 28  1  0
 22 29  2  0
 29 30  1  0
 30 31  2  0
 31  2  1  0
 18  5  1  0
 31 20  1  0
 17 12  1  0
 28 23  1  0
  3 32  1  0
  3 33  1  0
  6 34  1  0
  7 35  1  0
  8 36  1  0
 13 37  1  0
 13 38  1  0
 14 39  1  0
 14 40  1  0
 16 41  1  0
 16 42  1  0
 17 43  1  0
 17 44  1  0
 18 45  1  0
 21 46  1  0
 24 47  1  0
 24 48  1  0
 25 49  1  0
 25 50  1  0
 27 51  1  0
 27 52  1  0
 28 53  1  0
 28 54  1  0
 29 55  1  0
 30 56  1  0
M  END
>  <smiles>  (33) 
O=C1CC(c2cccc(C(=O)N3CCOCC3)c2)=Nc2cc(N3CCOCC3)ccc21

>  <score_type>  (33) 
oracle

>  <origin>  (33) 
autodockgpu

>  <m_score__min__energy>  (33) 
-9.1199999999999992

>  <m_primary>  (33) 
energy

>  <rmsd>  (33) 
6.300146806253694

>  <m_score__min__rmsd>  (33) 
6.300146806253694

>  <meeko>  (33) 
{"free_energy": -9.04, "intermolecular_energy": -9.94, "internal_energy": -0.85, "cluster_size": 50, "cluster_id": 1, "rank_in_cluster": 38}

>  <energy>  (33) 
-9.05

>  <cluster_rmsd>  (33) 
0.38

>  <cluster>  (33) 
1

$$$$

     RDKit          3D

 56 60  0  0  0  0  0  0  0  0999 V2000
  142.2300   72.4020  219.4180 O   0  0  0  0  0  0  0  0  0  0  0  0
  141.5060   72.8370  220.3390 C   0  0  0  0  0  0  0  0  0  0  0  0
  140.6850   71.8750  221.0950 C   0  0  0  0  0  0  0  0  0  0  0  0
  139.8630   72.5540  222.1420 C   0  0  0  0  0  0  0  0  0  0  0  0
  138.9710   71.7050  222.9380 C   0  0  0  0  0  0  0  0  0  0  0  0
  137.6010   71.8640  222.9620 C   0  0  0  0  0  0  0  0  0  0  0  0
  136.8030   70.9890  223.7060 C   0  0  0  0  0  0  0  0  0  0  0  0
  137.3450   69.9460  224.4380 C   0  0  0  0  0  0  0  0  0  0  0  0
  138.6960   69.7890  224.4170 C   0  0  0  0  0  0  0  0  0  0  0  0
  139.4150   68.7210  225.1280 C   0  0  0  0  0  0  0  0  0  0  0  0
  139.2300   67.5030  224.8980 O   0  0  0  0  0  0  0  0  0  0  0  0
  140.3530   69.1090  226.1190 N   0  0  0  0  0  0  0  0  0  0  0  0
  140.6440   70.5070  226.4360 C   0  0  0  0  0  0  0  0  0  0  0  0
  140.5950   70.7250  227.9300 C   0  0  0  0  0  0  0  0  0  0  0  0
  141.2920   69.7930  228.6570 O   0  0  0  0  0  0  0  0  0  0  0  0
  141.0080   68.4810  228.3940 C   0  0  0  0  0  0  0  0  0  0  0  0
  141.0910   68.1260  226.9250 C   0  0  0  0  0  0  0  0  0  0  0  0
  139.4800   70.6520  223.6820 C   0  0  0  0  0  0  0  0  0  0  0  0
  139.8930   73.8230  222.3540 N   0  0  0  0  0  0  0  0  0  0  0  0
  140.6840   74.7540  221.6430 C   0  0  0  0  0  0  0  0  0  0  0  0
  140.6600   76.1260  221.8930 C   0  0  0  0  0  0  0  0  0  0  0  0
  141.4530   76.9600  221.1140 C   0  0  0  0  0  0  0  0  0  0  0  0
  141.4980   78.3630  221.2570 N   0  0  0  0  0  0  0  0  0  0  0  0
  141.5180   79.3420  220.2230 C   0  0  0  0  0  0  0  0  0  0  0  0
  140.8350   80.6120  220.7460 C   0  0  0  0  0  0  0  0  0  0  0  0
  141.4430   81.1390  221.8640 O   0  0  0  0  0  0  0  0  0  0  0  0
  142.2470   80.2240  222.5430 C   0  0  0  0  0  0  0  0  0  0  0  0
  141.5790   78.8710  222.6450 C   0  0  0  0  0  0  0  0  0  0  0  0
  142.2600   76.4220  220.1020 C   0  0  0  0  0  0  0  0  0  0  0  0
  142.2880   75.0710  219.8530 C   0  0  0  0  0  0  0  0  0  0  0  0
  141.4980   74.2640  220.6320 C   0  0  0  0  0  0  0  0  0  0  0  0
  140.0135   71.3534  220.3971 H   0  0  0  0  0  0  0  0  0  0  0  0
  141.3608   71.1659  221.5955 H   0  0  0  0  0  0  0  0  0  0  0  0
  137.1344   72.6822  222.3938 H   0  0  0  0  0  0  0  0  0  0  0  0
  135.7125   71.1336  223.7098 H   0  0  0  0  0  0  0  0  0  0  0  0
  136.7035   69.2661  225.0179 H   0  0  0  0  0  0  0  0  0  0  0  0
  141.6473   70.7625  226.0644 H   0  0  0  0  0  0  0  0  0  0  0  0
  139.8905   71.1481  225.9551 H   0  0  0  0  0  0  0  0  0  0  0  0
  141.0158   71.7177  228.1479 H   0  0  0  0  0  0  0  0  0  0  0  0
  139.5401   70.6347  228.2285 H   0  0  0  0  0  0  0  0  0  0  0  0
  141.7239   67.8530  228.9446 H   0  0  0  0  0  0  0  0  0  0  0  0
  139.9690   68.3061  228.7100 H   0  0  0  0  0  0  0  0  0  0  0  0
  142.1457   68.1193  226.6125 H   0  0  0  0  0  0  0  0  0  0  0  0
  140.6457   67.1319  226.7719 H   0  0  0  0  0  0  0  0  0  0  0  0
  140.5690   70.4967  223.6860 H   0  0  0  0  0  0  0  0  0  0  0  0
  140.0259   76.5397  222.6910 H   0  0  0  0  0  0  0  0  0  0  0  0
  142.5581   79.5672  219.9446 H   0  0  0  0  0  0  0  0  0  0  0  0
  140.9879   78.9657  219.3357 H   0  0  0  0  0  0  0  0  0  0  0  0
  140.8522   81.3705  219.9495 H   0  0  0  0  0  0  0  0  0  0  0  0
  139.8102   80.3347  221.0338 H   0  0  0  0  0  0  0  0  0  0  0  0
  143.1985   80.1134  222.0022 H   0  0  0  0  0  0  0  0  0  0  0  0
  142.4183   80.6029  223.5614 H   0  0  0  0  0  0  0  0  0  0  0  0
  142.1795   78.1920  223.2682 H   0  0  0  0  0  0  0  0  0  0  0  0
  140.5855   78.9411  223.1120 H   0  0  0  0  0  0  0  0  0  0  0  0
  142.8834   77.0949  219.4950 H   0  0  0  0  0  0  0  0  0  0  0  0
  142.9212   74.6514  219.0574 H   0  0  0  0  0  0  0  0  0  0  0  0
  1  2  2  0
  2  3  1  0
  3  4  1  0
  4  5  1  0
  5  6  2  0
  6  7  1  0
  7  8  2  0
  8  9  1  0
  9 10  1  0
 10 11  2  0
 10 12  1  0
 12 13  1  0
 13 14  1  0
 14 15  1  0
 15 16  1  0
 16 17  1  0
  9 18  2  0
  4 19  2  0
 19 20  1  0
 20 21  2  0
 21 22  1  0
 22 23  1  0
 23 24  1  0
 24 25  1  0
 25 26  1  0
 26 27  1  0
 27 28  1  0
 22 29  2  0
 29 30  1  0
 30 31  2  0
 31  2  1  0
 18  5  1  0
 31 20  1  0
 17 12  1  0
 28 23  1  0
  3 32  1  0
  3 33  1  0
  6 34  1  0
  7 35  1  0
  8 36  1  0
 13 37  1  0
 13 38  1  0
 14 39  1  0
 14 40  1  0
 16 41  1  0
 16 42  1  0
 17 43  1  0
 17 44  1  0
 18 45  1  0
 21 46  1  0
 24 47  1  0
 24 48  1  0
 25 49  1  0
 25 50  1  0
 27 51  1  0
 27 52  1  0
 28 53  1  0
 28 54  1  0
 29 55  1  0
 30 56  1  0
M  END
>  <smiles>  (34) 
O=C1CC(c2cccc(C(=O)N3CCOCC3)c2)=Nc2cc(N3CCOCC3)ccc21

>  <score_type>  (34) 
oracle

>  <origin>  (34) 
autodockgpu

>  <m_score__min__energy>  (34) 
-9.1199999999999992

>  <m_primary>  (34) 
energy

>  <rmsd>  (34) 
6.290745594627468

>  <m_score__min__rmsd>  (34) 
6.290745594627468

>  <meeko>  (34) 
{"free_energy": -9.08, "intermolecular_energy": -9.97, "internal_energy": -0.82, "cluster_size": 50, "cluster_id": 1, "rank_in_cluster": 17}

>  <energy>  (34) 
-9.05

>  <cluster_rmsd>  (34) 
0.67

>  <cluster>  (34) 
1

$$$$

     RDKit          3D

 56 60  0  0  0  0  0  0  0  0999 V2000
  142.4550   72.3950  219.5930 O   0  0  0  0  0  0  0  0  0  0  0  0
  141.6710   72.8410  220.4580 C   0  0  0  0  0  0  0  0  0  0  0  0
  140.8350   71.8830  221.2030 C   0  0  0  0  0  0  0  0  0  0  0  0
  139.9410   72.5750  222.1810 C   0  0  0  0  0  0  0  0  0  0  0  0
  139.0300   71.7290  222.9570 C   0  0  0  0  0  0  0  0  0  0  0  0
  137.6610   71.8980  222.9610 C   0  0  0  0  0  0  0  0  0  0  0  0
  136.8430   71.0270  223.6870 C   0  0  0  0  0  0  0  0  0  0  0  0
  137.3650   69.9760  224.4220 C   0  0  0  0  0  0  0  0  0  0  0  0
  138.7150   69.8080  224.4220 C   0  0  0  0  0  0  0  0  0  0  0  0
  139.4140   68.7300  225.1390 C   0  0  0  0  0  0  0  0  0  0  0  0
  139.2120   67.5140  224.9100 O   0  0  0  0  0  0  0  0  0  0  0  0
  140.3530   69.1060  226.1330 N   0  0  0  0  0  0  0  0  0  0  0  0
  140.6640   70.5000  226.4490 C   0  0  0  0  0  0  0  0  0  0  0  0
  140.6110   70.7210  227.9430 C   0  0  0  0  0  0  0  0  0  0  0  0
  141.2900   69.7810  228.6750 O   0  0  0  0  0  0  0  0  0  0  0  0
  140.9870   68.4730  228.4130 C   0  0  0  0  0  0  0  0  0  0  0  0
  141.0710   68.1130  226.9450 C   0  0  0  0  0  0  0  0  0  0  0  0
  139.5180   70.6670  223.7040 C   0  0  0  0  0  0  0  0  0  0  0  0
  139.9270   73.8500  222.3490 N   0  0  0  0  0  0  0  0  0  0  0  0
  140.7310   74.7780  221.6480 C   0  0  0  0  0  0  0  0  0  0  0  0
  140.6580   76.1570  221.8470 C   0  0  0  0  0  0  0  0  0  0  0  0
  141.4700   76.9850  221.0830 C   0  0  0  0  0  0  0  0  0  0  0  0
  141.4720   78.3930  221.1780 N   0  0  0  0  0  0  0  0  0  0  0  0
  141.4530   79.3370  220.1120 C   0  0  0  0  0  0  0  0  0  0  0  0
  140.7340   80.6010  220.5970 C   0  0  0  0  0  0  0  0  0  0  0  0
  141.3320   81.1850  221.6930 O   0  0  0  0  0  0  0  0  0  0  0  0
  142.1700   80.3190  222.3960 C   0  0  0  0  0  0  0  0  0  0  0  0
  141.5460   78.9490  222.5480 C   0  0  0  0  0  0  0  0  0  0  0  0
  142.3440   76.4350  220.1350 C   0  0  0  0  0  0  0  0  0  0  0  0
  142.4210   75.0780  219.9360 C   0  0  0  0  0  0  0  0  0  0  0  0
  141.6100   74.2770  220.6990 C   0  0  0  0  0  0  0  0  0  0  0  0
  140.2152   71.3202  220.4894 H   0  0  0  0  0  0  0  0  0  0  0  0
  141.5005   71.2095  221.7630 H   0  0  0  0  0  0  0  0  0  0  0  0
  137.2102   72.7229  222.3897 H   0  0  0  0  0  0  0  0  0  0  0  0
  135.7539   71.1810  223.6739 H   0  0  0  0  0  0  0  0  0  0  0  0
  136.7089   69.2984  224.9880 H   0  0  0  0  0  0  0  0  0  0  0  0
  141.6729   70.7394  226.0819 H   0  0  0  0  0  0  0  0  0  0  0  0
  139.9230   71.1520  225.9633 H   0  0  0  0  0  0  0  0  0  0  0  0
  141.0452   71.7078  228.1613 H   0  0  0  0  0  0  0  0  0  0  0  0
  139.5534   70.6462  228.2361 H   0  0  0  0  0  0  0  0  0  0  0  0
  141.6906   67.8353  228.9681 H   0  0  0  0  0  0  0  0  0  0  0  0
  139.9438   68.3153  228.7243 H   0  0  0  0  0  0  0  0  0  0  0  0
  142.1269   68.0882  226.6375 H   0  0  0  0  0  0  0  0  0  0  0  0
  140.6101   67.1260  226.7923 H   0  0  0  0  0  0  0  0  0  0  0  0
  140.6053   70.5016  223.7242 H   0  0  0  0  0  0  0  0  0  0  0  0
  139.9707   76.5801  222.5944 H   0  0  0  0  0  0  0  0  0  0  0  0
  142.4833   79.5856  219.8177 H   0  0  0  0  0  0  0  0  0  0  0  0
  140.9285   78.9142  219.2424 H   0  0  0  0  0  0  0  0  0  0  0  0
  140.7222   81.3323  219.7754 H   0  0  0  0  0  0  0  0  0  0  0  0
  139.7205   80.3011  220.9017 H   0  0  0  0  0  0  0  0  0  0  0  0
  143.1209   80.2208  221.8517 H   0  0  0  0  0  0  0  0  0  0  0  0
  142.3361   80.7370  223.3998 H   0  0  0  0  0  0  0  0  0  0  0  0
  142.1721   78.3105  223.1886 H   0  0  0  0  0  0  0  0  0  0  0  0
  140.5540   79.0029  223.0203 H   0  0  0  0  0  0  0  0  0  0  0  0
  142.9814   77.1039  219.5381 H   0  0  0  0  0  0  0  0  0  0  0  0
  143.1082   74.6492  219.1917 H   0  0  0  0  0  0  0  0  0  0  0  0
  1  2  2  0
  2  3  1  0
  3  4  1  0
  4  5  1  0
  5  6  2  0
  6  7  1  0
  7  8  2  0
  8  9  1  0
  9 10  1  0
 10 11  2  0
 10 12  1  0
 12 13  1  0
 13 14  1  0
 14 15  1  0
 15 16  1  0
 16 17  1  0
  9 18  2  0
  4 19  2  0
 19 20  1  0
 20 21  2  0
 21 22  1  0
 22 23  1  0
 23 24  1  0
 24 25  1  0
 25 26  1  0
 26 27  1  0
 27 28  1  0
 22 29  2  0
 29 30  1  0
 30 31  2  0
 31  2  1  0
 18  5  1  0
 31 20  1  0
 17 12  1  0
 28 23  1  0
  3 32  1  0
  3 33  1  0
  6 34  1  0
  7 35  1  0
  8 36  1  0
 13 37  1  0
 13 38  1  0
 14 39  1  0
 14 40  1  0
 16 41  1  0
 16 42  1  0
 17 43  1  0
 17 44  1  0
 18 45  1  0
 21 46  1  0
 24 47  1  0
 24 48  1  0
 25 49  1  0
 25 50  1  0
 27 51  1  0
 27 52  1  0
 28 53  1  0
 28 54  1  0
 29 55  1  0
 30 56  1  0
M  END
>  <smiles>  (35) 
O=C1CC(c2cccc(C(=O)N3CCOCC3)c2)=Nc2cc(N3CCOCC3)ccc21

>  <score_type>  (35) 
oracle

>  <origin>  (35) 
autodockgpu

>  <m_score__min__energy>  (35) 
-9.1199999999999992

>  <m_primary>  (35) 
energy

>  <rmsd>  (35) 
6.273410474987768

>  <m_score__min__rmsd>  (35) 
6.273410474987768

>  <meeko>  (35) 
{"free_energy": -9.09, "intermolecular_energy": -9.99, "internal_energy": -0.82, "cluster_size": 50, "cluster_id": 1, "rank_in_cluster": 5}

>  <energy>  (35) 
-9.05

>  <cluster_rmsd>  (35) 
0.24

>  <cluster>  (35) 
1

$$$$

     RDKit          3D

 56 60  0  0  0  0  0  0  0  0999 V2000
  141.9590   72.8400  219.1490 O   0  0  0  0  0  0  0  0  0  0  0  0
  141.3040   73.2030  220.1510 C   0  0  0  0  0  0  0  0  0  0  0  0
  140.4860   72.1970  220.8510 C   0  0  0  0  0  0  0  0  0  0  0  0
  139.7510   72.7920  222.0090 C   0  0  0  0  0  0  0  0  0  0  0  0
  138.8690   71.8970  222.7640 C   0  0  0  0  0  0  0  0  0  0  0  0
  137.4930   71.9840  222.7250 C   0  0  0  0  0  0  0  0  0  0  0  0
  136.7080   71.0690  223.4320 C   0  0  0  0  0  0  0  0  0  0  0  0
  137.2690   70.0550  224.1910 C   0  0  0  0  0  0  0  0  0  0  0  0
  138.6260   69.9690  224.2330 C   0  0  0  0  0  0  0  0  0  0  0  0
  139.3660   68.9400  224.9780 C   0  0  0  0  0  0  0  0  0  0  0  0
  139.2010   67.7110  224.7930 O   0  0  0  0  0  0  0  0  0  0  0  0
  140.3030   69.3780  225.9490 N   0  0  0  0  0  0  0  0  0  0  0  0
  140.5710   70.7920  226.2140 C   0  0  0  0  0  0  0  0  0  0  0  0
  140.5250   71.0630  227.7000 C   0  0  0  0  0  0  0  0  0  0  0  0
  141.2410   70.1700  228.4570 O   0  0  0  0  0  0  0  0  0  0  0  0
  140.9780   68.8450  228.2420 C   0  0  0  0  0  0  0  0  0  0  0  0
  141.0600   68.4370  226.7860 C   0  0  0  0  0  0  0  0  0  0  0  0
  139.3970   70.8710  223.5330 C   0  0  0  0  0  0  0  0  0  0  0  0
  139.8460   74.0300  222.3470 N   0  0  0  0  0  0  0  0  0  0  0  0
  140.6360   75.0010  221.6910 C   0  0  0  0  0  0  0  0  0  0  0  0
  140.6830   76.3400  222.0800 C   0  0  0  0  0  0  0  0  0  0  0  0
  141.4660   77.2210  221.3470 C   0  0  0  0  0  0  0  0  0  0  0  0
  141.5780   78.5990  221.6290 N   0  0  0  0  0  0  0  0  0  0  0  0
  141.6030   79.6780  220.7000 C   0  0  0  0  0  0  0  0  0  0  0  0
  140.9960   80.9140  221.3770 C   0  0  0  0  0  0  0  0  0  0  0  0
  141.6670   81.2970  222.5170 O   0  0  0  0  0  0  0  0  0  0  0  0
  142.4540   80.2860  223.0670 C   0  0  0  0  0  0  0  0  0  0  0  0
  141.7320   78.9570  223.0570 C   0  0  0  0  0  0  0  0  0  0  0  0
  142.1940   76.7630  220.2390 C   0  0  0  0  0  0  0  0  0  0  0  0
  142.1520   75.4450  219.8520 C   0  0  0  0  0  0  0  0  0  0  0  0
  141.3720   74.5910  220.5890 C   0  0  0  0  0  0  0  0  0  0  0  0
  139.7563   71.7758  220.1438 H   0  0  0  0  0  0  0  0  0  0  0  0
  141.1578   71.4155  221.2356 H   0  0  0  0  0  0  0  0  0  0  0  0
  137.0112   72.7773  222.1346 H   0  0  0  0  0  0  0  0  0  0  0  0
  135.6125   71.1566  223.3844 H   0  0  0  0  0  0  0  0  0  0  0  0
  136.6376   69.3424  224.7419 H   0  0  0  0  0  0  0  0  0  0  0  0
  141.5680   71.0513  225.8282 H   0  0  0  0  0  0  0  0  0  0  0  0
  139.8042   71.4022  225.7143 H   0  0  0  0  0  0  0  0  0  0  0  0
  140.9297   72.0700  227.8797 H   0  0  0  0  0  0  0  0  0  0  0  0
  139.4731   70.9654  228.0067 H   0  0  0  0  0  0  0  0  0  0  0  0
  141.7068   68.2494  228.8112 H   0  0  0  0  0  0  0  0  0  0  0  0
  139.9431   68.6654  228.5686 H   0  0  0  0  0  0  0  0  0  0  0  0
  142.1132   68.4352  226.4685 H   0  0  0  0  0  0  0  0  0  0  0  0
  140.6301   67.4309  226.6717 H   0  0  0  0  0  0  0  0  0  0  0  0
  140.4912   70.7719  223.5871 H   0  0  0  0  0  0  0  0  0  0  0  0
  140.1103   76.6909  222.9512 H   0  0  0  0  0  0  0  0  0  0  0  0
  142.6411   79.8890  220.4035 H   0  0  0  0  0  0  0  0  0  0  0  0
  141.0245   79.4168  219.8016 H   0  0  0  0  0  0  0  0  0  0  0  0
  141.0180   81.7496  220.6619 H   0  0  0  0  0  0  0  0  0  0  0  0
  139.9708   80.6503  221.6762 H   0  0  0  0  0  0  0  0  0  0  0  0
  143.3802   80.1945  222.4806 H   0  0  0  0  0  0  0  0  0  0  0  0
  142.6773   80.5506  224.1111 H   0  0  0  0  0  0  0  0  0  0  0  0
  142.3249   78.1939  223.5825 H   0  0  0  0  0  0  0  0  0  0  0  0
  140.7602   79.0176  223.5687 H   0  0  0  0  0  0  0  0  0  0  0  0
  142.8108   77.4729  219.6685 H   0  0  0  0  0  0  0  0  0  0  0  0
  142.7234   75.0879  218.9825 H   0  0  0  0  0  0  0  0  0  0  0  0
  1  2  2  0
  2  3  1  0
  3  4  1  0
  4  5  1  0
  5  6  2  0
  6  7  1  0
  7  8  2  0
  8  9  1  0
  9 10  1  0
 10 11  2  0
 10 12  1  0
 12 13  1  0
 13 14  1  0
 14 15  1  0
 15 16  1  0
 16 17  1  0
  9 18  2  0
  4 19  2  0
 19 20  1  0
 20 21  2  0
 21 22  1  0
 22 23  1  0
 23 24  1  0
 24 25  1  0
 25 26  1  0
 26 27  1  0
 27 28  1  0
 22 29  2  0
 29 30  1  0
 30 31  2  0
 31  2  1  0
 18  5  1  0
 31 20  1  0
 17 12  1  0
 28 23  1  0
  3 32  1  0
  3 33  1  0
  6 34  1  0
  7 35  1  0
  8 36  1  0
 13 37  1  0
 13 38  1  0
 14 39  1  0
 14 40  1  0
 16 41  1  0
 16 42  1  0
 17 43  1  0
 17 44  1  0
 18 45  1  0
 21 46  1  0
 24 47  1  0
 24 48  1  0
 25 49  1  0
 25 50  1  0
 27 51  1  0
 27 52  1  0
 28 53  1  0
 28 54  1  0
 29 55  1  0
 30 56  1  0
M  END
>  <smiles>  (36) 
O=C1CC(c2cccc(C(=O)N3CCOCC3)c2)=Nc2cc(N3CCOCC3)ccc21

>  <score_type>  (36) 
oracle

>  <origin>  (36) 
autodockgpu

>  <m_score__min__energy>  (36) 
-9.1199999999999992

>  <m_primary>  (36) 
energy

>  <rmsd>  (36) 
6.314926656610108

>  <m_score__min__rmsd>  (36) 
6.314926656610108

>  <meeko>  (36) 
{"free_energy": -9.1, "intermolecular_energy": -10.0, "internal_energy": -0.77, "cluster_size": 50, "cluster_id": 1, "rank_in_cluster": 2}

>  <energy>  (36) 
-9.05

>  <cluster_rmsd>  (36) 
0.48

>  <cluster>  (36) 
1

$$$$

     RDKit          3D

 56 60  0  0  0  0  0  0  0  0999 V2000
  142.5110   72.3280  219.6400 O   0  0  0  0  0  0  0  0  0  0  0  0
  141.7130   72.7860  220.4850 C   0  0  0  0  0  0  0  0  0  0  0  0
  140.8730   71.8380  221.2390 C   0  0  0  0  0  0  0  0  0  0  0  0
  139.9610   72.5430  222.1900 C   0  0  0  0  0  0  0  0  0  0  0  0
  139.0450   71.7070  222.9710 C   0  0  0  0  0  0  0  0  0  0  0  0
  137.6780   71.8910  222.9820 C   0  0  0  0  0  0  0  0  0  0  0  0
  136.8550   71.0280  223.7130 C   0  0  0  0  0  0  0  0  0  0  0  0
  137.3700   69.9710  224.4460 C   0  0  0  0  0  0  0  0  0  0  0  0
  138.7180   69.7890  224.4380 C   0  0  0  0  0  0  0  0  0  0  0  0
  139.4100   68.7050  225.1510 C   0  0  0  0  0  0  0  0  0  0  0  0
  139.2030   67.4910  224.9140 O   0  0  0  0  0  0  0  0  0  0  0  0
  140.3470   69.0690  226.1510 N   0  0  0  0  0  0  0  0  0  0  0  0
  140.6620   70.4600  226.4770 C   0  0  0  0  0  0  0  0  0  0  0  0
  140.6040   70.6730  227.9710 C   0  0  0  0  0  0  0  0  0  0  0  0
  141.2760   69.7250  228.7010 O   0  0  0  0  0  0  0  0  0  0  0  0
  140.9690   68.4200  228.4290 C   0  0  0  0  0  0  0  0  0  0  0  0
  141.0570   68.0690  226.9600 C   0  0  0  0  0  0  0  0  0  0  0  0
  139.5260   70.6400  223.7150 C   0  0  0  0  0  0  0  0  0  0  0  0
  139.9360   73.8210  222.3310 N   0  0  0  0  0  0  0  0  0  0  0  0
  140.7430   74.7400  221.6220 C   0  0  0  0  0  0  0  0  0  0  0  0
  140.6580   76.1220  221.7910 C   0  0  0  0  0  0  0  0  0  0  0  0
  141.4740   76.9400  221.0210 C   0  0  0  0  0  0  0  0  0  0  0  0
  141.4650   78.3500  221.0860 N   0  0  0  0  0  0  0  0  0  0  0  0
  141.4720   79.2710  220.0010 C   0  0  0  0  0  0  0  0  0  0  0  0
  140.7310   80.5410  220.4390 C   0  0  0  0  0  0  0  0  0  0  0  0
  141.2940   81.1510  221.5380 O   0  0  0  0  0  0  0  0  0  0  0  0
  142.1160   80.3050  222.2840 C   0  0  0  0  0  0  0  0  0  0  0  0
  141.4960   78.9350  222.4460 C   0  0  0  0  0  0  0  0  0  0  0  0
  142.3650   76.3770  220.0960 C   0  0  0  0  0  0  0  0  0  0  0  0
  142.4540   75.0170  219.9270 C   0  0  0  0  0  0  0  0  0  0  0  0
  141.6390   74.2260  220.6960 C   0  0  0  0  0  0  0  0  0  0  0  0
  140.2669   71.2561  220.5290 H   0  0  0  0  0  0  0  0  0  0  0  0
  141.5356   71.1816  221.8222 H   0  0  0  0  0  0  0  0  0  0  0  0
  137.2329   72.7206  222.4130 H   0  0  0  0  0  0  0  0  0  0  0  0
  135.7675   71.1932  223.7057 H   0  0  0  0  0  0  0  0  0  0  0  0
  136.7100   69.3006  225.0161 H   0  0  0  0  0  0  0  0  0  0  0  0
  141.6733   70.6976  226.1154 H   0  0  0  0  0  0  0  0  0  0  0  0
  139.9250   71.1173  225.9925 H   0  0  0  0  0  0  0  0  0  0  0  0
  141.0421   71.6565  228.1965 H   0  0  0  0  0  0  0  0  0  0  0  0
  139.5449   70.6018  228.2595 H   0  0  0  0  0  0  0  0  0  0  0  0
  141.6680   67.7759  228.9826 H   0  0  0  0  0  0  0  0  0  0  0  0
  139.9239   68.2647  228.7350 H   0  0  0  0  0  0  0  0  0  0  0  0
  142.1140   68.0415  226.6566 H   0  0  0  0  0  0  0  0  0  0  0  0
  140.5920   67.0851  226.7998 H   0  0  0  0  0  0  0  0  0  0  0  0
  140.6116   70.4632  223.7289 H   0  0  0  0  0  0  0  0  0  0  0  0
  139.9579   76.5555  222.5204 H   0  0  0  0  0  0  0  0  0  0  0  0
  142.5091   79.5201  219.7319 H   0  0  0  0  0  0  0  0  0  0  0  0
  140.9760   78.8271  219.1253 H   0  0  0  0  0  0  0  0  0  0  0  0
  140.7379   81.2549  219.6022 H   0  0  0  0  0  0  0  0  0  0  0  0
  139.7110   80.2410  220.7210 H   0  0  0  0  0  0  0  0  0  0  0  0
  143.0833   80.2016  221.7705 H   0  0  0  0  0  0  0  0  0  0  0  0
  142.2496   80.7449  223.2833 H   0  0  0  0  0  0  0  0  0  0  0  0
  142.1068   78.3138  223.1176 H   0  0  0  0  0  0  0  0  0  0  0  0
  140.4903   78.9924  222.8880 H   0  0  0  0  0  0  0  0  0  0  0  0
  143.0055   77.0380  219.4936 H   0  0  0  0  0  0  0  0  0  0  0  0
  143.1539   74.5778  219.2009 H   0  0  0  0  0  0  0  0  0  0  0  0
  1  2  2  0
  2  3  1  0
  3  4  1  0
  4  5  1  0
  5  6  2  0
  6  7  1  0
  7  8  2  0
  8  9  1  0
  9 10  1  0
 10 11  2  0
 10 12  1  0
 12 13  1  0
 13 14  1  0
 14 15  1  0
 15 16  1  0
 16 17  1  0
  9 18  2  0
  4 19  2  0
 19 20  1  0
 20 21  2  0
 21 22  1  0
 22 23  1  0
 23 24  1  0
 24 25  1  0
 25 26  1  0
 26 27  1  0
 27 28  1  0
 22 29  2  0
 29 30  1  0
 30 31  2  0
 31  2  1  0
 18  5  1  0
 31 20  1  0
 17 12  1  0
 28 23  1  0
  3 32  1  0
  3 33  1  0
  6 34  1  0
  7 35  1  0
  8 36  1  0
 13 37  1  0
 13 38  1  0
 14 39  1  0
 14 40  1  0
 16 41  1  0
 16 42  1  0
 17 43  1  0
 17 44  1  0
 18 45  1  0
 21 46  1  0
 24 47  1  0
 24 48  1  0
 25 49  1  0
 25 50  1  0
 27 51  1  0
 27 52  1  0
 28 53  1  0
 28 54  1  0
 29 55  1  0
 30 56  1  0
M  END
>  <smiles>  (37) 
O=C1CC(c2cccc(C(=O)N3CCOCC3)c2)=Nc2cc(N3CCOCC3)ccc21

>  <score_type>  (37) 
oracle

>  <origin>  (37) 
autodockgpu

>  <m_score__min__energy>  (37) 
-9.1199999999999992

>  <m_primary>  (37) 
energy

>  <rmsd>  (37) 
6.270989136048424

>  <m_score__min__rmsd>  (37) 
6.270989136048424

>  <meeko>  (37) 
{"free_energy": -9.08, "intermolecular_energy": -9.98, "internal_energy": -0.83, "cluster_size": 50, "cluster_id": 1, "rank_in_cluster": 13}

>  <energy>  (37) 
-9.04

>  <cluster_rmsd>  (37) 
0.36

>  <cluster>  (37) 
1

$$$$

     RDKit          3D

 56 60  0  0  0  0  0  0  0  0999 V2000
  142.2310   72.4280  219.3950 O   0  0  0  0  0  0  0  0  0  0  0  0
  141.5120   72.8640  220.3200 C   0  0  0  0  0  0  0  0  0  0  0  0
  140.6860   71.9040  221.0730 C   0  0  0  0  0  0  0  0  0  0  0  0
  139.8710   72.5830  222.1260 C   0  0  0  0  0  0  0  0  0  0  0  0
  138.9760   71.7360  222.9190 C   0  0  0  0  0  0  0  0  0  0  0  0
  137.6060   71.8970  222.9400 C   0  0  0  0  0  0  0  0  0  0  0  0
  136.8040   71.0250  223.6810 C   0  0  0  0  0  0  0  0  0  0  0  0
  137.3420   69.9810  224.4150 C   0  0  0  0  0  0  0  0  0  0  0  0
  138.6920   69.8210  224.3980 C   0  0  0  0  0  0  0  0  0  0  0  0
  139.4070   68.7520  225.1110 C   0  0  0  0  0  0  0  0  0  0  0  0
  139.2230   67.5330  224.8780 O   0  0  0  0  0  0  0  0  0  0  0  0
  140.3400   69.1370  226.1070 N   0  0  0  0  0  0  0  0  0  0  0  0
  140.6300   70.5340  226.4280 C   0  0  0  0  0  0  0  0  0  0  0  0
  140.5730   70.7500  227.9220 C   0  0  0  0  0  0  0  0  0  0  0  0
  141.2650   69.8170  228.6520 O   0  0  0  0  0  0  0  0  0  0  0  0
  140.9830   68.5060  228.3850 C   0  0  0  0  0  0  0  0  0  0  0  0
  141.0730   68.1520  226.9160 C   0  0  0  0  0  0  0  0  0  0  0  0
  139.4800   70.6810  223.6640 C   0  0  0  0  0  0  0  0  0  0  0  0
  139.9110   73.8500  222.3440 N   0  0  0  0  0  0  0  0  0  0  0  0
  140.7070   74.7790  221.6360 C   0  0  0  0  0  0  0  0  0  0  0  0
  140.6930   76.1500  221.8930 C   0  0  0  0  0  0  0  0  0  0  0  0
  141.4890   76.9830  221.1170 C   0  0  0  0  0  0  0  0  0  0  0  0
  141.5450   78.3850  221.2670 N   0  0  0  0  0  0  0  0  0  0  0  0
  141.5850   79.3680  220.2380 C   0  0  0  0  0  0  0  0  0  0  0  0
  140.9070   80.6420  220.7590 C   0  0  0  0  0  0  0  0  0  0  0  0
  141.5060   81.1580  221.8870 O   0  0  0  0  0  0  0  0  0  0  0  0
  142.2950   80.2330  222.5710 C   0  0  0  0  0  0  0  0  0  0  0  0
  141.6140   78.8850  222.6580 C   0  0  0  0  0  0  0  0  0  0  0  0
  142.2900   76.4440  220.1000 C   0  0  0  0  0  0  0  0  0  0  0  0
  142.3090   75.0940  219.8440 C   0  0  0  0  0  0  0  0  0  0  0  0
  141.5150   74.2890  220.6200 C   0  0  0  0  0  0  0  0  0  0  0  0
  140.0092   71.3909  220.3740 H   0  0  0  0  0  0  0  0  0  0  0  0
  141.3581   71.1877  221.5682 H   0  0  0  0  0  0  0  0  0  0  0  0
  137.1426   72.7161  222.3705 H   0  0  0  0  0  0  0  0  0  0  0  0
  135.7139   71.1720  223.6813 H   0  0  0  0  0  0  0  0  0  0  0  0
  136.6974   69.3028  224.9934 H   0  0  0  0  0  0  0  0  0  0  0  0
  141.6355   70.7894  226.0623 H   0  0  0  0  0  0  0  0  0  0  0  0
  139.8793   71.1762  225.9441 H   0  0  0  0  0  0  0  0  0  0  0  0
  140.9933   71.7422  228.1434 H   0  0  0  0  0  0  0  0  0  0  0  0
  139.5164   70.6598  228.2143 H   0  0  0  0  0  0  0  0  0  0  0  0
  141.6965   67.8775  228.9382 H   0  0  0  0  0  0  0  0  0  0  0  0
  139.9422   68.3311  228.6950 H   0  0  0  0  0  0  0  0  0  0  0  0
  142.1292   68.1443  226.6088 H   0  0  0  0  0  0  0  0  0  0  0  0
  140.6274   67.1585  226.7598 H   0  0  0  0  0  0  0  0  0  0  0  0
  140.5684   70.5216  223.6696 H   0  0  0  0  0  0  0  0  0  0  0  0
  140.0637   76.5636  222.6948 H   0  0  0  0  0  0  0  0  0  0  0  0
  142.6301   79.5854  219.9723 H   0  0  0  0  0  0  0  0  0  0  0  0
  141.0616   79.0001  219.3432 H   0  0  0  0  0  0  0  0  0  0  0  0
  140.9409   81.4041  219.9665 H   0  0  0  0  0  0  0  0  0  0  0  0
  139.8762   80.3727  221.0329 H   0  0  0  0  0  0  0  0  0  0  0  0
  143.2518   80.1172  222.0408 H   0  0  0  0  0  0  0  0  0  0  0  0
  142.4581   80.6054  223.5931 H   0  0  0  0  0  0  0  0  0  0  0  0
  142.2012   78.1976  223.2847 H   0  0  0  0  0  0  0  0  0  0  0  0
  140.6157   78.9614  223.1137 H   0  0  0  0  0  0  0  0  0  0  0  0
  142.9162   77.1158  219.4945 H   0  0  0  0  0  0  0  0  0  0  0  0
  142.9384   74.6742  219.0455 H   0  0  0  0  0  0  0  0  0  0  0  0
  1  2  2  0
  2  3  1  0
  3  4  1  0
  4  5  1  0
  5  6  2  0
  6  7  1  0
  7  8  2  0
  8  9  1  0
  9 10  1  0
 10 11  2  0
 10 12  1  0
 12 13  1  0
 13 14  1  0
 14 15  1  0
 15 16  1  0
 16 17  1  0
  9 18  2  0
  4 19  2  0
 19 20  1  0
 20 21  2  0
 21 22  1  0
 22 23  1  0
 23 24  1  0
 24 25  1  0
 25 26  1  0
 26 27  1  0
 27 28  1  0
 22 29  2  0
 29 30  1  0
 30 31  2  0
 31  2  1  0
 18  5  1  0
 31 20  1  0
 17 12  1  0
 28 23  1  0
  3 32  1  0
  3 33  1  0
  6 34  1  0
  7 35  1  0
  8 36  1  0
 13 37  1  0
 13 38  1  0
 14 39  1  0
 14 40  1  0
 16 41  1  0
 16 42  1  0
 17 43  1  0
 17 44  1  0
 18 45  1  0
 21 46  1  0
 24 47  1  0
 24 48  1  0
 25 49  1  0
 25 50  1  0
 27 51  1  0
 27 52  1  0
 28 53  1  0
 28 54  1  0
 29 55  1  0
 30 56  1  0
M  END
>  <smiles>  (38) 
O=C1CC(c2cccc(C(=O)N3CCOCC3)c2)=Nc2cc(N3CCOCC3)ccc21

>  <score_type>  (38) 
oracle

>  <origin>  (38) 
autodockgpu

>  <m_score__min__energy>  (38) 
-9.1199999999999992

>  <m_primary>  (38) 
energy

>  <rmsd>  (38) 
6.2966742503929405

>  <m_score__min__rmsd>  (38) 
6.2966742503929405

>  <meeko>  (38) 
{"free_energy": -9.07, "intermolecular_energy": -9.97, "internal_energy": -0.83, "cluster_size": 50, "cluster_id": 1, "rank_in_cluster": 19}

>  <energy>  (38) 
-9.04

>  <cluster_rmsd>  (38) 
0.48

>  <cluster>  (38) 
1

$$$$

     RDKit          3D

 56 60  0  0  0  0  0  0  0  0999 V2000
  142.2150   72.6750  219.3590 O   0  0  0  0  0  0  0  0  0  0  0  0
  141.4870   73.0850  220.2900 C   0  0  0  0  0  0  0  0  0  0  0  0
  140.6580   72.1030  221.0110 C   0  0  0  0  0  0  0  0  0  0  0  0
  139.8330   72.7530  222.0750 C   0  0  0  0  0  0  0  0  0  0  0  0
  138.9340   71.8830  222.8380 C   0  0  0  0  0  0  0  0  0  0  0  0
  137.5600   72.0030  222.8060 C   0  0  0  0  0  0  0  0  0  0  0  0
  136.7560   71.1110  223.5220 C   0  0  0  0  0  0  0  0  0  0  0  0
  137.2970   70.0870  224.2830 C   0  0  0  0  0  0  0  0  0  0  0  0
  138.6520   69.9680  224.3170 C   0  0  0  0  0  0  0  0  0  0  0  0
  139.3700   68.9240  225.0640 C   0  0  0  0  0  0  0  0  0  0  0  0
  139.1930   67.6990  224.8680 O   0  0  0  0  0  0  0  0  0  0  0  0
  140.3000   69.3450  226.0490 N   0  0  0  0  0  0  0  0  0  0  0  0
  140.5820   70.7530  226.3280 C   0  0  0  0  0  0  0  0  0  0  0  0
  140.5210   71.0130  227.8150 C   0  0  0  0  0  0  0  0  0  0  0  0
  141.2170   70.1070  228.5740 O   0  0  0  0  0  0  0  0  0  0  0  0
  140.9420   68.7860  228.3460 C   0  0  0  0  0  0  0  0  0  0  0  0
  141.0360   68.3890  226.8890 C   0  0  0  0  0  0  0  0  0  0  0  0
  139.4400   70.8480  223.6090 C   0  0  0  0  0  0  0  0  0  0  0  0
  139.8680   74.0140  222.3260 N   0  0  0  0  0  0  0  0  0  0  0  0
  140.6660   74.9630  221.6490 C   0  0  0  0  0  0  0  0  0  0  0  0
  140.6460   76.3270  221.9410 C   0  0  0  0  0  0  0  0  0  0  0  0
  141.4460   77.1810  221.1930 C   0  0  0  0  0  0  0  0  0  0  0  0
  141.4970   78.5790  221.3790 N   0  0  0  0  0  0  0  0  0  0  0  0
  141.4890   79.5910  220.3780 C   0  0  0  0  0  0  0  0  0  0  0  0
  140.8220   80.8440  220.9600 C   0  0  0  0  0  0  0  0  0  0  0  0
  141.4600   81.3340  222.0770 O   0  0  0  0  0  0  0  0  0  0  0  0
  142.2820   80.3980  222.7050 C   0  0  0  0  0  0  0  0  0  0  0  0
  141.6160   79.0420  222.7810 C   0  0  0  0  0  0  0  0  0  0  0  0
  142.2570   76.6720  220.1690 C   0  0  0  0  0  0  0  0  0  0  0  0
  142.2810   75.3290  219.8780 C   0  0  0  0  0  0  0  0  0  0  0  0
  141.4830   74.5020  220.6270 C   0  0  0  0  0  0  0  0  0  0  0  0
  139.9881   71.6065  220.2936 H   0  0  0  0  0  0  0  0  0  0  0  0
  141.3280   71.3753  221.4923 H   0  0  0  0  0  0  0  0  0  0  0  0
  137.0945   72.8048  222.2140 H   0  0  0  0  0  0  0  0  0  0  0  0
  135.6628   71.2253  223.4801 H   0  0  0  0  0  0  0  0  0  0  0  0
  136.6519   69.3928  224.8415 H   0  0  0  0  0  0  0  0  0  0  0  0
  141.5868   71.0028  225.9565 H   0  0  0  0  0  0  0  0  0  0  0  0
  139.8291   71.3765  225.8236 H   0  0  0  0  0  0  0  0  0  0  0  0
  140.9347   72.0139  228.0073 H   0  0  0  0  0  0  0  0  0  0  0  0
  139.4644   70.9246  228.1079 H   0  0  0  0  0  0  0  0  0  0  0  0
  141.6579   68.1782  228.9187 H   0  0  0  0  0  0  0  0  0  0  0  0
  139.9017   68.6149  228.6598 H   0  0  0  0  0  0  0  0  0  0  0  0
  142.0928   68.3772  226.5840 H   0  0  0  0  0  0  0  0  0  0  0  0
  140.5949   67.3893  226.7623 H   0  0  0  0  0  0  0  0  0  0  0  0
  140.5317   70.7226  223.6580 H   0  0  0  0  0  0  0  0  0  0  0  0
  140.0091   76.7185  222.7479 H   0  0  0  0  0  0  0  0  0  0  0  0
  142.5212   79.8250  220.0783 H   0  0  0  0  0  0  0  0  0  0  0  0
  140.9336   79.2436  219.4944 H   0  0  0  0  0  0  0  0  0  0  0  0
  140.8189   81.6278  220.1882 H   0  0  0  0  0  0  0  0  0  0  0  0
  139.8049   80.5580  221.2662 H   0  0  0  0  0  0  0  0  0  0  0  0
  143.2188   80.3053  222.1359 H   0  0  0  0  0  0  0  0  0  0  0  0
  142.4808   80.7441  223.7300 H   0  0  0  0  0  0  0  0  0  0  0  0
  142.2327   78.3433  223.3653 H   0  0  0  0  0  0  0  0  0  0  0  0
  140.6356   79.0967  223.2768 H   0  0  0  0  0  0  0  0  0  0  0  0
  142.8866   77.3611  219.5870 H   0  0  0  0  0  0  0  0  0  0  0  0
  142.9172   74.9316  219.0735 H   0  0  0  0  0  0  0  0  0  0  0  0
  1  2  2  0
  2  3  1  0
  3  4  1  0
  4  5  1  0
  5  6  2  0
  6  7  1  0
  7  8  2  0
  8  9  1  0
  9 10  1  0
 10 11  2  0
 10 12  1  0
 12 13  1  0
 13 14  1  0
 14 15  1  0
 15 16  1  0
 16 17  1  0
  9 18  2  0
  4 19  2  0
 19 20  1  0
 20 21  2  0
 21 22  1  0
 22 23  1  0
 23 24  1  0
 24 25  1  0
 25 26  1  0
 26 27  1  0
 27 28  1  0
 22 29  2  0
 29 30  1  0
 30 31  2  0
 31  2  1  0
 18  5  1  0
 31 20  1  0
 17 12  1  0
 28 23  1  0
  3 32  1  0
  3 33  1  0
  6 34  1  0
  7 35  1  0
  8 36  1  0
 13 37  1  0
 13 38  1  0
 14 39  1  0
 14 40  1  0
 16 41  1  0
 16 42  1  0
 17 43  1  0
 17 44  1  0
 18 45  1  0
 21 46  1  0
 24 47  1  0
 24 48  1  0
 25 49  1  0
 25 50  1  0
 27 51  1  0
 27 52  1  0
 28 53  1  0
 28 54  1  0
 29 55  1  0
 30 56  1  0
M  END
>  <smiles>  (39) 
O=C1CC(c2cccc(C(=O)N3CCOCC3)c2)=Nc2cc(N3CCOCC3)ccc21

>  <score_type>  (39) 
oracle

>  <origin>  (39) 
autodockgpu

>  <m_score__min__energy>  (39) 
-9.1199999999999992

>  <m_primary>  (39) 
energy

>  <rmsd>  (39) 
6.297678760723983

>  <m_score__min__rmsd>  (39) 
6.297678760723983

>  <meeko>  (39) 
{"free_energy": -9.08, "intermolecular_energy": -9.98, "internal_energy": -0.79, "cluster_size": 50, "cluster_id": 1, "rank_in_cluster": 10}

>  <energy>  (39) 
-9.03

>  <cluster_rmsd>  (39) 
0.13

>  <cluster>  (39) 
1

$$$$

     RDKit          3D

 56 60  0  0  0  0  0  0  0  0999 V2000
  142.1980   72.6650  219.3460 O   0  0  0  0  0  0  0  0  0  0  0  0
  141.4750   73.0690  220.2830 C   0  0  0  0  0  0  0  0  0  0  0  0
  140.6490   72.0830  221.0020 C   0  0  0  0  0  0  0  0  0  0  0  0
  139.8300   72.7260  222.0740 C   0  0  0  0  0  0  0  0  0  0  0  0
  138.9350   71.8520  222.8370 C   0  0  0  0  0  0  0  0  0  0  0  0
  137.5610   71.9650  222.8030 C   0  0  0  0  0  0  0  0  0  0  0  0
  136.7610   71.0680  223.5190 C   0  0  0  0  0  0  0  0  0  0  0  0
  137.3060   70.0480  224.2800 C   0  0  0  0  0  0  0  0  0  0  0  0
  138.6610   69.9360  224.3170 C   0  0  0  0  0  0  0  0  0  0  0  0
  139.3840   68.8960  225.0650 C   0  0  0  0  0  0  0  0  0  0  0  0
  139.2070   67.6700  224.8740 O   0  0  0  0  0  0  0  0  0  0  0  0
  140.3180   69.3220  226.0440 N   0  0  0  0  0  0  0  0  0  0  0  0
  140.5990   70.7310  226.3160 C   0  0  0  0  0  0  0  0  0  0  0  0
  140.5440   70.9980  227.8020 C   0  0  0  0  0  0  0  0  0  0  0  0
  141.2450   70.0950  228.5610 O   0  0  0  0  0  0  0  0  0  0  0  0
  140.9700   68.7740  228.3400 C   0  0  0  0  0  0  0  0  0  0  0  0
  141.0580   68.3700  226.8840 C   0  0  0  0  0  0  0  0  0  0  0  0
  139.4460   70.8200  223.6090 C   0  0  0  0  0  0  0  0  0  0  0  0
  139.8670   73.9860  222.3330 N   0  0  0  0  0  0  0  0  0  0  0  0
  140.6620   74.9390  221.6580 C   0  0  0  0  0  0  0  0  0  0  0  0
  140.6440   76.3010  221.9580 C   0  0  0  0  0  0  0  0  0  0  0  0
  141.4410   77.1590  221.2120 C   0  0  0  0  0  0  0  0  0  0  0  0
  141.4930   78.5560  221.4070 N   0  0  0  0  0  0  0  0  0  0  0  0
  141.4820   79.5740  220.4110 C   0  0  0  0  0  0  0  0  0  0  0  0
  140.8170   80.8240  221.0040 C   0  0  0  0  0  0  0  0  0  0  0  0
  141.4600   81.3070  222.1220 O   0  0  0  0  0  0  0  0  0  0  0  0
  142.2840   80.3660  222.7410 C   0  0  0  0  0  0  0  0  0  0  0  0
  141.6170   79.0100  222.8100 C   0  0  0  0  0  0  0  0  0  0  0  0
  142.2450   76.6560  220.1810 C   0  0  0  0  0  0  0  0  0  0  0  0
  142.2680   75.3150  219.8810 C   0  0  0  0  0  0  0  0  0  0  0  0
  141.4730   74.4840  220.6290 C   0  0  0  0  0  0  0  0  0  0  0  0
  139.9752   71.5915  220.2848 H   0  0  0  0  0  0  0  0  0  0  0  0
  141.3211   71.3521  221.4753 H   0  0  0  0  0  0  0  0  0  0  0  0
  137.0919   72.7641  222.2102 H   0  0  0  0  0  0  0  0  0  0  0  0
  135.6672   71.1763  223.4760 H   0  0  0  0  0  0  0  0  0  0  0  0
  136.6635   69.3502  224.8371 H   0  0  0  0  0  0  0  0  0  0  0  0
  141.6018   70.9806  225.9391 H   0  0  0  0  0  0  0  0  0  0  0  0
  139.8427   71.3510  225.8123 H   0  0  0  0  0  0  0  0  0  0  0  0
  140.9576   72.0001  227.9882 H   0  0  0  0  0  0  0  0  0  0  0  0
  139.4889   70.9109  228.1005 H   0  0  0  0  0  0  0  0  0  0  0  0
  141.6887   68.1691  228.9124 H   0  0  0  0  0  0  0  0  0  0  0  0
  139.9310   68.6040  228.6588 H   0  0  0  0  0  0  0  0  0  0  0  0
  142.1134   68.3572  226.5743 H   0  0  0  0  0  0  0  0  0  0  0  0
  140.6173   67.3694  226.7635 H   0  0  0  0  0  0  0  0  0  0  0  0
  140.5383   70.7002  223.6591 H   0  0  0  0  0  0  0  0  0  0  0  0
  140.0106   76.6879  222.7699 H   0  0  0  0  0  0  0  0  0  0  0  0
  142.5132   79.8095  220.1089 H   0  0  0  0  0  0  0  0  0  0  0  0
  140.9239   79.2321  219.5269 H   0  0  0  0  0  0  0  0  0  0  0  0
  140.8108   81.6127  220.2372 H   0  0  0  0  0  0  0  0  0  0  0  0
  139.8011   80.5362  221.3124 H   0  0  0  0  0  0  0  0  0  0  0  0
  143.2187   80.2765  222.1680 H   0  0  0  0  0  0  0  0  0  0  0  0
  142.4869   80.7050  223.7676 H   0  0  0  0  0  0  0  0  0  0  0  0
  142.2349   78.3070  223.3879 H   0  0  0  0  0  0  0  0  0  0  0  0
  140.6381   79.0627  223.3089 H   0  0  0  0  0  0  0  0  0  0  0  0
  142.8710   77.3488  219.5994 H   0  0  0  0  0  0  0  0  0  0  0  0
  142.9005   74.9225  219.0711 H   0  0  0  0  0  0  0  0  0  0  0  0
  1  2  2  0
  2  3  1  0
  3  4  1  0
  4  5  1  0
  5  6  2  0
  6  7  1  0
  7  8  2  0
  8  9  1  0
  9 10  1  0
 10 11  2  0
 10 12  1  0
 12 13  1  0
 13 14  1  0
 14 15  1  0
 15 16  1  0
 16 17  1  0
  9 18  2  0
  4 19  2  0
 19 20  1  0
 20 21  2  0
 21 22  1  0
 22 23  1  0
 23 24  1  0
 24 25  1  0
 25 26  1  0
 26 27  1  0
 27 28  1  0
 22 29  2  0
 29 30  1  0
 30 31  2  0
 31  2  1  0
 18  5  1  0
 31 20  1  0
 17 12  1  0
 28 23  1  0
  3 32  1  0
  3 33  1  0
  6 34  1  0
  7 35  1  0
  8 36  1  0
 13 37  1  0
 13 38  1  0
 14 39  1  0
 14 40  1  0
 16 41  1  0
 16 42  1  0
 17 43  1  0
 17 44  1  0
 18 45  1  0
 21 46  1  0
 24 47  1  0
 24 48  1  0
 25 49  1  0
 25 50  1  0
 27 51  1  0
 27 52  1  0
 28 53  1  0
 28 54  1  0
 29 55  1  0
 30 56  1  0
M  END
>  <smiles>  (40) 
O=C1CC(c2cccc(C(=O)N3CCOCC3)c2)=Nc2cc(N3CCOCC3)ccc21

>  <score_type>  (40) 
oracle

>  <origin>  (40) 
autodockgpu

>  <m_score__min__energy>  (40) 
-9.1199999999999992

>  <m_primary>  (40) 
energy

>  <rmsd>  (40) 
6.294598418630538

>  <m_score__min__rmsd>  (40) 
6.294598418630538

>  <meeko>  (40) 
{"free_energy": -9.1, "intermolecular_energy": -9.99, "internal_energy": -0.78, "cluster_size": 50, "cluster_id": 1, "rank_in_cluster": 3}

>  <energy>  (40) 
-9.02

>  <cluster_rmsd>  (40) 
0.56

>  <cluster>  (40) 
1

$$$$

     RDKit          3D

 56 60  0  0  0  0  0  0  0  0999 V2000
  142.4770   72.3520  219.6170 O   0  0  0  0  0  0  0  0  0  0  0  0
  141.6840   72.8100  220.4690 C   0  0  0  0  0  0  0  0  0  0  0  0
  140.8470   71.8610  221.2230 C   0  0  0  0  0  0  0  0  0  0  0  0
  139.9420   72.5640  222.1820 C   0  0  0  0  0  0  0  0  0  0  0  0
  139.0280   71.7280  222.9650 C   0  0  0  0  0  0  0  0  0  0  0  0
  137.6600   71.9050  222.9710 C   0  0  0  0  0  0  0  0  0  0  0  0
  136.8390   71.0420  223.7040 C   0  0  0  0  0  0  0  0  0  0  0  0
  137.3580   69.9920  224.4440 C   0  0  0  0  0  0  0  0  0  0  0  0
  138.7060   69.8170  224.4410 C   0  0  0  0  0  0  0  0  0  0  0  0
  139.4010   68.7390  225.1630 C   0  0  0  0  0  0  0  0  0  0  0  0
  139.1950   67.5230  224.9370 O   0  0  0  0  0  0  0  0  0  0  0  0
  140.3400   69.1140  226.1570 N   0  0  0  0  0  0  0  0  0  0  0  0
  140.6540   70.5080  226.4700 C   0  0  0  0  0  0  0  0  0  0  0  0
  140.5990   70.7350  227.9620 C   0  0  0  0  0  0  0  0  0  0  0  0
  141.2740   69.7940  228.6990 O   0  0  0  0  0  0  0  0  0  0  0  0
  140.9680   68.4870  228.4400 C   0  0  0  0  0  0  0  0  0  0  0  0
  141.0530   68.1220  226.9730 C   0  0  0  0  0  0  0  0  0  0  0  0
  139.5120   70.6680  223.7170 C   0  0  0  0  0  0  0  0  0  0  0  0
  139.9220   73.8420  222.3290 N   0  0  0  0  0  0  0  0  0  0  0  0
  140.7280   74.7610  221.6200 C   0  0  0  0  0  0  0  0  0  0  0  0
  140.6480   76.1430  221.7950 C   0  0  0  0  0  0  0  0  0  0  0  0
  141.4620   76.9620  221.0240 C   0  0  0  0  0  0  0  0  0  0  0  0
  141.4580   78.3710  221.0960 N   0  0  0  0  0  0  0  0  0  0  0  0
  141.4470   79.2970  220.0140 C   0  0  0  0  0  0  0  0  0  0  0  0
  140.7170   80.5670  220.4710 C   0  0  0  0  0  0  0  0  0  0  0  0
  141.3030   81.1710  221.5630 O   0  0  0  0  0  0  0  0  0  0  0  0
  142.1370   80.3200  222.2890 C   0  0  0  0  0  0  0  0  0  0  0  0
  141.5170   78.9510  222.4570 C   0  0  0  0  0  0  0  0  0  0  0  0
  142.3460   76.4000  220.0920 C   0  0  0  0  0  0  0  0  0  0  0  0
  142.4300   75.0400  219.9160 C   0  0  0  0  0  0  0  0  0  0  0  0
  141.6160   74.2490  220.6860 C   0  0  0  0  0  0  0  0  0  0  0  0
  140.2357   71.2834  220.5140 H   0  0  0  0  0  0  0  0  0  0  0  0
  141.5114   71.2005  221.7995 H   0  0  0  0  0  0  0  0  0  0  0  0
  137.2125   72.7292  222.3962 H   0  0  0  0  0  0  0  0  0  0  0  0
  135.7507   71.2014  223.6926 H   0  0  0  0  0  0  0  0  0  0  0  0
  136.7000   69.3212  225.0159 H   0  0  0  0  0  0  0  0  0  0  0  0
  141.6643   70.7435  226.1041 H   0  0  0  0  0  0  0  0  0  0  0  0
  139.9150   71.1599  225.9813 H   0  0  0  0  0  0  0  0  0  0  0  0
  141.0365   71.7210  228.1774 H   0  0  0  0  0  0  0  0  0  0  0  0
  139.5406   70.6658  228.2537 H   0  0  0  0  0  0  0  0  0  0  0  0
  141.6691   67.8489  228.9980 H   0  0  0  0  0  0  0  0  0  0  0  0
  139.9238   68.3335  228.7499 H   0  0  0  0  0  0  0  0  0  0  0  0
  142.1092   68.0927  226.6673 H   0  0  0  0  0  0  0  0  0  0  0  0
  140.5889   67.1361  226.8229 H   0  0  0  0  0  0  0  0  0  0  0  0
  140.5985   70.4974  223.7364 H   0  0  0  0  0  0  0  0  0  0  0  0
  139.9531   76.5755  222.5299 H   0  0  0  0  0  0  0  0  0  0  0  0
  142.4795   79.5449  219.7267 H   0  0  0  0  0  0  0  0  0  0  0  0
  140.9339   78.8578  219.1458 H   0  0  0  0  0  0  0  0  0  0  0  0
  140.7100   81.2846  219.6373 H   0  0  0  0  0  0  0  0  0  0  0  0
  139.7014   80.2686  220.7703 H   0  0  0  0  0  0  0  0  0  0  0  0
  143.0939   80.2166  221.7564 H   0  0  0  0  0  0  0  0  0  0  0  0
  142.2910   80.7552  223.2875 H   0  0  0  0  0  0  0  0  0  0  0  0
  142.1392   78.3257  223.1142 H   0  0  0  0  0  0  0  0  0  0  0  0
  140.5200   79.0094  222.9182 H   0  0  0  0  0  0  0  0  0  0  0  0
  142.9855   77.0616  219.4893 H   0  0  0  0  0  0  0  0  0  0  0  0
  143.1246   74.6016  219.1844 H   0  0  0  0  0  0  0  0  0  0  0  0
  1  2  2  0
  2  3  1  0
  3  4  1  0
  4  5  1  0
  5  6  2  0
  6  7  1  0
  7  8  2  0
  8  9  1  0
  9 10  1  0
 10 11  2  0
 10 12  1  0
 12 13  1  0
 13 14  1  0
 14 15  1  0
 15 16  1  0
 16 17  1  0
  9 18  2  0
  4 19  2  0
 19 20  1  0
 20 21  2  0
 21 22  1  0
 22 23  1  0
 23 24  1  0
 24 25  1  0
 25 26  1  0
 26 27  1  0
 27 28  1  0
 22 29  2  0
 29 30  1  0
 30 31  2  0
 31  2  1  0
 18  5  1  0
 31 20  1  0
 17 12  1  0
 28 23  1  0
  3 32  1  0
  3 33  1  0
  6 34  1  0
  7 35  1  0
  8 36  1  0
 13 37  1  0
 13 38  1  0
 14 39  1  0
 14 40  1  0
 16 41  1  0
 16 42  1  0
 17 43  1  0
 17 44  1  0
 18 45  1  0
 21 46  1  0
 24 47  1  0
 24 48  1  0
 25 49  1  0
 25 50  1  0
 27 51  1  0
 27 52  1  0
 28 53  1  0
 28 54  1  0
 29 55  1  0
 30 56  1  0
M  END
>  <smiles>  (41) 
O=C1CC(c2cccc(C(=O)N3CCOCC3)c2)=Nc2cc(N3CCOCC3)ccc21

>  <score_type>  (41) 
oracle

>  <origin>  (41) 
autodockgpu

>  <m_score__min__energy>  (41) 
-9.1199999999999992

>  <m_primary>  (41) 
energy

>  <rmsd>  (41) 
6.271345779545189

>  <m_score__min__rmsd>  (41) 
6.271345779545189

>  <meeko>  (41) 
{"free_energy": -9.09, "intermolecular_energy": -9.98, "internal_energy": -0.82, "cluster_size": 50, "cluster_id": 1, "rank_in_cluster": 9}

>  <energy>  (41) 
-9.01

>  <cluster_rmsd>  (41) 
0.31

>  <cluster>  (41) 
1

$$$$

     RDKit          3D

 56 60  0  0  0  0  0  0  0  0999 V2000
  142.3300   72.4340  219.5200 O   0  0  0  0  0  0  0  0  0  0  0  0
  141.5760   72.8690  220.4170 C   0  0  0  0  0  0  0  0  0  0  0  0
  140.7470   71.9050  221.1610 C   0  0  0  0  0  0  0  0  0  0  0  0
  139.8890   72.5830  222.1790 C   0  0  0  0  0  0  0  0  0  0  0  0
  138.9870   71.7300  222.9590 C   0  0  0  0  0  0  0  0  0  0  0  0
  137.6170   71.8890  222.9650 C   0  0  0  0  0  0  0  0  0  0  0  0
  136.8080   71.0110  223.6940 C   0  0  0  0  0  0  0  0  0  0  0  0
  137.3410   69.9650  224.4300 C   0  0  0  0  0  0  0  0  0  0  0  0
  138.6920   69.8080  224.4260 C   0  0  0  0  0  0  0  0  0  0  0  0
  139.4020   68.7370  225.1420 C   0  0  0  0  0  0  0  0  0  0  0  0
  139.2200   67.5200  224.9040 O   0  0  0  0  0  0  0  0  0  0  0  0
  140.3260   69.1210  226.1470 N   0  0  0  0  0  0  0  0  0  0  0  0
  140.6120   70.5170  226.4740 C   0  0  0  0  0  0  0  0  0  0  0  0
  140.5430   70.7290  227.9680 C   0  0  0  0  0  0  0  0  0  0  0  0
  141.2310   69.7950  228.7010 O   0  0  0  0  0  0  0  0  0  0  0  0
  140.9510   68.4840  228.4280 C   0  0  0  0  0  0  0  0  0  0  0  0
  141.0530   68.1340  226.9590 C   0  0  0  0  0  0  0  0  0  0  0  0
  139.4850   70.6740  223.7050 C   0  0  0  0  0  0  0  0  0  0  0  0
  139.8980   73.8540  222.3790 N   0  0  0  0  0  0  0  0  0  0  0  0
  140.6970   74.7880  221.6800 C   0  0  0  0  0  0  0  0  0  0  0  0
  140.6490   76.1620  221.9150 C   0  0  0  0  0  0  0  0  0  0  0  0
  141.4510   76.9980  221.1510 C   0  0  0  0  0  0  0  0  0  0  0  0
  141.4760   78.4030  221.2800 N   0  0  0  0  0  0  0  0  0  0  0  0
  141.4380   79.3740  220.2390 C   0  0  0  0  0  0  0  0  0  0  0  0
  140.7520   80.6350  220.7780 C   0  0  0  0  0  0  0  0  0  0  0  0
  141.3920   81.1830  221.8680 O   0  0  0  0  0  0  0  0  0  0  0  0
  142.2380   80.2880  222.5230 C   0  0  0  0  0  0  0  0  0  0  0  0
  141.6000   78.9240  222.6600 C   0  0  0  0  0  0  0  0  0  0  0  0
  142.2920   76.4600  220.1660 C   0  0  0  0  0  0  0  0  0  0  0  0
  142.3430   75.1080  219.9310 C   0  0  0  0  0  0  0  0  0  0  0  0
  141.5420   74.2990  220.6960 C   0  0  0  0  0  0  0  0  0  0  0  0
  140.1008   71.3682  220.4509 H   0  0  0  0  0  0  0  0  0  0  0  0
  141.4182   71.2100  221.6868 H   0  0  0  0  0  0  0  0  0  0  0  0
  137.1585   72.7098  222.3940 H   0  0  0  0  0  0  0  0  0  0  0  0
  135.7175   71.1551  223.6826 H   0  0  0  0  0  0  0  0  0  0  0  0
  136.6921   69.2833  224.9994 H   0  0  0  0  0  0  0  0  0  0  0  0
  141.6201   70.7744  226.1169 H   0  0  0  0  0  0  0  0  0  0  0  0
  139.8645   71.1597  225.9860 H   0  0  0  0  0  0  0  0  0  0  0  0
  140.9599   71.7213  228.1952 H   0  0  0  0  0  0  0  0  0  0  0  0
  139.4843   70.6363  228.2519 H   0  0  0  0  0  0  0  0  0  0  0  0
  141.6599   67.8540  228.9853 H   0  0  0  0  0  0  0  0  0  0  0  0
  139.9077   68.3083  228.7290 H   0  0  0  0  0  0  0  0  0  0  0  0
  142.1116   68.1276  226.6603 H   0  0  0  0  0  0  0  0  0  0  0  0
  140.6092   67.1407  226.7964 H   0  0  0  0  0  0  0  0  0  0  0  0
  140.5738   70.5183  223.7227 H   0  0  0  0  0  0  0  0  0  0  0  0
  139.9880   76.5751  222.6912 H   0  0  0  0  0  0  0  0  0  0  0  0
  142.4623   79.6162  219.9193 H   0  0  0  0  0  0  0  0  0  0  0  0
  140.8814   78.9807  219.3755 H   0  0  0  0  0  0  0  0  0  0  0  0
  140.7244   81.3869  219.9756 H   0  0  0  0  0  0  0  0  0  0  0  0
  139.7445   80.3408  221.1072 H   0  0  0  0  0  0  0  0  0  0  0  0
  143.1704   80.1906  221.9475 H   0  0  0  0  0  0  0  0  0  0  0  0
  142.4401   80.6781  223.5314 H   0  0  0  0  0  0  0  0  0  0  0  0
  142.2363   78.2614  223.2650 H   0  0  0  0  0  0  0  0  0  0  0  0
  140.6237   78.9797  223.1637 H   0  0  0  0  0  0  0  0  0  0  0  0
  142.9236   77.1348  219.5696 H   0  0  0  0  0  0  0  0  0  0  0  0
  143.0026   74.6888  219.1569 H   0  0  0  0  0  0  0  0  0  0  0  0
  1  2  2  0
  2  3  1  0
  3  4  1  0
  4  5  1  0
  5  6  2  0
  6  7  1  0
  7  8  2  0
  8  9  1  0
  9 10  1  0
 10 11  2  0
 10 12  1  0
 12 13  1  0
 13 14  1  0
 14 15  1  0
 15 16  1  0
 16 17  1  0
  9 18  2  0
  4 19  2  0
 19 20  1  0
 20 21  2  0
 21 22  1  0
 22 23  1  0
 23 24  1  0
 24 25  1  0
 25 26  1  0
 26 27  1  0
 27 28  1  0
 22 29  2  0
 29 30  1  0
 30 31  2  0
 31  2  1  0
 18  5  1  0
 31 20  1  0
 17 12  1  0
 28 23  1  0
  3 32  1  0
  3 33  1  0
  6 34  1  0
  7 35  1  0
  8 36  1  0
 13 37  1  0
 13 38  1  0
 14 39  1  0
 14 40  1  0
 16 41  1  0
 16 42  1  0
 17 43  1  0
 17 44  1  0
 18 45  1  0
 21 46  1  0
 24 47  1  0
 24 48  1  0
 25 49  1  0
 25 50  1  0
 27 51  1  0
 27 52  1  0
 28 53  1  0
 28 54  1  0
 29 55  1  0
 30 56  1  0
M  END
>  <smiles>  (42) 
O=C1CC(c2cccc(C(=O)N3CCOCC3)c2)=Nc2cc(N3CCOCC3)ccc21

>  <score_type>  (42) 
oracle

>  <origin>  (42) 
autodockgpu

>  <m_score__min__energy>  (42) 
-9.1199999999999992

>  <m_primary>  (42) 
energy

>  <rmsd>  (42) 
6.280300525170428

>  <m_score__min__rmsd>  (42) 
6.280300525170428

>  <meeko>  (42) 
{"free_energy": -9.07, "intermolecular_energy": -9.96, "internal_energy": -0.82, "cluster_size": 50, "cluster_id": 1, "rank_in_cluster": 22}

>  <energy>  (42) 
-8.99

>  <cluster_rmsd>  (42) 
0.72

>  <cluster>  (42) 
1

$$$$

     RDKit          3D

 56 60  0  0  0  0  0  0  0  0999 V2000
  138.8590   70.6070  220.1880 O   0  0  0  0  0  0  0  0  0  0  0  0
  139.4190   71.4050  220.9710 C   0  0  0  0  0  0  0  0  0  0  0  0
  139.8820   72.6970  220.4370 C   0  0  0  0  0  0  0  0  0  0  0  0
  140.5480   73.5240  221.4900 C   0  0  0  0  0  0  0  0  0  0  0  0
  141.0880   74.8200  221.0710 C   0  0  0  0  0  0  0  0  0  0  0  0
  142.1520   74.9490  220.2030 C   0  0  0  0  0  0  0  0  0  0  0  0
  142.5900   76.2160  219.8050 C   0  0  0  0  0  0  0  0  0  0  0  0
  141.9840   77.3760  220.2610 C   0  0  0  0  0  0  0  0  0  0  0  0
  140.9360   77.2510  221.1190 C   0  0  0  0  0  0  0  0  0  0  0  0
  140.1830   78.3860  221.6730 C   0  0  0  0  0  0  0  0  0  0  0  0
  139.0080   78.6580  221.3310 O   0  0  0  0  0  0  0  0  0  0  0  0
  140.8340   79.1980  222.6360 N   0  0  0  0  0  0  0  0  0  0  0  0
  142.1950   78.9390  223.1060 C   0  0  0  0  0  0  0  0  0  0  0  0
  143.0150   80.2070  223.0580 C   0  0  0  0  0  0  0  0  0  0  0  0
  142.3940   81.3000  223.6090 O   0  0  0  0  0  0  0  0  0  0  0  0
  141.1330   81.5730  223.1560 C   0  0  0  0  0  0  0  0  0  0  0  0
  140.1950   80.3870  223.2180 C   0  0  0  0  0  0  0  0  0  0  0  0
  140.5060   76.0010  221.5060 C   0  0  0  0  0  0  0  0  0  0  0  0
  140.6760   73.1430  222.7120 N   0  0  0  0  0  0  0  0  0  0  0  0
  140.2260   71.9110  223.2380 C   0  0  0  0  0  0  0  0  0  0  0  0
  140.4160   71.5320  224.5670 C   0  0  0  0  0  0  0  0  0  0  0  0
  139.9640   70.2840  224.9770 C   0  0  0  0  0  0  0  0  0  0  0  0
  140.1160   69.7810  226.2860 N   0  0  0  0  0  0  0  0  0  0  0  0
  140.1550   70.5190  227.5030 C   0  0  0  0  0  0  0  0  0  0  0  0
  139.5900   69.6370  228.6230 C   0  0  0  0  0  0  0  0  0  0  0  0
  140.2870   68.4610  228.7980 O   0  0  0  0  0  0  0  0  0  0  0  0
  141.0560   68.1010  227.6910 C   0  0  0  0  0  0  0  0  0  0  0  0
  140.3000   68.3160  226.3990 C   0  0  0  0  0  0  0  0  0  0  0  0
  139.3290   69.4310  224.0640 C   0  0  0  0  0  0  0  0  0  0  0  0
  139.1380   69.7990  222.7540 C   0  0  0  0  0  0  0  0  0  0  0  0
  139.5920   71.0350  222.3690 C   0  0  0  0  0  0  0  0  0  0  0  0
  140.5989   72.5103  219.6239 H   0  0  0  0  0  0  0  0  0  0  0  0
  139.0051   73.2504  220.0700 H   0  0  0  0  0  0  0  0  0  0  0  0
  142.6589   74.0503  219.8217 H   0  0  0  0  0  0  0  0  0  0  0  0
  143.4394   76.2941  219.1104 H   0  0  0  0  0  0  0  0  0  0  0  0
  142.3392   78.3661  219.9393 H   0  0  0  0  0  0  0  0  0  0  0  0
  142.1575   78.5698  224.1415 H   0  0  0  0  0  0  0  0  0  0  0  0
  142.6618   78.1854  222.4547 H   0  0  0  0  0  0  0  0  0  0  0  0
  143.9535   80.0317  223.6043 H   0  0  0  0  0  0  0  0  0  0  0  0
  143.1773   80.4383  221.9949 H   0  0  0  0  0  0  0  0  0  0  0  0
  140.7109   82.3822  223.7700 H   0  0  0  0  0  0  0  0  0  0  0  0
  141.2256   81.8550  222.0968 H   0  0  0  0  0  0  0  0  0  0  0  0
  139.9375   80.1829  224.2678 H   0  0  0  0  0  0  0  0  0  0  0  0
  139.2858   80.6205  222.6445 H   0  0  0  0  0  0  0  0  0  0  0  0
  139.6538   75.9360  222.1984 H   0  0  0  0  0  0  0  0  0  0  0  0
  140.9143   72.2085  225.2769 H   0  0  0  0  0  0  0  0  0  0  0  0
  141.1937   70.7957  227.7364 H   0  0  0  0  0  0  0  0  0  0  0  0
  139.5569   71.4372  227.4072 H   0  0  0  0  0  0  0  0  0  0  0  0
  139.6228   70.2051  229.5643 H   0  0  0  0  0  0  0  0  0  0  0  0
  138.5631   69.3662  228.3363 H   0  0  0  0  0  0  0  0  0  0  0  0
  141.9702   68.7125  227.6765 H   0  0  0  0  0  0  0  0  0  0  0  0
  141.3019   67.0320  227.7738 H   0  0  0  0  0  0  0  0  0  0  0  0
  140.8807   67.9348  225.5461 H   0  0  0  0  0  0  0  0  0  0  0  0
  139.3378   67.7829  226.3962 H   0  0  0  0  0  0  0  0  0  0  0  0
  138.9760   68.4460  224.4034 H   0  0  0  0  0  0  0  0  0  0  0  0
  138.6393   69.1271  222.0400 H   0  0  0  0  0  0  0  0  0  0  0  0
  1  2  2  0
  2  3  1  0
  3  4  1  0
  4  5  1  0
  5  6  2  0
  6  7  1  0
  7  8  2  0
  8  9  1  0
  9 10  1  0
 10 11  2  0
 10 12  1  0
 12 13  1  0
 13 14  1  0
 14 15  1  0
 15 16  1  0
 16 17  1  0
  9 18  2  0
  4 19  2  0
 19 20  1  0
 20 21  2  0
 21 22  1  0
 22 23  1  0
 23 24  1  0
 24 25  1  0
 25 26  1  0
 26 27  1  0
 27 28  1  0
 22 29  2  0
 29 30  1  0
 30 31  2  0
 31  2  1  0
 18  5  1  0
 31 20  1  0
 17 12  1  0
 28 23  1  0
  3 32  1  0
  3 33  1  0
  6 34  1  0
  7 35  1  0
  8 36  1  0
 13 37  1  0
 13 38  1  0
 14 39  1  0
 14 40  1  0
 16 41  1  0
 16 42  1  0
 17 43  1  0
 17 44  1  0
 18 45  1  0
 21 46  1  0
 24 47  1  0
 24 48  1  0
 25 49  1  0
 25 50  1  0
 27 51  1  0
 27 52  1  0
 28 53  1  0
 28 54  1  0
 29 55  1  0
 30 56  1  0
M  END
>  <smiles>  (43) 
O=C1CC(c2cccc(C(=O)N3CCOCC3)c2)=Nc2cc(N3CCOCC3)ccc21

>  <score_type>  (43) 
oracle

>  <origin>  (43) 
autodockgpu

>  <m_score__min__energy>  (43) 
-9.1199999999999992

>  <m_primary>  (43) 
energy

>  <rmsd>  (43) 
6.781201332945079

>  <m_score__min__rmsd>  (43) 
6.781201332945079

>  <meeko>  (43) 
{"free_energy": -8.55, "intermolecular_energy": -9.45, "internal_energy": -0.89, "cluster_size": 50, "cluster_id": 1, "rank_in_cluster": 46}

>  <energy>  (43) 
-8.98

>  <cluster_rmsd>  (43) 
0.63

>  <cluster>  (43) 
1

$$$$

     RDKit          3D

 56 60  0  0  0  0  0  0  0  0999 V2000
  138.7040   70.8400  219.9590 O   0  0  0  0  0  0  0  0  0  0  0  0
  139.3200   71.5820  220.7540 C   0  0  0  0  0  0  0  0  0  0  0  0
  139.8300   72.8710  220.2540 C   0  0  0  0  0  0  0  0  0  0  0  0
  140.5590   73.6270  221.3180 C   0  0  0  0  0  0  0  0  0  0  0  0
  141.1480   74.9110  220.9310 C   0  0  0  0  0  0  0  0  0  0  0  0
  142.2600   75.0180  220.1210 C   0  0  0  0  0  0  0  0  0  0  0  0
  142.7450   76.2750  219.7500 C   0  0  0  0  0  0  0  0  0  0  0  0
  142.1420   77.4480  220.1750 C   0  0  0  0  0  0  0  0  0  0  0  0
  141.0470   77.3450  220.9760 C   0  0  0  0  0  0  0  0  0  0  0  0
  140.2900   78.4950  221.4920 C   0  0  0  0  0  0  0  0  0  0  0  0
  139.1560   78.8150  221.0620 O   0  0  0  0  0  0  0  0  0  0  0  0
  140.8890   79.2680  222.5190 N   0  0  0  0  0  0  0  0  0  0  0  0
  142.1980   78.9530  223.0900 C   0  0  0  0  0  0  0  0  0  0  0  0
  143.0610   80.1920  223.1330 C   0  0  0  0  0  0  0  0  0  0  0  0
  142.4350   81.2960  223.6550 O   0  0  0  0  0  0  0  0  0  0  0  0
  141.2240   81.6210  223.1100 C   0  0  0  0  0  0  0  0  0  0  0  0
  140.2450   80.4670  223.0730 C   0  0  0  0  0  0  0  0  0  0  0  0
  140.5700   76.1040  221.3370 C   0  0  0  0  0  0  0  0  0  0  0  0
  140.7000   73.1960  222.5220 N   0  0  0  0  0  0  0  0  0  0  0  0
  140.2060   71.9670  223.0160 C   0  0  0  0  0  0  0  0  0  0  0  0
  140.4110   71.5320  224.3260 C   0  0  0  0  0  0  0  0  0  0  0  0
  139.9110   70.2920  224.7020 C   0  0  0  0  0  0  0  0  0  0  0  0
  140.0710   69.7350  225.9890 N   0  0  0  0  0  0  0  0  0  0  0  0
  139.9030   68.3750  226.3750 C   0  0  0  0  0  0  0  0  0  0  0  0
  140.8440   68.0850  227.5510 C   0  0  0  0  0  0  0  0  0  0  0  0
  140.6120   68.8870  228.6470 O   0  0  0  0  0  0  0  0  0  0  0  0
  139.9070   70.0530  228.3450 C   0  0  0  0  0  0  0  0  0  0  0  0
  140.4130   70.6880  227.0690 C   0  0  0  0  0  0  0  0  0  0  0  0
  139.2140   69.5030  223.7770 C   0  0  0  0  0  0  0  0  0  0  0  0
  139.0090   69.9270  222.4860 C   0  0  0  0  0  0  0  0  0  0  0  0
  139.5100   71.1540  222.1340 C   0  0  0  0  0  0  0  0  0  0  0  0
  140.5175   72.6817  219.4164 H   0  0  0  0  0  0  0  0  0  0  0  0
  138.9713   73.4771  219.9296 H   0  0  0  0  0  0  0  0  0  0  0  0
  142.7674   74.1091  219.7655 H   0  0  0  0  0  0  0  0  0  0  0  0
  143.6315   76.3350  219.1015 H   0  0  0  0  0  0  0  0  0  0  0  0
  142.5357   78.4302  219.8746 H   0  0  0  0  0  0  0  0  0  0  0  0
  142.0653   78.5671  224.1115 H   0  0  0  0  0  0  0  0  0  0  0  0
  142.6899   78.1950  222.4627 H   0  0  0  0  0  0  0  0  0  0  0  0
  143.9465   79.9744  223.7483 H   0  0  0  0  0  0  0  0  0  0  0  0
  143.3154   80.4362  222.0911 H   0  0  0  0  0  0  0  0  0  0  0  0
  140.7816   82.4330  223.7057 H   0  0  0  0  0  0  0  0  0  0  0  0
  141.4097   81.9191  222.0676 H   0  0  0  0  0  0  0  0  0  0  0  0
  139.8979   80.2530  224.0946 H   0  0  0  0  0  0  0  0  0  0  0  0
  139.3925   80.7420  222.4346 H   0  0  0  0  0  0  0  0  0  0  0  0
  139.6811   76.0570  221.9833 H   0  0  0  0  0  0  0  0  0  0  0  0
  140.9575   72.1585  225.0463 H   0  0  0  0  0  0  0  0  0  0  0  0
  138.8609   68.2021  226.6818 H   0  0  0  0  0  0  0  0  0  0  0  0
  140.1384   67.7109  225.5303 H   0  0  0  0  0  0  0  0  0  0  0  0
  140.7122   67.0354  227.8526 H   0  0  0  0  0  0  0  0  0  0  0  0
  141.8679   68.2928  227.2070 H   0  0  0  0  0  0  0  0  0  0  0  0
  138.8419   69.8062  228.2242 H   0  0  0  0  0  0  0  0  0  0  0  0
  140.0507   70.7680  229.1685 H   0  0  0  0  0  0  0  0  0  0  0  0
  139.9180   71.6555  226.8987 H   0  0  0  0  0  0  0  0  0  0  0  0
  141.4945   70.8841  227.1123 H   0  0  0  0  0  0  0  0  0  0  0  0
  138.8229   68.5240  224.0908 H   0  0  0  0  0  0  0  0  0  0  0  0
  138.4630   69.3049  221.7615 H   0  0  0  0  0  0  0  0  0  0  0  0
  1  2  2  0
  2  3  1  0
  3  4  1  0
  4  5  1  0
  5  6  2  0
  6  7  1  0
  7  8  2  0
  8  9  1  0
  9 10  1  0
 10 11  2  0
 10 12  1  0
 12 13  1  0
 13 14  1  0
 14 15  1  0
 15 16  1  0
 16 17  1  0
  9 18  2  0
  4 19  2  0
 19 20  1  0
 20 21  2  0
 21 22  1  0
 22 23  1  0
 23 24  1  0
 24 25  1  0
 25 26  1  0
 26 27  1  0
 27 28  1  0
 22 29  2  0
 29 30  1  0
 30 31  2  0
 31  2  1  0
 18  5  1  0
 31 20  1  0
 17 12  1  0
 28 23  1  0
  3 32  1  0
  3 33  1  0
  6 34  1  0
  7 35  1  0
  8 36  1  0
 13 37  1  0
 13 38  1  0
 14 39  1  0
 14 40  1  0
 16 41  1  0
 16 42  1  0
 17 43  1  0
 17 44  1  0
 18 45  1  0
 21 46  1  0
 24 47  1  0
 24 48  1  0
 25 49  1  0
 25 50  1  0
 27 51  1  0
 27 52  1  0
 28 53  1  0
 28 54  1  0
 29 55  1  0
 30 56  1  0
M  END
>  <smiles>  (44) 
O=C1CC(c2cccc(C(=O)N3CCOCC3)c2)=Nc2cc(N3CCOCC3)ccc21

>  <score_type>  (44) 
oracle

>  <origin>  (44) 
autodockgpu

>  <m_score__min__energy>  (44) 
-9.1199999999999992

>  <m_primary>  (44) 
energy

>  <rmsd>  (44) 
6.923748579996001

>  <m_score__min__rmsd>  (44) 
6.923748579996001

>  <meeko>  (44) 
{"free_energy": -8.56, "intermolecular_energy": -9.45, "internal_energy": -0.9, "cluster_size": 50, "cluster_id": 1, "rank_in_cluster": 45}

>  <energy>  (44) 
-8.58

>  <cluster_rmsd>  (44) 
1.63

>  <cluster>  (44) 
1

$$$$

     RDKit          3D

 56 60  0  0  0  0  0  0  0  0999 V2000
  141.8880   72.9080  219.1060 O   0  0  0  0  0  0  0  0  0  0  0  0
  141.2510   73.2570  220.1240 C   0  0  0  0  0  0  0  0  0  0  0  0
  140.4370   72.2440  220.8190 C   0  0  0  0  0  0  0  0  0  0  0  0
  139.7240   72.8220  221.9990 C   0  0  0  0  0  0  0  0  0  0  0  0
  138.8490   71.9200  222.7510 C   0  0  0  0  0  0  0  0  0  0  0  0
  137.4720   71.9970  222.7110 C   0  0  0  0  0  0  0  0  0  0  0  0
  136.6930   71.0750  223.4160 C   0  0  0  0  0  0  0  0  0  0  0  0
  137.2610   70.0630  224.1740 C   0  0  0  0  0  0  0  0  0  0  0  0
  138.6180   69.9870  224.2160 C   0  0  0  0  0  0  0  0  0  0  0  0
  139.3650   68.9620  224.9610 C   0  0  0  0  0  0  0  0  0  0  0  0
  139.2140   67.7320  224.7680 O   0  0  0  0  0  0  0  0  0  0  0  0
  140.2920   69.4050  225.9380 N   0  0  0  0  0  0  0  0  0  0  0  0
  140.5440   70.8200  226.2120 C   0  0  0  0  0  0  0  0  0  0  0  0
  140.4880   71.0830  227.6980 C   0  0  0  0  0  0  0  0  0  0  0  0
  141.2090   70.1940  228.4550 O   0  0  0  0  0  0  0  0  0  0  0  0
  140.9610   68.8670  228.2320 C   0  0  0  0  0  0  0  0  0  0  0  0
  141.0550   68.4680  226.7750 C   0  0  0  0  0  0  0  0  0  0  0  0
  139.3830   70.8960  223.5190 C   0  0  0  0  0  0  0  0  0  0  0  0
  139.8330   74.0530  222.3580 N   0  0  0  0  0  0  0  0  0  0  0  0
  140.6190   75.0310  221.7060 C   0  0  0  0  0  0  0  0  0  0  0  0
  140.6800   76.3620  222.1190 C   0  0  0  0  0  0  0  0  0  0  0  0
  141.4580   77.2510  221.3890 C   0  0  0  0  0  0  0  0  0  0  0  0
  141.5840   78.6230  221.6940 N   0  0  0  0  0  0  0  0  0  0  0  0
  141.6070   79.7190  220.7840 C   0  0  0  0  0  0  0  0  0  0  0  0
  141.0160   80.9460  221.4880 C   0  0  0  0  0  0  0  0  0  0  0  0
  141.7020   81.3050  222.6280 O   0  0  0  0  0  0  0  0  0  0  0  0
  142.4880   80.2780  223.1520 C   0  0  0  0  0  0  0  0  0  0  0  0
  141.7550   78.9550  223.1260 C   0  0  0  0  0  0  0  0  0  0  0  0
  142.1660   76.8090  220.2620 C   0  0  0  0  0  0  0  0  0  0  0  0
  142.1090   75.4980  219.8520 C   0  0  0  0  0  0  0  0  0  0  0  0
  141.3350   74.6360  220.5850 C   0  0  0  0  0  0  0  0  0  0  0  0
  139.6935   71.8404  220.1159 H   0  0  0  0  0  0  0  0  0  0  0  0
  141.1097   71.4517  221.1792 H   0  0  0  0  0  0  0  0  0  0  0  0
  136.9849   72.7877  222.1215 H   0  0  0  0  0  0  0  0  0  0  0  0
  135.5970   71.1549  223.3678 H   0  0  0  0  0  0  0  0  0  0  0  0
  136.6346   69.3449  224.7235 H   0  0  0  0  0  0  0  0  0  0  0  0
  141.5401   71.0915  225.8325 H   0  0  0  0  0  0  0  0  0  0  0  0
  139.7731   71.4246  225.7118 H   0  0  0  0  0  0  0  0  0  0  0  0
  140.8815   72.0931  227.8844 H   0  0  0  0  0  0  0  0  0  0  0  0
  139.4356   70.9728  227.9986 H   0  0  0  0  0  0  0  0  0  0  0  0
  141.6931   68.2761  228.8020 H   0  0  0  0  0  0  0  0  0  0  0  0
  139.9264   68.6746  228.5524 H   0  0  0  0  0  0  0  0  0  0  0  0
  142.1098   68.4795  226.4632 H   0  0  0  0  0  0  0  0  0  0  0  0
  140.6364   67.4580  226.6534 H   0  0  0  0  0  0  0  0  0  0  0  0
  140.4778   70.8047  223.5746 H   0  0  0  0  0  0  0  0  0  0  0  0
  140.1230   76.7006  223.0051 H   0  0  0  0  0  0  0  0  0  0  0  0
  142.6435   79.9282  220.4807 H   0  0  0  0  0  0  0  0  0  0  0  0
  141.0174   79.4777  219.8873 H   0  0  0  0  0  0  0  0  0  0  0  0
  141.0361   81.7937  220.7872 H   0  0  0  0  0  0  0  0  0  0  0  0
  139.9923   80.6839  221.7935 H   0  0  0  0  0  0  0  0  0  0  0  0
  143.4071   80.1899  222.5541 H   0  0  0  0  0  0  0  0  0  0  0  0
  142.7252   80.5223  224.1980 H   0  0  0  0  0  0  0  0  0  0  0  0
  142.3467   78.1781  223.6323 H   0  0  0  0  0  0  0  0  0  0  0  0
  140.7887   79.0147  223.6483 H   0  0  0  0  0  0  0  0  0  0  0  0
  142.7789   77.5252  219.6950 H   0  0  0  0  0  0  0  0  0  0  0  0
  142.6645   75.1531  218.9675 H   0  0  0  0  0  0  0  0  0  0  0  0
  1  2  2  0
  2  3  1  0
  3  4  1  0
  4  5  1  0
  5  6  2  0
  6  7  1  0
  7  8  2  0
  8  9  1  0
  9 10  1  0
 10 11  2  0
 10 12  1  0
 12 13  1  0
 13 14  1  0
 14 15  1  0
 15 16  1  0
 16 17  1  0
  9 18  2  0
  4 19  2  0
 19 20  1  0
 20 21  2  0
 21 22  1  0
 22 23  1  0
 23 24  1  0
 24 25  1  0
 25 26  1  0
 26 27  1  0
 27 28  1  0
 22 29  2  0
 29 30  1  0
 30 31  2  0
 31  2  1  0
 18  5  1  0
 31 20  1  0
 17 12  1  0
 28 23  1  0
  3 32  1  0
  3 33  1  0
  6 34  1  0
  7 35  1  0
  8 36  1  0
 13 37  1  0
 13 38  1  0
 14 39  1  0
 14 40  1  0
 16 41  1  0
 16 42  1  0
 17 43  1  0
 17 44  1  0
 18 45  1  0
 21 46  1  0
 24 47  1  0
 24 48  1  0
 25 49  1  0
 25 50  1  0
 27 51  1  0
 27 52  1  0
 28 53  1  0
 28 54  1  0
 29 55  1  0
 30 56  1  0
M  END
>  <smiles>  (45) 
O=C1CC(c2cccc(C(=O)N3CCOCC3)c2)=Nc2cc(N3CCOCC3)ccc21

>  <score_type>  (45) 
oracle

>  <origin>  (45) 
autodockgpu

>  <m_score__min__energy>  (45) 
-9.1199999999999992

>  <m_primary>  (45) 
energy

>  <rmsd>  (45) 
6.324618477020196

>  <m_score__min__rmsd>  (45) 
6.324618477020196

>  <meeko>  (45) 
{"free_energy": -9.08, "intermolecular_energy": -9.97, "internal_energy": -0.77, "cluster_size": 50, "cluster_id": 1, "rank_in_cluster": 18}

>  <energy>  (45) 
-8.56

>  <cluster_rmsd>  (45) 
1.52

>  <cluster>  (45) 
1

$$$$

     RDKit          3D

 56 60  0  0  0  0  0  0  0  0999 V2000
  142.2040   72.3960  219.3880 O   0  0  0  0  0  0  0  0  0  0  0  0
  141.4910   72.8240  220.3210 C   0  0  0  0  0  0  0  0  0  0  0  0
  140.6740   71.8560  221.0750 C   0  0  0  0  0  0  0  0  0  0  0  0
  139.8660   72.5260  222.1390 C   0  0  0  0  0  0  0  0  0  0  0  0
  138.9800   71.6710  222.9340 C   0  0  0  0  0  0  0  0  0  0  0  0
  137.6080   71.8120  222.9470 C   0  0  0  0  0  0  0  0  0  0  0  0
  136.8150   70.9330  223.6910 C   0  0  0  0  0  0  0  0  0  0  0  0
  137.3660   69.9020  224.4360 C   0  0  0  0  0  0  0  0  0  0  0  0
  138.7190   69.7630  224.4250 C   0  0  0  0  0  0  0  0  0  0  0  0
  139.4470   68.7100  225.1500 C   0  0  0  0  0  0  0  0  0  0  0  0
  139.2750   67.4870  224.9310 O   0  0  0  0  0  0  0  0  0  0  0  0
  140.3780   69.1170  226.1390 N   0  0  0  0  0  0  0  0  0  0  0  0
  140.6520   70.5210  226.4430 C   0  0  0  0  0  0  0  0  0  0  0  0
  140.5960   70.7540  227.9350 C   0  0  0  0  0  0  0  0  0  0  0  0
  141.3010   69.8370  228.6740 O   0  0  0  0  0  0  0  0  0  0  0  0
  141.0310   68.5200  228.4230 C   0  0  0  0  0  0  0  0  0  0  0  0
  141.1220   68.1500  226.9580 C   0  0  0  0  0  0  0  0  0  0  0  0
  139.4960   70.6300  223.6890 C   0  0  0  0  0  0  0  0  0  0  0  0
  139.9030   73.7920  222.3640 N   0  0  0  0  0  0  0  0  0  0  0  0
  140.6900   74.7280  221.6550 C   0  0  0  0  0  0  0  0  0  0  0  0
  140.6730   76.0980  221.9200 C   0  0  0  0  0  0  0  0  0  0  0  0
  141.4600   76.9370  221.1430 C   0  0  0  0  0  0  0  0  0  0  0  0
  141.5120   78.3390  221.3000 N   0  0  0  0  0  0  0  0  0  0  0  0
  141.6080   79.3260  220.2780 C   0  0  0  0  0  0  0  0  0  0  0  0
  140.9070   80.6000  220.7680 C   0  0  0  0  0  0  0  0  0  0  0  0
  141.4490   81.1100  221.9270 O   0  0  0  0  0  0  0  0  0  0  0  0
  142.1980   80.1800  222.6480 C   0  0  0  0  0  0  0  0  0  0  0  0
  141.5100   78.8340  222.6950 C   0  0  0  0  0  0  0  0  0  0  0  0
  142.2540   76.4080  220.1160 C   0  0  0  0  0  0  0  0  0  0  0  0
  142.2760   75.0600  219.8520 C   0  0  0  0  0  0  0  0  0  0  0  0
  141.4910   74.2470  220.6300 C   0  0  0  0  0  0  0  0  0  0  0  0
  139.9929   71.3452  220.3784 H   0  0  0  0  0  0  0  0  0  0  0  0
  141.3523   71.1385  221.5598 H   0  0  0  0  0  0  0  0  0  0  0  0
  137.1354   72.6199  222.3692 H   0  0  0  0  0  0  0  0  0  0  0  0
  135.7228   71.0633  223.6849 H   0  0  0  0  0  0  0  0  0  0  0  0
  136.7297   69.2185  225.0172 H   0  0  0  0  0  0  0  0  0  0  0  0
  141.6535   70.7841  226.0718 H   0  0  0  0  0  0  0  0  0  0  0  0
  139.8924   71.1484  225.9536 H   0  0  0  0  0  0  0  0  0  0  0  0
  141.0053   71.7534  228.1438 H   0  0  0  0  0  0  0  0  0  0  0  0
  139.5412   70.6553  228.2312 H   0  0  0  0  0  0  0  0  0  0  0  0
  141.7514   67.9049  228.9822 H   0  0  0  0  0  0  0  0  0  0  0  0
  139.9925   68.3386  228.7371 H   0  0  0  0  0  0  0  0  0  0  0  0
  142.1777   68.1496  226.6490 H   0  0  0  0  0  0  0  0  0  0  0  0
  140.6861   67.1503  226.8144 H   0  0  0  0  0  0  0  0  0  0  0  0
  140.5867   70.4881  223.7012 H   0  0  0  0  0  0  0  0  0  0  0  0
  140.0483   76.5051  222.7287 H   0  0  0  0  0  0  0  0  0  0  0  0
  142.6660   79.5415  220.0678 H   0  0  0  0  0  0  0  0  0  0  0  0
  141.1309   78.9629  219.3557 H   0  0  0  0  0  0  0  0  0  0  0  0
  140.9833   81.3649  219.9811 H   0  0  0  0  0  0  0  0  0  0  0  0
  139.8627   80.3328  220.9874 H   0  0  0  0  0  0  0  0  0  0  0  0
  143.1809   80.0629  222.1681 H   0  0  0  0  0  0  0  0  0  0  0  0
  142.3079   80.5486  223.6786 H   0  0  0  0  0  0  0  0  0  0  0  0
  142.0621   78.1428  223.3488 H   0  0  0  0  0  0  0  0  0  0  0  0
  140.4897   78.9115  223.0987 H   0  0  0  0  0  0  0  0  0  0  0  0
  142.8720   77.0860  219.5091 H   0  0  0  0  0  0  0  0  0  0  0  0
  142.9005   74.6473  219.0459 H   0  0  0  0  0  0  0  0  0  0  0  0
  1  2  2  0
  2  3  1  0
  3  4  1  0
  4  5  1  0
  5  6  2  0
  6  7  1  0
  7  8  2  0
  8  9  1  0
  9 10  1  0
 10 11  2  0
 10 12  1  0
 12 13  1  0
 13 14  1  0
 14 15  1  0
 15 16  1  0
 16 17  1  0
  9 18  2  0
  4 19  2  0
 19 20  1  0
 20 21  2  0
 21 22  1  0
 22 23  1  0
 23 24  1  0
 24 25  1  0
 25 26  1  0
 26 27  1  0
 27 28  1  0
 22 29  2  0
 29 30  1  0
 30 31  2  0
 31  2  1  0
 18  5  1  0
 31 20  1  0
 17 12  1  0
 28 23  1  0
  3 32  1  0
  3 33  1  0
  6 34  1  0
  7 35  1  0
  8 36  1  0
 13 37  1  0
 13 38  1  0
 14 39  1  0
 14 40  1  0
 16 41  1  0
 16 42  1  0
 17 43  1  0
 17 44  1  0
 18 45  1  0
 21 46  1  0
 24 47  1  0
 24 48  1  0
 25 49  1  0
 25 50  1  0
 27 51  1  0
 27 52  1  0
 28 53  1  0
 28 54  1  0
 29 55  1  0
 30 56  1  0
M  END
>  <smiles>  (46) 
O=C1CC(c2cccc(C(=O)N3CCOCC3)c2)=Nc2cc(N3CCOCC3)ccc21

>  <score_type>  (46) 
oracle

>  <origin>  (46) 
autodockgpu

>  <m_score__min__energy>  (46) 
-9.1199999999999992

>  <m_primary>  (46) 
energy

>  <rmsd>  (46) 
6.292024348590955

>  <m_score__min__rmsd>  (46) 
6.292024348590955

>  <meeko>  (46) 
{"free_energy": -9.06, "intermolecular_energy": -9.96, "internal_energy": -0.82, "cluster_size": 50, "cluster_id": 1, "rank_in_cluster": 28}

>  <energy>  (46) 
-8.55

>  <cluster_rmsd>  (46) 
1.57

>  <cluster>  (46) 
1

$$$$

     RDKit          3D

 56 60  0  0  0  0  0  0  0  0999 V2000
  142.3750   72.4150  219.5440 O   0  0  0  0  0  0  0  0  0  0  0  0
  141.6070   72.8610  220.4240 C   0  0  0  0  0  0  0  0  0  0  0  0
  140.7770   71.9040  221.1770 C   0  0  0  0  0  0  0  0  0  0  0  0
  139.9020   72.5950  222.1720 C   0  0  0  0  0  0  0  0  0  0  0  0
  138.9990   71.7500  222.9580 C   0  0  0  0  0  0  0  0  0  0  0  0
  137.6300   71.9190  222.9730 C   0  0  0  0  0  0  0  0  0  0  0  0
  136.8190   71.0480  223.7080 C   0  0  0  0  0  0  0  0  0  0  0  0
  137.3480   69.9980  224.4410 C   0  0  0  0  0  0  0  0  0  0  0  0
  138.6980   69.8310  224.4290 C   0  0  0  0  0  0  0  0  0  0  0  0
  139.4040   68.7550  225.1410 C   0  0  0  0  0  0  0  0  0  0  0  0
  139.2070   67.5390  224.9090 O   0  0  0  0  0  0  0  0  0  0  0  0
  140.3430   69.1320  226.1350 N   0  0  0  0  0  0  0  0  0  0  0  0
  140.6470   70.5270  226.4550 C   0  0  0  0  0  0  0  0  0  0  0  0
  140.5950   70.7440  227.9480 C   0  0  0  0  0  0  0  0  0  0  0  0
  141.2800   69.8050  228.6770 O   0  0  0  0  0  0  0  0  0  0  0  0
  140.9840   68.4960  228.4120 C   0  0  0  0  0  0  0  0  0  0  0  0
  141.0670   68.1410  226.9430 C   0  0  0  0  0  0  0  0  0  0  0  0
  139.4940   70.6900  223.7020 C   0  0  0  0  0  0  0  0  0  0  0  0
  139.8990   73.8690  222.3470 N   0  0  0  0  0  0  0  0  0  0  0  0
  140.6970   74.7960  221.6390 C   0  0  0  0  0  0  0  0  0  0  0  0
  140.6350   76.1740  221.8470 C   0  0  0  0  0  0  0  0  0  0  0  0
  141.4400   77.0020  221.0750 C   0  0  0  0  0  0  0  0  0  0  0  0
  141.4510   78.4090  221.1770 N   0  0  0  0  0  0  0  0  0  0  0  0
  141.4800   79.3590  220.1160 C   0  0  0  0  0  0  0  0  0  0  0  0
  140.7550   80.6280  220.5820 C   0  0  0  0  0  0  0  0  0  0  0  0
  141.3190   81.2000  221.7010 O   0  0  0  0  0  0  0  0  0  0  0  0
  142.1230   80.3230  222.4300 C   0  0  0  0  0  0  0  0  0  0  0  0
  141.4810   78.9580  222.5520 C   0  0  0  0  0  0  0  0  0  0  0  0
  142.2960   76.4530  220.1100 C   0  0  0  0  0  0  0  0  0  0  0  0
  142.3610   75.0960  219.9020 C   0  0  0  0  0  0  0  0  0  0  0  0
  141.5580   74.2950  220.6740 C   0  0  0  0  0  0  0  0  0  0  0  0
  140.1433   71.3484  220.4701 H   0  0  0  0  0  0  0  0  0  0  0  0
  141.4474   71.2243  221.7234 H   0  0  0  0  0  0  0  0  0  0  0  0
  137.1739   72.7427  222.4042 H   0  0  0  0  0  0  0  0  0  0  0  0
  135.7297   71.2011  223.7039 H   0  0  0  0  0  0  0  0  0  0  0  0
  136.6973   69.3212  225.0142 H   0  0  0  0  0  0  0  0  0  0  0  0
  141.6542   70.7727  226.0872 H   0  0  0  0  0  0  0  0  0  0  0  0
  139.9015   71.1761  225.9723 H   0  0  0  0  0  0  0  0  0  0  0  0
  141.0247   71.7324  228.1681 H   0  0  0  0  0  0  0  0  0  0  0  0
  139.5382   70.6635  228.2425 H   0  0  0  0  0  0  0  0  0  0  0  0
  141.6925   67.8607  228.9638 H   0  0  0  0  0  0  0  0  0  0  0  0
  139.9425   68.3312  228.7252 H   0  0  0  0  0  0  0  0  0  0  0  0
  142.1224   68.1224  226.6337 H   0  0  0  0  0  0  0  0  0  0  0  0
  140.6104   67.1522  226.7884 H   0  0  0  0  0  0  0  0  0  0  0  0
  140.5816   70.5255  223.7127 H   0  0  0  0  0  0  0  0  0  0  0  0
  139.9618   76.5966  222.6074 H   0  0  0  0  0  0  0  0  0  0  0  0
  142.5227   79.5993  219.8610 H   0  0  0  0  0  0  0  0  0  0  0  0
  140.9839   78.9459  219.2253 H   0  0  0  0  0  0  0  0  0  0  0  0
  140.7791   81.3636  219.7645 H   0  0  0  0  0  0  0  0  0  0  0  0
  139.7284   80.3364  220.8485 H   0  0  0  0  0  0  0  0  0  0  0  0
  143.0922   80.2185  221.9204 H   0  0  0  0  0  0  0  0  0  0  0  0
  142.2563   80.7347  223.4413 H   0  0  0  0  0  0  0  0  0  0  0  0
  142.0776   78.3104  223.2113 H   0  0  0  0  0  0  0  0  0  0  0  0
  140.4731   79.0192  222.9884 H   0  0  0  0  0  0  0  0  0  0  0  0
  142.9282   77.1216  219.5073 H   0  0  0  0  0  0  0  0  0  0  0  0
  143.0328   74.6674  219.1437 H   0  0  0  0  0  0  0  0  0  0  0  0
  1  2  2  0
  2  3  1  0
  3  4  1  0
  4  5  1  0
  5  6  2  0
  6  7  1  0
  7  8  2  0
  8  9  1  0
  9 10  1  0
 10 11  2  0
 10 12  1  0
 12 13  1  0
 13 14  1  0
 14 15  1  0
 15 16  1  0
 16 17  1  0
  9 18  2  0
  4 19  2  0
 19 20  1  0
 20 21  2  0
 21 22  1  0
 22 23  1  0
 23 24  1  0
 24 25  1  0
 25 26  1  0
 26 27  1  0
 27 28  1  0
 22 29  2  0
 29 30  1  0
 30 31  2  0
 31  2  1  0
 18  5  1  0
 31 20  1  0
 17 12  1  0
 28 23  1  0
  3 32  1  0
  3 33  1  0
  6 34  1  0
  7 35  1  0
  8 36  1  0
 13 37  1  0
 13 38  1  0
 14 39  1  0
 14 40  1  0
 16 41  1  0
 16 42  1  0
 17 43  1  0
 17 44  1  0
 18 45  1  0
 21 46  1  0
 24 47  1  0
 24 48  1  0
 25 49  1  0
 25 50  1  0
 27 51  1  0
 27 52  1  0
 28 53  1  0
 28 54  1  0
 29 55  1  0
 30 56  1  0
M  END
>  <smiles>  (47) 
O=C1CC(c2cccc(C(=O)N3CCOCC3)c2)=Nc2cc(N3CCOCC3)ccc21

>  <score_type>  (47) 
oracle

>  <origin>  (47) 
autodockgpu

>  <m_score__min__energy>  (47) 
-9.1199999999999992

>  <m_primary>  (47) 
energy

>  <rmsd>  (47) 
6.281113749374931

>  <m_score__min__rmsd>  (47) 
6.281113749374931

>  <meeko>  (47) 
{"free_energy": -9.08, "intermolecular_energy": -9.98, "internal_energy": -0.82, "cluster_size": 50, "cluster_id": 1, "rank_in_cluster": 11}

>  <energy>  (47) 
-8.55

>  <cluster_rmsd>  (47) 
1.52

>  <cluster>  (47) 
1

$$$$

     RDKit          3D

 56 60  0  0  0  0  0  0  0  0999 V2000
  142.3490   72.4300  219.4930 O   0  0  0  0  0  0  0  0  0  0  0  0
  141.5960   72.8690  220.3900 C   0  0  0  0  0  0  0  0  0  0  0  0
  140.7720   71.9070  221.1420 C   0  0  0  0  0  0  0  0  0  0  0  0
  139.9160   72.5890  222.1590 C   0  0  0  0  0  0  0  0  0  0  0  0
  139.0190   71.7390  222.9470 C   0  0  0  0  0  0  0  0  0  0  0  0
  137.6500   71.9050  222.9720 C   0  0  0  0  0  0  0  0  0  0  0  0
  136.8450   71.0300  223.7080 C   0  0  0  0  0  0  0  0  0  0  0  0
  137.3810   69.9780  224.4330 C   0  0  0  0  0  0  0  0  0  0  0  0
  138.7310   69.8140  224.4110 C   0  0  0  0  0  0  0  0  0  0  0  0
  139.4430   68.7360  225.1150 C   0  0  0  0  0  0  0  0  0  0  0  0
  139.2510   67.5200  224.8740 O   0  0  0  0  0  0  0  0  0  0  0  0
  140.3830   69.1100  226.1090 N   0  0  0  0  0  0  0  0  0  0  0  0
  140.6810   70.5040  226.4370 C   0  0  0  0  0  0  0  0  0  0  0  0
  140.6320   70.7100  227.9330 C   0  0  0  0  0  0  0  0  0  0  0  0
  141.3230   69.7690  228.6530 O   0  0  0  0  0  0  0  0  0  0  0  0
  141.0320   68.4610  228.3790 C   0  0  0  0  0  0  0  0  0  0  0  0
  141.1130   68.1160  226.9080 C   0  0  0  0  0  0  0  0  0  0  0  0
  139.5200   70.6770  223.6830 C   0  0  0  0  0  0  0  0  0  0  0  0
  139.9220   73.8610  222.3510 N   0  0  0  0  0  0  0  0  0  0  0  0
  140.7160   74.7930  221.6440 C   0  0  0  0  0  0  0  0  0  0  0  0
  140.6650   76.1690  221.8710 C   0  0  0  0  0  0  0  0  0  0  0  0
  141.4630   77.0020  221.0980 C   0  0  0  0  0  0  0  0  0  0  0  0
  141.4850   78.4080  221.2190 N   0  0  0  0  0  0  0  0  0  0  0  0
  141.4680   79.3710  220.1710 C   0  0  0  0  0  0  0  0  0  0  0  0
  140.7700   80.6360  220.6870 C   0  0  0  0  0  0  0  0  0  0  0  0
  141.3870   81.1910  221.7870 O   0  0  0  0  0  0  0  0  0  0  0  0
  142.2200   80.3010  222.4660 C   0  0  0  0  0  0  0  0  0  0  0  0
  141.5800   78.9370  222.5980 C   0  0  0  0  0  0  0  0  0  0  0  0
  142.3020   76.4600  220.1140 C   0  0  0  0  0  0  0  0  0  0  0  0
  142.3560   75.1060  219.8870 C   0  0  0  0  0  0  0  0  0  0  0  0
  141.5600   74.3000  220.6600 C   0  0  0  0  0  0  0  0  0  0  0  0
  140.1247   71.3646  220.4372 H   0  0  0  0  0  0  0  0  0  0  0  0
  141.4465   71.2163  221.6692 H   0  0  0  0  0  0  0  0  0  0  0  0
  137.1888   72.7304  222.4098 H   0  0  0  0  0  0  0  0  0  0  0  0
  135.7554   71.1812  223.7115 H   0  0  0  0  0  0  0  0  0  0  0  0
  136.7356   69.2975  225.0078 H   0  0  0  0  0  0  0  0  0  0  0  0
  141.6859   70.7573  226.0681 H   0  0  0  0  0  0  0  0  0  0  0  0
  139.9314   71.1530  225.9606 H   0  0  0  0  0  0  0  0  0  0  0  0
  141.0579   71.6987  228.1592 H   0  0  0  0  0  0  0  0  0  0  0  0
  139.5764   70.6227  228.2297 H   0  0  0  0  0  0  0  0  0  0  0  0
  141.7444   67.8249  228.9248 H   0  0  0  0  0  0  0  0  0  0  0  0
  139.9916   68.2902  228.6928 H   0  0  0  0  0  0  0  0  0  0  0  0
  142.1677   68.1036  226.5959 H   0  0  0  0  0  0  0  0  0  0  0  0
  140.6604   67.1264  226.7476 H   0  0  0  0  0  0  0  0  0  0  0  0
  140.6079   70.5142  223.6860 H   0  0  0  0  0  0  0  0  0  0  0  0
  140.0057   76.5855  222.6469 H   0  0  0  0  0  0  0  0  0  0  0  0
  142.4985   79.6115  219.8708 H   0  0  0  0  0  0  0  0  0  0  0  0
  140.9296   78.9712  219.2991 H   0  0  0  0  0  0  0  0  0  0  0  0
  140.7595   81.3827  219.8793 H   0  0  0  0  0  0  0  0  0  0  0  0
  139.7555   80.3441  220.9963 H   0  0  0  0  0  0  0  0  0  0  0  0
  143.1646   80.2009  221.9113 H   0  0  0  0  0  0  0  0  0  0  0  0
  142.4004   80.6978  223.4760 H   0  0  0  0  0  0  0  0  0  0  0  0
  142.2040   78.2784  223.2200 H   0  0  0  0  0  0  0  0  0  0  0  0
  140.5935   78.9948  223.0811 H   0  0  0  0  0  0  0  0  0  0  0  0
  142.9299   77.1327  219.5113 H   0  0  0  0  0  0  0  0  0  0  0  0
  143.0139   74.6837  219.1132 H   0  0  0  0  0  0  0  0  0  0  0  0
  1  2  2  0
  2  3  1  0
  3  4  1  0
  4  5  1  0
  5  6  2  0
  6  7  1  0
  7  8  2  0
  8  9  1  0
  9 10  1  0
 10 11  2  0
 10 12  1  0
 12 13  1  0
 13 14  1  0
 14 15  1  0
 15 16  1  0
 16 17  1  0
  9 18  2  0
  4 19  2  0
 19 20  1  0
 20 21  2  0
 21 22  1  0
 22 23  1  0
 23 24  1  0
 24 25  1  0
 25 26  1  0
 26 27  1  0
 27 28  1  0
 22 29  2  0
 29 30  1  0
 30 31  2  0
 31  2  1  0
 18  5  1  0
 31 20  1  0
 17 12  1  0
 28 23  1  0
  3 32  1  0
  3 33  1  0
  6 34  1  0
  7 35  1  0
  8 36  1  0
 13 37  1  0
 13 38  1  0
 14 39  1  0
 14 40  1  0
 16 41  1  0
 16 42  1  0
 17 43  1  0
 17 44  1  0
 18 45  1  0
 21 46  1  0
 24 47  1  0
 24 48  1  0
 25 49  1  0
 25 50  1  0
 27 51  1  0
 27 52  1  0
 28 53  1  0
 28 54  1  0
 29 55  1  0
 30 56  1  0
M  END
>  <smiles>  (48) 
O=C1CC(c2cccc(C(=O)N3CCOCC3)c2)=Nc2cc(N3CCOCC3)ccc21

>  <score_type>  (48) 
oracle

>  <origin>  (48) 
autodockgpu

>  <m_score__min__energy>  (48) 
-9.1199999999999992

>  <m_primary>  (48) 
energy

>  <rmsd>  (48) 
6.292794601495276

>  <m_score__min__rmsd>  (48) 
6.292794601495276

>  <meeko>  (48) 
{"free_energy": -9.07, "intermolecular_energy": -9.97, "internal_energy": -0.82, "cluster_size": 50, "cluster_id": 1, "rank_in_cluster": 20}

>  <energy>  (48) 
-8.55

>  <cluster_rmsd>  (48) 
1.66

>  <cluster>  (48) 
1

$$$$

     RDKit          3D

 56 60  0  0  0  0  0  0  0  0999 V2000
  142.7900   72.2490  219.8320 O   0  0  0  0  0  0  0  0  0  0  0  0
  141.9380   72.7290  220.6110 C   0  0  0  0  0  0  0  0  0  0  0  0
  141.0770   71.7980  221.3620 C   0  0  0  0  0  0  0  0  0  0  0  0
  140.1010   72.5260  222.2290 C   0  0  0  0  0  0  0  0  0  0  0  0
  139.1600   71.7070  222.9990 C   0  0  0  0  0  0  0  0  0  0  0  0
  137.7970   71.9200  222.9960 C   0  0  0  0  0  0  0  0  0  0  0  0
  136.9490   71.0730  223.7150 C   0  0  0  0  0  0  0  0  0  0  0  0
  137.4340   70.0030  224.4510 C   0  0  0  0  0  0  0  0  0  0  0  0
  138.7780   69.7930  224.4560 C   0  0  0  0  0  0  0  0  0  0  0  0
  139.4390   68.6920  225.1730 C   0  0  0  0  0  0  0  0  0  0  0  0
  139.2000   67.4840  224.9390 O   0  0  0  0  0  0  0  0  0  0  0  0
  140.3840   69.0350  226.1740 N   0  0  0  0  0  0  0  0  0  0  0  0
  140.7360   70.4170  226.4960 C   0  0  0  0  0  0  0  0  0  0  0  0
  140.6810   70.6360  227.9900 C   0  0  0  0  0  0  0  0  0  0  0  0
  141.3260   69.6720  228.7230 O   0  0  0  0  0  0  0  0  0  0  0  0
  140.9850   68.3750  228.4550 C   0  0  0  0  0  0  0  0  0  0  0  0
  141.0660   68.0170  226.9860 C   0  0  0  0  0  0  0  0  0  0  0  0
  139.6100   70.6290  223.7440 C   0  0  0  0  0  0  0  0  0  0  0  0
  140.0450   73.8090  222.3090 N   0  0  0  0  0  0  0  0  0  0  0  0
  140.8730   74.7110  221.6030 C   0  0  0  0  0  0  0  0  0  0  0  0
  140.7530   76.0980  221.7030 C   0  0  0  0  0  0  0  0  0  0  0  0
  141.5940   76.8970  220.9410 C   0  0  0  0  0  0  0  0  0  0  0  0
  141.5560   78.3070  220.9400 N   0  0  0  0  0  0  0  0  0  0  0  0
  141.5460   79.1770  219.8130 C   0  0  0  0  0  0  0  0  0  0  0  0
  140.7780   80.4500  220.1890 C   0  0  0  0  0  0  0  0  0  0  0  0
  141.3250   81.1220  221.2610 O   0  0  0  0  0  0  0  0  0  0  0  0
  142.1620   80.3300  222.0460 C   0  0  0  0  0  0  0  0  0  0  0  0
  141.5710   78.9560  222.2710 C   0  0  0  0  0  0  0  0  0  0  0  0
  142.5440   76.3110  220.0920 C   0  0  0  0  0  0  0  0  0  0  0  0
  142.6670   74.9470  219.9900 C   0  0  0  0  0  0  0  0  0  0  0  0
  141.8260   74.1750  220.7500 C   0  0  0  0  0  0  0  0  0  0  0  0
  140.5219   71.1713  220.6485 H   0  0  0  0  0  0  0  0  0  0  0  0
  141.7193   71.1831  222.0096 H   0  0  0  0  0  0  0  0  0  0  0  0
  137.3756   72.7605  222.4250 H   0  0  0  0  0  0  0  0  0  0  0  0
  135.8653   71.2609  223.6963 H   0  0  0  0  0  0  0  0  0  0  0  0
  136.7543   69.3453  225.0126 H   0  0  0  0  0  0  0  0  0  0  0  0
  141.7541   70.6259  226.1356 H   0  0  0  0  0  0  0  0  0  0  0  0
  140.0182   71.0928  226.0080 H   0  0  0  0  0  0  0  0  0  0  0  0
  141.1451   71.6079  228.2137 H   0  0  0  0  0  0  0  0  0  0  0  0
  139.6199   70.5948  228.2771 H   0  0  0  0  0  0  0  0  0  0  0  0
  141.6659   67.7144  229.0118 H   0  0  0  0  0  0  0  0  0  0  0  0
  139.9358   68.2482  228.7601 H   0  0  0  0  0  0  0  0  0  0  0  0
  142.1222   67.9600  226.6842 H   0  0  0  0  0  0  0  0  0  0  0  0
  140.5755   67.0453  226.8271 H   0  0  0  0  0  0  0  0  0  0  0  0
  140.6915   70.4296  223.7684 H   0  0  0  0  0  0  0  0  0  0  0  0
  140.0062   76.5492  222.3729 H   0  0  0  0  0  0  0  0  0  0  0  0
  142.5783   79.4350  219.5340 H   0  0  0  0  0  0  0  0  0  0  0  0
  141.0609   78.6822  218.9587 H   0  0  0  0  0  0  0  0  0  0  0  0
  140.7737   81.1243  219.3199 H   0  0  0  0  0  0  0  0  0  0  0  0
  139.7630   80.1429  220.4814 H   0  0  0  0  0  0  0  0  0  0  0  0
  143.1325   80.2235  221.5393 H   0  0  0  0  0  0  0  0  0  0  0  0
  142.2836   80.8187  223.0240 H   0  0  0  0  0  0  0  0  0  0  0  0
  142.1932   78.3803  222.9721 H   0  0  0  0  0  0  0  0  0  0  0  0
  140.5631   79.0127  222.7079 H   0  0  0  0  0  0  0  0  0  0  0  0
  143.2044   76.9574  219.4953 H   0  0  0  0  0  0  0  0  0  0  0  0
  143.4130   74.4903  219.3230 H   0  0  0  0  0  0  0  0  0  0  0  0
  1  2  2  0
  2  3  1  0
  3  4  1  0
  4  5  1  0
  5  6  2  0
  6  7  1  0
  7  8  2  0
  8  9  1  0
  9 10  1  0
 10 11  2  0
 10 12  1  0
 12 13  1  0
 13 14  1  0
 14 15  1  0
 15 16  1  0
 16 17  1  0
  9 18  2  0
  4 19  2  0
 19 20  1  0
 20 21  2  0
 21 22  1  0
 22 23  1  0
 23 24  1  0
 24 25  1  0
 25 26  1  0
 26 27  1  0
 27 28  1  0
 22 29  2  0
 29 30  1  0
 30 31  2  0
 31  2  1  0
 18  5  1  0
 31 20  1  0
 17 12  1  0
 28 23  1  0
  3 32  1  0
  3 33  1  0
  6 34  1  0
  7 35  1  0
  8 36  1  0
 13 37  1  0
 13 38  1  0
 14 39  1  0
 14 40  1  0
 16 41  1  0
 16 42  1  0
 17 43  1  0
 17 44  1  0
 18 45  1  0
 21 46  1  0
 24 47  1  0
 24 48  1  0
 25 49  1  0
 25 50  1  0
 27 51  1  0
 27 52  1  0
 28 53  1  0
 28 54  1  0
 29 55  1  0
 30 56  1  0
M  END
>  <smiles>  (49) 
O=C1CC(c2cccc(C(=O)N3CCOCC3)c2)=Nc2cc(N3CCOCC3)ccc21

>  <score_type>  (49) 
oracle

>  <origin>  (49) 
autodockgpu

>  <m_score__min__energy>  (49) 
-9.1199999999999992

>  <m_primary>  (49) 
energy

>  <rmsd>  (49) 
6.261706004916518

>  <m_score__min__rmsd>  (49) 
6.261706004916518

>  <meeko>  (49) 
{"free_energy": -9.06, "intermolecular_energy": -9.95, "internal_energy": -0.82, "cluster_size": 50, "cluster_id": 1, "rank_in_cluster": 30}

>  <energy>  (49) 
-8.53

>  <cluster_rmsd>  (49) 
1.52

>  <cluster>  (49) 
1

$$$$

     RDKit          3D

 56 60  0  0  0  0  0  0  0  0999 V2000
  142.3020   72.4340  219.4540 O   0  0  0  0  0  0  0  0  0  0  0  0
  141.5600   72.8710  220.3600 C   0  0  0  0  0  0  0  0  0  0  0  0
  140.7360   71.9090  221.1120 C   0  0  0  0  0  0  0  0  0  0  0  0
  139.8930   72.5900  222.1420 C   0  0  0  0  0  0  0  0  0  0  0  0
  138.9970   71.7410  222.9310 C   0  0  0  0  0  0  0  0  0  0  0  0
  137.6290   71.9150  222.9670 C   0  0  0  0  0  0  0  0  0  0  0  0
  136.8250   71.0400  223.7040 C   0  0  0  0  0  0  0  0  0  0  0  0
  137.3600   69.9810  224.4190 C   0  0  0  0  0  0  0  0  0  0  0  0
  138.7090   69.8090  224.3870 C   0  0  0  0  0  0  0  0  0  0  0  0
  139.4200   68.7230  225.0790 C   0  0  0  0  0  0  0  0  0  0  0  0
  139.2340   67.5110  224.8190 O   0  0  0  0  0  0  0  0  0  0  0  0
  140.3510   69.0860  226.0850 N   0  0  0  0  0  0  0  0  0  0  0  0
  140.6430   70.4750  226.4360 C   0  0  0  0  0  0  0  0  0  0  0  0
  140.5830   70.6590  227.9340 C   0  0  0  0  0  0  0  0  0  0  0  0
  141.2720   69.7100  228.6460 O   0  0  0  0  0  0  0  0  0  0  0  0
  140.9870   68.4050  228.3500 C   0  0  0  0  0  0  0  0  0  0  0  0
  141.0800   68.0830  226.8740 C   0  0  0  0  0  0  0  0  0  0  0  0
  139.4980   70.6720  223.6580 C   0  0  0  0  0  0  0  0  0  0  0  0
  139.9100   73.8610  222.3420 N   0  0  0  0  0  0  0  0  0  0  0  0
  140.7040   74.7920  221.6350 C   0  0  0  0  0  0  0  0  0  0  0  0
  140.6640   76.1670  221.8720 C   0  0  0  0  0  0  0  0  0  0  0  0
  141.4610   77.0000  221.0980 C   0  0  0  0  0  0  0  0  0  0  0  0
  141.4930   78.4050  221.2280 N   0  0  0  0  0  0  0  0  0  0  0  0
  141.4750   79.3760  220.1870 C   0  0  0  0  0  0  0  0  0  0  0  0
  140.7900   80.6420  220.7170 C   0  0  0  0  0  0  0  0  0  0  0  0
  141.4190   81.1850  221.8150 O   0  0  0  0  0  0  0  0  0  0  0  0
  142.2510   80.2850  222.4820 C   0  0  0  0  0  0  0  0  0  0  0  0
  141.6020   78.9240  222.6100 C   0  0  0  0  0  0  0  0  0  0  0  0
  142.2880   76.4600  220.1020 C   0  0  0  0  0  0  0  0  0  0  0  0
  142.3310   75.1070  219.8660 C   0  0  0  0  0  0  0  0  0  0  0  0
  141.5360   74.3010  220.6400 C   0  0  0  0  0  0  0  0  0  0  0  0
  140.0789   71.3763  220.4089 H   0  0  0  0  0  0  0  0  0  0  0  0
  141.4102   71.2097  221.6282 H   0  0  0  0  0  0  0  0  0  0  0  0
  137.1683   72.7463  222.4131 H   0  0  0  0  0  0  0  0  0  0  0  0
  135.7363   71.1971  223.7164 H   0  0  0  0  0  0  0  0  0  0  0  0
  136.7146   69.3009  224.9943 H   0  0  0  0  0  0  0  0  0  0  0  0
  141.6498   70.7361  226.0780 H   0  0  0  0  0  0  0  0  0  0  0  0
  139.8949   71.1290  225.9641 H   0  0  0  0  0  0  0  0  0  0  0  0
  141.0040   71.6457  228.1773 H   0  0  0  0  0  0  0  0  0  0  0  0
  139.5256   70.5635  228.2217 H   0  0  0  0  0  0  0  0  0  0  0  0
  141.6973   67.7627  228.8913 H   0  0  0  0  0  0  0  0  0  0  0  0
  139.9450   68.2260  228.6537 H   0  0  0  0  0  0  0  0  0  0  0  0
  142.1370   68.0802  226.5693 H   0  0  0  0  0  0  0  0  0  0  0  0
  140.6330   67.0939  226.6952 H   0  0  0  0  0  0  0  0  0  0  0  0
  140.5850   70.5036  223.6525 H   0  0  0  0  0  0  0  0  0  0  0  0
  140.0141   76.5824  222.6562 H   0  0  0  0  0  0  0  0  0  0  0  0
  142.5050   79.6114  219.8808 H   0  0  0  0  0  0  0  0  0  0  0  0
  140.9272   78.9863  219.3164 H   0  0  0  0  0  0  0  0  0  0  0  0
  140.7782   81.3942  219.9144 H   0  0  0  0  0  0  0  0  0  0  0  0
  139.7761   80.3549  221.0325 H   0  0  0  0  0  0  0  0  0  0  0  0
  143.1907   80.1819  221.9195 H   0  0  0  0  0  0  0  0  0  0  0  0
  142.4420   80.6740  223.4930 H   0  0  0  0  0  0  0  0  0  0  0  0
  142.2260   78.2569  223.2229 H   0  0  0  0  0  0  0  0  0  0  0  0
  140.6196   78.9854  223.1010 H   0  0  0  0  0  0  0  0  0  0  0  0
  142.9144   77.1329  219.4980 H   0  0  0  0  0  0  0  0  0  0  0  0
  142.9799   74.6855  219.0842 H   0  0  0  0  0  0  0  0  0  0  0  0
  1  2  2  0
  2  3  1  0
  3  4  1  0
  4  5  1  0
  5  6  2  0
  6  7  1  0
  7  8  2  0
  8  9  1  0
  9 10  1  0
 10 11  2  0
 10 12  1  0
 12 13  1  0
 13 14  1  0
 14 15  1  0
 15 16  1  0
 16 17  1  0
  9 18  2  0
  4 19  2  0
 19 20  1  0
 20 21  2  0
 21 22  1  0
 22 23  1  0
 23 24  1  0
 24 25  1  0
 25 26  1  0
 26 27  1  0
 27 28  1  0
 22 29  2  0
 29 30  1  0
 30 31  2  0
 31  2  1  0
 18  5  1  0
 31 20  1  0
 17 12  1  0
 28 23  1  0
  3 32  1  0
  3 33  1  0
  6 34  1  0
  7 35  1  0
  8 36  1  0
 13 37  1  0
 13 38  1  0
 14 39  1  0
 14 40  1  0
 16 41  1  0
 16 42  1  0
 17 43  1  0
 17 44  1  0
 18 45  1  0
 21 46  1  0
 24 47  1  0
 24 48  1  0
 25 49  1  0
 25 50  1  0
 27 51  1  0
 27 52  1  0
 28 53  1  0
 28 54  1  0
 29 55  1  0
 30 56  1  0
M  END
>  <smiles>  (50) 
O=C1CC(c2cccc(C(=O)N3CCOCC3)c2)=Nc2cc(N3CCOCC3)ccc21

>  <score_type>  (50) 
oracle

>  <origin>  (50) 
autodockgpu

>  <m_score__min__energy>  (50) 
-9.1199999999999992

>  <m_primary>  (50) 
energy

>  <rmsd>  (50) 
6.298673459298415

>  <m_score__min__rmsd>  (50) 
6.298673459298415

>  <meeko>  (50) 
{"free_energy": -9.06, "intermolecular_energy": -9.96, "internal_energy": -0.84, "cluster_size": 50, "cluster_id": 1, "rank_in_cluster": 26}

>  <energy>  (50) 
-8.53

>  <cluster_rmsd>  (50) 
1.52

>  <cluster>  (50) 
1

$$$$
