@<TRIPOS>MOLECULE
*****
 46 49 0 0 0
SMALL
GASTEIGER

@<TRIPOS>ATOM
      1 O         139.9360   70.7740  221.4170 O.2     1  UNL1       -0.2685
      2 C         139.9330   71.3050  222.5740 C.2     1  UNL1        0.2628
      3 N         139.9530   72.7140  222.6270 N.am    1  UNL1       -0.3015
      4 C         139.9740   73.4320  221.3580 C.3     1  UNL1        0.0887
      5 C         139.6140   74.8410  221.5310 C.2     1  UNL1        0.2333
      6 O         138.6040   75.2480  222.1790 O.2     1  UNL1       -0.2739
      7 N         140.4320   75.8350  220.9440 N.am    1  UNL1       -0.2901
      8 C         141.8480   75.6730  220.5860 C.3     1  UNL1        0.0155
      9 C         141.9340   76.4200  219.2810 C.3     1  UNL1       -0.0350
     10 C         140.6580   77.2350  219.1450 C.3     1  UNL1       -0.0258
     11 C         140.1180   77.1990  220.5600 C.3     1  UNL1        0.0857
     12 C         140.8650   78.1740  221.4180 C.ar    1  UNL1        0.1493
     13 N         140.9450   77.8830  222.7280 N.ar    1  UNL1       -0.2369
     14 C         141.6030   78.7200  223.5550 C.ar    1  UNL1        0.0495
     15 C         142.1870   79.8600  223.0690 C.ar    1  UNL1        0.0771
     16 CL        143.0290   80.9230  224.1570 Cl      1  UNL1       -0.0804
     17 C         142.0830   80.1260  221.7230 C.ar    1  UNL1        0.0495
     18 N         141.4280   79.2950  220.8880 N.ar    1  UNL1       -0.2369
     19 C         139.9110   70.4820  223.7790 C.ar    1  UNL1        0.1260
     20 C         139.2710   69.2580  223.7340 C.ar    1  UNL1       -0.0306
     21 C         139.2210   68.4400  224.8460 C.ar    1  UNL1       -0.0504
     22 C         139.8230   68.8530  226.0370 C.ar    1  UNL1        0.0004
     23 C         139.8100   68.0910  227.1760 C.ar    1  UNL1       -0.0526
     24 C         140.4220   68.5340  228.3450 C.ar    1  UNL1       -0.0611
     25 C         141.0570   69.7670  228.3630 C.ar    1  UNL1       -0.0597
     26 C         141.0740   70.5480  227.2040 C.ar    1  UNL1       -0.0357
     27 C         140.4640   70.0970  226.0520 C.ar    1  UNL1        0.0718
     28 N         140.4840   70.8570  224.9370 N.ar    1  UNL1       -0.2421
     29 H         139.9510   73.1910  223.5540 H       1  UNL1        0.1496
     30 H         140.9856   73.3717  220.9302 H       1  UNL1        0.0558
     31 H         139.2361   72.9677  220.6872 H       1  UNL1        0.0558
     32 H         142.5052   76.1209  221.3459 H       1  UNL1        0.0465
     33 H         142.1682   74.6230  220.5155 H       1  UNL1        0.0465
     34 H         142.8087   77.0871  219.2855 H       1  UNL1        0.0281
     35 H         142.0434   75.7220  218.4379 H       1  UNL1        0.0281
     36 H         140.8724   78.2650  218.8238 H       1  UNL1        0.0288
     37 H         139.9585   76.8465  218.3902 H       1  UNL1        0.0288
     38 H         139.0543   77.4624  220.6561 H       1  UNL1        0.0582
     39 H         141.6715   78.4859  224.6276 H       1  UNL1        0.0845
     40 H         142.5454   81.0386  221.3188 H       1  UNL1        0.0845
     41 H         138.7942   68.9302  222.7985 H       1  UNL1        0.0641
     42 H         138.7094   67.4676  224.7939 H       1  UNL1        0.0625
     43 H         139.3073   67.1126  227.1662 H       1  UNL1        0.0624
     44 H         140.4022   67.9093  229.2502 H       1  UNL1        0.0618
     45 H         141.5431   70.1272  229.2817 H       1  UNL1        0.0618
     46 H         141.5761   71.5267  227.2106 H       1  UNL1        0.0639
@<TRIPOS>BOND
     1     1     2    2
     2     2     3   am
     3     3     4    1
     4     4     5    1
     5     5     6    2
     6     5     7   am
     7     7     8    1
     8     8     9    1
     9     9    10    1
    10    10    11    1
    11    11    12    1
    12    12    13   ar
    13    13    14   ar
    14    14    15   ar
    15    15    16    1
    16    15    17   ar
    17    17    18   ar
    18     2    19    1
    19    19    20   ar
    20    20    21   ar
    21    21    22   ar
    22    22    23   ar
    23    23    24   ar
    24    24    25   ar
    25    25    26   ar
    26    26    27   ar
    27    27    28   ar
    28    11     7    1
    29    18    12   ar
    30    28    19   ar
    31    27    22   ar
    32     3    29    1
    33     4    30    1
    34     4    31    1
    35     8    32    1
    36     8    33    1
    37     9    34    1
    38     9    35    1
    39    10    36    1
    40    10    37    1
    41    11    38    1
    42    14    39    1
    43    17    40    1
    44    20    41    1
    45    21    42    1
    46    23    43    1
    47    24    44    1
    48    25    45    1
    49    26    46    1
