
 74 79  0  0  0  0  0  0  0  0999 V2000
  146.2100   68.3600  217.6500 N   0  0  0  0  0  0  0  0  0  0  0  0
  146.0140   68.8570  218.9710 C   0  0  0  0  0  0  0  0  0  0  0  0
  145.8650   68.0600  219.9360 O   0  0  0  0  0  0  0  0  0  0  0  0
  145.9950   70.3330  219.1350 C   0  0  0  0  0  0  0  0  0  0  0  0
  144.7350   70.9110  218.7300 N   0  0  0  0  0  0  0  0  0  0  0  0
  143.7010   70.6790  219.7000 C   0  0  0  0  0  0  0  0  0  0  0  0
  143.7110   71.6940  220.8180 C   0  0  0  0  0  0  0  0  0  0  0  0
  143.6710   73.1190  220.3410 C   0  0  0  0  0  0  0  0  0  0  0  0
  142.4500   73.7890  220.8440 C   0  0  0  0  0  0  0  0  0  0  0  0
  141.4220   73.0070  221.2140 N   0  0  0  0  0  0  0  0  0  0  0  0
  140.3090   73.6060  221.6730 C   0  0  0  0  0  0  0  0  0  0  0  0
  139.2030   72.8050  222.0700 N   0  0  0  0  0  0  0  0  0  0  0  0
  137.8580   73.0630  221.5850 C   0  0  0  0  0  0  0  0  0  0  0  0
  136.8320   72.8260  222.6830 C   0  0  0  0  0  0  0  0  0  0  0  0
  136.9970   71.5120  223.2850 N   0  0  0  0  0  0  0  0  0  0  0  0
  135.9900   71.0670  224.1840 C   0  0  0  0  0  0  0  0  0  0  0  0
  135.0380   71.9020  224.7330 C   0  0  0  0  0  0  0  0  0  0  0  0
  134.0710   71.4170  225.6070 C   0  0  0  0  0  0  0  0  0  0  0  0
  134.0270   70.0900  225.9540 C   0  0  0  0  0  0  0  0  0  0  0  0
  134.9740   69.2410  225.4120 C   0  0  0  0  0  0  0  0  0  0  0  0
  135.9120   69.7320  224.5600 C   0  0  0  0  0  0  0  0  0  0  0  0
  138.1620   70.7600  222.9280 C   0  0  0  0  0  0  0  0  0  0  0  0
  139.3700   71.6940  222.9800 C   0  0  0  0  0  0  0  0  0  0  0  0
  140.2020   74.9430  221.7680 N   0  0  0  0  0  0  0  0  0  0  0  0
  141.2290   75.7510  221.4010 C   0  0  0  0  0  0  0  0  0  0  0  0
  141.1520   77.1690  221.4880 N   0  0  0  0  0  0  0  0  0  0  0  0
  141.1620   78.0130  220.3050 C   0  0  0  0  0  0  0  0  0  0  0  0
  140.1470   79.1310  220.5850 C   0  0  0  0  0  0  0  0  0  0  0  0
  140.7380   79.9290  221.6920 C   0  0  0  0  0  0  0  0  0  0  0  0
  140.8240   81.3040  221.6080 C   0  0  0  0  0  0  0  0  0  0  0  0
  141.3850   82.0220  222.6680 C   0  0  0  0  0  0  0  0  0  0  0  0
  141.8400   81.3270  223.7750 C   0  0  0  0  0  0  0  0  0  0  0  0
  141.7420   79.9460  223.8350 C   0  0  0  0  0  0  0  0  0  0  0  0
  141.1880   79.2250  222.7920 C   0  0  0  0  0  0  0  0  0  0  0  0
  141.0630   77.7520  222.8130 C   0  0  0  0  0  0  0  0  0  0  0  0
  142.3310   75.1300  220.9450 N   0  0  0  0  0  0  0  0  0  0  0  0
  143.7750   73.1750  218.8360 C   0  0  0  0  0  0  0  0  0  0  0  0
  144.8540   72.2770  218.3280 C   0  0  0  0  0  0  0  0  0  0  0  0
  145.4770   67.7620  217.1990 H   0  0  0  0  0  0  0  0  0  0  0  0
  147.0950   68.5920  217.1220 H   0  0  0  0  0  0  0  0  0  0  0  0
  146.1712   70.5740  220.1937 H   0  0  0  0  0  0  0  0  0  0  0  0
  146.7818   70.7542  218.4920 H   0  0  0  0  0  0  0  0  0  0  0  0
  142.7261   70.7243  219.1925 H   0  0  0  0  0  0  0  0  0  0  0  0
  143.8817   69.6906  220.1476 H   0  0  0  0  0  0  0  0  0  0  0  0
  142.8326   71.5166  221.4559 H   0  0  0  0  0  0  0  0  0  0  0  0
  144.6581   71.5636  221.3620 H   0  0  0  0  0  0  0  0  0  0  0  0
  144.5372   73.6636  220.7449 H   0  0  0  0  0  0  0  0  0  0  0  0
  137.7906   74.1080  221.2481 H   0  0  0  0  0  0  0  0  0  0  0  0
  137.6466   72.3771  220.7515 H   0  0  0  0  0  0  0  0  0  0  0  0
  136.9550   73.5944  223.4604 H   0  0  0  0  0  0  0  0  0  0  0  0
  135.8276   72.8806  222.2377 H   0  0  0  0  0  0  0  0  0  0  0  0
  135.0442   72.9712  224.4744 H   0  0  0  0  0  0  0  0  0  0  0  0
  133.3276   72.1099  226.0280 H   0  0  0  0  0  0  0  0  0  0  0  0
  133.2589   69.7120  226.6448 H   0  0  0  0  0  0  0  0  0  0  0  0
  134.9683   68.1716  225.6696 H   0  0  0  0  0  0  0  0  0  0  0  0
  136.6519   69.0322  224.1443 H   0  0  0  0  0  0  0  0  0  0  0  0
  138.3017   69.9312  223.6377 H   0  0  0  0  0  0  0  0  0  0  0  0
  138.0487   70.3427  221.9166 H   0  0  0  0  0  0  0  0  0  0  0  0
  139.4824   72.0807  224.0036 H   0  0  0  0  0  0  0  0  0  0  0  0
  140.2650   71.1278  222.6826 H   0  0  0  0  0  0  0  0  0  0  0  0
  142.1645   78.4363  220.1441 H   0  0  0  0  0  0  0  0  0  0  0  0
  140.9024   77.4459  219.3989 H   0  0  0  0  0  0  0  0  0  0  0  0
  140.0066   79.7567  219.6913 H   0  0  0  0  0  0  0  0  0  0  0  0
  139.1579   78.7299  220.8512 H   0  0  0  0  0  0  0  0  0  0  0  0
  140.4545   81.8299  220.7153 H   0  0  0  0  0  0  0  0  0  0  0  0
  141.4633   83.1183  222.6232 H   0  0  0  0  0  0  0  0  0  0  0  0
  142.2847   81.8774  224.6172 H   0  0  0  0  0  0  0  0  0  0  0  0
  142.1102   79.4150  224.7252 H   0  0  0  0  0  0  0  0  0  0  0  0
  141.8699   77.3382  223.4356 H   0  0  0  0  0  0  0  0  0  0  0  0
  140.0715   77.5061  223.2209 H   0  0  0  0  0  0  0  0  0  0  0  0
  142.8149   72.8624  218.3996 H   0  0  0  0  0  0  0  0  0  0  0  0
  144.0199   74.2072  218.5453 H   0  0  0  0  0  0  0  0  0  0  0  0
  144.8397   72.3127  217.2287 H   0  0  0  0  0  0  0  0  0  0  0  0
  145.7947   72.6468  218.7619 H   0  0  0  0  0  0  0  0  0  0  0  0
  1  2  1  0
  2  3  2  0
  2  4  1  0
  4  5  1  0
  5  6  1  0
  6  7  1  0
  7  8  1  0
  8  9  1  0
  9 10  2  0
 10 11  1  0
 11 12  1  0
 12 13  1  0
 13 14  1  0
 14 15  1  0
 15 16  1  0
 16 17  2  0
 17 18  1  0
 18 19  2  0
 19 20  1  0
 20 21  2  0
 15 22  1  0
 22 23  1  0
 11 24  2  0
 24 25  1  0
 25 26  1  0
 26 27  1  0
 27 28  1  0
 28 29  1  0
 29 30  2  0
 30 31  1  0
 31 32  2  0
 32 33  1  0
 33 34  2  0
 34 35  1  0
 25 36  2  0
  8 37  1  0
 37 38  1  0
 38  5  1  0
 36  9  1  0
 23 12  1  0
 35 26  1  0
 21 16  1  0
 34 29  1  0
  1 39  1  0
  1 40  1  0
  4 41  1  0
  4 42  1  0
  6 43  1  0
  6 44  1  0
  7 45  1  0
  7 46  1  0
  8 47  1  0
 13 48  1  0
 13 49  1  0
 14 50  1  0
 14 51  1  0
 17 52  1  0
 18 53  1  0
 19 54  1  0
 20 55  1  0
 21 56  1  0
 22 57  1  0
 22 58  1  0
 23 59  1  0
 23 60  1  0
 27 61  1  0
 27 62  1  0
 28 63  1  0
 28 64  1  0
 30 65  1  0
 31 66  1  0
 32 67  1  0
 33 68  1  0
 35 69  1  0
 35 70  1  0
 37 71  1  0
 37 72  1  0
 38 73  1  0
 38 74  1  0
M  END
