
     RDKit          3D

 73 78  0  0  0  0  0  0  0  0999 V2000
  140.7610   73.7240  222.0590 O   0  0  0  0  0  0  0  0  0  0  0  0
  140.1060   72.6630  222.0350 C   0  0  0  0  0  0  0  0  0  0  0  0
  140.7390   71.4900  221.5090 N   0  0  0  0  0  0  0  0  0  0  0  0
  142.1250   71.5420  221.0090 C   0  0  0  0  0  0  0  0  0  0  0  0
  142.2290   71.8910  219.5700 C   0  0  0  0  0  0  0  0  0  0  0  0
  143.5840   72.4420  219.2600 C   0  0  0  0  0  0  0  0  0  0  0  0
  143.6690   72.9130  217.8020 C   0  0  0  0  0  0  0  0  0  0  0  0
  144.9380   73.7590  217.7190 C   0  0  0  0  0  0  0  0  0  0  0  0
  145.9630   73.3040  218.6200 N   0  0  0  0  0  0  0  0  0  0  0  0
  145.5640   73.6270  219.9840 C   0  0  0  0  0  0  0  0  0  0  0  0
  144.0290   73.5970  220.0890 C   0  0  0  0  0  0  0  0  0  0  0  0
  138.7390   72.5020  222.5000 C   0  0  0  0  0  0  0  0  0  0  0  0
  137.8200   73.4430  222.0230 C   0  0  0  0  0  0  0  0  0  0  0  0
  136.5550   73.3860  222.3940 N   0  0  0  0  0  0  0  0  0  0  0  0
  136.1410   72.4170  223.2370 C   0  0  0  0  0  0  0  0  0  0  0  0
  134.7640   72.4390  223.5910 N   0  0  0  0  0  0  0  0  0  0  0  0
  134.0080   71.2480  223.9250 C   0  0  0  0  0  0  0  0  0  0  0  0
  133.3580   71.3040  225.2780 C   0  0  0  0  0  0  0  0  0  0  0  0
  133.1800   72.6760  225.7540 C   0  0  0  0  0  0  0  0  0  0  0  0
  132.6760   72.8350  227.0500 C   0  0  0  0  0  0  0  0  0  0  0  0
  132.4660   74.0770  227.6000 C   0  0  0  0  0  0  0  0  0  0  0  0
  132.7450   75.2030  226.8980 C   0  0  0  0  0  0  0  0  0  0  0  0
  133.2500   75.0920  225.5960 C   0  0  0  0  0  0  0  0  0  0  0  0
  133.4520   73.8290  225.0640 C   0  0  0  0  0  0  0  0  0  0  0  0
  134.0010   73.7000  223.6610 C   0  0  0  0  0  0  0  0  0  0  0  0
  137.0040   71.5210  223.6940 N   0  0  0  0  0  0  0  0  0  0  0  0
  138.3280   71.5130  223.3580 C   0  0  0  0  0  0  0  0  0  0  0  0
  139.1650   70.5160  223.8990 N   0  0  0  0  0  0  0  0  0  0  0  0
  138.9620   69.1050  223.8590 C   0  0  0  0  0  0  0  0  0  0  0  0
  139.0690   68.4580  225.2240 C   0  0  0  0  0  0  0  0  0  0  0  0
  139.7080   69.3040  226.2380 C   0  0  0  0  0  0  0  0  0  0  0  0
  139.6590   68.8470  227.5590 C   0  0  0  0  0  0  0  0  0  0  0  0
  140.2420   69.6050  228.5440 C   0  0  0  0  0  0  0  0  0  0  0  0
  140.8800   70.8040  228.3130 C   0  0  0  0  0  0  0  0  0  0  0  0
  140.9290   71.2550  227.0150 C   0  0  0  0  0  0  0  0  0  0  0  0
  140.3400   70.4950  226.0030 C   0  0  0  0  0  0  0  0  0  0  0  0
  140.3840   70.9820  224.5900 C   0  0  0  0  0  0  0  0  0  0  0  0
  140.1920   70.5810  221.4860 H   0  0  0  0  0  0  0  0  0  0  0  0
  142.6753   72.2969  221.5898 H   0  0  0  0  0  0  0  0  0  0  0  0
  142.5462   70.5325  221.1256 H   0  0  0  0  0  0  0  0  0  0  0  0
  142.0588   70.9879  218.9655 H   0  0  0  0  0  0  0  0  0  0  0  0
  141.4728   72.6542  219.3341 H   0  0  0  0  0  0  0  0  0  0  0  0
  144.2431   71.5899  219.4824 H   0  0  0  0  0  0  0  0  0  0  0  0
  143.7371   72.0504  217.1228 H   0  0  0  0  0  0  0  0  0  0  0  0
  142.7774   73.4851  217.5056 H   0  0  0  0  0  0  0  0  0  0  0  0
  145.3262   73.7129  216.6908 H   0  0  0  0  0  0  0  0  0  0  0  0
  144.6735   74.7876  218.0055 H   0  0  0  0  0  0  0  0  0  0  0  0
  146.8090   73.8730  218.4190 H   0  0  0  0  0  0  0  0  0  0  0  0
  145.9936   72.8882  220.6766 H   0  0  0  0  0  0  0  0  0  0  0  0
  145.9303   74.6306  220.2457 H   0  0  0  0  0  0  0  0  0  0  0  0
  143.7200   73.4581  221.1355 H   0  0  0  0  0  0  0  0  0  0  0  0
  143.5825   74.5397  219.7399 H   0  0  0  0  0  0  0  0  0  0  0  0
  138.1537   74.2341  221.3354 H   0  0  0  0  0  0  0  0  0  0  0  0
  133.2219   71.1121  223.1676 H   0  0  0  0  0  0  0  0  0  0  0  0
  134.7209   70.4105  223.9457 H   0  0  0  0  0  0  0  0  0  0  0  0
  132.3719   70.8205  225.2166 H   0  0  0  0  0  0  0  0  0  0  0  0
  134.0175   70.7848  225.9890 H   0  0  0  0  0  0  0  0  0  0  0  0
  132.4412   71.9404  227.6454 H   0  0  0  0  0  0  0  0  0  0  0  0
  132.0669   74.1585  228.6218 H   0  0  0  0  0  0  0  0  0  0  0  0
  132.5765   76.1933  227.3462 H   0  0  0  0  0  0  0  0  0  0  0  0
  133.4819   75.9915  225.0068 H   0  0  0  0  0  0  0  0  0  0  0  0
  133.1741   73.6781  222.9359 H   0  0  0  0  0  0  0  0  0  0  0  0
  134.6491   74.5558  223.4211 H   0  0  0  0  0  0  0  0  0  0  0  0
  137.9593   68.9055  223.4531 H   0  0  0  0  0  0  0  0  0  0  0  0
  139.7516   68.6746  223.2255 H   0  0  0  0  0  0  0  0  0  0  0  0
  138.0545   68.2104  225.5697 H   0  0  0  0  0  0  0  0  0  0  0  0
  139.7054   67.5687  225.1052 H   0  0  0  0  0  0  0  0  0  0  0  0
  139.1620   67.8968  227.8044 H   0  0  0  0  0  0  0  0  0  0  0  0
  140.1971   69.2332  229.5783 H   0  0  0  0  0  0  0  0  0  0  0  0
  141.3326   71.3781  229.1349 H   0  0  0  0  0  0  0  0  0  0  0  0
  141.4277   72.2059  226.7762 H   0  0  0  0  0  0  0  0  0  0  0  0
  140.4215   72.0813  224.5768 H   0  0  0  0  0  0  0  0  0  0  0  0
  141.2788   70.5917  224.0831 H   0  0  0  0  0  0  0  0  0  0  0  0
  1  2  2  0
  2  3  1  0
  3  4  1  0
  4  5  1  0
  5  6  1  0
  6  7  1  0
  7  8  1  0
  8  9  1  0
  9 10  1  0
 10 11  1  0
  2 12  1  0
 12 13  2  0
 13 14  1  0
 14 15  2  0
 15 16  1  0
 16 17  1  0
 17 18  1  0
 18 19  1  0
 19 20  2  0
 20 21  1  0
 21 22  2  0
 22 23  1  0
 23 24  2  0
 24 25  1  0
 15 26  1  0
 26 27  2  0
 27 28  1  0
 28 29  1  0
 29 30  1  0
 30 31  1  0
 31 32  2  0
 32 33  1  0
 33 34  2  0
 34 35  1  0
 35 36  2  0
 36 37  1  0
 11  6  1  0
 27 12  1  0
 37 28  1  0
 25 16  1  0
 36 31  1  0
 24 19  1  0
  3 38  1  0
  4 39  1  0
  4 40  1  0
  5 41  1  0
  5 42  1  0
  6 43  1  0
  7 44  1  0
  7 45  1  0
  8 46  1  0
  8 47  1  0
  9 48  1  0
 10 49  1  0
 10 50  1  0
 11 51  1  0
 11 52  1  0
 13 53  1  0
 17 54  1  0
 17 55  1  0
 18 56  1  0
 18 57  1  0
 20 58  1  0
 21 59  1  0
 22 60  1  0
 23 61  1  0
 25 62  1  0
 25 63  1  0
 29 64  1  0
 29 65  1  0
 30 66  1  0
 30 67  1  0
 32 68  1  0
 33 69  1  0
 34 70  1  0
 35 71  1  0
 37 72  1  0
 37 73  1  0
M  END
>  <smiles>  (1) 
O=C(NCCC1CCNCC1)c1cnc(N2CCc3ccccc3C2)nc1N1CCc2ccccc2C1

>  <score_type>  (1) 
oracle

>  <origin>  (1) 
autodockgpu

>  <m_score__min__energy>  (1) 
-10.130000000000001

>  <m_primary>  (1) 
energy

>  <rmsd>  (1) 
6.647079951306504

>  <m_score__min__rmsd>  (1) 
6.647079951306504

>  <meeko>  (1) 
{"free_energy": -9.58, "intermolecular_energy": -11.37, "internal_energy": -1.19, "cluster_size": 15, "cluster_id": 1, "rank_in_cluster": 7}

>  <energy>  (1) 
-10.13

>  <cluster_rmsd>  (1) 
0.0

>  <cluster>  (1) 
1

$$$$

     RDKit          3D

 73 78  0  0  0  0  0  0  0  0999 V2000
  136.0860   70.8280  222.0360 O   0  0  0  0  0  0  0  0  0  0  0  0
  136.6820   71.5700  222.8410 C   0  0  0  0  0  0  0  0  0  0  0  0
  136.4750   71.3510  224.2420 N   0  0  0  0  0  0  0  0  0  0  0  0
  135.5780   70.2800  224.7130 C   0  0  0  0  0  0  0  0  0  0  0  0
  134.1360   70.6050  224.5790 C   0  0  0  0  0  0  0  0  0  0  0  0
  133.7060   71.5430  225.6590 C   0  0  0  0  0  0  0  0  0  0  0  0
  134.1210   72.9850  225.3370 C   0  0  0  0  0  0  0  0  0  0  0  0
  133.3320   73.8650  226.3050 C   0  0  0  0  0  0  0  0  0  0  0  0
  133.0920   73.2160  227.5670 N   0  0  0  0  0  0  0  0  0  0  0  0
  132.1100   72.1580  227.3690 C   0  0  0  0  0  0  0  0  0  0  0  0
  132.2450   71.5930  225.9430 C   0  0  0  0  0  0  0  0  0  0  0  0
  137.5840   72.6520  222.4860 C   0  0  0  0  0  0  0  0  0  0  0  0
  136.9880   73.7710  221.8950 C   0  0  0  0  0  0  0  0  0  0  0  0
  137.7240   74.8030  221.5290 N   0  0  0  0  0  0  0  0  0  0  0  0
  139.0600   74.7840  221.7240 C   0  0  0  0  0  0  0  0  0  0  0  0
  139.7750   75.9340  221.2900 N   0  0  0  0  0  0  0  0  0  0  0  0
  139.2980   76.8210  220.2470 C   0  0  0  0  0  0  0  0  0  0  0  0
  139.1800   78.2540  220.6810 C   0  0  0  0  0  0  0  0  0  0  0  0
  140.0200   78.5560  221.8400 C   0  0  0  0  0  0  0  0  0  0  0  0
  139.9050   79.8400  222.3860 C   0  0  0  0  0  0  0  0  0  0  0  0
  140.6460   80.2340  223.4740 C   0  0  0  0  0  0  0  0  0  0  0  0
  141.5230   79.3830  224.0630 C   0  0  0  0  0  0  0  0  0  0  0  0
  141.6720   78.0890  223.5480 C   0  0  0  0  0  0  0  0  0  0  0  0
  140.9130   77.7150  222.4510 C   0  0  0  0  0  0  0  0  0  0  0  0
  141.0650   76.3180  221.8930 C   0  0  0  0  0  0  0  0  0  0  0  0
  139.6340   73.7280  222.2840 N   0  0  0  0  0  0  0  0  0  0  0  0
  138.9420   72.6220  222.6890 C   0  0  0  0  0  0  0  0  0  0  0  0
  139.6460   71.5500  223.2730 N   0  0  0  0  0  0  0  0  0  0  0  0
  139.4610   70.1590  223.0250 C   0  0  0  0  0  0  0  0  0  0  0  0
  139.2750   69.3550  224.2950 C   0  0  0  0  0  0  0  0  0  0  0  0
  139.6810   70.0640  225.5140 C   0  0  0  0  0  0  0  0  0  0  0  0
  139.3530   69.4580  226.7310 C   0  0  0  0  0  0  0  0  0  0  0  0
  139.7110   70.0830  227.9000 C   0  0  0  0  0  0  0  0  0  0  0  0
  140.3800   71.2870  227.9530 C   0  0  0  0  0  0  0  0  0  0  0  0
  140.7030   71.8840  226.7570 C   0  0  0  0  0  0  0  0  0  0  0  0
  140.3460   71.2600  225.5600 C   0  0  0  0  0  0  0  0  0  0  0  0
  140.6890   71.9060  224.2570 C   0  0  0  0  0  0  0  0  0  0  0  0
  136.9800   71.9750  224.9360 H   0  0  0  0  0  0  0  0  0  0  0  0
  135.7848   69.3719  224.1277 H   0  0  0  0  0  0  0  0  0  0  0  0
  135.7775   70.1434  225.7861 H   0  0  0  0  0  0  0  0  0  0  0  0
  133.9609   71.0758  223.6004 H   0  0  0  0  0  0  0  0  0  0  0  0
  133.5536   69.6757  224.6637 H   0  0  0  0  0  0  0  0  0  0  0  0
  134.2108   71.1308  226.5451 H   0  0  0  0  0  0  0  0  0  0  0  0
  135.2020   73.1172  225.4918 H   0  0  0  0  0  0  0  0  0  0  0  0
  133.9124   73.2443  224.2886 H   0  0  0  0  0  0  0  0  0  0  0  0
  133.9008   74.7890  226.4857 H   0  0  0  0  0  0  0  0  0  0  0  0
  132.3550   74.0757  225.8456 H   0  0  0  0  0  0  0  0  0  0  0  0
  132.6420   73.9220  228.1820 H   0  0  0  0  0  0  0  0  0  0  0  0
  132.2842   71.3545  228.0998 H   0  0  0  0  0  0  0  0  0  0  0  0
  131.0980   72.5663  227.5074 H   0  0  0  0  0  0  0  0  0  0  0  0
  131.8101   70.5841  225.8887 H   0  0  0  0  0  0  0  0  0  0  0  0
  131.7127   72.2169  225.2099 H   0  0  0  0  0  0  0  0  0  0  0  0
  135.8999   73.7906  221.7346 H   0  0  0  0  0  0  0  0  0  0  0  0
  139.9991   76.7709  219.4009 H   0  0  0  0  0  0  0  0  0  0  0  0
  138.2872   76.4831  219.9747 H   0  0  0  0  0  0  0  0  0  0  0  0
  139.4837   78.9023  219.8459 H   0  0  0  0  0  0  0  0  0  0  0  0
  138.1335   78.4323  220.9693 H   0  0  0  0  0  0  0  0  0  0  0  0
  139.2018   80.5533  221.9313 H   0  0  0  0  0  0  0  0  0  0  0  0
  140.5266   81.2523  223.8724 H   0  0  0  0  0  0  0  0  0  0  0  0
  142.1105   79.7056  224.9352 H   0  0  0  0  0  0  0  0  0  0  0  0
  142.3792   77.3821  224.0065 H   0  0  0  0  0  0  0  0  0  0  0  0
  141.8553   76.3039  221.1280 H   0  0  0  0  0  0  0  0  0  0  0  0
  141.3433   75.6127  222.6899 H   0  0  0  0  0  0  0  0  0  0  0  0
  138.5692   70.0303  222.3940 H   0  0  0  0  0  0  0  0  0  0  0  0
  140.3698   69.7878  222.5287 H   0  0  0  0  0  0  0  0  0  0  0  0
  138.2106   69.0924  224.3856 H   0  0  0  0  0  0  0  0  0  0  0  0
  139.9232   68.4704  224.2100 H   0  0  0  0  0  0  0  0  0  0  0  0
  138.8175   68.4974  226.7514 H   0  0  0  0  0  0  0  0  0  0  0  0
  139.4485   69.5942  228.8499 H   0  0  0  0  0  0  0  0  0  0  0  0
  140.6451   71.7519  228.9140 H   0  0  0  0  0  0  0  0  0  0  0  0
  141.2381   72.8450  226.7434 H   0  0  0  0  0  0  0  0  0  0  0  0
  140.7252   72.9983  224.3817 H   0  0  0  0  0  0  0  0  0  0  0  0
  141.6726   71.5576  223.9090 H   0  0  0  0  0  0  0  0  0  0  0  0
  1  2  2  0
  2  3  1  0
  3  4  1  0
  4  5  1  0
  5  6  1  0
  6  7  1  0
  7  8  1  0
  8  9  1  0
  9 10  1  0
 10 11  1  0
  2 12  1  0
 12 13  2  0
 13 14  1  0
 14 15  2  0
 15 16  1  0
 16 17  1  0
 17 18  1  0
 18 19  1  0
 19 20  2  0
 20 21  1  0
 21 22  2  0
 22 23  1  0
 23 24  2  0
 24 25  1  0
 15 26  1  0
 26 27  2  0
 27 28  1  0
 28 29  1  0
 29 30  1  0
 30 31  1  0
 31 32  2  0
 32 33  1  0
 33 34  2  0
 34 35  1  0
 35 36  2  0
 36 37  1  0
 11  6  1  0
 27 12  1  0
 37 28  1  0
 25 16  1  0
 36 31  1  0
 24 19  1  0
  3 38  1  0
  4 39  1  0
  4 40  1  0
  5 41  1  0
  5 42  1  0
  6 43  1  0
  7 44  1  0
  7 45  1  0
  8 46  1  0
  8 47  1  0
  9 48  1  0
 10 49  1  0
 10 50  1  0
 11 51  1  0
 11 52  1  0
 13 53  1  0
 17 54  1  0
 17 55  1  0
 18 56  1  0
 18 57  1  0
 20 58  1  0
 21 59  1  0
 22 60  1  0
 23 61  1  0
 25 62  1  0
 25 63  1  0
 29 64  1  0
 29 65  1  0
 30 66  1  0
 30 67  1  0
 32 68  1  0
 33 69  1  0
 34 70  1  0
 35 71  1  0
 37 72  1  0
 37 73  1  0
M  END
>  <smiles>  (2) 
O=C(NCCC1CCNCC1)c1cnc(N2CCc3ccccc3C2)nc1N1CCc2ccccc2C1

>  <score_type>  (2) 
oracle

>  <origin>  (2) 
autodockgpu

>  <m_score__min__energy>  (2) 
-10.130000000000001

>  <m_primary>  (2) 
energy

>  <rmsd>  (2) 
9.627418264913631

>  <m_score__min__rmsd>  (2) 
9.627418264913631

>  <meeko>  (2) 
{"free_energy": -9.71, "intermolecular_energy": -11.5, "internal_energy": -1.61, "cluster_size": 30, "cluster_id": 2, "rank_in_cluster": 8}

>  <energy>  (2) 
-9.98

>  <cluster_rmsd>  (2) 
0.17

>  <cluster>  (2) 
1

$$$$

     RDKit          3D

 73 78  0  0  0  0  0  0  0  0999 V2000
  140.7180   73.5470  222.2750 O   0  0  0  0  0  0  0  0  0  0  0  0
  139.8590   72.7850  221.7900 C   0  0  0  0  0  0  0  0  0  0  0  0
  140.1710   72.1030  220.5690 N   0  0  0  0  0  0  0  0  0  0  0  0
  141.4730   72.3030  219.9070 C   0  0  0  0  0  0  0  0  0  0  0  0
  141.4130   73.1980  218.7250 C   0  0  0  0  0  0  0  0  0  0  0  0
  141.9150   74.5620  219.0730 C   0  0  0  0  0  0  0  0  0  0  0  0
  140.8460   75.3720  219.8180 C   0  0  0  0  0  0  0  0  0  0  0  0
  141.5820   76.5690  220.4170 C   0  0  0  0  0  0  0  0  0  0  0  0
  142.6880   76.9990  219.6030 N   0  0  0  0  0  0  0  0  0  0  0  0
  143.7510   76.0070  219.6970 C   0  0  0  0  0  0  0  0  0  0  0  0
  143.1360   74.6150  219.9250 C   0  0  0  0  0  0  0  0  0  0  0  0
  138.5480   72.5180  222.3580 C   0  0  0  0  0  0  0  0  0  0  0  0
  137.5170   73.3610  221.9290 C   0  0  0  0  0  0  0  0  0  0  0  0
  136.2920   73.2030  222.3940 N   0  0  0  0  0  0  0  0  0  0  0  0
  136.0270   72.2270  223.2870 C   0  0  0  0  0  0  0  0  0  0  0  0
  134.6820   72.1380  223.7410 N   0  0  0  0  0  0  0  0  0  0  0  0
  134.1160   70.9370  224.3210 C   0  0  0  0  0  0  0  0  0  0  0  0
  133.5440   71.1420  225.6950 C   0  0  0  0  0  0  0  0  0  0  0  0
  133.2090   72.5420  225.9550 C   0  0  0  0  0  0  0  0  0  0  0  0
  132.7630   72.8550  227.2450 C   0  0  0  0  0  0  0  0  0  0  0  0
  132.4190   74.1380  227.6010 C   0  0  0  0  0  0  0  0  0  0  0  0
  132.5020   75.1530  226.7070 C   0  0  0  0  0  0  0  0  0  0  0  0
  132.9410   74.8850  225.4040 C   0  0  0  0  0  0  0  0  0  0  0  0
  133.2820   73.5850  225.0690 C   0  0  0  0  0  0  0  0  0  0  0  0
  133.7620   73.2880  223.6660 C   0  0  0  0  0  0  0  0  0  0  0  0
  136.9980   71.4230  223.6980 N   0  0  0  0  0  0  0  0  0  0  0  0
  138.2900   71.5210  223.2660 C   0  0  0  0  0  0  0  0  0  0  0  0
  139.2490   70.6170  223.7660 N   0  0  0  0  0  0  0  0  0  0  0  0
  139.2000   69.1930  223.7170 C   0  0  0  0  0  0  0  0  0  0  0  0
  139.4250   68.5520  225.0700 C   0  0  0  0  0  0  0  0  0  0  0  0
  140.0050   69.4550  226.0700 C   0  0  0  0  0  0  0  0  0  0  0  0
  140.0550   68.9860  227.3860 C   0  0  0  0  0  0  0  0  0  0  0  0
  140.5880   69.7950  228.3590 C   0  0  0  0  0  0  0  0  0  0  0  0
  141.0830   71.0590  228.1190 C   0  0  0  0  0  0  0  0  0  0  0  0
  141.0350   71.5220  226.8250 C   0  0  0  0  0  0  0  0  0  0  0  0
  140.4950   70.7100  225.8260 C   0  0  0  0  0  0  0  0  0  0  0  0
  140.4350   71.2080  224.4180 C   0  0  0  0  0  0  0  0  0  0  0  0
  139.4480   71.4500  220.1490 H   0  0  0  0  0  0  0  0  0  0  0  0
  142.1700   72.7396  220.6375 H   0  0  0  0  0  0  0  0  0  0  0  0
  141.8035   71.3178  219.5462 H   0  0  0  0  0  0  0  0  0  0  0  0
  142.0353   72.7778  217.9212 H   0  0  0  0  0  0  0  0  0  0  0  0
  140.3672   73.2785  218.3934 H   0  0  0  0  0  0  0  0  0  0  0  0
  142.1696   74.9792  218.0876 H   0  0  0  0  0  0  0  0  0  0  0  0
  140.0655   75.7107  219.1208 H   0  0  0  0  0  0  0  0  0  0  0  0
  140.3464   74.7717  220.5926 H   0  0  0  0  0  0  0  0  0  0  0  0
  140.8733   77.4041  220.5189 H   0  0  0  0  0  0  0  0  0  0  0  0
  141.9852   76.2597  221.3926 H   0  0  0  0  0  0  0  0  0  0  0  0
  143.0570   77.8670  220.0380 H   0  0  0  0  0  0  0  0  0  0  0  0
  144.3318   76.0026  218.7629 H   0  0  0  0  0  0  0  0  0  0  0  0
  144.4125   76.2577  220.5394 H   0  0  0  0  0  0  0  0  0  0  0  0
  143.8457   73.8297  219.6255 H   0  0  0  0  0  0  0  0  0  0  0  0
  142.8953   74.4492  220.9855 H   0  0  0  0  0  0  0  0  0  0  0  0
  137.7282   74.1585  221.2014 H   0  0  0  0  0  0  0  0  0  0  0  0
  133.3131   70.5774  223.6606 H   0  0  0  0  0  0  0  0  0  0  0  0
  134.9357   70.2100  224.4190 H   0  0  0  0  0  0  0  0  0  0  0  0
  132.6310   70.5362  225.7918 H   0  0  0  0  0  0  0  0  0  0  0  0
  134.3080   70.8381  226.4257 H   0  0  0  0  0  0  0  0  0  0  0  0
  132.6857   72.0529  227.9938 H   0  0  0  0  0  0  0  0  0  0  0  0
  132.0720   74.3430  228.6245 H   0  0  0  0  0  0  0  0  0  0  0  0
  132.2275   76.1767  227.0014 H   0  0  0  0  0  0  0  0  0  0  0  0
  133.0136   75.6923  224.6604 H   0  0  0  0  0  0  0  0  0  0  0  0
  132.9055   73.0412  223.0214 H   0  0  0  0  0  0  0  0  0  0  0  0
  134.2738   74.1637  223.2404 H   0  0  0  0  0  0  0  0  0  0  0  0
  138.2114   68.8879  223.3434 H   0  0  0  0  0  0  0  0  0  0  0  0
  140.0089   68.8562  223.0520 H   0  0  0  0  0  0  0  0  0  0  0  0
  138.4562   68.1938  225.4483 H   0  0  0  0  0  0  0  0  0  0  0  0
  140.1489   67.7375  224.9194 H   0  0  0  0  0  0  0  0  0  0  0  0
  139.6736   67.9854  227.6378 H   0  0  0  0  0  0  0  0  0  0  0  0
  140.6220   69.4123  229.3897 H   0  0  0  0  0  0  0  0  0  0  0  0
  141.5000   71.6732  228.9307 H   0  0  0  0  0  0  0  0  0  0  0  0
  141.4187   72.5232  226.5793 H   0  0  0  0  0  0  0  0  0  0  0  0
  140.3530   72.3049  224.4149 H   0  0  0  0  0  0  0  0  0  0  0  0
  141.3478   70.9204  223.8756 H   0  0  0  0  0  0  0  0  0  0  0  0
  1  2  2  0
  2  3  1  0
  3  4  1  0
  4  5  1  0
  5  6  1  0
  6  7  1  0
  7  8  1  0
  8  9  1  0
  9 10  1  0
 10 11  1  0
  2 12  1  0
 12 13  2  0
 13 14  1  0
 14 15  2  0
 15 16  1  0
 16 17  1  0
 17 18  1  0
 18 19  1  0
 19 20  2  0
 20 21  1  0
 21 22  2  0
 22 23  1  0
 23 24  2  0
 24 25  1  0
 15 26  1  0
 26 27  2  0
 27 28  1  0
 28 29  1  0
 29 30  1  0
 30 31  1  0
 31 32  2  0
 32 33  1  0
 33 34  2  0
 34 35  1  0
 35 36  2  0
 36 37  1  0
 11  6  1  0
 27 12  1  0
 37 28  1  0
 25 16  1  0
 36 31  1  0
 24 19  1  0
  3 38  1  0
  4 39  1  0
  4 40  1  0
  5 41  1  0
  5 42  1  0
  6 43  1  0
  7 44  1  0
  7 45  1  0
  8 46  1  0
  8 47  1  0
  9 48  1  0
 10 49  1  0
 10 50  1  0
 11 51  1  0
 11 52  1  0
 13 53  1  0
 17 54  1  0
 17 55  1  0
 18 56  1  0
 18 57  1  0
 20 58  1  0
 21 59  1  0
 22 60  1  0
 23 61  1  0
 25 62  1  0
 25 63  1  0
 29 64  1  0
 29 65  1  0
 30 66  1  0
 30 67  1  0
 32 68  1  0
 33 69  1  0
 34 70  1  0
 35 71  1  0
 37 72  1  0
 37 73  1  0
M  END
>  <smiles>  (3) 
O=C(NCCC1CCNCC1)c1cnc(N2CCc3ccccc3C2)nc1N1CCc2ccccc2C1

>  <score_type>  (3) 
oracle

>  <origin>  (3) 
autodockgpu

>  <m_score__min__energy>  (3) 
-10.130000000000001

>  <m_primary>  (3) 
energy

>  <rmsd>  (3) 
5.640042176291028

>  <m_score__min__rmsd>  (3) 
5.640042176291028

>  <meeko>  (3) 
{"free_energy": -9.08, "intermolecular_energy": -10.87, "internal_energy": -1.42, "cluster_size": 15, "cluster_id": 1, "rank_in_cluster": 14}

>  <energy>  (3) 
-9.96

>  <cluster_rmsd>  (3) 
0.57

>  <cluster>  (3) 
1

$$$$

     RDKit          3D

 73 78  0  0  0  0  0  0  0  0999 V2000
  136.2560   72.8360  221.1730 O   0  0  0  0  0  0  0  0  0  0  0  0
  136.7180   73.5310  222.0990 C   0  0  0  0  0  0  0  0  0  0  0  0
  136.0180   73.5420  223.3490 N   0  0  0  0  0  0  0  0  0  0  0  0
  134.7840   72.7550  223.5290 C   0  0  0  0  0  0  0  0  0  0  0  0
  134.7360   72.0030  224.8070 C   0  0  0  0  0  0  0  0  0  0  0  0
  134.6060   70.5360  224.5490 C   0  0  0  0  0  0  0  0  0  0  0  0
  135.3960   70.1220  223.3000 C   0  0  0  0  0  0  0  0  0  0  0  0
  135.4780   68.5980  223.3540 C   0  0  0  0  0  0  0  0  0  0  0  0
  134.3220   68.0060  223.9720 N   0  0  0  0  0  0  0  0  0  0  0  0
  134.3610   68.2860  225.4010 C   0  0  0  0  0  0  0  0  0  0  0  0
  135.0660   69.6340  225.6410 C   0  0  0  0  0  0  0  0  0  0  0  0
  137.9210   74.3420  222.0290 C   0  0  0  0  0  0  0  0  0  0  0  0
  137.7180   75.7220  221.9150 C   0  0  0  0  0  0  0  0  0  0  0  0
  138.7480   76.5420  221.8360 N   0  0  0  0  0  0  0  0  0  0  0  0
  140.0060   76.0540  221.8660 C   0  0  0  0  0  0  0  0  0  0  0  0
  141.0540   77.0100  221.7650 N   0  0  0  0  0  0  0  0  0  0  0  0
  141.8000   77.2480  220.5450 C   0  0  0  0  0  0  0  0  0  0  0  0
  141.7640   78.6770  220.0830 C   0  0  0  0  0  0  0  0  0  0  0  0
  141.4470   79.6040  221.1690 C   0  0  0  0  0  0  0  0  0  0  0  0
  141.2880   80.9520  220.8230 C   0  0  0  0  0  0  0  0  0  0  0  0
  140.9910   81.9110  221.7610 C   0  0  0  0  0  0  0  0  0  0  0  0
  140.8380   81.5820  223.0670 C   0  0  0  0  0  0  0  0  0  0  0  0
  140.9890   80.2450  223.4590 C   0  0  0  0  0  0  0  0  0  0  0  0
  141.2890   79.2970  222.4960 C   0  0  0  0  0  0  0  0  0  0  0  0
  141.4490   77.8520  222.9100 C   0  0  0  0  0  0  0  0  0  0  0  0
  140.2080   74.7480  221.9740 N   0  0  0  0  0  0  0  0  0  0  0  0
  139.1960   73.8350  222.0600 C   0  0  0  0  0  0  0  0  0  0  0  0
  139.5170   72.4670  222.1730 N   0  0  0  0  0  0  0  0  0  0  0  0
  138.8630   71.3720  221.5360 C   0  0  0  0  0  0  0  0  0  0  0  0
  138.4630   70.2820  222.5070 C   0  0  0  0  0  0  0  0  0  0  0  0
  139.1290   70.3700  223.8120 C   0  0  0  0  0  0  0  0  0  0  0  0
  138.6600   69.5170  224.8150 C   0  0  0  0  0  0  0  0  0  0  0  0
  139.2500   69.5630  226.0540 C   0  0  0  0  0  0  0  0  0  0  0  0
  140.2900   70.4100  226.3770 C   0  0  0  0  0  0  0  0  0  0  0  0
  140.7520   71.2500  225.3910 C   0  0  0  0  0  0  0  0  0  0  0  0
  140.1610   71.2130  224.1270 C   0  0  0  0  0  0  0  0  0  0  0  0
  140.6540   72.1270  223.0520 C   0  0  0  0  0  0  0  0  0  0  0  0
  136.4040   74.1280  224.1450 H   0  0  0  0  0  0  0  0  0  0  0  0
  133.9261   73.4429  223.4986 H   0  0  0  0  0  0  0  0  0  0  0  0
  134.7560   72.0121  222.7182 H   0  0  0  0  0  0  0  0  0  0  0  0
  135.6612   72.1903  225.3718 H   0  0  0  0  0  0  0  0  0  0  0  0
  133.8629   72.3405  225.3848 H   0  0  0  0  0  0  0  0  0  0  0  0
  133.5188   70.4098  224.4391 H   0  0  0  0  0  0  0  0  0  0  0  0
  134.8720   70.4465  222.3889 H   0  0  0  0  0  0  0  0  0  0  0  0
  136.3943   70.5833  223.2778 H   0  0  0  0  0  0  0  0  0  0  0  0
  135.5654   68.2128  222.3274 H   0  0  0  0  0  0  0  0  0  0  0  0
  136.3553   68.3317  223.9618 H   0  0  0  0  0  0  0  0  0  0  0  0
  134.4260   66.9770  223.8720 H   0  0  0  0  0  0  0  0  0  0  0  0
  133.3345   68.3341  225.7933 H   0  0  0  0  0  0  0  0  0  0  0  0
  134.9134   67.4865  225.9163 H   0  0  0  0  0  0  0  0  0  0  0  0
  134.7825   70.0447  226.6213 H   0  0  0  0  0  0  0  0  0  0  0  0
  136.1604   69.5231  225.6388 H   0  0  0  0  0  0  0  0  0  0  0  0
  136.6946   76.1247  221.8912 H   0  0  0  0  0  0  0  0  0  0  0  0
  142.8489   76.9658  220.7189 H   0  0  0  0  0  0  0  0  0  0  0  0
  141.3273   76.6438  219.7567 H   0  0  0  0  0  0  0  0  0  0  0  0
  142.7489   78.9400  219.6697 H   0  0  0  0  0  0  0  0  0  0  0  0
  140.9729   78.7652  219.3238 H   0  0  0  0  0  0  0  0  0  0  0  0
  141.4042   81.2512  219.7709 H   0  0  0  0  0  0  0  0  0  0  0  0
  140.8759   82.9593  221.4481 H   0  0  0  0  0  0  0  0  0  0  0  0
  140.5980   82.3559  223.8110 H   0  0  0  0  0  0  0  0  0  0  0  0
  140.8712   79.9541  224.5133 H   0  0  0  0  0  0  0  0  0  0  0  0
  142.4973   77.6529  223.1772 H   0  0  0  0  0  0  0  0  0  0  0  0
  140.8207   77.6306  223.7853 H   0  0  0  0  0  0  0  0  0  0  0  0
  137.9578   71.7463  221.0355 H   0  0  0  0  0  0  0  0  0  0  0  0
  139.5735   70.9332  220.8200 H   0  0  0  0  0  0  0  0  0  0  0  0
  137.3767   70.3443  222.6683 H   0  0  0  0  0  0  0  0  0  0  0  0
  138.7707   69.3267  222.0569 H   0  0  0  0  0  0  0  0  0  0  0  0
  137.8323   68.8206  224.6152 H   0  0  0  0  0  0  0  0  0  0  0  0
  138.8717   68.8856  226.8338 H   0  0  0  0  0  0  0  0  0  0  0  0
  140.7325   70.4133  227.3841 H   0  0  0  0  0  0  0  0  0  0  0  0
  141.5797   71.9447  225.5966 H   0  0  0  0  0  0  0  0  0  0  0  0
  141.0630   73.0436  223.5021 H   0  0  0  0  0  0  0  0  0  0  0  0
  141.4475   71.6343  222.4709 H   0  0  0  0  0  0  0  0  0  0  0  0
  1  2  2  0
  2  3  1  0
  3  4  1  0
  4  5  1  0
  5  6  1  0
  6  7  1  0
  7  8  1  0
  8  9  1  0
  9 10  1  0
 10 11  1  0
  2 12  1  0
 12 13  2  0
 13 14  1  0
 14 15  2  0
 15 16  1  0
 16 17  1  0
 17 18  1  0
 18 19  1  0
 19 20  2  0
 20 21  1  0
 21 22  2  0
 22 23  1  0
 23 24  2  0
 24 25  1  0
 15 26  1  0
 26 27  2  0
 27 28  1  0
 28 29  1  0
 29 30  1  0
 30 31  1  0
 31 32  2  0
 32 33  1  0
 33 34  2  0
 34 35  1  0
 35 36  2  0
 36 37  1  0
 11  6  1  0
 27 12  1  0
 37 28  1  0
 25 16  1  0
 36 31  1  0
 24 19  1  0
  3 38  1  0
  4 39  1  0
  4 40  1  0
  5 41  1  0
  5 42  1  0
  6 43  1  0
  7 44  1  0
  7 45  1  0
  8 46  1  0
  8 47  1  0
  9 48  1  0
 10 49  1  0
 10 50  1  0
 11 51  1  0
 11 52  1  0
 13 53  1  0
 17 54  1  0
 17 55  1  0
 18 56  1  0
 18 57  1  0
 20 58  1  0
 21 59  1  0
 22 60  1  0
 23 61  1  0
 25 62  1  0
 25 63  1  0
 29 64  1  0
 29 65  1  0
 30 66  1  0
 30 67  1  0
 32 68  1  0
 33 69  1  0
 34 70  1  0
 35 71  1  0
 37 72  1  0
 37 73  1  0
M  END
>  <smiles>  (4) 
O=C(NCCC1CCNCC1)c1cnc(N2CCc3ccccc3C2)nc1N1CCc2ccccc2C1

>  <score_type>  (4) 
oracle

>  <origin>  (4) 
autodockgpu

>  <m_score__min__energy>  (4) 
-10.130000000000001

>  <m_primary>  (4) 
energy

>  <rmsd>  (4) 
8.5000403811999

>  <m_score__min__rmsd>  (4) 
8.5000403811999

>  <meeko>  (4) 
{"free_energy": -8.87, "intermolecular_energy": -10.65, "internal_energy": -2.02, "cluster_size": 30, "cluster_id": 2, "rank_in_cluster": 28}

>  <energy>  (4) 
-9.72

>  <cluster_rmsd>  (4) 
0.64

>  <cluster>  (4) 
1

$$$$

     RDKit          3D

 73 78  0  0  0  0  0  0  0  0999 V2000
  139.1750   71.9920  220.4670 O   0  0  0  0  0  0  0  0  0  0  0  0
  138.9870   72.4460  221.6120 C   0  0  0  0  0  0  0  0  0  0  0  0
  139.9790   73.3190  222.1660 N   0  0  0  0  0  0  0  0  0  0  0  0
  141.1890   73.6660  221.3980 C   0  0  0  0  0  0  0  0  0  0  0  0
  141.7560   72.5300  220.6300 C   0  0  0  0  0  0  0  0  0  0  0  0
  143.1290   72.8610  220.1400 C   0  0  0  0  0  0  0  0  0  0  0  0
  143.1680   72.9250  218.6060 C   0  0  0  0  0  0  0  0  0  0  0  0
  144.4900   73.6070  218.2590 C   0  0  0  0  0  0  0  0  0  0  0  0
  145.5270   73.3150  219.2130 N   0  0  0  0  0  0  0  0  0  0  0  0
  145.2290   74.0170  220.4550 C   0  0  0  0  0  0  0  0  0  0  0  0
  143.7040   74.1490  220.6170 C   0  0  0  0  0  0  0  0  0  0  0  0
  137.8340   72.1690  222.4520 C   0  0  0  0  0  0  0  0  0  0  0  0
  136.6660   72.8700  222.1320 C   0  0  0  0  0  0  0  0  0  0  0  0
  135.5680   72.6930  222.8420 N   0  0  0  0  0  0  0  0  0  0  0  0
  135.5660   71.8340  223.8830 C   0  0  0  0  0  0  0  0  0  0  0  0
  134.3420   71.7160  224.5970 N   0  0  0  0  0  0  0  0  0  0  0  0
  134.2000   70.9360  225.8110 C   0  0  0  0  0  0  0  0  0  0  0  0
  133.6830   71.7240  226.9790 C   0  0  0  0  0  0  0  0  0  0  0  0
  132.9600   72.9260  226.5630 C   0  0  0  0  0  0  0  0  0  0  0  0
  132.5250   73.7850  227.5800 C   0  0  0  0  0  0  0  0  0  0  0  0
  131.8360   74.9420  227.3050 C   0  0  0  0  0  0  0  0  0  0  0  0
  131.5520   75.2950  226.0280 C   0  0  0  0  0  0  0  0  0  0  0  0
  131.9670   74.4650  224.9790 C   0  0  0  0  0  0  0  0  0  0  0  0
  132.6600   73.3040  225.2800 C   0  0  0  0  0  0  0  0  0  0  0  0
  133.1150   72.4050  224.1530 C   0  0  0  0  0  0  0  0  0  0  0  0
  136.6670   71.1650  224.1930 N   0  0  0  0  0  0  0  0  0  0  0  0
  137.8430   71.2920  223.5090 C   0  0  0  0  0  0  0  0  0  0  0  0
  138.9590   70.5360  223.9200 N   0  0  0  0  0  0  0  0  0  0  0  0
  139.0830   69.1160  223.9250 C   0  0  0  0  0  0  0  0  0  0  0  0
  139.5410   68.5720  225.2620 C   0  0  0  0  0  0  0  0  0  0  0  0
  140.1150   69.5850  226.1550 C   0  0  0  0  0  0  0  0  0  0  0  0
  140.3740   69.1890  227.4700 C   0  0  0  0  0  0  0  0  0  0  0  0
  140.9090   70.1030  228.3440 C   0  0  0  0  0  0  0  0  0  0  0  0
  141.2110   71.4040  228.0040 C   0  0  0  0  0  0  0  0  0  0  0  0
  140.9570   71.7950  226.7100 C   0  0  0  0  0  0  0  0  0  0  0  0
  140.4120   70.8770  225.8110 C   0  0  0  0  0  0  0  0  0  0  0  0
  140.1280   71.2960  224.4050 C   0  0  0  0  0  0  0  0  0  0  0  0
  139.8270   73.7140  223.1390 H   0  0  0  0  0  0  0  0  0  0  0  0
  140.9330   74.4692  220.6913 H   0  0  0  0  0  0  0  0  0  0  0  0
  141.9536   73.9744  222.1261 H   0  0  0  0  0  0  0  0  0  0  0  0
  141.8076   71.6440  221.2798 H   0  0  0  0  0  0  0  0  0  0  0  0
  141.1087   72.3286  219.7638 H   0  0  0  0  0  0  0  0  0  0  0  0
  143.7339   72.0432  220.5585 H   0  0  0  0  0  0  0  0  0  0  0  0
  143.1341   71.9122  218.1781 H   0  0  0  0  0  0  0  0  0  0  0  0
  142.3064   73.4743  218.1986 H   0  0  0  0  0  0  0  0  0  0  0  0
  144.8157   73.2612  217.2668 H   0  0  0  0  0  0  0  0  0  0  0  0
  144.3195   74.6936  218.2723 H   0  0  0  0  0  0  0  0  0  0  0  0
  146.4000   73.7370  218.8400 H   0  0  0  0  0  0  0  0  0  0  0  0
  145.6402   73.4509  221.3038 H   0  0  0  0  0  0  0  0  0  0  0  0
  145.6828   75.0187  220.4278 H   0  0  0  0  0  0  0  0  0  0  0  0
  143.4446   74.3159  221.6729 H   0  0  0  0  0  0  0  0  0  0  0  0
  143.3100   75.0028  220.0461 H   0  0  0  0  0  0  0  0  0  0  0  0
  136.6632   73.5717  221.2849 H   0  0  0  0  0  0  0  0  0  0  0  0
  133.5011   70.1100  225.6130 H   0  0  0  0  0  0  0  0  0  0  0  0
  135.2047   70.5805  226.0833 H   0  0  0  0  0  0  0  0  0  0  0  0
  133.0025   71.0863  227.5623 H   0  0  0  0  0  0  0  0  0  0  0  0
  134.5483   72.0430  227.5785 H   0  0  0  0  0  0  0  0  0  0  0  0
  132.7406   73.5267  228.6273 H   0  0  0  0  0  0  0  0  0  0  0  0
  131.5109   75.5899  228.1324 H   0  0  0  0  0  0  0  0  0  0  0  0
  131.0013   76.2237  225.8174 H   0  0  0  0  0  0  0  0  0  0  0  0
  131.7465   74.7304  223.9345 H   0  0  0  0  0  0  0  0  0  0  0  0
  132.3327   71.6665  223.9235 H   0  0  0  0  0  0  0  0  0  0  0  0
  133.3108   72.9942  223.2450 H   0  0  0  0  0  0  0  0  0  0  0  0
  138.1038   68.6768  223.6836 H   0  0  0  0  0  0  0  0  0  0  0  0
  139.8456   68.8473  223.1792 H   0  0  0  0  0  0  0  0  0  0  0  0
  138.6747   68.1182  225.7656 H   0  0  0  0  0  0  0  0  0  0  0  0
  140.3390   67.8445  225.0524 H   0  0  0  0  0  0  0  0  0  0  0  0
  140.1531   68.1629  227.7992 H   0  0  0  0  0  0  0  0  0  0  0  0
  141.1082   69.7778  229.3758 H   0  0  0  0  0  0  0  0  0  0  0  0
  141.6384   72.1023  228.7387 H   0  0  0  0  0  0  0  0  0  0  0  0
  141.1814   72.8221  226.3865 H   0  0  0  0  0  0  0  0  0  0  0  0
  139.9090   72.3736  224.3754 H   0  0  0  0  0  0  0  0  0  0  0  0
  141.0011   71.0950  223.7668 H   0  0  0  0  0  0  0  0  0  0  0  0
  1  2  2  0
  2  3  1  0
  3  4  1  0
  4  5  1  0
  5  6  1  0
  6  7  1  0
  7  8  1  0
  8  9  1  0
  9 10  1  0
 10 11  1  0
  2 12  1  0
 12 13  2  0
 13 14  1  0
 14 15  2  0
 15 16  1  0
 16 17  1  0
 17 18  1  0
 18 19  1  0
 19 20  2  0
 20 21  1  0
 21 22  2  0
 22 23  1  0
 23 24  2  0
 24 25  1  0
 15 26  1  0
 26 27  2  0
 27 28  1  0
 28 29  1  0
 29 30  1  0
 30 31  1  0
 31 32  2  0
 32 33  1  0
 33 34  2  0
 34 35  1  0
 35 36  2  0
 36 37  1  0
 11  6  1  0
 27 12  1  0
 37 28  1  0
 25 16  1  0
 36 31  1  0
 24 19  1  0
  3 38  1  0
  4 39  1  0
  4 40  1  0
  5 41  1  0
  5 42  1  0
  6 43  1  0
  7 44  1  0
  7 45  1  0
  8 46  1  0
  8 47  1  0
  9 48  1  0
 10 49  1  0
 10 50  1  0
 11 51  1  0
 11 52  1  0
 13 53  1  0
 17 54  1  0
 17 55  1  0
 18 56  1  0
 18 57  1  0
 20 58  1  0
 21 59  1  0
 22 60  1  0
 23 61  1  0
 25 62  1  0
 25 63  1  0
 29 64  1  0
 29 65  1  0
 30 66  1  0
 30 67  1  0
 32 68  1  0
 33 69  1  0
 34 70  1  0
 35 71  1  0
 37 72  1  0
 37 73  1  0
M  END
>  <smiles>  (5) 
O=C(NCCC1CCNCC1)c1cnc(N2CCc3ccccc3C2)nc1N1CCc2ccccc2C1

>  <score_type>  (5) 
oracle

>  <origin>  (5) 
autodockgpu

>  <m_score__min__energy>  (5) 
-10.130000000000001

>  <m_primary>  (5) 
energy

>  <rmsd>  (5) 
6.386580219581849

>  <m_score__min__rmsd>  (5) 
6.386580219581849

>  <meeko>  (5) 
{"free_energy": -9.49, "intermolecular_energy": -11.28, "internal_energy": -1.06, "cluster_size": 15, "cluster_id": 1, "rank_in_cluster": 10}

>  <energy>  (5) 
-9.69

>  <cluster_rmsd>  (5) 
1.35

>  <cluster>  (5) 
1

$$$$

     RDKit          3D

 73 78  0  0  0  0  0  0  0  0999 V2000
  140.6950   73.8010  222.1170 O   0  0  0  0  0  0  0  0  0  0  0  0
  139.9620   72.8340  221.8330 C   0  0  0  0  0  0  0  0  0  0  0  0
  140.4550   71.8630  220.9010 N   0  0  0  0  0  0  0  0  0  0  0  0
  141.7900   72.0120  220.2950 C   0  0  0  0  0  0  0  0  0  0  0  0
  141.7970   72.8280  219.0550 C   0  0  0  0  0  0  0  0  0  0  0  0
  142.2750   74.2150  219.3420 C   0  0  0  0  0  0  0  0  0  0  0  0
  143.2220   74.7130  218.2410 C   0  0  0  0  0  0  0  0  0  0  0  0
  143.3440   76.2200  218.4570 C   0  0  0  0  0  0  0  0  0  0  0  0
  143.2420   76.5870  219.8440 N   0  0  0  0  0  0  0  0  0  0  0  0
  141.8610   76.4070  220.2750 C   0  0  0  0  0  0  0  0  0  0  0  0
  141.2200   75.2580  219.4760 C   0  0  0  0  0  0  0  0  0  0  0  0
  138.6340   72.5920  222.3700 C   0  0  0  0  0  0  0  0  0  0  0  0
  137.6330   73.4680  221.9330 C   0  0  0  0  0  0  0  0  0  0  0  0
  136.3960   73.3360  222.3700 N   0  0  0  0  0  0  0  0  0  0  0  0
  136.0870   72.3530  223.2420 C   0  0  0  0  0  0  0  0  0  0  0  0
  134.7310   72.2930  223.6670 N   0  0  0  0  0  0  0  0  0  0  0  0
  134.1070   71.0850  224.1670 C   0  0  0  0  0  0  0  0  0  0  0  0
  133.5160   71.2330  225.5410 C   0  0  0  0  0  0  0  0  0  0  0  0
  133.2320   72.6280  225.8760 C   0  0  0  0  0  0  0  0  0  0  0  0
  132.7740   72.8850  227.1740 C   0  0  0  0  0  0  0  0  0  0  0  0
  132.4740   74.1580  227.5980 C   0  0  0  0  0  0  0  0  0  0  0  0
  132.6130   75.2190  226.7660 C   0  0  0  0  0  0  0  0  0  0  0  0
  133.0670   75.0080  225.4570 C   0  0  0  0  0  0  0  0  0  0  0  0
  133.3630   73.7170  225.0530 C   0  0  0  0  0  0  0  0  0  0  0  0
  133.8580   73.4820  223.6440 C   0  0  0  0  0  0  0  0  0  0  0  0
  137.0280   71.5190  223.6610 N   0  0  0  0  0  0  0  0  0  0  0  0
  138.3310   71.5900  223.2570 C   0  0  0  0  0  0  0  0  0  0  0  0
  139.2560   70.6540  223.7630 N   0  0  0  0  0  0  0  0  0  0  0  0
  139.1590   69.2320  223.7130 C   0  0  0  0  0  0  0  0  0  0  0  0
  139.3540   68.5830  225.0670 C   0  0  0  0  0  0  0  0  0  0  0  0
  139.9570   69.4660  226.0710 C   0  0  0  0  0  0  0  0  0  0  0  0
  139.9820   68.9950  227.3880 C   0  0  0  0  0  0  0  0  0  0  0  0
  140.5350   69.7850  228.3640 C   0  0  0  0  0  0  0  0  0  0  0  0
  141.0750   71.0320  228.1280 C   0  0  0  0  0  0  0  0  0  0  0  0
  141.0500   71.4970  226.8340 C   0  0  0  0  0  0  0  0  0  0  0  0
  140.4910   70.7040  225.8310 C   0  0  0  0  0  0  0  0  0  0  0  0
  140.4560   71.2050  224.4230 C   0  0  0  0  0  0  0  0  0  0  0  0
  139.8400   71.0340  220.6540 H   0  0  0  0  0  0  0  0  0  0  0  0
  142.4529   72.4921  221.0299 H   0  0  0  0  0  0  0  0  0  0  0  0
  142.1302   71.0035  220.0170 H   0  0  0  0  0  0  0  0  0  0  0  0
  142.4661   72.3601  218.3178 H   0  0  0  0  0  0  0  0  0  0  0  0
  140.7723   72.8804  218.6586 H   0  0  0  0  0  0  0  0  0  0  0  0
  142.7657   74.0995  220.3197 H   0  0  0  0  0  0  0  0  0  0  0  0
  144.2063   74.2306  218.3336 H   0  0  0  0  0  0  0  0  0  0  0  0
  142.8410   74.4746  217.2370 H   0  0  0  0  0  0  0  0  0  0  0  0
  144.3200   76.5534  218.0746 H   0  0  0  0  0  0  0  0  0  0  0  0
  142.5136   76.7031  217.9212 H   0  0  0  0  0  0  0  0  0  0  0  0
  143.4350   77.6070  219.8960 H   0  0  0  0  0  0  0  0  0  0  0  0
  141.8403   76.1639  221.3476 H   0  0  0  0  0  0  0  0  0  0  0  0
  141.2978   77.3352  220.0986 H   0  0  0  0  0  0  0  0  0  0  0  0
  140.3503   74.8553  220.0159 H   0  0  0  0  0  0  0  0  0  0  0  0
  140.8631   75.5997  218.4932 H   0  0  0  0  0  0  0  0  0  0  0  0
  137.8797   74.2701  221.2218 H   0  0  0  0  0  0  0  0  0  0  0  0
  133.3038   70.7964  223.4730 H   0  0  0  0  0  0  0  0  0  0  0  0
  134.8960   70.3218  224.2375 H   0  0  0  0  0  0  0  0  0  0  0  0
  132.5779   70.6604  225.5861 H   0  0  0  0  0  0  0  0  0  0  0  0
  134.2522   70.8560  226.2662 H   0  0  0  0  0  0  0  0  0  0  0  0
  132.6508   72.0453  227.8738 H   0  0  0  0  0  0  0  0  0  0  0  0
  132.1165   74.3175  228.6260 H   0  0  0  0  0  0  0  0  0  0  0  0
  132.3722   76.2342  227.1143 H   0  0  0  0  0  0  0  0  0  0  0  0
  133.1861   75.8529  224.7628 H   0  0  0  0  0  0  0  0  0  0  0  0
  133.0051   73.3074  222.9716 H   0  0  0  0  0  0  0  0  0  0  0  0
  134.4121   74.3595  223.2793 H   0  0  0  0  0  0  0  0  0  0  0  0
  138.1629   68.9607  223.3334 H   0  0  0  0  0  0  0  0  0  0  0  0
  139.9601   68.8682  223.0527 H   0  0  0  0  0  0  0  0  0  0  0  0
  138.3715   68.2568  225.4388 H   0  0  0  0  0  0  0  0  0  0  0  0
  140.0514   67.7450  224.9206 H   0  0  0  0  0  0  0  0  0  0  0  0
  139.5653   68.0079  227.6369 H   0  0  0  0  0  0  0  0  0  0  0  0
  140.5485   69.4014  229.3949 H   0  0  0  0  0  0  0  0  0  0  0  0
  141.5085   71.6309  228.9425 H   0  0  0  0  0  0  0  0  0  0  0  0
  141.4671   72.4856  226.5917 H   0  0  0  0  0  0  0  0  0  0  0  0
  140.4099   72.3040  224.4206 H   0  0  0  0  0  0  0  0  0  0  0  0
  141.3622   70.8881  223.8861 H   0  0  0  0  0  0  0  0  0  0  0  0
  1  2  2  0
  2  3  1  0
  3  4  1  0
  4  5  1  0
  5  6  1  0
  6  7  1  0
  7  8  1  0
  8  9  1  0
  9 10  1  0
 10 11  1  0
  2 12  1  0
 12 13  2  0
 13 14  1  0
 14 15  2  0
 15 16  1  0
 16 17  1  0
 17 18  1  0
 18 19  1  0
 19 20  2  0
 20 21  1  0
 21 22  2  0
 22 23  1  0
 23 24  2  0
 24 25  1  0
 15 26  1  0
 26 27  2  0
 27 28  1  0
 28 29  1  0
 29 30  1  0
 30 31  1  0
 31 32  2  0
 32 33  1  0
 33 34  2  0
 34 35  1  0
 35 36  2  0
 36 37  1  0
 11  6  1  0
 27 12  1  0
 37 28  1  0
 25 16  1  0
 36 31  1  0
 24 19  1  0
  3 38  1  0
  4 39  1  0
  4 40  1  0
  5 41  1  0
  5 42  1  0
  6 43  1  0
  7 44  1  0
  7 45  1  0
  8 46  1  0
  8 47  1  0
  9 48  1  0
 10 49  1  0
 10 50  1  0
 11 51  1  0
 11 52  1  0
 13 53  1  0
 17 54  1  0
 17 55  1  0
 18 56  1  0
 18 57  1  0
 20 58  1  0
 21 59  1  0
 22 60  1  0
 23 61  1  0
 25 62  1  0
 25 63  1  0
 29 64  1  0
 29 65  1  0
 30 66  1  0
 30 67  1  0
 32 68  1  0
 33 69  1  0
 34 70  1  0
 35 71  1  0
 37 72  1  0
 37 73  1  0
M  END
>  <smiles>  (6) 
O=C(NCCC1CCNCC1)c1cnc(N2CCc3ccccc3C2)nc1N1CCc2ccccc2C1

>  <score_type>  (6) 
oracle

>  <origin>  (6) 
autodockgpu

>  <m_score__min__energy>  (6) 
-10.130000000000001

>  <m_primary>  (6) 
energy

>  <rmsd>  (6) 
5.6649751429393

>  <m_score__min__rmsd>  (6) 
5.6649751429393

>  <meeko>  (6) 
{"free_energy": -9.03, "intermolecular_energy": -10.82, "internal_energy": -1.36, "cluster_size": 15, "cluster_id": 1, "rank_in_cluster": 15}

>  <energy>  (6) 
-9.66

>  <cluster_rmsd>  (6) 
0.76

>  <cluster>  (6) 
1

$$$$

     RDKit          3D

 73 78  0  0  0  0  0  0  0  0999 V2000
  140.6640   73.6220  222.2900 O   0  0  0  0  0  0  0  0  0  0  0  0
  139.7540   72.9720  221.7390 C   0  0  0  0  0  0  0  0  0  0  0  0
  139.9870   72.4690  220.4180 N   0  0  0  0  0  0  0  0  0  0  0  0
  141.2680   72.7180  219.7320 C   0  0  0  0  0  0  0  0  0  0  0  0
  142.3350   71.7500  220.0880 C   0  0  0  0  0  0  0  0  0  0  0  0
  143.6830   72.3210  219.7890 C   0  0  0  0  0  0  0  0  0  0  0  0
  143.8730   72.5300  218.2800 C   0  0  0  0  0  0  0  0  0  0  0  0
  145.1030   73.4260  218.1420 C   0  0  0  0  0  0  0  0  0  0  0  0
  146.0660   73.2040  219.1880 N   0  0  0  0  0  0  0  0  0  0  0  0
  145.5330   73.7390  220.4350 C   0  0  0  0  0  0  0  0  0  0  0  0
  143.9980   73.6300  220.4250 C   0  0  0  0  0  0  0  0  0  0  0  0
  138.4580   72.6700  222.3230 C   0  0  0  0  0  0  0  0  0  0  0  0
  137.3960   73.4720  221.8910 C   0  0  0  0  0  0  0  0  0  0  0  0
  136.1810   73.2810  222.3690 N   0  0  0  0  0  0  0  0  0  0  0  0
  135.9560   72.3100  223.2780 C   0  0  0  0  0  0  0  0  0  0  0  0
  134.6190   72.1840  223.7460 N   0  0  0  0  0  0  0  0  0  0  0  0
  134.0930   70.9690  224.3350 C   0  0  0  0  0  0  0  0  0  0  0  0
  133.5280   71.1610  225.7140 C   0  0  0  0  0  0  0  0  0  0  0  0
  133.1560   72.5510  225.9740 C   0  0  0  0  0  0  0  0  0  0  0  0
  132.7140   72.8550  227.2680 C   0  0  0  0  0  0  0  0  0  0  0  0
  132.3370   74.1280  227.6240 C   0  0  0  0  0  0  0  0  0  0  0  0
  132.3820   75.1430  226.7270 C   0  0  0  0  0  0  0  0  0  0  0  0
  132.8160   74.8840  225.4200 C   0  0  0  0  0  0  0  0  0  0  0  0
  133.1910   73.5940  225.0850 C   0  0  0  0  0  0  0  0  0  0  0  0
  133.6650   73.3070  223.6780 C   0  0  0  0  0  0  0  0  0  0  0  0
  136.9560   71.5460  223.6930 N   0  0  0  0  0  0  0  0  0  0  0  0
  138.2410   71.6790  223.2480 C   0  0  0  0  0  0  0  0  0  0  0  0
  139.2340   70.8150  223.7530 N   0  0  0  0  0  0  0  0  0  0  0  0
  139.2350   69.3900  223.7160 C   0  0  0  0  0  0  0  0  0  0  0  0
  139.4880   68.7690  225.0740 C   0  0  0  0  0  0  0  0  0  0  0  0
  140.0380   69.7020  226.0650 C   0  0  0  0  0  0  0  0  0  0  0  0
  140.1090   69.2460  227.3850 C   0  0  0  0  0  0  0  0  0  0  0  0
  140.6150   70.0830  228.3480 C   0  0  0  0  0  0  0  0  0  0  0  0
  141.0640   71.3620  228.0950 C   0  0  0  0  0  0  0  0  0  0  0  0
  140.9940   71.8110  226.7970 C   0  0  0  0  0  0  0  0  0  0  0  0
  140.4820   70.9710  225.8070 C   0  0  0  0  0  0  0  0  0  0  0  0
  140.3990   71.4550  224.3950 C   0  0  0  0  0  0  0  0  0  0  0  0
  139.2200   71.9120  219.9410 H   0  0  0  0  0  0  0  0  0  0  0  0
  141.0970   72.6624  218.6468 H   0  0  0  0  0  0  0  0  0  0  0  0
  141.6158   73.7111  220.0525 H   0  0  0  0  0  0  0  0  0  0  0  0
  142.2701   71.5188  221.1615 H   0  0  0  0  0  0  0  0  0  0  0  0
  142.1971   70.8350  219.4932 H   0  0  0  0  0  0  0  0  0  0  0  0
  144.3599   71.5651  220.2137 H   0  0  0  0  0  0  0  0  0  0  0  0
  144.0413   71.5664  217.7769 H   0  0  0  0  0  0  0  0  0  0  0  0
  142.9845   72.9835  217.8164 H   0  0  0  0  0  0  0  0  0  0  0  0
  145.5814   73.2217  217.1728 H   0  0  0  0  0  0  0  0  0  0  0  0
  144.7657   74.4705  218.2141 H   0  0  0  0  0  0  0  0  0  0  0  0
  146.8970   73.7810  218.9520 H   0  0  0  0  0  0  0  0  0  0  0  0
  145.9359   73.1648  221.2823 H   0  0  0  0  0  0  0  0  0  0  0  0
  145.8251   74.7947  220.5357 H   0  0  0  0  0  0  0  0  0  0  0  0
  143.6061   73.6598  221.4524 H   0  0  0  0  0  0  0  0  0  0  0  0
  143.5386   74.4653  219.8761 H   0  0  0  0  0  0  0  0  0  0  0  0
  137.5747   74.2650  221.1499 H   0  0  0  0  0  0  0  0  0  0  0  0
  133.2947   70.5846  223.6832 H   0  0  0  0  0  0  0  0  0  0  0  0
  134.9344   70.2665  224.4276 H   0  0  0  0  0  0  0  0  0  0  0  0
  132.6335   70.5298  225.8206 H   0  0  0  0  0  0  0  0  0  0  0  0
  134.3069   70.8806  226.4383 H   0  0  0  0  0  0  0  0  0  0  0  0
  132.6673   72.0532  228.0197 H   0  0  0  0  0  0  0  0  0  0  0  0
  131.9943   74.3255  228.6504 H   0  0  0  0  0  0  0  0  0  0  0  0
  132.0811   76.1592  227.0218 H   0  0  0  0  0  0  0  0  0  0  0  0
  132.8580   75.6910  224.6737 H   0  0  0  0  0  0  0  0  0  0  0  0
  132.8094   73.0337  223.0429 H   0  0  0  0  0  0  0  0  0  0  0  0
  134.1469   74.1960  223.2451 H   0  0  0  0  0  0  0  0  0  0  0  0
  138.2563   69.0470  223.3493 H   0  0  0  0  0  0  0  0  0  0  0  0
  140.0524   69.0760  223.0502 H   0  0  0  0  0  0  0  0  0  0  0  0
  138.5343   68.3786  225.4587 H   0  0  0  0  0  0  0  0  0  0  0  0
  140.2409   67.9805  224.9277 H   0  0  0  0  0  0  0  0  0  0  0  0
  139.7654   68.2344  227.6470 H   0  0  0  0  0  0  0  0  0  0  0  0
  140.6653   69.7117  229.3822 H   0  0  0  0  0  0  0  0  0  0  0  0
  141.4623   71.9979  228.8994 H   0  0  0  0  0  0  0  0  0  0  0  0
  141.3387   72.8238  226.5412 H   0  0  0  0  0  0  0  0  0  0  0  0
  140.2763   72.5481  224.3832 H   0  0  0  0  0  0  0  0  0  0  0  0
  141.3200   71.1975  223.8515 H   0  0  0  0  0  0  0  0  0  0  0  0
  1  2  2  0
  2  3  1  0
  3  4  1  0
  4  5  1  0
  5  6  1  0
  6  7  1  0
  7  8  1  0
  8  9  1  0
  9 10  1  0
 10 11  1  0
  2 12  1  0
 12 13  2  0
 13 14  1  0
 14 15  2  0
 15 16  1  0
 16 17  1  0
 17 18  1  0
 18 19  1  0
 19 20  2  0
 20 21  1  0
 21 22  2  0
 22 23  1  0
 23 24  2  0
 24 25  1  0
 15 26  1  0
 26 27  2  0
 27 28  1  0
 28 29  1  0
 29 30  1  0
 30 31  1  0
 31 32  2  0
 32 33  1  0
 33 34  2  0
 34 35  1  0
 35 36  2  0
 36 37  1  0
 11  6  1  0
 27 12  1  0
 37 28  1  0
 25 16  1  0
 36 31  1  0
 24 19  1  0
  3 38  1  0
  4 39  1  0
  4 40  1  0
  5 41  1  0
  5 42  1  0
  6 43  1  0
  7 44  1  0
  7 45  1  0
  8 46  1  0
  8 47  1  0
  9 48  1  0
 10 49  1  0
 10 50  1  0
 11 51  1  0
 11 52  1  0
 13 53  1  0
 17 54  1  0
 17 55  1  0
 18 56  1  0
 18 57  1  0
 20 58  1  0
 21 59  1  0
 22 60  1  0
 23 61  1  0
 25 62  1  0
 25 63  1  0
 29 64  1  0
 29 65  1  0
 30 66  1  0
 30 67  1  0
 32 68  1  0
 33 69  1  0
 34 70  1  0
 35 71  1  0
 37 72  1  0
 37 73  1  0
M  END
>  <smiles>  (7) 
O=C(NCCC1CCNCC1)c1cnc(N2CCc3ccccc3C2)nc1N1CCc2ccccc2C1

>  <score_type>  (7) 
oracle

>  <origin>  (7) 
autodockgpu

>  <m_score__min__energy>  (7) 
-10.130000000000001

>  <m_primary>  (7) 
energy

>  <rmsd>  (7) 
6.574045184309505

>  <m_score__min__rmsd>  (7) 
6.574045184309505

>  <meeko>  (7) 
{"free_energy": -9.98, "intermolecular_energy": -11.77, "internal_energy": -1.25, "cluster_size": 15, "cluster_id": 1, "rank_in_cluster": 2}

>  <energy>  (7) 
-9.58

>  <cluster_rmsd>  (7) 
0.62

>  <cluster>  (7) 
1

$$$$

     RDKit          3D

 73 78  0  0  0  0  0  0  0  0999 V2000
  135.9470   73.0450  221.0110 O   0  0  0  0  0  0  0  0  0  0  0  0
  136.6850   73.2550  221.9930 C   0  0  0  0  0  0  0  0  0  0  0  0
  136.3330   72.6520  223.2440 N   0  0  0  0  0  0  0  0  0  0  0  0
  135.1300   71.8080  223.3620 C   0  0  0  0  0  0  0  0  0  0  0  0
  135.0700   71.0230  224.6200 C   0  0  0  0  0  0  0  0  0  0  0  0
  134.3230   71.7750  225.6730 C   0  0  0  0  0  0  0  0  0  0  0  0
  134.3260   73.2830  225.3830 C   0  0  0  0  0  0  0  0  0  0  0  0
  133.2590   73.8780  226.3000 C   0  0  0  0  0  0  0  0  0  0  0  0
  133.1380   73.1610  227.5420 N   0  0  0  0  0  0  0  0  0  0  0  0
  132.5150   71.8700  227.2770 C   0  0  0  0  0  0  0  0  0  0  0  0
  132.8950   71.3990  225.8620 C   0  0  0  0  0  0  0  0  0  0  0  0
  137.8890   74.0680  221.9880 C   0  0  0  0  0  0  0  0  0  0  0  0
  137.6970   75.4380  221.7790 C   0  0  0  0  0  0  0  0  0  0  0  0
  138.7300   76.2580  221.7490 N   0  0  0  0  0  0  0  0  0  0  0  0
  139.9800   75.7790  221.9200 C   0  0  0  0  0  0  0  0  0  0  0  0
  141.0330   76.7330  221.8620 N   0  0  0  0  0  0  0  0  0  0  0  0
  141.7620   77.0410  220.6470 C   0  0  0  0  0  0  0  0  0  0  0  0
  141.7290   78.4950  220.2740 C   0  0  0  0  0  0  0  0  0  0  0  0
  141.4340   79.3570  221.4190 C   0  0  0  0  0  0  0  0  0  0  0  0
  141.2790   80.7240  221.1570 C   0  0  0  0  0  0  0  0  0  0  0  0
  141.0010   81.6260  222.1570 C   0  0  0  0  0  0  0  0  0  0  0  0
  140.8660   81.2190  223.4430 C   0  0  0  0  0  0  0  0  0  0  0  0
  141.0130   79.8600  223.7500 C   0  0  0  0  0  0  0  0  0  0  0  0
  141.2930   78.9700  222.7260 C   0  0  0  0  0  0  0  0  0  0  0  0
  141.4500   77.5010  223.0500 C   0  0  0  0  0  0  0  0  0  0  0  0
  140.1720   74.4820  222.1180 N   0  0  0  0  0  0  0  0  0  0  0  0
  139.1560   73.5690  222.1620 C   0  0  0  0  0  0  0  0  0  0  0  0
  139.4660   72.2110  222.3790 N   0  0  0  0  0  0  0  0  0  0  0  0
  138.7270   71.0770  221.9340 C   0  0  0  0  0  0  0  0  0  0  0  0
  138.4210   70.1010  223.0500 C   0  0  0  0  0  0  0  0  0  0  0  0
  139.2310   70.3010  224.2570 C   0  0  0  0  0  0  0  0  0  0  0  0
  138.8640   69.5660  225.3890 C   0  0  0  0  0  0  0  0  0  0  0  0
  139.5900   69.7200  226.5440 C   0  0  0  0  0  0  0  0  0  0  0  0
  140.6720   70.5660  226.6620 C   0  0  0  0  0  0  0  0  0  0  0  0
  141.0340   71.2900  225.5500 C   0  0  0  0  0  0  0  0  0  0  0  0
  140.3040   71.1430  224.3690 C   0  0  0  0  0  0  0  0  0  0  0  0
  140.6890   71.9310  223.1580 C   0  0  0  0  0  0  0  0  0  0  0  0
  136.9560   72.8220  224.0860 H   0  0  0  0  0  0  0  0  0  0  0  0
  134.2442   72.4585  223.3166 H   0  0  0  0  0  0  0  0  0  0  0  0
  135.1639   71.0844  222.5342 H   0  0  0  0  0  0  0  0  0  0  0  0
  134.5593   70.0682  224.4265 H   0  0  0  0  0  0  0  0  0  0  0  0
  136.0954   70.8407  224.9739 H   0  0  0  0  0  0  0  0  0  0  0  0
  134.8692   71.5049  226.5888 H   0  0  0  0  0  0  0  0  0  0  0  0
  135.3117   73.7158  225.6090 H   0  0  0  0  0  0  0  0  0  0  0  0
  134.1177   73.4949  224.3239 H   0  0  0  0  0  0  0  0  0  0  0  0
  133.5253   74.9223  226.5200 H   0  0  0  0  0  0  0  0  0  0  0  0
  132.2931   73.8084  225.7783 H   0  0  0  0  0  0  0  0  0  0  0  0
  132.4670   73.6950  228.1280 H   0  0  0  0  0  0  0  0  0  0  0  0
  132.8668   71.1344  228.0153 H   0  0  0  0  0  0  0  0  0  0  0  0
  131.4218   71.9680  227.3500 H   0  0  0  0  0  0  0  0  0  0  0  0
  132.7723   70.3092  225.7763 H   0  0  0  0  0  0  0  0  0  0  0  0
  132.2526   71.8610  225.0979 H   0  0  0  0  0  0  0  0  0  0  0  0
  136.6800   75.8332  221.6391 H   0  0  0  0  0  0  0  0  0  0  0  0
  142.8114   76.7423  220.7868 H   0  0  0  0  0  0  0  0  0  0  0  0
  141.2730   76.4891  219.8307 H   0  0  0  0  0  0  0  0  0  0  0  0
  142.7096   78.7768  219.8628 H   0  0  0  0  0  0  0  0  0  0  0  0
  140.9272   78.6337  219.5338 H   0  0  0  0  0  0  0  0  0  0  0  0
  141.3824   81.0859  220.1234 H   0  0  0  0  0  0  0  0  0  0  0  0
  140.8867   82.6918  221.9102 H   0  0  0  0  0  0  0  0  0  0  0  0
  140.6435   81.9476  224.2365 H   0  0  0  0  0  0  0  0  0  0  0  0
  140.9079   79.5058  224.7861 H   0  0  0  0  0  0  0  0  0  0  0  0
  142.5008   77.2802  223.2890 H   0  0  0  0  0  0  0  0  0  0  0  0
  140.8335   77.2302  223.9199 H   0  0  0  0  0  0  0  0  0  0  0  0
  137.7775   71.4243  221.5007 H   0  0  0  0  0  0  0  0  0  0  0  0
  139.3451   70.5492  221.1928 H   0  0  0  0  0  0  0  0  0  0  0  0
  137.3609   70.2092  223.3231 H   0  0  0  0  0  0  0  0  0  0  0  0
  138.6602   69.0971  222.6691 H   0  0  0  0  0  0  0  0  0  0  0  0
  138.0080   68.8761  225.3544 H   0  0  0  0  0  0  0  0  0  0  0  0
  139.2911   69.1346  227.4261 H   0  0  0  0  0  0  0  0  0  0  0  0
  141.2244   70.6585  227.6087 H   0  0  0  0  0  0  0  0  0  0  0  0
  141.8909   71.9786  225.5908 H   0  0  0  0  0  0  0  0  0  0  0  0
  141.1599   72.8769  223.4639 H   0  0  0  0  0  0  0  0  0  0  0  0
  141.4053   71.3618  222.5474 H   0  0  0  0  0  0  0  0  0  0  0  0
  1  2  2  0
  2  3  1  0
  3  4  1  0
  4  5  1  0
  5  6  1  0
  6  7  1  0
  7  8  1  0
  8  9  1  0
  9 10  1  0
 10 11  1  0
  2 12  1  0
 12 13  2  0
 13 14  1  0
 14 15  2  0
 15 16  1  0
 16 17  1  0
 17 18  1  0
 18 19  1  0
 19 20  2  0
 20 21  1  0
 21 22  2  0
 22 23  1  0
 23 24  2  0
 24 25  1  0
 15 26  1  0
 26 27  2  0
 27 28  1  0
 28 29  1  0
 29 30  1  0
 30 31  1  0
 31 32  2  0
 32 33  1  0
 33 34  2  0
 34 35  1  0
 35 36  2  0
 36 37  1  0
 11  6  1  0
 27 12  1  0
 37 28  1  0
 25 16  1  0
 36 31  1  0
 24 19  1  0
  3 38  1  0
  4 39  1  0
  4 40  1  0
  5 41  1  0
  5 42  1  0
  6 43  1  0
  7 44  1  0
  7 45  1  0
  8 46  1  0
  8 47  1  0
  9 48  1  0
 10 49  1  0
 10 50  1  0
 11 51  1  0
 11 52  1  0
 13 53  1  0
 17 54  1  0
 17 55  1  0
 18 56  1  0
 18 57  1  0
 20 58  1  0
 21 59  1  0
 22 60  1  0
 23 61  1  0
 25 62  1  0
 25 63  1  0
 29 64  1  0
 29 65  1  0
 30 66  1  0
 30 67  1  0
 32 68  1  0
 33 69  1  0
 34 70  1  0
 35 71  1  0
 37 72  1  0
 37 73  1  0
M  END
>  <smiles>  (8) 
O=C(NCCC1CCNCC1)c1cnc(N2CCc3ccccc3C2)nc1N1CCc2ccccc2C1

>  <score_type>  (8) 
oracle

>  <origin>  (8) 
autodockgpu

>  <m_score__min__energy>  (8) 
-10.130000000000001

>  <m_primary>  (8) 
energy

>  <rmsd>  (8) 
9.039686649042597

>  <m_score__min__rmsd>  (8) 
9.039686649042597

>  <meeko>  (8) 
{"free_energy": -10.07, "intermolecular_energy": -11.86, "internal_energy": -1.49, "cluster_size": 30, "cluster_id": 2, "rank_in_cluster": 1}

>  <energy>  (8) 
-9.54

>  <cluster_rmsd>  (8) 
0.54

>  <cluster>  (8) 
1

$$$$

     RDKit          3D

 73 78  0  0  0  0  0  0  0  0999 V2000
  136.1360   71.0420  221.8260 O   0  0  0  0  0  0  0  0  0  0  0  0
  136.6430   71.8610  222.6170 C   0  0  0  0  0  0  0  0  0  0  0  0
  136.2670   71.7880  223.9980 N   0  0  0  0  0  0  0  0  0  0  0  0
  135.3060   70.7720  224.4640 C   0  0  0  0  0  0  0  0  0  0  0  0
  133.8860   71.1790  224.3180 C   0  0  0  0  0  0  0  0  0  0  0  0
  133.4570   72.0150  225.4800 C   0  0  0  0  0  0  0  0  0  0  0  0
  133.8020   73.4930  225.2570 C   0  0  0  0  0  0  0  0  0  0  0  0
  133.0120   74.2630  226.3130 C   0  0  0  0  0  0  0  0  0  0  0  0
  132.8420   73.5120  227.5290 N   0  0  0  0  0  0  0  0  0  0  0  0
  131.8970   72.4300  227.2810 C   0  0  0  0  0  0  0  0  0  0  0  0
  132.0050   71.9800  225.8130 C   0  0  0  0  0  0  0  0  0  0  0  0
  137.5960   72.8990  222.2650 C   0  0  0  0  0  0  0  0  0  0  0  0
  137.0460   74.0850  221.7670 C   0  0  0  0  0  0  0  0  0  0  0  0
  137.8300   75.0850  221.4110 N   0  0  0  0  0  0  0  0  0  0  0  0
  139.1690   74.9680  221.5260 C   0  0  0  0  0  0  0  0  0  0  0  0
  139.9360   76.0910  221.1090 N   0  0  0  0  0  0  0  0  0  0  0  0
  139.5520   76.9530  220.0090 C   0  0  0  0  0  0  0  0  0  0  0  0
  139.4330   78.4010  220.3890 C   0  0  0  0  0  0  0  0  0  0  0  0
  140.1950   78.7240  221.5950 C   0  0  0  0  0  0  0  0  0  0  0  0
  140.0680   80.0270  222.0920 C   0  0  0  0  0  0  0  0  0  0  0  0
  140.7390   80.4420  223.2180 C   0  0  0  0  0  0  0  0  0  0  0  0
  141.5540   79.5950  223.8930 C   0  0  0  0  0  0  0  0  0  0  0  0
  141.7130   78.2820  223.4300 C   0  0  0  0  0  0  0  0  0  0  0  0
  141.0260   77.8870  222.2930 C   0  0  0  0  0  0  0  0  0  0  0  0
  141.1880   76.4710  221.7900 C   0  0  0  0  0  0  0  0  0  0  0  0
  139.7000   73.8480  221.9970 N   0  0  0  0  0  0  0  0  0  0  0  0
  138.9570   72.7690  222.3860 C   0  0  0  0  0  0  0  0  0  0  0  0
  139.6180   71.6240  222.8740 N   0  0  0  0  0  0  0  0  0  0  0  0
  139.3780   70.2680  222.5050 C   0  0  0  0  0  0  0  0  0  0  0  0
  139.1590   69.3650  223.7010 C   0  0  0  0  0  0  0  0  0  0  0  0
  139.5900   69.9480  224.9770 C   0  0  0  0  0  0  0  0  0  0  0  0
  139.2370   69.2510  226.1370 C   0  0  0  0  0  0  0  0  0  0  0  0
  139.6160   69.7580  227.3550 C   0  0  0  0  0  0  0  0  0  0  0  0
  140.3320   70.9250  227.5110 C   0  0  0  0  0  0  0  0  0  0  0  0
  140.6810   71.6110  226.3710 C   0  0  0  0  0  0  0  0  0  0  0  0
  140.3010   71.1080  225.1260 C   0  0  0  0  0  0  0  0  0  0  0  0
  140.6720   71.8510  223.8830 C   0  0  0  0  0  0  0  0  0  0  0  0
  136.6940   72.4780  224.6810 H   0  0  0  0  0  0  0  0  0  0  0  0
  135.4646   69.8520  223.8823 H   0  0  0  0  0  0  0  0  0  0  0  0
  135.4889   70.6272  225.5390 H   0  0  0  0  0  0  0  0  0  0  0  0
  133.7699   71.7607  223.3916 H   0  0  0  0  0  0  0  0  0  0  0  0
  133.2599   70.2754  224.2805 H   0  0  0  0  0  0  0  0  0  0  0  0
  134.0094   71.5604  226.3156 H   0  0  0  0  0  0  0  0  0  0  0  0
  134.8814   73.6593  225.3880 H   0  0  0  0  0  0  0  0  0  0  0  0
  133.5473   73.8212  224.2385 H   0  0  0  0  0  0  0  0  0  0  0  0
  133.5486   75.1946  226.5456 H   0  0  0  0  0  0  0  0  0  0  0  0
  132.0120   74.4649  225.9017 H   0  0  0  0  0  0  0  0  0  0  0  0
  132.3850   74.1500  228.2100 H   0  0  0  0  0  0  0  0  0  0  0  0
  132.1288   71.5821  227.9423 H   0  0  0  0  0  0  0  0  0  0  0  0
  130.8747   72.7831  227.4817 H   0  0  0  0  0  0  0  0  0  0  0  0
  131.6102   70.9600  225.6956 H   0  0  0  0  0  0  0  0  0  0  0  0
  131.4224   72.6332  225.1468 H   0  0  0  0  0  0  0  0  0  0  0  0
  135.9547   74.1845  221.6717 H   0  0  0  0  0  0  0  0  0  0  0  0
  140.3097   76.8632  219.2167 H   0  0  0  0  0  0  0  0  0  0  0  0
  138.5559   76.6252  219.6767 H   0  0  0  0  0  0  0  0  0  0  0  0
  139.8084   79.0165  219.5582 H   0  0  0  0  0  0  0  0  0  0  0  0
  138.3727   78.6080  220.5960 H   0  0  0  0  0  0  0  0  0  0  0  0
  139.4133   80.7382  221.5670 H   0  0  0  0  0  0  0  0  0  0  0  0
  140.6128   81.4746  223.5756 H   0  0  0  0  0  0  0  0  0  0  0  0
  142.0849   79.9347  224.7946 H   0  0  0  0  0  0  0  0  0  0  0  0
  142.3713   77.5775  223.9595 H   0  0  0  0  0  0  0  0  0  0  0  0
  142.0296   76.4183  221.0836 H   0  0  0  0  0  0  0  0  0  0  0  0
  141.3950   75.7865  222.6259 H   0  0  0  0  0  0  0  0  0  0  0  0
  138.4825   70.2304  221.8674 H   0  0  0  0  0  0  0  0  0  0  0  0
  140.2713   69.9056  221.9752 H   0  0  0  0  0  0  0  0  0  0  0  0
  138.0851   69.1372  223.7702 H   0  0  0  0  0  0  0  0  0  0  0  0
  139.7733   68.4671  223.5381 H   0  0  0  0  0  0  0  0  0  0  0  0
  138.6657   68.3131  226.0744 H   0  0  0  0  0  0  0  0  0  0  0  0
  139.3315   69.2001  228.2594 H   0  0  0  0  0  0  0  0  0  0  0  0
  140.6135   71.2936  228.5084 H   0  0  0  0  0  0  0  0  0  0  0  0
  141.2542   72.5473  226.4400 H   0  0  0  0  0  0  0  0  0  0  0  0
  140.7515   72.9260  224.1022 H   0  0  0  0  0  0  0  0  0  0  0  0
  141.6415   71.4951  223.5043 H   0  0  0  0  0  0  0  0  0  0  0  0
  1  2  2  0
  2  3  1  0
  3  4  1  0
  4  5  1  0
  5  6  1  0
  6  7  1  0
  7  8  1  0
  8  9  1  0
  9 10  1  0
 10 11  1  0
  2 12  1  0
 12 13  2  0
 13 14  1  0
 14 15  2  0
 15 16  1  0
 16 17  1  0
 17 18  1  0
 18 19  1  0
 19 20  2  0
 20 21  1  0
 21 22  2  0
 22 23  1  0
 23 24  2  0
 24 25  1  0
 15 26  1  0
 26 27  2  0
 27 28  1  0
 28 29  1  0
 29 30  1  0
 30 31  1  0
 31 32  2  0
 32 33  1  0
 33 34  2  0
 34 35  1  0
 35 36  2  0
 36 37  1  0
 11  6  1  0
 27 12  1  0
 37 28  1  0
 25 16  1  0
 36 31  1  0
 24 19  1  0
  3 38  1  0
  4 39  1  0
  4 40  1  0
  5 41  1  0
  5 42  1  0
  6 43  1  0
  7 44  1  0
  7 45  1  0
  8 46  1  0
  8 47  1  0
  9 48  1  0
 10 49  1  0
 10 50  1  0
 11 51  1  0
 11 52  1  0
 13 53  1  0
 17 54  1  0
 17 55  1  0
 18 56  1  0
 18 57  1  0
 20 58  1  0
 21 59  1  0
 22 60  1  0
 23 61  1  0
 25 62  1  0
 25 63  1  0
 29 64  1  0
 29 65  1  0
 30 66  1  0
 30 67  1  0
 32 68  1  0
 33 69  1  0
 34 70  1  0
 35 71  1  0
 37 72  1  0
 37 73  1  0
M  END
>  <smiles>  (9) 
O=C(NCCC1CCNCC1)c1cnc(N2CCc3ccccc3C2)nc1N1CCc2ccccc2C1

>  <score_type>  (9) 
oracle

>  <origin>  (9) 
autodockgpu

>  <m_score__min__energy>  (9) 
-10.130000000000001

>  <m_primary>  (9) 
energy

>  <rmsd>  (9) 
9.520967841730048

>  <m_score__min__rmsd>  (9) 
9.520967841730048

>  <meeko>  (9) 
{"free_energy": -9.62, "intermolecular_energy": -11.41, "internal_energy": -1.53, "cluster_size": 30, "cluster_id": 2, "rank_in_cluster": 12}

>  <energy>  (9) 
-9.52

>  <cluster_rmsd>  (9) 
1.04

>  <cluster>  (9) 
1

$$$$

     RDKit          3D

 73 78  0  0  0  0  0  0  0  0999 V2000
  136.2930   72.7790  221.0540 O   0  0  0  0  0  0  0  0  0  0  0  0
  136.8130   73.3560  222.0290 C   0  0  0  0  0  0  0  0  0  0  0  0
  136.2050   73.1900  223.3160 N   0  0  0  0  0  0  0  0  0  0  0  0
  134.9960   72.3620  223.4760 C   0  0  0  0  0  0  0  0  0  0  0  0
  135.2750   70.9070  223.5730 C   0  0  0  0  0  0  0  0  0  0  0  0
  134.3190   70.2500  224.5140 C   0  0  0  0  0  0  0  0  0  0  0  0
  134.6940   68.7800  224.7480 C   0  0  0  0  0  0  0  0  0  0  0  0
  133.8850   68.3390  225.9660 C   0  0  0  0  0  0  0  0  0  0  0  0
  132.6150   69.0100  226.0560 N   0  0  0  0  0  0  0  0  0  0  0  0
  132.8460   70.4000  226.4270 C   0  0  0  0  0  0  0  0  0  0  0  0
  134.2040   70.8620  225.8680 C   0  0  0  0  0  0  0  0  0  0  0  0
  137.9990   74.1930  221.9820 C   0  0  0  0  0  0  0  0  0  0  0  0
  137.7700   75.5650  221.8330 C   0  0  0  0  0  0  0  0  0  0  0  0
  138.7840   76.4070  221.7710 N   0  0  0  0  0  0  0  0  0  0  0  0
  140.0500   75.9480  221.8530 C   0  0  0  0  0  0  0  0  0  0  0  0
  141.0800   76.9250  221.7670 N   0  0  0  0  0  0  0  0  0  0  0  0
  141.8400   77.1770  220.5580 C   0  0  0  0  0  0  0  0  0  0  0  0
  141.7820   78.6040  220.0940 C   0  0  0  0  0  0  0  0  0  0  0  0
  141.4280   79.5270  221.1730 C   0  0  0  0  0  0  0  0  0  0  0  0
  141.2470   80.8700  220.8210 C   0  0  0  0  0  0  0  0  0  0  0  0
  140.9150   81.8240  221.7530 C   0  0  0  0  0  0  0  0  0  0  0  0
  140.7480   81.4940  223.0570 C   0  0  0  0  0  0  0  0  0  0  0  0
  140.9200   80.1610  223.4540 C   0  0  0  0  0  0  0  0  0  0  0  0
  141.2550   79.2180  222.4970 C   0  0  0  0  0  0  0  0  0  0  0  0
  141.4390   77.7770  222.9170 C   0  0  0  0  0  0  0  0  0  0  0  0
  140.2780   74.6500  221.9950 N   0  0  0  0  0  0  0  0  0  0  0  0
  139.2840   73.7150  222.0660 C   0  0  0  0  0  0  0  0  0  0  0  0
  139.6310   72.3570  222.2170 N   0  0  0  0  0  0  0  0  0  0  0  0
  139.0710   71.2420  221.5280 C   0  0  0  0  0  0  0  0  0  0  0  0
  138.6120   70.1440  222.4640 C   0  0  0  0  0  0  0  0  0  0  0  0
  139.1480   70.2560  223.8250 C   0  0  0  0  0  0  0  0  0  0  0  0
  138.6100   69.3940  224.7850 C   0  0  0  0  0  0  0  0  0  0  0  0
  139.0780   69.4620  226.0740 C   0  0  0  0  0  0  0  0  0  0  0  0
  140.0580   70.3380  226.4890 C   0  0  0  0  0  0  0  0  0  0  0  0
  140.5870   71.1880  225.5460 C   0  0  0  0  0  0  0  0  0  0  0  0
  140.1210   71.1300  224.2320 C   0  0  0  0  0  0  0  0  0  0  0  0
  140.6880   72.0540  223.2030 C   0  0  0  0  0  0  0  0  0  0  0  0
  136.6410   73.6740  224.1530 H   0  0  0  0  0  0  0  0  0  0  0  0
  134.4783   72.6778  224.3937 H   0  0  0  0  0  0  0  0  0  0  0  0
  134.3836   72.5115  222.5745 H   0  0  0  0  0  0  0  0  0  0  0  0
  135.1720   70.4520  222.5768 H   0  0  0  0  0  0  0  0  0  0  0  0
  136.2982   70.7666  223.9515 H   0  0  0  0  0  0  0  0  0  0  0  0
  133.3552   70.3779  223.9994 H   0  0  0  0  0  0  0  0  0  0  0  0
  134.4294   68.1718  223.8705 H   0  0  0  0  0  0  0  0  0  0  0  0
  135.7749   68.6565  224.9107 H   0  0  0  0  0  0  0  0  0  0  0  0
  133.7076   67.2555  225.8983 H   0  0  0  0  0  0  0  0  0  0  0  0
  134.4646   68.5983  226.8642 H   0  0  0  0  0  0  0  0  0  0  0  0
  132.1060   68.5750  226.8500 H   0  0  0  0  0  0  0  0  0  0  0  0
  132.0451   71.0285  226.0104 H   0  0  0  0  0  0  0  0  0  0  0  0
  132.8509   70.4907  227.5232 H   0  0  0  0  0  0  0  0  0  0  0  0
  134.2345   71.9592  225.7956 H   0  0  0  0  0  0  0  0  0  0  0  0
  135.0344   70.5557  226.5211 H   0  0  0  0  0  0  0  0  0  0  0  0
  136.7394   75.9438  221.7672 H   0  0  0  0  0  0  0  0  0  0  0  0
  142.8916   76.9164  220.7484 H   0  0  0  0  0  0  0  0  0  0  0  0
  141.3921   76.5625  219.7632 H   0  0  0  0  0  0  0  0  0  0  0  0
  142.7679   78.8866  219.6965 H   0  0  0  0  0  0  0  0  0  0  0  0
  141.0012   78.6745  219.3223 H   0  0  0  0  0  0  0  0  0  0  0  0
  141.3739   81.1697  219.7702 H   0  0  0  0  0  0  0  0  0  0  0  0
  140.7831   82.8692  221.4365 H   0  0  0  0  0  0  0  0  0  0  0  0
  140.4804   82.2640  223.7956 H   0  0  0  0  0  0  0  0  0  0  0  0
  140.7912   79.8692  224.5067 H   0  0  0  0  0  0  0  0  0  0  0  0
  142.4869   77.6005  223.2013 H   0  0  0  0  0  0  0  0  0  0  0  0
  140.8019   77.5438  223.7829 H   0  0  0  0  0  0  0  0  0  0  0  0
  138.2068   71.5887  220.9424 H   0  0  0  0  0  0  0  0  0  0  0  0
  139.8577   70.8212  220.8845 H   0  0  0  0  0  0  0  0  0  0  0  0
  137.5139   70.1751  222.5213 H   0  0  0  0  0  0  0  0  0  0  0  0
  138.9885   69.1965  222.0512 H   0  0  0  0  0  0  0  0  0  0  0  0
  137.8249   68.6734  224.5123 H   0  0  0  0  0  0  0  0  0  0  0  0
  138.6457   68.7776  226.8188 H   0  0  0  0  0  0  0  0  0  0  0  0
  140.4034   70.3565  227.5332 H   0  0  0  0  0  0  0  0  0  0  0  0
  141.3708   71.9075  225.8253 H   0  0  0  0  0  0  0  0  0  0  0  0
  141.0252   72.9840  223.6840 H   0  0  0  0  0  0  0  0  0  0  0  0
  141.5474   71.5827  222.7037 H   0  0  0  0  0  0  0  0  0  0  0  0
  1  2  2  0
  2  3  1  0
  3  4  1  0
  4  5  1  0
  5  6  1  0
  6  7  1  0
  7  8  1  0
  8  9  1  0
  9 10  1  0
 10 11  1  0
  2 12  1  0
 12 13  2  0
 13 14  1  0
 14 15  2  0
 15 16  1  0
 16 17  1  0
 17 18  1  0
 18 19  1  0
 19 20  2  0
 20 21  1  0
 21 22  2  0
 22 23  1  0
 23 24  2  0
 24 25  1  0
 15 26  1  0
 26 27  2  0
 27 28  1  0
 28 29  1  0
 29 30  1  0
 30 31  1  0
 31 32  2  0
 32 33  1  0
 33 34  2  0
 34 35  1  0
 35 36  2  0
 36 37  1  0
 11  6  1  0
 27 12  1  0
 37 28  1  0
 25 16  1  0
 36 31  1  0
 24 19  1  0
  3 38  1  0
  4 39  1  0
  4 40  1  0
  5 41  1  0
  5 42  1  0
  6 43  1  0
  7 44  1  0
  7 45  1  0
  8 46  1  0
  8 47  1  0
  9 48  1  0
 10 49  1  0
 10 50  1  0
 11 51  1  0
 11 52  1  0
 13 53  1  0
 17 54  1  0
 17 55  1  0
 18 56  1  0
 18 57  1  0
 20 58  1  0
 21 59  1  0
 22 60  1  0
 23 61  1  0
 25 62  1  0
 25 63  1  0
 29 64  1  0
 29 65  1  0
 30 66  1  0
 30 67  1  0
 32 68  1  0
 33 69  1  0
 34 70  1  0
 35 71  1  0
 37 72  1  0
 37 73  1  0
M  END
>  <smiles>  (10) 
O=C(NCCC1CCNCC1)c1cnc(N2CCc3ccccc3C2)nc1N1CCc2ccccc2C1

>  <score_type>  (10) 
oracle

>  <origin>  (10) 
autodockgpu

>  <m_score__min__energy>  (10) 
-10.130000000000001

>  <m_primary>  (10) 
energy

>  <rmsd>  (10) 
9.275871324650579

>  <m_score__min__rmsd>  (10) 
9.275871324650579

>  <meeko>  (10) 
{"free_energy": -8.87, "intermolecular_energy": -10.66, "internal_energy": -1.8, "cluster_size": 30, "cluster_id": 2, "rank_in_cluster": 27}

>  <energy>  (10) 
-9.49

>  <cluster_rmsd>  (10) 
1.13

>  <cluster>  (10) 
1

$$$$

     RDKit          3D

 73 78  0  0  0  0  0  0  0  0999 V2000
  136.1360   73.1220  220.7240 O   0  0  0  0  0  0  0  0  0  0  0  0
  136.7500   73.4760  221.7490 C   0  0  0  0  0  0  0  0  0  0  0  0
  136.2530   73.0370  223.0190 N   0  0  0  0  0  0  0  0  0  0  0  0
  135.0460   72.1940  223.1060 C   0  0  0  0  0  0  0  0  0  0  0  0
  135.1810   71.0510  224.0440 C   0  0  0  0  0  0  0  0  0  0  0  0
  134.5350   71.3680  225.3540 C   0  0  0  0  0  0  0  0  0  0  0  0
  133.1220   71.9320  225.1520 C   0  0  0  0  0  0  0  0  0  0  0  0
  132.4570   71.8730  226.5260 C   0  0  0  0  0  0  0  0  0  0  0  0
  133.3970   72.0570  227.6000 N   0  0  0  0  0  0  0  0  0  0  0  0
  134.2310   70.8670  227.7000 C   0  0  0  0  0  0  0  0  0  0  0  0
  134.3900   70.2330  226.3060 C   0  0  0  0  0  0  0  0  0  0  0  0
  137.9440   74.3030  221.7780 C   0  0  0  0  0  0  0  0  0  0  0  0
  137.7400   75.6710  221.5640 C   0  0  0  0  0  0  0  0  0  0  0  0
  138.7630   76.5040  221.5630 N   0  0  0  0  0  0  0  0  0  0  0  0
  140.0140   76.0400  221.7690 C   0  0  0  0  0  0  0  0  0  0  0  0
  141.0560   77.0080  221.7400 N   0  0  0  0  0  0  0  0  0  0  0  0
  141.8520   77.2860  220.5610 C   0  0  0  0  0  0  0  0  0  0  0  0
  141.8220   78.7260  220.1370 C   0  0  0  0  0  0  0  0  0  0  0  0
  141.4490   79.6210  221.2320 C   0  0  0  0  0  0  0  0  0  0  0  0
  141.2920   80.9760  220.9160 C   0  0  0  0  0  0  0  0  0  0  0  0
  140.9440   81.9070  221.8660 C   0  0  0  0  0  0  0  0  0  0  0  0
  140.7370   81.5400  223.1550 C   0  0  0  0  0  0  0  0  0  0  0  0
  140.8840   80.1950  223.5170 C   0  0  0  0  0  0  0  0  0  0  0  0
  141.2360   79.2760  222.5420 C   0  0  0  0  0  0  0  0  0  0  0  0
  141.3920   77.8210  222.9240 C   0  0  0  0  0  0  0  0  0  0  0  0
  140.2160   74.7460  221.9720 N   0  0  0  0  0  0  0  0  0  0  0  0
  139.2120   73.8200  221.9870 C   0  0  0  0  0  0  0  0  0  0  0  0
  139.5320   72.4660  222.2120 N   0  0  0  0  0  0  0  0  0  0  0  0
  138.8710   71.3230  221.6740 C   0  0  0  0  0  0  0  0  0  0  0  0
  138.4780   70.3190  222.7380 C   0  0  0  0  0  0  0  0  0  0  0  0
  139.1550   70.5160  224.0240 C   0  0  0  0  0  0  0  0  0  0  0  0
  138.6940   69.7510  225.1000 C   0  0  0  0  0  0  0  0  0  0  0  0
  139.2940   69.9000  226.3250 C   0  0  0  0  0  0  0  0  0  0  0  0
  140.3370   70.7690  226.5680 C   0  0  0  0  0  0  0  0  0  0  0  0
  140.7920   71.5220  225.5110 C   0  0  0  0  0  0  0  0  0  0  0  0
  140.1900   71.3810  224.2590 C   0  0  0  0  0  0  0  0  0  0  0  0
  140.6760   72.2000  223.1080 C   0  0  0  0  0  0  0  0  0  0  0  0
  136.7690   73.3300  223.8990 H   0  0  0  0  0  0  0  0  0  0  0  0
  134.2078   72.8218  223.4424 H   0  0  0  0  0  0  0  0  0  0  0  0
  134.8782   71.7696  222.1051 H   0  0  0  0  0  0  0  0  0  0  0  0
  134.6969   70.1652  223.6069 H   0  0  0  0  0  0  0  0  0  0  0  0
  136.2500   70.8549  224.2134 H   0  0  0  0  0  0  0  0  0  0  0  0
  135.2350   72.0934  225.7943 H   0  0  0  0  0  0  0  0  0  0  0  0
  133.1706   72.9706  224.7930 H   0  0  0  0  0  0  0  0  0  0  0  0
  132.5580   71.3589  224.4014 H   0  0  0  0  0  0  0  0  0  0  0  0
  131.6954   72.6646  226.5839 H   0  0  0  0  0  0  0  0  0  0  0  0
  132.0104   70.8741  226.6393 H   0  0  0  0  0  0  0  0  0  0  0  0
  132.8400   72.1000  228.4760 H   0  0  0  0  0  0  0  0  0  0  0  0
  135.2207   71.1447  228.0915 H   0  0  0  0  0  0  0  0  0  0  0  0
  133.7575   70.1435  228.3800 H   0  0  0  0  0  0  0  0  0  0  0  0
  135.2841   69.5929  226.2768 H   0  0  0  0  0  0  0  0  0  0  0  0
  133.5276   69.5999  226.0502 H   0  0  0  0  0  0  0  0  0  0  0  0
  136.7223   76.0532  221.3959 H   0  0  0  0  0  0  0  0  0  0  0  0
  142.8950   77.0083  220.7730 H   0  0  0  0  0  0  0  0  0  0  0  0
  141.4202   76.6996  219.7366 H   0  0  0  0  0  0  0  0  0  0  0  0
  142.8213   79.0086  219.7744 H   0  0  0  0  0  0  0  0  0  0  0  0
  141.0634   78.8277  219.3469 H   0  0  0  0  0  0  0  0  0  0  0  0
  141.4516   81.3049  219.8785 H   0  0  0  0  0  0  0  0  0  0  0  0
  140.8321   82.9624  221.5770 H   0  0  0  0  0  0  0  0  0  0  0  0
  140.4566   82.2908  223.9084 H   0  0  0  0  0  0  0  0  0  0  0  0
  140.7229   79.8742  224.5568 H   0  0  0  0  0  0  0  0  0  0  0  0
  142.4294   77.6236  223.2318 H   0  0  0  0  0  0  0  0  0  0  0  0
  140.7284   77.5701  223.7646 H   0  0  0  0  0  0  0  0  0  0  0  0
  137.9620   71.6558  221.1516 H   0  0  0  0  0  0  0  0  0  0  0  0
  139.5740   70.8242  220.9906 H   0  0  0  0  0  0  0  0  0  0  0  0
  137.3932   70.3966  222.9029 H   0  0  0  0  0  0  0  0  0  0  0  0
  138.7807   69.3284  222.3678 H   0  0  0  0  0  0  0  0  0  0  0  0
  137.8641   69.0415  224.9666 H   0  0  0  0  0  0  0  0  0  0  0  0
  138.9215   69.2910  227.1618 H   0  0  0  0  0  0  0  0  0  0  0  0
  140.7872   70.8564  227.5678 H   0  0  0  0  0  0  0  0  0  0  0  0
  141.6229   72.2292  225.6506 H   0  0  0  0  0  0  0  0  0  0  0  0
  141.0890   73.1507  223.4762 H   0  0  0  0  0  0  0  0  0  0  0  0
  141.4651   71.6594  222.5647 H   0  0  0  0  0  0  0  0  0  0  0  0
  1  2  2  0
  2  3  1  0
  3  4  1  0
  4  5  1  0
  5  6  1  0
  6  7  1  0
  7  8  1  0
  8  9  1  0
  9 10  1  0
 10 11  1  0
  2 12  1  0
 12 13  2  0
 13 14  1  0
 14 15  2  0
 15 16  1  0
 16 17  1  0
 17 18  1  0
 18 19  1  0
 19 20  2  0
 20 21  1  0
 21 22  2  0
 22 23  1  0
 23 24  2  0
 24 25  1  0
 15 26  1  0
 26 27  2  0
 27 28  1  0
 28 29  1  0
 29 30  1  0
 30 31  1  0
 31 32  2  0
 32 33  1  0
 33 34  2  0
 34 35  1  0
 35 36  2  0
 36 37  1  0
 11  6  1  0
 27 12  1  0
 37 28  1  0
 25 16  1  0
 36 31  1  0
 24 19  1  0
  3 38  1  0
  4 39  1  0
  4 40  1  0
  5 41  1  0
  5 42  1  0
  6 43  1  0
  7 44  1  0
  7 45  1  0
  8 46  1  0
  8 47  1  0
  9 48  1  0
 10 49  1  0
 10 50  1  0
 11 51  1  0
 11 52  1  0
 13 53  1  0
 17 54  1  0
 17 55  1  0
 18 56  1  0
 18 57  1  0
 20 58  1  0
 21 59  1  0
 22 60  1  0
 23 61  1  0
 25 62  1  0
 25 63  1  0
 29 64  1  0
 29 65  1  0
 30 66  1  0
 30 67  1  0
 32 68  1  0
 33 69  1  0
 34 70  1  0
 35 71  1  0
 37 72  1  0
 37 73  1  0
M  END
>  <smiles>  (11) 
O=C(NCCC1CCNCC1)c1cnc(N2CCc3ccccc3C2)nc1N1CCc2ccccc2C1

>  <score_type>  (11) 
oracle

>  <origin>  (11) 
autodockgpu

>  <m_score__min__energy>  (11) 
-10.130000000000001

>  <m_primary>  (11) 
energy

>  <rmsd>  (11) 
9.133042343071116

>  <m_score__min__rmsd>  (11) 
9.133042343071116

>  <meeko>  (11) 
{"free_energy": -9.39, "intermolecular_energy": -11.18, "internal_energy": -1.62, "cluster_size": 30, "cluster_id": 2, "rank_in_cluster": 15}

>  <energy>  (11) 
-9.48

>  <cluster_rmsd>  (11) 
0.62

>  <cluster>  (11) 
1

$$$$

     RDKit          3D

 73 78  0  0  0  0  0  0  0  0999 V2000
  135.9790   70.6480  222.0290 O   0  0  0  0  0  0  0  0  0  0  0  0
  136.7280   71.2600  222.8140 C   0  0  0  0  0  0  0  0  0  0  0  0
  136.7150   70.8800  224.1960 N   0  0  0  0  0  0  0  0  0  0  0  0
  135.8350   69.7960  224.6700 C   0  0  0  0  0  0  0  0  0  0  0  0
  134.3910   70.0550  224.4430 C   0  0  0  0  0  0  0  0  0  0  0  0
  133.8310   70.9040  225.5380 C   0  0  0  0  0  0  0  0  0  0  0  0
  134.2480   70.3740  226.9170 C   0  0  0  0  0  0  0  0  0  0  0  0
  133.9280   71.4970  227.9020 C   0  0  0  0  0  0  0  0  0  0  0  0
  132.7840   72.2720  227.5000 N   0  0  0  0  0  0  0  0  0  0  0  0
  133.1490   73.0800  226.3440 C   0  0  0  0  0  0  0  0  0  0  0  0
  134.2190   72.3420  225.5190 C   0  0  0  0  0  0  0  0  0  0  0  0
  137.6310   72.3400  222.4540 C   0  0  0  0  0  0  0  0  0  0  0  0
  137.0460   73.4260  221.7930 C   0  0  0  0  0  0  0  0  0  0  0  0
  137.7850   74.4520  221.4170 N   0  0  0  0  0  0  0  0  0  0  0  0
  139.1100   74.4600  221.6680 C   0  0  0  0  0  0  0  0  0  0  0  0
  139.8290   75.6020  221.2180 N   0  0  0  0  0  0  0  0  0  0  0  0
  139.4210   76.4010  220.0790 C   0  0  0  0  0  0  0  0  0  0  0  0
  139.2250   77.8550  220.4000 C   0  0  0  0  0  0  0  0  0  0  0  0
  139.9510   78.2620  221.6030 C   0  0  0  0  0  0  0  0  0  0  0  0
  139.7520   79.5760  222.0460 C   0  0  0  0  0  0  0  0  0  0  0  0
  140.3840   80.0670  223.1640 C   0  0  0  0  0  0  0  0  0  0  0  0
  141.2280   79.2880  223.8830 C   0  0  0  0  0  0  0  0  0  0  0  0
  141.4580   77.9670  223.4760 C   0  0  0  0  0  0  0  0  0  0  0  0
  140.8100   77.4950  222.3460 C   0  0  0  0  0  0  0  0  0  0  0  0
  141.0490   76.0700  221.9020 C   0  0  0  0  0  0  0  0  0  0  0  0
  139.6730   73.4360  222.2940 N   0  0  0  0  0  0  0  0  0  0  0  0
  138.9790   72.3370  222.7140 C   0  0  0  0  0  0  0  0  0  0  0  0
  139.6720   71.3000  223.3710 N   0  0  0  0  0  0  0  0  0  0  0  0
  139.4820   69.8970  223.2060 C   0  0  0  0  0  0  0  0  0  0  0  0
  139.2780   69.1740  224.5200 C   0  0  0  0  0  0  0  0  0  0  0  0
  139.6740   69.9530  225.6980 C   0  0  0  0  0  0  0  0  0  0  0  0
  139.3300   69.4240  226.9460 C   0  0  0  0  0  0  0  0  0  0  0  0
  139.6780   70.1170  228.0790 C   0  0  0  0  0  0  0  0  0  0  0  0
  140.3540   71.3190  228.0660 C   0  0  0  0  0  0  0  0  0  0  0  0
  140.6920   71.8410  226.8390 C   0  0  0  0  0  0  0  0  0  0  0  0
  140.3450   71.1470  225.6790 C   0  0  0  0  0  0  0  0  0  0  0  0
  140.7050   71.7100  224.3420 C   0  0  0  0  0  0  0  0  0  0  0  0
  137.3510   71.3930  224.8730 H   0  0  0  0  0  0  0  0  0  0  0  0
  136.1088   68.8708  224.1417 H   0  0  0  0  0  0  0  0  0  0  0  0
  135.9797   69.7179  225.7576 H   0  0  0  0  0  0  0  0  0  0  0  0
  134.2635   70.5742  223.4817 H   0  0  0  0  0  0  0  0  0  0  0  0
  133.8558   69.0940  224.4300 H   0  0  0  0  0  0  0  0  0  0  0  0
  132.7480   70.8419  225.3554 H   0  0  0  0  0  0  0  0  0  0  0  0
  133.6773   69.4680  227.1689 H   0  0  0  0  0  0  0  0  0  0  0  0
  135.3131   70.1005  226.9432 H   0  0  0  0  0  0  0  0  0  0  0  0
  133.7254   71.0543  228.8884 H   0  0  0  0  0  0  0  0  0  0  0  0
  134.7957   72.1724  227.9329 H   0  0  0  0  0  0  0  0  0  0  0  0
  132.5900   72.9370  228.2740 H   0  0  0  0  0  0  0  0  0  0  0  0
  132.2590   73.2513  225.7206 H   0  0  0  0  0  0  0  0  0  0  0  0
  133.5501   74.0462  226.6840 H   0  0  0  0  0  0  0  0  0  0  0  0
  134.2339   72.7204  224.4863 H   0  0  0  0  0  0  0  0  0  0  0  0
  135.2255   72.4937  225.9360 H   0  0  0  0  0  0  0  0  0  0  0  0
  135.9656   73.4241  221.5861 H   0  0  0  0  0  0  0  0  0  0  0  0
  140.1950   76.3183  219.3018 H   0  0  0  0  0  0  0  0  0  0  0  0
  138.4478   76.0116  219.7456 H   0  0  0  0  0  0  0  0  0  0  0  0
  139.5829   78.4558  219.5509 H   0  0  0  0  0  0  0  0  0  0  0  0
  138.1526   78.0169  220.5839 H   0  0  0  0  0  0  0  0  0  0  0  0
  139.0716   80.2328  221.4842 H   0  0  0  0  0  0  0  0  0  0  0  0
  140.2022   81.1052  223.4787 H   0  0  0  0  0  0  0  0  0  0  0  0
  141.7277   79.6886  224.7773 H   0  0  0  0  0  0  0  0  0  0  0  0
  142.1404   77.3168  224.0431 H   0  0  0  0  0  0  0  0  0  0  0  0
  141.9040   76.0315  221.2109 H   0  0  0  0  0  0  0  0  0  0  0  0
  141.2746   75.4298  222.7676 H   0  0  0  0  0  0  0  0  0  0  0  0
  138.5964   69.7342  222.5741 H   0  0  0  0  0  0  0  0  0  0  0  0
  140.3938   69.4916  222.7431 H   0  0  0  0  0  0  0  0  0  0  0  0
  138.2113   68.9226  224.6143 H   0  0  0  0  0  0  0  0  0  0  0  0
  139.9230   68.2833  224.4963 H   0  0  0  0  0  0  0  0  0  0  0  0
  138.7896   68.4686  227.0187 H   0  0  0  0  0  0  0  0  0  0  0  0
  139.4016   69.6886  229.0537 H   0  0  0  0  0  0  0  0  0  0  0  0
  140.6127   71.8397  228.9998 H   0  0  0  0  0  0  0  0  0  0  0  0
  141.2313   72.7974  226.7727 H   0  0  0  0  0  0  0  0  0  0  0  0
  140.7459   72.8077  224.3998 H   0  0  0  0  0  0  0  0  0  0  0  0
  141.6901   71.3356  224.0268 H   0  0  0  0  0  0  0  0  0  0  0  0
  1  2  2  0
  2  3  1  0
  3  4  1  0
  4  5  1  0
  5  6  1  0
  6  7  1  0
  7  8  1  0
  8  9  1  0
  9 10  1  0
 10 11  1  0
  2 12  1  0
 12 13  2  0
 13 14  1  0
 14 15  2  0
 15 16  1  0
 16 17  1  0
 17 18  1  0
 18 19  1  0
 19 20  2  0
 20 21  1  0
 21 22  2  0
 22 23  1  0
 23 24  2  0
 24 25  1  0
 15 26  1  0
 26 27  2  0
 27 28  1  0
 28 29  1  0
 29 30  1  0
 30 31  1  0
 31 32  2  0
 32 33  1  0
 33 34  2  0
 34 35  1  0
 35 36  2  0
 36 37  1  0
 11  6  1  0
 27 12  1  0
 37 28  1  0
 25 16  1  0
 36 31  1  0
 24 19  1  0
  3 38  1  0
  4 39  1  0
  4 40  1  0
  5 41  1  0
  5 42  1  0
  6 43  1  0
  7 44  1  0
  7 45  1  0
  8 46  1  0
  8 47  1  0
  9 48  1  0
 10 49  1  0
 10 50  1  0
 11 51  1  0
 11 52  1  0
 13 53  1  0
 17 54  1  0
 17 55  1  0
 18 56  1  0
 18 57  1  0
 20 58  1  0
 21 59  1  0
 22 60  1  0
 23 61  1  0
 25 62  1  0
 25 63  1  0
 29 64  1  0
 29 65  1  0
 30 66  1  0
 30 67  1  0
 32 68  1  0
 33 69  1  0
 34 70  1  0
 35 71  1  0
 37 72  1  0
 37 73  1  0
M  END
>  <smiles>  (12) 
O=C(NCCC1CCNCC1)c1cnc(N2CCc3ccccc3C2)nc1N1CCc2ccccc2C1

>  <score_type>  (12) 
oracle

>  <origin>  (12) 
autodockgpu

>  <m_score__min__energy>  (12) 
-10.130000000000001

>  <m_primary>  (12) 
energy

>  <rmsd>  (12) 
10.002550158073705

>  <m_score__min__rmsd>  (12) 
10.002550158073705

>  <meeko>  (12) 
{"free_energy": -9.66, "intermolecular_energy": -11.45, "internal_energy": -1.71, "cluster_size": 30, "cluster_id": 2, "rank_in_cluster": 11}

>  <energy>  (12) 
-9.47

>  <cluster_rmsd>  (12) 
0.66

>  <cluster>  (12) 
1

$$$$

     RDKit          3D

 73 78  0  0  0  0  0  0  0  0999 V2000
  138.5630   71.1360  220.6870 O   0  0  0  0  0  0  0  0  0  0  0  0
  138.3100   71.8600  221.6690 C   0  0  0  0  0  0  0  0  0  0  0  0
  139.1220   73.0210  221.8790 N   0  0  0  0  0  0  0  0  0  0  0  0
  140.2280   73.3440  220.9590 C   0  0  0  0  0  0  0  0  0  0  0  0
  141.5560   72.8850  221.4350 C   0  0  0  0  0  0  0  0  0  0  0  0
  142.6300   73.3100  220.4870 C   0  0  0  0  0  0  0  0  0  0  0  0
  142.7200   74.8400  220.4030 C   0  0  0  0  0  0  0  0  0  0  0  0
  144.0480   75.1350  219.7080 C   0  0  0  0  0  0  0  0  0  0  0  0
  144.4070   74.1200  218.7540 N   0  0  0  0  0  0  0  0  0  0  0  0
  144.7910   72.9140  219.4760 C   0  0  0  0  0  0  0  0  0  0  0  0
  144.0080   72.8370  220.7980 C   0  0  0  0  0  0  0  0  0  0  0  0
  137.2490   71.6350  222.6350 C   0  0  0  0  0  0  0  0  0  0  0  0
  136.0480   72.3090  222.3880 C   0  0  0  0  0  0  0  0  0  0  0  0
  135.0270   72.1760  223.2130 N   0  0  0  0  0  0  0  0  0  0  0  0
  135.1360   71.3860  224.3020 C   0  0  0  0  0  0  0  0  0  0  0  0
  133.9900   71.3100  225.1410 N   0  0  0  0  0  0  0  0  0  0  0  0
  134.0390   70.8560  226.5160 C   0  0  0  0  0  0  0  0  0  0  0  0
  133.4940   71.8500  227.5010 C   0  0  0  0  0  0  0  0  0  0  0  0
  132.5850   72.8110  226.8770 C   0  0  0  0  0  0  0  0  0  0  0  0
  132.1020   73.8440  227.6900 C   0  0  0  0  0  0  0  0  0  0  0  0
  131.2420   74.8030  227.2090 C   0  0  0  0  0  0  0  0  0  0  0  0
  130.8280   74.7810  225.9180 C   0  0  0  0  0  0  0  0  0  0  0  0
  131.2850   73.7650  225.0690 C   0  0  0  0  0  0  0  0  0  0  0  0
  132.1520   72.8100  225.5760 C   0  0  0  0  0  0  0  0  0  0  0  0
  132.6530   71.7130  224.6650 C   0  0  0  0  0  0  0  0  0  0  0  0
  136.2700   70.7430  224.5450 N   0  0  0  0  0  0  0  0  0  0  0  0
  137.3710   70.8290  223.7400 C   0  0  0  0  0  0  0  0  0  0  0  0
  138.5290   70.1040  224.0860 N   0  0  0  0  0  0  0  0  0  0  0  0
  138.6770   68.6870  224.1350 C   0  0  0  0  0  0  0  0  0  0  0  0
  139.2520   68.2020  225.4490 C   0  0  0  0  0  0  0  0  0  0  0  0
  139.8790   69.2570  226.2520 C   0  0  0  0  0  0  0  0  0  0  0  0
  140.2520   68.9160  227.5560 C   0  0  0  0  0  0  0  0  0  0  0  0
  140.8410   69.8700  228.3480 C   0  0  0  0  0  0  0  0  0  0  0  0
  141.0920   71.1620  227.9360 C   0  0  0  0  0  0  0  0  0  0  0  0
  140.7260   71.4990  226.6540 C   0  0  0  0  0  0  0  0  0  0  0  0
  140.1260   70.5380  225.8370 C   0  0  0  0  0  0  0  0  0  0  0  0
  139.7210   70.8990  224.4440 C   0  0  0  0  0  0  0  0  0  0  0  0
  138.9140   73.6470  222.7110 H   0  0  0  0  0  0  0  0  0  0  0  0
  140.0232   72.8667  219.9893 H   0  0  0  0  0  0  0  0  0  0  0  0
  140.2749   74.4406  220.8869 H   0  0  0  0  0  0  0  0  0  0  0  0
  141.7552   73.3200  222.4255 H   0  0  0  0  0  0  0  0  0  0  0  0
  141.5508   71.7867  221.4958 H   0  0  0  0  0  0  0  0  0  0  0  0
  142.3136   72.8383  219.5450 H   0  0  0  0  0  0  0  0  0  0  0  0
  141.8814   75.2424  219.8158 H   0  0  0  0  0  0  0  0  0  0  0  0
  142.6685   75.3063  221.3979 H   0  0  0  0  0  0  0  0  0  0  0  0
  143.9656   76.0986  219.1839 H   0  0  0  0  0  0  0  0  0  0  0  0
  144.8312   75.1606  220.4800 H   0  0  0  0  0  0  0  0  0  0  0  0
  145.2620   74.4580  218.2700 H   0  0  0  0  0  0  0  0  0  0  0  0
  144.5619   72.0304  218.8621 H   0  0  0  0  0  0  0  0  0  0  0  0
  145.8697   72.9422  219.6897 H   0  0  0  0  0  0  0  0  0  0  0  0
  143.9823   71.8012  221.1673 H   0  0  0  0  0  0  0  0  0  0  0  0
  144.4776   73.4507  221.5809 H   0  0  0  0  0  0  0  0  0  0  0  0
  135.9545   72.9532  221.5013 H   0  0  0  0  0  0  0  0  0  0  0  0
  133.4515   69.9296  226.5967 H   0  0  0  0  0  0  0  0  0  0  0  0
  135.0994   70.7045  226.7663 H   0  0  0  0  0  0  0  0  0  0  0  0
  132.9487   71.3065  228.2866 H   0  0  0  0  0  0  0  0  0  0  0  0
  134.3437   72.4121  227.9159 H   0  0  0  0  0  0  0  0  0  0  0  0
  132.4193   73.8894  228.7423 H   0  0  0  0  0  0  0  0  0  0  0  0
  130.8853   75.5982  227.8801 H   0  0  0  0  0  0  0  0  0  0  0  0
  130.1406   75.5528  225.5414 H   0  0  0  0  0  0  0  0  0  0  0  0
  130.9615   73.7258  224.0184 H   0  0  0  0  0  0  0  0  0  0  0  0
  131.9675   70.8535  224.7016 H   0  0  0  0  0  0  0  0  0  0  0  0
  132.7055   72.0694  223.6257 H   0  0  0  0  0  0  0  0  0  0  0  0
  137.6889   68.2253  223.9921 H   0  0  0  0  0  0  0  0  0  0  0  0
  139.3806   68.3999  223.3396 H   0  0  0  0  0  0  0  0  0  0  0  0
  138.4378   67.7560  226.0391 H   0  0  0  0  0  0  0  0  0  0  0  0
  140.0425   67.4779  225.2023 H   0  0  0  0  0  0  0  0  0  0  0  0
  140.0764   67.9005  227.9405 H   0  0  0  0  0  0  0  0  0  0  0  0
  141.1297   69.5874  229.3711 H   0  0  0  0  0  0  0  0  0  0  0  0
  141.5662   71.8940  228.6063 H   0  0  0  0  0  0  0  0  0  0  0  0
  140.9041   72.5163  226.2753 H   0  0  0  0  0  0  0  0  0  0  0  0
  139.4818   71.9715  224.3925 H   0  0  0  0  0  0  0  0  0  0  0  0
  140.5422   70.6863  223.7438 H   0  0  0  0  0  0  0  0  0  0  0  0
  1  2  2  0
  2  3  1  0
  3  4  1  0
  4  5  1  0
  5  6  1  0
  6  7  1  0
  7  8  1  0
  8  9  1  0
  9 10  1  0
 10 11  1  0
  2 12  1  0
 12 13  2  0
 13 14  1  0
 14 15  2  0
 15 16  1  0
 16 17  1  0
 17 18  1  0
 18 19  1  0
 19 20  2  0
 20 21  1  0
 21 22  2  0
 22 23  1  0
 23 24  2  0
 24 25  1  0
 15 26  1  0
 26 27  2  0
 27 28  1  0
 28 29  1  0
 29 30  1  0
 30 31  1  0
 31 32  2  0
 32 33  1  0
 33 34  2  0
 34 35  1  0
 35 36  2  0
 36 37  1  0
 11  6  1  0
 27 12  1  0
 37 28  1  0
 25 16  1  0
 36 31  1  0
 24 19  1  0
  3 38  1  0
  4 39  1  0
  4 40  1  0
  5 41  1  0
  5 42  1  0
  6 43  1  0
  7 44  1  0
  7 45  1  0
  8 46  1  0
  8 47  1  0
  9 48  1  0
 10 49  1  0
 10 50  1  0
 11 51  1  0
 11 52  1  0
 13 53  1  0
 17 54  1  0
 17 55  1  0
 18 56  1  0
 18 57  1  0
 20 58  1  0
 21 59  1  0
 22 60  1  0
 23 61  1  0
 25 62  1  0
 25 63  1  0
 29 64  1  0
 29 65  1  0
 30 66  1  0
 30 67  1  0
 32 68  1  0
 33 69  1  0
 34 70  1  0
 35 71  1  0
 37 72  1  0
 37 73  1  0
M  END
>  <smiles>  (13) 
O=C(NCCC1CCNCC1)c1cnc(N2CCc3ccccc3C2)nc1N1CCc2ccccc2C1

>  <score_type>  (13) 
oracle

>  <origin>  (13) 
autodockgpu

>  <m_score__min__energy>  (13) 
-10.130000000000001

>  <m_primary>  (13) 
energy

>  <rmsd>  (13) 
6.518558680897343

>  <m_score__min__rmsd>  (13) 
6.518558680897343

>  <meeko>  (13) 
{"free_energy": -9.33, "intermolecular_energy": -11.12, "internal_energy": -1.23, "cluster_size": 15, "cluster_id": 1, "rank_in_cluster": 13}

>  <energy>  (13) 
-9.33

>  <cluster_rmsd>  (13) 
1.55

>  <cluster>  (13) 
1

$$$$

     RDKit          3D

 73 78  0  0  0  0  0  0  0  0999 V2000
  135.9410   72.9950  221.1150 O   0  0  0  0  0  0  0  0  0  0  0  0
  136.7090   73.2250  222.0690 C   0  0  0  0  0  0  0  0  0  0  0  0
  136.4020   72.6390  223.3400 N   0  0  0  0  0  0  0  0  0  0  0  0
  135.2070   71.7930  223.5100 C   0  0  0  0  0  0  0  0  0  0  0  0
  133.9360   72.5560  223.5660 C   0  0  0  0  0  0  0  0  0  0  0  0
  133.6190   72.9480  224.9730 C   0  0  0  0  0  0  0  0  0  0  0  0
  133.8050   74.4570  225.1830 C   0  0  0  0  0  0  0  0  0  0  0  0
  133.1230   74.7730  226.5120 C   0  0  0  0  0  0  0  0  0  0  0  0
  133.2000   73.6800  227.4440 N   0  0  0  0  0  0  0  0  0  0  0  0
  132.3200   72.6120  226.9850 C   0  0  0  0  0  0  0  0  0  0  0  0
  132.2420   72.6370  225.4480 C   0  0  0  0  0  0  0  0  0  0  0  0
  137.9090   74.0420  222.0110 C   0  0  0  0  0  0  0  0  0  0  0  0
  137.7030   75.4080  221.7880 C   0  0  0  0  0  0  0  0  0  0  0  0
  138.7310   76.2320  221.7110 N   0  0  0  0  0  0  0  0  0  0  0  0
  139.9880   75.7610  221.8480 C   0  0  0  0  0  0  0  0  0  0  0  0
  141.0340   76.7190  221.7400 N   0  0  0  0  0  0  0  0  0  0  0  0
  141.7560   76.9740  220.5100 C   0  0  0  0  0  0  0  0  0  0  0  0
  141.7110   78.4090  220.0680 C   0  0  0  0  0  0  0  0  0  0  0  0
  141.4140   79.3210  221.1720 C   0  0  0  0  0  0  0  0  0  0  0  0
  141.2490   80.6730  220.8470 C   0  0  0  0  0  0  0  0  0  0  0  0
  140.9680   81.6200  221.8040 C   0  0  0  0  0  0  0  0  0  0  0  0
  140.8410   81.2730  223.1080 C   0  0  0  0  0  0  0  0  0  0  0  0
  140.9990   79.9310  223.4790 C   0  0  0  0  0  0  0  0  0  0  0  0
  141.2810   78.9960  222.4970 C   0  0  0  0  0  0  0  0  0  0  0  0
  141.4500   77.5450  222.8890 C   0  0  0  0  0  0  0  0  0  0  0  0
  140.1930   74.4680  222.0600 N   0  0  0  0  0  0  0  0  0  0  0  0
  139.1840   73.5520  222.1520 C   0  0  0  0  0  0  0  0  0  0  0  0
  139.5070   72.1990  222.3790 N   0  0  0  0  0  0  0  0  0  0  0  0
  138.7950   71.0530  221.9180 C   0  0  0  0  0  0  0  0  0  0  0  0
  138.4750   70.0750  223.0280 C   0  0  0  0  0  0  0  0  0  0  0  0
  139.2510   70.2890  224.2550 C   0  0  0  0  0  0  0  0  0  0  0  0
  138.8660   69.5510  225.3780 C   0  0  0  0  0  0  0  0  0  0  0  0
  139.5610   69.7180  226.5510 C   0  0  0  0  0  0  0  0  0  0  0  0
  140.6280   70.5790  226.6950 C   0  0  0  0  0  0  0  0  0  0  0  0
  141.0070   71.3060  225.5900 C   0  0  0  0  0  0  0  0  0  0  0  0
  140.3100   71.1460  224.3920 C   0  0  0  0  0  0  0  0  0  0  0  0
  140.7130   71.9370  223.1890 C   0  0  0  0  0  0  0  0  0  0  0  0
  137.0510   72.8260  224.1590 H   0  0  0  0  0  0  0  0  0  0  0  0
  135.1543   71.0931  222.6630 H   0  0  0  0  0  0  0  0  0  0  0  0
  135.3141   71.2778  224.4760 H   0  0  0  0  0  0  0  0  0  0  0  0
  134.0315   73.4629  222.9509 H   0  0  0  0  0  0  0  0  0  0  0  0
  133.1238   71.9204  223.1835 H   0  0  0  0  0  0  0  0  0  0  0  0
  134.3254   72.3362  225.5533 H   0  0  0  0  0  0  0  0  0  0  0  0
  134.8746   74.7092  225.2307 H   0  0  0  0  0  0  0  0  0  0  0  0
  133.3741   75.0396  224.3554 H   0  0  0  0  0  0  0  0  0  0  0  0
  133.6104   75.6523  226.9584 H   0  0  0  0  0  0  0  0  0  0  0  0
  132.0592   74.9618  226.3053 H   0  0  0  0  0  0  0  0  0  0  0  0
  132.8010   74.0240  228.3390 H   0  0  0  0  0  0  0  0  0  0  0  0
  132.7176   71.6414  227.3163 H   0  0  0  0  0  0  0  0  0  0  0  0
  131.3144   72.7590  227.4058 H   0  0  0  0  0  0  0  0  0  0  0  0
  131.9176   71.6579  225.0656 H   0  0  0  0  0  0  0  0  0  0  0  0
  131.5150   73.3824  225.0931 H   0  0  0  0  0  0  0  0  0  0  0  0
  136.6800   75.7966  221.6764 H   0  0  0  0  0  0  0  0  0  0  0  0
  142.8081   76.6899  220.6599 H   0  0  0  0  0  0  0  0  0  0  0  0
  141.2682   76.3804  219.7228 H   0  0  0  0  0  0  0  0  0  0  0  0
  142.6879   78.6781  219.6400 H   0  0  0  0  0  0  0  0  0  0  0  0
  140.9060   78.5070  219.3248 H   0  0  0  0  0  0  0  0  0  0  0  0
  141.3468   80.9864  219.7971 H   0  0  0  0  0  0  0  0  0  0  0  0
  140.8448   82.6721  221.5074 H   0  0  0  0  0  0  0  0  0  0  0  0
  140.6163   82.0368  223.8671 H   0  0  0  0  0  0  0  0  0  0  0  0
  140.9008   79.6257  224.5312 H   0  0  0  0  0  0  0  0  0  0  0  0
  142.5033   77.3432  223.1337 H   0  0  0  0  0  0  0  0  0  0  0  0
  140.8389   77.3110  223.7732 H   0  0  0  0  0  0  0  0  0  0  0  0
  137.8518   71.3860  221.4603 H   0  0  0  0  0  0  0  0  0  0  0  0
  139.4389   70.5325  221.1937 H   0  0  0  0  0  0  0  0  0  0  0  0
  137.4069   70.1682  223.2737 H   0  0  0  0  0  0  0  0  0  0  0  0
  138.7385   69.0741  222.6556 H   0  0  0  0  0  0  0  0  0  0  0  0
  138.0211   68.8487  225.3233 H   0  0  0  0  0  0  0  0  0  0  0  0
  139.2479   69.1304  227.4266 H   0  0  0  0  0  0  0  0  0  0  0  0
  141.1553   70.6807  227.6550 H   0  0  0  0  0  0  0  0  0  0  0  0
  141.8523   72.0073  225.6506 H   0  0  0  0  0  0  0  0  0  0  0  0
  141.1630   72.8899  223.5044 H   0  0  0  0  0  0  0  0  0  0  0  0
  141.4514   71.3760  222.5974 H   0  0  0  0  0  0  0  0  0  0  0  0
  1  2  2  0
  2  3  1  0
  3  4  1  0
  4  5  1  0
  5  6  1  0
  6  7  1  0
  7  8  1  0
  8  9  1  0
  9 10  1  0
 10 11  1  0
  2 12  1  0
 12 13  2  0
 13 14  1  0
 14 15  2  0
 15 16  1  0
 16 17  1  0
 17 18  1  0
 18 19  1  0
 19 20  2  0
 20 21  1  0
 21 22  2  0
 22 23  1  0
 23 24  2  0
 24 25  1  0
 15 26  1  0
 26 27  2  0
 27 28  1  0
 28 29  1  0
 29 30  1  0
 30 31  1  0
 31 32  2  0
 32 33  1  0
 33 34  2  0
 34 35  1  0
 35 36  2  0
 36 37  1  0
 11  6  1  0
 27 12  1  0
 37 28  1  0
 25 16  1  0
 36 31  1  0
 24 19  1  0
  3 38  1  0
  4 39  1  0
  4 40  1  0
  5 41  1  0
  5 42  1  0
  6 43  1  0
  7 44  1  0
  7 45  1  0
  8 46  1  0
  8 47  1  0
  9 48  1  0
 10 49  1  0
 10 50  1  0
 11 51  1  0
 11 52  1  0
 13 53  1  0
 17 54  1  0
 17 55  1  0
 18 56  1  0
 18 57  1  0
 20 58  1  0
 21 59  1  0
 22 60  1  0
 23 61  1  0
 25 62  1  0
 25 63  1  0
 29 64  1  0
 29 65  1  0
 30 66  1  0
 30 67  1  0
 32 68  1  0
 33 69  1  0
 34 70  1  0
 35 71  1  0
 37 72  1  0
 37 73  1  0
M  END
>  <smiles>  (14) 
O=C(NCCC1CCNCC1)c1cnc(N2CCc3ccccc3C2)nc1N1CCc2ccccc2C1

>  <score_type>  (14) 
oracle

>  <origin>  (14) 
autodockgpu

>  <m_score__min__energy>  (14) 
-10.130000000000001

>  <m_primary>  (14) 
energy

>  <rmsd>  (14) 
8.870168339960756

>  <m_score__min__rmsd>  (14) 
8.870168339960756

>  <meeko>  (14) 
{"free_energy": -10.0, "intermolecular_energy": -11.79, "internal_energy": -1.38, "cluster_size": 30, "cluster_id": 2, "rank_in_cluster": 2}

>  <energy>  (14) 
-9.08

>  <cluster_rmsd>  (14) 
1.62

>  <cluster>  (14) 
1

$$$$

     RDKit          3D

 73 78  0  0  0  0  0  0  0  0999 V2000
  139.7410   71.0260  221.5760 O   0  0  0  0  0  0  0  0  0  0  0  0
  139.2720   71.8550  222.3790 C   0  0  0  0  0  0  0  0  0  0  0  0
  138.7490   71.3700  223.6220 N   0  0  0  0  0  0  0  0  0  0  0  0
  138.7670   69.9300  223.9360 C   0  0  0  0  0  0  0  0  0  0  0  0
  139.9290   69.5110  224.7590 C   0  0  0  0  0  0  0  0  0  0  0  0
  140.1160   70.4390  225.9150 C   0  0  0  0  0  0  0  0  0  0  0  0
  139.7730   69.7480  227.2410 C   0  0  0  0  0  0  0  0  0  0  0  0
  140.3360   70.6550  228.3340 C   0  0  0  0  0  0  0  0  0  0  0  0
  140.3060   72.0450  227.9650 N   0  0  0  0  0  0  0  0  0  0  0  0
  141.3120   72.2770  226.9360 C   0  0  0  0  0  0  0  0  0  0  0  0
  141.4840   71.0020  226.0900 C   0  0  0  0  0  0  0  0  0  0  0  0
  139.2050   73.2910  222.1710 C   0  0  0  0  0  0  0  0  0  0  0  0
  140.4310   73.9330  221.9600 C   0  0  0  0  0  0  0  0  0  0  0  0
  140.4750   75.2370  221.7690 N   0  0  0  0  0  0  0  0  0  0  0  0
  139.3370   75.9620  221.7760 C   0  0  0  0  0  0  0  0  0  0  0  0
  139.4810   77.3620  221.5730 N   0  0  0  0  0  0  0  0  0  0  0  0
  138.4240   78.3180  221.8360 C   0  0  0  0  0  0  0  0  0  0  0  0
  138.8130   79.4000  222.8020 C   0  0  0  0  0  0  0  0  0  0  0  0
  140.2630   79.5790  222.8820 C   0  0  0  0  0  0  0  0  0  0  0  0
  140.7350   80.4940  223.8300 C   0  0  0  0  0  0  0  0  0  0  0  0
  142.0770   80.7440  223.9920 C   0  0  0  0  0  0  0  0  0  0  0  0
  142.9990   80.1050  223.2300 C   0  0  0  0  0  0  0  0  0  0  0  0
  142.5710   79.1820  222.2670 C   0  0  0  0  0  0  0  0  0  0  0  0
  141.2140   78.9470  222.1240 C   0  0  0  0  0  0  0  0  0  0  0  0
  140.7450   77.9490  221.0890 C   0  0  0  0  0  0  0  0  0  0  0  0
  138.1710   75.3630  221.9750 N   0  0  0  0  0  0  0  0  0  0  0  0
  138.0400   74.0180  222.1800 C   0  0  0  0  0  0  0  0  0  0  0  0
  136.7540   73.4790  222.3820 N   0  0  0  0  0  0  0  0  0  0  0  0
  135.8200   73.8330  223.3990 C   0  0  0  0  0  0  0  0  0  0  0  0
  135.2990   72.6330  224.1610 C   0  0  0  0  0  0  0  0  0  0  0  0
  135.5470   71.3490  223.4950 C   0  0  0  0  0  0  0  0  0  0  0  0
  135.2690   70.1940  224.2330 C   0  0  0  0  0  0  0  0  0  0  0  0
  135.4860   68.9690  223.6540 C   0  0  0  0  0  0  0  0  0  0  0  0
  135.9680   68.8000  222.3730 C   0  0  0  0  0  0  0  0  0  0  0  0
  136.2420   69.9350  221.6460 C   0  0  0  0  0  0  0  0  0  0  0  0
  136.0260   71.1880  222.2230 C   0  0  0  0  0  0  0  0  0  0  0  0
  136.3270   72.4250  221.4400 C   0  0  0  0  0  0  0  0  0  0  0  0
  138.3500   72.0680  224.3150 H   0  0  0  0  0  0  0  0  0  0  0  0
  137.8462   69.6831  224.4849 H   0  0  0  0  0  0  0  0  0  0  0  0
  138.8427   69.3941  222.9784 H   0  0  0  0  0  0  0  0  0  0  0  0
  139.7559   68.4927  225.1371 H   0  0  0  0  0  0  0  0  0  0  0  0
  140.8339   69.5359  224.1340 H   0  0  0  0  0  0  0  0  0  0  0  0
  139.4359   71.2671  225.6665 H   0  0  0  0  0  0  0  0  0  0  0  0
  138.6832   69.6459  227.3502 H   0  0  0  0  0  0  0  0  0  0  0  0
  140.1976   68.7347  227.2939 H   0  0  0  0  0  0  0  0  0  0  0  0
  139.7385   70.5194  229.2476 H   0  0  0  0  0  0  0  0  0  0  0  0
  141.3874   70.3738  228.4934 H   0  0  0  0  0  0  0  0  0  0  0  0
  140.6130   72.5800  228.8010 H   0  0  0  0  0  0  0  0  0  0  0  0
  140.9900   73.1060  226.2886 H   0  0  0  0  0  0  0  0  0  0  0  0
  142.2702   72.5339  227.4112 H   0  0  0  0  0  0  0  0  0  0  0  0
  141.9241   71.2482  225.1124 H   0  0  0  0  0  0  0  0  0  0  0  0
  142.1571   70.2818  226.5781 H   0  0  0  0  0  0  0  0  0  0  0  0
  141.3619   73.3470  221.9535 H   0  0  0  0  0  0  0  0  0  0  0  0
  138.1376   78.7892  220.8842 H   0  0  0  0  0  0  0  0  0  0  0  0
  137.5945   77.7606  222.2957 H   0  0  0  0  0  0  0  0  0  0  0  0
  138.3574   80.3464  222.4752 H   0  0  0  0  0  0  0  0  0  0  0  0
  138.4552   79.1048  223.7994 H   0  0  0  0  0  0  0  0  0  0  0  0
  140.0116   81.0283  224.4634 H   0  0  0  0  0  0  0  0  0  0  0  0
  142.4069   81.4710  224.7487 H   0  0  0  0  0  0  0  0  0  0  0  0
  144.0712   80.3092  223.3666 H   0  0  0  0  0  0  0  0  0  0  0  0
  143.3002   78.6532  221.6356 H   0  0  0  0  0  0  0  0  0  0  0  0
  140.5784   78.4566  220.1275 H   0  0  0  0  0  0  0  0  0  0  0  0
  141.5017   77.1648  220.9391 H   0  0  0  0  0  0  0  0  0  0  0  0
  136.3143   74.5125  224.1089 H   0  0  0  0  0  0  0  0  0  0  0  0
  134.9604   74.3115  222.9070 H   0  0  0  0  0  0  0  0  0  0  0  0
  135.7864   72.6111  225.1469 H   0  0  0  0  0  0  0  0  0  0  0  0
  134.2074   72.7497  224.2305 H   0  0  0  0  0  0  0  0  0  0  0  0
  134.8828   70.2664  225.2604 H   0  0  0  0  0  0  0  0  0  0  0  0
  135.2624   68.0693  224.2462 H   0  0  0  0  0  0  0  0  0  0  0  0
  136.1270   67.7973  221.9495 H   0  0  0  0  0  0  0  0  0  0  0  0
  136.6279   69.8563  220.6189 H   0  0  0  0  0  0  0  0  0  0  0  0
  137.1328   72.2219  220.7193 H   0  0  0  0  0  0  0  0  0  0  0  0
  135.4330   72.7504  220.8879 H   0  0  0  0  0  0  0  0  0  0  0  0
  1  2  2  0
  2  3  1  0
  3  4  1  0
  4  5  1  0
  5  6  1  0
  6  7  1  0
  7  8  1  0
  8  9  1  0
  9 10  1  0
 10 11  1  0
  2 12  1  0
 12 13  2  0
 13 14  1  0
 14 15  2  0
 15 16  1  0
 16 17  1  0
 17 18  1  0
 18 19  1  0
 19 20  2  0
 20 21  1  0
 21 22  2  0
 22 23  1  0
 23 24  2  0
 24 25  1  0
 15 26  1  0
 26 27  2  0
 27 28  1  0
 28 29  1  0
 29 30  1  0
 30 31  1  0
 31 32  2  0
 32 33  1  0
 33 34  2  0
 34 35  1  0
 35 36  2  0
 36 37  1  0
 11  6  1  0
 27 12  1  0
 37 28  1  0
 25 16  1  0
 36 31  1  0
 24 19  1  0
  3 38  1  0
  4 39  1  0
  4 40  1  0
  5 41  1  0
  5 42  1  0
  6 43  1  0
  7 44  1  0
  7 45  1  0
  8 46  1  0
  8 47  1  0
  9 48  1  0
 10 49  1  0
 10 50  1  0
 11 51  1  0
 11 52  1  0
 13 53  1  0
 17 54  1  0
 17 55  1  0
 18 56  1  0
 18 57  1  0
 20 58  1  0
 21 59  1  0
 22 60  1  0
 23 61  1  0
 25 62  1  0
 25 63  1  0
 29 64  1  0
 29 65  1  0
 30 66  1  0
 30 67  1  0
 32 68  1  0
 33 69  1  0
 34 70  1  0
 35 71  1  0
 37 72  1  0
 37 73  1  0
M  END
>  <smiles>  (15) 
O=C(NCCC1CCNCC1)c1cnc(N2CCc3ccccc3C2)nc1N1CCc2ccccc2C1

>  <score_type>  (15) 
oracle

>  <origin>  (15) 
autodockgpu

>  <m_score__min__energy>  (15) 
-10.130000000000001

>  <m_primary>  (15) 
energy

>  <rmsd>  (15) 
8.967840854196387

>  <m_score__min__rmsd>  (15) 
8.967840854196387

>  <meeko>  (15) 
{"free_energy": -8.82, "intermolecular_energy": -10.61, "internal_energy": -1.98, "cluster_size": 4, "cluster_id": 4, "rank_in_cluster": 1}

>  <energy>  (15) 
-9.03

>  <cluster_rmsd>  (15) 
1.57

>  <cluster>  (15) 
1

$$$$

     RDKit          3D

 73 78  0  0  0  0  0  0  0  0999 V2000
  135.8480   73.1380  220.9970 O   0  0  0  0  0  0  0  0  0  0  0  0
  136.4950   73.5270  221.9880 C   0  0  0  0  0  0  0  0  0  0  0  0
  136.0080   73.1820  223.2910 N   0  0  0  0  0  0  0  0  0  0  0  0
  134.7740   72.3910  223.4490 C   0  0  0  0  0  0  0  0  0  0  0  0
  134.6590   71.7190  224.7670 C   0  0  0  0  0  0  0  0  0  0  0  0
  134.4230   70.2530  224.5910 C   0  0  0  0  0  0  0  0  0  0  0  0
  134.9280   69.7730  223.2230 C   0  0  0  0  0  0  0  0  0  0  0  0
  134.9600   68.2480  223.3110 C   0  0  0  0  0  0  0  0  0  0  0  0
  133.9310   67.7240  224.1690 N   0  0  0  0  0  0  0  0  0  0  0  0
  134.2690   68.0390  225.5510 C   0  0  0  0  0  0  0  0  0  0  0  0
  135.0590   69.3590  225.5980 C   0  0  0  0  0  0  0  0  0  0  0  0
  137.7180   74.3090  221.9460 C   0  0  0  0  0  0  0  0  0  0  0  0
  137.5530   75.6890  221.7800 C   0  0  0  0  0  0  0  0  0  0  0  0
  138.6040   76.4830  221.7210 N   0  0  0  0  0  0  0  0  0  0  0  0
  139.8480   75.9690  221.8210 C   0  0  0  0  0  0  0  0  0  0  0  0
  140.9210   76.8980  221.7360 N   0  0  0  0  0  0  0  0  0  0  0  0
  141.5670   77.2570  220.4890 C   0  0  0  0  0  0  0  0  0  0  0  0
  141.5490   78.7310  220.2010 C   0  0  0  0  0  0  0  0  0  0  0  0
  141.3660   79.5320  221.4120 C   0  0  0  0  0  0  0  0  0  0  0  0
  141.2330   80.9150  221.2400 C   0  0  0  0  0  0  0  0  0  0  0  0
  141.0570   81.7650  222.3060 C   0  0  0  0  0  0  0  0  0  0  0  0
  141.0050   81.2870  223.5740 C   0  0  0  0  0  0  0  0  0  0  0  0
  141.1350   79.9090  223.7930 C   0  0  0  0  0  0  0  0  0  0  0  0
  141.3110   79.0740  222.7020 C   0  0  0  0  0  0  0  0  0  0  0  0
  141.4480   77.5850  222.9300 C   0  0  0  0  0  0  0  0  0  0  0  0
  140.0150   74.6630  221.9790 N   0  0  0  0  0  0  0  0  0  0  0  0
  138.9790   73.7750  222.0480 C   0  0  0  0  0  0  0  0  0  0  0  0
  139.2630   72.4050  222.2170 N   0  0  0  0  0  0  0  0  0  0  0  0
  138.5090   71.3010  221.7230 C   0  0  0  0  0  0  0  0  0  0  0  0
  138.1750   70.2890  222.7990 C   0  0  0  0  0  0  0  0  0  0  0  0
  138.9760   70.4310  224.0210 C   0  0  0  0  0  0  0  0  0  0  0  0
  138.5850   69.6610  225.1200 C   0  0  0  0  0  0  0  0  0  0  0  0
  139.3020   69.7590  226.2870 C   0  0  0  0  0  0  0  0  0  0  0  0
  140.3980   70.5810  226.4470 C   0  0  0  0  0  0  0  0  0  0  0  0
  140.7830   71.3390  225.3660 C   0  0  0  0  0  0  0  0  0  0  0  0
  140.0630   71.2490  224.1740 C   0  0  0  0  0  0  0  0  0  0  0  0
  140.4720   72.0740  222.9970 C   0  0  0  0  0  0  0  0  0  0  0  0
  136.5530   73.5060  224.1420 H   0  0  0  0  0  0  0  0  0  0  0  0
  133.9125   73.0638  223.3262 H   0  0  0  0  0  0  0  0  0  0  0  0
  134.8010   71.5988  222.6863 H   0  0  0  0  0  0  0  0  0  0  0  0
  135.5904   71.8700  225.3324 H   0  0  0  0  0  0  0  0  0  0  0  0
  133.8081   72.1523  225.3131 H   0  0  0  0  0  0  0  0  0  0  0  0
  133.3321   70.1725  224.7070 H   0  0  0  0  0  0  0  0  0  0  0  0
  134.2438   70.0976  222.4252 H   0  0  0  0  0  0  0  0  0  0  0  0
  135.9183   70.1886  222.9851 H   0  0  0  0  0  0  0  0  0  0  0  0
  134.8225   67.8334  222.3014 H   0  0  0  0  0  0  0  0  0  0  0  0
  135.9313   67.9582  223.7384 H   0  0  0  0  0  0  0  0  0  0  0  0
  133.9730   66.6900  224.0850 H   0  0  0  0  0  0  0  0  0  0  0  0
  133.3456   68.1432  226.1397 H   0  0  0  0  0  0  0  0  0  0  0  0
  134.8829   67.2291  225.9720 H   0  0  0  0  0  0  0  0  0  0  0  0
  134.9961   69.8068  226.6008 H   0  0  0  0  0  0  0  0  0  0  0  0
  136.1251   69.1990  225.3791 H   0  0  0  0  0  0  0  0  0  0  0  0
  136.5414   76.1133  221.6984 H   0  0  0  0  0  0  0  0  0  0  0  0
  142.6147   76.9247  220.5326 H   0  0  0  0  0  0  0  0  0  0  0  0
  141.0034   76.7654  219.6823 H   0  0  0  0  0  0  0  0  0  0  0  0
  142.5039   79.0114  219.7325 H   0  0  0  0  0  0  0  0  0  0  0  0
  140.6988   78.9327  219.5329 H   0  0  0  0  0  0  0  0  0  0  0  0
  141.2704   81.3333  220.2233 H   0  0  0  0  0  0  0  0  0  0  0  0
  140.9572   82.8459  222.1283 H   0  0  0  0  0  0  0  0  0  0  0  0
  140.8623   81.9736  224.4215 H   0  0  0  0  0  0  0  0  0  0  0  0
  141.0979   79.4980  224.8127 H   0  0  0  0  0  0  0  0  0  0  0  0
  142.5067   77.3242  223.0756 H   0  0  0  0  0  0  0  0  0  0  0  0
  140.8902   77.2798  223.8276 H   0  0  0  0  0  0  0  0  0  0  0  0
  137.5699   71.6807  221.2942 H   0  0  0  0  0  0  0  0  0  0  0  0
  139.1255   70.7904  220.9685 H   0  0  0  0  0  0  0  0  0  0  0  0
  137.1140   70.4047  223.0654 H   0  0  0  0  0  0  0  0  0  0  0  0
  138.4014   69.2960  222.3835 H   0  0  0  0  0  0  0  0  0  0  0  0
  137.7177   68.9879  225.0512 H   0  0  0  0  0  0  0  0  0  0  0  0
  138.9840   69.1466  227.1437 H   0  0  0  0  0  0  0  0  0  0  0  0
  140.9426   70.6284  227.4016 H   0  0  0  0  0  0  0  0  0  0  0  0
  141.6511   72.0105  225.4403 H   0  0  0  0  0  0  0  0  0  0  0  0
  140.9562   72.9994  223.3422 H   0  0  0  0  0  0  0  0  0  0  0  0
  141.1834   71.5142  222.3720 H   0  0  0  0  0  0  0  0  0  0  0  0
  1  2  2  0
  2  3  1  0
  3  4  1  0
  4  5  1  0
  5  6  1  0
  6  7  1  0
  7  8  1  0
  8  9  1  0
  9 10  1  0
 10 11  1  0
  2 12  1  0
 12 13  2  0
 13 14  1  0
 14 15  2  0
 15 16  1  0
 16 17  1  0
 17 18  1  0
 18 19  1  0
 19 20  2  0
 20 21  1  0
 21 22  2  0
 22 23  1  0
 23 24  2  0
 24 25  1  0
 15 26  1  0
 26 27  2  0
 27 28  1  0
 28 29  1  0
 29 30  1  0
 30 31  1  0
 31 32  2  0
 32 33  1  0
 33 34  2  0
 34 35  1  0
 35 36  2  0
 36 37  1  0
 11  6  1  0
 27 12  1  0
 37 28  1  0
 25 16  1  0
 36 31  1  0
 24 19  1  0
  3 38  1  0
  4 39  1  0
  4 40  1  0
  5 41  1  0
  5 42  1  0
  6 43  1  0
  7 44  1  0
  7 45  1  0
  8 46  1  0
  8 47  1  0
  9 48  1  0
 10 49  1  0
 10 50  1  0
 11 51  1  0
 11 52  1  0
 13 53  1  0
 17 54  1  0
 17 55  1  0
 18 56  1  0
 18 57  1  0
 20 58  1  0
 21 59  1  0
 22 60  1  0
 23 61  1  0
 25 62  1  0
 25 63  1  0
 29 64  1  0
 29 65  1  0
 30 66  1  0
 30 67  1  0
 32 68  1  0
 33 69  1  0
 34 70  1  0
 35 71  1  0
 37 72  1  0
 37 73  1  0
M  END
>  <smiles>  (16) 
O=C(NCCC1CCNCC1)c1cnc(N2CCc3ccccc3C2)nc1N1CCc2ccccc2C1

>  <score_type>  (16) 
oracle

>  <origin>  (16) 
autodockgpu

>  <m_score__min__energy>  (16) 
-10.130000000000001

>  <m_primary>  (16) 
energy

>  <rmsd>  (16) 
8.76602817976123

>  <m_score__min__rmsd>  (16) 
8.76602817976123

>  <meeko>  (16) 
{"free_energy": -8.89, "intermolecular_energy": -10.68, "internal_energy": -1.95, "cluster_size": 30, "cluster_id": 2, "rank_in_cluster": 25}

>  <energy>  (16) 
-10.07

>  <cluster_rmsd>  (16) 
0.0

>  <cluster>  (16) 
2

$$$$

     RDKit          3D

 73 78  0  0  0  0  0  0  0  0999 V2000
  140.4350   71.0630  221.4810 O   0  0  0  0  0  0  0  0  0  0  0  0
  139.8560   71.8390  222.2660 C   0  0  0  0  0  0  0  0  0  0  0  0
  139.3170   71.2960  223.4780 N   0  0  0  0  0  0  0  0  0  0  0  0
  139.4440   69.8590  223.7810 C   0  0  0  0  0  0  0  0  0  0  0  0
  138.9130   69.4790  225.1140 C   0  0  0  0  0  0  0  0  0  0  0  0
  139.6590   70.1880  226.1980 C   0  0  0  0  0  0  0  0  0  0  0  0
  139.9990   69.2340  227.3510 C   0  0  0  0  0  0  0  0  0  0  0  0
  141.0410   69.9650  228.1950 C   0  0  0  0  0  0  0  0  0  0  0  0
  140.8580   71.3920  228.1800 N   0  0  0  0  0  0  0  0  0  0  0  0
  141.2340   71.8980  226.8660 C   0  0  0  0  0  0  0  0  0  0  0  0
  140.9470   70.8240  225.8010 C   0  0  0  0  0  0  0  0  0  0  0  0
  139.6760   73.2660  222.0660 C   0  0  0  0  0  0  0  0  0  0  0  0
  140.8500   74.0180  221.9520 C   0  0  0  0  0  0  0  0  0  0  0  0
  140.7910   75.3230  221.7760 N   0  0  0  0  0  0  0  0  0  0  0  0
  139.5940   75.9430  221.7050 C   0  0  0  0  0  0  0  0  0  0  0  0
  139.6260   77.3530  221.5250 N   0  0  0  0  0  0  0  0  0  0  0  0
  138.5010   78.2190  221.8190 C   0  0  0  0  0  0  0  0  0  0  0  0
  138.8190   79.3120  222.7990 C   0  0  0  0  0  0  0  0  0  0  0  0
  140.2520   79.6030  222.8620 C   0  0  0  0  0  0  0  0  0  0  0  0
  140.6650   80.5360  223.8210 C   0  0  0  0  0  0  0  0  0  0  0  0
  141.9860   80.8870  223.9690 C   0  0  0  0  0  0  0  0  0  0  0  0
  142.9430   80.3350  223.1840 C   0  0  0  0  0  0  0  0  0  0  0  0
  142.5750   79.3970  222.2100 C   0  0  0  0  0  0  0  0  0  0  0  0
  141.2380   79.0600  222.0800 C   0  0  0  0  0  0  0  0  0  0  0  0
  140.8330   78.0450  221.0350 C   0  0  0  0  0  0  0  0  0  0  0  0
  138.4760   75.2390  221.8110 N   0  0  0  0  0  0  0  0  0  0  0  0
  138.4520   73.8860  221.9940 C   0  0  0  0  0  0  0  0  0  0  0  0
  137.2090   73.2300  222.0950 N   0  0  0  0  0  0  0  0  0  0  0  0
  136.1960   73.4480  223.0750 C   0  0  0  0  0  0  0  0  0  0  0  0
  135.7410   72.1680  223.7440 C   0  0  0  0  0  0  0  0  0  0  0  0
  136.1340   70.9490  223.0290 C   0  0  0  0  0  0  0  0  0  0  0  0
  135.9180   69.7360  223.6900 C   0  0  0  0  0  0  0  0  0  0  0  0
  136.2700   68.5670  223.0620 C   0  0  0  0  0  0  0  0  0  0  0  0
  136.8310   68.5100  221.8040 C   0  0  0  0  0  0  0  0  0  0  0  0
  137.0440   69.7020  221.1520 C   0  0  0  0  0  0  0  0  0  0  0  0
  136.6910   70.8990  221.7790 C   0  0  0  0  0  0  0  0  0  0  0  0
  136.9240   72.1980  221.0780 C   0  0  0  0  0  0  0  0  0  0  0  0
  138.8250   71.9480  224.1550 H   0  0  0  0  0  0  0  0  0  0  0  0
  138.8944   69.2930  223.0145 H   0  0  0  0  0  0  0  0  0  0  0  0
  140.5191   69.6263  223.7860 H   0  0  0  0  0  0  0  0  0  0  0  0
  137.8485   69.7506  225.1702 H   0  0  0  0  0  0  0  0  0  0  0  0
  139.0361   68.3943  225.2492 H   0  0  0  0  0  0  0  0  0  0  0  0
  138.9589   70.9866  226.4847 H   0  0  0  0  0  0  0  0  0  0  0  0
  139.1014   69.0200  227.9497 H   0  0  0  0  0  0  0  0  0  0  0  0
  140.3775   68.2690  226.9828 H   0  0  0  0  0  0  0  0  0  0  0  0
  140.9659   69.6104  229.2336 H   0  0  0  0  0  0  0  0  0  0  0  0
  142.0305   69.7499  227.7654 H   0  0  0  0  0  0  0  0  0  0  0  0
  141.5440   71.7860  228.8530 H   0  0  0  0  0  0  0  0  0  0  0  0
  140.6504   72.8028  226.6408 H   0  0  0  0  0  0  0  0  0  0  0  0
  142.3065   72.1425  226.8604 H   0  0  0  0  0  0  0  0  0  0  0  0
  140.8551   71.2860  224.8070 H   0  0  0  0  0  0  0  0  0  0  0  0
  141.7605   70.0859  225.7428 H   0  0  0  0  0  0  0  0  0  0  0  0
  141.8279   73.5175  222.0095 H   0  0  0  0  0  0  0  0  0  0  0  0
  138.1647   78.6821  220.8796 H   0  0  0  0  0  0  0  0  0  0  0  0
  137.7242   77.5909  222.2796 H   0  0  0  0  0  0  0  0  0  0  0  0
  138.2858   80.2250  222.4956 H   0  0  0  0  0  0  0  0  0  0  0  0
  138.5007   78.9728  223.7958 H   0  0  0  0  0  0  0  0  0  0  0  0
  139.9117   81.0009  224.4740 H   0  0  0  0  0  0  0  0  0  0  0  0
  142.2697   81.6249  224.7339 H   0  0  0  0  0  0  0  0  0  0  0  0
  143.9978   80.6203  223.3101 H   0  0  0  0  0  0  0  0  0  0  0  0
  143.3342   78.9368  221.5606 H   0  0  0  0  0  0  0  0  0  0  0  0
  140.6134   78.5533  220.0845 H   0  0  0  0  0  0  0  0  0  0  0  0
  141.6463   77.3248  220.8623 H   0  0  0  0  0  0  0  0  0  0  0  0
  136.5926   74.1255  223.8456 H   0  0  0  0  0  0  0  0  0  0  0  0
  135.3251   73.8802  222.5604 H   0  0  0  0  0  0  0  0  0  0  0  0
  136.1756   72.1321  224.7539 H   0  0  0  0  0  0  0  0  0  0  0  0
  134.6413   72.1890  223.7568 H   0  0  0  0  0  0  0  0  0  0  0  0
  135.4736   69.7186  224.6961 H   0  0  0  0  0  0  0  0  0  0  0  0
  136.0941   67.6203  223.5938 H   0  0  0  0  0  0  0  0  0  0  0  0
  137.0977   67.5490  221.3400 H   0  0  0  0  0  0  0  0  0  0  0  0
  137.4884   69.7126  220.1458 H   0  0  0  0  0  0  0  0  0  0  0  0
  137.7805   72.1032  220.3944 H   0  0  0  0  0  0  0  0  0  0  0  0
  136.0351   72.4776  220.4936 H   0  0  0  0  0  0  0  0  0  0  0  0
  1  2  2  0
  2  3  1  0
  3  4  1  0
  4  5  1  0
  5  6  1  0
  6  7  1  0
  7  8  1  0
  8  9  1  0
  9 10  1  0
 10 11  1  0
  2 12  1  0
 12 13  2  0
 13 14  1  0
 14 15  2  0
 15 16  1  0
 16 17  1  0
 17 18  1  0
 18 19  1  0
 19 20  2  0
 20 21  1  0
 21 22  2  0
 22 23  1  0
 23 24  2  0
 24 25  1  0
 15 26  1  0
 26 27  2  0
 27 28  1  0
 28 29  1  0
 29 30  1  0
 30 31  1  0
 31 32  2  0
 32 33  1  0
 33 34  2  0
 34 35  1  0
 35 36  2  0
 36 37  1  0
 11  6  1  0
 27 12  1  0
 37 28  1  0
 25 16  1  0
 36 31  1  0
 24 19  1  0
  3 38  1  0
  4 39  1  0
  4 40  1  0
  5 41  1  0
  5 42  1  0
  6 43  1  0
  7 44  1  0
  7 45  1  0
  8 46  1  0
  8 47  1  0
  9 48  1  0
 10 49  1  0
 10 50  1  0
 11 51  1  0
 11 52  1  0
 13 53  1  0
 17 54  1  0
 17 55  1  0
 18 56  1  0
 18 57  1  0
 20 58  1  0
 21 59  1  0
 22 60  1  0
 23 61  1  0
 25 62  1  0
 25 63  1  0
 29 64  1  0
 29 65  1  0
 30 66  1  0
 30 67  1  0
 32 68  1  0
 33 69  1  0
 34 70  1  0
 35 71  1  0
 37 72  1  0
 37 73  1  0
M  END
>  <smiles>  (17) 
O=C(NCCC1CCNCC1)c1cnc(N2CCc3ccccc3C2)nc1N1CCc2ccccc2C1

>  <score_type>  (17) 
oracle

>  <origin>  (17) 
autodockgpu

>  <m_score__min__energy>  (17) 
-10.130000000000001

>  <m_primary>  (17) 
energy

>  <rmsd>  (17) 
9.069828240284775

>  <m_score__min__rmsd>  (17) 
9.069828240284775

>  <meeko>  (17) 
{"free_energy": -8.65, "intermolecular_energy": -10.44, "internal_energy": -2.04, "cluster_size": 4, "cluster_id": 4, "rank_in_cluster": 3}

>  <energy>  (17) 
-10.0

>  <cluster_rmsd>  (17) 
0.49

>  <cluster>  (17) 
2

$$$$

     RDKit          3D

 73 78  0  0  0  0  0  0  0  0999 V2000
  136.4640   71.2270  221.6140 O   0  0  0  0  0  0  0  0  0  0  0  0
  137.1560   71.7570  222.5050 C   0  0  0  0  0  0  0  0  0  0  0  0
  136.7970   71.5190  223.8720 N   0  0  0  0  0  0  0  0  0  0  0  0
  135.6380   70.6730  224.2090 C   0  0  0  0  0  0  0  0  0  0  0  0
  134.3280   71.3120  223.9290 C   0  0  0  0  0  0  0  0  0  0  0  0
  133.7630   71.9190  225.1720 C   0  0  0  0  0  0  0  0  0  0  0  0
  134.0100   71.0180  226.3900 C   0  0  0  0  0  0  0  0  0  0  0  0
  133.7200   71.8900  227.6100 C   0  0  0  0  0  0  0  0  0  0  0  0
  132.6930   72.8660  227.3570 N   0  0  0  0  0  0  0  0  0  0  0  0
  133.2310   73.8900  226.4700 C   0  0  0  0  0  0  0  0  0  0  0  0
  134.2890   73.2620  225.5450 C   0  0  0  0  0  0  0  0  0  0  0  0
  138.3140   72.6060  222.2840 C   0  0  0  0  0  0  0  0  0  0  0  0
  138.0640   73.8140  221.6220 C   0  0  0  0  0  0  0  0  0  0  0  0
  139.0530   74.6490  221.3670 N   0  0  0  0  0  0  0  0  0  0  0  0
  140.3120   74.3440  221.7440 C   0  0  0  0  0  0  0  0  0  0  0  0
  141.3140   75.2990  221.4190 N   0  0  0  0  0  0  0  0  0  0  0  0
  142.5520   74.9560  220.7470 C   0  0  0  0  0  0  0  0  0  0  0  0
  142.7820   75.7210  219.4750 C   0  0  0  0  0  0  0  0  0  0  0  0
  142.0220   76.9700  219.4320 C   0  0  0  0  0  0  0  0  0  0  0  0
  142.0870   77.7090  218.2450 C   0  0  0  0  0  0  0  0  0  0  0  0
  141.4150   78.8980  218.0930 C   0  0  0  0  0  0  0  0  0  0  0  0
  140.6570   79.4010  219.0980 C   0  0  0  0  0  0  0  0  0  0  0  0
  140.5650   78.6960  220.3050 C   0  0  0  0  0  0  0  0  0  0  0  0
  141.2510   77.5000  220.4340 C   0  0  0  0  0  0  0  0  0  0  0  0
  141.1530   76.7310  221.7320 C   0  0  0  0  0  0  0  0  0  0  0  0
  140.5580   73.2030  222.3720 N   0  0  0  0  0  0  0  0  0  0  0  0
  139.5910   72.2850  222.6720 C   0  0  0  0  0  0  0  0  0  0  0  0
  139.9560   71.1010  223.3430 N   0  0  0  0  0  0  0  0  0  0  0  0
  139.3800   69.8070  223.1850 C   0  0  0  0  0  0  0  0  0  0  0  0
  138.9680   69.1830  224.5010 C   0  0  0  0  0  0  0  0  0  0  0  0
  139.5570   69.8300  225.6790 C   0  0  0  0  0  0  0  0  0  0  0  0
  139.0660   69.4310  226.9260 C   0  0  0  0  0  0  0  0  0  0  0  0
  139.5850   70.0080  228.0580 C   0  0  0  0  0  0  0  0  0  0  0  0
  140.5720   70.9710  228.0450 C   0  0  0  0  0  0  0  0  0  0  0  0
  141.0560   71.3640  226.8200 C   0  0  0  0  0  0  0  0  0  0  0  0
  140.5370   70.7850  225.6600 C   0  0  0  0  0  0  0  0  0  0  0  0
  141.0550   71.2120  224.3240 C   0  0  0  0  0  0  0  0  0  0  0  0
  137.3810   71.9640  224.6380 H   0  0  0  0  0  0  0  0  0  0  0  0
  135.7037   69.7450  223.6220 H   0  0  0  0  0  0  0  0  0  0  0  0
  135.6797   70.4896  225.2928 H   0  0  0  0  0  0  0  0  0  0  0  0
  134.4638   72.0985  223.1720 H   0  0  0  0  0  0  0  0  0  0  0  0
  133.6309   70.5453  223.5601 H   0  0  0  0  0  0  0  0  0  0  0  0
  132.6981   72.0285  224.9190 H   0  0  0  0  0  0  0  0  0  0  0  0
  133.3347   70.1499  226.3690 H   0  0  0  0  0  0  0  0  0  0  0  0
  135.0374   70.6253  226.4047 H   0  0  0  0  0  0  0  0  0  0  0  0
  133.3952   71.2423  228.4376 H   0  0  0  0  0  0  0  0  0  0  0  0
  134.6433   72.4329  227.8604 H   0  0  0  0  0  0  0  0  0  0  0  0
  132.5010   73.3360  228.2640 H   0  0  0  0  0  0  0  0  0  0  0  0
  132.4175   74.3134  225.8625 H   0  0  0  0  0  0  0  0  0  0  0  0
  133.6943   74.6879  227.0690 H   0  0  0  0  0  0  0  0  0  0  0  0
  134.4272   73.8814  224.6465 H   0  0  0  0  0  0  0  0  0  0  0  0
  135.2668   73.1876  226.0434 H   0  0  0  0  0  0  0  0  0  0  0  0
  137.0392   74.0678  221.3133 H   0  0  0  0  0  0  0  0  0  0  0  0
  143.3875   75.1625  221.4321 H   0  0  0  0  0  0  0  0  0  0  0  0
  142.4851   73.8925  220.4742 H   0  0  0  0  0  0  0  0  0  0  0  0
  143.8534   75.9561  219.3927 H   0  0  0  0  0  0  0  0  0  0  0  0
  142.4427   75.0922  218.6387 H   0  0  0  0  0  0  0  0  0  0  0  0
  142.6932   77.3272  217.4102 H   0  0  0  0  0  0  0  0  0  0  0  0
  141.4931   79.4485  217.1439 H   0  0  0  0  0  0  0  0  0  0  0  0
  140.1201   80.3521  218.9672 H   0  0  0  0  0  0  0  0  0  0  0  0
  139.9584   79.0856  221.1358 H   0  0  0  0  0  0  0  0  0  0  0  0
  141.9473   77.0555  222.4204 H   0  0  0  0  0  0  0  0  0  0  0  0
  140.1813   76.9126  222.2145 H   0  0  0  0  0  0  0  0  0  0  0  0
  138.4905   69.8943  222.5438 H   0  0  0  0  0  0  0  0  0  0  0  0
  140.1451   69.1568  222.7357 H   0  0  0  0  0  0  0  0  0  0  0  0
  137.8729   69.2435  224.5846 H   0  0  0  0  0  0  0  0  0  0  0  0
  139.3356   68.1463  224.4904 H   0  0  0  0  0  0  0  0  0  0  0  0
  138.2772   68.6677  226.9985 H   0  0  0  0  0  0  0  0  0  0  0  0
  139.1908   69.6834  229.0323 H   0  0  0  0  0  0  0  0  0  0  0  0
  140.9569   71.4076  228.9784 H   0  0  0  0  0  0  0  0  0  0  0  0
  141.8450   72.1276  226.7540 H   0  0  0  0  0  0  0  0  0  0  0  0
  141.4033   72.2541  224.3759 H   0  0  0  0  0  0  0  0  0  0  0  0
  141.8980   70.5728  224.0225 H   0  0  0  0  0  0  0  0  0  0  0  0
  1  2  2  0
  2  3  1  0
  3  4  1  0
  4  5  1  0
  5  6  1  0
  6  7  1  0
  7  8  1  0
  8  9  1  0
  9 10  1  0
 10 11  1  0
  2 12  1  0
 12 13  2  0
 13 14  1  0
 14 15  2  0
 15 16  1  0
 16 17  1  0
 17 18  1  0
 18 19  1  0
 19 20  2  0
 20 21  1  0
 21 22  2  0
 22 23  1  0
 23 24  2  0
 24 25  1  0
 15 26  1  0
 26 27  2  0
 27 28  1  0
 28 29  1  0
 29 30  1  0
 30 31  1  0
 31 32  2  0
 32 33  1  0
 33 34  2  0
 34 35  1  0
 35 36  2  0
 36 37  1  0
 11  6  1  0
 27 12  1  0
 37 28  1  0
 25 16  1  0
 36 31  1  0
 24 19  1  0
  3 38  1  0
  4 39  1  0
  4 40  1  0
  5 41  1  0
  5 42  1  0
  6 43  1  0
  7 44  1  0
  7 45  1  0
  8 46  1  0
  8 47  1  0
  9 48  1  0
 10 49  1  0
 10 50  1  0
 11 51  1  0
 11 52  1  0
 13 53  1  0
 17 54  1  0
 17 55  1  0
 18 56  1  0
 18 57  1  0
 20 58  1  0
 21 59  1  0
 22 60  1  0
 23 61  1  0
 25 62  1  0
 25 63  1  0
 29 64  1  0
 29 65  1  0
 30 66  1  0
 30 67  1  0
 32 68  1  0
 33 69  1  0
 34 70  1  0
 35 71  1  0
 37 72  1  0
 37 73  1  0
M  END
>  <smiles>  (18) 
O=C(NCCC1CCNCC1)c1cnc(N2CCc3ccccc3C2)nc1N1CCc2ccccc2C1

>  <score_type>  (18) 
oracle

>  <origin>  (18) 
autodockgpu

>  <m_score__min__energy>  (18) 
-10.130000000000001

>  <m_primary>  (18) 
energy

>  <rmsd>  (18) 
9.49441455730031

>  <m_score__min__rmsd>  (18) 
9.49441455730031

>  <meeko>  (18) 
{"free_energy": -9.27, "intermolecular_energy": -11.06, "internal_energy": -1.53, "cluster_size": 30, "cluster_id": 2, "rank_in_cluster": 18}

>  <energy>  (18) 
-9.98

>  <cluster_rmsd>  (18) 
0.12

>  <cluster>  (18) 
2

$$$$

     RDKit          3D

 73 78  0  0  0  0  0  0  0  0999 V2000
  140.3060   70.9730  221.4700 O   0  0  0  0  0  0  0  0  0  0  0  0
  139.7530   71.7600  222.2620 C   0  0  0  0  0  0  0  0  0  0  0  0
  139.2270   71.2310  223.4850 N   0  0  0  0  0  0  0  0  0  0  0  0
  139.3360   69.7930  223.7920 C   0  0  0  0  0  0  0  0  0  0  0  0
  138.9390   69.4450  225.1790 C   0  0  0  0  0  0  0  0  0  0  0  0
  139.7200   70.2510  226.1670 C   0  0  0  0  0  0  0  0  0  0  0  0
  139.9250   69.4750  227.4750 C   0  0  0  0  0  0  0  0  0  0  0  0
  141.0100   70.2350  228.2360 C   0  0  0  0  0  0  0  0  0  0  0  0
  140.9740   71.6500  227.9790 N   0  0  0  0  0  0  0  0  0  0  0  0
  141.4390   71.8900  226.6190 C   0  0  0  0  0  0  0  0  0  0  0  0
  141.0770   70.6850  225.7330 C   0  0  0  0  0  0  0  0  0  0  0  0
  139.5910   73.1900  222.0590 C   0  0  0  0  0  0  0  0  0  0  0  0
  140.7760   73.9250  221.9430 C   0  0  0  0  0  0  0  0  0  0  0  0
  140.7340   75.2320  221.7650 N   0  0  0  0  0  0  0  0  0  0  0  0
  139.5460   75.8670  221.6930 C   0  0  0  0  0  0  0  0  0  0  0  0
  139.5960   77.2760  221.5100 N   0  0  0  0  0  0  0  0  0  0  0  0
  138.4830   78.1580  221.8020 C   0  0  0  0  0  0  0  0  0  0  0  0
  138.8150   79.2480  222.7800 C   0  0  0  0  0  0  0  0  0  0  0  0
  140.2510   79.5200  222.8440 C   0  0  0  0  0  0  0  0  0  0  0  0
  140.6760   80.4490  223.8010 C   0  0  0  0  0  0  0  0  0  0  0  0
  142.0020   80.7830  223.9480 C   0  0  0  0  0  0  0  0  0  0  0  0
  142.9520   80.2170  223.1650 C   0  0  0  0  0  0  0  0  0  0  0  0
  142.5720   79.2820  222.1930 C   0  0  0  0  0  0  0  0  0  0  0  0
  141.2310   78.9620  222.0630 C   0  0  0  0  0  0  0  0  0  0  0  0
  140.8130   77.9510  221.0190 C   0  0  0  0  0  0  0  0  0  0  0  0
  138.4180   75.1790  221.8010 N   0  0  0  0  0  0  0  0  0  0  0  0
  138.3770   73.8260  221.9870 C   0  0  0  0  0  0  0  0  0  0  0  0
  137.1240   73.1870  222.0900 N   0  0  0  0  0  0  0  0  0  0  0  0
  136.1150   73.4210  223.0690 C   0  0  0  0  0  0  0  0  0  0  0  0
  135.6440   72.1480  223.7410 C   0  0  0  0  0  0  0  0  0  0  0  0
  136.0190   70.9220  223.0280 C   0  0  0  0  0  0  0  0  0  0  0  0
  135.7880   69.7130  223.6920 C   0  0  0  0  0  0  0  0  0  0  0  0
  136.1240   68.5380  223.0660 C   0  0  0  0  0  0  0  0  0  0  0  0
  136.6830   68.4720  221.8070 C   0  0  0  0  0  0  0  0  0  0  0  0
  136.9110   69.6600  221.1530 C   0  0  0  0  0  0  0  0  0  0  0  0
  136.5750   70.8620  221.7780 C   0  0  0  0  0  0  0  0  0  0  0  0
  136.8250   72.1570  221.0750 C   0  0  0  0  0  0  0  0  0  0  0  0
  138.7570   71.8930  224.1680 H   0  0  0  0  0  0  0  0  0  0  0  0
  138.6877   69.2398  223.0965 H   0  0  0  0  0  0  0  0  0  0  0  0
  140.3967   69.5219  223.6847 H   0  0  0  0  0  0  0  0  0  0  0  0
  137.8666   69.6515  225.3109 H   0  0  0  0  0  0  0  0  0  0  0  0
  139.1444   68.3779  225.3499 H   0  0  0  0  0  0  0  0  0  0  0  0
  139.0968   71.1496  226.2861 H   0  0  0  0  0  0  0  0  0  0  0  0
  138.9923   69.4508  228.0576 H   0  0  0  0  0  0  0  0  0  0  0  0
  140.2139   68.4302  227.2882 H   0  0  0  0  0  0  0  0  0  0  0  0
  140.8675   70.0684  229.3139 H   0  0  0  0  0  0  0  0  0  0  0  0
  141.9851   69.8577  227.8941 H   0  0  0  0  0  0  0  0  0  0  0  0
  141.6760   72.0840  228.6110 H   0  0  0  0  0  0  0  0  0  0  0  0
  140.9574   72.7954  226.2212 H   0  0  0  0  0  0  0  0  0  0  0  0
  142.5304   72.0271  226.6235 H   0  0  0  0  0  0  0  0  0  0  0  0
  141.0635   70.9798  224.6733 H   0  0  0  0  0  0  0  0  0  0  0  0
  141.8123   69.8733  225.8358 H   0  0  0  0  0  0  0  0  0  0  0  0
  141.7469   73.4111  222.0004 H   0  0  0  0  0  0  0  0  0  0  0  0
  138.1537   78.6241  220.8616 H   0  0  0  0  0  0  0  0  0  0  0  0
  137.6976   77.5414  222.2634 H   0  0  0  0  0  0  0  0  0  0  0  0
  138.2943   80.1676  222.4746 H   0  0  0  0  0  0  0  0  0  0  0  0
  138.4915   78.9146  223.7771 H   0  0  0  0  0  0  0  0  0  0  0  0
  139.9290   80.9249  224.4533 H   0  0  0  0  0  0  0  0  0  0  0  0
  142.2951   81.5191  224.7111 H   0  0  0  0  0  0  0  0  0  0  0  0
  144.0104   80.4887  223.2911 H   0  0  0  0  0  0  0  0  0  0  0  0
  143.3254   78.8106  221.5448 H   0  0  0  0  0  0  0  0  0  0  0  0
  140.6007   78.4608  220.0677 H   0  0  0  0  0  0  0  0  0  0  0  0
  141.6166   77.2197  220.8474 H   0  0  0  0  0  0  0  0  0  0  0  0
  136.5206   74.0951  223.8378 H   0  0  0  0  0  0  0  0  0  0  0  0
  135.2497   73.8638  222.5541 H   0  0  0  0  0  0  0  0  0  0  0  0
  136.0799   72.1081  224.7502 H   0  0  0  0  0  0  0  0  0  0  0  0
  134.5447   72.1840  223.7550 H   0  0  0  0  0  0  0  0  0  0  0  0
  135.3447   69.7035  224.6987 H   0  0  0  0  0  0  0  0  0  0  0  0
  135.9364   67.5946  223.5997 H   0  0  0  0  0  0  0  0  0  0  0  0
  136.9366   67.5069  221.3441 H   0  0  0  0  0  0  0  0  0  0  0  0
  137.3542   69.6630  220.1463 H   0  0  0  0  0  0  0  0  0  0  0  0
  137.6800   72.0497  220.3912 H   0  0  0  0  0  0  0  0  0  0  0  0
  135.9395   72.4474  220.4906 H   0  0  0  0  0  0  0  0  0  0  0  0
  1  2  2  0
  2  3  1  0
  3  4  1  0
  4  5  1  0
  5  6  1  0
  6  7  1  0
  7  8  1  0
  8  9  1  0
  9 10  1  0
 10 11  1  0
  2 12  1  0
 12 13  2  0
 13 14  1  0
 14 15  2  0
 15 16  1  0
 16 17  1  0
 17 18  1  0
 18 19  1  0
 19 20  2  0
 20 21  1  0
 21 22  2  0
 22 23  1  0
 23 24  2  0
 24 25  1  0
 15 26  1  0
 26 27  2  0
 27 28  1  0
 28 29  1  0
 29 30  1  0
 30 31  1  0
 31 32  2  0
 32 33  1  0
 33 34  2  0
 34 35  1  0
 35 36  2  0
 36 37  1  0
 11  6  1  0
 27 12  1  0
 37 28  1  0
 25 16  1  0
 36 31  1  0
 24 19  1  0
  3 38  1  0
  4 39  1  0
  4 40  1  0
  5 41  1  0
  5 42  1  0
  6 43  1  0
  7 44  1  0
  7 45  1  0
  8 46  1  0
  8 47  1  0
  9 48  1  0
 10 49  1  0
 10 50  1  0
 11 51  1  0
 11 52  1  0
 13 53  1  0
 17 54  1  0
 17 55  1  0
 18 56  1  0
 18 57  1  0
 20 58  1  0
 21 59  1  0
 22 60  1  0
 23 61  1  0
 25 62  1  0
 25 63  1  0
 29 64  1  0
 29 65  1  0
 30 66  1  0
 30 67  1  0
 32 68  1  0
 33 69  1  0
 34 70  1  0
 35 71  1  0
 37 72  1  0
 37 73  1  0
M  END
>  <smiles>  (19) 
O=C(NCCC1CCNCC1)c1cnc(N2CCc3ccccc3C2)nc1N1CCc2ccccc2C1

>  <score_type>  (19) 
oracle

>  <origin>  (19) 
autodockgpu

>  <m_score__min__energy>  (19) 
-10.130000000000001

>  <m_primary>  (19) 
energy

>  <rmsd>  (19) 
9.06373378956632

>  <m_score__min__rmsd>  (19) 
9.06373378956632

>  <meeko>  (19) 
{"free_energy": -8.63, "intermolecular_energy": -10.42, "internal_energy": -2.09, "cluster_size": 4, "cluster_id": 4, "rank_in_cluster": 4}

>  <energy>  (19) 
-9.95

>  <cluster_rmsd>  (19) 
0.42

>  <cluster>  (19) 
2

$$$$

     RDKit          3D

 73 78  0  0  0  0  0  0  0  0999 V2000
  139.9470   73.9700  222.1970 O   0  0  0  0  0  0  0  0  0  0  0  0
  139.3340   72.9180  221.9270 C   0  0  0  0  0  0  0  0  0  0  0  0
  139.8660   72.0710  220.9010 N   0  0  0  0  0  0  0  0  0  0  0  0
  141.1010   72.4380  220.1850 C   0  0  0  0  0  0  0  0  0  0  0  0
  142.3020   71.6960  220.6450 C   0  0  0  0  0  0  0  0  0  0  0  0
  143.5240   72.5470  220.5220 C   0  0  0  0  0  0  0  0  0  0  0  0
  144.5950   71.8570  219.6650 C   0  0  0  0  0  0  0  0  0  0  0  0
  145.6110   72.9460  219.3260 C   0  0  0  0  0  0  0  0  0  0  0  0
  145.7340   73.9290  220.3690 N   0  0  0  0  0  0  0  0  0  0  0  0
  144.5250   74.7440  220.3870 C   0  0  0  0  0  0  0  0  0  0  0  0
  143.3280   73.8960  219.9220 C   0  0  0  0  0  0  0  0  0  0  0  0
  138.1120   72.4630  222.5670 C   0  0  0  0  0  0  0  0  0  0  0  0
  136.9480   73.1560  222.2180 C   0  0  0  0  0  0  0  0  0  0  0  0
  135.7890   72.8230  222.7520 N   0  0  0  0  0  0  0  0  0  0  0  0
  135.7200   71.8100  223.6410 C   0  0  0  0  0  0  0  0  0  0  0  0
  134.4320   71.5270  224.1730 N   0  0  0  0  0  0  0  0  0  0  0  0
  134.1480   70.3730  225.0020 C   0  0  0  0  0  0  0  0  0  0  0  0
  133.5580   70.7190  226.3390 C   0  0  0  0  0  0  0  0  0  0  0  0
  132.9260   72.0380  226.3440 C   0  0  0  0  0  0  0  0  0  0  0  0
  132.4340   72.4980  227.5710 C   0  0  0  0  0  0  0  0  0  0  0  0
  131.8200   73.7220  227.6930 C   0  0  0  0  0  0  0  0  0  0  0  0
  131.6690   74.5340  226.6180 C   0  0  0  0  0  0  0  0  0  0  0  0
  132.1450   74.1130  225.3690 C   0  0  0  0  0  0  0  0  0  0  0  0
  132.7600   72.8750  225.2720 C   0  0  0  0  0  0  0  0  0  0  0  0
  133.2800   72.4160  223.9280 C   0  0  0  0  0  0  0  0  0  0  0  0
  136.8180   71.1470  223.9780 N   0  0  0  0  0  0  0  0  0  0  0  0
  138.0540   71.4310  223.4700 C   0  0  0  0  0  0  0  0  0  0  0  0
  139.1590   70.6660  223.8940 N   0  0  0  0  0  0  0  0  0  0  0  0
  139.2760   69.2450  223.8930 C   0  0  0  0  0  0  0  0  0  0  0  0
  139.7110   68.6910  225.2340 C   0  0  0  0  0  0  0  0  0  0  0  0
  140.2750   69.6970  226.1410 C   0  0  0  0  0  0  0  0  0  0  0  0
  140.5120   69.2920  227.4580 C   0  0  0  0  0  0  0  0  0  0  0  0
  141.0380   70.1980  228.3460 C   0  0  0  0  0  0  0  0  0  0  0  0
  141.3520   71.4990  228.0180 C   0  0  0  0  0  0  0  0  0  0  0  0
  141.1200   71.8990  226.7230 C   0  0  0  0  0  0  0  0  0  0  0  0
  140.5850   70.9890  225.8100 C   0  0  0  0  0  0  0  0  0  0  0  0
  140.3240   71.4180  224.4020 C   0  0  0  0  0  0  0  0  0  0  0  0
  139.3540   71.1720  220.6650 H   0  0  0  0  0  0  0  0  0  0  0  0
  140.9553   72.2328  219.1142 H   0  0  0  0  0  0  0  0  0  0  0  0
  141.2849   73.5034  220.3877 H   0  0  0  0  0  0  0  0  0  0  0  0
  142.1672   71.4067  221.6977 H   0  0  0  0  0  0  0  0  0  0  0  0
  142.4281   70.8010  220.0180 H   0  0  0  0  0  0  0  0  0  0  0  0
  143.8249   72.6821  221.5714 H   0  0  0  0  0  0  0  0  0  0  0  0
  145.0759   71.0454  220.2307 H   0  0  0  0  0  0  0  0  0  0  0  0
  144.1640   71.4050  218.7595 H   0  0  0  0  0  0  0  0  0  0  0  0
  146.5925   72.4755  219.1672 H   0  0  0  0  0  0  0  0  0  0  0  0
  145.2583   73.4618  218.4207 H   0  0  0  0  0  0  0  0  0  0  0  0
  146.5100   74.5610  220.0910 H   0  0  0  0  0  0  0  0  0  0  0  0
  144.3424   75.1066  221.4093 H   0  0  0  0  0  0  0  0  0  0  0  0
  144.6512   75.6023  219.7107 H   0  0  0  0  0  0  0  0  0  0  0  0
  142.3853   74.3387  220.2760 H   0  0  0  0  0  0  0  0  0  0  0  0
  143.2720   73.8450  218.8246 H   0  0  0  0  0  0  0  0  0  0  0  0
  136.9997   73.9829  221.4945 H   0  0  0  0  0  0  0  0  0  0  0  0
  133.4373   69.7270  224.4658 H   0  0  0  0  0  0  0  0  0  0  0  0
  135.1083   69.8723  225.1949 H   0  0  0  0  0  0  0  0  0  0  0  0
  132.8014   69.9636  226.5976 H   0  0  0  0  0  0  0  0  0  0  0  0
  134.3770   70.7363  227.0731 H   0  0  0  0  0  0  0  0  0  0  0  0
  132.5416   71.8625  228.4624 H   0  0  0  0  0  0  0  0  0  0  0  0
  131.4465   74.0466  228.6754 H   0  0  0  0  0  0  0  0  0  0  0  0
  131.1782   75.5126  226.7249 H   0  0  0  0  0  0  0  0  0  0  0  0
  132.0325   74.7535  224.4818 H   0  0  0  0  0  0  0  0  0  0  0  0
  132.4927   71.8691  223.3885 H   0  0  0  0  0  0  0  0  0  0  0  0
  133.5822   73.2789  223.3165 H   0  0  0  0  0  0  0  0  0  0  0  0
  138.2985   68.8120  223.6342 H   0  0  0  0  0  0  0  0  0  0  0  0
  140.0487   68.9768  223.1574 H   0  0  0  0  0  0  0  0  0  0  0  0
  138.8352   68.2380  225.7216 H   0  0  0  0  0  0  0  0  0  0  0  0
  140.5089   67.9610  225.0329 H   0  0  0  0  0  0  0  0  0  0  0  0
  140.2811   68.2651  227.7775 H   0  0  0  0  0  0  0  0  0  0  0  0
  141.2191   69.8659  229.3789 H   0  0  0  0  0  0  0  0  0  0  0  0
  141.7719   72.1907  228.7631 H   0  0  0  0  0  0  0  0  0  0  0  0
  141.3540   72.9271  226.4094 H   0  0  0  0  0  0  0  0  0  0  0  0
  140.1100   72.4967  224.3759 H   0  0  0  0  0  0  0  0  0  0  0  0
  141.2059   71.2169  223.7760 H   0  0  0  0  0  0  0  0  0  0  0  0
  1  2  2  0
  2  3  1  0
  3  4  1  0
  4  5  1  0
  5  6  1  0
  6  7  1  0
  7  8  1  0
  8  9  1  0
  9 10  1  0
 10 11  1  0
  2 12  1  0
 12 13  2  0
 13 14  1  0
 14 15  2  0
 15 16  1  0
 16 17  1  0
 17 18  1  0
 18 19  1  0
 19 20  2  0
 20 21  1  0
 21 22  2  0
 22 23  1  0
 23 24  2  0
 24 25  1  0
 15 26  1  0
 26 27  2  0
 27 28  1  0
 28 29  1  0
 29 30  1  0
 30 31  1  0
 31 32  2  0
 32 33  1  0
 33 34  2  0
 34 35  1  0
 35 36  2  0
 36 37  1  0
 11  6  1  0
 27 12  1  0
 37 28  1  0
 25 16  1  0
 36 31  1  0
 24 19  1  0
  3 38  1  0
  4 39  1  0
  4 40  1  0
  5 41  1  0
  5 42  1  0
  6 43  1  0
  7 44  1  0
  7 45  1  0
  8 46  1  0
  8 47  1  0
  9 48  1  0
 10 49  1  0
 10 50  1  0
 11 51  1  0
 11 52  1  0
 13 53  1  0
 17 54  1  0
 17 55  1  0
 18 56  1  0
 18 57  1  0
 20 58  1  0
 21 59  1  0
 22 60  1  0
 23 61  1  0
 25 62  1  0
 25 63  1  0
 29 64  1  0
 29 65  1  0
 30 66  1  0
 30 67  1  0
 32 68  1  0
 33 69  1  0
 34 70  1  0
 35 71  1  0
 37 72  1  0
 37 73  1  0
M  END
>  <smiles>  (20) 
O=C(NCCC1CCNCC1)c1cnc(N2CCc3ccccc3C2)nc1N1CCc2ccccc2C1

>  <score_type>  (20) 
oracle

>  <origin>  (20) 
autodockgpu

>  <m_score__min__energy>  (20) 
-10.130000000000001

>  <m_primary>  (20) 
energy

>  <rmsd>  (20) 
6.82615455733609

>  <m_score__min__rmsd>  (20) 
6.82615455733609

>  <meeko>  (20) 
{"free_energy": -9.66, "intermolecular_energy": -11.45, "internal_energy": -1.28, "cluster_size": 15, "cluster_id": 1, "rank_in_cluster": 6}

>  <energy>  (20) 
-9.85

>  <cluster_rmsd>  (20) 
0.46

>  <cluster>  (20) 
2

$$$$

     RDKit          3D

 73 78  0  0  0  0  0  0  0  0999 V2000
  135.3920   74.0970  221.5610 O   0  0  0  0  0  0  0  0  0  0  0  0
  136.3650   73.9620  222.3270 C   0  0  0  0  0  0  0  0  0  0  0  0
  136.2440   73.0400  223.4180 N   0  0  0  0  0  0  0  0  0  0  0  0
  134.9990   72.2790  223.6250 C   0  0  0  0  0  0  0  0  0  0  0  0
  134.5310   72.2680  225.0340 C   0  0  0  0  0  0  0  0  0  0  0  0
  134.2130   70.8750  225.4710 C   0  0  0  0  0  0  0  0  0  0  0  0
  132.7090   70.7050  225.7250 C   0  0  0  0  0  0  0  0  0  0  0  0
  132.4750   69.1980  225.8080 C   0  0  0  0  0  0  0  0  0  0  0  0
  133.6050   68.4950  226.3560 N   0  0  0  0  0  0  0  0  0  0  0  0
  134.6820   68.5050  225.3730 C   0  0  0  0  0  0  0  0  0  0  0  0
  134.5930   69.7870  224.5270 C   0  0  0  0  0  0  0  0  0  0  0  0
  137.6340   74.6610  222.2150 C   0  0  0  0  0  0  0  0  0  0  0  0
  137.5600   76.0580  222.2050 C   0  0  0  0  0  0  0  0  0  0  0  0
  138.6570   76.7820  222.0990 N   0  0  0  0  0  0  0  0  0  0  0  0
  139.8600   76.1780  221.9990 C   0  0  0  0  0  0  0  0  0  0  0  0
  140.9860   77.0380  221.8770 N   0  0  0  0  0  0  0  0  0  0  0  0
  141.7330   77.2010  220.6460 C   0  0  0  0  0  0  0  0  0  0  0  0
  141.8170   78.6250  220.1740 C   0  0  0  0  0  0  0  0  0  0  0  0
  141.5980   79.5840  221.2570 C   0  0  0  0  0  0  0  0  0  0  0  0
  141.5540   80.9380  220.9040 C   0  0  0  0  0  0  0  0  0  0  0  0
  141.3550   81.9250  221.8390 C   0  0  0  0  0  0  0  0  0  0  0  0
  141.1920   81.6180  223.1490 C   0  0  0  0  0  0  0  0  0  0  0  0
  141.2300   80.2760  223.5490 C   0  0  0  0  0  0  0  0  0  0  0  0
  141.4320   79.2990  222.5880 C   0  0  0  0  0  0  0  0  0  0  0  0
  141.4690   77.8480  223.0110 C   0  0  0  0  0  0  0  0  0  0  0  0
  139.9400   74.8550  222.0070 N   0  0  0  0  0  0  0  0  0  0  0  0
  138.8520   74.0360  222.1130 C   0  0  0  0  0  0  0  0  0  0  0  0
  139.0450   72.6390  222.1130 N   0  0  0  0  0  0  0  0  0  0  0  0
  138.2160   71.6550  221.4990 C   0  0  0  0  0  0  0  0  0  0  0  0
  137.8200   70.5450  222.4500 C   0  0  0  0  0  0  0  0  0  0  0  0
  138.6340   70.4850  223.6690 C   0  0  0  0  0  0  0  0  0  0  0  0
  138.1970   69.6150  224.6730 C   0  0  0  0  0  0  0  0  0  0  0  0
  138.9240   69.5250  225.8340 C   0  0  0  0  0  0  0  0  0  0  0  0
  140.0730   70.2470  226.0780 C   0  0  0  0  0  0  0  0  0  0  0  0
  140.5030   71.1030  225.0920 C   0  0  0  0  0  0  0  0  0  0  0  0
  139.7740   71.2060  223.9060 C   0  0  0  0  0  0  0  0  0  0  0  0
  140.2330   72.1380  222.8320 C   0  0  0  0  0  0  0  0  0  0  0  0
  137.0670   72.9150  224.0750 H   0  0  0  0  0  0  0  0  0  0  0  0
  134.2111   72.7265  223.0013 H   0  0  0  0  0  0  0  0  0  0  0  0
  135.2117   71.2354  223.3498 H   0  0  0  0  0  0  0  0  0  0  0  0
  135.3206   72.6784  225.6805 H   0  0  0  0  0  0  0  0  0  0  0  0
  133.6205   72.8805  225.1103 H   0  0  0  0  0  0  0  0  0  0  0  0
  134.8243   70.7661  226.3790 H   0  0  0  0  0  0  0  0  0  0  0  0
  132.4216   71.1909  226.6691 H   0  0  0  0  0  0  0  0  0  0  0  0
  132.1067   71.1675  224.9292 H   0  0  0  0  0  0  0  0  0  0  0  0
  131.5994   69.0115  226.4472 H   0  0  0  0  0  0  0  0  0  0  0  0
  132.3145   68.8274  224.7848 H   0  0  0  0  0  0  0  0  0  0  0  0
  133.3140   67.5040  226.4630 H   0  0  0  0  0  0  0  0  0  0  0  0
  135.6517   68.4745  225.8914 H   0  0  0  0  0  0  0  0  0  0  0  0
  134.5884   67.6264  224.7178 H   0  0  0  0  0  0  0  0  0  0  0  0
  135.5654   70.0065  224.0619 H   0  0  0  0  0  0  0  0  0  0  0  0
  133.8592   69.6837  223.7141 H   0  0  0  0  0  0  0  0  0  0  0  0
  136.5820   76.5549  222.2860 H   0  0  0  0  0  0  0  0  0  0  0  0
  142.7551   76.8281  220.8081 H   0  0  0  0  0  0  0  0  0  0  0  0
  141.1982   76.6358  219.8684 H   0  0  0  0  0  0  0  0  0  0  0  0
  142.8155   78.7972  219.7459 H   0  0  0  0  0  0  0  0  0  0  0  0
  141.0262   78.7779  219.4248 H   0  0  0  0  0  0  0  0  0  0  0  0
  141.6823   81.2197  219.8485 H   0  0  0  0  0  0  0  0  0  0  0  0
  141.3276   82.9775  221.5203 H   0  0  0  0  0  0  0  0  0  0  0  0
  141.0315   82.4145  223.8905 H   0  0  0  0  0  0  0  0  0  0  0  0
  141.1018   80.0030  224.6068 H   0  0  0  0  0  0  0  0  0  0  0  0
  142.4990   77.5584  223.2665 H   0  0  0  0  0  0  0  0  0  0  0  0
  140.8355   77.6884  223.8960 H   0  0  0  0  0  0  0  0  0  0  0  0
  137.3025   72.1450  221.1309 H   0  0  0  0  0  0  0  0  0  0  0  0
  138.7930   71.1998  220.6805 H   0  0  0  0  0  0  0  0  0  0  0  0
  136.7705   70.6977  222.7420 H   0  0  0  0  0  0  0  0  0  0  0  0
  137.9772   69.5966  221.9153 H   0  0  0  0  0  0  0  0  0  0  0  0
  137.2866   69.0133  224.5348 H   0  0  0  0  0  0  0  0  0  0  0  0
  138.5691   68.8367  226.6152 H   0  0  0  0  0  0  0  0  0  0  0  0
  140.6239   70.1422  227.0243 H   0  0  0  0  0  0  0  0  0  0  0  0
  141.4142   71.7020  225.2364 H   0  0  0  0  0  0  0  0  0  0  0  0
  140.7795   72.9811  223.2799 H   0  0  0  0  0  0  0  0  0  0  0  0
  140.9033   71.6127  222.1358 H   0  0  0  0  0  0  0  0  0  0  0  0
  1  2  2  0
  2  3  1  0
  3  4  1  0
  4  5  1  0
  5  6  1  0
  6  7  1  0
  7  8  1  0
  8  9  1  0
  9 10  1  0
 10 11  1  0
  2 12  1  0
 12 13  2  0
 13 14  1  0
 14 15  2  0
 15 16  1  0
 16 17  1  0
 17 18  1  0
 18 19  1  0
 19 20  2  0
 20 21  1  0
 21 22  2  0
 22 23  1  0
 23 24  2  0
 24 25  1  0
 15 26  1  0
 26 27  2  0
 27 28  1  0
 28 29  1  0
 29 30  1  0
 30 31  1  0
 31 32  2  0
 32 33  1  0
 33 34  2  0
 34 35  1  0
 35 36  2  0
 36 37  1  0
 11  6  1  0
 27 12  1  0
 37 28  1  0
 25 16  1  0
 36 31  1  0
 24 19  1  0
  3 38  1  0
  4 39  1  0
  4 40  1  0
  5 41  1  0
  5 42  1  0
  6 43  1  0
  7 44  1  0
  7 45  1  0
  8 46  1  0
  8 47  1  0
  9 48  1  0
 10 49  1  0
 10 50  1  0
 11 51  1  0
 11 52  1  0
 13 53  1  0
 17 54  1  0
 17 55  1  0
 18 56  1  0
 18 57  1  0
 20 58  1  0
 21 59  1  0
 22 60  1  0
 23 61  1  0
 25 62  1  0
 25 63  1  0
 29 64  1  0
 29 65  1  0
 30 66  1  0
 30 67  1  0
 32 68  1  0
 33 69  1  0
 34 70  1  0
 35 71  1  0
 37 72  1  0
 37 73  1  0
M  END
>  <smiles>  (21) 
O=C(NCCC1CCNCC1)c1cnc(N2CCc3ccccc3C2)nc1N1CCc2ccccc2C1

>  <score_type>  (21) 
oracle

>  <origin>  (21) 
autodockgpu

>  <m_score__min__energy>  (21) 
-10.130000000000001

>  <m_primary>  (21) 
energy

>  <rmsd>  (21) 
9.34898963400841

>  <m_score__min__rmsd>  (21) 
9.34898963400841

>  <meeko>  (21) 
{"free_energy": -9.05, "intermolecular_energy": -10.84, "internal_energy": -1.8, "cluster_size": 30, "cluster_id": 2, "rank_in_cluster": 22}

>  <energy>  (21) 
-9.84

>  <cluster_rmsd>  (21) 
0.49

>  <cluster>  (21) 
2

$$$$

     RDKit          3D

 73 78  0  0  0  0  0  0  0  0999 V2000
  135.9620   72.1150  221.5160 O   0  0  0  0  0  0  0  0  0  0  0  0
  136.7320   72.5130  222.4120 C   0  0  0  0  0  0  0  0  0  0  0  0
  136.5510   71.9960  223.7370 N   0  0  0  0  0  0  0  0  0  0  0  0
  135.4820   71.0230  224.0260 C   0  0  0  0  0  0  0  0  0  0  0  0
  134.1130   71.5700  223.8550 C   0  0  0  0  0  0  0  0  0  0  0  0
  133.5360   71.9640  225.1760 C   0  0  0  0  0  0  0  0  0  0  0  0
  133.9450   70.9750  226.2760 C   0  0  0  0  0  0  0  0  0  0  0  0
  133.6080   71.6670  227.5950 C   0  0  0  0  0  0  0  0  0  0  0  0
  132.4610   72.5290  227.4870 N   0  0  0  0  0  0  0  0  0  0  0  0
  132.8290   73.7010  226.7030 C   0  0  0  0  0  0  0  0  0  0  0  0
  133.9120   73.3150  225.6800 C   0  0  0  0  0  0  0  0  0  0  0  0
  137.8140   73.4670  222.2370 C   0  0  0  0  0  0  0  0  0  0  0  0
  137.4260   74.7760  221.9320 C   0  0  0  0  0  0  0  0  0  0  0  0
  138.3360   75.7130  221.7460 N   0  0  0  0  0  0  0  0  0  0  0  0
  139.6480   75.4130  221.8490 C   0  0  0  0  0  0  0  0  0  0  0  0
  140.5570   76.4820  221.6220 N   0  0  0  0  0  0  0  0  0  0  0  0
  140.9810   76.9000  220.3000 C   0  0  0  0  0  0  0  0  0  0  0  0
  140.7160   78.3500  220.0110 C   0  0  0  0  0  0  0  0  0  0  0  0
  140.5750   79.1450  221.2310 C   0  0  0  0  0  0  0  0  0  0  0  0
  140.2240   80.4910  221.0710 C   0  0  0  0  0  0  0  0  0  0  0  0
  140.0660   81.3310  222.1480 C   0  0  0  0  0  0  0  0  0  0  0  0
  140.2450   80.8800  223.4130 C   0  0  0  0  0  0  0  0  0  0  0  0
  140.5980   79.5400  223.6200 C   0  0  0  0  0  0  0  0  0  0  0  0
  140.7520   78.7130  222.5200 C   0  0  0  0  0  0  0  0  0  0  0  0
  141.1280   77.2640  222.7350 C   0  0  0  0  0  0  0  0  0  0  0  0
  140.0240   74.1750  222.1390 N   0  0  0  0  0  0  0  0  0  0  0  0
  139.1450   73.1500  222.3450 C   0  0  0  0  0  0  0  0  0  0  0  0
  139.6480   71.8680  222.6470 N   0  0  0  0  0  0  0  0  0  0  0  0
  139.2460   70.6270  222.0730 C   0  0  0  0  0  0  0  0  0  0  0  0
  138.8930   69.5850  223.1130 C   0  0  0  0  0  0  0  0  0  0  0  0
  139.3710   69.9040  224.4640 C   0  0  0  0  0  0  0  0  0  0  0  0
  138.9110   69.0880  225.5020 C   0  0  0  0  0  0  0  0  0  0  0  0
  139.3290   69.3470  226.7830 C   0  0  0  0  0  0  0  0  0  0  0  0
  140.1830   70.3760  227.1190 C   0  0  0  0  0  0  0  0  0  0  0  0
  140.6360   71.1800  226.0990 C   0  0  0  0  0  0  0  0  0  0  0  0
  140.2190   70.9280  224.7910 C   0  0  0  0  0  0  0  0  0  0  0  0
  140.7030   71.8010  223.6780 C   0  0  0  0  0  0  0  0  0  0  0  0
  137.2020   72.3260  224.5070 H   0  0  0  0  0  0  0  0  0  0  0  0
  135.6004   70.1656  223.3471 H   0  0  0  0  0  0  0  0  0  0  0  0
  135.5841   70.7391  225.0838 H   0  0  0  0  0  0  0  0  0  0  0  0
  134.1556   72.4535  223.2010 H   0  0  0  0  0  0  0  0  0  0  0  0
  133.4746   70.7949  223.4058 H   0  0  0  0  0  0  0  0  0  0  0  0
  132.4551   71.9657  224.9718 H   0  0  0  0  0  0  0  0  0  0  0  0
  133.3791   70.0368  226.1789 H   0  0  0  0  0  0  0  0  0  0  0  0
  135.0119   70.7145  226.2135 H   0  0  0  0  0  0  0  0  0  0  0  0
  133.4014   70.8982  228.3541 H   0  0  0  0  0  0  0  0  0  0  0  0
  134.4698   72.2905  227.8754 H   0  0  0  0  0  0  0  0  0  0  0  0
  132.2550   72.8700  228.4460 H   0  0  0  0  0  0  0  0  0  0  0  0
  131.9429   74.0806  226.1732 H   0  0  0  0  0  0  0  0  0  0  0  0
  133.2188   74.4820  227.3723 H   0  0  0  0  0  0  0  0  0  0  0  0
  133.9324   74.0398  224.8528 H   0  0  0  0  0  0  0  0  0  0  0  0
  134.9137   73.3117  226.1346 H   0  0  0  0  0  0  0  0  0  0  0  0
  136.3579   75.0250  221.8469 H   0  0  0  0  0  0  0  0  0  0  0  0
  142.0623   76.7198  220.2090 H   0  0  0  0  0  0  0  0  0  0  0  0
  140.3955   76.3156  219.5750 H   0  0  0  0  0  0  0  0  0  0  0  0
  141.5539   78.7518  219.4224 H   0  0  0  0  0  0  0  0  0  0  0  0
  139.7675   78.4138  219.4575 H   0  0  0  0  0  0  0  0  0  0  0  0
  140.0705   80.8871  220.0563 H   0  0  0  0  0  0  0  0  0  0  0  0
  139.7907   82.3827  221.9804 H   0  0  0  0  0  0  0  0  0  0  0  0
  140.1145   81.5588  224.2687 H   0  0  0  0  0  0  0  0  0  0  0  0
  140.7501   79.1519  224.6380 H   0  0  0  0  0  0  0  0  0  0  0  0
  142.2229   77.1585  222.7438 H   0  0  0  0  0  0  0  0  0  0  0  0
  140.7380   76.9039  223.6984 H   0  0  0  0  0  0  0  0  0  0  0  0
  138.3647   70.8026  221.4386 H   0  0  0  0  0  0  0  0  0  0  0  0
  140.0967   70.2401  221.4929 H   0  0  0  0  0  0  0  0  0  0  0  0
  137.7978   69.4879  223.1475 H   0  0  0  0  0  0  0  0  0  0  0  0
  139.3916   68.6522  222.8110 H   0  0  0  0  0  0  0  0  0  0  0  0
  138.2258   68.2527  225.2952 H   0  0  0  0  0  0  0  0  0  0  0  0
  138.9611   68.6954  227.5893 H   0  0  0  0  0  0  0  0  0  0  0  0
  140.4899   70.5472  228.1614 H   0  0  0  0  0  0  0  0  0  0  0  0
  141.3208   72.0141  226.3122 H   0  0  0  0  0  0  0  0  0  0  0  0
  140.9125   72.8104  224.0616 H   0  0  0  0  0  0  0  0  0  0  0  0
  141.6271   71.3878  223.2475 H   0  0  0  0  0  0  0  0  0  0  0  0
  1  2  2  0
  2  3  1  0
  3  4  1  0
  4  5  1  0
  5  6  1  0
  6  7  1  0
  7  8  1  0
  8  9  1  0
  9 10  1  0
 10 11  1  0
  2 12  1  0
 12 13  2  0
 13 14  1  0
 14 15  2  0
 15 16  1  0
 16 17  1  0
 17 18  1  0
 18 19  1  0
 19 20  2  0
 20 21  1  0
 21 22  2  0
 22 23  1  0
 23 24  2  0
 24 25  1  0
 15 26  1  0
 26 27  2  0
 27 28  1  0
 28 29  1  0
 29 30  1  0
 30 31  1  0
 31 32  2  0
 32 33  1  0
 33 34  2  0
 34 35  1  0
 35 36  2  0
 36 37  1  0
 11  6  1  0
 27 12  1  0
 37 28  1  0
 25 16  1  0
 36 31  1  0
 24 19  1  0
  3 38  1  0
  4 39  1  0
  4 40  1  0
  5 41  1  0
  5 42  1  0
  6 43  1  0
  7 44  1  0
  7 45  1  0
  8 46  1  0
  8 47  1  0
  9 48  1  0
 10 49  1  0
 10 50  1  0
 11 51  1  0
 11 52  1  0
 13 53  1  0
 17 54  1  0
 17 55  1  0
 18 56  1  0
 18 57  1  0
 20 58  1  0
 21 59  1  0
 22 60  1  0
 23 61  1  0
 25 62  1  0
 25 63  1  0
 29 64  1  0
 29 65  1  0
 30 66  1  0
 30 67  1  0
 32 68  1  0
 33 69  1  0
 34 70  1  0
 35 71  1  0
 37 72  1  0
 37 73  1  0
M  END
>  <smiles>  (22) 
O=C(NCCC1CCNCC1)c1cnc(N2CCc3ccccc3C2)nc1N1CCc2ccccc2C1

>  <score_type>  (22) 
oracle

>  <origin>  (22) 
autodockgpu

>  <m_score__min__energy>  (22) 
-10.130000000000001

>  <m_primary>  (22) 
energy

>  <rmsd>  (22) 
9.450401228776958

>  <m_score__min__rmsd>  (22) 
9.450401228776958

>  <meeko>  (22) 
{"free_energy": -9.48, "intermolecular_energy": -11.27, "internal_energy": -1.66, "cluster_size": 30, "cluster_id": 2, "rank_in_cluster": 14}

>  <energy>  (22) 
-9.82

>  <cluster_rmsd>  (22) 
0.26

>  <cluster>  (22) 
2

$$$$

     RDKit          3D

 73 78  0  0  0  0  0  0  0  0999 V2000
  135.8990   73.1460  221.0740 O   0  0  0  0  0  0  0  0  0  0  0  0
  136.6940   73.2860  222.0230 C   0  0  0  0  0  0  0  0  0  0  0  0
  136.4230   72.5830  223.2420 N   0  0  0  0  0  0  0  0  0  0  0  0
  135.2340   71.7210  223.3650 C   0  0  0  0  0  0  0  0  0  0  0  0
  135.0720   71.1130  224.7100 C   0  0  0  0  0  0  0  0  0  0  0  0
  134.3450   72.0460  225.6240 C   0  0  0  0  0  0  0  0  0  0  0  0
  134.3500   73.4780  225.0700 C   0  0  0  0  0  0  0  0  0  0  0  0
  133.3000   74.2340  225.8820 C   0  0  0  0  0  0  0  0  0  0  0  0
  133.1940   73.7500  227.2330 N   0  0  0  0  0  0  0  0  0  0  0  0
  132.5620   72.4370  227.2110 C   0  0  0  0  0  0  0  0  0  0  0  0
  132.9180   71.7180  225.8960 C   0  0  0  0  0  0  0  0  0  0  0  0
  137.8920   74.1090  222.0090 C   0  0  0  0  0  0  0  0  0  0  0  0
  137.6850   75.4800  221.8170 C   0  0  0  0  0  0  0  0  0  0  0  0
  138.7110   76.3090  221.7800 N   0  0  0  0  0  0  0  0  0  0  0  0
  139.9670   75.8380  221.9290 C   0  0  0  0  0  0  0  0  0  0  0  0
  141.0110   76.8020  221.8650 N   0  0  0  0  0  0  0  0  0  0  0  0
  141.7190   77.1290  220.6430 C   0  0  0  0  0  0  0  0  0  0  0  0
  141.6680   78.5880  220.2870 C   0  0  0  0  0  0  0  0  0  0  0  0
  141.3830   79.4340  221.4460 C   0  0  0  0  0  0  0  0  0  0  0  0
  141.2130   80.8020  221.2020 C   0  0  0  0  0  0  0  0  0  0  0  0
  140.9440   81.6910  222.2160 C   0  0  0  0  0  0  0  0  0  0  0  0
  140.8310   81.2680  223.4990 C   0  0  0  0  0  0  0  0  0  0  0  0
  140.9950   79.9070  223.7890 C   0  0  0  0  0  0  0  0  0  0  0  0
  141.2660   79.0310  222.7510 C   0  0  0  0  0  0  0  0  0  0  0  0
  141.4400   77.5600  223.0550 C   0  0  0  0  0  0  0  0  0  0  0  0
  140.1720   74.5410  222.1120 N   0  0  0  0  0  0  0  0  0  0  0  0
  139.1650   73.6200  222.1610 C   0  0  0  0  0  0  0  0  0  0  0  0
  139.4900   72.2620  222.3600 N   0  0  0  0  0  0  0  0  0  0  0  0
  138.8210   71.1270  221.8160 C   0  0  0  0  0  0  0  0  0  0  0  0
  138.4440   70.1070  222.8690 C   0  0  0  0  0  0  0  0  0  0  0  0
  139.1400   70.2840  224.1490 C   0  0  0  0  0  0  0  0  0  0  0  0
  138.6960   69.5030  225.2190 C   0  0  0  0  0  0  0  0  0  0  0  0
  139.3150   69.6340  226.4380 C   0  0  0  0  0  0  0  0  0  0  0  0
  140.3610   70.4990  226.6770 C   0  0  0  0  0  0  0  0  0  0  0  0
  140.7990   71.2690  225.6250 C   0  0  0  0  0  0  0  0  0  0  0  0
  140.1790   71.1460  224.3810 C   0  0  0  0  0  0  0  0  0  0  0  0
  140.6460   71.9830  223.2340 C   0  0  0  0  0  0  0  0  0  0  0  0
  137.0950   72.6940  224.0560 H   0  0  0  0  0  0  0  0  0  0  0  0
  134.3420   72.3273  223.1486 H   0  0  0  0  0  0  0  0  0  0  0  0
  135.3629   70.8931  222.6522 H   0  0  0  0  0  0  0  0  0  0  0  0
  134.4998   70.1781  224.6178 H   0  0  0  0  0  0  0  0  0  0  0  0
  136.0681   70.9091  225.1298 H   0  0  0  0  0  0  0  0  0  0  0  0
  134.9038   71.9408  226.5656 H   0  0  0  0  0  0  0  0  0  0  0  0
  135.3410   73.9372  225.2008 H   0  0  0  0  0  0  0  0  0  0  0  0
  134.1262   73.4995  223.9932 H   0  0  0  0  0  0  0  0  0  0  0  0
  133.5747   75.2988  225.9094 H   0  0  0  0  0  0  0  0  0  0  0  0
  132.3260   74.0798  225.3945 H   0  0  0  0  0  0  0  0  0  0  0  0
  132.5350   74.3840  227.7250 H   0  0  0  0  0  0  0  0  0  0  0  0
  132.9223   71.8422  228.0633 H   0  0  0  0  0  0  0  0  0  0  0  0
  131.4705   72.5541  227.2811 H   0  0  0  0  0  0  0  0  0  0  0  0
  132.7899   70.6312  226.0075 H   0  0  0  0  0  0  0  0  0  0  0  0
  132.2656   72.0396  225.0708 H   0  0  0  0  0  0  0  0  0  0  0  0
  136.6628   75.8680  221.6965 H   0  0  0  0  0  0  0  0  0  0  0  0
  142.7728   76.8377  220.7637 H   0  0  0  0  0  0  0  0  0  0  0  0
  141.2228   76.5818  219.8279 H   0  0  0  0  0  0  0  0  0  0  0  0
  142.6399   78.8829  219.8645 H   0  0  0  0  0  0  0  0  0  0  0  0
  140.8541   78.7282  219.5605 H   0  0  0  0  0  0  0  0  0  0  0  0
  141.2969   81.1760  220.1709 H   0  0  0  0  0  0  0  0  0  0  0  0
  140.8189   82.7588  221.9832 H   0  0  0  0  0  0  0  0  0  0  0  0
  140.6129   81.9855  224.3037 H   0  0  0  0  0  0  0  0  0  0  0  0
  140.9100   79.5408  224.8228 H   0  0  0  0  0  0  0  0  0  0  0  0
  142.4962   77.3454  223.2751 H   0  0  0  0  0  0  0  0  0  0  0  0
  140.8392   77.2741  223.9309 H   0  0  0  0  0  0  0  0  0  0  0  0
  137.9042   71.4675  221.3125 H   0  0  0  0  0  0  0  0  0  0  0  0
  139.5143   70.6386  221.1154 H   0  0  0  0  0  0  0  0  0  0  0  0
  137.3617   70.1816  223.0508 H   0  0  0  0  0  0  0  0  0  0  0  0
  138.7416   69.1225  222.4788 H   0  0  0  0  0  0  0  0  0  0  0  0
  137.8645   68.7950  225.0873 H   0  0  0  0  0  0  0  0  0  0  0  0
  138.9552   69.0128  227.2715 H   0  0  0  0  0  0  0  0  0  0  0  0
  140.8274   70.5707  227.6706 H   0  0  0  0  0  0  0  0  0  0  0  0
  141.6307   71.9756  225.7630 H   0  0  0  0  0  0  0  0  0  0  0  0
  141.0642   72.9284  223.6100 H   0  0  0  0  0  0  0  0  0  0  0  0
  141.4261   71.4504  222.6704 H   0  0  0  0  0  0  0  0  0  0  0  0
  1  2  2  0
  2  3  1  0
  3  4  1  0
  4  5  1  0
  5  6  1  0
  6  7  1  0
  7  8  1  0
  8  9  1  0
  9 10  1  0
 10 11  1  0
  2 12  1  0
 12 13  2  0
 13 14  1  0
 14 15  2  0
 15 16  1  0
 16 17  1  0
 17 18  1  0
 18 19  1  0
 19 20  2  0
 20 21  1  0
 21 22  2  0
 22 23  1  0
 23 24  2  0
 24 25  1  0
 15 26  1  0
 26 27  2  0
 27 28  1  0
 28 29  1  0
 29 30  1  0
 30 31  1  0
 31 32  2  0
 32 33  1  0
 33 34  2  0
 34 35  1  0
 35 36  2  0
 36 37  1  0
 11  6  1  0
 27 12  1  0
 37 28  1  0
 25 16  1  0
 36 31  1  0
 24 19  1  0
  3 38  1  0
  4 39  1  0
  4 40  1  0
  5 41  1  0
  5 42  1  0
  6 43  1  0
  7 44  1  0
  7 45  1  0
  8 46  1  0
  8 47  1  0
  9 48  1  0
 10 49  1  0
 10 50  1  0
 11 51  1  0
 11 52  1  0
 13 53  1  0
 17 54  1  0
 17 55  1  0
 18 56  1  0
 18 57  1  0
 20 58  1  0
 21 59  1  0
 22 60  1  0
 23 61  1  0
 25 62  1  0
 25 63  1  0
 29 64  1  0
 29 65  1  0
 30 66  1  0
 30 67  1  0
 32 68  1  0
 33 69  1  0
 34 70  1  0
 35 71  1  0
 37 72  1  0
 37 73  1  0
M  END
>  <smiles>  (23) 
O=C(NCCC1CCNCC1)c1cnc(N2CCc3ccccc3C2)nc1N1CCc2ccccc2C1

>  <score_type>  (23) 
oracle

>  <origin>  (23) 
autodockgpu

>  <m_score__min__energy>  (23) 
-10.130000000000001

>  <m_primary>  (23) 
energy

>  <rmsd>  (23) 
8.881348942090998

>  <m_score__min__rmsd>  (23) 
8.881348942090998

>  <meeko>  (23) 
{"free_energy": -9.82, "intermolecular_energy": -11.61, "internal_energy": -1.57, "cluster_size": 30, "cluster_id": 2, "rank_in_cluster": 7}

>  <energy>  (23) 
-9.71

>  <cluster_rmsd>  (23) 
1.32

>  <cluster>  (23) 
2

$$$$

     RDKit          3D

 73 78  0  0  0  0  0  0  0  0999 V2000
  135.5620   73.8630  221.5010 O   0  0  0  0  0  0  0  0  0  0  0  0
  136.5450   73.7610  222.2600 C   0  0  0  0  0  0  0  0  0  0  0  0
  136.4710   72.8210  223.3390 N   0  0  0  0  0  0  0  0  0  0  0  0
  135.2620   72.0020  223.5430 C   0  0  0  0  0  0  0  0  0  0  0  0
  134.6880   72.1100  224.9080 C   0  0  0  0  0  0  0  0  0  0  0  0
  134.1990   70.7780  225.3780 C   0  0  0  0  0  0  0  0  0  0  0  0
  132.6910   70.8110  225.6600 C   0  0  0  0  0  0  0  0  0  0  0  0
  132.2640   69.3490  225.7770 C   0  0  0  0  0  0  0  0  0  0  0  0
  133.3030   68.5150  226.3210 N   0  0  0  0  0  0  0  0  0  0  0  0
  134.3530   68.3650  225.3210 C   0  0  0  0  0  0  0  0  0  0  0  0
  134.4170   69.6330  224.4510 C   0  0  0  0  0  0  0  0  0  0  0  0
  137.7810   74.5170  222.1510 C   0  0  0  0  0  0  0  0  0  0  0  0
  137.6400   75.9090  222.1090 C   0  0  0  0  0  0  0  0  0  0  0  0
  138.7040   76.6820  222.0020 N   0  0  0  0  0  0  0  0  0  0  0  0
  139.9350   76.1340  221.9340 C   0  0  0  0  0  0  0  0  0  0  0  0
  141.0210   77.0440  221.8090 N   0  0  0  0  0  0  0  0  0  0  0  0
  141.7760   77.2200  220.5840 C   0  0  0  0  0  0  0  0  0  0  0  0
  141.7980   78.6370  220.0870 C   0  0  0  0  0  0  0  0  0  0  0  0
  141.5200   79.6040  221.1490 C   0  0  0  0  0  0  0  0  0  0  0  0
  141.4170   80.9480  220.7690 C   0  0  0  0  0  0  0  0  0  0  0  0
  141.1600   81.9420  221.6830 C   0  0  0  0  0  0  0  0  0  0  0  0
  140.9940   81.6520  222.9970 C   0  0  0  0  0  0  0  0  0  0  0  0
  141.0900   80.3200  223.4220 C   0  0  0  0  0  0  0  0  0  0  0  0
  141.3510   79.3370  222.4830 C   0  0  0  0  0  0  0  0  0  0  0  0
  141.4510   77.8970  222.9330 C   0  0  0  0  0  0  0  0  0  0  0  0
  140.0780   74.8170  221.9740 N   0  0  0  0  0  0  0  0  0  0  0  0
  139.0290   73.9490  222.0830 C   0  0  0  0  0  0  0  0  0  0  0  0
  139.2880   72.5640  222.1170 N   0  0  0  0  0  0  0  0  0  0  0  0
  138.5800   71.5370  221.4260 C   0  0  0  0  0  0  0  0  0  0  0  0
  138.1360   70.4140  222.3390 C   0  0  0  0  0  0  0  0  0  0  0  0
  138.8120   70.3990  223.6410 C   0  0  0  0  0  0  0  0  0  0  0  0
  138.3110   69.5140  224.5990 C   0  0  0  0  0  0  0  0  0  0  0  0
  138.9090   69.4640  225.8340 C   0  0  0  0  0  0  0  0  0  0  0  0
  139.9880   70.2430  226.1950 C   0  0  0  0  0  0  0  0  0  0  0  0
  140.4820   71.1150  225.2530 C   0  0  0  0  0  0  0  0  0  0  0  0
  139.8830   71.1760  223.9940 C   0  0  0  0  0  0  0  0  0  0  0  0
  140.4120   72.1250  222.9670 C   0  0  0  0  0  0  0  0  0  0  0  0
  137.3030   72.7240  223.9910 H   0  0  0  0  0  0  0  0  0  0  0  0
  134.4987   72.3242  222.8194 H   0  0  0  0  0  0  0  0  0  0  0  0
  135.5589   70.9522  223.4026 H   0  0  0  0  0  0  0  0  0  0  0  0
  135.4626   72.4753  225.5984 H   0  0  0  0  0  0  0  0  0  0  0  0
  133.8407   72.8110  224.8828 H   0  0  0  0  0  0  0  0  0  0  0  0
  134.8076   70.6062  226.2781 H   0  0  0  0  0  0  0  0  0  0  0  0
  132.4874   71.3470  226.5988 H   0  0  0  0  0  0  0  0  0  0  0  0
  132.1392   71.3343  224.8652 H   0  0  0  0  0  0  0  0  0  0  0  0
  131.3836   69.2898  226.4337 H   0  0  0  0  0  0  0  0  0  0  0  0
  132.0374   68.9841  224.7643 H   0  0  0  0  0  0  0  0  0  0  0  0
  132.8870   67.5720  226.4520 H   0  0  0  0  0  0  0  0  0  0  0  0
  135.3199   68.2161  225.8239 H   0  0  0  0  0  0  0  0  0  0  0  0
  134.1327   67.4947  224.6854 H   0  0  0  0  0  0  0  0  0  0  0  0
  135.4013   69.7152  223.9669 H   0  0  0  0  0  0  0  0  0  0  0  0
  133.6614   69.6120  223.6518 H   0  0  0  0  0  0  0  0  0  0  0  0
  136.6384   76.3602  222.1654 H   0  0  0  0  0  0  0  0  0  0  0  0
  142.8125   76.8995  220.7657 H   0  0  0  0  0  0  0  0  0  0  0  0
  141.2795   76.6156  219.8106 H   0  0  0  0  0  0  0  0  0  0  0  0
  142.7925   78.8490  219.6675 H   0  0  0  0  0  0  0  0  0  0  0  0
  141.0101   78.7382  219.3261 H   0  0  0  0  0  0  0  0  0  0  0  0
  141.5453   81.2156  219.7098 H   0  0  0  0  0  0  0  0  0  0  0  0
  141.0881   82.9860  221.3440 H   0  0  0  0  0  0  0  0  0  0  0  0
  140.7863   82.4533  223.7214 H   0  0  0  0  0  0  0  0  0  0  0  0
  140.9602   80.0603  224.4830 H   0  0  0  0  0  0  0  0  0  0  0  0
  142.4902   77.6612  223.2058 H   0  0  0  0  0  0  0  0  0  0  0  0
  140.8143   77.7237  223.8131 H   0  0  0  0  0  0  0  0  0  0  0  0
  137.6900   71.9796  220.9549 H   0  0  0  0  0  0  0  0  0  0  0  0
  139.2649   71.1066  220.6806 H   0  0  0  0  0  0  0  0  0  0  0  0
  137.0546   70.5165  222.5122 H   0  0  0  0  0  0  0  0  0  0  0  0
  138.3976   69.4722  221.8344 H   0  0  0  0  0  0  0  0  0  0  0  0
  137.4514   68.8678  224.3676 H   0  0  0  0  0  0  0  0  0  0  0  0
  138.5041   68.7623  226.5781 H   0  0  0  0  0  0  0  0  0  0  0  0
  140.4361   70.1699  227.1970 H   0  0  0  0  0  0  0  0  0  0  0  0
  141.3419   71.7588  225.4900 H   0  0  0  0  0  0  0  0  0  0  0  0
  140.8646   72.9959  223.4637 H   0  0  0  0  0  0  0  0  0  0  0  0
  141.1792   71.6298  222.3537 H   0  0  0  0  0  0  0  0  0  0  0  0
  1  2  2  0
  2  3  1  0
  3  4  1  0
  4  5  1  0
  5  6  1  0
  6  7  1  0
  7  8  1  0
  8  9  1  0
  9 10  1  0
 10 11  1  0
  2 12  1  0
 12 13  2  0
 13 14  1  0
 14 15  2  0
 15 16  1  0
 16 17  1  0
 17 18  1  0
 18 19  1  0
 19 20  2  0
 20 21  1  0
 21 22  2  0
 22 23  1  0
 23 24  2  0
 24 25  1  0
 15 26  1  0
 26 27  2  0
 27 28  1  0
 28 29  1  0
 29 30  1  0
 30 31  1  0
 31 32  2  0
 32 33  1  0
 33 34  2  0
 34 35  1  0
 35 36  2  0
 36 37  1  0
 11  6  1  0
 27 12  1  0
 37 28  1  0
 25 16  1  0
 36 31  1  0
 24 19  1  0
  3 38  1  0
  4 39  1  0
  4 40  1  0
  5 41  1  0
  5 42  1  0
  6 43  1  0
  7 44  1  0
  7 45  1  0
  8 46  1  0
  8 47  1  0
  9 48  1  0
 10 49  1  0
 10 50  1  0
 11 51  1  0
 11 52  1  0
 13 53  1  0
 17 54  1  0
 17 55  1  0
 18 56  1  0
 18 57  1  0
 20 58  1  0
 21 59  1  0
 22 60  1  0
 23 61  1  0
 25 62  1  0
 25 63  1  0
 29 64  1  0
 29 65  1  0
 30 66  1  0
 30 67  1  0
 32 68  1  0
 33 69  1  0
 34 70  1  0
 35 71  1  0
 37 72  1  0
 37 73  1  0
M  END
>  <smiles>  (24) 
O=C(NCCC1CCNCC1)c1cnc(N2CCc3ccccc3C2)nc1N1CCc2ccccc2C1

>  <score_type>  (24) 
oracle

>  <origin>  (24) 
autodockgpu

>  <m_score__min__energy>  (24) 
-10.130000000000001

>  <m_primary>  (24) 
energy

>  <rmsd>  (24) 
9.376518859130249

>  <m_score__min__rmsd>  (24) 
9.376518859130249

>  <meeko>  (24) 
{"free_energy": -8.99, "intermolecular_energy": -10.78, "internal_energy": -1.79, "cluster_size": 30, "cluster_id": 2, "rank_in_cluster": 23}

>  <energy>  (24) 
-9.69

>  <cluster_rmsd>  (24) 
0.48

>  <cluster>  (24) 
2

$$$$

     RDKit          3D

 73 78  0  0  0  0  0  0  0  0999 V2000
  136.4730   72.4570  221.0810 O   0  0  0  0  0  0  0  0  0  0  0  0
  136.9860   73.0390  222.0560 C   0  0  0  0  0  0  0  0  0  0  0  0
  136.4130   72.8240  223.3510 N   0  0  0  0  0  0  0  0  0  0  0  0
  135.2450   71.9390  223.5200 C   0  0  0  0  0  0  0  0  0  0  0  0
  135.5580   70.4980  223.3560 C   0  0  0  0  0  0  0  0  0  0  0  0
  134.8190   69.6810  224.3660 C   0  0  0  0  0  0  0  0  0  0  0  0
  134.0770   70.5780  225.3660 C   0  0  0  0  0  0  0  0  0  0  0  0
  133.1010   69.6570  226.0970 C   0  0  0  0  0  0  0  0  0  0  0  0
  133.6060   68.3170  226.2330 N   0  0  0  0  0  0  0  0  0  0  0  0
  133.5880   67.6760  224.9240 C   0  0  0  0  0  0  0  0  0  0  0  0
  133.8000   68.7370  223.8300 C   0  0  0  0  0  0  0  0  0  0  0  0
  138.1330   73.9300  222.0010 C   0  0  0  0  0  0  0  0  0  0  0  0
  137.8400   75.2910  221.8690 C   0  0  0  0  0  0  0  0  0  0  0  0
  138.8130   76.1790  221.8030 N   0  0  0  0  0  0  0  0  0  0  0  0
  140.1000   75.7770  221.8610 C   0  0  0  0  0  0  0  0  0  0  0  0
  141.0830   76.8010  221.7710 N   0  0  0  0  0  0  0  0  0  0  0  0
  141.7870   77.1230  220.5450 C   0  0  0  0  0  0  0  0  0  0  0  0
  141.6510   78.5600  220.1300 C   0  0  0  0  0  0  0  0  0  0  0  0
  141.2980   79.4320  221.2500 C   0  0  0  0  0  0  0  0  0  0  0  0
  141.0470   80.7760  220.9500 C   0  0  0  0  0  0  0  0  0  0  0  0
  140.7080   81.6860  221.9240 C   0  0  0  0  0  0  0  0  0  0  0  0
  140.6040   81.3080  223.2210 C   0  0  0  0  0  0  0  0  0  0  0  0
  140.8480   79.9720  223.5680 C   0  0  0  0  0  0  0  0  0  0  0  0
  141.1870   79.0750  222.5690 C   0  0  0  0  0  0  0  0  0  0  0  0
  141.4470   77.6310  222.9340 C   0  0  0  0  0  0  0  0  0  0  0  0
  140.3880   74.4890  221.9860 N   0  0  0  0  0  0  0  0  0  0  0  0
  139.4390   73.5100  222.0610 C   0  0  0  0  0  0  0  0  0  0  0  0
  139.8490   72.1680  222.1930 N   0  0  0  0  0  0  0  0  0  0  0  0
  139.5190   71.0770  221.3370 C   0  0  0  0  0  0  0  0  0  0  0  0
  138.9680   69.8850  222.0900 C   0  0  0  0  0  0  0  0  0  0  0  0
  139.2170   69.9250  223.5360 C   0  0  0  0  0  0  0  0  0  0  0  0
  138.5670   68.9600  224.3120 C   0  0  0  0  0  0  0  0  0  0  0  0
  138.7680   68.9570  225.6700 C   0  0  0  0  0  0  0  0  0  0  0  0
  139.5800   69.8570  226.3280 C   0  0  0  0  0  0  0  0  0  0  0  0
  140.2200   70.8060  225.5650 C   0  0  0  0  0  0  0  0  0  0  0  0
  140.0240   70.8210  224.1830 C   0  0  0  0  0  0  0  0  0  0  0  0
  140.7120   71.8530  223.3490 C   0  0  0  0  0  0  0  0  0  0  0  0
  136.8440   73.3130  224.1880 H   0  0  0  0  0  0  0  0  0  0  0  0
  134.8365   72.0926  224.5297 H   0  0  0  0  0  0  0  0  0  0  0  0
  134.5257   72.2029  222.7307 H   0  0  0  0  0  0  0  0  0  0  0  0
  135.2638   70.1768  222.3459 H   0  0  0  0  0  0  0  0  0  0  0  0
  136.6382   70.3508  223.5025 H   0  0  0  0  0  0  0  0  0  0  0  0
  135.6233   69.0873  224.8248 H   0  0  0  0  0  0  0  0  0  0  0  0
  134.7853   71.0289  226.0767 H   0  0  0  0  0  0  0  0  0  0  0  0
  133.5565   71.4059  224.8624 H   0  0  0  0  0  0  0  0  0  0  0  0
  132.9132   70.0669  227.1004 H   0  0  0  0  0  0  0  0  0  0  0  0
  132.1776   69.6077  225.5013 H   0  0  0  0  0  0  0  0  0  0  0  0
  132.9230   67.8010  226.8220 H   0  0  0  0  0  0  0  0  0  0  0  0
  134.3932   66.9285  224.8707 H   0  0  0  0  0  0  0  0  0  0  0  0
  132.6175   67.1812  224.7715 H   0  0  0  0  0  0  0  0  0  0  0  0
  134.1647   68.2653  222.9056 H   0  0  0  0  0  0  0  0  0  0  0  0
  132.8613   69.2547  223.5835 H   0  0  0  0  0  0  0  0  0  0  0  0
  136.7924   75.6228  221.8200 H   0  0  0  0  0  0  0  0  0  0  0  0
  142.8550   76.9030  220.6898 H   0  0  0  0  0  0  0  0  0  0  0  0
  141.3374   76.5141  219.7468 H   0  0  0  0  0  0  0  0  0  0  0  0
  142.6086   78.8979  219.7072 H   0  0  0  0  0  0  0  0  0  0  0  0
  140.8402   78.6202  219.3891 H   0  0  0  0  0  0  0  0  0  0  0  0
  141.1230   81.1139  219.9059 H   0  0  0  0  0  0  0  0  0  0  0  0
  140.5190   82.7335  221.6466 H   0  0  0  0  0  0  0  0  0  0  0  0
  140.3310   82.0419  223.9936 H   0  0  0  0  0  0  0  0  0  0  0  0
  140.7716   79.6422  224.6146 H   0  0  0  0  0  0  0  0  0  0  0  0
  142.5111   77.4915  223.1752 H   0  0  0  0  0  0  0  0  0  0  0  0
  140.8521   77.3433  223.8134 H   0  0  0  0  0  0  0  0  0  0  0  0
  138.7632   71.4149  220.6128 H   0  0  0  0  0  0  0  0  0  0  0  0
  140.4458   70.7546  220.8400 H   0  0  0  0  0  0  0  0  0  0  0  0
  137.8808   69.8455  221.9272 H   0  0  0  0  0  0  0  0  0  0  0  0
  139.4870   68.9961  221.7022 H   0  0  0  0  0  0  0  0  0  0  0  0
  137.9063   68.2164  223.8424 H   0  0  0  0  0  0  0  0  0  0  0  0
  138.2513   68.1921  226.2683 H   0  0  0  0  0  0  0  0  0  0  0  0
  139.7106   69.8175  227.4195 H   0  0  0  0  0  0  0  0  0  0  0  0
  140.8804   71.5466  226.0398 H   0  0  0  0  0  0  0  0  0  0  0  0
  140.8800   72.7616  223.9459 H   0  0  0  0  0  0  0  0  0  0  0  0
  141.6844   71.4727  223.0027 H   0  0  0  0  0  0  0  0  0  0  0  0
  1  2  2  0
  2  3  1  0
  3  4  1  0
  4  5  1  0
  5  6  1  0
  6  7  1  0
  7  8  1  0
  8  9  1  0
  9 10  1  0
 10 11  1  0
  2 12  1  0
 12 13  2  0
 13 14  1  0
 14 15  2  0
 15 16  1  0
 16 17  1  0
 17 18  1  0
 18 19  1  0
 19 20  2  0
 20 21  1  0
 21 22  2  0
 22 23  1  0
 23 24  2  0
 24 25  1  0
 15 26  1  0
 26 27  2  0
 27 28  1  0
 28 29  1  0
 29 30  1  0
 30 31  1  0
 31 32  2  0
 32 33  1  0
 33 34  2  0
 34 35  1  0
 35 36  2  0
 36 37  1  0
 11  6  1  0
 27 12  1  0
 37 28  1  0
 25 16  1  0
 36 31  1  0
 24 19  1  0
  3 38  1  0
  4 39  1  0
  4 40  1  0
  5 41  1  0
  5 42  1  0
  6 43  1  0
  7 44  1  0
  7 45  1  0
  8 46  1  0
  8 47  1  0
  9 48  1  0
 10 49  1  0
 10 50  1  0
 11 51  1  0
 11 52  1  0
 13 53  1  0
 17 54  1  0
 17 55  1  0
 18 56  1  0
 18 57  1  0
 20 58  1  0
 21 59  1  0
 22 60  1  0
 23 61  1  0
 25 62  1  0
 25 63  1  0
 29 64  1  0
 29 65  1  0
 30 66  1  0
 30 67  1  0
 32 68  1  0
 33 69  1  0
 34 70  1  0
 35 71  1  0
 37 72  1  0
 37 73  1  0
M  END
>  <smiles>  (25) 
O=C(NCCC1CCNCC1)c1cnc(N2CCc3ccccc3C2)nc1N1CCc2ccccc2C1

>  <score_type>  (25) 
oracle

>  <origin>  (25) 
autodockgpu

>  <m_score__min__energy>  (25) 
-10.130000000000001

>  <m_primary>  (25) 
energy

>  <rmsd>  (25) 
9.310173292955469

>  <m_score__min__rmsd>  (25) 
9.310173292955469

>  <meeko>  (25) 
{"free_energy": -8.75, "intermolecular_energy": -10.54, "internal_energy": -1.95, "cluster_size": 30, "cluster_id": 2, "rank_in_cluster": 30}

>  <energy>  (25) 
-9.67

>  <cluster_rmsd>  (25) 
0.42

>  <cluster>  (25) 
2

$$$$

     RDKit          3D

 73 78  0  0  0  0  0  0  0  0999 V2000
  138.8840   71.7000  220.5970 O   0  0  0  0  0  0  0  0  0  0  0  0
  138.6700   72.2210  221.7080 C   0  0  0  0  0  0  0  0  0  0  0  0
  139.6020   73.1980  222.1880 N   0  0  0  0  0  0  0  0  0  0  0  0
  140.7830   73.5700  221.3870 C   0  0  0  0  0  0  0  0  0  0  0  0
  141.7290   72.4480  221.1590 C   0  0  0  0  0  0  0  0  0  0  0  0
  143.0780   72.9680  220.7800 C   0  0  0  0  0  0  0  0  0  0  0  0
  143.9050   71.8910  220.0660 C   0  0  0  0  0  0  0  0  0  0  0  0
  145.0800   72.6310  219.4290 C   0  0  0  0  0  0  0  0  0  0  0  0
  145.4920   73.7750  220.1990 N   0  0  0  0  0  0  0  0  0  0  0  0
  144.4750   74.8120  220.0760 C   0  0  0  0  0  0  0  0  0  0  0  0
  143.0950   74.1580  219.8840 C   0  0  0  0  0  0  0  0  0  0  0  0
  137.5430   71.9280  222.5760 C   0  0  0  0  0  0  0  0  0  0  0  0
  136.3530   72.6000  222.2760 C   0  0  0  0  0  0  0  0  0  0  0  0
  135.2750   72.4070  223.0110 N   0  0  0  0  0  0  0  0  0  0  0  0
  135.3140   71.5590  224.0600 C   0  0  0  0  0  0  0  0  0  0  0  0
  134.1100   71.4220  224.8030 N   0  0  0  0  0  0  0  0  0  0  0  0
  134.0390   70.7590  226.0900 C   0  0  0  0  0  0  0  0  0  0  0  0
  133.4730   71.6200  227.1830 C   0  0  0  0  0  0  0  0  0  0  0  0
  132.6580   72.7160  226.6620 C   0  0  0  0  0  0  0  0  0  0  0  0
  132.1680   73.6380  227.5950 C   0  0  0  0  0  0  0  0  0  0  0  0
  131.3900   74.7070  227.2180 C   0  0  0  0  0  0  0  0  0  0  0  0
  131.0680   74.9080  225.9170 C   0  0  0  0  0  0  0  0  0  0  0  0
  131.5360   74.0100  224.9490 C   0  0  0  0  0  0  0  0  0  0  0  0
  132.3180   72.9400  225.3530 C   0  0  0  0  0  0  0  0  0  0  0  0
  132.8300   71.9690  224.3140 C   0  0  0  0  0  0  0  0  0  0  0  0
  136.4370   70.9180  224.3530 N   0  0  0  0  0  0  0  0  0  0  0  0
  137.5940   71.0630  223.6410 C   0  0  0  0  0  0  0  0  0  0  0  0
  138.7350   70.3350  224.0350 N   0  0  0  0  0  0  0  0  0  0  0  0
  138.8560   68.9200  224.1540 C   0  0  0  0  0  0  0  0  0  0  0  0
  139.4090   68.4890  225.4960 C   0  0  0  0  0  0  0  0  0  0  0  0
  140.0480   69.5710  226.2540 C   0  0  0  0  0  0  0  0  0  0  0  0
  140.4010   69.2880  227.5770 C   0  0  0  0  0  0  0  0  0  0  0  0
  141.0010   70.2690  228.3280 C   0  0  0  0  0  0  0  0  0  0  0  0
  141.2800   71.5330  227.8550 C   0  0  0  0  0  0  0  0  0  0  0  0
  140.9330   71.8140  226.5540 C   0  0  0  0  0  0  0  0  0  0  0  0
  140.3230   70.8260  225.7790 C   0  0  0  0  0  0  0  0  0  0  0  0
  139.9380   71.1250  224.3670 C   0  0  0  0  0  0  0  0  0  0  0  0
  139.4280   73.6500  223.1320 H   0  0  0  0  0  0  0  0  0  0  0  0
  140.4376   73.9368  220.4092 H   0  0  0  0  0  0  0  0  0  0  0  0
  141.3275   74.3381  221.9558 H   0  0  0  0  0  0  0  0  0  0  0  0
  141.8159   71.8550  222.0814 H   0  0  0  0  0  0  0  0  0  0  0  0
  141.3465   71.8218  220.3395 H   0  0  0  0  0  0  0  0  0  0  0  0
  143.4985   73.2679  221.7512 H   0  0  0  0  0  0  0  0  0  0  0  0
  144.2673   71.1438  220.7874 H   0  0  0  0  0  0  0  0  0  0  0  0
  143.3090   71.3507  219.3157 H   0  0  0  0  0  0  0  0  0  0  0  0
  145.9298   71.9377  219.3445 H   0  0  0  0  0  0  0  0  0  0  0  0
  144.7534   72.9915  218.4424 H   0  0  0  0  0  0  0  0  0  0  0  0
  146.3480   74.1470  219.7420 H   0  0  0  0  0  0  0  0  0  0  0  0
  144.4657   75.4264  220.9884 H   0  0  0  0  0  0  0  0  0  0  0  0
  144.7031   75.4477  219.2078 H   0  0  0  0  0  0  0  0  0  0  0  0
  142.2965   74.8602  220.1656 H   0  0  0  0  0  0  0  0  0  0  0  0
  142.9248   73.8754  218.8346 H   0  0  0  0  0  0  0  0  0  0  0  0
  136.3163   73.2930  221.4225 H   0  0  0  0  0  0  0  0  0  0  0  0
  133.4036   69.8671  225.9865 H   0  0  0  0  0  0  0  0  0  0  0  0
  135.0702   70.5087  226.3797 H   0  0  0  0  0  0  0  0  0  0  0  0
  132.8479   70.9948  227.8375 H   0  0  0  0  0  0  0  0  0  0  0  0
  134.3167   72.0613  227.7339 H   0  0  0  0  0  0  0  0  0  0  0  0
  132.4123   73.5033  228.6590 H   0  0  0  0  0  0  0  0  0  0  0  0
  131.0241   75.4083  227.9823 H   0  0  0  0  0  0  0  0  0  0  0  0
  130.4460   75.7668  225.6244 H   0  0  0  0  0  0  0  0  0  0  0  0
  131.2870   74.1519  223.8870 H   0  0  0  0  0  0  0  0  0  0  0  0
  132.1042   71.1546  224.1725 H   0  0  0  0  0  0  0  0  0  0  0  0
  132.9720   72.4772  223.3488 H   0  0  0  0  0  0  0  0  0  0  0  0
  137.8609   68.4700  224.0231 H   0  0  0  0  0  0  0  0  0  0  0  0
  139.5618   68.5819  223.3810 H   0  0  0  0  0  0  0  0  0  0  0  0
  138.5809   68.0870  226.0983 H   0  0  0  0  0  0  0  0  0  0  0  0
  140.1882   67.7395  225.2931 H   0  0  0  0  0  0  0  0  0  0  0  0
  140.2015   68.2963  228.0091 H   0  0  0  0  0  0  0  0  0  0  0  0
  141.2746   70.0322  229.3668 H   0  0  0  0  0  0  0  0  0  0  0  0
  141.7617   72.2882  228.4934 H   0  0  0  0  0  0  0  0  0  0  0  0
  141.1343   72.8081  226.1282 H   0  0  0  0  0  0  0  0  0  0  0  0
  139.7191   72.1977  224.2608 H   0  0  0  0  0  0  0  0  0  0  0  0
  140.7619   70.8632  223.6869 H   0  0  0  0  0  0  0  0  0  0  0  0
  1  2  2  0
  2  3  1  0
  3  4  1  0
  4  5  1  0
  5  6  1  0
  6  7  1  0
  7  8  1  0
  8  9  1  0
  9 10  1  0
 10 11  1  0
  2 12  1  0
 12 13  2  0
 13 14  1  0
 14 15  2  0
 15 16  1  0
 16 17  1  0
 17 18  1  0
 18 19  1  0
 19 20  2  0
 20 21  1  0
 21 22  2  0
 22 23  1  0
 23 24  2  0
 24 25  1  0
 15 26  1  0
 26 27  2  0
 27 28  1  0
 28 29  1  0
 29 30  1  0
 30 31  1  0
 31 32  2  0
 32 33  1  0
 33 34  2  0
 34 35  1  0
 35 36  2  0
 36 37  1  0
 11  6  1  0
 27 12  1  0
 37 28  1  0
 25 16  1  0
 36 31  1  0
 24 19  1  0
  3 38  1  0
  4 39  1  0
  4 40  1  0
  5 41  1  0
  5 42  1  0
  6 43  1  0
  7 44  1  0
  7 45  1  0
  8 46  1  0
  8 47  1  0
  9 48  1  0
 10 49  1  0
 10 50  1  0
 11 51  1  0
 11 52  1  0
 13 53  1  0
 17 54  1  0
 17 55  1  0
 18 56  1  0
 18 57  1  0
 20 58  1  0
 21 59  1  0
 22 60  1  0
 23 61  1  0
 25 62  1  0
 25 63  1  0
 29 64  1  0
 29 65  1  0
 30 66  1  0
 30 67  1  0
 32 68  1  0
 33 69  1  0
 34 70  1  0
 35 71  1  0
 37 72  1  0
 37 73  1  0
M  END
>  <smiles>  (26) 
O=C(NCCC1CCNCC1)c1cnc(N2CCc3ccccc3C2)nc1N1CCc2ccccc2C1

>  <score_type>  (26) 
oracle

>  <origin>  (26) 
autodockgpu

>  <m_score__min__energy>  (26) 
-10.130000000000001

>  <m_primary>  (26) 
energy

>  <rmsd>  (26) 
6.701904803306904

>  <m_score__min__rmsd>  (26) 
6.701904803306904

>  <meeko>  (26) 
{"free_energy": -9.69, "intermolecular_energy": -11.48, "internal_energy": -1.22, "cluster_size": 15, "cluster_id": 1, "rank_in_cluster": 5}

>  <energy>  (26) 
-9.66

>  <cluster_rmsd>  (26) 
1.53

>  <cluster>  (26) 
2

$$$$

     RDKit          3D

 73 78  0  0  0  0  0  0  0  0999 V2000
  136.0940   73.0690  221.1590 O   0  0  0  0  0  0  0  0  0  0  0  0
  136.6800   73.6010  222.1210 C   0  0  0  0  0  0  0  0  0  0  0  0
  136.1280   73.4220  223.4320 N   0  0  0  0  0  0  0  0  0  0  0  0
  134.8980   72.6340  223.6300 C   0  0  0  0  0  0  0  0  0  0  0  0
  135.0640   71.1860  223.3510 C   0  0  0  0  0  0  0  0  0  0  0  0
  134.3190   70.3690  224.3560 C   0  0  0  0  0  0  0  0  0  0  0  0
  134.8790   68.9420  224.4340 C   0  0  0  0  0  0  0  0  0  0  0  0
  134.2930   68.3410  225.7100 C   0  0  0  0  0  0  0  0  0  0  0  0
  132.9820   68.8520  226.0070 N   0  0  0  0  0  0  0  0  0  0  0  0
  133.1080   70.2360  226.4450 C   0  0  0  0  0  0  0  0  0  0  0  0
  134.3200   70.8850  225.7530 C   0  0  0  0  0  0  0  0  0  0  0  0
  137.8940   74.3960  222.0380 C   0  0  0  0  0  0  0  0  0  0  0  0
  137.7080   75.7750  221.8940 C   0  0  0  0  0  0  0  0  0  0  0  0
  138.7490   76.5800  221.8010 N   0  0  0  0  0  0  0  0  0  0  0  0
  140.0000   76.0780  221.8460 C   0  0  0  0  0  0  0  0  0  0  0  0
  141.0600   77.0180  221.7280 N   0  0  0  0  0  0  0  0  0  0  0  0
  141.8280   77.2040  220.5130 C   0  0  0  0  0  0  0  0  0  0  0  0
  141.8160   78.6150  220.0000 C   0  0  0  0  0  0  0  0  0  0  0  0
  141.4910   79.5850  221.0460 C   0  0  0  0  0  0  0  0  0  0  0  0
  141.3540   80.9210  220.6480 C   0  0  0  0  0  0  0  0  0  0  0  0
  141.0510   81.9160  221.5460 C   0  0  0  0  0  0  0  0  0  0  0  0
  140.8730   81.6360  222.8610 C   0  0  0  0  0  0  0  0  0  0  0  0
  141.0030   80.3140  223.3030 C   0  0  0  0  0  0  0  0  0  0  0  0
  141.3080   79.3280  222.3800 C   0  0  0  0  0  0  0  0  0  0  0  0
  141.4450   77.8970  222.8490 C   0  0  0  0  0  0  0  0  0  0  0  0
  140.1860   74.7720  221.9830 N   0  0  0  0  0  0  0  0  0  0  0  0
  139.1620   73.8730  222.0850 C   0  0  0  0  0  0  0  0  0  0  0  0
  139.4660   72.5040  222.2280 N   0  0  0  0  0  0  0  0  0  0  0  0
  138.7820   71.4030  221.6360 C   0  0  0  0  0  0  0  0  0  0  0  0
  138.3880   70.3450  222.6460 C   0  0  0  0  0  0  0  0  0  0  0  0
  139.0840   70.4590  223.9320 C   0  0  0  0  0  0  0  0  0  0  0  0
  138.6260   69.6400  224.9690 C   0  0  0  0  0  0  0  0  0  0  0  0
  139.2450   69.7110  226.1920 C   0  0  0  0  0  0  0  0  0  0  0  0
  140.3030   70.5500  226.4690 C   0  0  0  0  0  0  0  0  0  0  0  0
  140.7550   71.3560  225.4510 C   0  0  0  0  0  0  0  0  0  0  0  0
  140.1350   71.2950  224.2010 C   0  0  0  0  0  0  0  0  0  0  0  0
  140.6170   72.1710  223.0910 C   0  0  0  0  0  0  0  0  0  0  0  0
  136.6210   73.8680  224.2590 H   0  0  0  0  0  0  0  0  0  0  0  0
  134.5753   72.7512  224.6750 H   0  0  0  0  0  0  0  0  0  0  0  0
  134.1542   73.0153  222.9149 H   0  0  0  0  0  0  0  0  0  0  0  0
  134.6761   70.9646  222.3457 H   0  0  0  0  0  0  0  0  0  0  0  0
  136.1329   70.9333  223.4101 H   0  0  0  0  0  0  0  0  0  0  0  0
  133.2868   70.4125  223.9782 H   0  0  0  0  0  0  0  0  0  0  0  0
  134.5665   68.3582  223.5557 H   0  0  0  0  0  0  0  0  0  0  0  0
  135.9789   68.9362  224.4488 H   0  0  0  0  0  0  0  0  0  0  0  0
  134.2272   67.2498  225.5882 H   0  0  0  0  0  0  0  0  0  0  0  0
  134.9558   68.6152  226.5440 H   0  0  0  0  0  0  0  0  0  0  0  0
  132.6330   68.3160  226.8260 H   0  0  0  0  0  0  0  0  0  0  0  0
  132.1949   70.7891  226.1799 H   0  0  0  0  0  0  0  0  0  0  0  0
  133.2501   70.2639  227.5354 H   0  0  0  0  0  0  0  0  0  0  0  0
  134.2207   71.9805  225.7560 H   0  0  0  0  0  0  0  0  0  0  0  0
  135.2588   70.6416  226.2721 H   0  0  0  0  0  0  0  0  0  0  0  0
  136.6898   76.1897  221.8582 H   0  0  0  0  0  0  0  0  0  0  0  0
  142.8706   76.9167  220.7141 H   0  0  0  0  0  0  0  0  0  0  0  0
  141.3610   76.5772  219.7390 H   0  0  0  0  0  0  0  0  0  0  0  0
  142.8107   78.8522  219.5947 H   0  0  0  0  0  0  0  0  0  0  0  0
  141.0386   78.6839  219.2248 H   0  0  0  0  0  0  0  0  0  0  0  0
  141.4927   81.1806  219.5881 H   0  0  0  0  0  0  0  0  0  0  0  0
  140.9515   82.9533  221.1936 H   0  0  0  0  0  0  0  0  0  0  0  0
  140.6292   82.4388  223.5724 H   0  0  0  0  0  0  0  0  0  0  0  0
  140.8652   80.0630  224.3651 H   0  0  0  0  0  0  0  0  0  0  0  0
  142.4864   77.6968  223.1414 H   0  0  0  0  0  0  0  0  0  0  0  0
  140.7997   77.7141  223.7208 H   0  0  0  0  0  0  0  0  0  0  0  0
  137.8712   71.7775  221.1459 H   0  0  0  0  0  0  0  0  0  0  0  0
  139.4693   70.9343  220.9164 H   0  0  0  0  0  0  0  0  0  0  0  0
  137.3066   70.4277  222.8295 H   0  0  0  0  0  0  0  0  0  0  0  0
  138.6717   69.3732  222.2158 H   0  0  0  0  0  0  0  0  0  0  0  0
  137.7841   68.9507  224.8073 H   0  0  0  0  0  0  0  0  0  0  0  0
  138.8752   69.0604  226.9982 H   0  0  0  0  0  0  0  0  0  0  0  0
  140.7676   70.5738  227.4658 H   0  0  0  0  0  0  0  0  0  0  0  0
  141.5975   72.0428  225.6195 H   0  0  0  0  0  0  0  0  0  0  0  0
  141.0493   73.0933  223.5063 H   0  0  0  0  0  0  0  0  0  0  0  0
  141.3900   71.6504  222.5066 H   0  0  0  0  0  0  0  0  0  0  0  0
  1  2  2  0
  2  3  1  0
  3  4  1  0
  4  5  1  0
  5  6  1  0
  6  7  1  0
  7  8  1  0
  8  9  1  0
  9 10  1  0
 10 11  1  0
  2 12  1  0
 12 13  2  0
 13 14  1  0
 14 15  2  0
 15 16  1  0
 16 17  1  0
 17 18  1  0
 18 19  1  0
 19 20  2  0
 20 21  1  0
 21 22  2  0
 22 23  1  0
 23 24  2  0
 24 25  1  0
 15 26  1  0
 26 27  2  0
 27 28  1  0
 28 29  1  0
 29 30  1  0
 30 31  1  0
 31 32  2  0
 32 33  1  0
 33 34  2  0
 34 35  1  0
 35 36  2  0
 36 37  1  0
 11  6  1  0
 27 12  1  0
 37 28  1  0
 25 16  1  0
 36 31  1  0
 24 19  1  0
  3 38  1  0
  4 39  1  0
  4 40  1  0
  5 41  1  0
  5 42  1  0
  6 43  1  0
  7 44  1  0
  7 45  1  0
  8 46  1  0
  8 47  1  0
  9 48  1  0
 10 49  1  0
 10 50  1  0
 11 51  1  0
 11 52  1  0
 13 53  1  0
 17 54  1  0
 17 55  1  0
 18 56  1  0
 18 57  1  0
 20 58  1  0
 21 59  1  0
 22 60  1  0
 23 61  1  0
 25 62  1  0
 25 63  1  0
 29 64  1  0
 29 65  1  0
 30 66  1  0
 30 67  1  0
 32 68  1  0
 33 69  1  0
 34 70  1  0
 35 71  1  0
 37 72  1  0
 37 73  1  0
M  END
>  <smiles>  (27) 
O=C(NCCC1CCNCC1)c1cnc(N2CCc3ccccc3C2)nc1N1CCc2ccccc2C1

>  <score_type>  (27) 
oracle

>  <origin>  (27) 
autodockgpu

>  <m_score__min__energy>  (27) 
-10.130000000000001

>  <m_primary>  (27) 
energy

>  <rmsd>  (27) 
9.089629350358296

>  <m_score__min__rmsd>  (27) 
9.089629350358296

>  <meeko>  (27) 
{"free_energy": -8.88, "intermolecular_energy": -10.67, "internal_energy": -1.82, "cluster_size": 30, "cluster_id": 2, "rank_in_cluster": 26}

>  <energy>  (27) 
-9.62

>  <cluster_rmsd>  (27) 
1.17

>  <cluster>  (27) 
2

$$$$

     RDKit          3D

 73 78  0  0  0  0  0  0  0  0999 V2000
  140.7210   73.6670  222.2130 O   0  0  0  0  0  0  0  0  0  0  0  0
  139.8600   72.9110  221.7220 C   0  0  0  0  0  0  0  0  0  0  0  0
  140.1610   72.2600  220.4810 N   0  0  0  0  0  0  0  0  0  0  0  0
  141.4520   72.4850  219.8060 C   0  0  0  0  0  0  0  0  0  0  0  0
  142.5670   71.6790  220.3650 C   0  0  0  0  0  0  0  0  0  0  0  0
  143.8850   72.2680  219.9790 C   0  0  0  0  0  0  0  0  0  0  0  0
  144.0000   72.4160  218.4550 C   0  0  0  0  0  0  0  0  0  0  0  0
  145.1990   73.3340  218.2220 C   0  0  0  0  0  0  0  0  0  0  0  0
  146.2140   73.1790  219.2290 N   0  0  0  0  0  0  0  0  0  0  0  0
  145.7270   73.7550  220.4760 C   0  0  0  0  0  0  0  0  0  0  0  0
  144.1950   73.6110  220.5440 C   0  0  0  0  0  0  0  0  0  0  0  0
  138.5600   72.6210  222.3010 C   0  0  0  0  0  0  0  0  0  0  0  0
  137.5060   73.4330  221.8670 C   0  0  0  0  0  0  0  0  0  0  0  0
  136.2880   73.2540  222.3410 N   0  0  0  0  0  0  0  0  0  0  0  0
  136.0520   72.2840  223.2490 C   0  0  0  0  0  0  0  0  0  0  0  0
  134.7120   72.1700  223.7120 N   0  0  0  0  0  0  0  0  0  0  0  0
  134.1670   70.9540  224.2810 C   0  0  0  0  0  0  0  0  0  0  0  0
  133.6030   71.1320  225.6620 C   0  0  0  0  0  0  0  0  0  0  0  0
  133.2500   72.5230  225.9430 C   0  0  0  0  0  0  0  0  0  0  0  0
  132.8100   72.8130  227.2410 C   0  0  0  0  0  0  0  0  0  0  0  0
  132.4510   74.0860  227.6170 C   0  0  0  0  0  0  0  0  0  0  0  0
  132.5120   75.1140  226.7350 C   0  0  0  0  0  0  0  0  0  0  0  0
  132.9450   74.8700  225.4260 C   0  0  0  0  0  0  0  0  0  0  0  0
  133.3010   73.5790  225.0710 C   0  0  0  0  0  0  0  0  0  0  0  0
  133.7740   73.3080  223.6600 C   0  0  0  0  0  0  0  0  0  0  0  0
  137.0430   71.5100  223.6660 N   0  0  0  0  0  0  0  0  0  0  0  0
  138.3300   71.6320  223.2250 C   0  0  0  0  0  0  0  0  0  0  0  0
  139.3130   70.7580  223.7320 N   0  0  0  0  0  0  0  0  0  0  0  0
  139.2960   69.3330  223.7050 C   0  0  0  0  0  0  0  0  0  0  0  0
  139.5450   68.7170  225.0660 C   0  0  0  0  0  0  0  0  0  0  0  0
  140.1110   69.6490  226.0480 C   0  0  0  0  0  0  0  0  0  0  0  0
  140.1800   69.2010  227.3710 C   0  0  0  0  0  0  0  0  0  0  0  0
  140.7000   70.0370  228.3280 C   0  0  0  0  0  0  0  0  0  0  0  0
  141.1650   71.3080  228.0650 C   0  0  0  0  0  0  0  0  0  0  0  0
  141.0970   71.7500  226.7640 C   0  0  0  0  0  0  0  0  0  0  0  0
  140.5700   70.9110  225.7810 C   0  0  0  0  0  0  0  0  0  0  0  0
  140.4890   71.3860  224.3670 C   0  0  0  0  0  0  0  0  0  0  0  0
  139.4360   71.6120  220.0560 H   0  0  0  0  0  0  0  0  0  0  0  0
  141.3371   72.2282  218.7426 H   0  0  0  0  0  0  0  0  0  0  0  0
  141.7132   73.5428  219.9568 H   0  0  0  0  0  0  0  0  0  0  0  0
  142.4860   71.6612  221.4619 H   0  0  0  0  0  0  0  0  0  0  0  0
  142.5031   70.6572  219.9628 H   0  0  0  0  0  0  0  0  0  0  0  0
  144.5999   71.5473  220.4026 H   0  0  0  0  0  0  0  0  0  0  0  0
  144.1696   71.4358  217.9855 H   0  0  0  0  0  0  0  0  0  0  0  0
  143.0798   72.8278  218.0149 H   0  0  0  0  0  0  0  0  0  0  0  0
  145.6370   73.1002  217.2404 H   0  0  0  0  0  0  0  0  0  0  0  0
  144.8391   74.3725  218.2667 H   0  0  0  0  0  0  0  0  0  0  0  0
  147.0190   73.7650  218.9310 H   0  0  0  0  0  0  0  0  0  0  0  0
  146.1831   73.2271  221.3265 H   0  0  0  0  0  0  0  0  0  0  0  0
  145.9975   74.8204  220.5181 H   0  0  0  0  0  0  0  0  0  0  0  0
  143.8506   73.6761  221.5867 H   0  0  0  0  0  0  0  0  0  0  0  0
  143.6892   74.4111  219.9837 H   0  0  0  0  0  0  0  0  0  0  0  0
  137.6942   74.2246  221.1268 H   0  0  0  0  0  0  0  0  0  0  0  0
  133.3639   70.5921  223.6221 H   0  0  0  0  0  0  0  0  0  0  0  0
  134.9978   70.2378  224.3635 H   0  0  0  0  0  0  0  0  0  0  0  0
  132.6996   70.5117  225.7577 H   0  0  0  0  0  0  0  0  0  0  0  0
  134.3768   70.8293  226.3828 H   0  0  0  0  0  0  0  0  0  0  0  0
  132.7500   72.0001  227.9796 H   0  0  0  0  0  0  0  0  0  0  0  0
  132.1101   74.2727  228.6461 H   0  0  0  0  0  0  0  0  0  0  0  0
  132.2242   76.1295  227.0447 H   0  0  0  0  0  0  0  0  0  0  0  0
  133.0015   75.6883  224.6930 H   0  0  0  0  0  0  0  0  0  0  0  0
  132.9160   73.0573  223.0189 H   0  0  0  0  0  0  0  0  0  0  0  0
  134.2695   74.1969  223.2424 H   0  0  0  0  0  0  0  0  0  0  0  0
  138.3120   69.0001  223.3433 H   0  0  0  0  0  0  0  0  0  0  0  0
  140.1080   69.0047  223.0394 H   0  0  0  0  0  0  0  0  0  0  0  0
  138.5874   68.3423  225.4566 H   0  0  0  0  0  0  0  0  0  0  0  0
  140.2860   67.9168  224.9226 H   0  0  0  0  0  0  0  0  0  0  0  0
  139.8237   68.1958  227.6404 H   0  0  0  0  0  0  0  0  0  0  0  0
  140.7484   69.6716  229.3644 H   0  0  0  0  0  0  0  0  0  0  0  0
  141.5743   71.9437  228.8640 H   0  0  0  0  0  0  0  0  0  0  0  0
  141.4550   72.7562  226.5007 H   0  0  0  0  0  0  0  0  0  0  0  0
  140.3814   72.4806  224.3482 H   0  0  0  0  0  0  0  0  0  0  0  0
  141.4046   71.1115  223.8226 H   0  0  0  0  0  0  0  0  0  0  0  0
  1  2  2  0
  2  3  1  0
  3  4  1  0
  4  5  1  0
  5  6  1  0
  6  7  1  0
  7  8  1  0
  8  9  1  0
  9 10  1  0
 10 11  1  0
  2 12  1  0
 12 13  2  0
 13 14  1  0
 14 15  2  0
 15 16  1  0
 16 17  1  0
 17 18  1  0
 18 19  1  0
 19 20  2  0
 20 21  1  0
 21 22  2  0
 22 23  1  0
 23 24  2  0
 24 25  1  0
 15 26  1  0
 26 27  2  0
 27 28  1  0
 28 29  1  0
 29 30  1  0
 30 31  1  0
 31 32  2  0
 32 33  1  0
 33 34  2  0
 34 35  1  0
 35 36  2  0
 36 37  1  0
 11  6  1  0
 27 12  1  0
 37 28  1  0
 25 16  1  0
 36 31  1  0
 24 19  1  0
  3 38  1  0
  4 39  1  0
  4 40  1  0
  5 41  1  0
  5 42  1  0
  6 43  1  0
  7 44  1  0
  7 45  1  0
  8 46  1  0
  8 47  1  0
  9 48  1  0
 10 49  1  0
 10 50  1  0
 11 51  1  0
 11 52  1  0
 13 53  1  0
 17 54  1  0
 17 55  1  0
 18 56  1  0
 18 57  1  0
 20 58  1  0
 21 59  1  0
 22 60  1  0
 23 61  1  0
 25 62  1  0
 25 63  1  0
 29 64  1  0
 29 65  1  0
 30 66  1  0
 30 67  1  0
 32 68  1  0
 33 69  1  0
 34 70  1  0
 35 71  1  0
 37 72  1  0
 37 73  1  0
M  END
>  <smiles>  (28) 
O=C(NCCC1CCNCC1)c1cnc(N2CCc3ccccc3C2)nc1N1CCc2ccccc2C1

>  <score_type>  (28) 
oracle

>  <origin>  (28) 
autodockgpu

>  <m_score__min__energy>  (28) 
-10.130000000000001

>  <m_primary>  (28) 
energy

>  <rmsd>  (28) 
6.687137828235998

>  <m_score__min__rmsd>  (28) 
6.687137828235998

>  <meeko>  (28) 
{"free_energy": -10.13, "intermolecular_energy": -11.92, "internal_energy": -1.28, "cluster_size": 15, "cluster_id": 1, "rank_in_cluster": 1}

>  <energy>  (28) 
-9.6

>  <cluster_rmsd>  (28) 
0.6

>  <cluster>  (28) 
2

$$$$

     RDKit          3D

 73 78  0  0  0  0  0  0  0  0999 V2000
  135.5400   73.8810  221.3400 O   0  0  0  0  0  0  0  0  0  0  0  0
  136.4150   73.9290  222.2250 C   0  0  0  0  0  0  0  0  0  0  0  0
  136.1790   73.2210  223.4480 N   0  0  0  0  0  0  0  0  0  0  0  0
  134.9320   72.4620  223.6500 C   0  0  0  0  0  0  0  0  0  0  0  0
  134.4920   72.3990  225.0670 C   0  0  0  0  0  0  0  0  0  0  0  0
  134.1830   70.9900  225.4590 C   0  0  0  0  0  0  0  0  0  0  0  0
  132.6760   70.7940  225.6730 C   0  0  0  0  0  0  0  0  0  0  0  0
  132.4610   69.2820  225.7100 C   0  0  0  0  0  0  0  0  0  0  0  0
  133.5880   68.5790  226.2650 N   0  0  0  0  0  0  0  0  0  0  0  0
  134.6870   68.6300  225.3080 C   0  0  0  0  0  0  0  0  0  0  0  0
  134.6000   69.9340  224.4950 C   0  0  0  0  0  0  0  0  0  0  0  0
  137.6760   74.6460  222.1300 C   0  0  0  0  0  0  0  0  0  0  0  0
  137.5790   76.0400  222.0700 C   0  0  0  0  0  0  0  0  0  0  0  0
  138.6670   76.7790  221.9750 N   0  0  0  0  0  0  0  0  0  0  0  0
  139.8820   76.1940  221.9350 C   0  0  0  0  0  0  0  0  0  0  0  0
  140.9980   77.0680  221.8200 N   0  0  0  0  0  0  0  0  0  0  0  0
  141.7570   77.2340  220.5970 C   0  0  0  0  0  0  0  0  0  0  0  0
  141.8270   78.6550  220.1170 C   0  0  0  0  0  0  0  0  0  0  0  0
  141.5820   79.6180  221.1910 C   0  0  0  0  0  0  0  0  0  0  0  0
  141.5230   80.9690  220.8270 C   0  0  0  0  0  0  0  0  0  0  0  0
  141.2990   81.9590  221.7540 C   0  0  0  0  0  0  0  0  0  0  0  0
  141.1250   81.6590  223.0640 C   0  0  0  0  0  0  0  0  0  0  0  0
  141.1770   80.3200  223.4730 C   0  0  0  0  0  0  0  0  0  0  0  0
  141.4040   79.3400  222.5210 C   0  0  0  0  0  0  0  0  0  0  0  0
  141.4570   77.8920  222.9540 C   0  0  0  0  0  0  0  0  0  0  0  0
  139.9840   74.8730  221.9920 N   0  0  0  0  0  0  0  0  0  0  0  0
  138.9070   74.0390  222.0900 C   0  0  0  0  0  0  0  0  0  0  0  0
  139.1220   72.6470  222.1440 N   0  0  0  0  0  0  0  0  0  0  0  0
  138.2910   71.6240  221.6000 C   0  0  0  0  0  0  0  0  0  0  0  0
  137.9430   70.5520  222.6110 C   0  0  0  0  0  0  0  0  0  0  0  0
  138.7950   70.5570  223.8050 C   0  0  0  0  0  0  0  0  0  0  0  0
  138.4040   69.7260  224.8600 C   0  0  0  0  0  0  0  0  0  0  0  0
  139.1680   69.6980  226.0000 C   0  0  0  0  0  0  0  0  0  0  0  0
  140.3120   70.4470  226.1760 C   0  0  0  0  0  0  0  0  0  0  0  0
  140.6970   71.2650  225.1400 C   0  0  0  0  0  0  0  0  0  0  0  0
  139.9300   71.3040  223.9750 C   0  0  0  0  0  0  0  0  0  0  0  0
  140.3400   72.1950  222.8470 C   0  0  0  0  0  0  0  0  0  0  0  0
  136.9200   73.2530  224.2080 H   0  0  0  0  0  0  0  0  0  0  0  0
  134.1357   72.9398  223.0604 H   0  0  0  0  0  0  0  0  0  0  0  0
  135.1303   71.4285  223.3297 H   0  0  0  0  0  0  0  0  0  0  0  0
  135.2942   72.7863  225.7123 H   0  0  0  0  0  0  0  0  0  0  0  0
  133.5831   73.0074  225.1838 H   0  0  0  0  0  0  0  0  0  0  0  0
  134.7741   70.8636  226.3780 H   0  0  0  0  0  0  0  0  0  0  0  0
  132.3602   71.2503  226.6228 H   0  0  0  0  0  0  0  0  0  0  0  0
  132.0858   71.2702  224.8762 H   0  0  0  0  0  0  0  0  0  0  0  0
  131.5738   69.0666  226.3235 H   0  0  0  0  0  0  0  0  0  0  0  0
  132.3290   68.9374  224.6737 H   0  0  0  0  0  0  0  0  0  0  0  0
  133.3090   67.5820  226.3380 H   0  0  0  0  0  0  0  0  0  0  0  0
  135.6449   68.5978  225.8478 H   0  0  0  0  0  0  0  0  0  0  0  0
  134.6203   67.7686  224.6272 H   0  0  0  0  0  0  0  0  0  0  0  0
  135.5798   70.1792  224.0593 H   0  0  0  0  0  0  0  0  0  0  0  0
  133.8870   69.8435  223.6622 H   0  0  0  0  0  0  0  0  0  0  0  0
  136.5908   76.5220  222.1022 H   0  0  0  0  0  0  0  0  0  0  0  0
  142.7822   76.8764  220.7735 H   0  0  0  0  0  0  0  0  0  0  0  0
  141.2390   76.6568  219.8169 H   0  0  0  0  0  0  0  0  0  0  0  0
  142.8281   78.8382  219.6995 H   0  0  0  0  0  0  0  0  0  0  0  0
  141.0430   78.7921  219.3576 H   0  0  0  0  0  0  0  0  0  0  0  0
  141.6595   81.2454  219.7711 H   0  0  0  0  0  0  0  0  0  0  0  0
  141.2605   83.0089  221.4280 H   0  0  0  0  0  0  0  0  0  0  0  0
  140.9449   82.4580  223.7982 H   0  0  0  0  0  0  0  0  0  0  0  0
  141.0400   80.0519  224.5310 H   0  0  0  0  0  0  0  0  0  0  0  0
  142.4881   77.6187  223.2226 H   0  0  0  0  0  0  0  0  0  0  0  0
  140.8162   77.7290  223.8331 H   0  0  0  0  0  0  0  0  0  0  0  0
  137.3587   72.0831  221.2394 H   0  0  0  0  0  0  0  0  0  0  0  0
  138.8500   71.1416  220.7846 H   0  0  0  0  0  0  0  0  0  0  0  0
  136.9009   70.7024  222.9294 H   0  0  0  0  0  0  0  0  0  0  0  0
  138.0991   69.5835  222.1134 H   0  0  0  0  0  0  0  0  0  0  0  0
  137.4995   69.1054  224.7775 H   0  0  0  0  0  0  0  0  0  0  0  0
  138.8488   69.0394  226.8212 H   0  0  0  0  0  0  0  0  0  0  0  0
  140.8936   70.3924  227.1081 H   0  0  0  0  0  0  0  0  0  0  0  0
  141.6022   71.8836  225.2289 H   0  0  0  0  0  0  0  0  0  0  0  0
  140.8864   73.0649  223.2403 H   0  0  0  0  0  0  0  0  0  0  0  0
  140.9964   71.6491  222.1533 H   0  0  0  0  0  0  0  0  0  0  0  0
  1  2  2  0
  2  3  1  0
  3  4  1  0
  4  5  1  0
  5  6  1  0
  6  7  1  0
  7  8  1  0
  8  9  1  0
  9 10  1  0
 10 11  1  0
  2 12  1  0
 12 13  2  0
 13 14  1  0
 14 15  2  0
 15 16  1  0
 16 17  1  0
 17 18  1  0
 18 19  1  0
 19 20  2  0
 20 21  1  0
 21 22  2  0
 22 23  1  0
 23 24  2  0
 24 25  1  0
 15 26  1  0
 26 27  2  0
 27 28  1  0
 28 29  1  0
 29 30  1  0
 30 31  1  0
 31 32  2  0
 32 33  1  0
 33 34  2  0
 34 35  1  0
 35 36  2  0
 36 37  1  0
 11  6  1  0
 27 12  1  0
 37 28  1  0
 25 16  1  0
 36 31  1  0
 24 19  1  0
  3 38  1  0
  4 39  1  0
  4 40  1  0
  5 41  1  0
  5 42  1  0
  6 43  1  0
  7 44  1  0
  7 45  1  0
  8 46  1  0
  8 47  1  0
  9 48  1  0
 10 49  1  0
 10 50  1  0
 11 51  1  0
 11 52  1  0
 13 53  1  0
 17 54  1  0
 17 55  1  0
 18 56  1  0
 18 57  1  0
 20 58  1  0
 21 59  1  0
 22 60  1  0
 23 61  1  0
 25 62  1  0
 25 63  1  0
 29 64  1  0
 29 65  1  0
 30 66  1  0
 30 67  1  0
 32 68  1  0
 33 69  1  0
 34 70  1  0
 35 71  1  0
 37 72  1  0
 37 73  1  0
M  END
>  <smiles>  (29) 
O=C(NCCC1CCNCC1)c1cnc(N2CCc3ccccc3C2)nc1N1CCc2ccccc2C1

>  <score_type>  (29) 
oracle

>  <origin>  (29) 
autodockgpu

>  <m_score__min__energy>  (29) 
-10.130000000000001

>  <m_primary>  (29) 
energy

>  <rmsd>  (29) 
9.289138610312708

>  <m_score__min__rmsd>  (29) 
9.289138610312708

>  <meeko>  (29) 
{"free_energy": -9.29, "intermolecular_energy": -11.08, "internal_energy": -1.74, "cluster_size": 30, "cluster_id": 2, "rank_in_cluster": 17}

>  <energy>  (29) 
-9.48

>  <cluster_rmsd>  (29) 
0.76

>  <cluster>  (29) 
2

$$$$

     RDKit          3D

 73 78  0  0  0  0  0  0  0  0999 V2000
  140.8350   73.0720  222.3130 O   0  0  0  0  0  0  0  0  0  0  0  0
  139.8410   72.5840  221.7400 C   0  0  0  0  0  0  0  0  0  0  0  0
  139.9980   72.1220  220.3930 N   0  0  0  0  0  0  0  0  0  0  0  0
  141.2990   72.2260  219.7070 C   0  0  0  0  0  0  0  0  0  0  0  0
  142.0040   73.5090  219.9530 C   0  0  0  0  0  0  0  0  0  0  0  0
  143.4800   73.3360  219.7940 C   0  0  0  0  0  0  0  0  0  0  0  0
  144.2460   74.4920  220.4520 C   0  0  0  0  0  0  0  0  0  0  0  0
  145.6980   74.0260  220.5350 C   0  0  0  0  0  0  0  0  0  0  0  0
  146.0610   73.1580  219.4460 N   0  0  0  0  0  0  0  0  0  0  0  0
  145.3990   71.8730  219.6320 C   0  0  0  0  0  0  0  0  0  0  0  0
  144.0600   72.0870  220.3610 C   0  0  0  0  0  0  0  0  0  0  0  0
  138.5180   72.4350  222.3200 C   0  0  0  0  0  0  0  0  0  0  0  0
  137.5510   73.3410  221.8690 C   0  0  0  0  0  0  0  0  0  0  0  0
  136.3210   73.2920  222.3430 N   0  0  0  0  0  0  0  0  0  0  0  0
  135.9870   72.3660  223.2660 C   0  0  0  0  0  0  0  0  0  0  0  0
  134.6420   72.3950  223.7280 N   0  0  0  0  0  0  0  0  0  0  0  0
  133.9810   71.2510  224.3240 C   0  0  0  0  0  0  0  0  0  0  0  0
  133.4350   71.5170  225.6980 C   0  0  0  0  0  0  0  0  0  0  0  0
  133.2200   72.9420  225.9450 C   0  0  0  0  0  0  0  0  0  0  0  0
  132.8090   73.3050  227.2340 C   0  0  0  0  0  0  0  0  0  0  0  0
  132.5760   74.6150  227.5780 C   0  0  0  0  0  0  0  0  0  0  0  0
  132.7380   75.6110  226.6730 C   0  0  0  0  0  0  0  0  0  0  0  0
  133.1460   75.2940  225.3710 C   0  0  0  0  0  0  0  0  0  0  0  0
  133.3750   73.9670  225.0480 C   0  0  0  0  0  0  0  0  0  0  0  0
  133.8200   73.6170  223.6460 C   0  0  0  0  0  0  0  0  0  0  0  0
  136.8960   71.5040  223.7000 N   0  0  0  0  0  0  0  0  0  0  0  0
  138.1900   71.4890  223.2600 C   0  0  0  0  0  0  0  0  0  0  0  0
  139.0800   70.5300  223.7840 N   0  0  0  0  0  0  0  0  0  0  0  0
  138.9060   69.1160  223.8090 C   0  0  0  0  0  0  0  0  0  0  0  0
  139.1110   68.5240  225.1880 C   0  0  0  0  0  0  0  0  0  0  0  0
  139.7930   69.4210  226.1280 C   0  0  0  0  0  0  0  0  0  0  0  0
  139.8370   69.0140  227.4650 C   0  0  0  0  0  0  0  0  0  0  0  0
  140.4630   69.8200  228.3830 C   0  0  0  0  0  0  0  0  0  0  0  0
  141.0590   71.0220  228.0670 C   0  0  0  0  0  0  0  0  0  0  0  0
  141.0170   71.4240  226.7520 C   0  0  0  0  0  0  0  0  0  0  0  0
  140.3830   70.6140  225.8080 C   0  0  0  0  0  0  0  0  0  0  0  0
  140.3290   71.0470  224.3790 C   0  0  0  0  0  0  0  0  0  0  0  0
  139.1600   71.7020  219.8960 H   0  0  0  0  0  0  0  0  0  0  0  0
  141.9419   71.4044  220.0558 H   0  0  0  0  0  0  0  0  0  0  0  0
  141.0974   72.1727  218.6270 H   0  0  0  0  0  0  0  0  0  0  0  0
  141.6484   74.2609  219.2332 H   0  0  0  0  0  0  0  0  0  0  0  0
  141.7938   73.8381  220.9814 H   0  0  0  0  0  0  0  0  0  0  0  0
  143.5982   73.3000  218.7010 H   0  0  0  0  0  0  0  0  0  0  0  0
  144.1690   75.4021  219.8390 H   0  0  0  0  0  0  0  0  0  0  0  0
  143.8395   74.7379  221.4441 H   0  0  0  0  0  0  0  0  0  0  0  0
  146.3536   74.9091  220.5159 H   0  0  0  0  0  0  0  0  0  0  0  0
  145.8136   73.4568  221.4691 H   0  0  0  0  0  0  0  0  0  0  0  0
  147.0800   72.9780  219.5370 H   0  0  0  0  0  0  0  0  0  0  0  0
  145.2129   71.4109  218.6513 H   0  0  0  0  0  0  0  0  0  0  0  0
  146.0420   71.2124  220.2322 H   0  0  0  0  0  0  0  0  0  0  0  0
  143.3863   71.2364  220.1807 H   0  0  0  0  0  0  0  0  0  0  0  0
  144.2013   72.1657  221.4490 H   0  0  0  0  0  0  0  0  0  0  0  0
  137.8180   74.0971  221.1160 H   0  0  0  0  0  0  0  0  0  0  0  0
  133.1477   70.9523  223.6710 H   0  0  0  0  0  0  0  0  0  0  0  0
  134.7382   70.4598  224.4267 H   0  0  0  0  0  0  0  0  0  0  0  0
  132.4748   70.9910  225.8047 H   0  0  0  0  0  0  0  0  0  0  0  0
  134.1744   71.1573  226.4287 H   0  0  0  0  0  0  0  0  0  0  0  0
  132.6689   72.5200  227.9917 H   0  0  0  0  0  0  0  0  0  0  0  0
  132.2538   74.8584  228.6012 H   0  0  0  0  0  0  0  0  0  0  0  0
  132.5511   76.6569  226.9579 H   0  0  0  0  0  0  0  0  0  0  0  0
  133.2820   76.0849  224.6187 H   0  0  0  0  0  0  0  0  0  0  0  0
  132.9420   73.4358  223.0086 H   0  0  0  0  0  0  0  0  0  0  0  0
  134.4003   74.4428  223.2087 H   0  0  0  0  0  0  0  0  0  0  0  0
  137.8848   68.8815  223.4741 H   0  0  0  0  0  0  0  0  0  0  0  0
  139.6643   68.6771  223.1439 H   0  0  0  0  0  0  0  0  0  0  0  0
  138.1254   68.2704  225.6054 H   0  0  0  0  0  0  0  0  0  0  0  0
  139.7579   67.6431  225.0629 H   0  0  0  0  0  0  0  0  0  0  0  0
  139.3778   68.0640  227.7759 H   0  0  0  0  0  0  0  0  0  0  0  0
  140.4906   69.4875  229.4312 H   0  0  0  0  0  0  0  0  0  0  0  0
  141.5494   71.6362  228.8366 H   0  0  0  0  0  0  0  0  0  0  0  0
  141.4786   72.3748  226.4472 H   0  0  0  0  0  0  0  0  0  0  0  0
  140.3408   72.1455  224.3226 H   0  0  0  0  0  0  0  0  0  0  0  0
  141.1994   70.6560  223.8317 H   0  0  0  0  0  0  0  0  0  0  0  0
  1  2  2  0
  2  3  1  0
  3  4  1  0
  4  5  1  0
  5  6  1  0
  6  7  1  0
  7  8  1  0
  8  9  1  0
  9 10  1  0
 10 11  1  0
  2 12  1  0
 12 13  2  0
 13 14  1  0
 14 15  2  0
 15 16  1  0
 16 17  1  0
 17 18  1  0
 18 19  1  0
 19 20  2  0
 20 21  1  0
 21 22  2  0
 22 23  1  0
 23 24  2  0
 24 25  1  0
 15 26  1  0
 26 27  2  0
 27 28  1  0
 28 29  1  0
 29 30  1  0
 30 31  1  0
 31 32  2  0
 32 33  1  0
 33 34  2  0
 34 35  1  0
 35 36  2  0
 36 37  1  0
 11  6  1  0
 27 12  1  0
 37 28  1  0
 25 16  1  0
 36 31  1  0
 24 19  1  0
  3 38  1  0
  4 39  1  0
  4 40  1  0
  5 41  1  0
  5 42  1  0
  6 43  1  0
  7 44  1  0
  7 45  1  0
  8 46  1  0
  8 47  1  0
  9 48  1  0
 10 49  1  0
 10 50  1  0
 11 51  1  0
 11 52  1  0
 13 53  1  0
 17 54  1  0
 17 55  1  0
 18 56  1  0
 18 57  1  0
 20 58  1  0
 21 59  1  0
 22 60  1  0
 23 61  1  0
 25 62  1  0
 25 63  1  0
 29 64  1  0
 29 65  1  0
 30 66  1  0
 30 67  1  0
 32 68  1  0
 33 69  1  0
 34 70  1  0
 35 71  1  0
 37 72  1  0
 37 73  1  0
M  END
>  <smiles>  (30) 
O=C(NCCC1CCNCC1)c1cnc(N2CCc3ccccc3C2)nc1N1CCc2ccccc2C1

>  <score_type>  (30) 
oracle

>  <origin>  (30) 
autodockgpu

>  <m_score__min__energy>  (30) 
-10.130000000000001

>  <m_primary>  (30) 
energy

>  <rmsd>  (30) 
6.623129450566709

>  <m_score__min__rmsd>  (30) 
6.623129450566709

>  <meeko>  (30) 
{"free_energy": -9.54, "intermolecular_energy": -11.33, "internal_energy": -1.05, "cluster_size": 15, "cluster_id": 1, "rank_in_cluster": 8}

>  <energy>  (30) 
-9.39

>  <cluster_rmsd>  (30) 
0.66

>  <cluster>  (30) 
2

$$$$

     RDKit          3D

 73 78  0  0  0  0  0  0  0  0999 V2000
  140.7330   73.6980  221.9880 O   0  0  0  0  0  0  0  0  0  0  0  0
  140.0200   72.6790  221.9070 C   0  0  0  0  0  0  0  0  0  0  0  0
  140.5840   71.5060  221.3060 N   0  0  0  0  0  0  0  0  0  0  0  0
  141.9680   71.5110  220.7980 C   0  0  0  0  0  0  0  0  0  0  0  0
  142.2130   72.5260  219.7420 C   0  0  0  0  0  0  0  0  0  0  0  0
  143.6760   72.8020  219.6100 C   0  0  0  0  0  0  0  0  0  0  0  0
  144.0700   74.0750  220.3720 C   0  0  0  0  0  0  0  0  0  0  0  0
  145.5950   74.0450  220.4580 C   0  0  0  0  0  0  0  0  0  0  0  0
  146.1990   73.4080  219.3180 N   0  0  0  0  0  0  0  0  0  0  0  0
  145.9380   71.9760  219.3900 C   0  0  0  0  0  0  0  0  0  0  0  0
  144.5930   71.7340  220.0980 C   0  0  0  0  0  0  0  0  0  0  0  0
  138.6490   72.5660  222.3740 C   0  0  0  0  0  0  0  0  0  0  0  0
  137.7650   73.5430  221.9050 C   0  0  0  0  0  0  0  0  0  0  0  0
  136.5000   73.5310  222.2790 N   0  0  0  0  0  0  0  0  0  0  0  0
  136.0510   72.5730  223.1180 C   0  0  0  0  0  0  0  0  0  0  0  0
  134.6770   72.6450  223.4750 N   0  0  0  0  0  0  0  0  0  0  0  0
  133.8570   71.4750  223.7230 C   0  0  0  0  0  0  0  0  0  0  0  0
  133.2090   71.4680  225.0780 C   0  0  0  0  0  0  0  0  0  0  0  0
  133.1040   72.8090  225.6530 C   0  0  0  0  0  0  0  0  0  0  0  0
  132.6070   72.9000  226.9580 C   0  0  0  0  0  0  0  0  0  0  0  0
  132.4650   74.1090  227.5970 C   0  0  0  0  0  0  0  0  0  0  0  0
  132.8050   75.2660  226.9790 C   0  0  0  0  0  0  0  0  0  0  0  0
  133.3060   75.2220  225.6710 C   0  0  0  0  0  0  0  0  0  0  0  0
  133.4400   73.9920  225.0480 C   0  0  0  0  0  0  0  0  0  0  0  0
  133.9840   73.9370  223.6380 C   0  0  0  0  0  0  0  0  0  0  0  0
  136.8820   71.6430  223.5670 N   0  0  0  0  0  0  0  0  0  0  0  0
  138.2040   71.5870  223.2280 C   0  0  0  0  0  0  0  0  0  0  0  0
  139.0040   70.5560  223.7610 N   0  0  0  0  0  0  0  0  0  0  0  0
  138.6960   69.1660  223.8140 C   0  0  0  0  0  0  0  0  0  0  0  0
  138.8590   68.5810  225.2010 C   0  0  0  0  0  0  0  0  0  0  0  0
  139.6340   69.4240  226.1180 C   0  0  0  0  0  0  0  0  0  0  0  0
  139.6540   69.0380  227.4620 C   0  0  0  0  0  0  0  0  0  0  0  0
  140.3650   69.7970  228.3580 C   0  0  0  0  0  0  0  0  0  0  0  0
  141.0710   70.9300  228.0150 C   0  0  0  0  0  0  0  0  0  0  0  0
  141.0520   71.3110  226.6930 C   0  0  0  0  0  0  0  0  0  0  0  0
  140.3330   70.5500  225.7710 C   0  0  0  0  0  0  0  0  0  0  0  0
  140.3030   70.9600  224.3340 C   0  0  0  0  0  0  0  0  0  0  0  0
  139.9870   70.6320  221.2350 H   0  0  0  0  0  0  0  0  0  0  0  0
  142.6461   71.7151  221.6398 H   0  0  0  0  0  0  0  0  0  0  0  0
  142.1472   70.5252  220.3439 H   0  0  0  0  0  0  0  0  0  0  0  0
  141.8275   72.1504  218.7826 H   0  0  0  0  0  0  0  0  0  0  0  0
  141.6988   73.4582  220.0187 H   0  0  0  0  0  0  0  0  0  0  0  0
  143.8033   72.8882  218.5208 H   0  0  0  0  0  0  0  0  0  0  0  0
  143.7334   74.9690  219.8266 H   0  0  0  0  0  0  0  0  0  0  0  0
  143.6062   74.1135  221.3687 H   0  0  0  0  0  0  0  0  0  0  0  0
  145.9651   75.0789  220.5215 H   0  0  0  0  0  0  0  0  0  0  0  0
  145.8679   73.4621  221.3500 H   0  0  0  0  0  0  0  0  0  0  0  0
  147.2260   73.5250  219.4220 H   0  0  0  0  0  0  0  0  0  0  0  0
  145.8970   71.5593  218.3728 H   0  0  0  0  0  0  0  0  0  0  0  0
  146.7434   71.4847  219.9556 H   0  0  0  0  0  0  0  0  0  0  0  0
  144.1969   70.7414  219.8377 H   0  0  0  0  0  0  0  0  0  0  0  0
  144.7017   71.7643  221.1922 H   0  0  0  0  0  0  0  0  0  0  0  0
  138.1262   74.3251  221.2210 H   0  0  0  0  0  0  0  0  0  0  0  0
  133.0660   71.4372  222.9596 H   0  0  0  0  0  0  0  0  0  0  0  0
  134.5232   70.6007  223.6808 H   0  0  0  0  0  0  0  0  0  0  0  0
  132.1984   71.0438  224.9841 H   0  0  0  0  0  0  0  0  0  0  0  0
  133.8390   70.8643  225.7479 H   0  0  0  0  0  0  0  0  0  0  0  0
  132.3220   71.9787  227.4872 H   0  0  0  0  0  0  0  0  0  0  0  0
  132.0702   74.1375  228.6233 H   0  0  0  0  0  0  0  0  0  0  0  0
  132.6890   76.2288  227.4982 H   0  0  0  0  0  0  0  0  0  0  0  0
  133.5879   76.1479  225.1482 H   0  0  0  0  0  0  0  0  0  0  0  0
  133.1587   74.0134  222.9148 H   0  0  0  0  0  0  0  0  0  0  0  0
  134.6779   74.7717  223.4598 H   0  0  0  0  0  0  0  0  0  0  0  0
  137.6533   69.0247  223.4933 H   0  0  0  0  0  0  0  0  0  0  0  0
  139.4015   68.6451  223.1500 H   0  0  0  0  0  0  0  0  0  0  0  0
  137.8584   68.4301  225.6323 H   0  0  0  0  0  0  0  0  0  0  0  0
  139.4173   67.6403  225.0855 H   0  0  0  0  0  0  0  0  0  0  0  0
  139.1097   68.1421  227.7953 H   0  0  0  0  0  0  0  0  0  0  0  0
  140.3717   69.4824  229.4120 H   0  0  0  0  0  0  0  0  0  0  0  0
  141.6276   71.5068  228.7683 H   0  0  0  0  0  0  0  0  0  0  0  0
  141.5989   72.2077  226.3660 H   0  0  0  0  0  0  0  0  0  0  0  0
  140.4200   72.0510  224.2565 H   0  0  0  0  0  0  0  0  0  0  0  0
  141.1247   70.4760  223.7858 H   0  0  0  0  0  0  0  0  0  0  0  0
  1  2  2  0
  2  3  1  0
  3  4  1  0
  4  5  1  0
  5  6  1  0
  6  7  1  0
  7  8  1  0
  8  9  1  0
  9 10  1  0
 10 11  1  0
  2 12  1  0
 12 13  2  0
 13 14  1  0
 14 15  2  0
 15 16  1  0
 16 17  1  0
 17 18  1  0
 18 19  1  0
 19 20  2  0
 20 21  1  0
 21 22  2  0
 22 23  1  0
 23 24  2  0
 24 25  1  0
 15 26  1  0
 26 27  2  0
 27 28  1  0
 28 29  1  0
 29 30  1  0
 30 31  1  0
 31 32  2  0
 32 33  1  0
 33 34  2  0
 34 35  1  0
 35 36  2  0
 36 37  1  0
 11  6  1  0
 27 12  1  0
 37 28  1  0
 25 16  1  0
 36 31  1  0
 24 19  1  0
  3 38  1  0
  4 39  1  0
  4 40  1  0
  5 41  1  0
  5 42  1  0
  6 43  1  0
  7 44  1  0
  7 45  1  0
  8 46  1  0
  8 47  1  0
  9 48  1  0
 10 49  1  0
 10 50  1  0
 11 51  1  0
 11 52  1  0
 13 53  1  0
 17 54  1  0
 17 55  1  0
 18 56  1  0
 18 57  1  0
 20 58  1  0
 21 59  1  0
 22 60  1  0
 23 61  1  0
 25 62  1  0
 25 63  1  0
 29 64  1  0
 29 65  1  0
 30 66  1  0
 30 67  1  0
 32 68  1  0
 33 69  1  0
 34 70  1  0
 35 71  1  0
 37 72  1  0
 37 73  1  0
M  END
>  <smiles>  (31) 
O=C(NCCC1CCNCC1)c1cnc(N2CCc3ccccc3C2)nc1N1CCc2ccccc2C1

>  <score_type>  (31) 
oracle

>  <origin>  (31) 
autodockgpu

>  <m_score__min__energy>  (31) 
-10.130000000000001

>  <m_primary>  (31) 
energy

>  <rmsd>  (31) 
6.838239071461818

>  <m_score__min__rmsd>  (31) 
6.838239071461818

>  <meeko>  (31) 
{"free_energy": -9.47, "intermolecular_energy": -11.26, "internal_energy": -1.16, "cluster_size": 15, "cluster_id": 1, "rank_in_cluster": 12}

>  <energy>  (31) 
-9.38

>  <cluster_rmsd>  (31) 
1.63

>  <cluster>  (31) 
2

$$$$

     RDKit          3D

 73 78  0  0  0  0  0  0  0  0999 V2000
  136.0250   72.9220  221.0230 O   0  0  0  0  0  0  0  0  0  0  0  0
  136.7680   73.1480  221.9970 C   0  0  0  0  0  0  0  0  0  0  0  0
  136.4460   72.5310  223.2500 N   0  0  0  0  0  0  0  0  0  0  0  0
  135.2670   71.6560  223.3780 C   0  0  0  0  0  0  0  0  0  0  0  0
  133.9760   72.3880  223.3790 C   0  0  0  0  0  0  0  0  0  0  0  0
  133.5980   72.7840  224.7700 C   0  0  0  0  0  0  0  0  0  0  0  0
  133.8230   71.6280  225.7540 C   0  0  0  0  0  0  0  0  0  0  0  0
  133.7490   72.2540  227.1460 C   0  0  0  0  0  0  0  0  0  0  0  0
  132.8430   73.3700  227.1990 N   0  0  0  0  0  0  0  0  0  0  0  0
  133.4360   74.4890  226.4770 C   0  0  0  0  0  0  0  0  0  0  0  0
  134.3240   73.9520  225.3410 C   0  0  0  0  0  0  0  0  0  0  0  0
  137.9500   73.9920  221.9820 C   0  0  0  0  0  0  0  0  0  0  0  0
  137.7210   75.3560  221.7720 C   0  0  0  0  0  0  0  0  0  0  0  0
  138.7310   76.2030  221.7320 N   0  0  0  0  0  0  0  0  0  0  0  0
  139.9950   75.7570  221.8950 C   0  0  0  0  0  0  0  0  0  0  0  0
  141.0220   76.7390  221.8270 N   0  0  0  0  0  0  0  0  0  0  0  0
  141.7250   77.0710  220.6040 C   0  0  0  0  0  0  0  0  0  0  0  0
  141.6490   78.5260  220.2390 C   0  0  0  0  0  0  0  0  0  0  0  0
  141.3490   79.3740  221.3930 C   0  0  0  0  0  0  0  0  0  0  0  0
  141.1550   80.7380  221.1420 C   0  0  0  0  0  0  0  0  0  0  0  0
  140.8690   81.6270  222.1500 C   0  0  0  0  0  0  0  0  0  0  0  0
  140.7620   81.2100  223.4350 C   0  0  0  0  0  0  0  0  0  0  0  0
  140.9490   79.8540  223.7330 C   0  0  0  0  0  0  0  0  0  0  0  0
  141.2370   78.9770  222.7000 C   0  0  0  0  0  0  0  0  0  0  0  0
  141.4360   77.5110  223.0130 C   0  0  0  0  0  0  0  0  0  0  0  0
  140.2220   74.4660  222.0950 N   0  0  0  0  0  0  0  0  0  0  0  0
  139.2310   73.5270  222.1480 C   0  0  0  0  0  0  0  0  0  0  0  0
  139.5780   72.1780  222.3650 N   0  0  0  0  0  0  0  0  0  0  0  0
  138.9490   71.0260  221.8100 C   0  0  0  0  0  0  0  0  0  0  0  0
  138.5640   70.0050  222.8600 C   0  0  0  0  0  0  0  0  0  0  0  0
  139.2210   70.2050  224.1570 C   0  0  0  0  0  0  0  0  0  0  0  0
  138.7630   69.4210  225.2200 C   0  0  0  0  0  0  0  0  0  0  0  0
  139.3460   69.5730  226.4540 C   0  0  0  0  0  0  0  0  0  0  0  0
  140.3670   70.4610  226.7170 C   0  0  0  0  0  0  0  0  0  0  0  0
  140.8180   71.2330  225.6720 C   0  0  0  0  0  0  0  0  0  0  0  0
  140.2340   71.0900  224.4120 C   0  0  0  0  0  0  0  0  0  0  0  0
  140.7160   71.9290  223.2730 C   0  0  0  0  0  0  0  0  0  0  0  0
  137.0740   72.7150  224.0860 H   0  0  0  0  0  0  0  0  0  0  0  0
  135.2652   70.9506  222.5340 H   0  0  0  0  0  0  0  0  0  0  0  0
  135.3485   71.1483  224.3504 H   0  0  0  0  0  0  0  0  0  0  0  0
  134.0721   73.2916  222.7591 H   0  0  0  0  0  0  0  0  0  0  0  0
  133.1942   71.7296  222.9724 H   0  0  0  0  0  0  0  0  0  0  0  0
  132.5399   73.0629  224.6577 H   0  0  0  0  0  0  0  0  0  0  0  0
  133.0407   70.8640  225.6343 H   0  0  0  0  0  0  0  0  0  0  0  0
  134.7883   71.1291  225.5825 H   0  0  0  0  0  0  0  0  0  0  0  0
  133.4089   71.4890  227.8595 H   0  0  0  0  0  0  0  0  0  0  0  0
  134.7528   72.6252  227.4001 H   0  0  0  0  0  0  0  0  0  0  0  0
  132.7880   73.6600  228.1950 H   0  0  0  0  0  0  0  0  0  0  0  0
  132.6380   75.1166  226.0535 H   0  0  0  0  0  0  0  0  0  0  0  0
  134.0464   75.0895  227.1676 H   0  0  0  0  0  0  0  0  0  0  0  0
  134.4697   74.7248  224.5719 H   0  0  0  0  0  0  0  0  0  0  0  0
  135.3205   73.6664  225.7091 H   0  0  0  0  0  0  0  0  0  0  0  0
  136.6929   75.7240  221.6395 H   0  0  0  0  0  0  0  0  0  0  0  0
  142.7837   76.7989  220.7273 H   0  0  0  0  0  0  0  0  0  0  0  0
  141.2390   76.5104  219.7919 H   0  0  0  0  0  0  0  0  0  0  0  0
  142.6158   78.8351  219.8149 H   0  0  0  0  0  0  0  0  0  0  0  0
  140.8332   78.6478  219.5113 H   0  0  0  0  0  0  0  0  0  0  0  0
  141.2338   81.1081  220.1091 H   0  0  0  0  0  0  0  0  0  0  0  0
  140.7250   82.6910  221.9108 H   0  0  0  0  0  0  0  0  0  0  0  0
  140.5308   81.9284  224.2353 H   0  0  0  0  0  0  0  0  0  0  0  0
  140.8686   79.4921  224.7687 H   0  0  0  0  0  0  0  0  0  0  0  0
  142.4954   77.3160  223.2359 H   0  0  0  0  0  0  0  0  0  0  0  0
  140.8390   77.2198  223.8898 H   0  0  0  0  0  0  0  0  0  0  0  0
  138.0398   71.3436  221.2785 H   0  0  0  0  0  0  0  0  0  0  0  0
  139.6716   70.5480  221.1323 H   0  0  0  0  0  0  0  0  0  0  0  0
  137.4758   70.0585  223.0117 H   0  0  0  0  0  0  0  0  0  0  0  0
  138.8920   69.0242  222.4852 H   0  0  0  0  0  0  0  0  0  0  0  0
  137.9500   68.6952  225.0706 H   0  0  0  0  0  0  0  0  0  0  0  0
  138.9765   68.9494  227.2814 H   0  0  0  0  0  0  0  0  0  0  0  0
  140.8037   70.5487  227.7228 H   0  0  0  0  0  0  0  0  0  0  0  0
  141.6316   71.9567  225.8276 H   0  0  0  0  0  0  0  0  0  0  0  0
  141.1039   72.8853  223.6538 H   0  0  0  0  0  0  0  0  0  0  0  0
  141.5228   71.4096  222.7351 H   0  0  0  0  0  0  0  0  0  0  0  0
  1  2  2  0
  2  3  1  0
  3  4  1  0
  4  5  1  0
  5  6  1  0
  6  7  1  0
  7  8  1  0
  8  9  1  0
  9 10  1  0
 10 11  1  0
  2 12  1  0
 12 13  2  0
 13 14  1  0
 14 15  2  0
 15 16  1  0
 16 17  1  0
 17 18  1  0
 18 19  1  0
 19 20  2  0
 20 21  1  0
 21 22  2  0
 22 23  1  0
 23 24  2  0
 24 25  1  0
 15 26  1  0
 26 27  2  0
 27 28  1  0
 28 29  1  0
 29 30  1  0
 30 31  1  0
 31 32  2  0
 32 33  1  0
 33 34  2  0
 34 35  1  0
 35 36  2  0
 36 37  1  0
 11  6  1  0
 27 12  1  0
 37 28  1  0
 25 16  1  0
 36 31  1  0
 24 19  1  0
  3 38  1  0
  4 39  1  0
  4 40  1  0
  5 41  1  0
  5 42  1  0
  6 43  1  0
  7 44  1  0
  7 45  1  0
  8 46  1  0
  8 47  1  0
  9 48  1  0
 10 49  1  0
 10 50  1  0
 11 51  1  0
 11 52  1  0
 13 53  1  0
 17 54  1  0
 17 55  1  0
 18 56  1  0
 18 57  1  0
 20 58  1  0
 21 59  1  0
 22 60  1  0
 23 61  1  0
 25 62  1  0
 25 63  1  0
 29 64  1  0
 29 65  1  0
 30 66  1  0
 30 67  1  0
 32 68  1  0
 33 69  1  0
 34 70  1  0
 35 71  1  0
 37 72  1  0
 37 73  1  0
M  END
>  <smiles>  (32) 
O=C(NCCC1CCNCC1)c1cnc(N2CCc3ccccc3C2)nc1N1CCc2ccccc2C1

>  <score_type>  (32) 
oracle

>  <origin>  (32) 
autodockgpu

>  <m_score__min__energy>  (32) 
-10.130000000000001

>  <m_primary>  (32) 
energy

>  <rmsd>  (32) 
8.895378056112436

>  <m_score__min__rmsd>  (32) 
8.895378056112436

>  <meeko>  (32) 
{"free_energy": -9.95, "intermolecular_energy": -11.74, "internal_energy": -1.58, "cluster_size": 30, "cluster_id": 2, "rank_in_cluster": 4}

>  <energy>  (32) 
-9.29

>  <cluster_rmsd>  (32) 
1.51

>  <cluster>  (32) 
2

$$$$

     RDKit          3D

 73 78  0  0  0  0  0  0  0  0999 V2000
  135.8120   73.3120  221.0320 O   0  0  0  0  0  0  0  0  0  0  0  0
  136.6390   73.3900  221.9610 C   0  0  0  0  0  0  0  0  0  0  0  0
  136.3910   72.6310  223.1510 N   0  0  0  0  0  0  0  0  0  0  0  0
  135.1880   71.7870  223.2690 C   0  0  0  0  0  0  0  0  0  0  0  0
  134.9390   71.2900  224.6450 C   0  0  0  0  0  0  0  0  0  0  0  0
  134.6730   69.8190  224.6320 C   0  0  0  0  0  0  0  0  0  0  0  0
  134.0900   69.3500  225.9730 C   0  0  0  0  0  0  0  0  0  0  0  0
  133.5420   67.9480  225.7130 C   0  0  0  0  0  0  0  0  0  0  0  0
  134.2990   67.2370  224.7180 N   0  0  0  0  0  0  0  0  0  0  0  0
  134.0310   67.8310  223.4140 C   0  0  0  0  0  0  0  0  0  0  0  0
  133.7320   69.3310  223.5860 C   0  0  0  0  0  0  0  0  0  0  0  0
  137.8520   74.1880  221.9500 C   0  0  0  0  0  0  0  0  0  0  0  0
  137.6690   75.5700  221.8280 C   0  0  0  0  0  0  0  0  0  0  0  0
  138.7110   76.3800  221.7990 N   0  0  0  0  0  0  0  0  0  0  0  0
  139.9600   75.8790  221.8890 C   0  0  0  0  0  0  0  0  0  0  0  0
  141.0220   76.8240  221.8390 N   0  0  0  0  0  0  0  0  0  0  0  0
  141.7490   77.1420  220.6260 C   0  0  0  0  0  0  0  0  0  0  0  0
  141.7280   78.6020  220.2740 C   0  0  0  0  0  0  0  0  0  0  0  0
  141.4460   79.4490  221.4320 C   0  0  0  0  0  0  0  0  0  0  0  0
  141.3030   80.8210  221.1910 C   0  0  0  0  0  0  0  0  0  0  0  0
  141.0390   81.7120  222.2040 C   0  0  0  0  0  0  0  0  0  0  0  0
  140.9050   81.2870  223.4850 C   0  0  0  0  0  0  0  0  0  0  0  0
  141.0410   79.9230  223.7730 C   0  0  0  0  0  0  0  0  0  0  0  0
  141.3080   79.0450  222.7350 C   0  0  0  0  0  0  0  0  0  0  0  0
  141.4520   77.5710  223.0360 C   0  0  0  0  0  0  0  0  0  0  0  0
  140.1440   74.5710  222.0050 N   0  0  0  0  0  0  0  0  0  0  0  0
  139.1190   73.6670  222.0420 C   0  0  0  0  0  0  0  0  0  0  0  0
  139.4210   72.2960  222.1680 N   0  0  0  0  0  0  0  0  0  0  0  0
  138.7760   71.2080  221.5110 C   0  0  0  0  0  0  0  0  0  0  0  0
  138.3300   70.1240  222.4710 C   0  0  0  0  0  0  0  0  0  0  0  0
  138.9520   70.2080  223.7970 C   0  0  0  0  0  0  0  0  0  0  0  0
  138.4400   69.3630  224.7860 C   0  0  0  0  0  0  0  0  0  0  0  0
  138.9880   69.4050  226.0430 C   0  0  0  0  0  0  0  0  0  0  0  0
  140.0250   70.2400  226.4000 C   0  0  0  0  0  0  0  0  0  0  0  0
  140.5300   71.0730  225.4290 C   0  0  0  0  0  0  0  0  0  0  0  0
  139.9820   71.0400  224.1450 C   0  0  0  0  0  0  0  0  0  0  0  0
  140.5220   71.9460  223.0860 C   0  0  0  0  0  0  0  0  0  0  0  0
  137.0900   72.6870  223.9480 H   0  0  0  0  0  0  0  0  0  0  0  0
  134.3167   72.3782  222.9506 H   0  0  0  0  0  0  0  0  0  0  0  0
  135.3519   70.9041  222.6337 H   0  0  0  0  0  0  0  0  0  0  0  0
  135.8227   71.4923  225.2681 H   0  0  0  0  0  0  0  0  0  0  0  0
  134.0586   71.8064  225.0551 H   0  0  0  0  0  0  0  0  0  0  0  0
  135.6674   69.4004  224.4178 H   0  0  0  0  0  0  0  0  0  0  0  0
  134.8746   69.3191  226.7433 H   0  0  0  0  0  0  0  0  0  0  0  0
  133.3081   70.0320  226.3384 H   0  0  0  0  0  0  0  0  0  0  0  0
  133.5716   67.3776  226.6531 H   0  0  0  0  0  0  0  0  0  0  0  0
  132.5137   68.0552  225.3374 H   0  0  0  0  0  0  0  0  0  0  0  0
  133.9130   66.2730  224.6860 H   0  0  0  0  0  0  0  0  0  0  0  0
  134.9104   67.7043  222.7655 H   0  0  0  0  0  0  0  0  0  0  0  0
  133.1633   67.3340  222.9557 H   0  0  0  0  0  0  0  0  0  0  0  0
  133.9015   69.8656  222.6397 H   0  0  0  0  0  0  0  0  0  0  0  0
  132.6844   69.5029  223.8741 H   0  0  0  0  0  0  0  0  0  0  0  0
  136.6522   75.9833  221.7559 H   0  0  0  0  0  0  0  0  0  0  0  0
  142.7961   76.8316  220.7573 H   0  0  0  0  0  0  0  0  0  0  0  0
  141.2520   76.6062  219.8039 H   0  0  0  0  0  0  0  0  0  0  0  0
  142.7094   78.8807  219.8628 H   0  0  0  0  0  0  0  0  0  0  0  0
  140.9246   78.7590  219.5392 H   0  0  0  0  0  0  0  0  0  0  0  0
  141.4048   81.1964  220.1620 H   0  0  0  0  0  0  0  0  0  0  0  0
  140.9352   82.7824  221.9729 H   0  0  0  0  0  0  0  0  0  0  0  0
  140.6917   82.0062  224.2896 H   0  0  0  0  0  0  0  0  0  0  0  0
  140.9377   79.5555  224.8046 H   0  0  0  0  0  0  0  0  0  0  0  0
  142.5017   77.3367  223.2666 H   0  0  0  0  0  0  0  0  0  0  0  0
  140.8366   77.2936  223.9045 H   0  0  0  0  0  0  0  0  0  0  0  0
  137.8928   71.5920  220.9795 H   0  0  0  0  0  0  0  0  0  0  0  0
  139.5047   70.7593  220.8199 H   0  0  0  0  0  0  0  0  0  0  0  0
  137.2396   70.1991  222.5951 H   0  0  0  0  0  0  0  0  0  0  0  0
  138.6415   69.1639  222.0337 H   0  0  0  0  0  0  0  0  0  0  0  0
  137.6114   68.6757  224.5601 H   0  0  0  0  0  0  0  0  0  0  0  0
  138.5759   68.7333  226.8105 H   0  0  0  0  0  0  0  0  0  0  0  0
  140.4328   70.2401  227.4216 H   0  0  0  0  0  0  0  0  0  0  0  0
  141.3579   71.7589  225.6617 H   0  0  0  0  0  0  0  0  0  0  0  0
  140.9251   72.8592  223.5482 H   0  0  0  0  0  0  0  0  0  0  0  0
  141.3297   71.4433  222.5338 H   0  0  0  0  0  0  0  0  0  0  0  0
  1  2  2  0
  2  3  1  0
  3  4  1  0
  4  5  1  0
  5  6  1  0
  6  7  1  0
  7  8  1  0
  8  9  1  0
  9 10  1  0
 10 11  1  0
  2 12  1  0
 12 13  2  0
 13 14  1  0
 14 15  2  0
 15 16  1  0
 16 17  1  0
 17 18  1  0
 18 19  1  0
 19 20  2  0
 20 21  1  0
 21 22  2  0
 22 23  1  0
 23 24  2  0
 24 25  1  0
 15 26  1  0
 26 27  2  0
 27 28  1  0
 28 29  1  0
 29 30  1  0
 30 31  1  0
 31 32  2  0
 32 33  1  0
 33 34  2  0
 34 35  1  0
 35 36  2  0
 36 37  1  0
 11  6  1  0
 27 12  1  0
 37 28  1  0
 25 16  1  0
 36 31  1  0
 24 19  1  0
  3 38  1  0
  4 39  1  0
  4 40  1  0
  5 41  1  0
  5 42  1  0
  6 43  1  0
  7 44  1  0
  7 45  1  0
  8 46  1  0
  8 47  1  0
  9 48  1  0
 10 49  1  0
 10 50  1  0
 11 51  1  0
 11 52  1  0
 13 53  1  0
 17 54  1  0
 17 55  1  0
 18 56  1  0
 18 57  1  0
 20 58  1  0
 21 59  1  0
 22 60  1  0
 23 61  1  0
 25 62  1  0
 25 63  1  0
 29 64  1  0
 29 65  1  0
 30 66  1  0
 30 67  1  0
 32 68  1  0
 33 69  1  0
 34 70  1  0
 35 71  1  0
 37 72  1  0
 37 73  1  0
M  END
>  <smiles>  (33) 
O=C(NCCC1CCNCC1)c1cnc(N2CCc3ccccc3C2)nc1N1CCc2ccccc2C1

>  <score_type>  (33) 
oracle

>  <origin>  (33) 
autodockgpu

>  <m_score__min__energy>  (33) 
-10.130000000000001

>  <m_primary>  (33) 
energy

>  <rmsd>  (33) 
9.418743832986033

>  <m_score__min__rmsd>  (33) 
9.418743832986033

>  <meeko>  (33) 
{"free_energy": -9.26, "intermolecular_energy": -11.05, "internal_energy": -1.84, "cluster_size": 30, "cluster_id": 2, "rank_in_cluster": 19}

>  <energy>  (33) 
-9.27

>  <cluster_rmsd>  (33) 
1.61

>  <cluster>  (33) 
2

$$$$

     RDKit          3D

 73 78  0  0  0  0  0  0  0  0999 V2000
  137.0210   70.4380  223.9520 O   0  0  0  0  0  0  0  0  0  0  0  0
  136.7050   71.3620  223.1780 C   0  0  0  0  0  0  0  0  0  0  0  0
  135.3630   71.3940  222.6760 N   0  0  0  0  0  0  0  0  0  0  0  0
  134.3890   70.3580  223.0640 C   0  0  0  0  0  0  0  0  0  0  0  0
  134.6120   69.8070  224.4240 C   0  0  0  0  0  0  0  0  0  0  0  0
  134.2330   70.8100  225.4660 C   0  0  0  0  0  0  0  0  0  0  0  0
  132.9800   71.5930  225.0500 C   0  0  0  0  0  0  0  0  0  0  0  0
  132.5020   72.3030  226.3150 C   0  0  0  0  0  0  0  0  0  0  0  0
  133.5880   72.6640  227.1870 N   0  0  0  0  0  0  0  0  0  0  0  0
  134.1220   71.4510  227.7950 C   0  0  0  0  0  0  0  0  0  0  0  0
  133.9450   70.2700  226.8240 C   0  0  0  0  0  0  0  0  0  0  0  0
  137.5830   72.4300  222.7320 C   0  0  0  0  0  0  0  0  0  0  0  0
  136.9470   73.5740  222.2370 C   0  0  0  0  0  0  0  0  0  0  0  0
  137.6590   74.5950  221.8000 N   0  0  0  0  0  0  0  0  0  0  0  0
  139.0070   74.5410  221.8270 C   0  0  0  0  0  0  0  0  0  0  0  0
  139.6920   75.6830  221.3260 N   0  0  0  0  0  0  0  0  0  0  0  0
  139.1660   76.5270  220.2720 C   0  0  0  0  0  0  0  0  0  0  0  0
  139.0470   77.9730  220.6590 C   0  0  0  0  0  0  0  0  0  0  0  0
  139.9250   78.3260  221.7740 C   0  0  0  0  0  0  0  0  0  0  0  0
  139.8150   79.6270  222.2780 C   0  0  0  0  0  0  0  0  0  0  0  0
  140.5910   80.0680  223.3240 C   0  0  0  0  0  0  0  0  0  0  0  0
  141.4990   79.2480  223.9090 C   0  0  0  0  0  0  0  0  0  0  0  0
  141.6440   77.9370  223.4350 C   0  0  0  0  0  0  0  0  0  0  0  0
  140.8510   77.5170  222.3810 C   0  0  0  0  0  0  0  0  0  0  0  0
  140.9980   76.1020  221.8670 C   0  0  0  0  0  0  0  0  0  0  0  0
  139.6190   73.4620  222.2940 N   0  0  0  0  0  0  0  0  0  0  0  0
  138.9540   72.3640  222.7640 C   0  0  0  0  0  0  0  0  0  0  0  0
  139.6990   71.2660  223.2400 N   0  0  0  0  0  0  0  0  0  0  0  0
  139.5500   69.8980  222.8670 C   0  0  0  0  0  0  0  0  0  0  0  0
  139.4070   68.9770  224.0610 C   0  0  0  0  0  0  0  0  0  0  0  0
  139.8100   69.5840  225.3350 C   0  0  0  0  0  0  0  0  0  0  0  0
  139.5190   68.8600  226.4950 C   0  0  0  0  0  0  0  0  0  0  0  0
  139.8750   69.3860  227.7120 C   0  0  0  0  0  0  0  0  0  0  0  0
  140.5110   70.6000  227.8660 C   0  0  0  0  0  0  0  0  0  0  0  0
  140.7980   71.3130  226.7260 C   0  0  0  0  0  0  0  0  0  0  0  0
  140.4410   70.7900  225.4820 C   0  0  0  0  0  0  0  0  0  0  0  0
  140.7450   71.5620  224.2380 C   0  0  0  0  0  0  0  0  0  0  0  0
  135.0820   72.1780  222.0180 H   0  0  0  0  0  0  0  0  0  0  0  0
  133.3816   70.7983  223.0288 H   0  0  0  0  0  0  0  0  0  0  0  0
  134.5084   69.5243  222.3565 H   0  0  0  0  0  0  0  0  0  0  0  0
  133.9992   68.9026  224.5527 H   0  0  0  0  0  0  0  0  0  0  0  0
  135.6785   69.5629  224.5376 H   0  0  0  0  0  0  0  0  0  0  0  0
  135.1359   71.4348  225.5332 H   0  0  0  0  0  0  0  0  0  0  0  0
  133.2271   72.3261  224.2680 H   0  0  0  0  0  0  0  0  0  0  0  0
  132.2047   70.9314  224.6364 H   0  0  0  0  0  0  0  0  0  0  0  0
  131.9637   73.2173  226.0246 H   0  0  0  0  0  0  0  0  0  0  0  0
  131.8499   71.6071  226.8632 H   0  0  0  0  0  0  0  0  0  0  0  0
  133.1750   73.2220  227.9600 H   0  0  0  0  0  0  0  0  0  0  0  0
  135.1913   71.5899  228.0124 H   0  0  0  0  0  0  0  0  0  0  0  0
  133.5821   71.2411  228.7301 H   0  0  0  0  0  0  0  0  0  0  0  0
  134.6495   69.4623  227.0717 H   0  0  0  0  0  0  0  0  0  0  0  0
  132.9312   69.8473  226.8834 H   0  0  0  0  0  0  0  0  0  0  0  0
  135.8483   73.6221  222.2122 H   0  0  0  0  0  0  0  0  0  0  0  0
  139.8355   76.4543  219.4023 H   0  0  0  0  0  0  0  0  0  0  0  0
  138.1497   76.1689  220.0506 H   0  0  0  0  0  0  0  0  0  0  0  0
  139.3118   78.5940  219.7906 H   0  0  0  0  0  0  0  0  0  0  0  0
  138.0098   78.1499  220.9799 H   0  0  0  0  0  0  0  0  0  0  0  0
  139.0873   80.3161  221.8246 H   0  0  0  0  0  0  0  0  0  0  0  0
  140.4738   81.0984  223.6907 H   0  0  0  0  0  0  0  0  0  0  0  0
  142.1149   79.6078  224.7463 H   0  0  0  0  0  0  0  0  0  0  0  0
  142.3749   77.2540  223.8924 H   0  0  0  0  0  0  0  0  0  0  0  0
  141.7599   76.0687  221.0743 H   0  0  0  0  0  0  0  0  0  0  0  0
  141.3128   75.4286  222.6778 H   0  0  0  0  0  0  0  0  0  0  0  0
  138.6525   69.8007  222.2384 H   0  0  0  0  0  0  0  0  0  0  0  0
  140.4606   69.6008  222.3263 H   0  0  0  0  0  0  0  0  0  0  0  0
  138.3523   68.6747  224.1402 H   0  0  0  0  0  0  0  0  0  0  0  0
  140.0802   68.1245  223.8877 H   0  0  0  0  0  0  0  0  0  0  0  0
  139.0132   67.8851  226.4336 H   0  0  0  0  0  0  0  0  0  0  0  0
  139.6394   68.8058  228.6164 H   0  0  0  0  0  0  0  0  0  0  0  0
  140.7782   70.9829  228.8620 H   0  0  0  0  0  0  0  0  0  0  0  0
  141.3045   72.2871  226.7936 H   0  0  0  0  0  0  0  0  0  0  0  0
  140.7516   72.6391  224.4613 H   0  0  0  0  0  0  0  0  0  0  0  0
  141.7327   71.2761  223.8471 H   0  0  0  0  0  0  0  0  0  0  0  0
  1  2  2  0
  2  3  1  0
  3  4  1  0
  4  5  1  0
  5  6  1  0
  6  7  1  0
  7  8  1  0
  8  9  1  0
  9 10  1  0
 10 11  1  0
  2 12  1  0
 12 13  2  0
 13 14  1  0
 14 15  2  0
 15 16  1  0
 16 17  1  0
 17 18  1  0
 18 19  1  0
 19 20  2  0
 20 21  1  0
 21 22  2  0
 22 23  1  0
 23 24  2  0
 24 25  1  0
 15 26  1  0
 26 27  2  0
 27 28  1  0
 28 29  1  0
 29 30  1  0
 30 31  1  0
 31 32  2  0
 32 33  1  0
 33 34  2  0
 34 35  1  0
 35 36  2  0
 36 37  1  0
 11  6  1  0
 27 12  1  0
 37 28  1  0
 25 16  1  0
 36 31  1  0
 24 19  1  0
  3 38  1  0
  4 39  1  0
  4 40  1  0
  5 41  1  0
  5 42  1  0
  6 43  1  0
  7 44  1  0
  7 45  1  0
  8 46  1  0
  8 47  1  0
  9 48  1  0
 10 49  1  0
 10 50  1  0
 11 51  1  0
 11 52  1  0
 13 53  1  0
 17 54  1  0
 17 55  1  0
 18 56  1  0
 18 57  1  0
 20 58  1  0
 21 59  1  0
 22 60  1  0
 23 61  1  0
 25 62  1  0
 25 63  1  0
 29 64  1  0
 29 65  1  0
 30 66  1  0
 30 67  1  0
 32 68  1  0
 33 69  1  0
 34 70  1  0
 35 71  1  0
 37 72  1  0
 37 73  1  0
M  END
>  <smiles>  (34) 
O=C(NCCC1CCNCC1)c1cnc(N2CCc3ccccc3C2)nc1N1CCc2ccccc2C1

>  <score_type>  (34) 
oracle

>  <origin>  (34) 
autodockgpu

>  <m_score__min__energy>  (34) 
-10.130000000000001

>  <m_primary>  (34) 
energy

>  <rmsd>  (34) 
9.911478074188556

>  <m_score__min__rmsd>  (34) 
9.911478074188556

>  <meeko>  (34) 
{"free_energy": -9.38, "intermolecular_energy": -11.17, "internal_energy": -1.07, "cluster_size": 30, "cluster_id": 2, "rank_in_cluster": 16}

>  <energy>  (34) 
-9.26

>  <cluster_rmsd>  (34) 
1.88

>  <cluster>  (34) 
2

$$$$

     RDKit          3D

 73 78  0  0  0  0  0  0  0  0999 V2000
  140.5020   73.7270  221.9920 O   0  0  0  0  0  0  0  0  0  0  0  0
  139.9570   72.6110  222.0930 C   0  0  0  0  0  0  0  0  0  0  0  0
  140.6980   71.4570  221.6760 N   0  0  0  0  0  0  0  0  0  0  0  0
  142.0650   71.5930  221.1410 C   0  0  0  0  0  0  0  0  0  0  0  0
  142.1210   72.2060  219.7900 C   0  0  0  0  0  0  0  0  0  0  0  0
  143.5120   72.6470  219.4710 C   0  0  0  0  0  0  0  0  0  0  0  0
  143.6560   72.9890  217.9810 C   0  0  0  0  0  0  0  0  0  0  0  0
  144.9760   73.7480  217.8600 C   0  0  0  0  0  0  0  0  0  0  0  0
  145.9530   73.3090  218.8220 N   0  0  0  0  0  0  0  0  0  0  0  0
  145.5460   73.7690  220.1440 C   0  0  0  0  0  0  0  0  0  0  0  0
  144.0100   73.8390  220.2130 C   0  0  0  0  0  0  0  0  0  0  0  0
  138.6200   72.3660  222.6040 C   0  0  0  0  0  0  0  0  0  0  0  0
  137.6350   73.2700  222.1890 C   0  0  0  0  0  0  0  0  0  0  0  0
  136.3910   73.1360  222.6060 N   0  0  0  0  0  0  0  0  0  0  0  0
  136.0600   72.1250  223.4360 C   0  0  0  0  0  0  0  0  0  0  0  0
  134.6980   72.0650  223.8430 N   0  0  0  0  0  0  0  0  0  0  0  0
  134.0930   70.8850  224.4280 C   0  0  0  0  0  0  0  0  0  0  0  0
  133.4750   71.1270  225.7750 C   0  0  0  0  0  0  0  0  0  0  0  0
  133.1510   72.5370  225.9930 C   0  0  0  0  0  0  0  0  0  0  0  0
  132.6640   72.8850  227.2580 C   0  0  0  0  0  0  0  0  0  0  0  0
  132.3270   74.1800  227.5740 C   0  0  0  0  0  0  0  0  0  0  0  0
  132.4560   75.1740  226.6620 C   0  0  0  0  0  0  0  0  0  0  0  0
  132.9390   74.8710  225.3820 C   0  0  0  0  0  0  0  0  0  0  0  0
  133.2720   73.5600  225.0880 C   0  0  0  0  0  0  0  0  0  0  0  0
  133.7980   73.2260  223.7100 C   0  0  0  0  0  0  0  0  0  0  0  0
  136.9860   71.2630  223.8340 N   0  0  0  0  0  0  0  0  0  0  0  0
  138.2940   71.3330  223.4480 C   0  0  0  0  0  0  0  0  0  0  0  0
  139.2020   70.3670  223.9280 N   0  0  0  0  0  0  0  0  0  0  0  0
  139.0820   68.9500  223.8340 C   0  0  0  0  0  0  0  0  0  0  0  0
  139.2600   68.2560  225.1670 C   0  0  0  0  0  0  0  0  0  0  0  0
  139.8730   69.0970  226.2020 C   0  0  0  0  0  0  0  0  0  0  0  0
  139.8850   68.5840  227.5030 C   0  0  0  0  0  0  0  0  0  0  0  0
  140.4460   69.3350  228.5060 C   0  0  0  0  0  0  0  0  0  0  0  0
  141.0060   70.5800  228.3110 C   0  0  0  0  0  0  0  0  0  0  0  0
  140.9950   71.0850  227.0320 C   0  0  0  0  0  0  0  0  0  0  0  0
  140.4280   70.3330  226.0020 C   0  0  0  0  0  0  0  0  0  0  0  0
  140.4080   70.8780  224.6110 C   0  0  0  0  0  0  0  0  0  0  0  0
  140.2440   70.5020  221.7600 H   0  0  0  0  0  0  0  0  0  0  0  0
  142.6468   72.2214  221.8314 H   0  0  0  0  0  0  0  0  0  0  0  0
  142.4759   70.5768  221.0492 H   0  0  0  0  0  0  0  0  0  0  0  0
  141.7959   71.4664  219.0435 H   0  0  0  0  0  0  0  0  0  0  0  0
  141.4572   73.0829  219.7703 H   0  0  0  0  0  0  0  0  0  0  0  0
  144.1125   71.7787  219.7798 H   0  0  0  0  0  0  0  0  0  0  0  0
  143.6846   72.0701  217.3771 H   0  0  0  0  0  0  0  0  0  0  0  0
  142.8076   73.5868  217.6166 H   0  0  0  0  0  0  0  0  0  0  0  0
  145.3812   73.5926  216.8492 H   0  0  0  0  0  0  0  0  0  0  0  0
  144.7699   74.8111  218.0533 H   0  0  0  0  0  0  0  0  0  0  0  0
  146.8360   73.8090  218.5960 H   0  0  0  0  0  0  0  0  0  0  0  0
  145.9156   73.0672  220.9062 H   0  0  0  0  0  0  0  0  0  0  0  0
  145.9671   74.7680  220.3301 H   0  0  0  0  0  0  0  0  0  0  0  0
  143.6723   73.8066  221.2594 H   0  0  0  0  0  0  0  0  0  0  0  0
  143.6288   74.7740  219.7766 H   0  0  0  0  0  0  0  0  0  0  0  0
  137.8997   74.0957  221.5121 H   0  0  0  0  0  0  0  0  0  0  0  0
  133.3092   70.5227  223.7465 H   0  0  0  0  0  0  0  0  0  0  0  0
  134.8980   70.1492  224.5716 H   0  0  0  0  0  0  0  0  0  0  0  0
  132.5505   70.5359  225.8512 H   0  0  0  0  0  0  0  0  0  0  0  0
  134.2075   70.8284  226.5394 H   0  0  0  0  0  0  0  0  0  0  0  0
  132.5476   72.1008  228.0206 H   0  0  0  0  0  0  0  0  0  0  0  0
  131.9478   74.4122  228.5801 H   0  0  0  0  0  0  0  0  0  0  0  0
  132.1845   76.2074  226.9237 H   0  0  0  0  0  0  0  0  0  0  0  0
  133.0515   75.6607  224.6245 H   0  0  0  0  0  0  0  0  0  0  0  0
  132.9619   72.9771  223.0400 H   0  0  0  0  0  0  0  0  0  0  0  0
  134.3376   74.0851  223.2848 H   0  0  0  0  0  0  0  0  0  0  0  0
  138.0833   68.7072  223.4421 H   0  0  0  0  0  0  0  0  0  0  0  0
  139.8804   68.5939  223.1663 H   0  0  0  0  0  0  0  0  0  0  0  0
  138.2705   67.9344  225.5241 H   0  0  0  0  0  0  0  0  0  0  0  0
  139.9445   67.4119  224.9969 H   0  0  0  0  0  0  0  0  0  0  0  0
  139.4524   67.5959  227.7189 H   0  0  0  0  0  0  0  0  0  0  0  0
  140.4490   68.9194  229.5245 H   0  0  0  0  0  0  0  0  0  0  0  0
  141.4442   71.1468  229.1457 H   0  0  0  0  0  0  0  0  0  0  0  0
  141.4295   72.0736  226.8224 H   0  0  0  0  0  0  0  0  0  0  0  0
  140.3794   71.9772  224.6429 H   0  0  0  0  0  0  0  0  0  0  0  0
  141.3118   70.5635  224.0685 H   0  0  0  0  0  0  0  0  0  0  0  0
  1  2  2  0
  2  3  1  0
  3  4  1  0
  4  5  1  0
  5  6  1  0
  6  7  1  0
  7  8  1  0
  8  9  1  0
  9 10  1  0
 10 11  1  0
  2 12  1  0
 12 13  2  0
 13 14  1  0
 14 15  2  0
 15 16  1  0
 16 17  1  0
 17 18  1  0
 18 19  1  0
 19 20  2  0
 20 21  1  0
 21 22  2  0
 22 23  1  0
 23 24  2  0
 24 25  1  0
 15 26  1  0
 26 27  2  0
 27 28  1  0
 28 29  1  0
 29 30  1  0
 30 31  1  0
 31 32  2  0
 32 33  1  0
 33 34  2  0
 34 35  1  0
 35 36  2  0
 36 37  1  0
 11  6  1  0
 27 12  1  0
 37 28  1  0
 25 16  1  0
 36 31  1  0
 24 19  1  0
  3 38  1  0
  4 39  1  0
  4 40  1  0
  5 41  1  0
  5 42  1  0
  6 43  1  0
  7 44  1  0
  7 45  1  0
  8 46  1  0
  8 47  1  0
  9 48  1  0
 10 49  1  0
 10 50  1  0
 11 51  1  0
 11 52  1  0
 13 53  1  0
 17 54  1  0
 17 55  1  0
 18 56  1  0
 18 57  1  0
 20 58  1  0
 21 59  1  0
 22 60  1  0
 23 61  1  0
 25 62  1  0
 25 63  1  0
 29 64  1  0
 29 65  1  0
 30 66  1  0
 30 67  1  0
 32 68  1  0
 33 69  1  0
 34 70  1  0
 35 71  1  0
 37 72  1  0
 37 73  1  0
M  END
>  <smiles>  (35) 
O=C(NCCC1CCNCC1)c1cnc(N2CCc3ccccc3C2)nc1N1CCc2ccccc2C1

>  <score_type>  (35) 
oracle

>  <origin>  (35) 
autodockgpu

>  <m_score__min__energy>  (35) 
-10.130000000000001

>  <m_primary>  (35) 
energy

>  <rmsd>  (35) 
6.662067609600923

>  <m_score__min__rmsd>  (35) 
6.662067609600923

>  <meeko>  (35) 
{"free_energy": -9.72, "intermolecular_energy": -11.51, "internal_energy": -1.16, "cluster_size": 15, "cluster_id": 1, "rank_in_cluster": 4}

>  <energy>  (35) 
-9.17

>  <cluster_rmsd>  (35) 
1.75

>  <cluster>  (35) 
2

$$$$

     RDKit          3D

 73 78  0  0  0  0  0  0  0  0999 V2000
  135.5100   73.9280  221.3880 O   0  0  0  0  0  0  0  0  0  0  0  0
  136.4400   73.8730  222.2160 C   0  0  0  0  0  0  0  0  0  0  0  0
  136.2780   73.0240  223.3590 N   0  0  0  0  0  0  0  0  0  0  0  0
  135.0430   72.2420  223.5480 C   0  0  0  0  0  0  0  0  0  0  0  0
  134.5110   72.2880  224.9330 C   0  0  0  0  0  0  0  0  0  0  0  0
  134.1900   70.9110  225.4180 C   0  0  0  0  0  0  0  0  0  0  0  0
  132.6860   70.7550  225.6820 C   0  0  0  0  0  0  0  0  0  0  0  0
  132.4480   69.2520  225.8160 C   0  0  0  0  0  0  0  0  0  0  0  0
  133.5770   68.5650  226.3830 N   0  0  0  0  0  0  0  0  0  0  0  0
  134.6510   68.5370  225.3980 C   0  0  0  0  0  0  0  0  0  0  0  0
  134.5630   69.7910  224.5090 C   0  0  0  0  0  0  0  0  0  0  0  0
  137.6950   74.6000  222.1280 C   0  0  0  0  0  0  0  0  0  0  0  0
  137.5880   75.9940  222.0700 C   0  0  0  0  0  0  0  0  0  0  0  0
  138.6700   76.7420  221.9810 N   0  0  0  0  0  0  0  0  0  0  0  0
  139.8900   76.1650  221.9450 C   0  0  0  0  0  0  0  0  0  0  0  0
  141.0000   77.0480  221.8360 N   0  0  0  0  0  0  0  0  0  0  0  0
  141.7560   77.2310  220.6130 C   0  0  0  0  0  0  0  0  0  0  0  0
  141.8150   78.6570  220.1460 C   0  0  0  0  0  0  0  0  0  0  0  0
  141.5640   79.6080  221.2290 C   0  0  0  0  0  0  0  0  0  0  0  0
  141.4960   80.9620  220.8780 C   0  0  0  0  0  0  0  0  0  0  0  0
  141.2660   81.9420  221.8140 C   0  0  0  0  0  0  0  0  0  0  0  0
  141.0960   81.6290  223.1210 C   0  0  0  0  0  0  0  0  0  0  0  0
  141.1580   80.2870  223.5180 C   0  0  0  0  0  0  0  0  0  0  0  0
  141.3900   79.3170  222.5570 C   0  0  0  0  0  0  0  0  0  0  0  0
  141.4540   77.8650  222.9770 C   0  0  0  0  0  0  0  0  0  0  0  0
  140.0020   74.8450  221.9990 N   0  0  0  0  0  0  0  0  0  0  0  0
  138.9310   74.0030  222.0920 C   0  0  0  0  0  0  0  0  0  0  0  0
  139.1570   72.6120  222.1440 N   0  0  0  0  0  0  0  0  0  0  0  0
  138.3720   71.5880  221.5370 C   0  0  0  0  0  0  0  0  0  0  0  0
  137.9720   70.5010  222.5120 C   0  0  0  0  0  0  0  0  0  0  0  0
  138.7470   70.5010  223.7580 C   0  0  0  0  0  0  0  0  0  0  0  0
  138.2990   69.6530  224.7760 C   0  0  0  0  0  0  0  0  0  0  0  0
  138.9900   69.6190  225.9620 C   0  0  0  0  0  0  0  0  0  0  0  0
  140.1130   70.3770  226.2180 C   0  0  0  0  0  0  0  0  0  0  0  0
  140.5540   71.2110  225.2170 C   0  0  0  0  0  0  0  0  0  0  0  0
  139.8610   71.2560  224.0070 C   0  0  0  0  0  0  0  0  0  0  0  0
  140.3320   72.1640  222.9170 C   0  0  0  0  0  0  0  0  0  0  0  0
  137.0650   72.9680  224.0690 H   0  0  0  0  0  0  0  0  0  0  0  0
  134.2744   72.6378  222.8679 H   0  0  0  0  0  0  0  0  0  0  0  0
  135.2929   71.1921  223.3354 H   0  0  0  0  0  0  0  0  0  0  0  0
  135.2650   72.7382  225.5954 H   0  0  0  0  0  0  0  0  0  0  0  0
  133.5908   72.8906  224.9401 H   0  0  0  0  0  0  0  0  0  0  0  0
  134.8038   70.8301  226.3273 H   0  0  0  0  0  0  0  0  0  0  0  0
  132.4030   71.2731  226.6101 H   0  0  0  0  0  0  0  0  0  0  0  0
  132.0825   71.1929  224.8733 H   0  0  0  0  0  0  0  0  0  0  0  0
  131.5741   69.0894  226.4639 H   0  0  0  0  0  0  0  0  0  0  0  0
  132.2829   68.8480  224.8063 H   0  0  0  0  0  0  0  0  0  0  0  0
  133.2830   67.5780  226.5240 H   0  0  0  0  0  0  0  0  0  0  0  0
  135.6221   68.5207  225.9144 H   0  0  0  0  0  0  0  0  0  0  0  0
  134.5533   67.6366  224.7737 H   0  0  0  0  0  0  0  0  0  0  0  0
  135.5343   69.9916  224.0333 H   0  0  0  0  0  0  0  0  0  0  0  0
  133.8261   69.6632  223.7024 H   0  0  0  0  0  0  0  0  0  0  0  0
  136.5959   76.4682  222.0988 H   0  0  0  0  0  0  0  0  0  0  0  0
  142.7840   76.8792  220.7846 H   0  0  0  0  0  0  0  0  0  0  0  0
  141.2408   76.6574  219.8284 H   0  0  0  0  0  0  0  0  0  0  0  0
  142.8143   78.8515  219.7293 H   0  0  0  0  0  0  0  0  0  0  0  0
  141.0293   78.7953  219.3886 H   0  0  0  0  0  0  0  0  0  0  0  0
  141.6303   81.2491  219.8247 H   0  0  0  0  0  0  0  0  0  0  0  0
  141.2194   82.9945  221.4975 H   0  0  0  0  0  0  0  0  0  0  0  0
  140.9112   82.4201  223.8626 H   0  0  0  0  0  0  0  0  0  0  0  0
  141.0249   80.0087  224.5738 H   0  0  0  0  0  0  0  0  0  0  0  0
  142.4873   77.5969  223.2422 H   0  0  0  0  0  0  0  0  0  0  0  0
  140.8152   77.6893  223.8551 H   0  0  0  0  0  0  0  0  0  0  0  0
  137.4596   72.0428  221.1237 H   0  0  0  0  0  0  0  0  0  0  0  0
  138.9857   71.1206  220.7528 H   0  0  0  0  0  0  0  0  0  0  0  0
  136.9103   70.6373  222.7652 H   0  0  0  0  0  0  0  0  0  0  0  0
  138.1694   69.5398  222.0149 H   0  0  0  0  0  0  0  0  0  0  0  0
  137.4085   69.0242  224.6290 H   0  0  0  0  0  0  0  0  0  0  0  0
  138.6265   68.9479  226.7542 H   0  0  0  0  0  0  0  0  0  0  0  0
  140.6354   70.3171  227.1842 H   0  0  0  0  0  0  0  0  0  0  0  0
  141.4455   71.8371  225.3692 H   0  0  0  0  0  0  0  0  0  0  0  0
  140.8434   73.0345  223.3536 H   0  0  0  0  0  0  0  0  0  0  0  0
  141.0365   71.6326  222.2602 H   0  0  0  0  0  0  0  0  0  0  0  0
  1  2  2  0
  2  3  1  0
  3  4  1  0
  4  5  1  0
  5  6  1  0
  6  7  1  0
  7  8  1  0
  8  9  1  0
  9 10  1  0
 10 11  1  0
  2 12  1  0
 12 13  2  0
 13 14  1  0
 14 15  2  0
 15 16  1  0
 16 17  1  0
 17 18  1  0
 18 19  1  0
 19 20  2  0
 20 21  1  0
 21 22  2  0
 22 23  1  0
 23 24  2  0
 24 25  1  0
 15 26  1  0
 26 27  2  0
 27 28  1  0
 28 29  1  0
 29 30  1  0
 30 31  1  0
 31 32  2  0
 32 33  1  0
 33 34  2  0
 34 35  1  0
 35 36  2  0
 36 37  1  0
 11  6  1  0
 27 12  1  0
 37 28  1  0
 25 16  1  0
 36 31  1  0
 24 19  1  0
  3 38  1  0
  4 39  1  0
  4 40  1  0
  5 41  1  0
  5 42  1  0
  6 43  1  0
  7 44  1  0
  7 45  1  0
  8 46  1  0
  8 47  1  0
  9 48  1  0
 10 49  1  0
 10 50  1  0
 11 51  1  0
 11 52  1  0
 13 53  1  0
 17 54  1  0
 17 55  1  0
 18 56  1  0
 18 57  1  0
 20 58  1  0
 21 59  1  0
 22 60  1  0
 23 61  1  0
 25 62  1  0
 25 63  1  0
 29 64  1  0
 29 65  1  0
 30 66  1  0
 30 67  1  0
 32 68  1  0
 33 69  1  0
 34 70  1  0
 35 71  1  0
 37 72  1  0
 37 73  1  0
M  END
>  <smiles>  (36) 
O=C(NCCC1CCNCC1)c1cnc(N2CCc3ccccc3C2)nc1N1CCc2ccccc2C1

>  <score_type>  (36) 
oracle

>  <origin>  (36) 
autodockgpu

>  <m_score__min__energy>  (36) 
-10.130000000000001

>  <m_primary>  (36) 
energy

>  <rmsd>  (36) 
9.333065070796776

>  <m_score__min__rmsd>  (36) 
9.333065070796776

>  <meeko>  (36) 
{"free_energy": -9.13, "intermolecular_energy": -10.92, "internal_energy": -1.78, "cluster_size": 30, "cluster_id": 2, "rank_in_cluster": 21}

>  <energy>  (36) 
-9.13

>  <cluster_rmsd>  (36) 
1.51

>  <cluster>  (36) 
2

$$$$

     RDKit          3D

 73 78  0  0  0  0  0  0  0  0999 V2000
  139.9980   74.1610  222.0170 O   0  0  0  0  0  0  0  0  0  0  0  0
  139.5170   73.0220  221.8550 C   0  0  0  0  0  0  0  0  0  0  0  0
  140.2180   72.1080  221.0030 N   0  0  0  0  0  0  0  0  0  0  0  0
  141.4700   72.5080  220.3360 C   0  0  0  0  0  0  0  0  0  0  0  0
  142.6020   71.5810  220.5830 C   0  0  0  0  0  0  0  0  0  0  0  0
  143.8820   72.1690  220.0820 C   0  0  0  0  0  0  0  0  0  0  0  0
  143.8020   72.4700  218.5790 C   0  0  0  0  0  0  0  0  0  0  0  0
  144.9970   73.3720  218.2780 C   0  0  0  0  0  0  0  0  0  0  0  0
  146.1280   73.0870  219.1190 N   0  0  0  0  0  0  0  0  0  0  0  0
  145.8320   73.5450  220.4710 C   0  0  0  0  0  0  0  0  0  0  0  0
  144.3190   73.4380  220.7290 C   0  0  0  0  0  0  0  0  0  0  0  0
  138.2930   72.5260  222.4610 C   0  0  0  0  0  0  0  0  0  0  0  0
  137.1190   73.1900  222.0900 C   0  0  0  0  0  0  0  0  0  0  0  0
  135.9570   72.8190  222.5930 N   0  0  0  0  0  0  0  0  0  0  0  0
  135.8950   71.7950  223.4700 C   0  0  0  0  0  0  0  0  0  0  0  0
  134.6030   71.4720  223.9680 N   0  0  0  0  0  0  0  0  0  0  0  0
  134.3230   70.2750  224.7360 C   0  0  0  0  0  0  0  0  0  0  0  0
  133.7080   70.5480  226.0790 C   0  0  0  0  0  0  0  0  0  0  0  0
  133.0590   71.8580  226.1380 C   0  0  0  0  0  0  0  0  0  0  0  0
  132.5430   72.2520  227.3780 C   0  0  0  0  0  0  0  0  0  0  0  0
  131.9120   73.4610  227.5490 C   0  0  0  0  0  0  0  0  0  0  0  0
  131.7660   74.3220  226.5120 C   0  0  0  0  0  0  0  0  0  0  0  0
  132.2650   73.9680  225.2520 C   0  0  0  0  0  0  0  0  0  0  0  0
  132.8980   72.7440  225.1050 C   0  0  0  0  0  0  0  0  0  0  0  0
  133.4440   72.3570  223.7490 C   0  0  0  0  0  0  0  0  0  0  0  0
  137.0030   71.1600  223.8270 N   0  0  0  0  0  0  0  0  0  0  0  0
  138.2420   71.4830  223.3520 C   0  0  0  0  0  0  0  0  0  0  0  0
  139.3580   70.7450  223.7950 N   0  0  0  0  0  0  0  0  0  0  0  0
  139.5320   69.3310  223.7450 C   0  0  0  0  0  0  0  0  0  0  0  0
  139.9310   68.7420  225.0820 C   0  0  0  0  0  0  0  0  0  0  0  0
  140.4160   69.7310  226.0500 C   0  0  0  0  0  0  0  0  0  0  0  0
  140.6120   69.2840  227.3610 C   0  0  0  0  0  0  0  0  0  0  0  0
  141.0640   70.1730  228.3040 C   0  0  0  0  0  0  0  0  0  0  0  0
  141.3390   71.4980  228.0400 C   0  0  0  0  0  0  0  0  0  0  0  0
  141.1460   71.9400  226.7510 C   0  0  0  0  0  0  0  0  0  0  0  0
  140.6870   71.0460  225.7820 C   0  0  0  0  0  0  0  0  0  0  0  0
  140.4700   71.5200  224.3810 C   0  0  0  0  0  0  0  0  0  0  0  0
  139.8190   71.1350  220.8600 H   0  0  0  0  0  0  0  0  0  0  0  0
  141.2872   72.5513  219.2522 H   0  0  0  0  0  0  0  0  0  0  0  0
  141.7580   73.4842  220.7534 H   0  0  0  0  0  0  0  0  0  0  0  0
  142.6880   71.3952  221.6638 H   0  0  0  0  0  0  0  0  0  0  0  0
  142.4116   70.6383  220.0490 H   0  0  0  0  0  0  0  0  0  0  0  0
  144.6155   71.3884  220.3323 H   0  0  0  0  0  0  0  0  0  0  0  0
  143.8671   71.5390  217.9967 H   0  0  0  0  0  0  0  0  0  0  0  0
  142.8502   72.9512  218.3098 H   0  0  0  0  0  0  0  0  0  0  0  0
  145.2926   73.2273  217.2284 H   0  0  0  0  0  0  0  0  0  0  0  0
  144.6893   74.4101  218.4723 H   0  0  0  0  0  0  0  0  0  0  0  0
  146.9100   73.6770  218.7740 H   0  0  0  0  0  0  0  0  0  0  0  0
  146.3728   72.9197  221.1966 H   0  0  0  0  0  0  0  0  0  0  0  0
  146.1496   74.5924  220.5811 H   0  0  0  0  0  0  0  0  0  0  0  0
  144.1167   73.4056  221.8098 H   0  0  0  0  0  0  0  0  0  0  0  0
  143.7781   74.3052  220.3224 H   0  0  0  0  0  0  0  0  0  0  0  0
  137.1648   74.0252  221.3757 H   0  0  0  0  0  0  0  0  0  0  0  0
  133.6297   69.6462  224.1581 H   0  0  0  0  0  0  0  0  0  0  0  0
  135.2873   69.7785  224.9195 H   0  0  0  0  0  0  0  0  0  0  0  0
  132.9572   69.7718  226.2883 H   0  0  0  0  0  0  0  0  0  0  0  0
  134.5152   70.5390  226.8262 H   0  0  0  0  0  0  0  0  0  0  0  0
  132.6453   71.5755  228.2393 H   0  0  0  0  0  0  0  0  0  0  0  0
  131.5204   73.7335  228.5401 H   0  0  0  0  0  0  0  0  0  0  0  0
  131.2611   75.2882  226.6585 H   0  0  0  0  0  0  0  0  0  0  0  0
  132.1564   74.6490  224.3950 H   0  0  0  0  0  0  0  0  0  0  0  0
  132.6720   71.8273  223.1716 H   0  0  0  0  0  0  0  0  0  0  0  0
  133.7442   73.2523  223.1849 H   0  0  0  0  0  0  0  0  0  0  0  0
  138.5847   68.8712  223.4268 H   0  0  0  0  0  0  0  0  0  0  0  0
  140.3454   69.1219  223.0346 H   0  0  0  0  0  0  0  0  0  0  0  0
  139.0536   68.2377  225.5132 H   0  0  0  0  0  0  0  0  0  0  0  0
  140.7650   68.0512  224.8887 H   0  0  0  0  0  0  0  0  0  0  0  0
  140.4073   68.2376  227.6316 H   0  0  0  0  0  0  0  0  0  0  0  0
  141.2157   69.8070  229.3302 H   0  0  0  0  0  0  0  0  0  0  0  0
  141.6986   72.1753  228.8287 H   0  0  0  0  0  0  0  0  0  0  0  0
  141.3515   72.9878  226.4868 H   0  0  0  0  0  0  0  0  0  0  0  0
  140.2153   72.5901  224.3859 H   0  0  0  0  0  0  0  0  0  0  0  0
  141.3849   71.3773  223.7872 H   0  0  0  0  0  0  0  0  0  0  0  0
  1  2  2  0
  2  3  1  0
  3  4  1  0
  4  5  1  0
  5  6  1  0
  6  7  1  0
  7  8  1  0
  8  9  1  0
  9 10  1  0
 10 11  1  0
  2 12  1  0
 12 13  2  0
 13 14  1  0
 14 15  2  0
 15 16  1  0
 16 17  1  0
 17 18  1  0
 18 19  1  0
 19 20  2  0
 20 21  1  0
 21 22  2  0
 22 23  1  0
 23 24  2  0
 24 25  1  0
 15 26  1  0
 26 27  2  0
 27 28  1  0
 28 29  1  0
 29 30  1  0
 30 31  1  0
 31 32  2  0
 32 33  1  0
 33 34  2  0
 34 35  1  0
 35 36  2  0
 36 37  1  0
 11  6  1  0
 27 12  1  0
 37 28  1  0
 25 16  1  0
 36 31  1  0
 24 19  1  0
  3 38  1  0
  4 39  1  0
  4 40  1  0
  5 41  1  0
  5 42  1  0
  6 43  1  0
  7 44  1  0
  7 45  1  0
  8 46  1  0
  8 47  1  0
  9 48  1  0
 10 49  1  0
 10 50  1  0
 11 51  1  0
 11 52  1  0
 13 53  1  0
 17 54  1  0
 17 55  1  0
 18 56  1  0
 18 57  1  0
 20 58  1  0
 21 59  1  0
 22 60  1  0
 23 61  1  0
 25 62  1  0
 25 63  1  0
 29 64  1  0
 29 65  1  0
 30 66  1  0
 30 67  1  0
 32 68  1  0
 33 69  1  0
 34 70  1  0
 35 71  1  0
 37 72  1  0
 37 73  1  0
M  END
>  <smiles>  (37) 
O=C(NCCC1CCNCC1)c1cnc(N2CCc3ccccc3C2)nc1N1CCc2ccccc2C1

>  <score_type>  (37) 
oracle

>  <origin>  (37) 
autodockgpu

>  <m_score__min__energy>  (37) 
-10.130000000000001

>  <m_primary>  (37) 
energy

>  <rmsd>  (37) 
6.76919454945936

>  <m_score__min__rmsd>  (37) 
6.76919454945936

>  <meeko>  (37) 
{"free_energy": -9.96, "intermolecular_energy": -11.75, "internal_energy": -1.25, "cluster_size": 15, "cluster_id": 1, "rank_in_cluster": 3}

>  <energy>  (37) 
-9.05

>  <cluster_rmsd>  (37) 
1.55

>  <cluster>  (37) 
2

$$$$

     RDKit          3D

 73 78  0  0  0  0  0  0  0  0999 V2000
  135.8760   73.1620  220.9440 O   0  0  0  0  0  0  0  0  0  0  0  0
  136.6340   73.3090  221.9220 C   0  0  0  0  0  0  0  0  0  0  0  0
  136.3010   72.6380  223.1430 N   0  0  0  0  0  0  0  0  0  0  0  0
  135.0920   71.8000  223.2360 C   0  0  0  0  0  0  0  0  0  0  0  0
  135.1490   70.7850  224.3180 C   0  0  0  0  0  0  0  0  0  0  0  0
  134.2790   71.1900  225.4640 C   0  0  0  0  0  0  0  0  0  0  0  0
  134.6410   70.4110  226.7360 C   0  0  0  0  0  0  0  0  0  0  0  0
  133.9520   71.1520  227.8800 C   0  0  0  0  0  0  0  0  0  0  0  0
  132.7150   71.7630  227.4740 N   0  0  0  0  0  0  0  0  0  0  0  0
  133.0150   72.9010  226.6140 C   0  0  0  0  0  0  0  0  0  0  0  0
  134.3180   72.6300  225.8420 C   0  0  0  0  0  0  0  0  0  0  0  0
  137.8460   74.1100  221.9390 C   0  0  0  0  0  0  0  0  0  0  0  0
  137.6680   75.4860  221.7560 C   0  0  0  0  0  0  0  0  0  0  0  0
  138.7090   76.2960  221.7470 N   0  0  0  0  0  0  0  0  0  0  0  0
  139.9530   75.8020  221.9160 C   0  0  0  0  0  0  0  0  0  0  0  0
  141.0160   76.7470  221.8820 N   0  0  0  0  0  0  0  0  0  0  0  0
  141.7700   77.0540  220.6840 C   0  0  0  0  0  0  0  0  0  0  0  0
  141.7570   78.5110  220.3180 C   0  0  0  0  0  0  0  0  0  0  0  0
  141.4480   79.3690  221.4610 C   0  0  0  0  0  0  0  0  0  0  0  0
  141.3100   80.7390  221.2040 C   0  0  0  0  0  0  0  0  0  0  0  0
  141.0220   81.6380  222.2030 C   0  0  0  0  0  0  0  0  0  0  0  0
  140.8590   81.2260  223.4840 C   0  0  0  0  0  0  0  0  0  0  0  0
  140.9890   79.8640  223.7870 C   0  0  0  0  0  0  0  0  0  0  0  0
  141.2800   78.9770  222.7640 C   0  0  0  0  0  0  0  0  0  0  0  0
  141.4170   77.5050  223.0820 C   0  0  0  0  0  0  0  0  0  0  0  0
  140.1320   74.5000  222.0910 N   0  0  0  0  0  0  0  0  0  0  0  0
  139.1070   73.5960  222.1120 C   0  0  0  0  0  0  0  0  0  0  0  0
  139.4030   72.2320  222.3050 N   0  0  0  0  0  0  0  0  0  0  0  0
  138.6990   71.1130  221.7700 C   0  0  0  0  0  0  0  0  0  0  0  0
  138.3160   70.1010  222.8290 C   0  0  0  0  0  0  0  0  0  0  0  0
  139.0370   70.2600  224.0970 C   0  0  0  0  0  0  0  0  0  0  0  0
  138.5920   69.4880  225.1740 C   0  0  0  0  0  0  0  0  0  0  0  0
  139.2340   69.6030  226.3820 C   0  0  0  0  0  0  0  0  0  0  0  0
  140.3040   70.4430  226.6050 C   0  0  0  0  0  0  0  0  0  0  0  0
  140.7430   71.2040  225.5470 C   0  0  0  0  0  0  0  0  0  0  0  0
  140.0990   71.0970  224.3130 C   0  0  0  0  0  0  0  0  0  0  0  0
  140.5670   71.9240  223.1590 C   0  0  0  0  0  0  0  0  0  0  0  0
  136.9410   72.7540  223.9810 H   0  0  0  0  0  0  0  0  0  0  0  0
  134.2286   72.4560  223.4208 H   0  0  0  0  0  0  0  0  0  0  0  0
  135.0080   71.2517  222.2861 H   0  0  0  0  0  0  0  0  0  0  0  0
  134.8027   69.8177  223.9251 H   0  0  0  0  0  0  0  0  0  0  0  0
  136.1870   70.7015  224.6723 H   0  0  0  0  0  0  0  0  0  0  0  0
  133.2706   70.9649  225.0867 H   0  0  0  0  0  0  0  0  0  0  0  0
  134.2724   69.3767  226.6710 H   0  0  0  0  0  0  0  0  0  0  0  0
  135.7296   70.3552  226.8837 H   0  0  0  0  0  0  0  0  0  0  0  0
  133.7432   70.4363  228.6889 H   0  0  0  0  0  0  0  0  0  0  0  0
  134.6272   71.9537  228.2138 H   0  0  0  0  0  0  0  0  0  0  0  0
  132.2800   72.1520  228.3340 H   0  0  0  0  0  0  0  0  0  0  0  0
  132.1905   73.0495  225.9012 H   0  0  0  0  0  0  0  0  0  0  0  0
  133.1343   73.8048  227.2296 H   0  0  0  0  0  0  0  0  0  0  0  0
  134.3671   73.2603  224.9418 H   0  0  0  0  0  0  0  0  0  0  0  0
  135.2035   72.8628  226.4517 H   0  0  0  0  0  0  0  0  0  0  0  0
  136.6556   75.8938  221.6191 H   0  0  0  0  0  0  0  0  0  0  0  0
  142.8138   76.7451  220.8422 H   0  0  0  0  0  0  0  0  0  0  0  0
  141.2919   76.5106  219.8557 H   0  0  0  0  0  0  0  0  0  0  0  0
  142.7477   78.7861  219.9271 H   0  0  0  0  0  0  0  0  0  0  0  0
  140.9708   78.6607  219.5633 H   0  0  0  0  0  0  0  0  0  0  0  0
  141.4355   81.1054  220.1745 H   0  0  0  0  0  0  0  0  0  0  0  0
  140.9225   82.7061  221.9597 H   0  0  0  0  0  0  0  0  0  0  0  0
  140.6273   81.9525  224.2767 H   0  0  0  0  0  0  0  0  0  0  0  0
  140.8621   79.5057  224.8192 H   0  0  0  0  0  0  0  0  0  0  0  0
  142.4609   77.2732  223.3399 H   0  0  0  0  0  0  0  0  0  0  0  0
  140.7810   77.2353  223.9380 H   0  0  0  0  0  0  0  0  0  0  0  0
  137.7822   71.4751  221.2817 H   0  0  0  0  0  0  0  0  0  0  0  0
  139.3689   70.6097  221.0573 H   0  0  0  0  0  0  0  0  0  0  0  0
  137.2389   70.2008  223.0290 H   0  0  0  0  0  0  0  0  0  0  0  0
  138.5841   69.1103  222.4333 H   0  0  0  0  0  0  0  0  0  0  0  0
  137.7419   68.8001  225.0556 H   0  0  0  0  0  0  0  0  0  0  0  0
  138.8736   68.9892  227.2207 H   0  0  0  0  0  0  0  0  0  0  0  0
  140.7880   70.5023  227.5910 H   0  0  0  0  0  0  0  0  0  0  0  0
  141.5934   71.8904  225.6718 H   0  0  0  0  0  0  0  0  0  0  0  0
  141.0143   72.8585  223.5287 H   0  0  0  0  0  0  0  0  0  0  0  0
  141.3245   71.3736  222.5818 H   0  0  0  0  0  0  0  0  0  0  0  0
  1  2  2  0
  2  3  1  0
  3  4  1  0
  4  5  1  0
  5  6  1  0
  6  7  1  0
  7  8  1  0
  8  9  1  0
  9 10  1  0
 10 11  1  0
  2 12  1  0
 12 13  2  0
 13 14  1  0
 14 15  2  0
 15 16  1  0
 16 17  1  0
 17 18  1  0
 18 19  1  0
 19 20  2  0
 20 21  1  0
 21 22  2  0
 22 23  1  0
 23 24  2  0
 24 25  1  0
 15 26  1  0
 26 27  2  0
 27 28  1  0
 28 29  1  0
 29 30  1  0
 30 31  1  0
 31 32  2  0
 32 33  1  0
 33 34  2  0
 34 35  1  0
 35 36  2  0
 36 37  1  0
 11  6  1  0
 27 12  1  0
 37 28  1  0
 25 16  1  0
 36 31  1  0
 24 19  1  0
  3 38  1  0
  4 39  1  0
  4 40  1  0
  5 41  1  0
  5 42  1  0
  6 43  1  0
  7 44  1  0
  7 45  1  0
  8 46  1  0
  8 47  1  0
  9 48  1  0
 10 49  1  0
 10 50  1  0
 11 51  1  0
 11 52  1  0
 13 53  1  0
 17 54  1  0
 17 55  1  0
 18 56  1  0
 18 57  1  0
 20 58  1  0
 21 59  1  0
 22 60  1  0
 23 61  1  0
 25 62  1  0
 25 63  1  0
 29 64  1  0
 29 65  1  0
 30 66  1  0
 30 67  1  0
 32 68  1  0
 33 69  1  0
 34 70  1  0
 35 71  1  0
 37 72  1  0
 37 73  1  0
M  END
>  <smiles>  (38) 
O=C(NCCC1CCNCC1)c1cnc(N2CCc3ccccc3C2)nc1N1CCc2ccccc2C1

>  <score_type>  (38) 
oracle

>  <origin>  (38) 
autodockgpu

>  <m_score__min__energy>  (38) 
-10.130000000000001

>  <m_primary>  (38) 
energy

>  <rmsd>  (38) 
9.408963815070766

>  <m_score__min__rmsd>  (38) 
9.408963815070766

>  <meeko>  (38) 
{"free_energy": -9.6, "intermolecular_energy": -11.39, "internal_energy": -1.7, "cluster_size": 30, "cluster_id": 2, "rank_in_cluster": 13}

>  <energy>  (38) 
-8.99

>  <cluster_rmsd>  (38) 
1.52

>  <cluster>  (38) 
2

$$$$

     RDKit          3D

 73 78  0  0  0  0  0  0  0  0999 V2000
  139.8480   71.9750  221.0790 O   0  0  0  0  0  0  0  0  0  0  0  0
  139.1780   72.6430  221.8900 C   0  0  0  0  0  0  0  0  0  0  0  0
  139.6270   73.9660  222.2100 N   0  0  0  0  0  0  0  0  0  0  0  0
  140.8490   74.5160  221.5960 C   0  0  0  0  0  0  0  0  0  0  0  0
  140.6560   74.9930  220.2030 C   0  0  0  0  0  0  0  0  0  0  0  0
  141.0030   76.4420  220.0920 C   0  0  0  0  0  0  0  0  0  0  0  0
  141.0150   77.1150  221.4710 C   0  0  0  0  0  0  0  0  0  0  0  0
  141.7160   78.4570  221.2660 C   0  0  0  0  0  0  0  0  0  0  0  0
  141.4830   79.0050  219.9560 N   0  0  0  0  0  0  0  0  0  0  0  0
  142.2210   78.2110  218.9800 C   0  0  0  0  0  0  0  0  0  0  0  0
  142.3210   76.7560  219.4730 C   0  0  0  0  0  0  0  0  0  0  0  0
  137.9640   72.1990  222.5520 C   0  0  0  0  0  0  0  0  0  0  0  0
  136.7920   72.8720  222.1880 C   0  0  0  0  0  0  0  0  0  0  0  0
  135.6390   72.5470  222.7400 N   0  0  0  0  0  0  0  0  0  0  0  0
  135.5830   71.5620  223.6600 C   0  0  0  0  0  0  0  0  0  0  0  0
  134.3000   71.2870  224.2100 N   0  0  0  0  0  0  0  0  0  0  0  0
  134.0310   70.1590  225.0790 C   0  0  0  0  0  0  0  0  0  0  0  0
  133.4450   70.5450  226.4070 C   0  0  0  0  0  0  0  0  0  0  0  0
  132.8010   71.8580  226.3700 C   0  0  0  0  0  0  0  0  0  0  0  0
  132.3120   72.3560  227.5840 C   0  0  0  0  0  0  0  0  0  0  0  0
  131.6890   73.5780  227.6680 C   0  0  0  0  0  0  0  0  0  0  0  0
  131.5240   74.3510  226.5660 C   0  0  0  0  0  0  0  0  0  0  0  0
  131.9970   73.8920  225.3300 C   0  0  0  0  0  0  0  0  0  0  0  0
  132.6220   72.6570  225.2710 C   0  0  0  0  0  0  0  0  0  0  0  0
  133.1390   72.1570  223.9410 C   0  0  0  0  0  0  0  0  0  0  0  0
  136.6870   70.9180  224.0120 N   0  0  0  0  0  0  0  0  0  0  0  0
  137.9180   71.1950  223.4880 C   0  0  0  0  0  0  0  0  0  0  0  0
  139.0320   70.4520  223.9290 N   0  0  0  0  0  0  0  0  0  0  0  0
  139.1430   69.0340  224.0150 C   0  0  0  0  0  0  0  0  0  0  0  0
  139.6130   68.5640  225.3750 C   0  0  0  0  0  0  0  0  0  0  0  0
  140.2070   69.6210  226.2010 C   0  0  0  0  0  0  0  0  0  0  0  0
  140.4790   69.2990  227.5340 C   0  0  0  0  0  0  0  0  0  0  0  0
  141.0330   70.2560  228.3470 C   0  0  0  0  0  0  0  0  0  0  0  0
  141.3430   71.5330  227.9280 C   0  0  0  0  0  0  0  0  0  0  0  0
  141.0760   71.8510  226.6170 C   0  0  0  0  0  0  0  0  0  0  0  0
  140.5120   70.8880  225.7790 C   0  0  0  0  0  0  0  0  0  0  0  0
  140.2140   71.2280  224.3550 C   0  0  0  0  0  0  0  0  0  0  0  0
  139.0630   74.5440  222.8980 H   0  0  0  0  0  0  0  0  0  0  0  0
  141.1941   75.3624  222.2079 H   0  0  0  0  0  0  0  0  0  0  0  0
  141.5840   73.6986  221.5563 H   0  0  0  0  0  0  0  0  0  0  0  0
  141.3038   74.4132  219.5291 H   0  0  0  0  0  0  0  0  0  0  0  0
  139.6005   74.8581  219.9244 H   0  0  0  0  0  0  0  0  0  0  0  0
  140.2149   76.8244  219.4267 H   0  0  0  0  0  0  0  0  0  0  0  0
  139.9875   77.2695  221.8320 H   0  0  0  0  0  0  0  0  0  0  0  0
  141.5296   76.4970  222.2215 H   0  0  0  0  0  0  0  0  0  0  0  0
  141.3431   79.1684  222.0176 H   0  0  0  0  0  0  0  0  0  0  0  0
  142.7980   78.2888  221.3708 H   0  0  0  0  0  0  0  0  0  0  0  0
  141.9130   79.9510  219.9490 H   0  0  0  0  0  0  0  0  0  0  0  0
  141.6951   78.2356  218.0142 H   0  0  0  0  0  0  0  0  0  0  0  0
  143.2318   78.6271  218.8575 H   0  0  0  0  0  0  0  0  0  0  0  0
  142.5181   76.0789  218.6288 H   0  0  0  0  0  0  0  0  0  0  0  0
  143.1445   76.6291  220.1912 H   0  0  0  0  0  0  0  0  0  0  0  0
  136.8327   73.6757  221.4381 H   0  0  0  0  0  0  0  0  0  0  0  0
  133.3233   69.4889  224.5689 H   0  0  0  0  0  0  0  0  0  0  0  0
  134.9967   69.6735  225.2831 H   0  0  0  0  0  0  0  0  0  0  0  0
  132.6967   69.7921  226.6955 H   0  0  0  0  0  0  0  0  0  0  0  0
  134.2675   70.5944  227.1358 H   0  0  0  0  0  0  0  0  0  0  0  0
  132.4299   71.7522  228.4959 H   0  0  0  0  0  0  0  0  0  0  0  0
  131.3196   73.9336  228.6412 H   0  0  0  0  0  0  0  0  0  0  0  0
  131.0241   75.3279  226.6419 H   0  0  0  0  0  0  0  0  0  0  0  0
  131.8744   74.5013  224.4224 H   0  0  0  0  0  0  0  0  0  0  0  0
  132.3539   71.5852  223.4247 H   0  0  0  0  0  0  0  0  0  0  0  0
  133.4304   73.0011  223.2987 H   0  0  0  0  0  0  0  0  0  0  0  0
  138.1568   68.5912  223.8116 H   0  0  0  0  0  0  0  0  0  0  0  0
  139.8935   68.7151  223.2767 H   0  0  0  0  0  0  0  0  0  0  0  0
  138.7492   68.1482  225.9145 H   0  0  0  0  0  0  0  0  0  0  0  0
  140.4020   67.8183  225.1980 H   0  0  0  0  0  0  0  0  0  0  0  0
  140.2529   68.2958  227.9245 H   0  0  0  0  0  0  0  0  0  0  0  0
  141.2419   69.9891  229.3935 H   0  0  0  0  0  0  0  0  0  0  0  0
  141.7864   72.2683  228.6156 H   0  0  0  0  0  0  0  0  0  0  0  0
  141.3050   72.8557  226.2322 H   0  0  0  0  0  0  0  0  0  0  0  0
  140.0040   72.3041  224.2659 H   0  0  0  0  0  0  0  0  0  0  0  0
  141.0771   70.9825  223.7188 H   0  0  0  0  0  0  0  0  0  0  0  0
  1  2  2  0
  2  3  1  0
  3  4  1  0
  4  5  1  0
  5  6  1  0
  6  7  1  0
  7  8  1  0
  8  9  1  0
  9 10  1  0
 10 11  1  0
  2 12  1  0
 12 13  2  0
 13 14  1  0
 14 15  2  0
 15 16  1  0
 16 17  1  0
 17 18  1  0
 18 19  1  0
 19 20  2  0
 20 21  1  0
 21 22  2  0
 22 23  1  0
 23 24  2  0
 24 25  1  0
 15 26  1  0
 26 27  2  0
 27 28  1  0
 28 29  1  0
 29 30  1  0
 30 31  1  0
 31 32  2  0
 32 33  1  0
 33 34  2  0
 34 35  1  0
 35 36  2  0
 36 37  1  0
 11  6  1  0
 27 12  1  0
 37 28  1  0
 25 16  1  0
 36 31  1  0
 24 19  1  0
  3 38  1  0
  4 39  1  0
  4 40  1  0
  5 41  1  0
  5 42  1  0
  6 43  1  0
  7 44  1  0
  7 45  1  0
  8 46  1  0
  8 47  1  0
  9 48  1  0
 10 49  1  0
 10 50  1  0
 11 51  1  0
 11 52  1  0
 13 53  1  0
 17 54  1  0
 17 55  1  0
 18 56  1  0
 18 57  1  0
 20 58  1  0
 21 59  1  0
 22 60  1  0
 23 61  1  0
 25 62  1  0
 25 63  1  0
 29 64  1  0
 29 65  1  0
 30 66  1  0
 30 67  1  0
 32 68  1  0
 33 69  1  0
 34 70  1  0
 35 71  1  0
 37 72  1  0
 37 73  1  0
M  END
>  <smiles>  (39) 
O=C(NCCC1CCNCC1)c1cnc(N2CCc3ccccc3C2)nc1N1CCc2ccccc2C1

>  <score_type>  (39) 
oracle

>  <origin>  (39) 
autodockgpu

>  <m_score__min__energy>  (39) 
-10.130000000000001

>  <m_primary>  (39) 
energy

>  <rmsd>  (39) 
5.840914890556985

>  <m_score__min__rmsd>  (39) 
5.840914890556985

>  <meeko>  (39) 
{"free_energy": -8.93, "intermolecular_energy": -10.72, "internal_energy": -1.07, "cluster_size": 1, "cluster_id": 3, "rank_in_cluster": 1}

>  <energy>  (39) 
-8.98

>  <cluster_rmsd>  (39) 
1.25

>  <cluster>  (39) 
2

$$$$

     RDKit          3D

 73 78  0  0  0  0  0  0  0  0999 V2000
  135.8670   73.2230  221.1390 O   0  0  0  0  0  0  0  0  0  0  0  0
  136.7300   73.3150  222.0340 C   0  0  0  0  0  0  0  0  0  0  0  0
  136.5470   72.5480  223.2300 N   0  0  0  0  0  0  0  0  0  0  0  0
  135.3680   71.6780  223.3950 C   0  0  0  0  0  0  0  0  0  0  0  0
  134.0770   72.4100  223.3740 C   0  0  0  0  0  0  0  0  0  0  0  0
  133.6620   72.7810  224.7610 C   0  0  0  0  0  0  0  0  0  0  0  0
  133.9490   71.6420  225.7480 C   0  0  0  0  0  0  0  0  0  0  0  0
  133.8220   72.2630  227.1380 C   0  0  0  0  0  0  0  0  0  0  0  0
  132.8470   73.3200  227.1820 N   0  0  0  0  0  0  0  0  0  0  0  0
  133.3760   74.4730  226.4650 C   0  0  0  0  0  0  0  0  0  0  0  0
  134.3070   73.9940  225.3370 C   0  0  0  0  0  0  0  0  0  0  0  0
  137.9250   74.1390  221.9760 C   0  0  0  0  0  0  0  0  0  0  0  0
  137.7100   75.5100  221.7930 C   0  0  0  0  0  0  0  0  0  0  0  0
  138.7320   76.3400  221.7190 N   0  0  0  0  0  0  0  0  0  0  0  0
  139.9940   75.8710  221.8200 C   0  0  0  0  0  0  0  0  0  0  0  0
  141.0330   76.8360  221.7180 N   0  0  0  0  0  0  0  0  0  0  0  0
  141.7810   77.0750  220.5000 C   0  0  0  0  0  0  0  0  0  0  0  0
  141.7340   78.5010  220.0310 C   0  0  0  0  0  0  0  0  0  0  0  0
  141.4040   79.4310  221.1110 C   0  0  0  0  0  0  0  0  0  0  0  0
  141.2340   80.7750  220.7570 C   0  0  0  0  0  0  0  0  0  0  0  0
  140.9240   81.7370  221.6890 C   0  0  0  0  0  0  0  0  0  0  0  0
  140.7690   81.4130  222.9960 C   0  0  0  0  0  0  0  0  0  0  0  0
  140.9310   80.0790  223.3960 C   0  0  0  0  0  0  0  0  0  0  0  0
  141.2440   79.1290  222.4380 C   0  0  0  0  0  0  0  0  0  0  0  0
  141.4160   77.6870  222.8600 C   0  0  0  0  0  0  0  0  0  0  0  0
  140.2070   74.5740  221.9930 N   0  0  0  0  0  0  0  0  0  0  0  0
  139.2040   73.6510  222.0790 C   0  0  0  0  0  0  0  0  0  0  0  0
  139.5370   72.2940  222.2640 N   0  0  0  0  0  0  0  0  0  0  0  0
  138.8910   71.1620  221.6880 C   0  0  0  0  0  0  0  0  0  0  0  0
  138.5020   70.1210  222.7180 C   0  0  0  0  0  0  0  0  0  0  0  0
  139.1700   70.2850  224.0140 C   0  0  0  0  0  0  0  0  0  0  0  0
  138.7110   69.4830  225.0630 C   0  0  0  0  0  0  0  0  0  0  0  0
  139.3030   69.6000  226.2960 C   0  0  0  0  0  0  0  0  0  0  0  0
  140.3360   70.4710  226.5710 C   0  0  0  0  0  0  0  0  0  0  0  0
  140.7880   71.2610  225.5400 C   0  0  0  0  0  0  0  0  0  0  0  0
  140.1950   71.1520  224.2810 C   0  0  0  0  0  0  0  0  0  0  0  0
  140.6780   72.0120  223.1570 C   0  0  0  0  0  0  0  0  0  0  0  0
  137.2770   72.6160  223.9980 H   0  0  0  0  0  0  0  0  0  0  0  0
  135.3628   70.9418  222.5777 H   0  0  0  0  0  0  0  0  0  0  0  0
  135.4533   71.2064  224.3851 H   0  0  0  0  0  0  0  0  0  0  0  0
  134.1893   73.3245  222.7731 H   0  0  0  0  0  0  0  0  0  0  0  0
  133.3066   71.7593  222.9346 H   0  0  0  0  0  0  0  0  0  0  0  0
  132.5893   72.9917  224.6392 H   0  0  0  0  0  0  0  0  0  0  0  0
  133.2173   70.8304  225.6215 H   0  0  0  0  0  0  0  0  0  0  0  0
  134.9451   71.2042  225.5867 H   0  0  0  0  0  0  0  0  0  0  0  0
  133.5241   71.4784  227.8491 H   0  0  0  0  0  0  0  0  0  0  0  0
  134.7979   72.6973  227.4006 H   0  0  0  0  0  0  0  0  0  0  0  0
  132.7640   73.6060  228.1770 H   0  0  0  0  0  0  0  0  0  0  0  0
  132.5444   75.0496  226.0338 H   0  0  0  0  0  0  0  0  0  0  0  0
  133.9417   75.1094  227.1614 H   0  0  0  0  0  0  0  0  0  0  0  0
  134.4093   74.7742  224.5684 H   0  0  0  0  0  0  0  0  0  0  0  0
  135.3167   73.7736  225.7137 H   0  0  0  0  0  0  0  0  0  0  0  0
  136.6836   75.8969  221.7105 H   0  0  0  0  0  0  0  0  0  0  0  0
  142.8317   76.8030  220.6790 H   0  0  0  0  0  0  0  0  0  0  0  0
  141.3165   76.4629  219.7129 H   0  0  0  0  0  0  0  0  0  0  0  0
  142.7182   78.7708  219.6205 H   0  0  0  0  0  0  0  0  0  0  0  0
  140.9451   78.5781  219.2683 H   0  0  0  0  0  0  0  0  0  0  0  0
  141.3518   81.0694  219.7037 H   0  0  0  0  0  0  0  0  0  0  0  0
  140.8002   82.7825  221.3701 H   0  0  0  0  0  0  0  0  0  0  0  0
  140.5188   82.1884  223.7350 H   0  0  0  0  0  0  0  0  0  0  0  0
  140.8117   79.7922  224.4512 H   0  0  0  0  0  0  0  0  0  0  0  0
  142.4652   77.4990  223.1319 H   0  0  0  0  0  0  0  0  0  0  0  0
  140.7867   77.4641  223.7342 H   0  0  0  0  0  0  0  0  0  0  0  0
  137.9816   71.5017  221.1708 H   0  0  0  0  0  0  0  0  0  0  0  0
  139.6033   70.6916  220.9942 H   0  0  0  0  0  0  0  0  0  0  0  0
  137.4155   70.1825  222.8786 H   0  0  0  0  0  0  0  0  0  0  0  0
  138.8167   69.1454  222.3190 H   0  0  0  0  0  0  0  0  0  0  0  0
  137.8889   68.7699  224.9030 H   0  0  0  0  0  0  0  0  0  0  0  0
  138.9319   68.9621  227.1117 H   0  0  0  0  0  0  0  0  0  0  0  0
  140.7809   70.5316  227.5752 H   0  0  0  0  0  0  0  0  0  0  0  0
  141.6100   71.9729  225.7061 H   0  0  0  0  0  0  0  0  0  0  0  0
  141.0793   72.9551  223.5565 H   0  0  0  0  0  0  0  0  0  0  0  0
  141.4749   71.4961  222.6013 H   0  0  0  0  0  0  0  0  0  0  0  0
  1  2  2  0
  2  3  1  0
  3  4  1  0
  4  5  1  0
  5  6  1  0
  6  7  1  0
  7  8  1  0
  8  9  1  0
  9 10  1  0
 10 11  1  0
  2 12  1  0
 12 13  2  0
 13 14  1  0
 14 15  2  0
 15 16  1  0
 16 17  1  0
 17 18  1  0
 18 19  1  0
 19 20  2  0
 20 21  1  0
 21 22  2  0
 22 23  1  0
 23 24  2  0
 24 25  1  0
 15 26  1  0
 26 27  2  0
 27 28  1  0
 28 29  1  0
 29 30  1  0
 30 31  1  0
 31 32  2  0
 32 33  1  0
 33 34  2  0
 34 35  1  0
 35 36  2  0
 36 37  1  0
 11  6  1  0
 27 12  1  0
 37 28  1  0
 25 16  1  0
 36 31  1  0
 24 19  1  0
  3 38  1  0
  4 39  1  0
  4 40  1  0
  5 41  1  0
  5 42  1  0
  6 43  1  0
  7 44  1  0
  7 45  1  0
  8 46  1  0
  8 47  1  0
  9 48  1  0
 10 49  1  0
 10 50  1  0
 11 51  1  0
 11 52  1  0
 13 53  1  0
 17 54  1  0
 17 55  1  0
 18 56  1  0
 18 57  1  0
 20 58  1  0
 21 59  1  0
 22 60  1  0
 23 61  1  0
 25 62  1  0
 25 63  1  0
 29 64  1  0
 29 65  1  0
 30 66  1  0
 30 67  1  0
 32 68  1  0
 33 69  1  0
 34 70  1  0
 35 71  1  0
 37 72  1  0
 37 73  1  0
M  END
>  <smiles>  (40) 
O=C(NCCC1CCNCC1)c1cnc(N2CCc3ccccc3C2)nc1N1CCc2ccccc2C1

>  <score_type>  (40) 
oracle

>  <origin>  (40) 
autodockgpu

>  <m_score__min__energy>  (40) 
-10.130000000000001

>  <m_primary>  (40) 
energy

>  <rmsd>  (40) 
8.835538301912464

>  <m_score__min__rmsd>  (40) 
8.835538301912464

>  <meeko>  (40) 
{"free_energy": -9.85, "intermolecular_energy": -11.64, "internal_energy": -1.6, "cluster_size": 30, "cluster_id": 2, "rank_in_cluster": 5}

>  <energy>  (40) 
-8.89

>  <cluster_rmsd>  (40) 
1.76

>  <cluster>  (40) 
2

$$$$

     RDKit          3D

 73 78  0  0  0  0  0  0  0  0999 V2000
  136.0300   72.9860  220.9920 O   0  0  0  0  0  0  0  0  0  0  0  0
  136.7180   73.2730  221.9920 C   0  0  0  0  0  0  0  0  0  0  0  0
  136.3120   72.7520  223.2630 N   0  0  0  0  0  0  0  0  0  0  0  0
  135.1110   71.9040  223.3820 C   0  0  0  0  0  0  0  0  0  0  0  0
  135.0580   71.1150  224.6380 C   0  0  0  0  0  0  0  0  0  0  0  0
  134.3180   71.8630  225.6980 C   0  0  0  0  0  0  0  0  0  0  0  0
  134.3230   73.3720  225.4160 C   0  0  0  0  0  0  0  0  0  0  0  0
  133.2610   73.9650  226.3400 C   0  0  0  0  0  0  0  0  0  0  0  0
  133.1440   73.2420  227.5780 N   0  0  0  0  0  0  0  0  0  0  0  0
  132.5170   71.9540  227.3100 C   0  0  0  0  0  0  0  0  0  0  0  0
  132.8890   71.4890  225.8900 C   0  0  0  0  0  0  0  0  0  0  0  0
  137.9140   74.0970  221.9870 C   0  0  0  0  0  0  0  0  0  0  0  0
  137.7070   75.4670  221.7890 C   0  0  0  0  0  0  0  0  0  0  0  0
  138.7310   76.2980  221.7610 N   0  0  0  0  0  0  0  0  0  0  0  0
  139.9870   75.8300  221.9230 C   0  0  0  0  0  0  0  0  0  0  0  0
  141.0300   76.7950  221.8670 N   0  0  0  0  0  0  0  0  0  0  0  0
  141.7590   77.1100  220.6540 C   0  0  0  0  0  0  0  0  0  0  0  0
  141.7120   78.5640  220.2810 C   0  0  0  0  0  0  0  0  0  0  0  0
  141.4040   79.4230  221.4240 C   0  0  0  0  0  0  0  0  0  0  0  0
  141.2360   80.7880  221.1620 C   0  0  0  0  0  0  0  0  0  0  0  0
  140.9460   81.6870  222.1600 C   0  0  0  0  0  0  0  0  0  0  0  0
  140.8110   81.2790  223.4460 C   0  0  0  0  0  0  0  0  0  0  0  0
  140.9730   79.9220  223.7550 C   0  0  0  0  0  0  0  0  0  0  0  0
  141.2640   79.0350  222.7310 C   0  0  0  0  0  0  0  0  0  0  0  0
  141.4350   77.5680  223.0560 C   0  0  0  0  0  0  0  0  0  0  0  0
  140.1930   74.5340  222.1110 N   0  0  0  0  0  0  0  0  0  0  0  0
  139.1870   73.6100  222.1530 C   0  0  0  0  0  0  0  0  0  0  0  0
  139.5110   72.2540  222.3590 N   0  0  0  0  0  0  0  0  0  0  0  0
  138.8440   71.1170  221.8170 C   0  0  0  0  0  0  0  0  0  0  0  0
  138.4650   70.1000  222.8730 C   0  0  0  0  0  0  0  0  0  0  0  0
  139.1570   70.2830  224.1540 C   0  0  0  0  0  0  0  0  0  0  0  0
  138.7100   69.5060  225.2270 C   0  0  0  0  0  0  0  0  0  0  0  0
  139.3250   69.6420  226.4460 C   0  0  0  0  0  0  0  0  0  0  0  0
  140.3700   70.5090  226.6860 C   0  0  0  0  0  0  0  0  0  0  0  0
  140.8110   71.2750  225.6320 C   0  0  0  0  0  0  0  0  0  0  0  0
  140.1950   71.1460  224.3860 C   0  0  0  0  0  0  0  0  0  0  0  0
  140.6650   71.9790  223.2370 C   0  0  0  0  0  0  0  0  0  0  0  0
  136.8920   72.9880  224.1200 H   0  0  0  0  0  0  0  0  0  0  0  0
  134.2232   72.5522  223.3417 H   0  0  0  0  0  0  0  0  0  0  0  0
  135.1436   71.1833  222.5516 H   0  0  0  0  0  0  0  0  0  0  0  0
  134.5458   70.1610  224.4443 H   0  0  0  0  0  0  0  0  0  0  0  0
  136.0855   70.9316  224.9852 H   0  0  0  0  0  0  0  0  0  0  0  0
  134.8676   71.5873  226.6101 H   0  0  0  0  0  0  0  0  0  0  0  0
  135.3105   73.8015  225.6403 H   0  0  0  0  0  0  0  0  0  0  0  0
  134.1108   73.5896  224.3588 H   0  0  0  0  0  0  0  0  0  0  0  0
  133.5305   75.0076  226.5642 H   0  0  0  0  0  0  0  0  0  0  0  0
  132.2928   73.9007  225.8219 H   0  0  0  0  0  0  0  0  0  0  0  0
  132.4770   73.7750  228.1710 H   0  0  0  0  0  0  0  0  0  0  0  0
  132.8710   71.2140  228.0429 H   0  0  0  0  0  0  0  0  0  0  0  0
  131.4244   72.0539  227.3892 H   0  0  0  0  0  0  0  0  0  0  0  0
  132.7632   70.4000  225.7989 H   0  0  0  0  0  0  0  0  0  0  0  0
  132.2443   71.9559  225.1308 H   0  0  0  0  0  0  0  0  0  0  0  0
  136.6854   75.8526  221.6561 H   0  0  0  0  0  0  0  0  0  0  0  0
  142.8110   76.8220  220.7965 H   0  0  0  0  0  0  0  0  0  0  0  0
  141.2781   76.5530  219.8364 H   0  0  0  0  0  0  0  0  0  0  0  0
  142.6911   78.8560  219.8733 H   0  0  0  0  0  0  0  0  0  0  0  0
  140.9112   78.6941  219.5382 H   0  0  0  0  0  0  0  0  0  0  0  0
  141.3390   81.1509  220.1287 H   0  0  0  0  0  0  0  0  0  0  0  0
  140.8218   82.7515  221.9124 H   0  0  0  0  0  0  0  0  0  0  0  0
  140.5768   82.0055  224.2381 H   0  0  0  0  0  0  0  0  0  0  0  0
  140.8711   79.5674  224.7913 H   0  0  0  0  0  0  0  0  0  0  0  0
  142.4872   77.3582  223.2987 H   0  0  0  0  0  0  0  0  0  0  0  0
  140.8183   77.2913  223.9238 H   0  0  0  0  0  0  0  0  0  0  0  0
  137.9282   71.4553  221.3102 H   0  0  0  0  0  0  0  0  0  0  0  0
  139.5391   70.6267  221.1196 H   0  0  0  0  0  0  0  0  0  0  0  0
  137.3821   70.1738  223.0513 H   0  0  0  0  0  0  0  0  0  0  0  0
  138.7648   69.1144  222.4875 H   0  0  0  0  0  0  0  0  0  0  0  0
  137.8790   68.7973  225.0961 H   0  0  0  0  0  0  0  0  0  0  0  0
  138.9633   69.0233  227.2805 H   0  0  0  0  0  0  0  0  0  0  0  0
  140.8327   70.5851  227.6810 H   0  0  0  0  0  0  0  0  0  0  0  0
  141.6416   71.9829  225.7698 H   0  0  0  0  0  0  0  0  0  0  0  0
  141.0818   72.9260  223.6105 H   0  0  0  0  0  0  0  0  0  0  0  0
  141.4471   71.4448  222.6775 H   0  0  0  0  0  0  0  0  0  0  0  0
  1  2  2  0
  2  3  1  0
  3  4  1  0
  4  5  1  0
  5  6  1  0
  6  7  1  0
  7  8  1  0
  8  9  1  0
  9 10  1  0
 10 11  1  0
  2 12  1  0
 12 13  2  0
 13 14  1  0
 14 15  2  0
 15 16  1  0
 16 17  1  0
 17 18  1  0
 18 19  1  0
 19 20  2  0
 20 21  1  0
 21 22  2  0
 22 23  1  0
 23 24  2  0
 24 25  1  0
 15 26  1  0
 26 27  2  0
 27 28  1  0
 28 29  1  0
 29 30  1  0
 30 31  1  0
 31 32  2  0
 32 33  1  0
 33 34  2  0
 34 35  1  0
 35 36  2  0
 36 37  1  0
 11  6  1  0
 27 12  1  0
 37 28  1  0
 25 16  1  0
 36 31  1  0
 24 19  1  0
  3 38  1  0
  4 39  1  0
  4 40  1  0
  5 41  1  0
  5 42  1  0
  6 43  1  0
  7 44  1  0
  7 45  1  0
  8 46  1  0
  8 47  1  0
  9 48  1  0
 10 49  1  0
 10 50  1  0
 11 51  1  0
 11 52  1  0
 13 53  1  0
 17 54  1  0
 17 55  1  0
 18 56  1  0
 18 57  1  0
 20 58  1  0
 21 59  1  0
 22 60  1  0
 23 61  1  0
 25 62  1  0
 25 63  1  0
 29 64  1  0
 29 65  1  0
 30 66  1  0
 30 67  1  0
 32 68  1  0
 33 69  1  0
 34 70  1  0
 35 71  1  0
 37 72  1  0
 37 73  1  0
M  END
>  <smiles>  (41) 
O=C(NCCC1CCNCC1)c1cnc(N2CCc3ccccc3C2)nc1N1CCc2ccccc2C1

>  <score_type>  (41) 
oracle

>  <origin>  (41) 
autodockgpu

>  <m_score__min__energy>  (41) 
-10.130000000000001

>  <m_primary>  (41) 
energy

>  <rmsd>  (41) 
9.02538381299554

>  <m_score__min__rmsd>  (41) 
9.02538381299554

>  <meeko>  (41) 
{"free_energy": -9.98, "intermolecular_energy": -11.77, "internal_energy": -1.55, "cluster_size": 30, "cluster_id": 2, "rank_in_cluster": 3}

>  <energy>  (41) 
-8.88

>  <cluster_rmsd>  (41) 
1.4

>  <cluster>  (41) 
2

$$$$

     RDKit          3D

 73 78  0  0  0  0  0  0  0  0999 V2000
  135.9560   72.9120  221.1420 O   0  0  0  0  0  0  0  0  0  0  0  0
  136.6890   73.2080  222.1060 C   0  0  0  0  0  0  0  0  0  0  0  0
  136.3340   72.7110  223.4020 N   0  0  0  0  0  0  0  0  0  0  0  0
  135.1330   71.8750  223.5850 C   0  0  0  0  0  0  0  0  0  0  0  0
  134.3220   72.2460  224.7720 C   0  0  0  0  0  0  0  0  0  0  0  0
  134.3360   73.7260  224.9770 C   0  0  0  0  0  0  0  0  0  0  0  0
  133.8930   74.4640  223.7060 C   0  0  0  0  0  0  0  0  0  0  0  0
  133.6080   75.8990  224.1440 C   0  0  0  0  0  0  0  0  0  0  0  0
  134.4540   76.3220  225.2280 N   0  0  0  0  0  0  0  0  0  0  0  0
  134.0400   75.6280  226.4410 C   0  0  0  0  0  0  0  0  0  0  0  0
  133.4710   74.2460  226.0730 C   0  0  0  0  0  0  0  0  0  0  0  0
  137.8900   74.0220  222.0360 C   0  0  0  0  0  0  0  0  0  0  0  0
  137.6860   75.3900  221.8220 C   0  0  0  0  0  0  0  0  0  0  0  0
  138.7150   76.2110  221.7360 N   0  0  0  0  0  0  0  0  0  0  0  0
  139.9720   75.7350  221.8550 C   0  0  0  0  0  0  0  0  0  0  0  0
  141.0190   76.6910  221.7380 N   0  0  0  0  0  0  0  0  0  0  0  0
  141.7370   76.9380  220.5030 C   0  0  0  0  0  0  0  0  0  0  0  0
  141.6940   78.3700  220.0550 C   0  0  0  0  0  0  0  0  0  0  0  0
  141.4030   79.2890  221.1550 C   0  0  0  0  0  0  0  0  0  0  0  0
  141.2390   80.6400  220.8230 C   0  0  0  0  0  0  0  0  0  0  0  0
  140.9640   81.5920  221.7760 C   0  0  0  0  0  0  0  0  0  0  0  0
  140.8400   81.2520  223.0830 C   0  0  0  0  0  0  0  0  0  0  0  0
  140.9980   79.9120  223.4600 C   0  0  0  0  0  0  0  0  0  0  0  0
  141.2740   78.9710  222.4820 C   0  0  0  0  0  0  0  0  0  0  0  0
  141.4410   77.5220  222.8810 C   0  0  0  0  0  0  0  0  0  0  0  0
  140.1750   74.4410  222.0580 N   0  0  0  0  0  0  0  0  0  0  0  0
  139.1650   73.5270  222.1590 C   0  0  0  0  0  0  0  0  0  0  0  0
  139.4870   72.1720  222.3760 N   0  0  0  0  0  0  0  0  0  0  0  0
  138.7730   71.0310  221.9070 C   0  0  0  0  0  0  0  0  0  0  0  0
  138.4530   70.0450  223.0110 C   0  0  0  0  0  0  0  0  0  0  0  0
  139.2310   70.2500  224.2390 C   0  0  0  0  0  0  0  0  0  0  0  0
  138.8470   69.5040  225.3570 C   0  0  0  0  0  0  0  0  0  0  0  0
  139.5440   69.6620  226.5300 C   0  0  0  0  0  0  0  0  0  0  0  0
  140.6120   70.5200  226.6780 C   0  0  0  0  0  0  0  0  0  0  0  0
  140.9900   71.2550  225.5790 C   0  0  0  0  0  0  0  0  0  0  0  0
  140.2910   71.1050  224.3800 C   0  0  0  0  0  0  0  0  0  0  0  0
  140.6940   71.9040  223.1830 C   0  0  0  0  0  0  0  0  0  0  0  0
  136.9520   72.9550  224.2290 H   0  0  0  0  0  0  0  0  0  0  0  0
  134.5021   71.9728  222.6892 H   0  0  0  0  0  0  0  0  0  0  0  0
  135.4808   70.8435  223.7433 H   0  0  0  0  0  0  0  0  0  0  0  0
  133.2850   71.9119  224.6201 H   0  0  0  0  0  0  0  0  0  0  0  0
  134.7518   71.7609  225.6608 H   0  0  0  0  0  0  0  0  0  0  0  0
  135.3840   73.9177  225.2509 H   0  0  0  0  0  0  0  0  0  0  0  0
  134.6934   74.4443  222.9516 H   0  0  0  0  0  0  0  0  0  0  0  0
  133.0095   73.9943  223.2491 H   0  0  0  0  0  0  0  0  0  0  0  0
  133.7715   76.5686  223.2868 H   0  0  0  0  0  0  0  0  0  0  0  0
  132.5668   75.9405  224.4965 H   0  0  0  0  0  0  0  0  0  0  0  0
  134.2540   77.3290  225.3840 H   0  0  0  0  0  0  0  0  0  0  0  0
  134.9074   75.5022  227.1056 H   0  0  0  0  0  0  0  0  0  0  0  0
  133.2666   76.2178  226.9549 H   0  0  0  0  0  0  0  0  0  0  0  0
  133.5089   73.5729  226.9422 H   0  0  0  0  0  0  0  0  0  0  0  0
  132.4188   74.3133  225.7592 H   0  0  0  0  0  0  0  0  0  0  0  0
  136.6630   75.7824  221.7251 H   0  0  0  0  0  0  0  0  0  0  0  0
  142.7889   76.6517  220.6498 H   0  0  0  0  0  0  0  0  0  0  0  0
  141.2445   76.3419  219.7206 H   0  0  0  0  0  0  0  0  0  0  0  0
  142.6702   78.6344  219.6224 H   0  0  0  0  0  0  0  0  0  0  0  0
  140.8862   78.4661  219.3146 H   0  0  0  0  0  0  0  0  0  0  0  0
  141.3328   80.9476  219.7710 H   0  0  0  0  0  0  0  0  0  0  0  0
  140.8430   82.6429  221.4745 H   0  0  0  0  0  0  0  0  0  0  0  0
  140.6178   82.0198  223.8387 H   0  0  0  0  0  0  0  0  0  0  0  0
  140.9045   79.6125  224.5143 H   0  0  0  0  0  0  0  0  0  0  0  0
  142.4947   77.3190  223.1230 H   0  0  0  0  0  0  0  0  0  0  0  0
  140.8325   77.2941  223.7686 H   0  0  0  0  0  0  0  0  0  0  0  0
  137.8297   71.3687  221.4530 H   0  0  0  0  0  0  0  0  0  0  0  0
  139.4148   70.5151  221.1777 H   0  0  0  0  0  0  0  0  0  0  0  0
  137.3852   70.1375  223.2586 H   0  0  0  0  0  0  0  0  0  0  0  0
  138.7149   69.0463  222.6314 H   0  0  0  0  0  0  0  0  0  0  0  0
  138.0015   68.8028  225.2984 H   0  0  0  0  0  0  0  0  0  0  0  0
  139.2314   69.0690  227.4021 H   0  0  0  0  0  0  0  0  0  0  0  0
  141.1415   70.6133  227.6377 H   0  0  0  0  0  0  0  0  0  0  0  0
  141.8359   71.9551  225.6441 H   0  0  0  0  0  0  0  0  0  0  0  0
  141.1447   72.8544  223.5049 H   0  0  0  0  0  0  0  0  0  0  0  0
  141.4322   71.3473  222.5870 H   0  0  0  0  0  0  0  0  0  0  0  0
  1  2  2  0
  2  3  1  0
  3  4  1  0
  4  5  1  0
  5  6  1  0
  6  7  1  0
  7  8  1  0
  8  9  1  0
  9 10  1  0
 10 11  1  0
  2 12  1  0
 12 13  2  0
 13 14  1  0
 14 15  2  0
 15 16  1  0
 16 17  1  0
 17 18  1  0
 18 19  1  0
 19 20  2  0
 20 21  1  0
 21 22  2  0
 22 23  1  0
 23 24  2  0
 24 25  1  0
 15 26  1  0
 26 27  2  0
 27 28  1  0
 28 29  1  0
 29 30  1  0
 30 31  1  0
 31 32  2  0
 32 33  1  0
 33 34  2  0
 34 35  1  0
 35 36  2  0
 36 37  1  0
 11  6  1  0
 27 12  1  0
 37 28  1  0
 25 16  1  0
 36 31  1  0
 24 19  1  0
  3 38  1  0
  4 39  1  0
  4 40  1  0
  5 41  1  0
  5 42  1  0
  6 43  1  0
  7 44  1  0
  7 45  1  0
  8 46  1  0
  8 47  1  0
  9 48  1  0
 10 49  1  0
 10 50  1  0
 11 51  1  0
 11 52  1  0
 13 53  1  0
 17 54  1  0
 17 55  1  0
 18 56  1  0
 18 57  1  0
 20 58  1  0
 21 59  1  0
 22 60  1  0
 23 61  1  0
 25 62  1  0
 25 63  1  0
 29 64  1  0
 29 65  1  0
 30 66  1  0
 30 67  1  0
 32 68  1  0
 33 69  1  0
 34 70  1  0
 35 71  1  0
 37 72  1  0
 37 73  1  0
M  END
>  <smiles>  (42) 
O=C(NCCC1CCNCC1)c1cnc(N2CCc3ccccc3C2)nc1N1CCc2ccccc2C1

>  <score_type>  (42) 
oracle

>  <origin>  (42) 
autodockgpu

>  <m_score__min__energy>  (42) 
-10.130000000000001

>  <m_primary>  (42) 
energy

>  <rmsd>  (42) 
8.188085590843095

>  <m_score__min__rmsd>  (42) 
8.188085590843095

>  <meeko>  (42) 
{"free_energy": -8.98, "intermolecular_energy": -10.77, "internal_energy": -1.6, "cluster_size": 30, "cluster_id": 2, "rank_in_cluster": 24}

>  <energy>  (42) 
-8.87

>  <cluster_rmsd>  (42) 
1.37

>  <cluster>  (42) 
2

$$$$

     RDKit          3D

 73 78  0  0  0  0  0  0  0  0999 V2000
  135.8670   73.2070  221.1660 O   0  0  0  0  0  0  0  0  0  0  0  0
  136.5230   73.6310  222.1380 C   0  0  0  0  0  0  0  0  0  0  0  0
  136.0300   73.3590  223.4560 N   0  0  0  0  0  0  0  0  0  0  0  0
  134.7810   72.6010  223.6510 C   0  0  0  0  0  0  0  0  0  0  0  0
  134.7250   71.8610  224.9370 C   0  0  0  0  0  0  0  0  0  0  0  0
  134.6420   70.3890  224.6920 C   0  0  0  0  0  0  0  0  0  0  0  0
  134.0240   69.6620  225.8940 C   0  0  0  0  0  0  0  0  0  0  0  0
  133.6710   68.2640  225.3900 C   0  0  0  0  0  0  0  0  0  0  0  0
  134.5800   67.7980  224.3770 N   0  0  0  0  0  0  0  0  0  0  0  0
  134.3390   68.5490  223.1520 C   0  0  0  0  0  0  0  0  0  0  0  0
  133.8480   69.9640  223.5050 C   0  0  0  0  0  0  0  0  0  0  0  0
  137.7610   74.3860  222.0580 C   0  0  0  0  0  0  0  0  0  0  0  0
  137.6210   75.7740  221.9520 C   0  0  0  0  0  0  0  0  0  0  0  0
  138.6870   76.5460  221.8650 N   0  0  0  0  0  0  0  0  0  0  0  0
  139.9210   76.0000  221.8800 C   0  0  0  0  0  0  0  0  0  0  0  0
  141.0110   76.9070  221.7710 N   0  0  0  0  0  0  0  0  0  0  0  0
  141.7610   77.1080  220.5470 C   0  0  0  0  0  0  0  0  0  0  0  0
  141.7880   78.5360  220.0820 C   0  0  0  0  0  0  0  0  0  0  0  0
  141.5190   79.4800  221.1670 C   0  0  0  0  0  0  0  0  0  0  0  0
  141.4210   80.8320  220.8190 C   0  0  0  0  0  0  0  0  0  0  0  0
  141.1720   81.8060  221.7560 C   0  0  0  0  0  0  0  0  0  0  0  0
  141.0110   81.4870  223.0640 C   0  0  0  0  0  0  0  0  0  0  0  0
  141.1030   80.1450  223.4580 C   0  0  0  0  0  0  0  0  0  0  0  0
  141.3540   79.1820  222.4950 C   0  0  0  0  0  0  0  0  0  0  0  0
  141.4500   77.7320  222.9120 C   0  0  0  0  0  0  0  0  0  0  0  0
  140.0640   74.6860  221.9810 N   0  0  0  0  0  0  0  0  0  0  0  0
  139.0120   73.8200  222.0740 C   0  0  0  0  0  0  0  0  0  0  0  0
  139.2700   72.4380  222.1770 N   0  0  0  0  0  0  0  0  0  0  0  0
  138.5080   71.3740  221.6130 C   0  0  0  0  0  0  0  0  0  0  0  0
  138.1370   70.3150  222.6300 C   0  0  0  0  0  0  0  0  0  0  0  0
  138.9150   70.3800  223.8720 C   0  0  0  0  0  0  0  0  0  0  0  0
  138.4910   69.5620  224.9230 C   0  0  0  0  0  0  0  0  0  0  0  0
  139.1860   69.5880  226.1060 C   0  0  0  0  0  0  0  0  0  0  0  0
  140.2910   70.3820  226.3290 C   0  0  0  0  0  0  0  0  0  0  0  0
  140.7100   71.1870  225.2960 C   0  0  0  0  0  0  0  0  0  0  0  0
  140.0120   71.1710  224.0870 C   0  0  0  0  0  0  0  0  0  0  0  0
  140.4590   72.0470  222.9620 C   0  0  0  0  0  0  0  0  0  0  0  0
  136.5810   73.7130  224.2910 H   0  0  0  0  0  0  0  0  0  0  0  0
  133.9381   73.3071  223.6199 H   0  0  0  0  0  0  0  0  0  0  0  0
  134.7316   71.8517  222.8472 H   0  0  0  0  0  0  0  0  0  0  0  0
  135.6315   72.0801  225.5203 H   0  0  0  0  0  0  0  0  0  0  0  0
  133.8302   72.1798  225.4917 H   0  0  0  0  0  0  0  0  0  0  0  0
  135.6931   70.1191  224.5123 H   0  0  0  0  0  0  0  0  0  0  0  0
  134.7480   69.6012  226.7199 H   0  0  0  0  0  0  0  0  0  0  0  0
  133.1403   70.1912  226.2799 H   0  0  0  0  0  0  0  0  0  0  0  0
  133.7004   67.5651  226.2389 H   0  0  0  0  0  0  0  0  0  0  0  0
  132.6677   68.3137  224.9417 H   0  0  0  0  0  0  0  0  0  0  0  0
  134.3190   66.8130  224.1740 H   0  0  0  0  0  0  0  0  0  0  0  0
  135.2729   68.6184  222.5749 H   0  0  0  0  0  0  0  0  0  0  0  0
  133.5739   68.0349  222.5517 H   0  0  0  0  0  0  0  0  0  0  0  0
  134.0219   70.6502  222.6630 H   0  0  0  0  0  0  0  0  0  0  0  0
  132.7686   69.9752  223.7168 H   0  0  0  0  0  0  0  0  0  0  0  0
  136.6172   76.2237  221.9411 H   0  0  0  0  0  0  0  0  0  0  0  0
  142.7967   76.7785  220.7165 H   0  0  0  0  0  0  0  0  0  0  0  0
  141.2574   76.5243  219.7623 H   0  0  0  0  0  0  0  0  0  0  0  0
  142.7818   78.7526  219.6633 H   0  0  0  0  0  0  0  0  0  0  0  0
  140.9976   78.6583  219.3268 H   0  0  0  0  0  0  0  0  0  0  0  0
  141.5468   81.1233  219.7658 H   0  0  0  0  0  0  0  0  0  0  0  0
  141.1024   82.8576  221.4409 H   0  0  0  0  0  0  0  0  0  0  0  0
  140.8105   82.2725  223.8075 H   0  0  0  0  0  0  0  0  0  0  0  0
  140.9780   79.8617  224.5135 H   0  0  0  0  0  0  0  0  0  0  0  0
  142.4895   77.4857  223.1744 H   0  0  0  0  0  0  0  0  0  0  0  0
  140.8170   77.5414  223.7912 H   0  0  0  0  0  0  0  0  0  0  0  0
  137.5837   71.7911  221.1867 H   0  0  0  0  0  0  0  0  0  0  0  0
  139.1303   70.8919  220.8446 H   0  0  0  0  0  0  0  0  0  0  0  0
  137.0730   70.4354  222.8819 H   0  0  0  0  0  0  0  0  0  0  0  0
  138.3562   69.3408  222.1685 H   0  0  0  0  0  0  0  0  0  0  0  0
  137.6145   68.9081  224.8039 H   0  0  0  0  0  0  0  0  0  0  0  0
  138.8416   68.9378  226.9237 H   0  0  0  0  0  0  0  0  0  0  0  0
  140.8166   70.3719  227.2952 H   0  0  0  0  0  0  0  0  0  0  0  0
  141.5877   71.8381  225.4211 H   0  0  0  0  0  0  0  0  0  0  0  0
  140.9515   72.9451  223.3631 H   0  0  0  0  0  0  0  0  0  0  0  0
  141.1740   71.5078  222.3232 H   0  0  0  0  0  0  0  0  0  0  0  0
  1  2  2  0
  2  3  1  0
  3  4  1  0
  4  5  1  0
  5  6  1  0
  6  7  1  0
  7  8  1  0
  8  9  1  0
  9 10  1  0
 10 11  1  0
  2 12  1  0
 12 13  2  0
 13 14  1  0
 14 15  2  0
 15 16  1  0
 16 17  1  0
 17 18  1  0
 18 19  1  0
 19 20  2  0
 20 21  1  0
 21 22  2  0
 22 23  1  0
 23 24  2  0
 24 25  1  0
 15 26  1  0
 26 27  2  0
 27 28  1  0
 28 29  1  0
 29 30  1  0
 30 31  1  0
 31 32  2  0
 32 33  1  0
 33 34  2  0
 34 35  1  0
 35 36  2  0
 36 37  1  0
 11  6  1  0
 27 12  1  0
 37 28  1  0
 25 16  1  0
 36 31  1  0
 24 19  1  0
  3 38  1  0
  4 39  1  0
  4 40  1  0
  5 41  1  0
  5 42  1  0
  6 43  1  0
  7 44  1  0
  7 45  1  0
  8 46  1  0
  8 47  1  0
  9 48  1  0
 10 49  1  0
 10 50  1  0
 11 51  1  0
 11 52  1  0
 13 53  1  0
 17 54  1  0
 17 55  1  0
 18 56  1  0
 18 57  1  0
 20 58  1  0
 21 59  1  0
 22 60  1  0
 23 61  1  0
 25 62  1  0
 25 63  1  0
 29 64  1  0
 29 65  1  0
 30 66  1  0
 30 67  1  0
 32 68  1  0
 33 69  1  0
 34 70  1  0
 35 71  1  0
 37 72  1  0
 37 73  1  0
M  END
>  <smiles>  (43) 
O=C(NCCC1CCNCC1)c1cnc(N2CCc3ccccc3C2)nc1N1CCc2ccccc2C1

>  <score_type>  (43) 
oracle

>  <origin>  (43) 
autodockgpu

>  <m_score__min__energy>  (43) 
-10.130000000000001

>  <m_primary>  (43) 
energy

>  <rmsd>  (43) 
9.123181044577914

>  <m_score__min__rmsd>  (43) 
9.123181044577914

>  <meeko>  (43) 
{"free_energy": -9.17, "intermolecular_energy": -10.96, "internal_energy": -1.85, "cluster_size": 30, "cluster_id": 2, "rank_in_cluster": 20}

>  <energy>  (43) 
-8.87

>  <cluster_rmsd>  (43) 
1.7

>  <cluster>  (43) 
2

$$$$

     RDKit          3D

 73 78  0  0  0  0  0  0  0  0999 V2000
  135.8320   73.4060  221.1870 O   0  0  0  0  0  0  0  0  0  0  0  0
  136.7250   73.4460  222.0550 C   0  0  0  0  0  0  0  0  0  0  0  0
  136.5730   72.6240  223.2190 N   0  0  0  0  0  0  0  0  0  0  0  0
  135.3900   71.7600  223.3810 C   0  0  0  0  0  0  0  0  0  0  0  0
  134.1030   72.4980  223.3680 C   0  0  0  0  0  0  0  0  0  0  0  0
  133.6730   72.8310  224.7600 C   0  0  0  0  0  0  0  0  0  0  0  0
  133.9940   71.6830  225.7270 C   0  0  0  0  0  0  0  0  0  0  0  0
  133.8460   72.2740  227.1280 C   0  0  0  0  0  0  0  0  0  0  0  0
  132.8380   73.2990  227.1890 N   0  0  0  0  0  0  0  0  0  0  0  0
  133.3320   74.4820  226.4940 C   0  0  0  0  0  0  0  0  0  0  0  0
  134.2800   74.0520  225.3600 C   0  0  0  0  0  0  0  0  0  0  0  0
  137.9270   74.2600  221.9950 C   0  0  0  0  0  0  0  0  0  0  0  0
  137.7220   75.6360  221.8470 C   0  0  0  0  0  0  0  0  0  0  0  0
  138.7510   76.4580  221.7750 N   0  0  0  0  0  0  0  0  0  0  0  0
  140.0090   75.9750  221.8440 C   0  0  0  0  0  0  0  0  0  0  0  0
  141.0570   76.9330  221.7470 N   0  0  0  0  0  0  0  0  0  0  0  0
  141.8120   77.1660  220.5320 C   0  0  0  0  0  0  0  0  0  0  0  0
  141.7770   78.5930  220.0630 C   0  0  0  0  0  0  0  0  0  0  0  0
  141.4500   79.5250  221.1420 C   0  0  0  0  0  0  0  0  0  0  0  0
  141.2920   80.8700  220.7880 C   0  0  0  0  0  0  0  0  0  0  0  0
  140.9850   81.8340  221.7190 C   0  0  0  0  0  0  0  0  0  0  0  0
  140.8220   81.5100  223.0250 C   0  0  0  0  0  0  0  0  0  0  0  0
  140.9720   80.1760  223.4250 C   0  0  0  0  0  0  0  0  0  0  0  0
  141.2820   79.2240  222.4680 C   0  0  0  0  0  0  0  0  0  0  0  0
  141.4410   77.7800  222.8910 C   0  0  0  0  0  0  0  0  0  0  0  0
  140.2130   74.6730  221.9840 N   0  0  0  0  0  0  0  0  0  0  0  0
  139.2020   73.7570  222.0660 C   0  0  0  0  0  0  0  0  0  0  0  0
  139.5250   72.3930  222.2150 N   0  0  0  0  0  0  0  0  0  0  0  0
  138.8660   71.2810  221.6140 C   0  0  0  0  0  0  0  0  0  0  0  0
  138.4740   70.2190  222.6190 C   0  0  0  0  0  0  0  0  0  0  0  0
  139.1500   70.3440  223.9150 C   0  0  0  0  0  0  0  0  0  0  0  0
  138.6900   69.5190  224.9460 C   0  0  0  0  0  0  0  0  0  0  0  0
  139.2900   69.6010  226.1780 C   0  0  0  0  0  0  0  0  0  0  0  0
  140.3320   70.4560  226.4690 C   0  0  0  0  0  0  0  0  0  0  0  0
  140.7850   71.2680  225.4560 C   0  0  0  0  0  0  0  0  0  0  0  0
  140.1840   71.1960  224.1990 C   0  0  0  0  0  0  0  0  0  0  0  0
  140.6680   72.0790  223.0940 C   0  0  0  0  0  0  0  0  0  0  0  0
  137.3290   72.6480  223.9630 H   0  0  0  0  0  0  0  0  0  0  0  0
  135.3791   71.0293  222.5588 H   0  0  0  0  0  0  0  0  0  0  0  0
  135.4752   71.2821  224.3681 H   0  0  0  0  0  0  0  0  0  0  0  0
  134.2260   73.4290  222.7952 H   0  0  0  0  0  0  0  0  0  0  0  0
  133.3350   71.8630  222.9021 H   0  0  0  0  0  0  0  0  0  0  0  0
  132.5946   73.0112  224.6392 H   0  0  0  0  0  0  0  0  0  0  0  0
  133.2880   70.8516  225.5842 H   0  0  0  0  0  0  0  0  0  0  0  0
  135.0035   71.2794  225.5596 H   0  0  0  0  0  0  0  0  0  0  0  0
  133.5719   71.4676  227.8241 H   0  0  0  0  0  0  0  0  0  0  0  0
  134.8075   72.7335  227.4007 H   0  0  0  0  0  0  0  0  0  0  0  0
  132.7450   73.5640  228.1890 H   0  0  0  0  0  0  0  0  0  0  0  0
  132.4836   75.0399  226.0710 H   0  0  0  0  0  0  0  0  0  0  0  0
  133.8756   75.1237  227.2030 H   0  0  0  0  0  0  0  0  0  0  0  0
  134.3607   74.8490  224.6061 H   0  0  0  0  0  0  0  0  0  0  0  0
  135.2950   73.8551  225.7355 H   0  0  0  0  0  0  0  0  0  0  0  0
  136.6981   76.0341  221.7904 H   0  0  0  0  0  0  0  0  0  0  0  0
  142.8599   76.8864  220.7154 H   0  0  0  0  0  0  0  0  0  0  0  0
  141.3468   76.5569  219.7429 H   0  0  0  0  0  0  0  0  0  0  0  0
  142.7646   78.8557  219.6560 H   0  0  0  0  0  0  0  0  0  0  0  0
  140.9914   78.6761  219.2975 H   0  0  0  0  0  0  0  0  0  0  0  0
  141.4170   81.1640  219.7354 H   0  0  0  0  0  0  0  0  0  0  0  0
  140.8703   82.8805  221.4002 H   0  0  0  0  0  0  0  0  0  0  0  0
  140.5744   82.2869  223.7634 H   0  0  0  0  0  0  0  0  0  0  0  0
  140.8459   79.8898  224.4796 H   0  0  0  0  0  0  0  0  0  0  0  0
  142.4873   77.5838  223.1679 H   0  0  0  0  0  0  0  0  0  0  0  0
  140.8061   77.5616  223.7623 H   0  0  0  0  0  0  0  0  0  0  0  0
  137.9568   71.6413  221.1105 H   0  0  0  0  0  0  0  0  0  0  0  0
  139.5703   70.8221  220.9045 H   0  0  0  0  0  0  0  0  0  0  0  0
  137.3890   70.2859  222.7872 H   0  0  0  0  0  0  0  0  0  0  0  0
  138.7784   69.2513  222.1938 H   0  0  0  0  0  0  0  0  0  0  0  0
  137.8616   68.8163  224.7729 H   0  0  0  0  0  0  0  0  0  0  0  0
  138.9178   68.9464  226.9799 H   0  0  0  0  0  0  0  0  0  0  0  0
  140.7830   70.4872  227.4718 H   0  0  0  0  0  0  0  0  0  0  0  0
  141.6141   71.9683  225.6352 H   0  0  0  0  0  0  0  0  0  0  0  0
  141.0799   73.0084  223.5143 H   0  0  0  0  0  0  0  0  0  0  0  0
  141.4571   71.5699  222.5211 H   0  0  0  0  0  0  0  0  0  0  0  0
  1  2  2  0
  2  3  1  0
  3  4  1  0
  4  5  1  0
  5  6  1  0
  6  7  1  0
  7  8  1  0
  8  9  1  0
  9 10  1  0
 10 11  1  0
  2 12  1  0
 12 13  2  0
 13 14  1  0
 14 15  2  0
 15 16  1  0
 16 17  1  0
 17 18  1  0
 18 19  1  0
 19 20  2  0
 20 21  1  0
 21 22  2  0
 22 23  1  0
 23 24  2  0
 24 25  1  0
 15 26  1  0
 26 27  2  0
 27 28  1  0
 28 29  1  0
 29 30  1  0
 30 31  1  0
 31 32  2  0
 32 33  1  0
 33 34  2  0
 34 35  1  0
 35 36  2  0
 36 37  1  0
 11  6  1  0
 27 12  1  0
 37 28  1  0
 25 16  1  0
 36 31  1  0
 24 19  1  0
  3 38  1  0
  4 39  1  0
  4 40  1  0
  5 41  1  0
  5 42  1  0
  6 43  1  0
  7 44  1  0
  7 45  1  0
  8 46  1  0
  8 47  1  0
  9 48  1  0
 10 49  1  0
 10 50  1  0
 11 51  1  0
 11 52  1  0
 13 53  1  0
 17 54  1  0
 17 55  1  0
 18 56  1  0
 18 57  1  0
 20 58  1  0
 21 59  1  0
 22 60  1  0
 23 61  1  0
 25 62  1  0
 25 63  1  0
 29 64  1  0
 29 65  1  0
 30 66  1  0
 30 67  1  0
 32 68  1  0
 33 69  1  0
 34 70  1  0
 35 71  1  0
 37 72  1  0
 37 73  1  0
M  END
>  <smiles>  (44) 
O=C(NCCC1CCNCC1)c1cnc(N2CCc3ccccc3C2)nc1N1CCc2ccccc2C1

>  <score_type>  (44) 
oracle

>  <origin>  (44) 
autodockgpu

>  <m_score__min__energy>  (44) 
-10.130000000000001

>  <m_primary>  (44) 
energy

>  <rmsd>  (44) 
8.79504625329594

>  <m_score__min__rmsd>  (44) 
8.79504625329594

>  <meeko>  (44) 
{"free_energy": -9.84, "intermolecular_energy": -11.63, "internal_energy": -1.6, "cluster_size": 30, "cluster_id": 2, "rank_in_cluster": 6}

>  <energy>  (44) 
-8.85

>  <cluster_rmsd>  (44) 
1.29

>  <cluster>  (44) 
2

$$$$

     RDKit          3D

 73 78  0  0  0  0  0  0  0  0999 V2000
  139.6890   70.7930  221.9520 O   0  0  0  0  0  0  0  0  0  0  0  0
  139.1590   71.7490  222.5520 C   0  0  0  0  0  0  0  0  0  0  0  0
  138.3880   71.4660  223.7260 N   0  0  0  0  0  0  0  0  0  0  0  0
  138.2260   70.0820  224.2050 C   0  0  0  0  0  0  0  0  0  0  0  0
  139.4850   69.4670  224.6950 C   0  0  0  0  0  0  0  0  0  0  0  0
  139.9350   70.1270  225.9580 C   0  0  0  0  0  0  0  0  0  0  0  0
  140.2570   69.0890  227.0410 C   0  0  0  0  0  0  0  0  0  0  0  0
  141.0270   69.8470  228.1210 C   0  0  0  0  0  0  0  0  0  0  0  0
  140.6120   71.2200  228.2300 N   0  0  0  0  0  0  0  0  0  0  0  0
  141.0860   71.9470  227.0590 C   0  0  0  0  0  0  0  0  0  0  0  0
  141.1420   70.9940  225.8520 C   0  0  0  0  0  0  0  0  0  0  0  0
  139.2540   73.1470  222.1670 C   0  0  0  0  0  0  0  0  0  0  0  0
  140.5490   73.6370  221.9730 C   0  0  0  0  0  0  0  0  0  0  0  0
  140.7400   74.8970  221.6290 N   0  0  0  0  0  0  0  0  0  0  0  0
  139.6840   75.7200  221.4620 C   0  0  0  0  0  0  0  0  0  0  0  0
  139.9840   77.0630  221.1030 N   0  0  0  0  0  0  0  0  0  0  0  0
  138.9750   78.0250  220.7050 C   0  0  0  0  0  0  0  0  0  0  0  0
  138.9690   79.2740  221.5400 C   0  0  0  0  0  0  0  0  0  0  0  0
  140.2480   79.4990  222.2130 C   0  0  0  0  0  0  0  0  0  0  0  0
  140.3140   80.5830  223.0970 C   0  0  0  0  0  0  0  0  0  0  0  0
  141.4650   80.8900  223.7830 C   0  0  0  0  0  0  0  0  0  0  0  0
  142.5870   80.1450  223.6260 C   0  0  0  0  0  0  0  0  0  0  0  0
  142.5670   79.0520  222.7510 C   0  0  0  0  0  0  0  0  0  0  0  0
  141.3950   78.7630  222.0710 C   0  0  0  0  0  0  0  0  0  0  0  0
  141.3640   77.5820  221.1270 C   0  0  0  0  0  0  0  0  0  0  0  0
  138.4520   75.2640  221.6440 N   0  0  0  0  0  0  0  0  0  0  0  0
  138.1720   73.9750  222.0000 C   0  0  0  0  0  0  0  0  0  0  0  0
  136.8260   73.5890  222.1690 N   0  0  0  0  0  0  0  0  0  0  0  0
  135.8910   74.1110  223.1090 C   0  0  0  0  0  0  0  0  0  0  0  0
  135.2080   73.0300  223.9200 C   0  0  0  0  0  0  0  0  0  0  0  0
  135.3460   71.6830  223.3540 C   0  0  0  0  0  0  0  0  0  0  0  0
  134.9110   70.6200  224.1510 C   0  0  0  0  0  0  0  0  0  0  0  0
  135.0200   69.3400  223.6660 C   0  0  0  0  0  0  0  0  0  0  0  0
  135.5380   69.0310  222.4270 C   0  0  0  0  0  0  0  0  0  0  0  0
  135.9670   70.0760  221.6420 C   0  0  0  0  0  0  0  0  0  0  0  0
  135.8620   71.3820  222.1220 C   0  0  0  0  0  0  0  0  0  0  0  0
  136.3310   72.5220  221.2770 C   0  0  0  0  0  0  0  0  0  0  0  0
  137.9340   72.2730  224.2460 H   0  0  0  0  0  0  0  0  0  0  0  0
  137.4969   70.0831  225.0287 H   0  0  0  0  0  0  0  0  0  0  0  0
  137.8895   69.4828  223.3461 H   0  0  0  0  0  0  0  0  0  0  0  0
  139.3143   68.3974  224.8869 H   0  0  0  0  0  0  0  0  0  0  0  0
  140.2645   69.5962  223.9297 H   0  0  0  0  0  0  0  0  0  0  0  0
  139.0766   70.7673  226.2092 H   0  0  0  0  0  0  0  0  0  0  0  0
  139.3299   68.6664  227.4555 H   0  0  0  0  0  0  0  0  0  0  0  0
  140.8417   68.2488  226.6383 H   0  0  0  0  0  0  0  0  0  0  0  0
  140.8605   69.3500  229.0881 H   0  0  0  0  0  0  0  0  0  0  0  0
  142.0909   69.8397  227.8415 H   0  0  0  0  0  0  0  0  0  0  0  0
  141.1170   71.6180  229.0470 H   0  0  0  0  0  0  0  0  0  0  0  0
  140.3983   72.7769  226.8394 H   0  0  0  0  0  0  0  0  0  0  0  0
  142.0913   72.3469  227.2576 H   0  0  0  0  0  0  0  0  0  0  0  0
  141.1210   71.5655  224.9123 H   0  0  0  0  0  0  0  0  0  0  0  0
  142.0671   70.3989  225.8507 H   0  0  0  0  0  0  0  0  0  0  0  0
  141.4128   72.9694  222.1077 H   0  0  0  0  0  0  0  0  0  0  0  0
  139.1588   78.3080  219.6580 H   0  0  0  0  0  0  0  0  0  0  0  0
  137.9969   77.5410  220.8433 H   0  0  0  0  0  0  0  0  0  0  0  0
  138.7564   80.1341  220.8881 H   0  0  0  0  0  0  0  0  0  0  0  0
  138.1974   79.1564  222.3151 H   0  0  0  0  0  0  0  0  0  0  0  0
  139.4200   81.2062  223.2466 H   0  0  0  0  0  0  0  0  0  0  0  0
  141.4759   81.7507  224.4678 H   0  0  0  0  0  0  0  0  0  0  0  0
  143.5033   80.3966  224.1802 H   0  0  0  0  0  0  0  0  0  0  0  0
  143.4654   78.4341  222.6062 H   0  0  0  0  0  0  0  0  0  0  0  0
  141.6616   77.9015  220.1174 H   0  0  0  0  0  0  0  0  0  0  0  0
  142.0631   76.8020  221.4629 H   0  0  0  0  0  0  0  0  0  0  0  0
  136.4234   74.7835  223.7977 H   0  0  0  0  0  0  0  0  0  0  0  0
  135.1120   74.6411  222.5415 H   0  0  0  0  0  0  0  0  0  0  0  0
  135.6441   73.0274  224.9298 H   0  0  0  0  0  0  0  0  0  0  0  0
  134.1335   73.2654  223.9237 H   0  0  0  0  0  0  0  0  0  0  0  0
  134.4886   70.8058  225.1495 H   0  0  0  0  0  0  0  0  0  0  0  0
  134.6737   68.5132  224.3036 H   0  0  0  0  0  0  0  0  0  0  0  0
  135.6058   67.9896  222.0793 H   0  0  0  0  0  0  0  0  0  0  0  0
  136.3891   69.8838  220.6446 H   0  0  0  0  0  0  0  0  0  0  0  0
  137.1422   72.1849  220.6150 H   0  0  0  0  0  0  0  0  0  0  0  0
  135.5037   72.8997  220.6581 H   0  0  0  0  0  0  0  0  0  0  0  0
  1  2  2  0
  2  3  1  0
  3  4  1  0
  4  5  1  0
  5  6  1  0
  6  7  1  0
  7  8  1  0
  8  9  1  0
  9 10  1  0
 10 11  1  0
  2 12  1  0
 12 13  2  0
 13 14  1  0
 14 15  2  0
 15 16  1  0
 16 17  1  0
 17 18  1  0
 18 19  1  0
 19 20  2  0
 20 21  1  0
 21 22  2  0
 22 23  1  0
 23 24  2  0
 24 25  1  0
 15 26  1  0
 26 27  2  0
 27 28  1  0
 28 29  1  0
 29 30  1  0
 30 31  1  0
 31 32  2  0
 32 33  1  0
 33 34  2  0
 34 35  1  0
 35 36  2  0
 36 37  1  0
 11  6  1  0
 27 12  1  0
 37 28  1  0
 25 16  1  0
 36 31  1  0
 24 19  1  0
  3 38  1  0
  4 39  1  0
  4 40  1  0
  5 41  1  0
  5 42  1  0
  6 43  1  0
  7 44  1  0
  7 45  1  0
  8 46  1  0
  8 47  1  0
  9 48  1  0
 10 49  1  0
 10 50  1  0
 11 51  1  0
 11 52  1  0
 13 53  1  0
 17 54  1  0
 17 55  1  0
 18 56  1  0
 18 57  1  0
 20 58  1  0
 21 59  1  0
 22 60  1  0
 23 61  1  0
 25 62  1  0
 25 63  1  0
 29 64  1  0
 29 65  1  0
 30 66  1  0
 30 67  1  0
 32 68  1  0
 33 69  1  0
 34 70  1  0
 35 71  1  0
 37 72  1  0
 37 73  1  0
M  END
>  <smiles>  (45) 
O=C(NCCC1CCNCC1)c1cnc(N2CCc3ccccc3C2)nc1N1CCc2ccccc2C1

>  <score_type>  (45) 
oracle

>  <origin>  (45) 
autodockgpu

>  <m_score__min__energy>  (45) 
-10.130000000000001

>  <m_primary>  (45) 
energy

>  <rmsd>  (45) 
9.125572176407506

>  <m_score__min__rmsd>  (45) 
9.125572176407506

>  <meeko>  (45) 
{"free_energy": -8.74, "intermolecular_energy": -10.52, "internal_energy": -1.89, "cluster_size": 4, "cluster_id": 4, "rank_in_cluster": 2}

>  <energy>  (45) 
-8.75

>  <cluster_rmsd>  (45) 
1.6

>  <cluster>  (45) 
2

$$$$

     RDKit          3D

 73 78  0  0  0  0  0  0  0  0999 V2000
  140.4630   73.4800  222.2290 O   0  0  0  0  0  0  0  0  0  0  0  0
  139.4750   72.9250  221.7110 C   0  0  0  0  0  0  0  0  0  0  0  0
  139.5550   72.5540  220.3290 N   0  0  0  0  0  0  0  0  0  0  0  0
  140.7740   72.8260  219.5460 C   0  0  0  0  0  0  0  0  0  0  0  0
  141.8590   71.8380  219.7640 C   0  0  0  0  0  0  0  0  0  0  0  0
  143.1950   72.5050  219.7160 C   0  0  0  0  0  0  0  0  0  0  0  0
  143.0550   74.0310  219.8150 C   0  0  0  0  0  0  0  0  0  0  0  0
  144.4600   74.5520  220.1130 C   0  0  0  0  0  0  0  0  0  0  0  0
  145.4870   73.7400  219.5160 N   0  0  0  0  0  0  0  0  0  0  0  0
  145.5570   72.4740  220.2340 C   0  0  0  0  0  0  0  0  0  0  0  0
  144.1630   72.1140  220.7780 C   0  0  0  0  0  0  0  0  0  0  0  0
  138.2290   72.6110  222.3890 C   0  0  0  0  0  0  0  0  0  0  0  0
  137.1200   73.3750  222.0070 C   0  0  0  0  0  0  0  0  0  0  0  0
  135.9450   73.1710  222.5710 N   0  0  0  0  0  0  0  0  0  0  0  0
  135.8060   72.2230  223.5220 C   0  0  0  0  0  0  0  0  0  0  0  0
  134.5060   72.0800  224.0820 N   0  0  0  0  0  0  0  0  0  0  0  0
  134.1310   70.9850  224.9540 C   0  0  0  0  0  0  0  0  0  0  0  0
  133.5990   71.4290  226.2860 C   0  0  0  0  0  0  0  0  0  0  0  0
  133.0920   72.8010  226.2550 C   0  0  0  0  0  0  0  0  0  0  0  0
  132.6670   73.3460  227.4720 C   0  0  0  0  0  0  0  0  0  0  0  0
  132.1720   74.6250  227.5600 C   0  0  0  0  0  0  0  0  0  0  0  0
  132.0790   75.4110  226.4600 C   0  0  0  0  0  0  0  0  0  0  0  0
  132.4910   74.9070  225.2200 C   0  0  0  0  0  0  0  0  0  0  0  0
  132.9860   73.6150  225.1570 C   0  0  0  0  0  0  0  0  0  0  0  0
  133.4380   73.0640  223.8230 C   0  0  0  0  0  0  0  0  0  0  0  0
  136.8500   71.4940  223.8900 N   0  0  0  0  0  0  0  0  0  0  0  0
  138.0990   71.6440  223.3550 C   0  0  0  0  0  0  0  0  0  0  0  0
  139.1440   70.8190  223.8160 N   0  0  0  0  0  0  0  0  0  0  0  0
  139.1940   69.3950  223.7870 C   0  0  0  0  0  0  0  0  0  0  0  0
  139.5330   68.7920  225.1350 C   0  0  0  0  0  0  0  0  0  0  0  0
  140.0960   69.7500  226.0930 C   0  0  0  0  0  0  0  0  0  0  0  0
  140.2460   69.3060  227.4110 C   0  0  0  0  0  0  0  0  0  0  0  0
  140.7670   70.1670  228.3450 C   0  0  0  0  0  0  0  0  0  0  0  0
  141.1580   71.4590  228.0640 C   0  0  0  0  0  0  0  0  0  0  0  0
  141.0110   71.8970  226.7680 C   0  0  0  0  0  0  0  0  0  0  0  0
  140.4820   71.0320  225.8080 C   0  0  0  0  0  0  0  0  0  0  0  0
  140.3150   71.5030  224.4000 C   0  0  0  0  0  0  0  0  0  0  0  0
  138.7200   72.0780  219.8790 H   0  0  0  0  0  0  0  0  0  0  0  0
  140.5089   72.8200  218.4784 H   0  0  0  0  0  0  0  0  0  0  0  0
  141.1576   73.8016  219.8793 H   0  0  0  0  0  0  0  0  0  0  0  0
  141.7257   71.3661  220.7487 H   0  0  0  0  0  0  0  0  0  0  0  0
  141.8127   71.0792  218.9690 H   0  0  0  0  0  0  0  0  0  0  0  0
  143.5954   72.1651  218.7495 H   0  0  0  0  0  0  0  0  0  0  0  0
  142.6848   74.4454  218.8657 H   0  0  0  0  0  0  0  0  0  0  0  0
  142.3371   74.3249  220.5949 H   0  0  0  0  0  0  0  0  0  0  0  0
  144.5472   75.5759  219.7205 H   0  0  0  0  0  0  0  0  0  0  0  0
  144.6028   74.5233  221.2033 H   0  0  0  0  0  0  0  0  0  0  0  0
  146.3880   74.2270  219.6900 H   0  0  0  0  0  0  0  0  0  0  0  0
  145.8990   71.6832  219.5501 H   0  0  0  0  0  0  0  0  0  0  0  0
  146.2644   72.5664  221.0713 H   0  0  0  0  0  0  0  0  0  0  0  0
  144.0972   71.0340  220.9764 H   0  0  0  0  0  0  0  0  0  0  0  0
  143.9536   72.6327  221.7252 H   0  0  0  0  0  0  0  0  0  0  0  0
  137.2288   74.1490  221.2330 H   0  0  0  0  0  0  0  0  0  0  0  0
  133.3544   70.3905  224.4506 H   0  0  0  0  0  0  0  0  0  0  0  0
  135.0437   70.4033  225.1502 H   0  0  0  0  0  0  0  0  0  0  0  0
  132.7802   70.7564  226.5813 H   0  0  0  0  0  0  0  0  0  0  0  0
  134.4290   71.3945  227.0070 H   0  0  0  0  0  0  0  0  0  0  0  0
  132.7310   72.7335  228.3835 H   0  0  0  0  0  0  0  0  0  0  0  0
  131.8472   75.0157  228.5356 H   0  0  0  0  0  0  0  0  0  0  0  0
  131.6839   76.4345  226.5403 H   0  0  0  0  0  0  0  0  0  0  0  0
  132.4227   75.5257  224.3131 H   0  0  0  0  0  0  0  0  0  0  0  0
  132.5940   72.5754  223.3142 H   0  0  0  0  0  0  0  0  0  0  0  0
  133.8090   73.8739  223.1777 H   0  0  0  0  0  0  0  0  0  0  0  0
  138.2118   69.0152  223.4691 H   0  0  0  0  0  0  0  0  0  0  0  0
  139.9900   69.1057  223.0851 H   0  0  0  0  0  0  0  0  0  0  0  0
  138.6130   68.3712  225.5668 H   0  0  0  0  0  0  0  0  0  0  0  0
  140.3051   68.0290  224.9571 H   0  0  0  0  0  0  0  0  0  0  0  0
  139.9516   68.2847  227.6942 H   0  0  0  0  0  0  0  0  0  0  0  0
  140.8790   69.8050  229.3777 H   0  0  0  0  0  0  0  0  0  0  0  0
  141.5713   72.1139  228.8453 H   0  0  0  0  0  0  0  0  0  0  0  0
  141.3075   72.9193  226.4907 H   0  0  0  0  0  0  0  0  0  0  0  0
  140.1536   72.5910  224.3888 H   0  0  0  0  0  0  0  0  0  0  0  0
  141.2177   71.2734  223.8149 H   0  0  0  0  0  0  0  0  0  0  0  0
  1  2  2  0
  2  3  1  0
  3  4  1  0
  4  5  1  0
  5  6  1  0
  6  7  1  0
  7  8  1  0
  8  9  1  0
  9 10  1  0
 10 11  1  0
  2 12  1  0
 12 13  2  0
 13 14  1  0
 14 15  2  0
 15 16  1  0
 16 17  1  0
 17 18  1  0
 18 19  1  0
 19 20  2  0
 20 21  1  0
 21 22  2  0
 22 23  1  0
 23 24  2  0
 24 25  1  0
 15 26  1  0
 26 27  2  0
 27 28  1  0
 28 29  1  0
 29 30  1  0
 30 31  1  0
 31 32  2  0
 32 33  1  0
 33 34  2  0
 34 35  1  0
 35 36  2  0
 36 37  1  0
 11  6  1  0
 27 12  1  0
 37 28  1  0
 25 16  1  0
 36 31  1  0
 24 19  1  0
  3 38  1  0
  4 39  1  0
  4 40  1  0
  5 41  1  0
  5 42  1  0
  6 43  1  0
  7 44  1  0
  7 45  1  0
  8 46  1  0
  8 47  1  0
  9 48  1  0
 10 49  1  0
 10 50  1  0
 11 51  1  0
 11 52  1  0
 13 53  1  0
 17 54  1  0
 17 55  1  0
 18 56  1  0
 18 57  1  0
 20 58  1  0
 21 59  1  0
 22 60  1  0
 23 61  1  0
 25 62  1  0
 25 63  1  0
 29 64  1  0
 29 65  1  0
 30 66  1  0
 30 67  1  0
 32 68  1  0
 33 69  1  0
 34 70  1  0
 35 71  1  0
 37 72  1  0
 37 73  1  0
M  END
>  <smiles>  (46) 
O=C(NCCC1CCNCC1)c1cnc(N2CCc3ccccc3C2)nc1N1CCc2ccccc2C1

>  <score_type>  (46) 
oracle

>  <origin>  (46) 
autodockgpu

>  <m_score__min__energy>  (46) 
-10.130000000000001

>  <m_primary>  (46) 
energy

>  <rmsd>  (46) 
6.440209480467213

>  <m_score__min__rmsd>  (46) 
6.440209480467213

>  <meeko>  (46) 
{"free_energy": -9.48, "intermolecular_energy": -11.27, "internal_energy": -1.32, "cluster_size": 15, "cluster_id": 1, "rank_in_cluster": 11}

>  <energy>  (46) 
-8.93

>  <cluster_rmsd>  (46) 
0.0

>  <cluster>  (46) 
3

$$$$

     RDKit          3D

 73 78  0  0  0  0  0  0  0  0999 V2000
  136.0930   73.0520  220.6850 O   0  0  0  0  0  0  0  0  0  0  0  0
  136.6850   73.3910  221.7280 C   0  0  0  0  0  0  0  0  0  0  0  0
  136.1420   72.9620  222.9830 N   0  0  0  0  0  0  0  0  0  0  0  0
  134.9160   72.1450  223.0340 C   0  0  0  0  0  0  0  0  0  0  0  0
  134.9170   71.1310  224.1190 C   0  0  0  0  0  0  0  0  0  0  0  0
  134.0990   71.6020  225.2770 C   0  0  0  0  0  0  0  0  0  0  0  0
  134.3410   70.7290  226.5160 C   0  0  0  0  0  0  0  0  0  0  0  0
  133.7460   71.5080  227.6890 C   0  0  0  0  0  0  0  0  0  0  0  0
  132.6060   72.2960  227.3040 N   0  0  0  0  0  0  0  0  0  0  0  0
  133.0660   73.4180  226.4950 C   0  0  0  0  0  0  0  0  0  0  0  0
  134.3280   73.0070  225.7160 C   0  0  0  0  0  0  0  0  0  0  0  0
  137.8940   74.1930  221.7920 C   0  0  0  0  0  0  0  0  0  0  0  0
  137.7240   75.5670  221.5950 C   0  0  0  0  0  0  0  0  0  0  0  0
  138.7640   76.3790  221.6250 N   0  0  0  0  0  0  0  0  0  0  0  0
  140.0000   75.8860  221.8480 C   0  0  0  0  0  0  0  0  0  0  0  0
  141.0620   76.8310  221.8530 N   0  0  0  0  0  0  0  0  0  0  0  0
  141.8330   77.1700  220.6730 C   0  0  0  0  0  0  0  0  0  0  0  0
  141.8240   78.6360  220.3460 C   0  0  0  0  0  0  0  0  0  0  0  0
  141.5000   79.4640  221.5070 C   0  0  0  0  0  0  0  0  0  0  0  0
  141.3650   80.8400  221.2850 C   0  0  0  0  0  0  0  0  0  0  0  0
  141.0630   81.7120  222.3040 C   0  0  0  0  0  0  0  0  0  0  0  0
  140.8830   81.2660  223.5710 C   0  0  0  0  0  0  0  0  0  0  0  0
  141.0100   79.8960  223.8400 C   0  0  0  0  0  0  0  0  0  0  0  0
  141.3140   79.0370  222.7970 C   0  0  0  0  0  0  0  0  0  0  0  0
  141.4480   77.5570  223.0780 C   0  0  0  0  0  0  0  0  0  0  0  0
  140.1720   74.5850  222.0360 N   0  0  0  0  0  0  0  0  0  0  0  0
  139.1480   73.6800  222.0180 C   0  0  0  0  0  0  0  0  0  0  0  0
  139.4360   72.3170  222.2290 N   0  0  0  0  0  0  0  0  0  0  0  0
  138.7230   71.1950  221.7130 C   0  0  0  0  0  0  0  0  0  0  0  0
  138.3380   70.2000  222.7870 C   0  0  0  0  0  0  0  0  0  0  0  0
  139.0640   70.3730  224.0500 C   0  0  0  0  0  0  0  0  0  0  0  0
  138.6180   69.6190  225.1400 C   0  0  0  0  0  0  0  0  0  0  0  0
  139.2650   69.7470  226.3440 C   0  0  0  0  0  0  0  0  0  0  0  0
  140.3410   70.5840  226.5510 C   0  0  0  0  0  0  0  0  0  0  0  0
  140.7810   71.3260  225.4810 C   0  0  0  0  0  0  0  0  0  0  0  0
  140.1320   71.2060  224.2500 C   0  0  0  0  0  0  0  0  0  0  0  0
  140.6010   72.0140  223.0840 C   0  0  0  0  0  0  0  0  0  0  0  0
  136.6400   73.2430  223.8770 H   0  0  0  0  0  0  0  0  0  0  0  0
  134.0580   72.8161  223.1871 H   0  0  0  0  0  0  0  0  0  0  0  0
  134.8564   71.5964  222.0824 H   0  0  0  0  0  0  0  0  0  0  0  0
  134.4941   70.1906  223.7359 H   0  0  0  0  0  0  0  0  0  0  0  0
  135.9520   70.9721  224.4561 H   0  0  0  0  0  0  0  0  0  0  0  0
  133.0730   71.5314  224.8866 H   0  0  0  0  0  0  0  0  0  0  0  0
  133.8377   69.7572  226.4055 H   0  0  0  0  0  0  0  0  0  0  0  0
  135.4108   70.5214  226.6655 H   0  0  0  0  0  0  0  0  0  0  0  0
  133.4353   70.7937  228.4657 H   0  0  0  0  0  0  0  0  0  0  0  0
  134.5192   72.1969  228.0598 H   0  0  0  0  0  0  0  0  0  0  0  0
  132.2190   72.7040  228.1770 H   0  0  0  0  0  0  0  0  0  0  0  0
  132.2759   73.7071  225.7864 H   0  0  0  0  0  0  0  0  0  0  0  0
  133.3013   74.2697  227.1502 H   0  0  0  0  0  0  0  0  0  0  0  0
  134.4691   73.6620  224.8436 H   0  0  0  0  0  0  0  0  0  0  0  0
  135.2315   73.0932  226.3375 H   0  0  0  0  0  0  0  0  0  0  0  0
  136.7179   75.9733  221.4140 H   0  0  0  0  0  0  0  0  0  0  0  0
  142.8747   76.8573  220.8373 H   0  0  0  0  0  0  0  0  0  0  0  0
  141.3669   76.6486  219.8239 H   0  0  0  0  0  0  0  0  0  0  0  0
  142.8196   78.9214  219.9753 H   0  0  0  0  0  0  0  0  0  0  0  0
  141.0472   78.8054  219.5859 H   0  0  0  0  0  0  0  0  0  0  0  0
  141.5044   81.2339  220.2675 H   0  0  0  0  0  0  0  0  0  0  0  0
  140.9662   82.7862  222.0880 H   0  0  0  0  0  0  0  0  0  0  0  0
  140.6399   81.9712  224.3795 H   0  0  0  0  0  0  0  0  0  0  0  0
  140.8707   79.5104  224.8607 H   0  0  0  0  0  0  0  0  0  0  0  0
  142.4888   77.3186  223.3425 H   0  0  0  0  0  0  0  0  0  0  0  0
  140.8020   77.2645  223.9189 H   0  0  0  0  0  0  0  0  0  0  0  0
  137.8065   71.5559  221.2235 H   0  0  0  0  0  0  0  0  0  0  0  0
  139.3872   70.6776  221.0051 H   0  0  0  0  0  0  0  0  0  0  0  0
  137.2622   70.3084  222.9890 H   0  0  0  0  0  0  0  0  0  0  0  0
  138.5993   69.2024  222.4043 H   0  0  0  0  0  0  0  0  0  0  0  0
  137.7631   68.9349  225.0344 H   0  0  0  0  0  0  0  0  0  0  0  0
  138.9042   69.1472  227.1926 H   0  0  0  0  0  0  0  0  0  0  0  0
  140.8284   70.6551  227.5345 H   0  0  0  0  0  0  0  0  0  0  0  0
  141.6366   72.0082  225.5931 H   0  0  0  0  0  0  0  0  0  0  0  0
  141.0547   72.9509  223.4395 H   0  0  0  0  0  0  0  0  0  0  0  0
  141.3537   71.4514  222.5122 H   0  0  0  0  0  0  0  0  0  0  0  0
  1  2  2  0
  2  3  1  0
  3  4  1  0
  4  5  1  0
  5  6  1  0
  6  7  1  0
  7  8  1  0
  8  9  1  0
  9 10  1  0
 10 11  1  0
  2 12  1  0
 12 13  2  0
 13 14  1  0
 14 15  2  0
 15 16  1  0
 16 17  1  0
 17 18  1  0
 18 19  1  0
 19 20  2  0
 20 21  1  0
 21 22  2  0
 22 23  1  0
 23 24  2  0
 24 25  1  0
 15 26  1  0
 26 27  2  0
 27 28  1  0
 28 29  1  0
 29 30  1  0
 30 31  1  0
 31 32  2  0
 32 33  1  0
 33 34  2  0
 34 35  1  0
 35 36  2  0
 36 37  1  0
 11  6  1  0
 27 12  1  0
 37 28  1  0
 25 16  1  0
 36 31  1  0
 24 19  1  0
  3 38  1  0
  4 39  1  0
  4 40  1  0
  5 41  1  0
  5 42  1  0
  6 43  1  0
  7 44  1  0
  7 45  1  0
  8 46  1  0
  8 47  1  0
  9 48  1  0
 10 49  1  0
 10 50  1  0
 11 51  1  0
 11 52  1  0
 13 53  1  0
 17 54  1  0
 17 55  1  0
 18 56  1  0
 18 57  1  0
 20 58  1  0
 21 59  1  0
 22 60  1  0
 23 61  1  0
 25 62  1  0
 25 63  1  0
 29 64  1  0
 29 65  1  0
 30 66  1  0
 30 67  1  0
 32 68  1  0
 33 69  1  0
 34 70  1  0
 35 71  1  0
 37 72  1  0
 37 73  1  0
M  END
>  <smiles>  (47) 
O=C(NCCC1CCNCC1)c1cnc(N2CCc3ccccc3C2)nc1N1CCc2ccccc2C1

>  <score_type>  (47) 
oracle

>  <origin>  (47) 
autodockgpu

>  <m_score__min__energy>  (47) 
-10.130000000000001

>  <m_primary>  (47) 
energy

>  <rmsd>  (47) 
9.250316592800617

>  <m_score__min__rmsd>  (47) 
9.250316592800617

>  <meeko>  (47) 
{"free_energy": -9.69, "intermolecular_energy": -11.48, "internal_energy": -1.59, "cluster_size": 30, "cluster_id": 2, "rank_in_cluster": 9}

>  <energy>  (47) 
-8.82

>  <cluster_rmsd>  (47) 
0.0

>  <cluster>  (47) 
4

$$$$

     RDKit          3D

 73 78  0  0  0  0  0  0  0  0999 V2000
  135.8330   73.4310  221.1520 O   0  0  0  0  0  0  0  0  0  0  0  0
  136.6730   73.5460  222.0650 C   0  0  0  0  0  0  0  0  0  0  0  0
  136.4420   72.8360  223.2890 N   0  0  0  0  0  0  0  0  0  0  0  0
  135.2410   71.9980  223.4580 C   0  0  0  0  0  0  0  0  0  0  0  0
  134.4590   72.3130  224.6800 C   0  0  0  0  0  0  0  0  0  0  0  0
  134.4360   73.7870  224.9230 C   0  0  0  0  0  0  0  0  0  0  0  0
  133.9140   74.5420  223.6930 C   0  0  0  0  0  0  0  0  0  0  0  0
  133.6040   75.9560  224.1810 C   0  0  0  0  0  0  0  0  0  0  0  0
  134.4840   76.3780  225.2390 N   0  0  0  0  0  0  0  0  0  0  0  0
  134.1460   75.6400  226.4500 C   0  0  0  0  0  0  0  0  0  0  0  0
  133.6050   74.2500  226.0690 C   0  0  0  0  0  0  0  0  0  0  0  0
  137.8860   74.3430  222.0040 C   0  0  0  0  0  0  0  0  0  0  0  0
  137.7010   75.7230  221.8680 C   0  0  0  0  0  0  0  0  0  0  0  0
  138.7410   76.5310  221.7960 N   0  0  0  0  0  0  0  0  0  0  0  0
  139.9920   76.0300  221.8530 C   0  0  0  0  0  0  0  0  0  0  0  0
  141.0520   76.9730  221.7560 N   0  0  0  0  0  0  0  0  0  0  0  0
  141.8070   77.2010  220.5400 C   0  0  0  0  0  0  0  0  0  0  0  0
  141.7900   78.6300  220.0780 C   0  0  0  0  0  0  0  0  0  0  0  0
  141.4800   79.5620  221.1620 C   0  0  0  0  0  0  0  0  0  0  0  0
  141.3390   80.9110  220.8140 C   0  0  0  0  0  0  0  0  0  0  0  0
  141.0490   81.8740  221.7510 C   0  0  0  0  0  0  0  0  0  0  0  0
  140.8860   81.5470  223.0560 C   0  0  0  0  0  0  0  0  0  0  0  0
  141.0190   80.2090  223.4500 C   0  0  0  0  0  0  0  0  0  0  0  0
  141.3120   79.2570  222.4870 C   0  0  0  0  0  0  0  0  0  0  0  0
  141.4520   77.8100  222.9030 C   0  0  0  0  0  0  0  0  0  0  0  0
  140.1780   74.7230  221.9820 N   0  0  0  0  0  0  0  0  0  0  0  0
  139.1550   73.8220  222.0630 C   0  0  0  0  0  0  0  0  0  0  0  0
  139.4590   72.4520  222.1990 N   0  0  0  0  0  0  0  0  0  0  0  0
  138.7620   71.3530  221.6190 C   0  0  0  0  0  0  0  0  0  0  0  0
  138.3850   70.2950  222.6350 C   0  0  0  0  0  0  0  0  0  0  0  0
  139.1050   70.4060  223.9080 C   0  0  0  0  0  0  0  0  0  0  0  0
  138.6650   69.5870  224.9520 C   0  0  0  0  0  0  0  0  0  0  0  0
  139.3060   69.6560  226.1640 C   0  0  0  0  0  0  0  0  0  0  0  0
  140.3710   70.4930  226.4230 C   0  0  0  0  0  0  0  0  0  0  0  0
  140.8050   71.2990  225.3970 C   0  0  0  0  0  0  0  0  0  0  0  0
  140.1620   71.2400  224.1590 C   0  0  0  0  0  0  0  0  0  0  0  0
  140.6250   72.1170  223.0410 C   0  0  0  0  0  0  0  0  0  0  0  0
  137.1520   72.9240  224.0720 H   0  0  0  0  0  0  0  0  0  0  0  0
  134.5906   72.1431  222.5828 H   0  0  0  0  0  0  0  0  0  0  0  0
  135.5865   70.9584  223.5573 H   0  0  0  0  0  0  0  0  0  0  0  0
  133.4280   71.9513  224.5529 H   0  0  0  0  0  0  0  0  0  0  0  0
  134.9318   71.8185  225.5414 H   0  0  0  0  0  0  0  0  0  0  0  0
  135.4887   74.0061  225.1551 H   0  0  0  0  0  0  0  0  0  0  0  0
  134.6801   74.5672  222.9041 H   0  0  0  0  0  0  0  0  0  0  0  0
  133.0260   74.0556  223.2630 H   0  0  0  0  0  0  0  0  0  0  0  0
  133.7090   76.6521  223.3358 H   0  0  0  0  0  0  0  0  0  0  0  0
  132.5784   75.9556  224.5787 H   0  0  0  0  0  0  0  0  0  0  0  0
  134.2600   77.3740  225.4310 H   0  0  0  0  0  0  0  0  0  0  0  0
  135.0455   75.5254  227.0728 H   0  0  0  0  0  0  0  0  0  0  0  0
  133.3782   76.1908  227.0131 H   0  0  0  0  0  0  0  0  0  0  0  0
  133.7025   73.5561  226.9170 H   0  0  0  0  0  0  0  0  0  0  0  0
  132.5384   74.2914  225.8030 H   0  0  0  0  0  0  0  0  0  0  0  0
  136.6827   76.1364  221.8208 H   0  0  0  0  0  0  0  0  0  0  0  0
  142.8515   76.9064  220.7193 H   0  0  0  0  0  0  0  0  0  0  0  0
  141.3318   76.6018  219.7493 H   0  0  0  0  0  0  0  0  0  0  0  0
  142.7796   78.8808  219.6684 H   0  0  0  0  0  0  0  0  0  0  0  0
  141.0025   78.7272  219.3161 H   0  0  0  0  0  0  0  0  0  0  0  0
  141.4637   81.2081  219.7623 H   0  0  0  0  0  0  0  0  0  0  0  0
  140.9479   82.9235  221.4376 H   0  0  0  0  0  0  0  0  0  0  0  0
  140.6517   82.3241  223.7984 H   0  0  0  0  0  0  0  0  0  0  0  0
  140.8932   79.9199  224.5038 H   0  0  0  0  0  0  0  0  0  0  0  0
  142.4964   77.5979  223.1755 H   0  0  0  0  0  0  0  0  0  0  0  0
  140.8171   77.5968  223.7756 H   0  0  0  0  0  0  0  0  0  0  0  0
  137.8429   71.7297  221.1464 H   0  0  0  0  0  0  0  0  0  0  0  0
  139.4349   70.8836  220.8862 H   0  0  0  0  0  0  0  0  0  0  0  0
  137.3074   70.3797  222.8387 H   0  0  0  0  0  0  0  0  0  0  0  0
  138.6588   69.3231  222.1985 H   0  0  0  0  0  0  0  0  0  0  0  0
  137.8195   68.8989  224.8048 H   0  0  0  0  0  0  0  0  0  0  0  0
  138.9492   69.0055  226.9762 H   0  0  0  0  0  0  0  0  0  0  0  0
  140.8540   70.5149  227.4110 H   0  0  0  0  0  0  0  0  0  0  0  0
  141.6516   71.9845  225.5502 H   0  0  0  0  0  0  0  0  0  0  0  0
  141.0655   73.0385  223.4495 H   0  0  0  0  0  0  0  0  0  0  0  0
  141.3868   71.5963  222.4423 H   0  0  0  0  0  0  0  0  0  0  0  0
  1  2  2  0
  2  3  1  0
  3  4  1  0
  4  5  1  0
  5  6  1  0
  6  7  1  0
  7  8  1  0
  8  9  1  0
  9 10  1  0
 10 11  1  0
  2 12  1  0
 12 13  2  0
 13 14  1  0
 14 15  2  0
 15 16  1  0
 16 17  1  0
 17 18  1  0
 18 19  1  0
 19 20  2  0
 20 21  1  0
 21 22  2  0
 22 23  1  0
 23 24  2  0
 24 25  1  0
 15 26  1  0
 26 27  2  0
 27 28  1  0
 28 29  1  0
 29 30  1  0
 30 31  1  0
 31 32  2  0
 32 33  1  0
 33 34  2  0
 34 35  1  0
 35 36  2  0
 36 37  1  0
 11  6  1  0
 27 12  1  0
 37 28  1  0
 25 16  1  0
 36 31  1  0
 24 19  1  0
  3 38  1  0
  4 39  1  0
  4 40  1  0
  5 41  1  0
  5 42  1  0
  6 43  1  0
  7 44  1  0
  7 45  1  0
  8 46  1  0
  8 47  1  0
  9 48  1  0
 10 49  1  0
 10 50  1  0
 11 51  1  0
 11 52  1  0
 13 53  1  0
 17 54  1  0
 17 55  1  0
 18 56  1  0
 18 57  1  0
 20 58  1  0
 21 59  1  0
 22 60  1  0
 23 61  1  0
 25 62  1  0
 25 63  1  0
 29 64  1  0
 29 65  1  0
 30 66  1  0
 30 67  1  0
 32 68  1  0
 33 69  1  0
 34 70  1  0
 35 71  1  0
 37 72  1  0
 37 73  1  0
M  END
>  <smiles>  (48) 
O=C(NCCC1CCNCC1)c1cnc(N2CCc3ccccc3C2)nc1N1CCc2ccccc2C1

>  <score_type>  (48) 
oracle

>  <origin>  (48) 
autodockgpu

>  <m_score__min__energy>  (48) 
-10.130000000000001

>  <m_primary>  (48) 
energy

>  <rmsd>  (48) 
8.06436919306612

>  <m_score__min__rmsd>  (48) 
8.06436919306612

>  <meeko>  (48) 
{"free_energy": -8.85, "intermolecular_energy": -10.64, "internal_energy": -1.73, "cluster_size": 30, "cluster_id": 2, "rank_in_cluster": 29}

>  <energy>  (48) 
-8.74

>  <cluster_rmsd>  (48) 
0.61

>  <cluster>  (48) 
4

$$$$

     RDKit          3D

 73 78  0  0  0  0  0  0  0  0999 V2000
  139.2820   72.0020  220.2870 O   0  0  0  0  0  0  0  0  0  0  0  0
  139.1250   72.4190  221.4520 C   0  0  0  0  0  0  0  0  0  0  0  0
  140.1770   73.1950  222.0390 N   0  0  0  0  0  0  0  0  0  0  0  0
  141.4090   73.4870  221.2850 C   0  0  0  0  0  0  0  0  0  0  0  0
  142.2340   72.2870  220.9980 C   0  0  0  0  0  0  0  0  0  0  0  0
  143.5000   72.6730  220.3050 C   0  0  0  0  0  0  0  0  0  0  0  0
  143.2520   72.9630  218.8190 C   0  0  0  0  0  0  0  0  0  0  0  0
  144.5090   73.6750  218.3240 C   0  0  0  0  0  0  0  0  0  0  0  0
  145.6960   73.2360  219.0100 N   0  0  0  0  0  0  0  0  0  0  0  0
  145.6650   73.7490  220.3730 C   0  0  0  0  0  0  0  0  0  0  0  0
  144.2040   73.8710  220.8430 C   0  0  0  0  0  0  0  0  0  0  0  0
  137.9550   72.1890  222.2820 C   0  0  0  0  0  0  0  0  0  0  0  0
  136.8020   72.8930  221.9150 C   0  0  0  0  0  0  0  0  0  0  0  0
  135.6900   72.7570  222.6120 N   0  0  0  0  0  0  0  0  0  0  0  0
  135.6590   71.9380  223.6840 C   0  0  0  0  0  0  0  0  0  0  0  0
  134.4220   71.8630  224.3810 N   0  0  0  0  0  0  0  0  0  0  0  0
  134.1940   70.9780  225.5060 C   0  0  0  0  0  0  0  0  0  0  0  0
  133.7410   71.6860  226.7510 C   0  0  0  0  0  0  0  0  0  0  0  0
  133.1400   72.9880  226.4620 C   0  0  0  0  0  0  0  0  0  0  0  0
  132.7770   73.7740  227.5630 C   0  0  0  0  0  0  0  0  0  0  0  0
  132.2030   75.0140  227.4100 C   0  0  0  0  0  0  0  0  0  0  0  0
  131.9670   75.5240  226.1770 C   0  0  0  0  0  0  0  0  0  0  0  0
  132.3130   74.7710  225.0470 C   0  0  0  0  0  0  0  0  0  0  0  0
  132.8900   73.5250  225.2260 C   0  0  0  0  0  0  0  0  0  0  0  0
  133.2710   72.7080  224.0110 C   0  0  0  0  0  0  0  0  0  0  0  0
  136.7460   71.2680  224.0390 N   0  0  0  0  0  0  0  0  0  0  0  0
  137.9340   71.3530  223.3710 C   0  0  0  0  0  0  0  0  0  0  0  0
  139.0330   70.5990  223.8290 N   0  0  0  0  0  0  0  0  0  0  0  0
  139.1600   69.1790  223.8360 C   0  0  0  0  0  0  0  0  0  0  0  0
  139.5600   68.6330  225.1910 C   0  0  0  0  0  0  0  0  0  0  0  0
  140.0900   69.6450  226.1110 C   0  0  0  0  0  0  0  0  0  0  0  0
  140.2920   69.2460  227.4360 C   0  0  0  0  0  0  0  0  0  0  0  0
  140.7850   70.1590  228.3350 C   0  0  0  0  0  0  0  0  0  0  0  0
  141.0990   71.4620  228.0120 C   0  0  0  0  0  0  0  0  0  0  0  0
  140.9010   71.8560  226.7090 C   0  0  0  0  0  0  0  0  0  0  0  0
  140.4000   70.9380  225.7840 C   0  0  0  0  0  0  0  0  0  0  0  0
  140.1770   71.3610  224.3680 C   0  0  0  0  0  0  0  0  0  0  0  0
  140.0520   73.5570  223.0290 H   0  0  0  0  0  0  0  0  0  0  0  0
  141.1282   73.9518  220.3284 H   0  0  0  0  0  0  0  0  0  0  0  0
  142.0191   74.1526  221.9133 H   0  0  0  0  0  0  0  0  0  0  0  0
  142.4791   71.7821  221.9440 H   0  0  0  0  0  0  0  0  0  0  0  0
  141.6629   71.6122  220.3435 H   0  0  0  0  0  0  0  0  0  0  0  0
  144.1409   71.7956  220.4766 H   0  0  0  0  0  0  0  0  0  0  0  0
  143.0987   72.0251  218.2651 H   0  0  0  0  0  0  0  0  0  0  0  0
  142.3512   73.5762  218.6688 H   0  0  0  0  0  0  0  0  0  0  0  0
  144.6280   73.4746  217.2490 H   0  0  0  0  0  0  0  0  0  0  0  0
  144.3854   74.7497  218.5231 H   0  0  0  0  0  0  0  0  0  0  0  0
  146.4980   73.7000  218.5400 H   0  0  0  0  0  0  0  0  0  0  0  0
  146.2072   73.0593  221.0366 H   0  0  0  0  0  0  0  0  0  0  0  0
  146.1434   74.7391  220.4028 H   0  0  0  0  0  0  0  0  0  0  0  0
  144.1553   73.8819  221.9419 H   0  0  0  0  0  0  0  0  0  0  0  0
  143.7422   74.8040  220.4876 H   0  0  0  0  0  0  0  0  0  0  0  0
  136.8232   73.5621  221.0422 H   0  0  0  0  0  0  0  0  0  0  0  0
  133.4222   70.2475  225.2220 H   0  0  0  0  0  0  0  0  0  0  0  0
  135.1577   70.5021  225.7402 H   0  0  0  0  0  0  0  0  0  0  0  0
  132.9967   71.0588  227.2636 H   0  0  0  0  0  0  0  0  0  0  0  0
  134.6258   71.8565  227.3819 H   0  0  0  0  0  0  0  0  0  0  0  0
  132.9560   73.3888  228.5777 H   0  0  0  0  0  0  0  0  0  0  0  0
  131.9317   75.5999  228.3006 H   0  0  0  0  0  0  0  0  0  0  0  0
  131.5090   76.5178  226.0644 H   0  0  0  0  0  0  0  0  0  0  0  0
  132.1295   75.1628  224.0356 H   0  0  0  0  0  0  0  0  0  0  0  0
  132.4249   72.0752  223.7048 H   0  0  0  0  0  0  0  0  0  0  0  0
  133.5320   73.3673  223.1701 H   0  0  0  0  0  0  0  0  0  0  0  0
  138.1935   68.7381  223.5506 H   0  0  0  0  0  0  0  0  0  0  0  0
  139.9552   68.9137  223.1238 H   0  0  0  0  0  0  0  0  0  0  0  0
  138.6737   68.1750  225.6544 H   0  0  0  0  0  0  0  0  0  0  0  0
  140.3691   67.9088  225.0152 H   0  0  0  0  0  0  0  0  0  0  0  0
  140.0599   68.2184  227.7525 H   0  0  0  0  0  0  0  0  0  0  0  0
  140.9385   69.8317  229.3739 H   0  0  0  0  0  0  0  0  0  0  0  0
  141.4924   72.1591  228.7665 H   0  0  0  0  0  0  0  0  0  0  0  0
  141.1353   72.8850  226.3986 H   0  0  0  0  0  0  0  0  0  0  0  0
  139.9560   72.4380  224.3323 H   0  0  0  0  0  0  0  0  0  0  0  0
  141.0781   71.1648  223.7684 H   0  0  0  0  0  0  0  0  0  0  0  0
  1  2  2  0
  2  3  1  0
  3  4  1  0
  4  5  1  0
  5  6  1  0
  6  7  1  0
  7  8  1  0
  8  9  1  0
  9 10  1  0
 10 11  1  0
  2 12  1  0
 12 13  2  0
 13 14  1  0
 14 15  2  0
 15 16  1  0
 16 17  1  0
 17 18  1  0
 18 19  1  0
 19 20  2  0
 20 21  1  0
 21 22  2  0
 22 23  1  0
 23 24  2  0
 24 25  1  0
 15 26  1  0
 26 27  2  0
 27 28  1  0
 28 29  1  0
 29 30  1  0
 30 31  1  0
 31 32  2  0
 32 33  1  0
 33 34  2  0
 34 35  1  0
 35 36  2  0
 36 37  1  0
 11  6  1  0
 27 12  1  0
 37 28  1  0
 25 16  1  0
 36 31  1  0
 24 19  1  0
  3 38  1  0
  4 39  1  0
  4 40  1  0
  5 41  1  0
  5 42  1  0
  6 43  1  0
  7 44  1  0
  7 45  1  0
  8 46  1  0
  8 47  1  0
  9 48  1  0
 10 49  1  0
 10 50  1  0
 11 51  1  0
 11 52  1  0
 13 53  1  0
 17 54  1  0
 17 55  1  0
 18 56  1  0
 18 57  1  0
 20 58  1  0
 21 59  1  0
 22 60  1  0
 23 61  1  0
 25 62  1  0
 25 63  1  0
 29 64  1  0
 29 65  1  0
 30 66  1  0
 30 67  1  0
 32 68  1  0
 33 69  1  0
 34 70  1  0
 35 71  1  0
 37 72  1  0
 37 73  1  0
M  END
>  <smiles>  (49) 
O=C(NCCC1CCNCC1)c1cnc(N2CCc3ccccc3C2)nc1N1CCc2ccccc2C1

>  <score_type>  (49) 
oracle

>  <origin>  (49) 
autodockgpu

>  <m_score__min__energy>  (49) 
-10.130000000000001

>  <m_primary>  (49) 
energy

>  <rmsd>  (49) 
6.505298525129271

>  <m_score__min__rmsd>  (49) 
6.505298525129271

>  <meeko>  (49) 
{"free_energy": -9.52, "intermolecular_energy": -11.31, "internal_energy": -1.26, "cluster_size": 15, "cluster_id": 1, "rank_in_cluster": 9}

>  <energy>  (49) 
-8.65

>  <cluster_rmsd>  (49) 
0.63

>  <cluster>  (49) 
4

$$$$

     RDKit          3D

 73 78  0  0  0  0  0  0  0  0999 V2000
  135.6540   73.3510  221.3420 O   0  0  0  0  0  0  0  0  0  0  0  0
  136.5600   73.3680  222.1980 C   0  0  0  0  0  0  0  0  0  0  0  0
  136.4080   72.5430  223.3590 N   0  0  0  0  0  0  0  0  0  0  0  0
  135.2110   71.7010  223.5340 C   0  0  0  0  0  0  0  0  0  0  0  0
  135.0210   71.2100  224.9220 C   0  0  0  0  0  0  0  0  0  0  0  0
  134.3130   72.2340  225.7490 C   0  0  0  0  0  0  0  0  0  0  0  0
  134.4470   73.6330  225.1310 C   0  0  0  0  0  0  0  0  0  0  0  0
  133.4110   74.4980  225.8460 C   0  0  0  0  0  0  0  0  0  0  0  0
  133.1990   74.0900  227.2090 N   0  0  0  0  0  0  0  0  0  0  0  0
  132.4780   72.8230  227.2110 C   0  0  0  0  0  0  0  0  0  0  0  0
  132.8530   72.0180  225.9540 C   0  0  0  0  0  0  0  0  0  0  0  0
  137.7770   74.1590  222.1260 C   0  0  0  0  0  0  0  0  0  0  0  0
  137.5970   75.5390  221.9840 C   0  0  0  0  0  0  0  0  0  0  0  0
  138.6410   76.3410  221.9020 N   0  0  0  0  0  0  0  0  0  0  0  0
  139.8910   75.8330  221.9540 C   0  0  0  0  0  0  0  0  0  0  0  0
  140.9550   76.7700  221.8460 N   0  0  0  0  0  0  0  0  0  0  0  0
  141.6200   77.0800  220.5960 C   0  0  0  0  0  0  0  0  0  0  0  0
  141.5920   78.5390  220.2410 C   0  0  0  0  0  0  0  0  0  0  0  0
  141.3770   79.3920  221.4100 C   0  0  0  0  0  0  0  0  0  0  0  0
  141.2320   80.7640  221.1720 C   0  0  0  0  0  0  0  0  0  0  0  0
  141.0260   81.6590  222.1950 C   0  0  0  0  0  0  0  0  0  0  0  0
  140.9560   81.2390  223.4820 C   0  0  0  0  0  0  0  0  0  0  0  0
  141.0970   79.8740  223.7670 C   0  0  0  0  0  0  0  0  0  0  0  0
  141.3030   78.9920  222.7190 C   0  0  0  0  0  0  0  0  0  0  0  0
  141.4510   77.5170  223.0170 C   0  0  0  0  0  0  0  0  0  0  0  0
  140.0700   74.5270  222.0880 N   0  0  0  0  0  0  0  0  0  0  0  0
  139.0430   73.6310  222.1800 C   0  0  0  0  0  0  0  0  0  0  0  0
  139.3410   72.2610  222.3200 N   0  0  0  0  0  0  0  0  0  0  0  0
  138.6230   71.1610  221.7660 C   0  0  0  0  0  0  0  0  0  0  0  0
  138.2620   70.1140  222.7990 C   0  0  0  0  0  0  0  0  0  0  0  0
  139.0130   70.2310  224.0550 C   0  0  0  0  0  0  0  0  0  0  0  0
  138.5910   69.4240  225.1160 C   0  0  0  0  0  0  0  0  0  0  0  0
  139.2600   69.4990  226.3120 C   0  0  0  0  0  0  0  0  0  0  0  0
  140.3370   70.3310  226.5380 C   0  0  0  0  0  0  0  0  0  0  0  0
  140.7520   71.1250  225.4950 C   0  0  0  0  0  0  0  0  0  0  0  0
  140.0810   71.0600  224.2730 C   0  0  0  0  0  0  0  0  0  0  0  0
  140.5240   71.9240  223.1370 C   0  0  0  0  0  0  0  0  0  0  0  0
  137.1750   72.5480  224.0930 H   0  0  0  0  0  0  0  0  0  0  0  0
  134.3272   72.2917  223.2512 H   0  0  0  0  0  0  0  0  0  0  0  0
  135.3470   70.8148  222.8967 H   0  0  0  0  0  0  0  0  0  0  0  0
  134.4236   70.2866  224.9004 H   0  0  0  0  0  0  0  0  0  0  0  0
  136.0075   71.0142  225.3675 H   0  0  0  0  0  0  0  0  0  0  0  0
  134.8123   72.1373  226.7244 H   0  0  0  0  0  0  0  0  0  0  0  0
  135.4593   74.0306  225.2963 H   0  0  0  0  0  0  0  0  0  0  0  0
  134.2823   73.6154  224.0435 H   0  0  0  0  0  0  0  0  0  0  0  0
  133.7583   75.5417  225.8401 H   0  0  0  0  0  0  0  0  0  0  0  0
  132.4562   74.3865  225.3113 H   0  0  0  0  0  0  0  0  0  0  0  0
  132.5600   74.7910  227.6330 H   0  0  0  0  0  0  0  0  0  0  0  0
  132.7489   72.2483  228.1089 H   0  0  0  0  0  0  0  0  0  0  0  0
  131.3952   73.0170  227.2130 H   0  0  0  0  0  0  0  0  0  0  0  0
  132.6425   70.9493  226.1075 H   0  0  0  0  0  0  0  0  0  0  0  0
  132.2707   72.3424  225.0790 H   0  0  0  0  0  0  0  0  0  0  0  0
  136.5805   75.9571  221.9405 H   0  0  0  0  0  0  0  0  0  0  0  0
  142.6701   76.7619  220.6735 H   0  0  0  0  0  0  0  0  0  0  0  0
  141.0763   76.5464  219.8025 H   0  0  0  0  0  0  0  0  0  0  0  0
  142.5528   78.8088  219.7784 H   0  0  0  0  0  0  0  0  0  0  0  0
  140.7527   78.7003  219.5485 H   0  0  0  0  0  0  0  0  0  0  0  0
  141.2843   81.1361  220.1382 H   0  0  0  0  0  0  0  0  0  0  0  0
  140.9166   82.7294  221.9663 H   0  0  0  0  0  0  0  0  0  0  0  0
  140.7902   81.9620  224.2942 H   0  0  0  0  0  0  0  0  0  0  0  0
  141.0450   79.5099  224.8037 H   0  0  0  0  0  0  0  0  0  0  0  0
  142.5093   77.2752  223.1946 H   0  0  0  0  0  0  0  0  0  0  0  0
  140.8785   77.2468  223.9166 H   0  0  0  0  0  0  0  0  0  0  0  0
  137.6959   71.5400  221.3113 H   0  0  0  0  0  0  0  0  0  0  0  0
  139.2762   70.6806  221.0227 H   0  0  0  0  0  0  0  0  0  0  0  0
  137.1900   70.2080  223.0269 H   0  0  0  0  0  0  0  0  0  0  0  0
  138.5184   69.1365  222.3646 H   0  0  0  0  0  0  0  0  0  0  0  0
  137.7375   68.7408  224.9942 H   0  0  0  0  0  0  0  0  0  0  0  0
  138.9176   68.8586  227.1382 H   0  0  0  0  0  0  0  0  0  0  0  0
  140.8437   70.3581  227.5140 H   0  0  0  0  0  0  0  0  0  0  0  0
  141.6062   71.8062  225.6227 H   0  0  0  0  0  0  0  0  0  0  0  0
  140.9810   72.8454  223.5271 H   0  0  0  0  0  0  0  0  0  0  0  0
  141.2675   71.3924  222.5249 H   0  0  0  0  0  0  0  0  0  0  0  0
  1  2  2  0
  2  3  1  0
  3  4  1  0
  4  5  1  0
  5  6  1  0
  6  7  1  0
  7  8  1  0
  8  9  1  0
  9 10  1  0
 10 11  1  0
  2 12  1  0
 12 13  2  0
 13 14  1  0
 14 15  2  0
 15 16  1  0
 16 17  1  0
 17 18  1  0
 18 19  1  0
 19 20  2  0
 20 21  1  0
 21 22  2  0
 22 23  1  0
 23 24  2  0
 24 25  1  0
 15 26  1  0
 26 27  2  0
 27 28  1  0
 28 29  1  0
 29 30  1  0
 30 31  1  0
 31 32  2  0
 32 33  1  0
 33 34  2  0
 34 35  1  0
 35 36  2  0
 36 37  1  0
 11  6  1  0
 27 12  1  0
 37 28  1  0
 25 16  1  0
 36 31  1  0
 24 19  1  0
  3 38  1  0
  4 39  1  0
  4 40  1  0
  5 41  1  0
  5 42  1  0
  6 43  1  0
  7 44  1  0
  7 45  1  0
  8 46  1  0
  8 47  1  0
  9 48  1  0
 10 49  1  0
 10 50  1  0
 11 51  1  0
 11 52  1  0
 13 53  1  0
 17 54  1  0
 17 55  1  0
 18 56  1  0
 18 57  1  0
 20 58  1  0
 21 59  1  0
 22 60  1  0
 23 61  1  0
 25 62  1  0
 25 63  1  0
 29 64  1  0
 29 65  1  0
 30 66  1  0
 30 67  1  0
 32 68  1  0
 33 69  1  0
 34 70  1  0
 35 71  1  0
 37 72  1  0
 37 73  1  0
M  END
>  <smiles>  (50) 
O=C(NCCC1CCNCC1)c1cnc(N2CCc3ccccc3C2)nc1N1CCc2ccccc2C1

>  <score_type>  (50) 
oracle

>  <origin>  (50) 
autodockgpu

>  <m_score__min__energy>  (50) 
-10.130000000000001

>  <m_primary>  (50) 
energy

>  <rmsd>  (50) 
8.882091580945223

>  <m_score__min__rmsd>  (50) 
8.882091580945223

>  <meeko>  (50) 
{"free_energy": -9.67, "intermolecular_energy": -11.46, "internal_energy": -1.57, "cluster_size": 30, "cluster_id": 2, "rank_in_cluster": 10}

>  <energy>  (50) 
-8.63

>  <cluster_rmsd>  (50) 
0.58

>  <cluster>  (50) 
4

$$$$
