
     RDKit          3D

 79 85  0  0  1  0  0  0  0  0999 V2000
  140.4850   73.6400  222.3180 N   0  0  0  0  0  0  0  0  0  0  0  0
  140.3740   72.6130  221.3090 C   0  0  2  0  0  0  0  0  0  0  0  0
  139.0590   72.8560  220.6030 C   0  0  0  0  0  0  0  0  0  0  0  0
  137.9310   72.8590  221.5400 N   0  0  0  0  0  0  0  0  0  0  0  0
  137.5860   74.1550  222.0640 C   0  0  0  0  0  0  0  0  0  0  0  0
  136.3350   74.4590  222.4550 N   0  0  0  0  0  0  0  0  0  0  0  0
  136.0320   75.6970  222.9400 C   0  0  0  0  0  0  0  0  0  0  0  0
  134.7180   76.0380  223.3650 N   0  0  0  0  0  0  0  0  0  0  0  0
  134.3110   77.3980  223.5400 C   0  0  0  0  0  0  0  0  0  0  0  0
  133.7690   77.6850  224.8970 C   0  0  0  0  0  0  0  0  0  0  0  0
  133.3030   76.4670  225.5770 C   0  0  0  0  0  0  0  0  0  0  0  0
  132.8360   76.5960  226.8720 C   0  0  0  0  0  0  0  0  0  0  0  0
  132.3700   75.5160  227.6100 C   0  0  0  0  0  0  0  0  0  0  0  0
  132.3720   74.2720  227.0330 C   0  0  0  0  0  0  0  0  0  0  0  0
  132.8260   74.0960  225.7490 C   0  0  0  0  0  0  0  0  0  0  0  0
  133.2880   75.2060  225.0350 C   0  0  0  0  0  0  0  0  0  0  0  0
  133.7810   74.9620  223.6330 C   0  0  0  0  0  0  0  0  0  0  0  0
  136.9920   76.6210  223.0280 N   0  0  0  0  0  0  0  0  0  0  0  0
  138.2530   76.3470  222.6460 C   0  0  0  0  0  0  0  0  0  0  0  0
  139.2330   77.3740  222.7630 N   0  0  0  0  0  0  0  0  0  0  0  0
  140.6190   77.0340  222.5060 C   0  0  0  0  0  0  0  0  0  0  0  0
  141.0080   77.8230  221.2520 C   0  0  0  0  0  0  0  0  0  0  0  0
  140.9310   79.2630  221.6910 C   0  0  0  0  0  0  0  0  0  0  0  0
  141.8750   80.1540  221.1870 C   0  0  0  0  0  0  0  0  0  0  0  0
  141.8120   81.4900  221.5870 C   0  0  0  0  0  0  0  0  0  0  0  0
  140.8220   81.8970  222.4680 C   0  0  0  0  0  0  0  0  0  0  0  0
  139.8790   80.9950  222.9670 C   0  0  0  0  0  0  0  0  0  0  0  0
  139.9470   79.6750  222.5670 C   0  0  0  0  0  0  0  0  0  0  0  0
  138.9250   78.7270  223.1180 C   0  0  0  0  0  0  0  0  0  0  0  0
  138.5430   75.1250  222.1680 N   0  0  0  0  0  0  0  0  0  0  0  0
  140.3200   71.2290  221.9050 C   0  0  0  0  0  0  0  0  0  0  0  0
  139.5320   71.1340  223.0910 N   0  0  0  0  0  0  0  0  0  0  0  0
  138.4900   70.1820  223.0640 C   0  0  0  0  0  0  0  0  0  0  0  0
  137.8880   70.0270  224.4440 C   0  0  0  0  0  0  0  0  0  0  0  0
  138.9780   69.4770  225.2950 C   0  0  0  0  0  0  0  0  0  0  0  0
  138.8470   68.3810  226.0980 C   0  0  0  0  0  0  0  0  0  0  0  0
  139.9360   67.9640  226.8480 C   0  0  0  0  0  0  0  0  0  0  0  0
  141.1490   68.6570  226.7820 C   0  0  0  0  0  0  0  0  0  0  0  0
  141.2940   69.7750  225.9670 C   0  0  0  0  0  0  0  0  0  0  0  0
  140.1950   70.1670  225.2310 C   0  0  0  0  0  0  0  0  0  0  0  0
  140.2150   71.3430  224.3200 C   0  0  0  0  0  0  0  0  0  0  0  0
  140.6390   74.5790  221.9450 H   0  0  0  0  0  0  0  0  0  0  0  0
  139.7760   73.5420  223.0720 H   0  0  0  0  0  0  0  0  0  0  0  0
  141.2502   72.6616  220.6458 H   0  0  0  0  0  0  0  0  0  0  0  0
  139.1024   73.8306  220.0947 H   0  0  0  0  0  0  0  0  0  0  0  0
  138.9023   72.0407  219.8814 H   0  0  0  0  0  0  0  0  0  0  0  0
  137.4190   71.9920  221.8070 H   0  0  0  0  0  0  0  0  0  0  0  0
  135.1823   78.0472  223.3684 H   0  0  0  0  0  0  0  0  0  0  0  0
  133.5010   77.5889  222.8206 H   0  0  0  0  0  0  0  0  0  0  0  0
  134.5604   78.1490  225.5039 H   0  0  0  0  0  0  0  0  0  0  0  0
  132.9070   78.3585  224.7814 H   0  0  0  0  0  0  0  0  0  0  0  0
  132.8335   77.5934  227.3359 H   0  0  0  0  0  0  0  0  0  0  0  0
  132.0059   75.6558  228.6386 H   0  0  0  0  0  0  0  0  0  0  0  0
  132.0062   73.4062  227.6045 H   0  0  0  0  0  0  0  0  0  0  0  0
  132.8262   73.0968  225.2890 H   0  0  0  0  0  0  0  0  0  0  0  0
  134.2848   73.9864  223.5658 H   0  0  0  0  0  0  0  0  0  0  0  0
  132.9565   74.9447  222.9050 H   0  0  0  0  0  0  0  0  0  0  0  0
  141.2512   77.3281  223.3568 H   0  0  0  0  0  0  0  0  0  0  0  0
  140.7544   75.9514  222.3654 H   0  0  0  0  0  0  0  0  0  0  0  0
  142.0277   77.5664  220.9288 H   0  0  0  0  0  0  0  0  0  0  0  0
  140.3544   77.6055  220.3944 H   0  0  0  0  0  0  0  0  0  0  0  0
  142.6535   79.8126  220.4888 H   0  0  0  0  0  0  0  0  0  0  0  0
  142.5444   82.2163  221.2050 H   0  0  0  0  0  0  0  0  0  0  0  0
  140.7781   82.9508  222.7803 H   0  0  0  0  0  0  0  0  0  0  0  0
  139.0975   81.3298  223.6650 H   0  0  0  0  0  0  0  0  0  0  0  0
  138.9068   78.8156  224.2143 H   0  0  0  0  0  0  0  0  0  0  0  0
  137.9438   78.9852  222.6931 H   0  0  0  0  0  0  0  0  0  0  0  0
  139.8967   70.5460  221.1538 H   0  0  0  0  0  0  0  0  0  0  0  0
  141.3500   70.9657  222.1875 H   0  0  0  0  0  0  0  0  0  0  0  0
  137.7108   70.5159  222.3630 H   0  0  0  0  0  0  0  0  0  0  0  0
  138.8972   69.2132  222.7391 H   0  0  0  0  0  0  0  0  0  0  0  0
  137.5544   71.0018  224.8294 H   0  0  0  0  0  0  0  0  0  0  0  0
  137.0075   69.3678  224.4329 H   0  0  0  0  0  0  0  0  0  0  0  0
  137.8923   67.8371  226.1493 H   0  0  0  0  0  0  0  0  0  0  0  0
  139.8453   67.0822  227.4993 H   0  0  0  0  0  0  0  0  0  0  0  0
  142.0024   68.3124  227.3844 H   0  0  0  0  0  0  0  0  0  0  0  0
  142.2457   70.3238  225.9117 H   0  0  0  0  0  0  0  0  0  0  0  0
  139.7425   72.1903  224.8385 H   0  0  0  0  0  0  0  0  0  0  0  0
  141.2690   71.5339  224.0699 H   0  0  0  0  0  0  0  0  0  0  0  0
  1  2  1  0
  2  3  1  0
  3  4  1  0
  4  5  1  0
  5  6  2  0
  6  7  1  0
  7  8  1  0
  8  9  1  0
  9 10  1  0
 10 11  1  0
 11 12  2  0
 12 13  1  0
 13 14  2  0
 14 15  1  0
 15 16  2  0
 16 17  1  0
  7 18  2  0
 18 19  1  0
 19 20  1  0
 20 21  1  0
 21 22  1  0
 22 23  1  0
 23 24  2  0
 24 25  1  0
 25 26  2  0
 26 27  1  0
 27 28  2  0
 28 29  1  0
 19 30  2  0
  2 31  1  0
 31 32  1  0
 32 33  1  0
 33 34  1  0
 34 35  1  0
 35 36  2  0
 36 37  1  0
 37 38  2  0
 38 39  1  0
 39 40  2  0
 40 41  1  0
 30  5  1  0
 41 32  1  0
 17  8  1  0
 29 20  1  0
 40 35  1  0
 16 11  1  0
 28 23  1  0
  1 42  1  0
  1 43  1  0
  2 44  1  6
  3 45  1  0
  3 46  1  0
  4 47  1  0
  9 48  1  0
  9 49  1  0
 10 50  1  0
 10 51  1  0
 12 52  1  0
 13 53  1  0
 14 54  1  0
 15 55  1  0
 17 56  1  0
 17 57  1  0
 21 58  1  0
 21 59  1  0
 22 60  1  0
 22 61  1  0
 24 62  1  0
 25 63  1  0
 26 64  1  0
 27 65  1  0
 29 66  1  0
 29 67  1  0
 31 68  1  0
 31 69  1  0
 33 70  1  0
 33 71  1  0
 34 72  1  0
 34 73  1  0
 36 74  1  0
 37 75  1  0
 38 76  1  0
 39 77  1  0
 41 78  1  0
 41 79  1  0
M  END
>  <smiles>  (1) 
NC(CNc1nc(N2CCc3ccccc3C2)nc(N2CCc3ccccc3C2)n1)CN1CCc2ccccc2C1

>  <score_type>  (1) 
oracle

>  <origin>  (1) 
autodockgpu

>  <m_score__min__energy>  (1) 
-11.49

>  <m_primary>  (1) 
energy

>  <rmsd>  (1) 
3.6129562151729044

>  <m_score__min__rmsd>  (1) 
3.6129562151729044

>  <meeko>  (1) 
{"free_energy": -9.5, "intermolecular_energy": -11.89, "internal_energy": -2.99, "cluster_size": 3, "cluster_id": 3, "rank_in_cluster": 3}

>  <energy>  (1) 
-11.49

>  <cluster_rmsd>  (1) 
0.0

>  <cluster>  (1) 
1

$$$$

     RDKit          3D

 79 85  0  0  1  0  0  0  0  0999 V2000
  139.1170   70.6530  221.1520 N   0  0  0  0  0  0  0  0  0  0  0  0
  137.8090   70.6540  221.7640 C   0  0  2  0  0  0  0  0  0  0  0  0
  137.2240   72.0250  221.5050 C   0  0  0  0  0  0  0  0  0  0  0  0
  137.7190   73.0180  222.4630 N   0  0  0  0  0  0  0  0  0  0  0  0
  138.8410   73.7920  222.0000 C   0  0  0  0  0  0  0  0  0  0  0  0
  138.8160   75.1370  221.9650 N   0  0  0  0  0  0  0  0  0  0  0  0
  139.8900   75.8490  221.5160 C   0  0  0  0  0  0  0  0  0  0  0  0
  139.8880   77.2700  221.4760 N   0  0  0  0  0  0  0  0  0  0  0  0
  140.0720   77.9910  220.2550 C   0  0  0  0  0  0  0  0  0  0  0  0
  141.1940   78.9690  220.3070 C   0  0  0  0  0  0  0  0  0  0  0  0
  141.5340   79.3500  221.6860 C   0  0  0  0  0  0  0  0  0  0  0  0
  142.6060   80.2050  221.8680 C   0  0  0  0  0  0  0  0  0  0  0  0
  143.0160   80.6330  223.1230 C   0  0  0  0  0  0  0  0  0  0  0  0
  142.3330   80.1900  224.2270 C   0  0  0  0  0  0  0  0  0  0  0  0
  141.2630   79.3400  224.0950 C   0  0  0  0  0  0  0  0  0  0  0  0
  140.8780   78.9300  222.8150 C   0  0  0  0  0  0  0  0  0  0  0  0
  139.7020   77.9930  222.7220 C   0  0  0  0  0  0  0  0  0  0  0  0
  140.9820   75.1990  221.1050 N   0  0  0  0  0  0  0  0  0  0  0  0
  141.0380   73.8550  221.1280 C   0  0  0  0  0  0  0  0  0  0  0  0
  142.2290   73.2190  220.6760 N   0  0  0  0  0  0  0  0  0  0  0  0
  142.5550   71.9100  221.2080 C   0  0  0  0  0  0  0  0  0  0  0  0
  142.4680   70.9510  220.0160 C   0  0  0  0  0  0  0  0  0  0  0  0
  143.5820   71.4010  219.1070 C   0  0  0  0  0  0  0  0  0  0  0  0
  144.2940   70.4270  218.4100 C   0  0  0  0  0  0  0  0  0  0  0  0
  145.3270   70.8330  217.5630 C   0  0  0  0  0  0  0  0  0  0  0  0
  145.6210   72.1820  217.4370 C   0  0  0  0  0  0  0  0  0  0  0  0
  144.9020   73.1510  218.1410 C   0  0  0  0  0  0  0  0  0  0  0  0
  143.8800   72.7420  218.9760 C   0  0  0  0  0  0  0  0  0  0  0  0
  143.1240   73.8010  219.7200 C   0  0  0  0  0  0  0  0  0  0  0  0
  139.9750   73.1620  221.5720 N   0  0  0  0  0  0  0  0  0  0  0  0
  137.8770   70.4650  223.2580 C   0  0  0  0  0  0  0  0  0  0  0  0
  139.2030   70.3520  223.7740 N   0  0  0  0  0  0  0  0  0  0  0  0
  139.7160   71.5000  224.4150 C   0  0  0  0  0  0  0  0  0  0  0  0
  141.0230   71.1740  225.1040 C   0  0  0  0  0  0  0  0  0  0  0  0
  140.6810   70.1840  226.1610 C   0  0  0  0  0  0  0  0  0  0  0  0
  141.0580   70.2940  227.4680 C   0  0  0  0  0  0  0  0  0  0  0  0
  140.6800   69.3030  228.3610 C   0  0  0  0  0  0  0  0  0  0  0  0
  139.9240   68.2090  227.9290 C   0  0  0  0  0  0  0  0  0  0  0  0
  139.5340   68.0870  226.5990 C   0  0  0  0  0  0  0  0  0  0  0  0
  139.9240   69.0860  225.7310 C   0  0  0  0  0  0  0  0  0  0  0  0
  139.5740   69.0790  224.2860 C   0  0  0  0  0  0  0  0  0  0  0  0
  139.2680   71.4140  220.4860 H   0  0  0  0  0  0  0  0  0  0  0  0
  139.8800   70.4620  221.8310 H   0  0  0  0  0  0  0  0  0  0  0  0
  137.2129   69.8297  221.3455 H   0  0  0  0  0  0  0  0  0  0  0  0
  137.4988   72.3431  220.4885 H   0  0  0  0  0  0  0  0  0  0  0  0
  136.1318   71.9573  221.6164 H   0  0  0  0  0  0  0  0  0  0  0  0
  137.2930   73.1530  223.4040 H   0  0  0  0  0  0  0  0  0  0  0  0
  140.2767   77.2685  219.4512 H   0  0  0  0  0  0  0  0  0  0  0  0
  139.1506   78.5643  220.0753 H   0  0  0  0  0  0  0  0  0  0  0  0
  142.0795   78.5180  219.8353 H   0  0  0  0  0  0  0  0  0  0  0  0
  140.8760   79.8771  219.7739 H   0  0  0  0  0  0  0  0  0  0  0  0
  143.1551   80.5597  220.9833 H   0  0  0  0  0  0  0  0  0  0  0  0
  143.8726   81.3147  223.2303 H   0  0  0  0  0  0  0  0  0  0  0  0
  142.6459   80.5193  225.2288 H   0  0  0  0  0  0  0  0  0  0  0  0
  140.7171   78.9871  224.9824 H   0  0  0  0  0  0  0  0  0  0  0  0
  139.6948   77.2974  223.5741 H   0  0  0  0  0  0  0  0  0  0  0  0
  138.7438   78.5327  222.7448 H   0  0  0  0  0  0  0  0  0  0  0  0
  143.5710   71.9084  221.6295 H   0  0  0  0  0  0  0  0  0  0  0  0
  141.8716   71.6169  222.0186 H   0  0  0  0  0  0  0  0  0  0  0  0
  142.6221   69.9107  220.3386 H   0  0  0  0  0  0  0  0  0  0  0  0
  141.4842   70.9733  219.5245 H   0  0  0  0  0  0  0  0  0  0  0  0
  144.0476   69.3611  218.5246 H   0  0  0  0  0  0  0  0  0  0  0  0
  145.9047   70.0863  216.9985 H   0  0  0  0  0  0  0  0  0  0  0  0
  146.4369   72.4956  216.7692 H   0  0  0  0  0  0  0  0  0  0  0  0
  145.1447   74.2184  218.0327 H   0  0  0  0  0  0  0  0  0  0  0  0
  143.8390   74.4507  220.2460 H   0  0  0  0  0  0  0  0  0  0  0  0
  142.5335   74.3828  218.9969 H   0  0  0  0  0  0  0  0  0  0  0  0
  137.3928   71.3286  223.7373 H   0  0  0  0  0  0  0  0  0  0  0  0
  137.3697   69.5145  223.4796 H   0  0  0  0  0  0  0  0  0  0  0  0
  139.8864   72.2882  223.6669 H   0  0  0  0  0  0  0  0  0  0  0  0
  138.9908   71.8457  225.1664 H   0  0  0  0  0  0  0  0  0  0  0  0
  141.7369   70.7405  224.3882 H   0  0  0  0  0  0  0  0  0  0  0  0
  141.4966   72.0729  225.5256 H   0  0  0  0  0  0  0  0  0  0  0  0
  141.6523   71.1551  227.8076 H   0  0  0  0  0  0  0  0  0  0  0  0
  140.9771   69.3780  229.4174 H   0  0  0  0  0  0  0  0  0  0  0  0
  139.6330   67.4327  228.6519 H   0  0  0  0  0  0  0  0  0  0  0  0
  138.9388   67.2288  226.2535 H   0  0  0  0  0  0  0  0  0  0  0  0
  140.4466   68.7199  223.7207 H   0  0  0  0  0  0  0  0  0  0  0  0
  138.6975   68.4238  224.1744 H   0  0  0  0  0  0  0  0  0  0  0  0
  1  2  1  0
  2  3  1  0
  3  4  1  0
  4  5  1  0
  5  6  2  0
  6  7  1  0
  7  8  1  0
  8  9  1  0
  9 10  1  0
 10 11  1  0
 11 12  2  0
 12 13  1  0
 13 14  2  0
 14 15  1  0
 15 16  2  0
 16 17  1  0
  7 18  2  0
 18 19  1  0
 19 20  1  0
 20 21  1  0
 21 22  1  0
 22 23  1  0
 23 24  2  0
 24 25  1  0
 25 26  2  0
 26 27  1  0
 27 28  2  0
 28 29  1  0
 19 30  2  0
  2 31  1  0
 31 32  1  0
 32 33  1  0
 33 34  1  0
 34 35  1  0
 35 36  2  0
 36 37  1  0
 37 38  2  0
 38 39  1  0
 39 40  2  0
 40 41  1  0
 30  5  1  0
 41 32  1  0
 17  8  1  0
 29 20  1  0
 40 35  1  0
 16 11  1  0
 28 23  1  0
  1 42  1  0
  1 43  1  0
  2 44  1  6
  3 45  1  0
  3 46  1  0
  4 47  1  0
  9 48  1  0
  9 49  1  0
 10 50  1  0
 10 51  1  0
 12 52  1  0
 13 53  1  0
 14 54  1  0
 15 55  1  0
 17 56  1  0
 17 57  1  0
 21 58  1  0
 21 59  1  0
 22 60  1  0
 22 61  1  0
 24 62  1  0
 25 63  1  0
 26 64  1  0
 27 65  1  0
 29 66  1  0
 29 67  1  0
 31 68  1  0
 31 69  1  0
 33 70  1  0
 33 71  1  0
 34 72  1  0
 34 73  1  0
 36 74  1  0
 37 75  1  0
 38 76  1  0
 39 77  1  0
 41 78  1  0
 41 79  1  0
M  END
>  <smiles>  (2) 
NC(CNc1nc(N2CCc3ccccc3C2)nc(N2CCc3ccccc3C2)n1)CN1CCc2ccccc2C1

>  <score_type>  (2) 
oracle

>  <origin>  (2) 
autodockgpu

>  <m_score__min__energy>  (2) 
-11.49

>  <m_primary>  (2) 
energy

>  <rmsd>  (2) 
3.679875670366667

>  <m_score__min__rmsd>  (2) 
3.679875670366667

>  <meeko>  (2) 
{"free_energy": -9.35, "intermolecular_energy": -11.74, "internal_energy": -3.31, "cluster_size": 2, "cluster_id": 10, "rank_in_cluster": 1}

>  <energy>  (2) 
-11.45

>  <cluster_rmsd>  (2) 
0.9

>  <cluster>  (2) 
1

$$$$

     RDKit          3D

 79 85  0  0  1  0  0  0  0  0999 V2000
  139.8860   73.9120  222.3850 N   0  0  0  0  0  0  0  0  0  0  0  0
  140.0380   72.9430  221.3250 C   0  0  2  0  0  0  0  0  0  0  0  0
  138.8630   73.1500  220.3940 C   0  0  0  0  0  0  0  0  0  0  0  0
  137.5870   72.8660  221.0580 N   0  0  0  0  0  0  0  0  0  0  0  0
  137.1090   73.9160  221.9180 C   0  0  0  0  0  0  0  0  0  0  0  0
  137.3980   75.2120  221.6940 N   0  0  0  0  0  0  0  0  0  0  0  0
  136.9400   76.1880  222.5280 C   0  0  0  0  0  0  0  0  0  0  0  0
  137.2270   77.5630  222.3080 N   0  0  0  0  0  0  0  0  0  0  0  0
  138.5320   78.0110  221.9310 C   0  0  0  0  0  0  0  0  0  0  0  0
  139.0890   79.0490  222.8420 C   0  0  0  0  0  0  0  0  0  0  0  0
  138.0370   79.7430  223.6000 C   0  0  0  0  0  0  0  0  0  0  0  0
  138.4360   80.6870  224.5300 C   0  0  0  0  0  0  0  0  0  0  0  0
  137.5310   81.4040  225.3010 C   0  0  0  0  0  0  0  0  0  0  0  0
  136.1900   81.1690  225.1370 C   0  0  0  0  0  0  0  0  0  0  0  0
  135.7490   80.2410  224.2260 C   0  0  0  0  0  0  0  0  0  0  0  0
  136.6870   79.5370  223.4660 C   0  0  0  0  0  0  0  0  0  0  0  0
  136.1540   78.5270  222.4840 C   0  0  0  0  0  0  0  0  0  0  0  0
  136.1930   75.8530  223.5840 N   0  0  0  0  0  0  0  0  0  0  0  0
  135.8860   74.5670  223.8340 C   0  0  0  0  0  0  0  0  0  0  0  0
  135.0870   74.2710  224.9750 N   0  0  0  0  0  0  0  0  0  0  0  0
  134.7590   75.3510  225.8840 C   0  0  0  0  0  0  0  0  0  0  0  0
  133.2400   75.5260  225.7820 C   0  0  0  0  0  0  0  0  0  0  0  0
  132.6890   74.2370  226.3350 C   0  0  0  0  0  0  0  0  0  0  0  0
  131.5230   74.2940  227.0950 C   0  0  0  0  0  0  0  0  0  0  0  0
  131.0040   73.1050  227.6100 C   0  0  0  0  0  0  0  0  0  0  0  0
  131.6530   71.9060  227.3600 C   0  0  0  0  0  0  0  0  0  0  0  0
  132.8220   71.8590  226.5960 C   0  0  0  0  0  0  0  0  0  0  0  0
  133.3300   73.0390  226.0880 C   0  0  0  0  0  0  0  0  0  0  0  0
  134.5860   72.9620  225.2730 C   0  0  0  0  0  0  0  0  0  0  0  0
  136.3430   73.6100  223.0070 N   0  0  0  0  0  0  0  0  0  0  0  0
  139.9710   71.5250  221.8320 C   0  0  0  0  0  0  0  0  0  0  0  0
  139.3100   71.3840  223.0890 N   0  0  0  0  0  0  0  0  0  0  0  0
  138.2640   70.4370  223.1330 C   0  0  0  0  0  0  0  0  0  0  0  0
  137.8070   70.2280  224.5610 C   0  0  0  0  0  0  0  0  0  0  0  0
  138.9760   69.6410  225.2710 C   0  0  0  0  0  0  0  0  0  0  0  0
  138.9210   68.5140  226.0390 C   0  0  0  0  0  0  0  0  0  0  0  0
  140.0800   68.0650  226.6550 C   0  0  0  0  0  0  0  0  0  0  0  0
  141.2840   68.7560  226.4900 C   0  0  0  0  0  0  0  0  0  0  0  0
  141.3520   69.9050  225.7090 C   0  0  0  0  0  0  0  0  0  0  0  0
  140.1850   70.3300  225.1080 C   0  0  0  0  0  0  0  0  0  0  0  0
  140.1180   71.5410  224.2470 C   0  0  0  0  0  0  0  0  0  0  0  0
  139.4850   74.8030  222.0840 H   0  0  0  0  0  0  0  0  0  0  0  0
  139.5080   73.4960  223.2590 H   0  0  0  0  0  0  0  0  0  0  0  0
  141.0171   73.0835  220.8438 H   0  0  0  0  0  0  0  0  0  0  0  0
  138.8608   74.1948  220.0500 H   0  0  0  0  0  0  0  0  0  0  0  0
  138.9704   72.4559  219.5475 H   0  0  0  0  0  0  0  0  0  0  0  0
  137.0670   71.9740  220.9180 H   0  0  0  0  0  0  0  0  0  0  0  0
  139.2112   77.1457  221.9322 H   0  0  0  0  0  0  0  0  0  0  0  0
  138.4421   78.4688  220.9348 H   0  0  0  0  0  0  0  0  0  0  0  0
  139.7771   78.5659  223.5513 H   0  0  0  0  0  0  0  0  0  0  0  0
  139.6105   79.7959  222.2253 H   0  0  0  0  0  0  0  0  0  0  0  0
  139.5113   80.8765  224.6634 H   0  0  0  0  0  0  0  0  0  0  0  0
  137.8836   82.1477  226.0308 H   0  0  0  0  0  0  0  0  0  0  0  0
  135.4608   81.7291  225.7408 H   0  0  0  0  0  0  0  0  0  0  0  0
  134.6727   80.0544  224.0963 H   0  0  0  0  0  0  0  0  0  0  0  0
  135.2558   78.0352  222.8858 H   0  0  0  0  0  0  0  0  0  0  0  0
  135.8611   78.9942  221.5322 H   0  0  0  0  0  0  0  0  0  0  0  0
  135.0474   75.0885  226.9126 H   0  0  0  0  0  0  0  0  0  0  0  0
  135.2943   76.2770  225.6271 H   0  0  0  0  0  0  0  0  0  0  0  0
  132.9038   76.3846  226.3818 H   0  0  0  0  0  0  0  0  0  0  0  0
  132.9039   75.7246  224.7536 H   0  0  0  0  0  0  0  0  0  0  0  0
  131.0223   75.2548  227.2851 H   0  0  0  0  0  0  0  0  0  0  0  0
  130.0834   73.1194  228.2120 H   0  0  0  0  0  0  0  0  0  0  0  0
  131.2397   70.9732  227.7711 H   0  0  0  0  0  0  0  0  0  0  0  0
  133.3278   70.9014  226.4029 H   0  0  0  0  0  0  0  0  0  0  0  0
  135.3480   72.4055  225.8385 H   0  0  0  0  0  0  0  0  0  0  0  0
  134.3581   72.4506  224.3262 H   0  0  0  0  0  0  0  0  0  0  0  0
  139.4327   70.9181  221.0891 H   0  0  0  0  0  0  0  0  0  0  0  0
  141.0091   71.1933  221.9817 H   0  0  0  0  0  0  0  0  0  0  0  0
  137.4187   70.8012  222.5307 H   0  0  0  0  0  0  0  0  0  0  0  0
  138.6286   69.4808  222.7295 H   0  0  0  0  0  0  0  0  0  0  0  0
  137.5219   71.1873  225.0177 H   0  0  0  0  0  0  0  0  0  0  0  0
  136.9253   69.5725  224.6154 H   0  0  0  0  0  0  0  0  0  0  0  0
  137.9732   67.9707  226.1674 H   0  0  0  0  0  0  0  0  0  0  0  0
  140.0515   67.1587  227.2778 H   0  0  0  0  0  0  0  0  0  0  0  0
  142.1929   68.3848  226.9862 H   0  0  0  0  0  0  0  0  0  0  0  0
  142.2970   70.4521  225.5760 H   0  0  0  0  0  0  0  0  0  0  0  0
  139.7079   72.3681  224.8451 H   0  0  0  0  0  0  0  0  0  0  0  0
  141.1416   71.7383  223.8959 H   0  0  0  0  0  0  0  0  0  0  0  0
  1  2  1  0
  2  3  1  0
  3  4  1  0
  4  5  1  0
  5  6  2  0
  6  7  1  0
  7  8  1  0
  8  9  1  0
  9 10  1  0
 10 11  1  0
 11 12  2  0
 12 13  1  0
 13 14  2  0
 14 15  1  0
 15 16  2  0
 16 17  1  0
  7 18  2  0
 18 19  1  0
 19 20  1  0
 20 21  1  0
 21 22  1  0
 22 23  1  0
 23 24  2  0
 24 25  1  0
 25 26  2  0
 26 27  1  0
 27 28  2  0
 28 29  1  0
 19 30  2  0
  2 31  1  0
 31 32  1  0
 32 33  1  0
 33 34  1  0
 34 35  1  0
 35 36  2  0
 36 37  1  0
 37 38  2  0
 38 39  1  0
 39 40  2  0
 40 41  1  0
 30  5  1  0
 41 32  1  0
 17  8  1  0
 29 20  1  0
 40 35  1  0
 16 11  1  0
 28 23  1  0
  1 42  1  0
  1 43  1  0
  2 44  1  6
  3 45  1  0
  3 46  1  0
  4 47  1  0
  9 48  1  0
  9 49  1  0
 10 50  1  0
 10 51  1  0
 12 52  1  0
 13 53  1  0
 14 54  1  0
 15 55  1  0
 17 56  1  0
 17 57  1  0
 21 58  1  0
 21 59  1  0
 22 60  1  0
 22 61  1  0
 24 62  1  0
 25 63  1  0
 26 64  1  0
 27 65  1  0
 29 66  1  0
 29 67  1  0
 31 68  1  0
 31 69  1  0
 33 70  1  0
 33 71  1  0
 34 72  1  0
 34 73  1  0
 36 74  1  0
 37 75  1  0
 38 76  1  0
 39 77  1  0
 41 78  1  0
 41 79  1  0
M  END
>  <smiles>  (3) 
NC(CNc1nc(N2CCc3ccccc3C2)nc(N2CCc3ccccc3C2)n1)CN1CCc2ccccc2C1

>  <score_type>  (3) 
oracle

>  <origin>  (3) 
autodockgpu

>  <m_score__min__energy>  (3) 
-11.49

>  <m_primary>  (3) 
energy

>  <rmsd>  (3) 
3.4641602081282032

>  <m_score__min__rmsd>  (3) 
3.4641602081282032

>  <meeko>  (3) 
{"free_energy": -9.45, "intermolecular_energy": -11.84, "internal_energy": -3.19, "cluster_size": 2, "cluster_id": 6, "rank_in_cluster": 2}

>  <energy>  (3) 
-11.21

>  <cluster_rmsd>  (3) 
1.11

>  <cluster>  (3) 
1

$$$$

     RDKit          3D

 79 85  0  0  1  0  0  0  0  0999 V2000
  137.7460   76.2620  220.5760 N   0  0  0  0  0  0  0  0  0  0  0  0
  138.7370   76.9450  221.3720 C   0  0  2  0  0  0  0  0  0  0  0  0
  139.4970   75.8680  222.1140 C   0  0  0  0  0  0  0  0  0  0  0  0
  140.5330   75.2570  221.2760 N   0  0  0  0  0  0  0  0  0  0  0  0
  140.6930   73.8370  221.4560 C   0  0  0  0  0  0  0  0  0  0  0  0
  141.2040   73.0470  220.4940 N   0  0  0  0  0  0  0  0  0  0  0  0
  141.3390   71.7040  220.6860 C   0  0  0  0  0  0  0  0  0  0  0  0
  141.8830   70.8510  219.6870 N   0  0  0  0  0  0  0  0  0  0  0  0
  141.2620   69.6120  219.3320 C   0  0  0  0  0  0  0  0  0  0  0  0
  142.1730   68.4400  219.4420 C   0  0  0  0  0  0  0  0  0  0  0  0
  143.5900   68.8320  219.3920 C   0  0  0  0  0  0  0  0  0  0  0  0
  144.5360   67.8350  219.5490 C   0  0  0  0  0  0  0  0  0  0  0  0
  145.9000   68.0880  219.5190 C   0  0  0  0  0  0  0  0  0  0  0  0
  146.3290   69.3760  219.3250 C   0  0  0  0  0  0  0  0  0  0  0  0
  145.4260   70.3980  219.1640 C   0  0  0  0  0  0  0  0  0  0  0  0
  144.0590   70.1070  219.2010 C   0  0  0  0  0  0  0  0  0  0  0  0
  143.1080   71.2620  219.0250 C   0  0  0  0  0  0  0  0  0  0  0  0
  140.9570   71.1650  221.8470 N   0  0  0  0  0  0  0  0  0  0  0  0
  140.4420   71.9280  222.8280 C   0  0  0  0  0  0  0  0  0  0  0  0
  140.0520   71.2960  224.0440 N   0  0  0  0  0  0  0  0  0  0  0  0
  138.9100   70.4040  224.0190 C   0  0  0  0  0  0  0  0  0  0  0  0
  139.4700   69.0130  224.3370 C   0  0  0  0  0  0  0  0  0  0  0  0
  139.9640   69.1370  225.7550 C   0  0  0  0  0  0  0  0  0  0  0  0
  139.8080   68.0420  226.6020 C   0  0  0  0  0  0  0  0  0  0  0  0
  140.2630   68.1460  227.9180 C   0  0  0  0  0  0  0  0  0  0  0  0
  140.8540   69.3240  228.3490 C   0  0  0  0  0  0  0  0  0  0  0  0
  141.0060   70.4160  227.4920 C   0  0  0  0  0  0  0  0  0  0  0  0
  140.5550   70.3070  226.1910 C   0  0  0  0  0  0  0  0  0  0  0  0
  140.7290   71.4930  225.2920 C   0  0  0  0  0  0  0  0  0  0  0  0
  140.3120   73.2510  222.6310 N   0  0  0  0  0  0  0  0  0  0  0  0
  138.1170   77.8540  222.4020 C   0  0  0  0  0  0  0  0  0  0  0  0
  138.6310   79.1860  222.3920 N   0  0  0  0  0  0  0  0  0  0  0  0
  138.5450   79.8890  223.6140 C   0  0  0  0  0  0  0  0  0  0  0  0
  139.3210   81.1850  223.5260 C   0  0  0  0  0  0  0  0  0  0  0  0
  140.7420   80.7880  223.3340 C   0  0  0  0  0  0  0  0  0  0  0  0
  141.7800   81.2640  224.0810 C   0  0  0  0  0  0  0  0  0  0  0  0
  143.0640   80.8210  223.8050 C   0  0  0  0  0  0  0  0  0  0  0  0
  143.2910   79.8990  222.7780 C   0  0  0  0  0  0  0  0  0  0  0  0
  142.2400   79.4070  222.0100 C   0  0  0  0  0  0  0  0  0  0  0  0
  140.9730   79.8650  222.3060 C   0  0  0  0  0  0  0  0  0  0  0  0
  139.7630   79.4190  221.5650 C   0  0  0  0  0  0  0  0  0  0  0  0
  136.8070   76.6610  220.6410 H   0  0  0  0  0  0  0  0  0  0  0  0
  138.0890   76.0190  219.6250 H   0  0  0  0  0  0  0  0  0  0  0  0
  139.3672   77.5609  220.7136 H   0  0  0  0  0  0  0  0  0  0  0  0
  139.9728   76.3140  222.9998 H   0  0  0  0  0  0  0  0  0  0  0  0
  138.7829   75.0824  222.4020 H   0  0  0  0  0  0  0  0  0  0  0  0
  141.1080   75.8050  220.6030 H   0  0  0  0  0  0  0  0  0  0  0  0
  140.4027   69.4492  219.9991 H   0  0  0  0  0  0  0  0  0  0  0  0
  140.9610   69.6908  218.2769 H   0  0  0  0  0  0  0  0  0  0  0  0
  141.9800   67.9295  220.3971 H   0  0  0  0  0  0  0  0  0  0  0  0
  141.9754   67.7768  218.5870 H   0  0  0  0  0  0  0  0  0  0  0  0
  144.1935   66.8012  219.7037 H   0  0  0  0  0  0  0  0  0  0  0  0
  146.6241   67.2702  219.6485 H   0  0  0  0  0  0  0  0  0  0  0  0
  147.4071   69.5926  219.2981 H   0  0  0  0  0  0  0  0  0  0  0  0
  145.7730   71.4302  219.0083 H   0  0  0  0  0  0  0  0  0  0  0  0
  143.5137   72.1706  219.4939 H   0  0  0  0  0  0  0  0  0  0  0  0
  142.9420   71.4997  217.9639 H   0  0  0  0  0  0  0  0  0  0  0  0
  138.1714   70.7036  224.7771 H   0  0  0  0  0  0  0  0  0  0  0  0
  138.3970   70.4248  223.0461 H   0  0  0  0  0  0  0  0  0  0  0  0
  138.6833   68.2478  224.2621 H   0  0  0  0  0  0  0  0  0  0  0  0
  140.2608   68.7039  223.6377 H   0  0  0  0  0  0  0  0  0  0  0  0
  139.3366   67.1156  226.2419 H   0  0  0  0  0  0  0  0  0  0  0  0
  140.1531   67.2976  228.6094 H   0  0  0  0  0  0  0  0  0  0  0  0
  141.2103   69.3998  229.3869 H   0  0  0  0  0  0  0  0  0  0  0  0
  141.4759   71.3453  227.8463 H   0  0  0  0  0  0  0  0  0  0  0  0
  140.3166   72.3839  225.7882 H   0  0  0  0  0  0  0  0  0  0  0  0
  141.8023   71.6256  225.0911 H   0  0  0  0  0  0  0  0  0  0  0  0
  137.0342   77.9006  222.2139 H   0  0  0  0  0  0  0  0  0  0  0  0
  138.3605   77.4285  223.3867 H   0  0  0  0  0  0  0  0  0  0  0  0
  137.4900   80.1111  223.8321 H   0  0  0  0  0  0  0  0  0  0  0  0
  138.9714   79.2687  224.4161 H   0  0  0  0  0  0  0  0  0  0  0  0
  138.9712   81.7848  222.6729 H   0  0  0  0  0  0  0  0  0  0  0  0
  139.1886   81.8008  224.4278 H   0  0  0  0  0  0  0  0  0  0  0  0
  141.6005   81.9879  224.8895 H   0  0  0  0  0  0  0  0  0  0  0  0
  143.9107   81.1973  224.3979 H   0  0  0  0  0  0  0  0  0  0  0  0
  144.3166   79.5574  222.5742 H   0  0  0  0  0  0  0  0  0  0  0  0
  142.4125   78.6827  221.2003 H   0  0  0  0  0  0  0  0  0  0  0  0
  139.5011   80.1955  220.8312 H   0  0  0  0  0  0  0  0  0  0  0  0
  140.0154   78.4578  221.0934 H   0  0  0  0  0  0  0  0  0  0  0  0
  1  2  1  0
  2  3  1  0
  3  4  1  0
  4  5  1  0
  5  6  2  0
  6  7  1  0
  7  8  1  0
  8  9  1  0
  9 10  1  0
 10 11  1  0
 11 12  2  0
 12 13  1  0
 13 14  2  0
 14 15  1  0
 15 16  2  0
 16 17  1  0
  7 18  2  0
 18 19  1  0
 19 20  1  0
 20 21  1  0
 21 22  1  0
 22 23  1  0
 23 24  2  0
 24 25  1  0
 25 26  2  0
 26 27  1  0
 27 28  2  0
 28 29  1  0
 19 30  2  0
  2 31  1  0
 31 32  1  0
 32 33  1  0
 33 34  1  0
 34 35  1  0
 35 36  2  0
 36 37  1  0
 37 38  2  0
 38 39  1  0
 39 40  2  0
 40 41  1  0
 30  5  1  0
 41 32  1  0
 17  8  1  0
 29 20  1  0
 40 35  1  0
 16 11  1  0
 28 23  1  0
  1 42  1  0
  1 43  1  0
  2 44  1  6
  3 45  1  0
  3 46  1  0
  4 47  1  0
  9 48  1  0
  9 49  1  0
 10 50  1  0
 10 51  1  0
 12 52  1  0
 13 53  1  0
 14 54  1  0
 15 55  1  0
 17 56  1  0
 17 57  1  0
 21 58  1  0
 21 59  1  0
 22 60  1  0
 22 61  1  0
 24 62  1  0
 25 63  1  0
 26 64  1  0
 27 65  1  0
 29 66  1  0
 29 67  1  0
 31 68  1  0
 31 69  1  0
 33 70  1  0
 33 71  1  0
 34 72  1  0
 34 73  1  0
 36 74  1  0
 37 75  1  0
 38 76  1  0
 39 77  1  0
 41 78  1  0
 41 79  1  0
M  END
>  <smiles>  (4) 
NC(CNc1nc(N2CCc3ccccc3C2)nc(N2CCc3ccccc3C2)n1)CN1CCc2ccccc2C1

>  <score_type>  (4) 
oracle

>  <origin>  (4) 
autodockgpu

>  <m_score__min__energy>  (4) 
-11.49

>  <m_primary>  (4) 
energy

>  <rmsd>  (4) 
9.972837071822687

>  <m_score__min__rmsd>  (4) 
9.972837071822687

>  <meeko>  (4) 
{"free_energy": -10.59, "intermolecular_energy": -12.98, "internal_energy": -1.35, "cluster_size": 11, "cluster_id": 1, "rank_in_cluster": 6}

>  <energy>  (4) 
-11.16

>  <cluster_rmsd>  (4) 
0.7

>  <cluster>  (4) 
1

$$$$

     RDKit          3D

 79 85  0  0  1  0  0  0  0  0999 V2000
  139.9660   74.1940  222.0430 N   0  0  0  0  0  0  0  0  0  0  0  0
  139.7270   75.0740  220.9240 C   0  0  2  0  0  0  0  0  0  0  0  0
  138.2250   75.2250  220.8200 C   0  0  0  0  0  0  0  0  0  0  0  0
  137.5680   73.9450  220.5400 N   0  0  0  0  0  0  0  0  0  0  0  0
  137.3330   73.1230  221.6980 C   0  0  0  0  0  0  0  0  0  0  0  0
  138.2640   72.2770  222.1760 N   0  0  0  0  0  0  0  0  0  0  0  0
  138.0150   71.5030  223.2710 C   0  0  0  0  0  0  0  0  0  0  0  0
  138.9860   70.6070  223.7970 N   0  0  0  0  0  0  0  0  0  0  0  0
  138.7990   69.1900  223.7720 C   0  0  0  0  0  0  0  0  0  0  0  0
  138.9110   68.5530  225.1130 C   0  0  0  0  0  0  0  0  0  0  0  0
  139.6660   69.3860  226.0610 C   0  0  0  0  0  0  0  0  0  0  0  0
  139.7830   68.9300  227.3610 C   0  0  0  0  0  0  0  0  0  0  0  0
  140.4730   69.6320  228.3400 C   0  0  0  0  0  0  0  0  0  0  0  0
  141.0610   70.8250  228.0070 C   0  0  0  0  0  0  0  0  0  0  0  0
  140.9700   71.3180  226.7280 C   0  0  0  0  0  0  0  0  0  0  0  0
  140.2680   70.5840  225.7670 C   0  0  0  0  0  0  0  0  0  0  0  0
  140.1920   71.1680  224.3810 C   0  0  0  0  0  0  0  0  0  0  0  0
  136.8270   71.5850  223.8760 N   0  0  0  0  0  0  0  0  0  0  0  0
  135.8760   72.4210  223.4230 C   0  0  0  0  0  0  0  0  0  0  0  0
  134.6290   72.4640  224.1100 N   0  0  0  0  0  0  0  0  0  0  0  0
  133.9080   71.2220  224.3060 C   0  0  0  0  0  0  0  0  0  0  0  0
  133.8960   70.9910  225.8210 C   0  0  0  0  0  0  0  0  0  0  0  0
  133.0650   72.1290  226.3550 C   0  0  0  0  0  0  0  0  0  0  0  0
  132.2210   71.8750  227.4340 C   0  0  0  0  0  0  0  0  0  0  0  0
  131.4480   72.9220  227.9370 C   0  0  0  0  0  0  0  0  0  0  0  0
  131.5330   74.1790  227.3580 C   0  0  0  0  0  0  0  0  0  0  0  0
  132.3830   74.4230  226.2760 C   0  0  0  0  0  0  0  0  0  0  0  0
  133.1460   73.3830  225.7830 C   0  0  0  0  0  0  0  0  0  0  0  0
  134.0480   73.6700  224.6220 C   0  0  0  0  0  0  0  0  0  0  0  0
  136.1290   73.1800  222.3430 N   0  0  0  0  0  0  0  0  0  0  0  0
  140.2140   74.4900  219.6220 C   0  0  0  0  0  0  0  0  0  0  0  0
  141.5320   74.8970  219.2550 N   0  0  0  0  0  0  0  0  0  0  0  0
  142.1460   75.8400  220.1070 C   0  0  0  0  0  0  0  0  0  0  0  0
  143.6030   76.0110  219.7350 C   0  0  0  0  0  0  0  0  0  0  0  0
  144.2380   74.6900  219.9930 C   0  0  0  0  0  0  0  0  0  0  0  0
  145.3770   74.5150  220.7250 C   0  0  0  0  0  0  0  0  0  0  0  0
  145.8750   73.2330  220.8940 C   0  0  0  0  0  0  0  0  0  0  0  0
  145.2200   72.1360  220.3240 C   0  0  0  0  0  0  0  0  0  0  0  0
  144.0580   72.3020  219.5770 C   0  0  0  0  0  0  0  0  0  0  0  0
  143.5850   73.5890  219.4240 C   0  0  0  0  0  0  0  0  0  0  0  0
  142.3540   73.9070  218.6520 C   0  0  0  0  0  0  0  0  0  0  0  0
  139.2280   74.2040  222.7490 H   0  0  0  0  0  0  0  0  0  0  0  0
  140.3290   73.2640  221.7540 H   0  0  0  0  0  0  0  0  0  0  0  0
  140.2597   76.0220  221.0899 H   0  0  0  0  0  0  0  0  0  0  0  0
  137.8403   75.6223  221.7709 H   0  0  0  0  0  0  0  0  0  0  0  0
  138.0068   75.9108  219.9881 H   0  0  0  0  0  0  0  0  0  0  0  0
  137.2920   73.6530  219.5790 H   0  0  0  0  0  0  0  0  0  0  0  0
  137.7980   68.9779  223.3682 H   0  0  0  0  0  0  0  0  0  0  0  0
  139.5991   68.7688  223.1456 H   0  0  0  0  0  0  0  0  0  0  0  0
  137.8996   68.3887  225.5130 H   0  0  0  0  0  0  0  0  0  0  0  0
  139.4522   67.6030  224.9921 H   0  0  0  0  0  0  0  0  0  0  0  0
  139.3109   67.9736  227.6301 H   0  0  0  0  0  0  0  0  0  0  0  0
  140.5467   69.2382  229.3644 H   0  0  0  0  0  0  0  0  0  0  0  0
  141.6111   71.3931  228.7716 H   0  0  0  0  0  0  0  0  0  0  0  0
  141.4423   72.2757  226.4639 H   0  0  0  0  0  0  0  0  0  0  0  0
  140.1238   72.2649  224.4278 H   0  0  0  0  0  0  0  0  0  0  0  0
  141.0859   70.9310  223.7854 H   0  0  0  0  0  0  0  0  0  0  0  0
  132.8808   71.3089  223.9221 H   0  0  0  0  0  0  0  0  0  0  0  0
  134.3808   70.3863  223.7692 H   0  0  0  0  0  0  0  0  0  0  0  0
  133.4359   70.0222  226.0655 H   0  0  0  0  0  0  0  0  0  0  0  0
  134.9069   70.9645  226.2539 H   0  0  0  0  0  0  0  0  0  0  0  0
  132.1653   70.8709  227.8797 H   0  0  0  0  0  0  0  0  0  0  0  0
  130.7740   72.7509  228.7893 H   0  0  0  0  0  0  0  0  0  0  0  0
  130.9196   74.9998  227.7580 H   0  0  0  0  0  0  0  0  0  0  0  0
  132.4431   75.4247  225.8255 H   0  0  0  0  0  0  0  0  0  0  0  0
  133.4648   74.1544  223.8250 H   0  0  0  0  0  0  0  0  0  0  0  0
  134.8584   74.3306  224.9639 H   0  0  0  0  0  0  0  0  0  0  0  0
  140.2035   73.3936  219.7103 H   0  0  0  0  0  0  0  0  0  0  0  0
  139.5385   74.8607  218.8369 H   0  0  0  0  0  0  0  0  0  0  0  0
  141.6305   76.8069  220.0100 H   0  0  0  0  0  0  0  0  0  0  0  0
  142.0806   75.4815  221.1449 H   0  0  0  0  0  0  0  0  0  0  0  0
  143.6992   76.2828  218.6735 H   0  0  0  0  0  0  0  0  0  0  0  0
  144.0807   76.8134  220.3163 H   0  0  0  0  0  0  0  0  0  0  0  0
  145.8912   75.3779  221.1735 H   0  0  0  0  0  0  0  0  0  0  0  0
  146.7922   73.0766  221.4807 H   0  0  0  0  0  0  0  0  0  0  0  0
  145.6304   71.1257  220.4688 H   0  0  0  0  0  0  0  0  0  0  0  0
  143.5382   71.4432  219.1273 H   0  0  0  0  0  0  0  0  0  0  0  0
  142.6535   74.2659  217.6563 H   0  0  0  0  0  0  0  0  0  0  0  0
  141.7587   72.9831  218.6084 H   0  0  0  0  0  0  0  0  0  0  0  0
  1  2  1  0
  2  3  1  0
  3  4  1  0
  4  5  1  0
  5  6  2  0
  6  7  1  0
  7  8  1  0
  8  9  1  0
  9 10  1  0
 10 11  1  0
 11 12  2  0
 12 13  1  0
 13 14  2  0
 14 15  1  0
 15 16  2  0
 16 17  1  0
  7 18  2  0
 18 19  1  0
 19 20  1  0
 20 21  1  0
 21 22  1  0
 22 23  1  0
 23 24  2  0
 24 25  1  0
 25 26  2  0
 26 27  1  0
 27 28  2  0
 28 29  1  0
 19 30  2  0
  2 31  1  0
 31 32  1  0
 32 33  1  0
 33 34  1  0
 34 35  1  0
 35 36  2  0
 36 37  1  0
 37 38  2  0
 38 39  1  0
 39 40  2  0
 40 41  1  0
 30  5  1  0
 41 32  1  0
 17  8  1  0
 29 20  1  0
 40 35  1  0
 16 11  1  0
 28 23  1  0
  1 42  1  0
  1 43  1  0
  2 44  1  1
  3 45  1  0
  3 46  1  0
  4 47  1  0
  9 48  1  0
  9 49  1  0
 10 50  1  0
 10 51  1  0
 12 52  1  0
 13 53  1  0
 14 54  1  0
 15 55  1  0
 17 56  1  0
 17 57  1  0
 21 58  1  0
 21 59  1  0
 22 60  1  0
 22 61  1  0
 24 62  1  0
 25 63  1  0
 26 64  1  0
 27 65  1  0
 29 66  1  0
 29 67  1  0
 31 68  1  0
 31 69  1  0
 33 70  1  0
 33 71  1  0
 34 72  1  0
 34 73  1  0
 36 74  1  0
 37 75  1  0
 38 76  1  0
 39 77  1  0
 41 78  1  0
 41 79  1  0
M  END
>  <smiles>  (5) 
NC(CNc1nc(N2CCc3ccccc3C2)nc(N2CCc3ccccc3C2)n1)CN1CCc2ccccc2C1

>  <score_type>  (5) 
oracle

>  <origin>  (5) 
autodockgpu

>  <m_score__min__energy>  (5) 
-11.49

>  <m_primary>  (5) 
energy

>  <rmsd>  (5) 
7.505024334391659

>  <m_score__min__rmsd>  (5) 
7.505024334391659

>  <meeko>  (5) 
{"free_energy": -10.32, "intermolecular_energy": -12.7, "internal_energy": -2.37, "cluster_size": 1, "cluster_id": 4, "rank_in_cluster": 1}

>  <energy>  (5) 
-11.15

>  <cluster_rmsd>  (5) 
1.15

>  <cluster>  (5) 
1

$$$$

     RDKit          3D

 79 85  0  0  1  0  0  0  0  0999 V2000
  140.1300   77.7860  222.1470 N   0  0  0  0  0  0  0  0  0  0  0  0
  139.3430   77.3970  221.0010 C   0  0  2  0  0  0  0  0  0  0  0  0
  139.4570   75.8910  220.9030 C   0  0  0  0  0  0  0  0  0  0  0  0
  140.7350   75.4070  221.4350 N   0  0  0  0  0  0  0  0  0  0  0  0
  140.8290   73.9770  221.5670 C   0  0  0  0  0  0  0  0  0  0  0  0
  141.3200   73.1980  220.5850 N   0  0  0  0  0  0  0  0  0  0  0  0
  141.3910   71.8440  220.7310 C   0  0  0  0  0  0  0  0  0  0  0  0
  141.9120   71.0030  219.7100 N   0  0  0  0  0  0  0  0  0  0  0  0
  141.2570   69.7920  219.3220 C   0  0  0  0  0  0  0  0  0  0  0  0
  142.1330   68.5920  219.4020 C   0  0  0  0  0  0  0  0  0  0  0  0
  143.5610   68.9440  219.3640 C   0  0  0  0  0  0  0  0  0  0  0  0
  144.4770   67.9160  219.4950 C   0  0  0  0  0  0  0  0  0  0  0  0
  145.8480   68.1310  219.4730 C   0  0  0  0  0  0  0  0  0  0  0  0
  146.3150   69.4110  219.3140 C   0  0  0  0  0  0  0  0  0  0  0  0
  145.4420   70.4620  219.1800 C   0  0  0  0  0  0  0  0  0  0  0  0
  144.0670   70.2090  219.2070 C   0  0  0  0  0  0  0  0  0  0  0  0
  143.1500   71.3960  219.0600 C   0  0  0  0  0  0  0  0  0  0  0  0
  140.9670   71.2840  221.8670 N   0  0  0  0  0  0  0  0  0  0  0  0
  140.4720   72.0350  222.8670 C   0  0  0  0  0  0  0  0  0  0  0  0
  140.0350   71.3800  224.0540 N   0  0  0  0  0  0  0  0  0  0  0  0
  138.8840   70.5030  223.9710 C   0  0  0  0  0  0  0  0  0  0  0  0
  139.4160   69.0980  224.2730 C   0  0  0  0  0  0  0  0  0  0  0  0
  139.8660   69.1820  225.7090 C   0  0  0  0  0  0  0  0  0  0  0  0
  139.6680   68.0700  226.5240 C   0  0  0  0  0  0  0  0  0  0  0  0
  140.0820   68.1360  227.8560 C   0  0  0  0  0  0  0  0  0  0  0  0
  140.6740   69.2950  228.3340 C   0  0  0  0  0  0  0  0  0  0  0  0
  140.8670   70.4060  227.5080 C   0  0  0  0  0  0  0  0  0  0  0  0
  140.4560   70.3330  226.1910 C   0  0  0  0  0  0  0  0  0  0  0  0
  140.6740   71.5370  225.3270 C   0  0  0  0  0  0  0  0  0  0  0  0
  140.4040   73.3690  222.7150 N   0  0  0  0  0  0  0  0  0  0  0  0
  139.8770   77.9760  219.7160 C   0  0  0  0  0  0  0  0  0  0  0  0
  140.5280   79.2380  219.8700 N   0  0  0  0  0  0  0  0  0  0  0  0
  139.6970   80.3200  220.2340 C   0  0  0  0  0  0  0  0  0  0  0  0
  140.5380   81.5300  220.5800 C   0  0  0  0  0  0  0  0  0  0  0  0
  141.3240   81.1400  221.7820 C   0  0  0  0  0  0  0  0  0  0  0  0
  141.3990   81.8830  222.9250 C   0  0  0  0  0  0  0  0  0  0  0  0
  142.1670   81.4150  223.9800 C   0  0  0  0  0  0  0  0  0  0  0  0
  142.8530   80.2020  223.8740 C   0  0  0  0  0  0  0  0  0  0  0  0
  142.7830   79.4360  222.7140 C   0  0  0  0  0  0  0  0  0  0  0  0
  142.0120   79.9250  221.6800 C   0  0  0  0  0  0  0  0  0  0  0  0
  141.8500   79.2060  220.3880 C   0  0  0  0  0  0  0  0  0  0  0  0
  140.9630   77.2130  222.2970 H   0  0  0  0  0  0  0  0  0  0  0  0
  140.2450   78.8150  222.2260 H   0  0  0  0  0  0  0  0  0  0  0  0
  138.3122   77.7581  221.1316 H   0  0  0  0  0  0  0  0  0  0  0  0
  138.6366   75.4336  221.4755 H   0  0  0  0  0  0  0  0  0  0  0  0
  139.4006   75.6117  219.8405 H   0  0  0  0  0  0  0  0  0  0  0  0
  141.5140   76.0480  221.6960 H   0  0  0  0  0  0  0  0  0  0  0  0
  140.3921   69.6365  219.9836 H   0  0  0  0  0  0  0  0  0  0  0  0
  140.9610   69.9071  218.2688 H   0  0  0  0  0  0  0  0  0  0  0  0
  141.9234   68.0623  220.3430 H   0  0  0  0  0  0  0  0  0  0  0  0
  141.9178   67.9575  218.5295 H   0  0  0  0  0  0  0  0  0  0  0  0
  144.1047   66.8887  219.6214 H   0  0  0  0  0  0  0  0  0  0  0  0
  146.5481   67.2895  219.5812 H   0  0  0  0  0  0  0  0  0  0  0  0
  147.3990   69.5970  219.2937 H   0  0  0  0  0  0  0  0  0  0  0  0
  145.8185   71.4878  219.0533 H   0  0  0  0  0  0  0  0  0  0  0  0
  143.5809   72.2799  219.5530 H   0  0  0  0  0  0  0  0  0  0  0  0
  142.9930   71.6664  218.0054 H   0  0  0  0  0  0  0  0  0  0  0  0
  138.1249   70.7940  224.7120 H   0  0  0  0  0  0  0  0  0  0  0  0
  138.4035   70.5533  222.9828 H   0  0  0  0  0  0  0  0  0  0  0  0
  138.6226   68.3453  224.1548 H   0  0  0  0  0  0  0  0  0  0  0  0
  140.2249   68.7951  223.5919 H   0  0  0  0  0  0  0  0  0  0  0  0
  139.1957   67.1594  226.1269 H   0  0  0  0  0  0  0  0  0  0  0  0
  139.9392   67.2728  228.5227 H   0  0  0  0  0  0  0  0  0  0  0  0
  140.9982   69.3412  229.3841 H   0  0  0  0  0  0  0  0  0  0  0  0
  141.3369   71.3205  227.8989 H   0  0  0  0  0  0  0  0  0  0  0  0
  140.2578   72.4215  225.8314 H   0  0  0  0  0  0  0  0  0  0  0  0
  141.7549   71.6588  225.1631 H   0  0  0  0  0  0  0  0  0  0  0  0
  140.5999   77.2642  219.2908 H   0  0  0  0  0  0  0  0  0  0  0  0
  139.0101   78.1447  219.0603 H   0  0  0  0  0  0  0  0  0  0  0  0
  139.0328   80.5674  219.3928 H   0  0  0  0  0  0  0  0  0  0  0  0
  139.0993   80.0346  221.1122 H   0  0  0  0  0  0  0  0  0  0  0  0
  141.2103   81.7815  219.7465 H   0  0  0  0  0  0  0  0  0  0  0  0
  139.9162   82.4172  220.7703 H   0  0  0  0  0  0  0  0  0  0  0  0
  140.8587   82.8376  223.0074 H   0  0  0  0  0  0  0  0  0  0  0  0
  142.2370   82.0026  224.9072 H   0  0  0  0  0  0  0  0  0  0  0  0
  143.4581   79.8469  224.7212 H   0  0  0  0  0  0  0  0  0  0  0  0
  143.3203   78.4802  222.6255 H   0  0  0  0  0  0  0  0  0  0  0  0
  142.5221   79.6670  219.6492 H   0  0  0  0  0  0  0  0  0  0  0  0
  142.0909   78.1499  220.5796 H   0  0  0  0  0  0  0  0  0  0  0  0
  1  2  1  0
  2  3  1  0
  3  4  1  0
  4  5  1  0
  5  6  2  0
  6  7  1  0
  7  8  1  0
  8  9  1  0
  9 10  1  0
 10 11  1  0
 11 12  2  0
 12 13  1  0
 13 14  2  0
 14 15  1  0
 15 16  2  0
 16 17  1  0
  7 18  2  0
 18 19  1  0
 19 20  1  0
 20 21  1  0
 21 22  1  0
 22 23  1  0
 23 24  2  0
 24 25  1  0
 25 26  2  0
 26 27  1  0
 27 28  2  0
 28 29  1  0
 19 30  2  0
  2 31  1  0
 31 32  1  0
 32 33  1  0
 33 34  1  0
 34 35  1  0
 35 36  2  0
 36 37  1  0
 37 38  2  0
 38 39  1  0
 39 40  2  0
 40 41  1  0
 30  5  1  0
 41 32  1  0
 17  8  1  0
 29 20  1  0
 40 35  1  0
 16 11  1  0
 28 23  1  0
  1 42  1  0
  1 43  1  0
  2 44  1  1
  3 45  1  0
  3 46  1  0
  4 47  1  0
  9 48  1  0
  9 49  1  0
 10 50  1  0
 10 51  1  0
 12 52  1  0
 13 53  1  0
 14 54  1  0
 15 55  1  0
 17 56  1  0
 17 57  1  0
 21 58  1  0
 21 59  1  0
 22 60  1  0
 22 61  1  0
 24 62  1  0
 25 63  1  0
 26 64  1  0
 27 65  1  0
 29 66  1  0
 29 67  1  0
 31 68  1  0
 31 69  1  0
 33 70  1  0
 33 71  1  0
 34 72  1  0
 34 73  1  0
 36 74  1  0
 37 75  1  0
 38 76  1  0
 39 77  1  0
 41 78  1  0
 41 79  1  0
M  END
>  <smiles>  (6) 
NC(CNc1nc(N2CCc3ccccc3C2)nc(N2CCc3ccccc3C2)n1)CN1CCc2ccccc2C1

>  <score_type>  (6) 
oracle

>  <origin>  (6) 
autodockgpu

>  <m_score__min__energy>  (6) 
-11.49

>  <m_primary>  (6) 
energy

>  <rmsd>  (6) 
10.64749402286389

>  <m_score__min__rmsd>  (6) 
10.64749402286389

>  <meeko>  (6) 
{"free_energy": -10.4, "intermolecular_energy": -12.79, "internal_energy": -2.13, "cluster_size": 11, "cluster_id": 1, "rank_in_cluster": 7}

>  <energy>  (6) 
-10.59

>  <cluster_rmsd>  (6) 
1.37

>  <cluster>  (6) 
1

$$$$

     RDKit          3D

 79 85  0  0  1  0  0  0  0  0999 V2000
  139.7250   70.5490  221.4030 N   0  0  0  0  0  0  0  0  0  0  0  0
  138.4310   70.1020  221.8630 C   0  0  2  0  0  0  0  0  0  0  0  0
  137.5610   71.3380  221.9350 C   0  0  0  0  0  0  0  0  0  0  0  0
  138.2590   72.5250  221.4350 N   0  0  0  0  0  0  0  0  0  0  0  0
  137.7970   73.7720  221.9860 C   0  0  0  0  0  0  0  0  0  0  0  0
  136.6070   73.8840  222.6040 N   0  0  0  0  0  0  0  0  0  0  0  0
  136.1880   75.0790  223.1110 C   0  0  0  0  0  0  0  0  0  0  0  0
  134.9370   75.2190  223.7740 N   0  0  0  0  0  0  0  0  0  0  0  0
  134.7390   76.1740  224.8190 C   0  0  0  0  0  0  0  0  0  0  0  0
  134.2350   75.5740  226.0840 C   0  0  0  0  0  0  0  0  0  0  0  0
  133.5820   74.2750  225.8600 C   0  0  0  0  0  0  0  0  0  0  0  0
  133.1280   73.5870  226.9700 C   0  0  0  0  0  0  0  0  0  0  0  0
  132.4960   72.3540  226.8780 C   0  0  0  0  0  0  0  0  0  0  0  0
  132.3140   71.7960  225.6390 C   0  0  0  0  0  0  0  0  0  0  0  0
  132.7490   72.4430  224.5090 C   0  0  0  0  0  0  0  0  0  0  0  0
  133.3810   73.6830  224.6380 C   0  0  0  0  0  0  0  0  0  0  0  0
  133.8440   74.3510  223.3700 C   0  0  0  0  0  0  0  0  0  0  0  0
  136.9710   76.1540  222.9910 N   0  0  0  0  0  0  0  0  0  0  0  0
  138.1670   76.0740  222.3790 C   0  0  0  0  0  0  0  0  0  0  0  0
  138.9570   77.2550  222.2820 N   0  0  0  0  0  0  0  0  0  0  0  0
  138.2960   78.5000  221.9450 C   0  0  0  0  0  0  0  0  0  0  0  0
  138.4430   79.3900  223.1830 C   0  0  0  0  0  0  0  0  0  0  0  0
  139.9270   79.6350  223.2800 C   0  0  0  0  0  0  0  0  0  0  0  0
  140.3580   80.8900  223.7020 C   0  0  0  0  0  0  0  0  0  0  0  0
  141.7310   81.1260  223.7960 C   0  0  0  0  0  0  0  0  0  0  0  0
  142.6260   80.1190  223.4710 C   0  0  0  0  0  0  0  0  0  0  0  0
  142.1820   78.8630  223.0490 C   0  0  0  0  0  0  0  0  0  0  0  0
  140.8230   78.6350  222.9580 C   0  0  0  0  0  0  0  0  0  0  0  0
  140.3730   77.2800  222.5020 C   0  0  0  0  0  0  0  0  0  0  0  0
  138.5720   74.8930  221.8820 N   0  0  0  0  0  0  0  0  0  0  0  0
  138.4890   69.5070  223.2460 C   0  0  0  0  0  0  0  0  0  0  0  0
  139.6440   69.8840  223.9970 N   0  0  0  0  0  0  0  0  0  0  0  0
  139.9120   71.2680  224.0650 C   0  0  0  0  0  0  0  0  0  0  0  0
  141.0150   71.5390  225.0640 C   0  0  0  0  0  0  0  0  0  0  0  0
  140.4700   71.1200  226.3840 C   0  0  0  0  0  0  0  0  0  0  0  0
  140.4940   71.8970  227.5060 C   0  0  0  0  0  0  0  0  0  0  0  0
  139.9550   71.3950  228.6810 C   0  0  0  0  0  0  0  0  0  0  0  0
  139.3980   70.1140  228.7150 C   0  0  0  0  0  0  0  0  0  0  0  0
  139.3680   69.3130  227.5770 C   0  0  0  0  0  0  0  0  0  0  0  0
  139.9100   69.8370  226.4220 C   0  0  0  0  0  0  0  0  0  0  0  0
  139.9420   69.0890  225.1370 C   0  0  0  0  0  0  0  0  0  0  0  0
  140.4950   70.3250  222.0370 H   0  0  0  0  0  0  0  0  0  0  0  0
  139.8780   70.3670  220.3920 H   0  0  0  0  0  0  0  0  0  0  0  0
  138.0509   69.3288  221.1791 H   0  0  0  0  0  0  0  0  0  0  0  0
  136.6584   71.1738  221.3281 H   0  0  0  0  0  0  0  0  0  0  0  0
  137.3022   71.5127  222.9897 H   0  0  0  0  0  0  0  0  0  0  0  0
  139.0290   72.4720  220.7350 H   0  0  0  0  0  0  0  0  0  0  0  0
  135.7000   76.6674  225.0264 H   0  0  0  0  0  0  0  0  0  0  0  0
  133.9733   76.8821  224.4693 H   0  0  0  0  0  0  0  0  0  0  0  0
  135.0823   75.4310  226.7707 H   0  0  0  0  0  0  0  0  0  0  0  0
  133.4872   76.2596  226.5091 H   0  0  0  0  0  0  0  0  0  0  0  0
  133.2731   74.0337  227.9647 H   0  0  0  0  0  0  0  0  0  0  0  0
  132.1477   71.8344  227.7828 H   0  0  0  0  0  0  0  0  0  0  0  0
  131.8144   70.8201  225.5494 H   0  0  0  0  0  0  0  0  0  0  0  0
  132.6023   71.9921  223.5165 H   0  0  0  0  0  0  0  0  0  0  0  0
  134.1943   73.6016  222.6449 H   0  0  0  0  0  0  0  0  0  0  0  0
  133.0335   74.9110  222.8807 H   0  0  0  0  0  0  0  0  0  0  0  0
  138.7794   78.9686  221.0751 H   0  0  0  0  0  0  0  0  0  0  0  0
  137.2404   78.3424  221.6789 H   0  0  0  0  0  0  0  0  0  0  0  0
  137.8980   80.3364  223.0514 H   0  0  0  0  0  0  0  0  0  0  0  0
  138.0298   78.9256  224.0905 H   0  0  0  0  0  0  0  0  0  0  0  0
  139.6333   81.6777  223.9556 H   0  0  0  0  0  0  0  0  0  0  0  0
  142.1009   82.1077  224.1268 H   0  0  0  0  0  0  0  0  0  0  0  0
  143.7063   80.3121  223.5466 H   0  0  0  0  0  0  0  0  0  0  0  0
  142.9014   78.0709  222.7941 H   0  0  0  0  0  0  0  0  0  0  0  0
  140.8872   77.0276  221.5629 H   0  0  0  0  0  0  0  0  0  0  0  0
  140.6185   76.5478  223.2853 H   0  0  0  0  0  0  0  0  0  0  0  0
  137.5960   69.8328  223.7995 H   0  0  0  0  0  0  0  0  0  0  0  0
  138.5366   68.4154  223.1190 H   0  0  0  0  0  0  0  0  0  0  0  0
  140.2242   71.6266  223.0731 H   0  0  0  0  0  0  0  0  0  0  0  0
  139.0008   71.7943  224.3855 H   0  0  0  0  0  0  0  0  0  0  0  0
  141.9116   70.9524  224.8149 H   0  0  0  0  0  0  0  0  0  0  0  0
  141.3136   72.5977  225.0640 H   0  0  0  0  0  0  0  0  0  0  0  0
  140.9337   72.9049  227.4786 H   0  0  0  0  0  0  0  0  0  0  0  0
  139.9660   72.0098  229.5930 H   0  0  0  0  0  0  0  0  0  0  0  0
  138.9763   69.7323  229.6565 H   0  0  0  0  0  0  0  0  0  0  0  0
  138.9302   68.3041  227.5980 H   0  0  0  0  0  0  0  0  0  0  0  0
  140.9487   68.6645  225.0090 H   0  0  0  0  0  0  0  0  0  0  0  0
  139.1611   68.3168  225.1991 H   0  0  0  0  0  0  0  0  0  0  0  0
  1  2  1  0
  2  3  1  0
  3  4  1  0
  4  5  1  0
  5  6  2  0
  6  7  1  0
  7  8  1  0
  8  9  1  0
  9 10  1  0
 10 11  1  0
 11 12  2  0
 12 13  1  0
 13 14  2  0
 14 15  1  0
 15 16  2  0
 16 17  1  0
  7 18  2  0
 18 19  1  0
 19 20  1  0
 20 21  1  0
 21 22  1  0
 22 23  1  0
 23 24  2  0
 24 25  1  0
 25 26  2  0
 26 27  1  0
 27 28  2  0
 28 29  1  0
 19 30  2  0
  2 31  1  0
 31 32  1  0
 32 33  1  0
 33 34  1  0
 34 35  1  0
 35 36  2  0
 36 37  1  0
 37 38  2  0
 38 39  1  0
 39 40  2  0
 40 41  1  0
 30  5  1  0
 41 32  1  0
 17  8  1  0
 29 20  1  0
 40 35  1  0
 16 11  1  0
 28 23  1  0
  1 42  1  0
  1 43  1  0
  2 44  1  6
  3 45  1  0
  3 46  1  0
  4 47  1  0
  9 48  1  0
  9 49  1  0
 10 50  1  0
 10 51  1  0
 12 52  1  0
 13 53  1  0
 14 54  1  0
 15 55  1  0
 17 56  1  0
 17 57  1  0
 21 58  1  0
 21 59  1  0
 22 60  1  0
 22 61  1  0
 24 62  1  0
 25 63  1  0
 26 64  1  0
 27 65  1  0
 29 66  1  0
 29 67  1  0
 31 68  1  0
 31 69  1  0
 33 70  1  0
 33 71  1  0
 34 72  1  0
 34 73  1  0
 36 74  1  0
 37 75  1  0
 38 76  1  0
 39 77  1  0
 41 78  1  0
 41 79  1  0
M  END
>  <smiles>  (7) 
NC(CNc1nc(N2CCc3ccccc3C2)nc(N2CCc3ccccc3C2)n1)CN1CCc2ccccc2C1

>  <score_type>  (7) 
oracle

>  <origin>  (7) 
autodockgpu

>  <m_score__min__energy>  (7) 
-11.49

>  <m_primary>  (7) 
energy

>  <rmsd>  (7) 
4.365574170013343

>  <m_score__min__rmsd>  (7) 
4.365574170013343

>  <meeko>  (7) 
{"free_energy": -9.59, "intermolecular_energy": -11.98, "internal_energy": -2.65, "cluster_size": 3, "cluster_id": 3, "rank_in_cluster": 2}

>  <energy>  (7) 
-10.4

>  <cluster_rmsd>  (7) 
0.97

>  <cluster>  (7) 
1

$$$$

     RDKit          3D

 79 85  0  0  1  0  0  0  0  0999 V2000
  139.0380   75.8420  222.9820 N   0  0  0  0  0  0  0  0  0  0  0  0
  139.7750   76.7290  222.1140 C   0  0  2  0  0  0  0  0  0  0  0  0
  140.1080   75.9260  220.8760 C   0  0  0  0  0  0  0  0  0  0  0  0
  141.4000   75.2450  221.0010 N   0  0  0  0  0  0  0  0  0  0  0  0
  141.3140   73.8210  221.1990 C   0  0  0  0  0  0  0  0  0  0  0  0
  141.7250   72.9430  220.2660 N   0  0  0  0  0  0  0  0  0  0  0  0
  141.6260   71.5990  220.4740 C   0  0  0  0  0  0  0  0  0  0  0  0
  142.0600   70.6530  219.5050 N   0  0  0  0  0  0  0  0  0  0  0  0
  141.3040   69.4760  219.2070 C   0  0  0  0  0  0  0  0  0  0  0  0
  142.0840   68.2170  219.3560 C   0  0  0  0  0  0  0  0  0  0  0  0
  143.5340   68.4490  219.2770 C   0  0  0  0  0  0  0  0  0  0  0  0
  144.3680   67.3630  219.4660 C   0  0  0  0  0  0  0  0  0  0  0  0
  145.7510   67.4640  219.4130 C   0  0  0  0  0  0  0  0  0  0  0  0
  146.3150   68.6890  219.1620 C   0  0  0  0  0  0  0  0  0  0  0  0
  145.5260   69.7960  218.9680 C   0  0  0  0  0  0  0  0  0  0  0  0
  144.1360   69.6570  219.0290 C   0  0  0  0  0  0  0  0  0  0  0  0
  143.3140   70.9010  218.8150 C   0  0  0  0  0  0  0  0  0  0  0  0
  141.1120   71.1490  221.6210 N   0  0  0  0  0  0  0  0  0  0  0  0
  140.6930   72.0010  222.5740 C   0  0  0  0  0  0  0  0  0  0  0  0
  140.1540   71.4610  223.7760 N   0  0  0  0  0  0  0  0  0  0  0  0
  138.9710   70.6270  223.6860 C   0  0  0  0  0  0  0  0  0  0  0  0
  139.4200   69.2310  224.1300 C   0  0  0  0  0  0  0  0  0  0  0  0
  139.7830   69.4110  225.5820 C   0  0  0  0  0  0  0  0  0  0  0  0
  139.4850   68.3770  226.4660 C   0  0  0  0  0  0  0  0  0  0  0  0
  139.8180   68.5340  227.8130 C   0  0  0  0  0  0  0  0  0  0  0  0
  140.4290   69.7030  228.2380 C   0  0  0  0  0  0  0  0  0  0  0  0
  140.7240   70.7350  227.3430 C   0  0  0  0  0  0  0  0  0  0  0  0
  140.3930   70.5730  226.0110 C   0  0  0  0  0  0  0  0  0  0  0  0
  140.7180   71.6950  225.0730 C   0  0  0  0  0  0  0  0  0  0  0  0
  140.7940   73.3240  222.3610 N   0  0  0  0  0  0  0  0  0  0  0  0
  141.0770   77.1780  222.7270 C   0  0  0  0  0  0  0  0  0  0  0  0
  141.0390   78.4910  223.2850 N   0  0  0  0  0  0  0  0  0  0  0  0
  142.2620   79.1970  223.2830 C   0  0  0  0  0  0  0  0  0  0  0  0
  142.0340   80.6370  223.6880 C   0  0  0  0  0  0  0  0  0  0  0  0
  141.1750   81.2210  222.6220 C   0  0  0  0  0  0  0  0  0  0  0  0
  141.4470   82.3890  221.9710 C   0  0  0  0  0  0  0  0  0  0  0  0
  140.5680   82.8330  220.9950 C   0  0  0  0  0  0  0  0  0  0  0  0
  139.4230   82.0950  220.6830 C   0  0  0  0  0  0  0  0  0  0  0  0
  139.1360   80.9020  221.3390 C   0  0  0  0  0  0  0  0  0  0  0  0
  140.0270   80.4840  222.3070 C   0  0  0  0  0  0  0  0  0  0  0  0
  139.8410   79.2280  223.0820 C   0  0  0  0  0  0  0  0  0  0  0  0
  138.0260   75.8570  222.8360 H   0  0  0  0  0  0  0  0  0  0  0  0
  139.4860   74.9090  223.0800 H   0  0  0  0  0  0  0  0  0  0  0  0
  139.1690   77.6249  221.9136 H   0  0  0  0  0  0  0  0  0  0  0  0
  139.3221   75.1727  220.7180 H   0  0  0  0  0  0  0  0  0  0  0  0
  140.1676   76.6194  220.0241 H   0  0  0  0  0  0  0  0  0  0  0  0
  142.3090   75.7500  220.9500 H   0  0  0  0  0  0  0  0  0  0  0  0
  140.4415   69.4342  219.8884 H   0  0  0  0  0  0  0  0  0  0  0  0
  140.9989   69.5452  218.1524 H   0  0  0  0  0  0  0  0  0  0  0  0
  141.8497   67.7687  220.3328 H   0  0  0  0  0  0  0  0  0  0  0  0
  141.8039   67.5466  218.5301 H   0  0  0  0  0  0  0  0  0  0  0  0
  143.9175   66.3797  219.6664 H   0  0  0  0  0  0  0  0  0  0  0  0
  146.3836   66.5778  219.5694 H   0  0  0  0  0  0  0  0  0  0  0  0
  147.4098   68.7855  219.1157 H   0  0  0  0  0  0  0  0  0  0  0  0
  145.9806   70.7774  218.7676 H   0  0  0  0  0  0  0  0  0  0  0  0
  143.8226   71.7776  219.2426 H   0  0  0  0  0  0  0  0  0  0  0  0
  143.1602   71.1131  217.7467 H   0  0  0  0  0  0  0  0  0  0  0  0
  138.1814   71.0066  224.3512 H   0  0  0  0  0  0  0  0  0  0  0  0
  138.5548   70.6174  222.6678 H   0  0  0  0  0  0  0  0  0  0  0  0
  138.6028   68.5032  224.0183 H   0  0  0  0  0  0  0  0  0  0  0  0
  140.2557   68.8433  223.5290 H   0  0  0  0  0  0  0  0  0  0  0  0
  138.9980   67.4568  226.1110 H   0  0  0  0  0  0  0  0  0  0  0  0
  139.5962   67.7331  228.5337 H   0  0  0  0  0  0  0  0  0  0  0  0
  140.6869   69.8209  229.3008 H   0  0  0  0  0  0  0  0  0  0  0  0
  141.2101   71.6581  227.6918 H   0  0  0  0  0  0  0  0  0  0  0  0
  140.3100   72.6325  225.4787 H   0  0  0  0  0  0  0  0  0  0  0  0
  141.8114   71.7617  224.9725 H   0  0  0  0  0  0  0  0  0  0  0  0
  141.3438   76.4711  223.5264 H   0  0  0  0  0  0  0  0  0  0  0  0
  141.8176   77.2014  221.9140 H   0  0  0  0  0  0  0  0  0  0  0  0
  142.9554   78.7248  223.9944 H   0  0  0  0  0  0  0  0  0  0  0  0
  142.6894   79.1722  222.2697 H   0  0  0  0  0  0  0  0  0  0  0  0
  141.5245   80.6860  224.6616 H   0  0  0  0  0  0  0  0  0  0  0  0
  142.9818   81.1853  223.7932 H   0  0  0  0  0  0  0  0  0  0  0  0
  142.3489   82.9688  222.2165 H   0  0  0  0  0  0  0  0  0  0  0  0
  140.7734   83.7732  220.4623 H   0  0  0  0  0  0  0  0  0  0  0  0
  138.7372   82.4634  219.9058 H   0  0  0  0  0  0  0  0  0  0  0  0
  138.2369   80.3165  221.0965 H   0  0  0  0  0  0  0  0  0  0  0  0
  139.4236   79.4874  224.0661 H   0  0  0  0  0  0  0  0  0  0  0  0
  139.1691   78.5869  222.4924 H   0  0  0  0  0  0  0  0  0  0  0  0
  1  2  1  0
  2  3  1  0
  3  4  1  0
  4  5  1  0
  5  6  2  0
  6  7  1  0
  7  8  1  0
  8  9  1  0
  9 10  1  0
 10 11  1  0
 11 12  2  0
 12 13  1  0
 13 14  2  0
 14 15  1  0
 15 16  2  0
 16 17  1  0
  7 18  2  0
 18 19  1  0
 19 20  1  0
 20 21  1  0
 21 22  1  0
 22 23  1  0
 23 24  2  0
 24 25  1  0
 25 26  2  0
 26 27  1  0
 27 28  2  0
 28 29  1  0
 19 30  2  0
  2 31  1  0
 31 32  1  0
 32 33  1  0
 33 34  1  0
 34 35  1  0
 35 36  2  0
 36 37  1  0
 37 38  2  0
 38 39  1  0
 39 40  2  0
 40 41  1  0
 30  5  1  0
 41 32  1  0
 17  8  1  0
 29 20  1  0
 40 35  1  0
 16 11  1  0
 28 23  1  0
  1 42  1  0
  1 43  1  0
  2 44  1  6
  3 45  1  0
  3 46  1  0
  4 47  1  0
  9 48  1  0
  9 49  1  0
 10 50  1  0
 10 51  1  0
 12 52  1  0
 13 53  1  0
 14 54  1  0
 15 55  1  0
 17 56  1  0
 17 57  1  0
 21 58  1  0
 21 59  1  0
 22 60  1  0
 22 61  1  0
 24 62  1  0
 25 63  1  0
 26 64  1  0
 27 65  1  0
 29 66  1  0
 29 67  1  0
 31 68  1  0
 31 69  1  0
 33 70  1  0
 33 71  1  0
 34 72  1  0
 34 73  1  0
 36 74  1  0
 37 75  1  0
 38 76  1  0
 39 77  1  0
 41 78  1  0
 41 79  1  0
M  END
>  <smiles>  (8) 
NC(CNc1nc(N2CCc3ccccc3C2)nc(N2CCc3ccccc3C2)n1)CN1CCc2ccccc2C1

>  <score_type>  (8) 
oracle

>  <origin>  (8) 
autodockgpu

>  <m_score__min__energy>  (8) 
-11.49

>  <m_primary>  (8) 
energy

>  <rmsd>  (8) 
10.593205089211809

>  <m_score__min__rmsd>  (8) 
10.593205089211809

>  <meeko>  (8) 
{"free_energy": -11.15, "intermolecular_energy": -13.53, "internal_energy": -2.01, "cluster_size": 11, "cluster_id": 1, "rank_in_cluster": 5}

>  <energy>  (8) 
-10.39

>  <cluster_rmsd>  (8) 
1.69

>  <cluster>  (8) 
1

$$$$

     RDKit          3D

 79 85  0  0  1  0  0  0  0  0999 V2000
  138.0270   74.8760  222.3680 N   0  0  0  0  0  0  0  0  0  0  0  0
  138.5230   76.0940  221.7730 C   0  0  2  0  0  0  0  0  0  0  0  0
  139.4030   75.6690  220.6180 C   0  0  0  0  0  0  0  0  0  0  0  0
  140.7200   75.2160  221.0750 N   0  0  0  0  0  0  0  0  0  0  0  0
  140.8210   73.7990  221.3100 C   0  0  0  0  0  0  0  0  0  0  0  0
  141.3040   72.9530  220.3820 N   0  0  0  0  0  0  0  0  0  0  0  0
  141.3830   71.6130  220.6260 C   0  0  0  0  0  0  0  0  0  0  0  0
  141.8960   70.7010  219.6640 N   0  0  0  0  0  0  0  0  0  0  0  0
  141.2470   69.4590  219.3800 C   0  0  0  0  0  0  0  0  0  0  0  0
  142.1370   68.2760  219.5360 C   0  0  0  0  0  0  0  0  0  0  0  0
  143.5600   68.6360  219.4480 C   0  0  0  0  0  0  0  0  0  0  0  0
  144.4890   67.6300  219.6420 C   0  0  0  0  0  0  0  0  0  0  0  0
  145.8570   67.8540  219.5810 C   0  0  0  0  0  0  0  0  0  0  0  0
  146.3080   69.1220  219.3180 C   0  0  0  0  0  0  0  0  0  0  0  0
  145.4220   70.1520  219.1180 C   0  0  0  0  0  0  0  0  0  0  0  0
  144.0510   69.8910  219.1870 C   0  0  0  0  0  0  0  0  0  0  0  0
  143.1200   71.0540  218.9660 C   0  0  0  0  0  0  0  0  0  0  0  0
  140.9730   71.1360  221.8050 N   0  0  0  0  0  0  0  0  0  0  0  0
  140.4860   71.9570  222.7530 C   0  0  0  0  0  0  0  0  0  0  0  0
  140.0640   71.3880  223.9890 N   0  0  0  0  0  0  0  0  0  0  0  0
  138.8590   70.5840  224.0010 C   0  0  0  0  0  0  0  0  0  0  0  0
  139.3170   69.1640  224.3500 C   0  0  0  0  0  0  0  0  0  0  0  0
  139.8360   69.2880  225.7600 C   0  0  0  0  0  0  0  0  0  0  0  0
  139.6080   68.2310  226.6380 C   0  0  0  0  0  0  0  0  0  0  0  0
  140.0860   68.3360  227.9450 C   0  0  0  0  0  0  0  0  0  0  0  0
  140.7690   69.4760  228.3380 C   0  0  0  0  0  0  0  0  0  0  0  0
  140.9930   70.5310  227.4500 C   0  0  0  0  0  0  0  0  0  0  0  0
  140.5180   70.4210  226.1570 C   0  0  0  0  0  0  0  0  0  0  0  0
  140.7690   71.5660  225.2240 C   0  0  0  0  0  0  0  0  0  0  0  0
  140.4110   73.2750  222.5040 N   0  0  0  0  0  0  0  0  0  0  0  0
  139.3790   76.8890  222.7260 C   0  0  0  0  0  0  0  0  0  0  0  0
  139.5700   78.2510  222.3430 N   0  0  0  0  0  0  0  0  0  0  0  0
  138.9090   79.2130  223.1370 C   0  0  0  0  0  0  0  0  0  0  0  0
  139.3730   80.6050  222.7650 C   0  0  0  0  0  0  0  0  0  0  0  0
  140.8190   80.6500  223.1150 C   0  0  0  0  0  0  0  0  0  0  0  0
  141.3980   81.6320  223.8650 C   0  0  0  0  0  0  0  0  0  0  0  0
  142.7590   81.5660  224.1230 C   0  0  0  0  0  0  0  0  0  0  0  0
  143.5250   80.5100  223.6210 C   0  0  0  0  0  0  0  0  0  0  0  0
  142.9450   79.5020  222.8550 C   0  0  0  0  0  0  0  0  0  0  0  0
  141.5900   79.5930  222.6140 C   0  0  0  0  0  0  0  0  0  0  0  0
  140.8460   78.5840  221.8130 C   0  0  0  0  0  0  0  0  0  0  0  0
  138.7570   74.2520  222.7180 H   0  0  0  0  0  0  0  0  0  0  0  0
  137.2070   75.0350  222.9870 H   0  0  0  0  0  0  0  0  0  0  0  0
  137.6721   76.7248  221.4764 H   0  0  0  0  0  0  0  0  0  0  0  0
  138.9106   74.8460  220.0793 H   0  0  0  0  0  0  0  0  0  0  0  0
  139.5496   76.5394  219.9616 H   0  0  0  0  0  0  0  0  0  0  0  0
  141.5200   75.8670  221.2180 H   0  0  0  0  0  0  0  0  0  0  0  0
  140.3945   69.3465  220.0660 H   0  0  0  0  0  0  0  0  0  0  0  0
  140.9324   69.4912  218.3264 H   0  0  0  0  0  0  0  0  0  0  0  0
  141.9477   67.8173  220.5177 H   0  0  0  0  0  0  0  0  0  0  0  0
  141.9146   67.5758  218.7173 H   0  0  0  0  0  0  0  0  0  0  0  0
  144.1292   66.6121  219.8530 H   0  0  0  0  0  0  0  0  0  0  0  0
  146.5670   67.0292  219.7407 H   0  0  0  0  0  0  0  0  0  0  0  0
  147.3896   69.3159  219.2667 H   0  0  0  0  0  0  0  0  0  0  0  0
  145.7864   71.1681  218.9065 H   0  0  0  0  0  0  0  0  0  0  0  0
  143.5496   71.9766  219.3835 H   0  0  0  0  0  0  0  0  0  0  0  0
  142.9436   71.2415  217.8966 H   0  0  0  0  0  0  0  0  0  0  0  0
  138.1550   70.9580  224.7590 H   0  0  0  0  0  0  0  0  0  0  0  0
  138.3365   70.6178  223.0336 H   0  0  0  0  0  0  0  0  0  0  0  0
  138.4745   68.4583  224.3035 H   0  0  0  0  0  0  0  0  0  0  0  0
  140.0739   68.7781  223.6513 H   0  0  0  0  0  0  0  0  0  0  0  0
  139.0635   67.3338  226.3087 H   0  0  0  0  0  0  0  0  0  0  0  0
  139.9212   67.5169  228.6605 H   0  0  0  0  0  0  0  0  0  0  0  0
  141.1423   69.5517  229.3699 H   0  0  0  0  0  0  0  0  0  0  0  0
  141.5365   71.4310  227.7735 H   0  0  0  0  0  0  0  0  0  0  0  0
  140.4307   72.4983  225.6999 H   0  0  0  0  0  0  0  0  0  0  0  0
  141.8467   71.6117  225.0082 H   0  0  0  0  0  0  0  0  0  0  0  0
  138.8997   76.8729  223.7159 H   0  0  0  0  0  0  0  0  0  0  0  0
  140.3731   76.4181  222.7265 H   0  0  0  0  0  0  0  0  0  0  0  0
  137.8240   79.1357  222.9735 H   0  0  0  0  0  0  0  0  0  0  0  0
  139.1431   79.0272  224.1956 H   0  0  0  0  0  0  0  0  0  0  0  0
  139.2325   80.7820  221.6885 H   0  0  0  0  0  0  0  0  0  0  0  0
  138.8009   81.3807  223.2951 H   0  0  0  0  0  0  0  0  0  0  0  0
  140.7945   82.4631  224.2589 H   0  0  0  0  0  0  0  0  0  0  0  0
  143.2391   82.3501  224.7269 H   0  0  0  0  0  0  0  0  0  0  0  0
  144.6035   80.4746  223.8345 H   0  0  0  0  0  0  0  0  0  0  0  0
  143.5426   78.6679  222.4586 H   0  0  0  0  0  0  0  0  0  0  0  0
  140.7052   78.9838  220.7980 H   0  0  0  0  0  0  0  0  0  0  0  0
  141.4462   77.6622  221.8261 H   0  0  0  0  0  0  0  0  0  0  0  0
  1  2  1  0
  2  3  1  0
  3  4  1  0
  4  5  1  0
  5  6  2  0
  6  7  1  0
  7  8  1  0
  8  9  1  0
  9 10  1  0
 10 11  1  0
 11 12  2  0
 12 13  1  0
 13 14  2  0
 14 15  1  0
 15 16  2  0
 16 17  1  0
  7 18  2  0
 18 19  1  0
 19 20  1  0
 20 21  1  0
 21 22  1  0
 22 23  1  0
 23 24  2  0
 24 25  1  0
 25 26  2  0
 26 27  1  0
 27 28  2  0
 28 29  1  0
 19 30  2  0
  2 31  1  0
 31 32  1  0
 32 33  1  0
 33 34  1  0
 34 35  1  0
 35 36  2  0
 36 37  1  0
 37 38  2  0
 38 39  1  0
 39 40  2  0
 40 41  1  0
 30  5  1  0
 41 32  1  0
 17  8  1  0
 29 20  1  0
 40 35  1  0
 16 11  1  0
 28 23  1  0
  1 42  1  0
  1 43  1  0
  2 44  1  6
  3 45  1  0
  3 46  1  0
  4 47  1  0
  9 48  1  0
  9 49  1  0
 10 50  1  0
 10 51  1  0
 12 52  1  0
 13 53  1  0
 14 54  1  0
 15 55  1  0
 17 56  1  0
 17 57  1  0
 21 58  1  0
 21 59  1  0
 22 60  1  0
 22 61  1  0
 24 62  1  0
 25 63  1  0
 26 64  1  0
 27 65  1  0
 29 66  1  0
 29 67  1  0
 31 68  1  0
 31 69  1  0
 33 70  1  0
 33 71  1  0
 34 72  1  0
 34 73  1  0
 36 74  1  0
 37 75  1  0
 38 76  1  0
 39 77  1  0
 41 78  1  0
 41 79  1  0
M  END
>  <smiles>  (9) 
NC(CNc1nc(N2CCc3ccccc3C2)nc(N2CCc3ccccc3C2)n1)CN1CCc2ccccc2C1

>  <score_type>  (9) 
oracle

>  <origin>  (9) 
autodockgpu

>  <m_score__min__energy>  (9) 
-11.49

>  <m_primary>  (9) 
energy

>  <rmsd>  (9) 
10.035343813363449

>  <m_score__min__rmsd>  (9) 
10.035343813363449

>  <meeko>  (9) 
{"free_energy": -11.45, "intermolecular_energy": -13.84, "internal_energy": -2.02, "cluster_size": 11, "cluster_id": 1, "rank_in_cluster": 2}

>  <energy>  (9) 
-10.21

>  <cluster_rmsd>  (9) 
0.94

>  <cluster>  (9) 
1

$$$$

     RDKit          3D

 79 85  0  0  1  0  0  0  0  0999 V2000
  140.6980   72.6320  223.1140 N   0  0  0  0  0  0  0  0  0  0  0  0
  140.5120   71.7770  221.9660 C   0  0  2  0  0  0  0  0  0  0  0  0
  140.8040   72.6310  220.7530 C   0  0  0  0  0  0  0  0  0  0  0  0
  141.5550   73.8400  221.1060 N   0  0  0  0  0  0  0  0  0  0  0  0
  140.7520   74.9180  221.6210 C   0  0  0  0  0  0  0  0  0  0  0  0
  141.2690   76.1320  221.8850 N   0  0  0  0  0  0  0  0  0  0  0  0
  140.4900   77.1360  222.3790 C   0  0  0  0  0  0  0  0  0  0  0  0
  141.0130   78.4280  222.6590 N   0  0  0  0  0  0  0  0  0  0  0  0
  140.5740   79.1930  223.7850 C   0  0  0  0  0  0  0  0  0  0  0  0
  140.0720   80.5470  223.4230 C   0  0  0  0  0  0  0  0  0  0  0  0
  140.5840   80.9980  222.1200 C   0  0  0  0  0  0  0  0  0  0  0  0
  140.1370   82.2170  221.6440 C   0  0  0  0  0  0  0  0  0  0  0  0
  140.5530   82.7420  220.4280 C   0  0  0  0  0  0  0  0  0  0  0  0
  141.4430   82.0270  219.6690 C   0  0  0  0  0  0  0  0  0  0  0  0
  141.9140   80.8120  220.1020 C   0  0  0  0  0  0  0  0  0  0  0  0
  141.4730   80.3120  221.3310 C   0  0  0  0  0  0  0  0  0  0  0  0
  142.0150   78.9740  221.7610 C   0  0  0  0  0  0  0  0  0  0  0  0
  139.1930   76.9090  222.6040 N   0  0  0  0  0  0  0  0  0  0  0  0
  138.6460   75.7070  222.3500 C   0  0  0  0  0  0  0  0  0  0  0  0
  137.2570   75.5250  222.6120 N   0  0  0  0  0  0  0  0  0  0  0  0
  136.5790   74.4100  221.9810 C   0  0  0  0  0  0  0  0  0  0  0  0
  136.1630   73.4830  223.1280 C   0  0  0  0  0  0  0  0  0  0  0  0
  135.1560   74.2940  223.9030 C   0  0  0  0  0  0  0  0  0  0  0  0
  134.0630   73.6290  224.4550 C   0  0  0  0  0  0  0  0  0  0  0  0
  133.1260   74.3710  225.1750 C   0  0  0  0  0  0  0  0  0  0  0  0
  133.2990   75.7380  225.3240 C   0  0  0  0  0  0  0  0  0  0  0  0
  134.3990   76.3960  224.7670 C   0  0  0  0  0  0  0  0  0  0  0  0
  135.3240   75.6560  224.0560 C   0  0  0  0  0  0  0  0  0  0  0  0
  136.4940   76.3840  223.4670 C   0  0  0  0  0  0  0  0  0  0  0  0
  139.4210   74.7230  221.8640 N   0  0  0  0  0  0  0  0  0  0  0  0
  139.0920   71.2850  221.8430 C   0  0  0  0  0  0  0  0  0  0  0  0
  138.6490   70.4940  222.9460 N   0  0  0  0  0  0  0  0  0  0  0  0
  139.0280   69.1340  222.9220 C   0  0  0  0  0  0  0  0  0  0  0  0
  138.6920   68.4740  224.2420 C   0  0  0  0  0  0  0  0  0  0  0  0
  139.5380   69.1600  225.2570 C   0  0  0  0  0  0  0  0  0  0  0  0
  140.3270   68.5110  226.1630 C   0  0  0  0  0  0  0  0  0  0  0  0
  141.0700   69.2610  227.0630 C   0  0  0  0  0  0  0  0  0  0  0  0
  141.0100   70.6570  227.0420 C   0  0  0  0  0  0  0  0  0  0  0  0
  140.2090   71.3290  226.1230 C   0  0  0  0  0  0  0  0  0  0  0  0
  139.4810   70.5590  225.2390 C   0  0  0  0  0  0  0  0  0  0  0  0
  138.5870   71.1480  224.2060 C   0  0  0  0  0  0  0  0  0  0  0  0
  139.8900   73.2180  223.3350 H   0  0  0  0  0  0  0  0  0  0  0  0
  141.1590   72.1470  223.9080 H   0  0  0  0  0  0  0  0  0  0  0  0
  141.1673   70.8985  222.0596 H   0  0  0  0  0  0  0  0  0  0  0  0
  141.3947   72.0415  220.0364 H   0  0  0  0  0  0  0  0  0  0  0  0
  139.8442   72.9408  220.3140 H   0  0  0  0  0  0  0  0  0  0  0  0
  142.5880   73.9130  220.9940 H   0  0  0  0  0  0  0  0  0  0  0  0
  139.7630   78.6430  224.2849 H   0  0  0  0  0  0  0  0  0  0  0  0
  141.4464   79.3354  224.4397 H   0  0  0  0  0  0  0  0  0  0  0  0
  138.9732   80.5182  223.3814 H   0  0  0  0  0  0  0  0  0  0  0  0
  140.4247   81.2542  224.1882 H   0  0  0  0  0  0  0  0  0  0  0  0
  139.4242   82.7930  222.2524 H   0  0  0  0  0  0  0  0  0  0  0  0
  140.1751   83.7146  220.0796 H   0  0  0  0  0  0  0  0  0  0  0  0
  141.7831   82.4305  218.7038 H   0  0  0  0  0  0  0  0  0  0  0  0
  142.6279   80.2403  219.4908 H   0  0  0  0  0  0  0  0  0  0  0  0
  142.1525   78.3157  220.8905 H   0  0  0  0  0  0  0  0  0  0  0  0
  142.9972   79.0655  222.2478 H   0  0  0  0  0  0  0  0  0  0  0  0
  135.6941   74.7603  221.4293 H   0  0  0  0  0  0  0  0  0  0  0  0
  137.2262   73.8963  221.2549 H   0  0  0  0  0  0  0  0  0  0  0  0
  135.7069   72.5604  222.7397 H   0  0  0  0  0  0  0  0  0  0  0  0
  137.0155   73.1633  223.7453 H   0  0  0  0  0  0  0  0  0  0  0  0
  133.9415   72.5434  224.3260 H   0  0  0  0  0  0  0  0  0  0  0  0
  132.2534   73.8729  225.6226 H   0  0  0  0  0  0  0  0  0  0  0  0
  132.5557   76.3166  225.8920 H   0  0  0  0  0  0  0  0  0  0  0  0
  134.5258   77.4815  224.8922 H   0  0  0  0  0  0  0  0  0  0  0  0
  136.1271   77.2401  222.8817 H   0  0  0  0  0  0  0  0  0  0  0  0
  137.1420   76.7265  224.2872 H   0  0  0  0  0  0  0  0  0  0  0  0
  138.4301   72.1594  221.7577 H   0  0  0  0  0  0  0  0  0  0  0  0
  139.0580   70.6365  220.9551 H   0  0  0  0  0  0  0  0  0  0  0  0
  138.4892   68.6210  222.1118 H   0  0  0  0  0  0  0  0  0  0  0  0
  140.1129   69.0668  222.7532 H   0  0  0  0  0  0  0  0  0  0  0  0
  137.6257   68.6064  224.4775 H   0  0  0  0  0  0  0  0  0  0  0  0
  138.8827   67.3910  224.2167 H   0  0  0  0  0  0  0  0  0  0  0  0
  140.3727   67.4121  226.1789 H   0  0  0  0  0  0  0  0  0  0  0  0
  141.7111   68.7531  227.7986 H   0  0  0  0  0  0  0  0  0  0  0  0
  141.6059   71.2347  227.7640 H   0  0  0  0  0  0  0  0  0  0  0  0
  140.1585   72.4276  226.1023 H   0  0  0  0  0  0  0  0  0  0  0  0
  137.5515   71.0936  224.5732 H   0  0  0  0  0  0  0  0  0  0  0  0
  138.9259   72.1820  224.0445 H   0  0  0  0  0  0  0  0  0  0  0  0
  1  2  1  0
  2  3  1  0
  3  4  1  0
  4  5  1  0
  5  6  2  0
  6  7  1  0
  7  8  1  0
  8  9  1  0
  9 10  1  0
 10 11  1  0
 11 12  2  0
 12 13  1  0
 13 14  2  0
 14 15  1  0
 15 16  2  0
 16 17  1  0
  7 18  2  0
 18 19  1  0
 19 20  1  0
 20 21  1  0
 21 22  1  0
 22 23  1  0
 23 24  2  0
 24 25  1  0
 25 26  2  0
 26 27  1  0
 27 28  2  0
 28 29  1  0
 19 30  2  0
  2 31  1  0
 31 32  1  0
 32 33  1  0
 33 34  1  0
 34 35  1  0
 35 36  2  0
 36 37  1  0
 37 38  2  0
 38 39  1  0
 39 40  2  0
 40 41  1  0
 30  5  1  0
 41 32  1  0
 17  8  1  0
 29 20  1  0
 40 35  1  0
 16 11  1  0
 28 23  1  0
  1 42  1  0
  1 43  1  0
  2 44  1  1
  3 45  1  0
  3 46  1  0
  4 47  1  0
  9 48  1  0
  9 49  1  0
 10 50  1  0
 10 51  1  0
 12 52  1  0
 13 53  1  0
 14 54  1  0
 15 55  1  0
 17 56  1  0
 17 57  1  0
 21 58  1  0
 21 59  1  0
 22 60  1  0
 22 61  1  0
 24 62  1  0
 25 63  1  0
 26 64  1  0
 27 65  1  0
 29 66  1  0
 29 67  1  0
 31 68  1  0
 31 69  1  0
 33 70  1  0
 33 71  1  0
 34 72  1  0
 34 73  1  0
 36 74  1  0
 37 75  1  0
 38 76  1  0
 39 77  1  0
 41 78  1  0
 41 79  1  0
M  END
>  <smiles>  (10) 
NC(CNc1nc(N2CCc3ccccc3C2)nc(N2CCc3ccccc3C2)n1)CN1CCc2ccccc2C1

>  <score_type>  (10) 
oracle

>  <origin>  (10) 
autodockgpu

>  <m_score__min__energy>  (10) 
-11.49

>  <m_primary>  (10) 
energy

>  <rmsd>  (10) 
3.788101266921972

>  <m_score__min__rmsd>  (10) 
3.788101266921972

>  <meeko>  (10) 
{"free_energy": -9.4, "intermolecular_energy": -11.78, "internal_energy": -2.49, "cluster_size": 1, "cluster_id": 9, "rank_in_cluster": 1}

>  <energy>  (10) 
-10.13

>  <cluster_rmsd>  (10) 
1.05

>  <cluster>  (10) 
1

$$$$

     RDKit          3D

 79 85  0  0  1  0  0  0  0  0999 V2000
  136.6120   74.1800  222.5980 N   0  0  0  0  0  0  0  0  0  0  0  0
  136.1850   75.0070  221.4950 C   0  0  2  0  0  0  0  0  0  0  0  0
  136.4540   74.2060  220.2400 C   0  0  0  0  0  0  0  0  0  0  0  0
  136.5170   72.7670  220.5160 N   0  0  0  0  0  0  0  0  0  0  0  0
  137.7700   72.3120  221.0590 C   0  0  0  0  0  0  0  0  0  0  0  0
  138.9060   72.3150  220.3380 N   0  0  0  0  0  0  0  0  0  0  0  0
  140.0790   71.8710  220.8730 C   0  0  0  0  0  0  0  0  0  0  0  0
  141.2930   71.8710  220.1310 N   0  0  0  0  0  0  0  0  0  0  0  0
  142.1030   70.7000  220.0090 C   0  0  0  0  0  0  0  0  0  0  0  0
  143.5110   70.9050  220.4460 C   0  0  0  0  0  0  0  0  0  0  0  0
  143.8980   72.3230  220.4230 C   0  0  0  0  0  0  0  0  0  0  0  0
  145.1660   72.6480  220.8700 C   0  0  0  0  0  0  0  0  0  0  0  0
  145.6380   73.9530  220.8930 C   0  0  0  0  0  0  0  0  0  0  0  0
  144.8180   74.9610  220.4560 C   0  0  0  0  0  0  0  0  0  0  0  0
  143.5510   74.6850  220.0040 C   0  0  0  0  0  0  0  0  0  0  0  0
  143.1070   73.3590  219.9950 C   0  0  0  0  0  0  0  0  0  0  0  0
  141.7090   73.1090  219.4940 C   0  0  0  0  0  0  0  0  0  0  0  0
  140.1000   71.4270  222.1320 N   0  0  0  0  0  0  0  0  0  0  0  0
  138.9810   71.4120  222.8790 C   0  0  0  0  0  0  0  0  0  0  0  0
  139.0660   70.9260  224.2150 N   0  0  0  0  0  0  0  0  0  0  0  0
  138.1940   69.8370  224.6080 C   0  0  0  0  0  0  0  0  0  0  0  0
  139.1230   68.6540  224.9010 C   0  0  0  0  0  0  0  0  0  0  0  0
  139.9140   69.1040  226.1020 C   0  0  0  0  0  0  0  0  0  0  0  0
  140.2330   68.1550  227.0710 C   0  0  0  0  0  0  0  0  0  0  0  0
  140.9670   68.5620  228.1870 C   0  0  0  0  0  0  0  0  0  0  0  0
  141.3570   69.8870  228.3070 C   0  0  0  0  0  0  0  0  0  0  0  0
  141.0320   70.8310  227.3300 C   0  0  0  0  0  0  0  0  0  0  0  0
  140.3060   70.4220  226.2270 C   0  0  0  0  0  0  0  0  0  0  0  0
  139.9690   71.4540  225.1950 C   0  0  0  0  0  0  0  0  0  0  0  0
  137.8280   71.8500  222.3440 N   0  0  0  0  0  0  0  0  0  0  0  0
  136.9800   76.2840  221.3960 C   0  0  0  0  0  0  0  0  0  0  0  0
  138.2670   76.2210  222.0110 N   0  0  0  0  0  0  0  0  0  0  0  0
  139.3430   75.8930  221.1580 C   0  0  0  0  0  0  0  0  0  0  0  0
  140.6590   76.0810  221.8810 C   0  0  0  0  0  0  0  0  0  0  0  0
  140.7470   77.5370  222.1770 C   0  0  0  0  0  0  0  0  0  0  0  0
  141.8280   78.3160  221.8830 C   0  0  0  0  0  0  0  0  0  0  0  0
  141.7930   79.6630  222.2110 C   0  0  0  0  0  0  0  0  0  0  0  0
  140.6670   80.2130  222.8320 C   0  0  0  0  0  0  0  0  0  0  0  0
  139.5590   79.4280  223.1360 C   0  0  0  0  0  0  0  0  0  0  0  0
  139.6210   78.0910  222.7990 C   0  0  0  0  0  0  0  0  0  0  0  0
  138.5070   77.1420  223.0660 C   0  0  0  0  0  0  0  0  0  0  0  0
  136.1780   73.2550  222.6210 H   0  0  0  0  0  0  0  0  0  0  0  0
  137.6370   74.2230  222.7620 H   0  0  0  0  0  0  0  0  0  0  0  0
  135.1276   75.2768  221.6333 H   0  0  0  0  0  0  0  0  0  0  0  0
  135.6468   74.3950  219.5170 H   0  0  0  0  0  0  0  0  0  0  0  0
  137.4278   74.5198  219.8359 H   0  0  0  0  0  0  0  0  0  0  0  0
  135.7170   72.1240  220.3340 H   0  0  0  0  0  0  0  0  0  0  0  0
  141.6595   69.9039  220.6250 H   0  0  0  0  0  0  0  0  0  0  0  0
  142.1303   70.4347  218.9418 H   0  0  0  0  0  0  0  0  0  0  0  0
  143.6228   70.5237  221.4717 H   0  0  0  0  0  0  0  0  0  0  0  0
  144.1645   70.3649  219.7451 H   0  0  0  0  0  0  0  0  0  0  0  0
  145.8259   71.8409  221.2208 H   0  0  0  0  0  0  0  0  0  0  0  0
  146.6526   74.1747  221.2556 H   0  0  0  0  0  0  0  0  0  0  0  0
  145.1782   76.0003  220.4675 H   0  0  0  0  0  0  0  0  0  0  0  0
  142.8947   75.4954  219.6540 H   0  0  0  0  0  0  0  0  0  0  0  0
  141.0421   73.9347  219.7828 H   0  0  0  0  0  0  0  0  0  0  0  0
  141.6711   73.0403  218.3968 H   0  0  0  0  0  0  0  0  0  0  0  0
  137.6216   70.1082  225.5073 H   0  0  0  0  0  0  0  0  0  0  0  0
  137.4622   69.5965  223.8228 H   0  0  0  0  0  0  0  0  0  0  0  0
  138.5428   67.7483  225.1313 H   0  0  0  0  0  0  0  0  0  0  0  0
  139.7625   68.3943  224.0445 H   0  0  0  0  0  0  0  0  0  0  0  0
  139.9137   67.1083  226.9593 H   0  0  0  0  0  0  0  0  0  0  0  0
  141.2346   67.8345  228.9675 H   0  0  0  0  0  0  0  0  0  0  0  0
  141.9339   70.2012  229.1893 H   0  0  0  0  0  0  0  0  0  0  0  0
  141.3476   71.8794  227.4363 H   0  0  0  0  0  0  0  0  0  0  0  0
  139.4986   72.3167  225.6895 H   0  0  0  0  0  0  0  0  0  0  0  0
  140.8967   71.7583  224.6883 H   0  0  0  0  0  0  0  0  0  0  0  0
  137.1178   76.5230  220.3311 H   0  0  0  0  0  0  0  0  0  0  0  0
  136.4092   77.0544  221.9351 H   0  0  0  0  0  0  0  0  0  0  0  0
  139.2490   74.8437  220.8415 H   0  0  0  0  0  0  0  0  0  0  0  0
  139.3187   76.5540  220.2791 H   0  0  0  0  0  0  0  0  0  0  0  0
  140.6717   75.4979  222.8136 H   0  0  0  0  0  0  0  0  0  0  0  0
  141.5098   75.7361  221.2751 H   0  0  0  0  0  0  0  0  0  0  0  0
  142.7128   77.8826  221.3938 H   0  0  0  0  0  0  0  0  0  0  0  0
  142.6572   80.3035  221.9811 H   0  0  0  0  0  0  0  0  0  0  0  0
  140.6571   81.2836  223.0842 H   0  0  0  0  0  0  0  0  0  0  0  0
  138.6708   79.8552  223.6245 H   0  0  0  0  0  0  0  0  0  0  0  0
  138.7489   76.5715  223.9748 H   0  0  0  0  0  0  0  0  0  0  0  0
  137.5940   77.7457  223.1753 H   0  0  0  0  0  0  0  0  0  0  0  0
  1  2  1  0
  2  3  1  0
  3  4  1  0
  4  5  1  0
  5  6  2  0
  6  7  1  0
  7  8  1  0
  8  9  1  0
  9 10  1  0
 10 11  1  0
 11 12  2  0
 12 13  1  0
 13 14  2  0
 14 15  1  0
 15 16  2  0
 16 17  1  0
  7 18  2  0
 18 19  1  0
 19 20  1  0
 20 21  1  0
 21 22  1  0
 22 23  1  0
 23 24  2  0
 24 25  1  0
 25 26  2  0
 26 27  1  0
 27 28  2  0
 28 29  1  0
 19 30  2  0
  2 31  1  0
 31 32  1  0
 32 33  1  0
 33 34  1  0
 34 35  1  0
 35 36  2  0
 36 37  1  0
 37 38  2  0
 38 39  1  0
 39 40  2  0
 40 41  1  0
 30  5  1  0
 41 32  1  0
 17  8  1  0
 29 20  1  0
 40 35  1  0
 16 11  1  0
 28 23  1  0
  1 42  1  0
  1 43  1  0
  2 44  1  1
  3 45  1  0
  3 46  1  0
  4 47  1  0
  9 48  1  0
  9 49  1  0
 10 50  1  0
 10 51  1  0
 12 52  1  0
 13 53  1  0
 14 54  1  0
 15 55  1  0
 17 56  1  0
 17 57  1  0
 21 58  1  0
 21 59  1  0
 22 60  1  0
 22 61  1  0
 24 62  1  0
 25 63  1  0
 26 64  1  0
 27 65  1  0
 29 66  1  0
 29 67  1  0
 31 68  1  0
 31 69  1  0
 33 70  1  0
 33 71  1  0
 34 72  1  0
 34 73  1  0
 36 74  1  0
 37 75  1  0
 38 76  1  0
 39 77  1  0
 41 78  1  0
 41 79  1  0
M  END
>  <smiles>  (11) 
NC(CNc1nc(N2CCc3ccccc3C2)nc(N2CCc3ccccc3C2)n1)CN1CCc2ccccc2C1

>  <score_type>  (11) 
oracle

>  <origin>  (11) 
autodockgpu

>  <m_score__min__energy>  (11) 
-11.49

>  <m_primary>  (11) 
energy

>  <rmsd>  (11) 
8.487939333855225

>  <m_score__min__rmsd>  (11) 
8.487939333855225

>  <meeko>  (11) 
{"free_energy": -9.37, "intermolecular_energy": -11.75, "internal_energy": -3.59, "cluster_size": 9, "cluster_id": 7, "rank_in_cluster": 4}

>  <energy>  (11) 
-9.13

>  <cluster_rmsd>  (11) 
1.85

>  <cluster>  (11) 
1

$$$$

     RDKit          3D

 79 85  0  0  1  0  0  0  0  0999 V2000
  137.3430   70.1280  221.8000 N   0  0  0  0  0  0  0  0  0  0  0  0
  136.4910   69.6680  222.8710 C   0  0  2  0  0  0  0  0  0  0  0  0
  135.7010   70.8750  223.3280 C   0  0  0  0  0  0  0  0  0  0  0  0
  135.9860   72.0550  222.5060 N   0  0  0  0  0  0  0  0  0  0  0  0
  135.8420   73.3140  223.1880 C   0  0  0  0  0  0  0  0  0  0  0  0
  135.0770   73.4480  224.2880 N   0  0  0  0  0  0  0  0  0  0  0  0
  134.9500   74.6530  224.9130 C   0  0  0  0  0  0  0  0  0  0  0  0
  134.1530   74.8170  226.0790 N   0  0  0  0  0  0  0  0  0  0  0  0
  133.1880   73.8400  226.4780 C   0  0  0  0  0  0  0  0  0  0  0  0
  131.8180   74.3960  226.6520 C   0  0  0  0  0  0  0  0  0  0  0  0
  131.8340   75.8490  226.8750 C   0  0  0  0  0  0  0  0  0  0  0  0
  130.6150   76.4930  226.9870 C   0  0  0  0  0  0  0  0  0  0  0  0
  130.5090   77.8600  227.2000 C   0  0  0  0  0  0  0  0  0  0  0  0
  131.6570   78.6050  227.3040 C   0  0  0  0  0  0  0  0  0  0  0  0
  132.8890   78.0080  227.1980 C   0  0  0  0  0  0  0  0  0  0  0  0
  132.9590   76.6280  226.9840 C   0  0  0  0  0  0  0  0  0  0  0  0
  134.3330   76.0210  226.8710 C   0  0  0  0  0  0  0  0  0  0  0  0
  135.5940   75.7170  224.4240 N   0  0  0  0  0  0  0  0  0  0  0  0
  136.3660   75.6150  223.3270 C   0  0  0  0  0  0  0  0  0  0  0  0
  137.0270   76.7840  222.8530 N   0  0  0  0  0  0  0  0  0  0  0  0
  136.2170   77.9160  222.4470 C   0  0  0  0  0  0  0  0  0  0  0  0
  136.5410   79.0310  223.4460 C   0  0  0  0  0  0  0  0  0  0  0  0
  137.9910   79.3460  223.1790 C   0  0  0  0  0  0  0  0  0  0  0  0
  138.4000   80.6750  223.2670 C   0  0  0  0  0  0  0  0  0  0  0  0
  139.7410   80.9770  223.0240 C   0  0  0  0  0  0  0  0  0  0  0  0
  140.6270   79.9610  222.7010 C   0  0  0  0  0  0  0  0  0  0  0  0
  140.2060   78.6310  222.6150 C   0  0  0  0  0  0  0  0  0  0  0  0
  138.8780   78.3380  222.8590 C   0  0  0  0  0  0  0  0  0  0  0  0
  138.4520   76.9050  222.7590 C   0  0  0  0  0  0  0  0  0  0  0  0
  136.4860   74.4230  222.7170 N   0  0  0  0  0  0  0  0  0  0  0  0
  137.2790   69.1680  224.0550 C   0  0  0  0  0  0  0  0  0  0  0  0
  138.6020   69.6960  224.1420 N   0  0  0  0  0  0  0  0  0  0  0  0
  138.7070   71.1040  224.1370 C   0  0  0  0  0  0  0  0  0  0  0  0
  140.1240   71.5240  224.4590 C   0  0  0  0  0  0  0  0  0  0  0  0
  140.3720   71.0590  225.8510 C   0  0  0  0  0  0  0  0  0  0  0  0
  140.8690   71.8480  226.8470 C   0  0  0  0  0  0  0  0  0  0  0  0
  141.0590   71.2990  228.1060 C   0  0  0  0  0  0  0  0  0  0  0  0
  140.7460   69.9590  228.3500 C   0  0  0  0  0  0  0  0  0  0  0  0
  140.2390   69.1450  227.3420 C   0  0  0  0  0  0  0  0  0  0  0  0
  140.0600   69.7160  226.0990 C   0  0  0  0  0  0  0  0  0  0  0  0
  139.5240   68.9600  224.9350 C   0  0  0  0  0  0  0  0  0  0  0  0
  138.3390   70.1260  222.0270 H   0  0  0  0  0  0  0  0  0  0  0  0
  137.0690   69.7430  220.8740 H   0  0  0  0  0  0  0  0  0  0  0  0
  135.8669   68.8391  222.5059 H   0  0  0  0  0  0  0  0  0  0  0  0
  134.6276   70.6446  223.2601 H   0  0  0  0  0  0  0  0  0  0  0  0
  135.9918   71.1018  224.3643 H   0  0  0  0  0  0  0  0  0  0  0  0
  136.2720   71.9880  221.5060 H   0  0  0  0  0  0  0  0  0  0  0  0
  133.1499   73.0540  225.7094 H   0  0  0  0  0  0  0  0  0  0  0  0
  133.5064   73.4511  227.4565 H   0  0  0  0  0  0  0  0  0  0  0  0
  131.2312   74.1828  225.7463 H   0  0  0  0  0  0  0  0  0  0  0  0
  131.3709   73.9226  227.5385 H   0  0  0  0  0  0  0  0  0  0  0  0
  129.6935   75.8981  226.9040 H   0  0  0  0  0  0  0  0  0  0  0  0
  129.5220   78.3383  227.2840 H   0  0  0  0  0  0  0  0  0  0  0  0
  131.5895   79.6897  227.4737 H   0  0  0  0  0  0  0  0  0  0  0  0
  133.8080   78.6070  227.2803 H   0  0  0  0  0  0  0  0  0  0  0  0
  135.0212   76.7153  226.3667 H   0  0  0  0  0  0  0  0  0  0  0  0
  134.7688   75.8032  227.8572 H   0  0  0  0  0  0  0  0  0  0  0  0
  136.4775   78.2281  221.4249 H   0  0  0  0  0  0  0  0  0  0  0  0
  135.1448   77.6701  222.4438 H   0  0  0  0  0  0  0  0  0  0  0  0
  135.9092   79.9133  223.2664 H   0  0  0  0  0  0  0  0  0  0  0  0
  136.3563   78.7335  224.4888 H   0  0  0  0  0  0  0  0  0  0  0  0
  137.6822   81.4685  223.5222 H   0  0  0  0  0  0  0  0  0  0  0  0
  140.0933   82.0171  223.0886 H   0  0  0  0  0  0  0  0  0  0  0  0
  141.6819   80.2063  222.5086 H   0  0  0  0  0  0  0  0  0  0  0  0
  140.9182   77.8330  222.3580 H   0  0  0  0  0  0  0  0  0  0  0  0
  138.7844   76.4977  221.7928 H   0  0  0  0  0  0  0  0  0  0  0  0
  138.9063   76.3460  223.5903 H   0  0  0  0  0  0  0  0  0  0  0  0
  136.7367   69.4433  224.9715 H   0  0  0  0  0  0  0  0  0  0  0  0
  137.3804   68.0798  223.9306 H   0  0  0  0  0  0  0  0  0  0  0  0
  138.4323   71.4852  223.1424 H   0  0  0  0  0  0  0  0  0  0  0  0
  138.0288   71.5169  224.8983 H   0  0  0  0  0  0  0  0  0  0  0  0
  140.8325   71.0500  223.7637 H   0  0  0  0  0  0  0  0  0  0  0  0
  140.2583   72.6115  224.3628 H   0  0  0  0  0  0  0  0  0  0  0  0
  141.1150   72.9027  226.6543 H   0  0  0  0  0  0  0  0  0  0  0  0
  141.4591   71.9229  228.9188 H   0  0  0  0  0  0  0  0  0  0  0  0
  140.9030   69.5411  229.3553 H   0  0  0  0  0  0  0  0  0  0  0  0
  139.9911   68.0896  227.5285 H   0  0  0  0  0  0  0  0  0  0  0  0
  140.3692   68.6631  224.2966 H   0  0  0  0  0  0  0  0  0  0  0  0
  138.9761   68.0970  225.3412 H   0  0  0  0  0  0  0  0  0  0  0  0
  1  2  1  0
  2  3  1  0
  3  4  1  0
  4  5  1  0
  5  6  2  0
  6  7  1  0
  7  8  1  0
  8  9  1  0
  9 10  1  0
 10 11  1  0
 11 12  2  0
 12 13  1  0
 13 14  2  0
 14 15  1  0
 15 16  2  0
 16 17  1  0
  7 18  2  0
 18 19  1  0
 19 20  1  0
 20 21  1  0
 21 22  1  0
 22 23  1  0
 23 24  2  0
 24 25  1  0
 25 26  2  0
 26 27  1  0
 27 28  2  0
 28 29  1  0
 19 30  2  0
  2 31  1  0
 31 32  1  0
 32 33  1  0
 33 34  1  0
 34 35  1  0
 35 36  2  0
 36 37  1  0
 37 38  2  0
 38 39  1  0
 39 40  2  0
 40 41  1  0
 30  5  1  0
 41 32  1  0
 17  8  1  0
 29 20  1  0
 40 35  1  0
 16 11  1  0
 28 23  1  0
  1 42  1  0
  1 43  1  0
  2 44  1  6
  3 45  1  0
  3 46  1  0
  4 47  1  0
  9 48  1  0
  9 49  1  0
 10 50  1  0
 10 51  1  0
 12 52  1  0
 13 53  1  0
 14 54  1  0
 15 55  1  0
 17 56  1  0
 17 57  1  0
 21 58  1  0
 21 59  1  0
 22 60  1  0
 22 61  1  0
 24 62  1  0
 25 63  1  0
 26 64  1  0
 27 65  1  0
 29 66  1  0
 29 67  1  0
 31 68  1  0
 31 69  1  0
 33 70  1  0
 33 71  1  0
 34 72  1  0
 34 73  1  0
 36 74  1  0
 37 75  1  0
 38 76  1  0
 39 77  1  0
 41 78  1  0
 41 79  1  0
M  END
>  <smiles>  (12) 
NC(CNc1nc(N2CCc3ccccc3C2)nc(N2CCc3ccccc3C2)n1)CN1CCc2ccccc2C1

>  <score_type>  (12) 
oracle

>  <origin>  (12) 
autodockgpu

>  <m_score__min__energy>  (12) 
-11.49

>  <m_primary>  (12) 
energy

>  <rmsd>  (12) 
4.780517941823817

>  <m_score__min__rmsd>  (12) 
4.780517941823817

>  <meeko>  (12) 
{"free_energy": -8.96, "intermolecular_energy": -11.35, "internal_energy": -2.74, "cluster_size": 1, "cluster_id": 11, "rank_in_cluster": 1}

>  <energy>  (12) 
-10.87

>  <cluster_rmsd>  (12) 
0.0

>  <cluster>  (12) 
2

$$$$

     RDKit          3D

 79 85  0  0  1  0  0  0  0  0999 V2000
  136.5370   75.2330  223.6410 N   0  0  0  0  0  0  0  0  0  0  0  0
  135.2820   75.5910  223.0240 C   0  0  2  0  0  0  0  0  0  0  0  0
  135.0960   74.6370  221.8650 C   0  0  0  0  0  0  0  0  0  0  0  0
  136.1640   74.7740  220.8700 N   0  0  0  0  0  0  0  0  0  0  0  0
  137.4880   74.5110  221.3700 C   0  0  0  0  0  0  0  0  0  0  0  0
  137.8510   73.3020  221.8360 N   0  0  0  0  0  0  0  0  0  0  0  0
  139.1100   73.0800  222.3110 C   0  0  0  0  0  0  0  0  0  0  0  0
  139.5160   71.8090  222.8030 N   0  0  0  0  0  0  0  0  0  0  0  0
  138.7670   70.6210  222.5350 C   0  0  0  0  0  0  0  0  0  0  0  0
  138.3710   69.8800  223.7640 C   0  0  0  0  0  0  0  0  0  0  0  0
  139.2260   70.2160  224.9130 C   0  0  0  0  0  0  0  0  0  0  0  0
  138.9160   69.6380  226.1310 C   0  0  0  0  0  0  0  0  0  0  0  0
  139.6530   69.8810  227.2820 C   0  0  0  0  0  0  0  0  0  0  0  0
  140.7300   70.7270  227.2110 C   0  0  0  0  0  0  0  0  0  0  0  0
  141.0750   71.3230  226.0230 C   0  0  0  0  0  0  0  0  0  0  0  0
  140.3100   71.0560  224.8830 C   0  0  0  0  0  0  0  0  0  0  0  0
  140.7250   71.7370  223.6050 C   0  0  0  0  0  0  0  0  0  0  0  0
  139.9960   74.0800  222.3130 N   0  0  0  0  0  0  0  0  0  0  0  0
  139.6650   75.2990  221.8530 C   0  0  0  0  0  0  0  0  0  0  0  0
  140.6520   76.3250  221.8810 N   0  0  0  0  0  0  0  0  0  0  0  0
  141.4250   76.5700  220.6790 C   0  0  0  0  0  0  0  0  0  0  0  0
  141.0340   77.9790  220.2210 C   0  0  0  0  0  0  0  0  0  0  0  0
  141.5440   78.8730  221.3210 C   0  0  0  0  0  0  0  0  0  0  0  0
  142.0710   80.1130  220.9680 C   0  0  0  0  0  0  0  0  0  0  0  0
  142.5450   80.9490  221.9800 C   0  0  0  0  0  0  0  0  0  0  0  0
  142.4840   80.5320  223.3010 C   0  0  0  0  0  0  0  0  0  0  0  0
  141.9540   79.2860  223.6450 C   0  0  0  0  0  0  0  0  0  0  0  0
  141.4860   78.4640  222.6390 C   0  0  0  0  0  0  0  0  0  0  0  0
  140.9230   77.1320  223.0340 C   0  0  0  0  0  0  0  0  0  0  0  0
  138.4210   75.5100  221.3870 N   0  0  0  0  0  0  0  0  0  0  0  0
  135.2990   76.9890  222.4620 C   0  0  0  0  0  0  0  0  0  0  0  0
  136.5740   77.4100  221.9780 N   0  0  0  0  0  0  0  0  0  0  0  0
  136.5790   78.0320  220.7100 C   0  0  0  0  0  0  0  0  0  0  0  0
  137.9420   78.6230  220.4230 C   0  0  0  0  0  0  0  0  0  0  0  0
  138.1400   79.6850  221.4480 C   0  0  0  0  0  0  0  0  0  0  0  0
  138.5210   80.9650  221.1630 C   0  0  0  0  0  0  0  0  0  0  0  0
  138.6760   81.8660  222.2060 C   0  0  0  0  0  0  0  0  0  0  0  0
  138.4450   81.4690  223.5260 C   0  0  0  0  0  0  0  0  0  0  0  0
  138.0560   80.1670  223.8280 C   0  0  0  0  0  0  0  0  0  0  0  0
  137.9100   79.2910  222.7720 C   0  0  0  0  0  0  0  0  0  0  0  0
  137.4980   77.8740  222.9530 C   0  0  0  0  0  0  0  0  0  0  0  0
  136.6770   74.2270  223.7530 H   0  0  0  0  0  0  0  0  0  0  0  0
  137.3380   75.7830  223.2720 H   0  0  0  0  0  0  0  0  0  0  0  0
  134.4812   75.5391  223.7763 H   0  0  0  0  0  0  0  0  0  0  0  0
  135.0970   73.6061  222.2488 H   0  0  0  0  0  0  0  0  0  0  0  0
  134.1402   74.8759  221.3757 H   0  0  0  0  0  0  0  0  0  0  0  0
  135.9800   75.0400  219.8800 H   0  0  0  0  0  0  0  0  0  0  0  0
  137.8547   70.9004  221.9875 H   0  0  0  0  0  0  0  0  0  0  0  0
  139.4164   69.9537  221.9494 H   0  0  0  0  0  0  0  0  0  0  0  0
  137.3295   70.1336  224.0109 H   0  0  0  0  0  0  0  0  0  0  0  0
  138.4830   68.8046  223.5617 H   0  0  0  0  0  0  0  0  0  0  0  0
  138.0521   68.9596  226.1897 H   0  0  0  0  0  0  0  0  0  0  0  0
  139.3780   69.4035  228.2340 H   0  0  0  0  0  0  0  0  0  0  0  0
  141.3234   70.9302  228.1147 H   0  0  0  0  0  0  0  0  0  0  0  0
  141.9401   72.0003  225.9687 H   0  0  0  0  0  0  0  0  0  0  0  0
  141.1108   72.7459  223.8130 H   0  0  0  0  0  0  0  0  0  0  0  0
  141.5287   71.1906  223.0897 H   0  0  0  0  0  0  0  0  0  0  0  0
  142.5019   76.5220  220.8980 H   0  0  0  0  0  0  0  0  0  0  0  0
  141.2220   75.8175  219.9028 H   0  0  0  0  0  0  0  0  0  0  0  0
  141.5135   78.2259  219.2623 H   0  0  0  0  0  0  0  0  0  0  0  0
  139.9518   78.0858  220.0554 H   0  0  0  0  0  0  0  0  0  0  0  0
  142.1127   80.4266  219.9145 H   0  0  0  0  0  0  0  0  0  0  0  0
  142.9652   81.9345  221.7307 H   0  0  0  0  0  0  0  0  0  0  0  0
  142.8603   81.1953  224.0937 H   0  0  0  0  0  0  0  0  0  0  0  0
  141.9104   78.9661  224.6965 H   0  0  0  0  0  0  0  0  0  0  0  0
  141.6492   76.6107  223.6750 H   0  0  0  0  0  0  0  0  0  0  0  0
  139.9795   77.2975  223.5748 H   0  0  0  0  0  0  0  0  0  0  0  0
  134.5817   77.0347  221.6293 H   0  0  0  0  0  0  0  0  0  0  0  0
  135.0360   77.6651  223.2889 H   0  0  0  0  0  0  0  0  0  0  0  0
  136.3366   77.2863  219.9386 H   0  0  0  0  0  0  0  0  0  0  0  0
  135.8298   78.8374  220.7025 H   0  0  0  0  0  0  0  0  0  0  0  0
  138.7217   77.8522  220.5127 H   0  0  0  0  0  0  0  0  0  0  0  0
  138.0049   79.0257  219.4013 H   0  0  0  0  0  0  0  0  0  0  0  0
  138.7019   81.2763  220.1236 H   0  0  0  0  0  0  0  0  0  0  0  0
  138.9830   82.9006  221.9927 H   0  0  0  0  0  0  0  0  0  0  0  0
  138.5728   82.1977  224.3400 H   0  0  0  0  0  0  0  0  0  0  0  0
  137.8727   79.8498  224.8652 H   0  0  0  0  0  0  0  0  0  0  0  0
  138.3980   77.2435  222.9039 H   0  0  0  0  0  0  0  0  0  0  0  0
  136.9896   77.8130  223.9266 H   0  0  0  0  0  0  0  0  0  0  0  0
  1  2  1  0
  2  3  1  0
  3  4  1  0
  4  5  1  0
  5  6  2  0
  6  7  1  0
  7  8  1  0
  8  9  1  0
  9 10  1  0
 10 11  1  0
 11 12  2  0
 12 13  1  0
 13 14  2  0
 14 15  1  0
 15 16  2  0
 16 17  1  0
  7 18  2  0
 18 19  1  0
 19 20  1  0
 20 21  1  0
 21 22  1  0
 22 23  1  0
 23 24  2  0
 24 25  1  0
 25 26  2  0
 26 27  1  0
 27 28  2  0
 28 29  1  0
 19 30  2  0
  2 31  1  0
 31 32  1  0
 32 33  1  0
 33 34  1  0
 34 35  1  0
 35 36  2  0
 36 37  1  0
 37 38  2  0
 38 39  1  0
 39 40  2  0
 40 41  1  0
 30  5  1  0
 41 32  1  0
 17  8  1  0
 29 20  1  0
 40 35  1  0
 16 11  1  0
 28 23  1  0
  1 42  1  0
  1 43  1  0
  2 44  1  1
  3 45  1  0
  3 46  1  0
  4 47  1  0
  9 48  1  0
  9 49  1  0
 10 50  1  0
 10 51  1  0
 12 52  1  0
 13 53  1  0
 14 54  1  0
 15 55  1  0
 17 56  1  0
 17 57  1  0
 21 58  1  0
 21 59  1  0
 22 60  1  0
 22 61  1  0
 24 62  1  0
 25 63  1  0
 26 64  1  0
 27 65  1  0
 29 66  1  0
 29 67  1  0
 31 68  1  0
 31 69  1  0
 33 70  1  0
 33 71  1  0
 34 72  1  0
 34 73  1  0
 36 74  1  0
 37 75  1  0
 38 76  1  0
 39 77  1  0
 41 78  1  0
 41 79  1  0
M  END
>  <smiles>  (13) 
NC(CNc1nc(N2CCc3ccccc3C2)nc(N2CCc3ccccc3C2)n1)CN1CCc2ccccc2C1

>  <score_type>  (13) 
oracle

>  <origin>  (13) 
autodockgpu

>  <m_score__min__energy>  (13) 
-11.49

>  <m_primary>  (13) 
energy

>  <rmsd>  (13) 
10.238098362280706

>  <m_score__min__rmsd>  (13) 
10.238098362280706

>  <meeko>  (13) 
{"free_energy": -8.71, "intermolecular_energy": -11.09, "internal_energy": -4.56, "cluster_size": 3, "cluster_id": 12, "rank_in_cluster": 2}

>  <energy>  (13) 
-10.51

>  <cluster_rmsd>  (13) 
1.1

>  <cluster>  (13) 
2

$$$$

     RDKit          3D

 79 85  0  0  1  0  0  0  0  0999 V2000
  143.3530   76.4400  220.0710 N   0  0  0  0  0  0  0  0  0  0  0  0
  142.3180   75.8750  219.2370 C   0  0  2  0  0  0  0  0  0  0  0  0
  141.0890   75.7600  220.1110 C   0  0  0  0  0  0  0  0  0  0  0  0
  141.3990   75.1510  221.4080 N   0  0  0  0  0  0  0  0  0  0  0  0
  141.0900   73.7480  221.5040 C   0  0  0  0  0  0  0  0  0  0  0  0
  141.1720   72.9230  220.4430 N   0  0  0  0  0  0  0  0  0  0  0  0
  140.8660   71.5990  220.5580 C   0  0  0  0  0  0  0  0  0  0  0  0
  140.9520   70.7080  219.4530 N   0  0  0  0  0  0  0  0  0  0  0  0
  139.7870   70.1520  218.8390 C   0  0  0  0  0  0  0  0  0  0  0  0
  139.7980   68.6640  218.7860 C   0  0  0  0  0  0  0  0  0  0  0  0
  141.1570   68.1150  218.8950 C   0  0  0  0  0  0  0  0  0  0  0  0
  141.2920   66.7380  218.9230 C   0  0  0  0  0  0  0  0  0  0  0  0
  142.5250   66.1100  219.0220 C   0  0  0  0  0  0  0  0  0  0  0  0
  143.6560   66.8820  219.0960 C   0  0  0  0  0  0  0  0  0  0  0  0
  143.5710   68.2520  219.0720 C   0  0  0  0  0  0  0  0  0  0  0  0
  142.3120   68.8520  218.9710 C   0  0  0  0  0  0  0  0  0  0  0  0
  142.2700   70.3580  218.9540 C   0  0  0  0  0  0  0  0  0  0  0  0
  140.4780   71.1150  221.7410 N   0  0  0  0  0  0  0  0  0  0  0  0
  140.3860   71.9140  222.8190 C   0  0  0  0  0  0  0  0  0  0  0  0
  139.9660   71.3400  224.0530 N   0  0  0  0  0  0  0  0  0  0  0  0
  138.7800   70.5070  224.0560 C   0  0  0  0  0  0  0  0  0  0  0  0
  139.2680   69.0990  224.4150 C   0  0  0  0  0  0  0  0  0  0  0  0
  139.7710   69.2400  225.8290 C   0  0  0  0  0  0  0  0  0  0  0  0
  139.5600   68.1810  226.7080 C   0  0  0  0  0  0  0  0  0  0  0  0
  140.0230   68.3010  228.0200 C   0  0  0  0  0  0  0  0  0  0  0  0
  140.6740   69.4580  228.4160 C   0  0  0  0  0  0  0  0  0  0  0  0
  140.8810   70.5150  227.5250 C   0  0  0  0  0  0  0  0  0  0  0  0
  140.4220   70.3900  226.2290 C   0  0  0  0  0  0  0  0  0  0  0  0
  140.6550   71.5380  225.2940 C   0  0  0  0  0  0  0  0  0  0  0  0
  140.6890   73.2170  222.6980 N   0  0  0  0  0  0  0  0  0  0  0  0
  142.6640   74.4890  218.7570 C   0  0  0  0  0  0  0  0  0  0  0  0
  143.9880   74.0690  219.0870 N   0  0  0  0  0  0  0  0  0  0  0  0
  144.1170   73.3170  220.2760 C   0  0  0  0  0  0  0  0  0  0  0  0
  145.5160   72.7510  220.3860 C   0  0  0  0  0  0  0  0  0  0  0  0
  145.6580   71.8110  219.2400 C   0  0  0  0  0  0  0  0  0  0  0  0
  146.0980   70.5240  219.3530 C   0  0  0  0  0  0  0  0  0  0  0  0
  146.1910   69.7440  218.2100 C   0  0  0  0  0  0  0  0  0  0  0  0
  145.8370   70.2690  216.9640 C   0  0  0  0  0  0  0  0  0  0  0  0
  145.3870   71.5790  216.8370 C   0  0  0  0  0  0  0  0  0  0  0  0
  145.3050   72.3330  217.9900 C   0  0  0  0  0  0  0  0  0  0  0  0
  144.8380   73.7450  217.9960 C   0  0  0  0  0  0  0  0  0  0  0  0
  143.9960   75.7520  220.4650 H   0  0  0  0  0  0  0  0  0  0  0  0
  143.7730   77.3000  219.6650 H   0  0  0  0  0  0  0  0  0  0  0  0
  142.1768   76.5138  218.3527 H   0  0  0  0  0  0  0  0  0  0  0  0
  140.6763   76.7657  220.2793 H   0  0  0  0  0  0  0  0  0  0  0  0
  140.3617   75.1156  219.5955 H   0  0  0  0  0  0  0  0  0  0  0  0
  141.8110   75.6890  222.1990 H   0  0  0  0  0  0  0  0  0  0  0  0
  138.9043   70.4738  219.4112 H   0  0  0  0  0  0  0  0  0  0  0  0
  139.7643   70.5132  217.8003 H   0  0  0  0  0  0  0  0  0  0  0  0
  139.1911   68.2754  219.6171 H   0  0  0  0  0  0  0  0  0  0  0  0
  139.3869   68.3575  217.8128 H   0  0  0  0  0  0  0  0  0  0  0  0
  140.3860   66.1170  218.8645 H   0  0  0  0  0  0  0  0  0  0  0  0
  142.5942   65.0123  219.0408 H   0  0  0  0  0  0  0  0  0  0  0  0
  144.6410   66.3988  219.1753 H   0  0  0  0  0  0  0  0  0  0  0  0
  144.4799   68.8687  219.1314 H   0  0  0  0  0  0  0  0  0  0  0  0
  143.0522   70.7731  219.6066 H   0  0  0  0  0  0  0  0  0  0  0  0
  142.4491   70.7629  217.9470 H   0  0  0  0  0  0  0  0  0  0  0  0
  138.0597   70.8667  224.8055 H   0  0  0  0  0  0  0  0  0  0  0  0
  138.2668   70.5249  223.0832 H   0  0  0  0  0  0  0  0  0  0  0  0
  138.4427   68.3736  224.3636 H   0  0  0  0  0  0  0  0  0  0  0  0
  140.0402   68.7285  223.7247 H   0  0  0  0  0  0  0  0  0  0  0  0
  139.0402   67.2701  226.3763 H   0  0  0  0  0  0  0  0  0  0  0  0
  139.8714   67.4800  228.7363 H   0  0  0  0  0  0  0  0  0  0  0  0
  141.0349   69.5466  229.4513 H   0  0  0  0  0  0  0  0  0  0  0  0
  141.3997   71.4289  227.8502 H   0  0  0  0  0  0  0  0  0  0  0  0
  140.2907   72.4636  225.7636 H   0  0  0  0  0  0  0  0  0  0  0  0
  141.7333   71.6078  225.0880 H   0  0  0  0  0  0  0  0  0  0  0  0
  141.9545   73.7802  219.2090 H   0  0  0  0  0  0  0  0  0  0  0  0
  142.6036   74.5105  217.6589 H   0  0  0  0  0  0  0  0  0  0  0  0
  143.9189   73.9674  221.1408 H   0  0  0  0  0  0  0  0  0  0  0  0
  143.3944   72.4879  220.2570 H   0  0  0  0  0  0  0  0  0  0  0  0
  146.2625   73.5560  220.3173 H   0  0  0  0  0  0  0  0  0  0  0  0
  145.6763   72.2455  221.3497 H   0  0  0  0  0  0  0  0  0  0  0  0
  146.3744   70.1120  220.3348 H   0  0  0  0  0  0  0  0  0  0  0  0
  146.5457   68.7054  218.2846 H   0  0  0  0  0  0  0  0  0  0  0  0
  145.9156   69.6353  216.0683 H   0  0  0  0  0  0  0  0  0  0  0  0
  145.1081   71.9966  215.8583 H   0  0  0  0  0  0  0  0  0  0  0  0
  145.7202   74.4007  218.0386 H   0  0  0  0  0  0  0  0  0  0  0  0
  144.2469   73.8880  217.0794 H   0  0  0  0  0  0  0  0  0  0  0  0
  1  2  1  0
  2  3  1  0
  3  4  1  0
  4  5  1  0
  5  6  2  0
  6  7  1  0
  7  8  1  0
  8  9  1  0
  9 10  1  0
 10 11  1  0
 11 12  2  0
 12 13  1  0
 13 14  2  0
 14 15  1  0
 15 16  2  0
 16 17  1  0
  7 18  2  0
 18 19  1  0
 19 20  1  0
 20 21  1  0
 21 22  1  0
 22 23  1  0
 23 24  2  0
 24 25  1  0
 25 26  2  0
 26 27  1  0
 27 28  2  0
 28 29  1  0
 19 30  2  0
  2 31  1  0
 31 32  1  0
 32 33  1  0
 33 34  1  0
 34 35  1  0
 35 36  2  0
 36 37  1  0
 37 38  2  0
 38 39  1  0
 39 40  2  0
 40 41  1  0
 30  5  1  0
 41 32  1  0
 17  8  1  0
 29 20  1  0
 40 35  1  0
 16 11  1  0
 28 23  1  0
  1 42  1  0
  1 43  1  0
  2 44  1  6
  3 45  1  0
  3 46  1  0
  4 47  1  0
  9 48  1  0
  9 49  1  0
 10 50  1  0
 10 51  1  0
 12 52  1  0
 13 53  1  0
 14 54  1  0
 15 55  1  0
 17 56  1  0
 17 57  1  0
 21 58  1  0
 21 59  1  0
 22 60  1  0
 22 61  1  0
 24 62  1  0
 25 63  1  0
 26 64  1  0
 27 65  1  0
 29 66  1  0
 29 67  1  0
 31 68  1  0
 31 69  1  0
 33 70  1  0
 33 71  1  0
 34 72  1  0
 34 73  1  0
 36 74  1  0
 37 75  1  0
 38 76  1  0
 39 77  1  0
 41 78  1  0
 41 79  1  0
M  END
>  <smiles>  (14) 
NC(CNc1nc(N2CCc3ccccc3C2)nc(N2CCc3ccccc3C2)n1)CN1CCc2ccccc2C1

>  <score_type>  (14) 
oracle

>  <origin>  (14) 
autodockgpu

>  <m_score__min__energy>  (14) 
-11.49

>  <m_primary>  (14) 
energy

>  <rmsd>  (14) 
8.191164295681997

>  <m_score__min__rmsd>  (14) 
8.191164295681997

>  <meeko>  (14) 
{"free_energy": -9.13, "intermolecular_energy": -11.52, "internal_energy": -3.36, "cluster_size": 11, "cluster_id": 1, "rank_in_cluster": 11}

>  <energy>  (14) 
-10.43

>  <cluster_rmsd>  (14) 
1.28

>  <cluster>  (14) 
2

$$$$

     RDKit          3D

 79 85  0  0  1  0  0  0  0  0999 V2000
  139.1160   75.6700  218.5340 N   0  0  0  0  0  0  0  0  0  0  0  0
  140.2660   74.9400  219.0110 C   0  0  2  0  0  0  0  0  0  0  0  0
  139.7250   73.6980  219.6860 C   0  0  0  0  0  0  0  0  0  0  0  0
  138.3540   73.8930  220.1660 N   0  0  0  0  0  0  0  0  0  0  0  0
  138.0340   73.1870  221.3790 C   0  0  0  0  0  0  0  0  0  0  0  0
  138.8760   72.2930  221.9290 N   0  0  0  0  0  0  0  0  0  0  0  0
  138.5470   71.6310  223.0750 C   0  0  0  0  0  0  0  0  0  0  0  0
  139.4230   70.6860  223.6770 N   0  0  0  0  0  0  0  0  0  0  0  0
  139.1870   69.2780  223.5950 C   0  0  0  0  0  0  0  0  0  0  0  0
  139.1320   68.6080  224.9230 C   0  0  0  0  0  0  0  0  0  0  0  0
  139.8120   69.3890  225.9670 C   0  0  0  0  0  0  0  0  0  0  0  0
  139.7740   68.9000  227.2600 C   0  0  0  0  0  0  0  0  0  0  0  0
  140.3810   69.5520  228.3240 C   0  0  0  0  0  0  0  0  0  0  0  0
  141.0460   70.7280  228.0860 C   0  0  0  0  0  0  0  0  0  0  0  0
  141.1100   71.2520  226.8190 C   0  0  0  0  0  0  0  0  0  0  0  0
  140.4870   70.5680  225.7700 C   0  0  0  0  0  0  0  0  0  0  0  0
  140.5800   71.1850  224.3990 C   0  0  0  0  0  0  0  0  0  0  0  0
  137.3710   71.8760  223.6600 N   0  0  0  0  0  0  0  0  0  0  0  0
  136.5090   72.7650  223.1350 C   0  0  0  0  0  0  0  0  0  0  0  0
  135.2700   72.9820  223.8040 N   0  0  0  0  0  0  0  0  0  0  0  0
  134.3030   71.9030  223.8300 C   0  0  0  0  0  0  0  0  0  0  0  0
  134.1830   71.4960  225.3030 C   0  0  0  0  0  0  0  0  0  0  0  0
  133.5800   72.7090  225.9650 C   0  0  0  0  0  0  0  0  0  0  0  0
  132.6590   72.5070  226.9900 C   0  0  0  0  0  0  0  0  0  0  0  0
  132.0960   73.6230  227.6100 C   0  0  0  0  0  0  0  0  0  0  0  0
  132.4600   74.8950  227.1970 C   0  0  0  0  0  0  0  0  0  0  0  0
  133.3850   75.0870  226.1680 C   0  0  0  0  0  0  0  0  0  0  0  0
  133.9390   73.9790  225.5580 C   0  0  0  0  0  0  0  0  0  0  0  0
  134.9270   74.2110  224.4560 C   0  0  0  0  0  0  0  0  0  0  0  0
  136.8400   73.4120  222.0050 N   0  0  0  0  0  0  0  0  0  0  0  0
  141.0470   75.7120  220.0430 C   0  0  0  0  0  0  0  0  0  0  0  0
  140.2930   76.7230  220.7120 N   0  0  0  0  0  0  0  0  0  0  0  0
  139.9170   76.4340  222.0420 C   0  0  0  0  0  0  0  0  0  0  0  0
  139.3280   77.6640  222.6980 C   0  0  0  0  0  0  0  0  0  0  0  0
  140.4350   78.6580  222.7480 C   0  0  0  0  0  0  0  0  0  0  0  0
  140.8040   79.3400  223.8710 C   0  0  0  0  0  0  0  0  0  0  0  0
  141.8520   80.2450  223.7920 C   0  0  0  0  0  0  0  0  0  0  0  0
  142.5180   80.4540  222.5810 C   0  0  0  0  0  0  0  0  0  0  0  0
  142.1510   79.7650  221.4300 C   0  0  0  0  0  0  0  0  0  0  0  0
  141.1050   78.8710  221.5360 C   0  0  0  0  0  0  0  0  0  0  0  0
  140.6120   78.0680  220.3850 C   0  0  0  0  0  0  0  0  0  0  0  0
  138.3970   75.0860  218.1030 H   0  0  0  0  0  0  0  0  0  0  0  0
  138.7940   76.3980  219.2030 H   0  0  0  0  0  0  0  0  0  0  0  0
  140.9380   74.7313  218.1655 H   0  0  0  0  0  0  0  0  0  0  0  0
  139.7350   72.8676  218.9646 H   0  0  0  0  0  0  0  0  0  0  0  0
  140.3628   73.4752  220.5541 H   0  0  0  0  0  0  0  0  0  0  0  0
  137.6640   74.4960  219.6690 H   0  0  0  0  0  0  0  0  0  0  0  0
  138.2275   69.1149  223.0825 H   0  0  0  0  0  0  0  0  0  0  0  0
  140.0328   68.8391  223.0454 H   0  0  0  0  0  0  0  0  0  0  0  0
  138.0783   68.4752  225.2095 H   0  0  0  0  0  0  0  0  0  0  0  0
  139.6476   67.6403  224.8350 H   0  0  0  0  0  0  0  0  0  0  0  0
  139.2416   67.9569  227.4527 H   0  0  0  0  0  0  0  0  0  0  0  0
  140.3298   69.1334  229.3400 H   0  0  0  0  0  0  0  0  0  0  0  0
  141.5329   71.2564  228.9189 H   0  0  0  0  0  0  0  0  0  0  0  0
  141.6432   72.1957  226.6314 H   0  0  0  0  0  0  0  0  0  0  0  0
  140.5483   72.2824  224.4670 H   0  0  0  0  0  0  0  0  0  0  0  0
  141.5224   70.9254  223.8946 H   0  0  0  0  0  0  0  0  0  0  0  0
  133.3316   72.2480  223.4461 H   0  0  0  0  0  0  0  0  0  0  0  0
  134.6160   71.0591  223.1977 H   0  0  0  0  0  0  0  0  0  0  0  0
  133.5256   70.6212  225.4152 H   0  0  0  0  0  0  0  0  0  0  0  0
  135.1485   71.2074  225.7439 H   0  0  0  0  0  0  0  0  0  0  0  0
  132.3815   71.4899  227.3039 H   0  0  0  0  0  0  0  0  0  0  0  0
  131.3664   73.4939  228.4230 H   0  0  0  0  0  0  0  0  0  0  0  0
  132.0117   75.7706  227.6893 H   0  0  0  0  0  0  0  0  0  0  0  0
  133.6667   76.1016  225.8497 H   0  0  0  0  0  0  0  0  0  0  0  0
  134.4876   74.8986  223.7184 H   0  0  0  0  0  0  0  0  0  0  0  0
  135.8405   74.6429  224.8907 H   0  0  0  0  0  0  0  0  0  0  0  0
  141.4176   75.0022  220.7972 H   0  0  0  0  0  0  0  0  0  0  0  0
  141.8581   76.2258  219.5063 H   0  0  0  0  0  0  0  0  0  0  0  0
  139.1676   75.6288  222.0409 H   0  0  0  0  0  0  0  0  0  0  0  0
  140.8071   76.1181  222.6059 H   0  0  0  0  0  0  0  0  0  0  0  0
  138.4891   78.0528  222.1022 H   0  0  0  0  0  0  0  0  0  0  0  0
  138.9338   77.4421  223.7007 H   0  0  0  0  0  0  0  0  0  0  0  0
  140.2788   79.1746  224.8233 H   0  0  0  0  0  0  0  0  0  0  0  0
  142.1612   80.8022  224.6886 H   0  0  0  0  0  0  0  0  0  0  0  0
  143.3468   81.1760  222.5376 H   0  0  0  0  0  0  0  0  0  0  0  0
  142.6727   79.9259  220.4750 H   0  0  0  0  0  0  0  0  0  0  0  0
  139.7069   78.5514  219.9887 H   0  0  0  0  0  0  0  0  0  0  0  0
  141.4295   78.0310  219.6500 H   0  0  0  0  0  0  0  0  0  0  0  0
  1  2  1  0
  2  3  1  0
  3  4  1  0
  4  5  1  0
  5  6  2  0
  6  7  1  0
  7  8  1  0
  8  9  1  0
  9 10  1  0
 10 11  1  0
 11 12  2  0
 12 13  1  0
 13 14  2  0
 14 15  1  0
 15 16  2  0
 16 17  1  0
  7 18  2  0
 18 19  1  0
 19 20  1  0
 20 21  1  0
 21 22  1  0
 22 23  1  0
 23 24  2  0
 24 25  1  0
 25 26  2  0
 26 27  1  0
 27 28  2  0
 28 29  1  0
 19 30  2  0
  2 31  1  0
 31 32  1  0
 32 33  1  0
 33 34  1  0
 34 35  1  0
 35 36  2  0
 36 37  1  0
 37 38  2  0
 38 39  1  0
 39 40  2  0
 40 41  1  0
 30  5  1  0
 41 32  1  0
 17  8  1  0
 29 20  1  0
 40 35  1  0
 16 11  1  0
 28 23  1  0
  1 42  1  0
  1 43  1  0
  2 44  1  6
  3 45  1  0
  3 46  1  0
  4 47  1  0
  9 48  1  0
  9 49  1  0
 10 50  1  0
 10 51  1  0
 12 52  1  0
 13 53  1  0
 14 54  1  0
 15 55  1  0
 17 56  1  0
 17 57  1  0
 21 58  1  0
 21 59  1  0
 22 60  1  0
 22 61  1  0
 24 62  1  0
 25 63  1  0
 26 64  1  0
 27 65  1  0
 29 66  1  0
 29 67  1  0
 31 68  1  0
 31 69  1  0
 33 70  1  0
 33 71  1  0
 34 72  1  0
 34 73  1  0
 36 74  1  0
 37 75  1  0
 38 76  1  0
 39 77  1  0
 41 78  1  0
 41 79  1  0
M  END
>  <smiles>  (15) 
NC(CNc1nc(N2CCc3ccccc3C2)nc(N2CCc3ccccc3C2)n1)CN1CCc2ccccc2C1

>  <score_type>  (15) 
oracle

>  <origin>  (15) 
autodockgpu

>  <m_score__min__energy>  (15) 
-11.49

>  <m_primary>  (15) 
energy

>  <rmsd>  (15) 
8.990350968756694

>  <m_score__min__rmsd>  (15) 
8.990350968756694

>  <meeko>  (15) 
{"free_energy": -9.55, "intermolecular_energy": -11.94, "internal_energy": -2.88, "cluster_size": 12, "cluster_id": 2, "rank_in_cluster": 8}

>  <energy>  (15) 
-10.39

>  <cluster_rmsd>  (15) 
1.3

>  <cluster>  (15) 
2

$$$$

     RDKit          3D

 79 85  0  0  1  0  0  0  0  0999 V2000
  137.7840   74.5780  222.3650 N   0  0  0  0  0  0  0  0  0  0  0  0
  138.0690   75.7830  221.6230 C   0  0  2  0  0  0  0  0  0  0  0  0
  139.0270   75.3830  220.5220 C   0  0  0  0  0  0  0  0  0  0  0  0
  140.3500   75.0380  221.0510 N   0  0  0  0  0  0  0  0  0  0  0  0
  140.5510   73.6350  221.3040 C   0  0  0  0  0  0  0  0  0  0  0  0
  141.0750   72.8100  220.3800 N   0  0  0  0  0  0  0  0  0  0  0  0
  141.2480   71.4820  220.6400 C   0  0  0  0  0  0  0  0  0  0  0  0
  141.8060   70.5930  219.6810 N   0  0  0  0  0  0  0  0  0  0  0  0
  141.2410   69.3040  219.4280 C   0  0  0  0  0  0  0  0  0  0  0  0
  142.2150   68.1890  219.5850 C   0  0  0  0  0  0  0  0  0  0  0  0
  143.6070   68.6460  219.4640 C   0  0  0  0  0  0  0  0  0  0  0  0
  144.6070   67.7110  219.6550 C   0  0  0  0  0  0  0  0  0  0  0  0
  145.9550   68.0290  219.5640 C   0  0  0  0  0  0  0  0  0  0  0  0
  146.3110   69.3210  219.2730 C   0  0  0  0  0  0  0  0  0  0  0  0
  145.3520   70.2840  219.0760 C   0  0  0  0  0  0  0  0  0  0  0  0
  144.0040   69.9280  219.1750 C   0  0  0  0  0  0  0  0  0  0  0  0
  142.9890   71.0200  218.9550 C   0  0  0  0  0  0  0  0  0  0  0  0
  140.8910   70.9960  221.8320 N   0  0  0  0  0  0  0  0  0  0  0  0
  140.3640   71.7950  222.7760 C   0  0  0  0  0  0  0  0  0  0  0  0
  140.0020   71.2180  224.0270 N   0  0  0  0  0  0  0  0  0  0  0  0
  138.8360   70.3580  224.0760 C   0  0  0  0  0  0  0  0  0  0  0  0
  139.3700   68.9640  224.4230 C   0  0  0  0  0  0  0  0  0  0  0  0
  139.9190   69.1230  225.8180 C   0  0  0  0  0  0  0  0  0  0  0  0
  139.7630   68.0640  226.7090 C   0  0  0  0  0  0  0  0  0  0  0  0
  140.2700   68.2010  228.0030 C   0  0  0  0  0  0  0  0  0  0  0  0
  140.9080   69.3760  228.3700 C   0  0  0  0  0  0  0  0  0  0  0  0
  141.0580   70.4330  227.4680 C   0  0  0  0  0  0  0  0  0  0  0  0
  140.5560   70.2900  226.1890 C   0  0  0  0  0  0  0  0  0  0  0  0
  140.7290   71.4390  225.2420 C   0  0  0  0  0  0  0  0  0  0  0  0
  140.1960   73.1020  222.5110 N   0  0  0  0  0  0  0  0  0  0  0  0
  138.7580   76.8250  222.4660 C   0  0  0  0  0  0  0  0  0  0  0  0
  139.8550   77.4710  221.8190 N   0  0  0  0  0  0  0  0  0  0  0  0
  139.5200   78.5210  220.9370 C   0  0  0  0  0  0  0  0  0  0  0  0
  140.7680   79.2550  220.5000 C   0  0  0  0  0  0  0  0  0  0  0  0
  141.3250   79.8670  221.7380 C   0  0  0  0  0  0  0  0  0  0  0  0
  141.6790   81.1800  221.8530 C   0  0  0  0  0  0  0  0  0  0  0  0
  142.1900   81.6340  223.0600 C   0  0  0  0  0  0  0  0  0  0  0  0
  142.3380   80.7590  224.1400 C   0  0  0  0  0  0  0  0  0  0  0  0
  141.9800   79.4190  224.0350 C   0  0  0  0  0  0  0  0  0  0  0  0
  141.4750   78.9940  222.8230 C   0  0  0  0  0  0  0  0  0  0  0  0
  141.0520   77.5900  222.5750 C   0  0  0  0  0  0  0  0  0  0  0  0
  138.6150   74.0840  222.6980 H   0  0  0  0  0  0  0  0  0  0  0  0
  137.0040   74.6970  223.0410 H   0  0  0  0  0  0  0  0  0  0  0  0
  137.1252   76.2139  221.2574 H   0  0  0  0  0  0  0  0  0  0  0  0
  138.6166   74.5106  219.9923 H   0  0  0  0  0  0  0  0  0  0  0  0
  139.1432   76.2395  219.8417 H   0  0  0  0  0  0  0  0  0  0  0  0
  141.0880   75.7520  221.2300 H   0  0  0  0  0  0  0  0  0  0  0  0
  140.4109   69.1432  220.1316 H   0  0  0  0  0  0  0  0  0  0  0  0
  140.9061   69.2968  218.3802 H   0  0  0  0  0  0  0  0  0  0  0  0
  142.0763   67.7347  220.5772 H   0  0  0  0  0  0  0  0  0  0  0  0
  142.0276   67.4614  218.7816 H   0  0  0  0  0  0  0  0  0  0  0  0
  144.3233   66.6741  219.8883 H   0  0  0  0  0  0  0  0  0  0  0  0
  146.7239   67.2585  219.7224 H   0  0  0  0  0  0  0  0  0  0  0  0
  147.3752   69.5886  219.1966 H   0  0  0  0  0  0  0  0  0  0  0  0
  145.6403   71.3198  218.8438 H   0  0  0  0  0  0  0  0  0  0  0  0
  143.3600   71.9768  219.3510 H   0  0  0  0  0  0  0  0  0  0  0  0
  142.7806   71.1780  217.8865 H   0  0  0  0  0  0  0  0  0  0  0  0
  138.1348   70.7046  224.8494 H   0  0  0  0  0  0  0  0  0  0  0  0
  138.2875   70.3593  223.1225 H   0  0  0  0  0  0  0  0  0  0  0  0
  138.5610   68.2189  224.4034 H   0  0  0  0  0  0  0  0  0  0  0  0
  140.1262   68.6091  223.7074 H   0  0  0  0  0  0  0  0  0  0  0  0
  139.2518   67.1402  226.4003 H   0  0  0  0  0  0  0  0  0  0  0  0
  140.1637   67.3804  228.7278 H   0  0  0  0  0  0  0  0  0  0  0  0
  141.3039   69.4783  229.3912 H   0  0  0  0  0  0  0  0  0  0  0  0
  141.5659   71.3606  227.7706 H   0  0  0  0  0  0  0  0  0  0  0  0
  140.3592   72.3580  225.7203 H   0  0  0  0  0  0  0  0  0  0  0  0
  141.7975   71.5341  224.9983 H   0  0  0  0  0  0  0  0  0  0  0  0
  138.0183   77.5921  222.7387 H   0  0  0  0  0  0  0  0  0  0  0  0
  139.1714   76.3009  223.3403 H   0  0  0  0  0  0  0  0  0  0  0  0
  139.0146   78.1054  220.0528 H   0  0  0  0  0  0  0  0  0  0  0  0
  138.8525   79.2253  221.4550 H   0  0  0  0  0  0  0  0  0  0  0  0
  141.4916   78.5537  220.0589 H   0  0  0  0  0  0  0  0  0  0  0  0
  140.5479   80.0131  219.7339 H   0  0  0  0  0  0  0  0  0  0  0  0
  141.5610   81.8672  221.0022 H   0  0  0  0  0  0  0  0  0  0  0  0
  142.4806   82.6894  223.1680 H   0  0  0  0  0  0  0  0  0  0  0  0
  142.7447   81.1368  225.0897 H   0  0  0  0  0  0  0  0  0  0  0  0
  142.0946   78.7271  224.8824 H   0  0  0  0  0  0  0  0  0  0  0  0
  141.8579   77.0774  222.0293 H   0  0  0  0  0  0  0  0  0  0  0  0
  140.8527   77.1397  223.5586 H   0  0  0  0  0  0  0  0  0  0  0  0
  1  2  1  0
  2  3  1  0
  3  4  1  0
  4  5  1  0
  5  6  2  0
  6  7  1  0
  7  8  1  0
  8  9  1  0
  9 10  1  0
 10 11  1  0
 11 12  2  0
 12 13  1  0
 13 14  2  0
 14 15  1  0
 15 16  2  0
 16 17  1  0
  7 18  2  0
 18 19  1  0
 19 20  1  0
 20 21  1  0
 21 22  1  0
 22 23  1  0
 23 24  2  0
 24 25  1  0
 25 26  2  0
 26 27  1  0
 27 28  2  0
 28 29  1  0
 19 30  2  0
  2 31  1  0
 31 32  1  0
 32 33  1  0
 33 34  1  0
 34 35  1  0
 35 36  2  0
 36 37  1  0
 37 38  2  0
 38 39  1  0
 39 40  2  0
 40 41  1  0
 30  5  1  0
 41 32  1  0
 17  8  1  0
 29 20  1  0
 40 35  1  0
 16 11  1  0
 28 23  1  0
  1 42  1  0
  1 43  1  0
  2 44  1  6
  3 45  1  0
  3 46  1  0
  4 47  1  0
  9 48  1  0
  9 49  1  0
 10 50  1  0
 10 51  1  0
 12 52  1  0
 13 53  1  0
 14 54  1  0
 15 55  1  0
 17 56  1  0
 17 57  1  0
 21 58  1  0
 21 59  1  0
 22 60  1  0
 22 61  1  0
 24 62  1  0
 25 63  1  0
 26 64  1  0
 27 65  1  0
 29 66  1  0
 29 67  1  0
 31 68  1  0
 31 69  1  0
 33 70  1  0
 33 71  1  0
 34 72  1  0
 34 73  1  0
 36 74  1  0
 37 75  1  0
 38 76  1  0
 39 77  1  0
 41 78  1  0
 41 79  1  0
M  END
>  <smiles>  (16) 
NC(CNc1nc(N2CCc3ccccc3C2)nc(N2CCc3ccccc3C2)n1)CN1CCc2ccccc2C1

>  <score_type>  (16) 
oracle

>  <origin>  (16) 
autodockgpu

>  <m_score__min__energy>  (16) 
-11.49

>  <m_primary>  (16) 
energy

>  <rmsd>  (16) 
9.94358550808022

>  <m_score__min__rmsd>  (16) 
9.94358550808022

>  <meeko>  (16) 
{"free_energy": -11.16, "intermolecular_energy": -13.55, "internal_energy": -2.43, "cluster_size": 11, "cluster_id": 1, "rank_in_cluster": 4}

>  <energy>  (16) 
-9.95

>  <cluster_rmsd>  (16) 
1.88

>  <cluster>  (16) 
2

$$$$

     RDKit          3D

 79 85  0  0  1  0  0  0  0  0999 V2000
  139.6730   74.1710  222.3550 N   0  0  0  0  0  0  0  0  0  0  0  0
  139.6500   72.9550  221.5770 C   0  0  2  0  0  0  0  0  0  0  0  0
  138.1920   72.6600  221.3010 C   0  0  0  0  0  0  0  0  0  0  0  0
  137.4860   73.8390  220.7900 N   0  0  0  0  0  0  0  0  0  0  0  0
  137.0270   74.7520  221.8050 C   0  0  0  0  0  0  0  0  0  0  0  0
  137.2600   76.0760  221.7350 N   0  0  0  0  0  0  0  0  0  0  0  0
  136.8210   76.9190  222.7120 C   0  0  0  0  0  0  0  0  0  0  0  0
  137.0500   78.3220  222.6560 N   0  0  0  0  0  0  0  0  0  0  0  0
  138.3550   78.8660  222.4410 C   0  0  0  0  0  0  0  0  0  0  0  0
  138.7780   79.8270  223.4960 C   0  0  0  0  0  0  0  0  0  0  0  0
  137.6320   80.3900  224.2260 C   0  0  0  0  0  0  0  0  0  0  0  0
  137.9010   81.2490  225.2760 C   0  0  0  0  0  0  0  0  0  0  0  0
  136.8990   81.8390  226.0330 C   0  0  0  0  0  0  0  0  0  0  0  0
  135.5900   81.5610  225.7300 C   0  0  0  0  0  0  0  0  0  0  0  0
  135.2760   80.7140  224.6970 C   0  0  0  0  0  0  0  0  0  0  0  0
  136.3110   80.1370  223.9540 C   0  0  0  0  0  0  0  0  0  0  0  0
  135.9160   79.2110  222.8340 C   0  0  0  0  0  0  0  0  0  0  0  0
  136.1500   76.4220  223.7550 N   0  0  0  0  0  0  0  0  0  0  0  0
  135.9010   75.1040  223.8530 C   0  0  0  0  0  0  0  0  0  0  0  0
  135.1820   74.6340  224.9890 N   0  0  0  0  0  0  0  0  0  0  0  0
  134.8970   75.5690  226.0590 C   0  0  0  0  0  0  0  0  0  0  0  0
  133.3730   75.7200  226.0770 C   0  0  0  0  0  0  0  0  0  0  0  0
  132.8780   74.3540  226.4770 C   0  0  0  0  0  0  0  0  0  0  0  0
  131.7630   74.2770  227.3080 C   0  0  0  0  0  0  0  0  0  0  0  0
  131.2960   73.0160  227.6830 C   0  0  0  0  0  0  0  0  0  0  0  0
  131.9450   71.8800  227.2270 C   0  0  0  0  0  0  0  0  0  0  0  0
  133.0630   71.9670  226.3940 C   0  0  0  0  0  0  0  0  0  0  0  0
  133.5190   73.2180  226.0250 C   0  0  0  0  0  0  0  0  0  0  0  0
  134.7210   73.2840  225.1320 C   0  0  0  0  0  0  0  0  0  0  0  0
  136.3380   74.2800  222.8860 N   0  0  0  0  0  0  0  0  0  0  0  0
  140.2140   71.7800  222.3340 C   0  0  0  0  0  0  0  0  0  0  0  0
  139.4880   71.4430  223.5160 N   0  0  0  0  0  0  0  0  0  0  0  0
  138.5180   70.4270  223.3750 C   0  0  0  0  0  0  0  0  0  0  0  0
  137.9900   70.0160  224.7320 C   0  0  0  0  0  0  0  0  0  0  0  0
  139.1530   69.4300  225.4520 C   0  0  0  0  0  0  0  0  0  0  0  0
  139.1380   68.2180  226.0790 C   0  0  0  0  0  0  0  0  0  0  0  0
  140.2860   67.7800  226.7210 C   0  0  0  0  0  0  0  0  0  0  0  0
  141.4410   68.5680  226.7240 C   0  0  0  0  0  0  0  0  0  0  0  0
  141.4690   69.8050  226.0880 C   0  0  0  0  0  0  0  0  0  0  0  0
  140.3120   70.2170  225.4580 C   0  0  0  0  0  0  0  0  0  0  0  0
  140.2060   71.5150  224.7400 C   0  0  0  0  0  0  0  0  0  0  0  0
  139.1350   74.9390  221.9490 H   0  0  0  0  0  0  0  0  0  0  0  0
  139.5560   74.0000  223.3730 H   0  0  0  0  0  0  0  0  0  0  0  0
  140.2560   73.0948  220.6697 H   0  0  0  0  0  0  0  0  0  0  0  0
  138.1266   71.8545  220.5548 H   0  0  0  0  0  0  0  0  0  0  0  0
  137.7182   72.3609  222.2476 H   0  0  0  0  0  0  0  0  0  0  0  0
  137.3290   74.0050  219.7740 H   0  0  0  0  0  0  0  0  0  0  0  0
  139.0778   78.0373  222.4146 H   0  0  0  0  0  0  0  0  0  0  0  0
  138.3223   79.4208  221.4917 H   0  0  0  0  0  0  0  0  0  0  0  0
  139.4309   79.3041  224.2104 H   0  0  0  0  0  0  0  0  0  0  0  0
  139.3064   80.6572  223.0045 H   0  0  0  0  0  0  0  0  0  0  0  0
  138.9498   81.4731  225.5204 H   0  0  0  0  0  0  0  0  0  0  0  0
  137.1497   82.5177  226.8616 H   0  0  0  0  0  0  0  0  0  0  0  0
  134.7845   82.0215  226.3208 H   0  0  0  0  0  0  0  0  0  0  0  0
  134.2257   80.4921  224.4568 H   0  0  0  0  0  0  0  0  0  0  0  0
  135.0166   78.6390  223.1057 H   0  0  0  0  0  0  0  0  0  0  0  0
  135.6763   79.7606  221.9118 H   0  0  0  0  0  0  0  0  0  0  0  0
  135.2553   75.1731  227.0207 H   0  0  0  0  0  0  0  0  0  0  0  0
  135.4004   76.5343  225.9017 H   0  0  0  0  0  0  0  0  0  0  0  0
  133.0636   76.4788  226.8108 H   0  0  0  0  0  0  0  0  0  0  0  0
  132.9681   76.0513  225.1094 H   0  0  0  0  0  0  0  0  0  0  0  0
  131.2612   75.1900  227.6612 H   0  0  0  0  0  0  0  0  0  0  0  0
  130.4167   72.9247  228.3376 H   0  0  0  0  0  0  0  0  0  0  0  0
  131.5723   70.8895  227.5270 H   0  0  0  0  0  0  0  0  0  0  0  0
  133.5702   71.0578  226.0389 H   0  0  0  0  0  0  0  0  0  0  0  0
  135.5260   72.6733  225.5668 H   0  0  0  0  0  0  0  0  0  0  0  0
  134.4409   72.9025  224.1390 H   0  0  0  0  0  0  0  0  0  0  0  0
  140.2112   70.9058  221.6663 H   0  0  0  0  0  0  0  0  0  0  0  0
  141.2260   72.0671  222.6555 H   0  0  0  0  0  0  0  0  0  0  0  0
  137.6865   70.8015  222.7599 H   0  0  0  0  0  0  0  0  0  0  0  0
  138.9804   69.5543  222.8907 H   0  0  0  0  0  0  0  0  0  0  0  0
  137.6033   70.8911  225.2749 H   0  0  0  0  0  0  0  0  0  0  0  0
  137.1604   69.2988  224.6463 H   0  0  0  0  0  0  0  0  0  0  0  0
  138.2292   67.5983  226.0751 H   0  0  0  0  0  0  0  0  0  0  0  0
  140.2882   66.8057  227.2316 H   0  0  0  0  0  0  0  0  0  0  0  0
  142.3428   68.2037  227.2379 H   0  0  0  0  0  0  0  0  0  0  0  0
  142.3752   70.4286  226.0872 H   0  0  0  0  0  0  0  0  0  0  0  0
  139.6956   72.2334  225.3983 H   0  0  0  0  0  0  0  0  0  0  0  0
  141.2315   71.8238  224.4890 H   0  0  0  0  0  0  0  0  0  0  0  0
  1  2  1  0
  2  3  1  0
  3  4  1  0
  4  5  1  0
  5  6  2  0
  6  7  1  0
  7  8  1  0
  8  9  1  0
  9 10  1  0
 10 11  1  0
 11 12  2  0
 12 13  1  0
 13 14  2  0
 14 15  1  0
 15 16  2  0
 16 17  1  0
  7 18  2  0
 18 19  1  0
 19 20  1  0
 20 21  1  0
 21 22  1  0
 22 23  1  0
 23 24  2  0
 24 25  1  0
 25 26  2  0
 26 27  1  0
 27 28  2  0
 28 29  1  0
 19 30  2  0
  2 31  1  0
 31 32  1  0
 32 33  1  0
 33 34  1  0
 34 35  1  0
 35 36  2  0
 36 37  1  0
 37 38  2  0
 38 39  1  0
 39 40  2  0
 40 41  1  0
 30  5  1  0
 41 32  1  0
 17  8  1  0
 29 20  1  0
 40 35  1  0
 16 11  1  0
 28 23  1  0
  1 42  1  0
  1 43  1  0
  2 44  1  6
  3 45  1  0
  3 46  1  0
  4 47  1  0
  9 48  1  0
  9 49  1  0
 10 50  1  0
 10 51  1  0
 12 52  1  0
 13 53  1  0
 14 54  1  0
 15 55  1  0
 17 56  1  0
 17 57  1  0
 21 58  1  0
 21 59  1  0
 22 60  1  0
 22 61  1  0
 24 62  1  0
 25 63  1  0
 26 64  1  0
 27 65  1  0
 29 66  1  0
 29 67  1  0
 31 68  1  0
 31 69  1  0
 33 70  1  0
 33 71  1  0
 34 72  1  0
 34 73  1  0
 36 74  1  0
 37 75  1  0
 38 76  1  0
 39 77  1  0
 41 78  1  0
 41 79  1  0
M  END
>  <smiles>  (17) 
NC(CNc1nc(N2CCc3ccccc3C2)nc(N2CCc3ccccc3C2)n1)CN1CCc2ccccc2C1

>  <score_type>  (17) 
oracle

>  <origin>  (17) 
autodockgpu

>  <m_score__min__energy>  (17) 
-11.49

>  <m_primary>  (17) 
energy

>  <rmsd>  (17) 
3.5059422954823525

>  <m_score__min__rmsd>  (17) 
3.5059422954823525

>  <meeko>  (17) 
{"free_energy": -9.99, "intermolecular_energy": -12.37, "internal_energy": -2.34, "cluster_size": 2, "cluster_id": 6, "rank_in_cluster": 1}

>  <energy>  (17) 
-9.71

>  <cluster_rmsd>  (17) 
1.74

>  <cluster>  (17) 
2

$$$$

     RDKit          3D

 79 85  0  0  1  0  0  0  0  0999 V2000
  136.5880   75.6500  223.1940 N   0  0  0  0  0  0  0  0  0  0  0  0
  136.4310   76.0020  221.8020 C   0  0  2  0  0  0  0  0  0  0  0  0
  136.3210   74.6960  221.0470 C   0  0  0  0  0  0  0  0  0  0  0  0
  136.5740   73.5430  221.9150 N   0  0  0  0  0  0  0  0  0  0  0  0
  137.9490   73.1210  221.9710 C   0  0  0  0  0  0  0  0  0  0  0  0
  138.8610   73.5340  221.0710 N   0  0  0  0  0  0  0  0  0  0  0  0
  140.1570   73.1140  221.1400 C   0  0  0  0  0  0  0  0  0  0  0  0
  141.1380   73.5420  220.2040 N   0  0  0  0  0  0  0  0  0  0  0  0
  142.5380   73.3970  220.4590 C   0  0  0  0  0  0  0  0  0  0  0  0
  143.2950   74.6750  220.3570 C   0  0  0  0  0  0  0  0  0  0  0  0
  142.5830   75.6780  219.5500 C   0  0  0  0  0  0  0  0  0  0  0  0
  143.1570   76.9310  219.4340 C   0  0  0  0  0  0  0  0  0  0  0  0
  142.5760   77.9540  218.6980 C   0  0  0  0  0  0  0  0  0  0  0  0
  141.3860   77.7150  218.0590 C   0  0  0  0  0  0  0  0  0  0  0  0
  140.7800   76.4860  218.1450 C   0  0  0  0  0  0  0  0  0  0  0  0
  141.3940   75.4780  218.8960 C   0  0  0  0  0  0  0  0  0  0  0  0
  140.6870   74.1490  218.9650 C   0  0  0  0  0  0  0  0  0  0  0  0
  140.5250   72.2800  222.1170 N   0  0  0  0  0  0  0  0  0  0  0  0
  139.6380   71.8500  223.0310 C   0  0  0  0  0  0  0  0  0  0  0  0
  140.0900   70.9610  224.0480 N   0  0  0  0  0  0  0  0  0  0  0  0
  141.1060   71.4300  224.9700 C   0  0  0  0  0  0  0  0  0  0  0  0
  140.4250   71.4760  226.3420 C   0  0  0  0  0  0  0  0  0  0  0  0
  140.1190   70.0320  226.6430 C   0  0  0  0  0  0  0  0  0  0  0  0
  140.2430   69.5970  227.9610 C   0  0  0  0  0  0  0  0  0  0  0  0
  139.9600   68.2610  228.2510 C   0  0  0  0  0  0  0  0  0  0  0  0
  139.5690   67.4050  227.2340 C   0  0  0  0  0  0  0  0  0  0  0  0
  139.4480   67.8510  225.9160 C   0  0  0  0  0  0  0  0  0  0  0  0
  139.7280   69.1740  225.6350 C   0  0  0  0  0  0  0  0  0  0  0  0
  139.5920   69.6280  224.2130 C   0  0  0  0  0  0  0  0  0  0  0  0
  138.3620   72.2680  222.9560 N   0  0  0  0  0  0  0  0  0  0  0  0
  137.6290   76.7400  221.2610 C   0  0  0  0  0  0  0  0  0  0  0  0
  138.7080   76.8640  222.1870 N   0  0  0  0  0  0  0  0  0  0  0  0
  139.9630   76.4010  221.7380 C   0  0  0  0  0  0  0  0  0  0  0  0
  141.0470   76.7950  222.7180 C   0  0  0  0  0  0  0  0  0  0  0  0
  141.0820   78.2830  222.6970 C   0  0  0  0  0  0  0  0  0  0  0  0
  142.2170   79.0220  222.5290 C   0  0  0  0  0  0  0  0  0  0  0  0
  142.1230   80.4050  222.5300 C   0  0  0  0  0  0  0  0  0  0  0  0
  140.8850   81.0320  222.6990 C   0  0  0  0  0  0  0  0  0  0  0  0
  139.7210   80.2890  222.8710 C   0  0  0  0  0  0  0  0  0  0  0  0
  139.8430   78.9140  222.8660 C   0  0  0  0  0  0  0  0  0  0  0  0
  138.6810   78.0030  223.0370 C   0  0  0  0  0  0  0  0  0  0  0  0
  135.9240   74.9470  223.5250 H   0  0  0  0  0  0  0  0  0  0  0  0
  137.5830   75.5250  223.4680 H   0  0  0  0  0  0  0  0  0  0  0  0
  135.5528   76.6549  221.6903 H   0  0  0  0  0  0  0  0  0  0  0  0
  135.3073   74.6110  220.6284 H   0  0  0  0  0  0  0  0  0  0  0  0
  137.0790   74.6969  220.2499 H   0  0  0  0  0  0  0  0  0  0  0  0
  135.8190   73.0650  222.4510 H   0  0  0  0  0  0  0  0  0  0  0  0
  142.6672   72.9958  221.4750 H   0  0  0  0  0  0  0  0  0  0  0  0
  142.9390   72.7208  219.6897 H   0  0  0  0  0  0  0  0  0  0  0  0
  143.4483   75.0780  221.3690 H   0  0  0  0  0  0  0  0  0  0  0  0
  144.2541   74.4616  219.8624 H   0  0  0  0  0  0  0  0  0  0  0  0
  144.1116   77.1242  219.9453 H   0  0  0  0  0  0  0  0  0  0  0  0
  143.0610   78.9388  218.6283 H   0  0  0  0  0  0  0  0  0  0  0  0
  140.9126   78.5158  217.4720 H   0  0  0  0  0  0  0  0  0  0  0  0
  139.8260   76.2968  217.6311 H   0  0  0  0  0  0  0  0  0  0  0  0
  139.5965   74.2925  218.9803 H   0  0  0  0  0  0  0  0  0  0  0  0
  140.9116   73.5180  218.0924 H   0  0  0  0  0  0  0  0  0  0  0  0
  141.9591   70.7358  224.9875 H   0  0  0  0  0  0  0  0  0  0  0  0
  141.4996   72.4145  224.6769 H   0  0  0  0  0  0  0  0  0  0  0  0
  141.1003   71.8993  227.1002 H   0  0  0  0  0  0  0  0  0  0  0  0
  139.5264   72.1104  226.3486 H   0  0  0  0  0  0  0  0  0  0  0  0
  140.5568   70.2906  228.7550 H   0  0  0  0  0  0  0  0  0  0  0  0
  140.0471   67.8894  229.2827 H   0  0  0  0  0  0  0  0  0  0  0  0
  139.3495   66.3531  227.4694 H   0  0  0  0  0  0  0  0  0  0  0  0
  139.1358   67.1620  225.1173 H   0  0  0  0  0  0  0  0  0  0  0  0
  140.1621   68.9483  223.5626 H   0  0  0  0  0  0  0  0  0  0  0  0
  138.5257   69.6172  223.9429 H   0  0  0  0  0  0  0  0  0  0  0  0
  137.9952   76.2005  220.3751 H   0  0  0  0  0  0  0  0  0  0  0  0
  137.2926   77.7614  221.0296 H   0  0  0  0  0  0  0  0  0  0  0  0
  139.9351   75.3050  221.6485 H   0  0  0  0  0  0  0  0  0  0  0  0
  140.1828   76.8525  220.7593 H   0  0  0  0  0  0  0  0  0  0  0  0
  140.8038   76.4306  223.7270 H   0  0  0  0  0  0  0  0  0  0  0  0
  142.0202   76.3605  222.4458 H   0  0  0  0  0  0  0  0  0  0  0  0
  143.1907   78.5281  222.3950 H   0  0  0  0  0  0  0  0  0  0  0  0
  143.0295   81.0138  222.3968 H   0  0  0  0  0  0  0  0  0  0  0  0
  140.8301   82.1306  222.6960 H   0  0  0  0  0  0  0  0  0  0  0  0
  138.7444   80.7770  223.0053 H   0  0  0  0  0  0  0  0  0  0  0  0
  138.6650   77.6553  224.0805 H   0  0  0  0  0  0  0  0  0  0  0  0
  137.7833   78.5790  222.7680 H   0  0  0  0  0  0  0  0  0  0  0  0
  1  2  1  0
  2  3  1  0
  3  4  1  0
  4  5  1  0
  5  6  2  0
  6  7  1  0
  7  8  1  0
  8  9  1  0
  9 10  1  0
 10 11  1  0
 11 12  2  0
 12 13  1  0
 13 14  2  0
 14 15  1  0
 15 16  2  0
 16 17  1  0
  7 18  2  0
 18 19  1  0
 19 20  1  0
 20 21  1  0
 21 22  1  0
 22 23  1  0
 23 24  2  0
 24 25  1  0
 25 26  2  0
 26 27  1  0
 27 28  2  0
 28 29  1  0
 19 30  2  0
  2 31  1  0
 31 32  1  0
 32 33  1  0
 33 34  1  0
 34 35  1  0
 35 36  2  0
 36 37  1  0
 37 38  2  0
 38 39  1  0
 39 40  2  0
 40 41  1  0
 30  5  1  0
 41 32  1  0
 17  8  1  0
 29 20  1  0
 40 35  1  0
 16 11  1  0
 28 23  1  0
  1 42  1  0
  1 43  1  0
  2 44  1  1
  3 45  1  0
  3 46  1  0
  4 47  1  0
  9 48  1  0
  9 49  1  0
 10 50  1  0
 10 51  1  0
 12 52  1  0
 13 53  1  0
 14 54  1  0
 15 55  1  0
 17 56  1  0
 17 57  1  0
 21 58  1  0
 21 59  1  0
 22 60  1  0
 22 61  1  0
 24 62  1  0
 25 63  1  0
 26 64  1  0
 27 65  1  0
 29 66  1  0
 29 67  1  0
 31 68  1  0
 31 69  1  0
 33 70  1  0
 33 71  1  0
 34 72  1  0
 34 73  1  0
 36 74  1  0
 37 75  1  0
 38 76  1  0
 39 77  1  0
 41 78  1  0
 41 79  1  0
M  END
>  <smiles>  (18) 
NC(CNc1nc(N2CCc3ccccc3C2)nc(N2CCc3ccccc3C2)n1)CN1CCc2ccccc2C1

>  <score_type>  (18) 
oracle

>  <origin>  (18) 
autodockgpu

>  <m_score__min__energy>  (18) 
-11.49

>  <m_primary>  (18) 
energy

>  <rmsd>  (18) 
8.9116166178313

>  <m_score__min__rmsd>  (18) 
8.9116166178313

>  <meeko>  (18) 
{"free_energy": -8.95, "intermolecular_energy": -11.33, "internal_energy": -3.94, "cluster_size": 9, "cluster_id": 7, "rank_in_cluster": 6}

>  <energy>  (18) 
-9.56

>  <cluster_rmsd>  (18) 
1.75

>  <cluster>  (18) 
2

$$$$

     RDKit          3D

 79 85  0  0  1  0  0  0  0  0999 V2000
  141.4390   77.5320  222.5450 N   0  0  0  0  0  0  0  0  0  0  0  0
  140.1360   77.4200  221.9340 C   0  0  2  0  0  0  0  0  0  0  0  0
  140.0300   75.9980  221.4280 C   0  0  0  0  0  0  0  0  0  0  0  0
  141.3250   75.3110  221.4620 N   0  0  0  0  0  0  0  0  0  0  0  0
  141.2430   73.8770  221.5630 C   0  0  0  0  0  0  0  0  0  0  0  0
  141.6400   73.0650  220.5660 N   0  0  0  0  0  0  0  0  0  0  0  0
  141.5450   71.7100  220.6830 C   0  0  0  0  0  0  0  0  0  0  0  0
  141.9650   70.8330  219.6450 N   0  0  0  0  0  0  0  0  0  0  0  0
  141.1750   69.7140  219.2370 C   0  0  0  0  0  0  0  0  0  0  0  0
  141.9070   68.4190  219.2920 C   0  0  0  0  0  0  0  0  0  0  0  0
  143.3660   68.6050  219.2570 C   0  0  0  0  0  0  0  0  0  0  0  0
  144.1580   67.4760  219.3670 C   0  0  0  0  0  0  0  0  0  0  0  0
  145.5450   67.5320  219.3450 C   0  0  0  0  0  0  0  0  0  0  0  0
  146.1550   68.7520  219.2090 C   0  0  0  0  0  0  0  0  0  0  0  0
  145.4090   69.8990  219.0960 C   0  0  0  0  0  0  0  0  0  0  0  0
  144.0140   69.8070  219.1220 C   0  0  0  0  0  0  0  0  0  0  0  0
  143.2400   71.0930  219.0000 C   0  0  0  0  0  0  0  0  0  0  0  0
  141.0500   71.1810  221.8050 N   0  0  0  0  0  0  0  0  0  0  0  0
  140.6440   71.9660  222.8200 C   0  0  0  0  0  0  0  0  0  0  0  0
  140.1240   71.3440  223.9900 N   0  0  0  0  0  0  0  0  0  0  0  0
  138.9670   70.4800  223.8550 C   0  0  0  0  0  0  0  0  0  0  0  0
  139.4590   69.0760  224.2210 C   0  0  0  0  0  0  0  0  0  0  0  0
  139.8190   69.1870  225.6800 C   0  0  0  0  0  0  0  0  0  0  0  0
  139.5540   68.0960  226.5050 C   0  0  0  0  0  0  0  0  0  0  0  0
  139.8840   68.1880  227.8590 C   0  0  0  0  0  0  0  0  0  0  0  0
  140.4600   69.3500  228.3480 C   0  0  0  0  0  0  0  0  0  0  0  0
  140.7220   70.4390  227.5110 C   0  0  0  0  0  0  0  0  0  0  0  0
  140.3940   70.3410  226.1730 C   0  0  0  0  0  0  0  0  0  0  0  0
  140.6830   71.5230  225.2980 C   0  0  0  0  0  0  0  0  0  0  0  0
  140.7410   73.3010  222.6960 N   0  0  0  0  0  0  0  0  0  0  0  0
  139.9780   78.3370  220.7490 C   0  0  0  0  0  0  0  0  0  0  0  0
  141.2110   78.7410  220.1540 N   0  0  0  0  0  0  0  0  0  0  0  0
  141.4120   78.3410  218.8150 C   0  0  0  0  0  0  0  0  0  0  0  0
  142.6380   79.0200  218.2450 C   0  0  0  0  0  0  0  0  0  0  0  0
  142.3220   80.4740  218.2380 C   0  0  0  0  0  0  0  0  0  0  0  0
  142.4740   81.2880  217.1520 C   0  0  0  0  0  0  0  0  0  0  0  0
  142.1470   82.6300  217.2690 C   0  0  0  0  0  0  0  0  0  0  0  0
  141.6710   83.1410  218.4800 C   0  0  0  0  0  0  0  0  0  0  0  0
  141.5120   82.3210  219.5930 C   0  0  0  0  0  0  0  0  0  0  0  0
  141.8440   80.9900  219.4490 C   0  0  0  0  0  0  0  0  0  0  0  0
  141.7210   80.0050  220.5570 C   0  0  0  0  0  0  0  0  0  0  0  0
  141.7010   76.7330  223.1260 H   0  0  0  0  0  0  0  0  0  0  0  0
  142.1600   77.8970  221.8920 H   0  0  0  0  0  0  0  0  0  0  0  0
  139.3659   77.6884  222.6722 H   0  0  0  0  0  0  0  0  0  0  0  0
  139.3178   75.4472  222.0599 H   0  0  0  0  0  0  0  0  0  0  0  0
  139.6873   76.0310  220.3833 H   0  0  0  0  0  0  0  0  0  0  0  0
  142.2330   75.8190  221.4170 H   0  0  0  0  0  0  0  0  0  0  0  0
  140.2985   69.6469  219.8983 H   0  0  0  0  0  0  0  0  0  0  0  0
  140.8934   69.8823  218.1870 H   0  0  0  0  0  0  0  0  0  0  0  0
  141.6381   67.8991  220.2233 H   0  0  0  0  0  0  0  0  0  0  0  0
  141.6197   67.8302  218.4084 H   0  0  0  0  0  0  0  0  0  0  0  0
  143.6700   66.4962  219.4761 H   0  0  0  0  0  0  0  0  0  0  0  0
  146.1438   66.6137  219.4351 H   0  0  0  0  0  0  0  0  0  0  0  0
  147.2532   68.8126  219.1902 H   0  0  0  0  0  0  0  0  0  0  0  0
  145.9017   70.8764  218.9866 H   0  0  0  0  0  0  0  0  0  0  0  0
  143.7698   71.9118  219.5089 H   0  0  0  0  0  0  0  0  0  0  0  0
  143.1150   71.3996  217.9510 H   0  0  0  0  0  0  0  0  0  0  0  0
  138.1677   70.7980  224.5406 H   0  0  0  0  0  0  0  0  0  0  0  0
  138.5493   70.5136  222.8379 H   0  0  0  0  0  0  0  0  0  0  0  0
  138.6641   68.3309  224.0696 H   0  0  0  0  0  0  0  0  0  0  0  0
  140.3048   68.7474  223.5992 H   0  0  0  0  0  0  0  0  0  0  0  0
  139.0951   67.1825  226.0990 H   0  0  0  0  0  0  0  0  0  0  0  0
  139.6877   67.3421  228.5342 H   0  0  0  0  0  0  0  0  0  0  0  0
  140.7161   69.4168  229.4157 H   0  0  0  0  0  0  0  0  0  0  0  0
  141.1803   71.3558  227.9104 H   0  0  0  0  0  0  0  0  0  0  0  0
  140.2473   72.4237  225.7550 H   0  0  0  0  0  0  0  0  0  0  0  0
  141.7736   71.6285  225.2011 H   0  0  0  0  0  0  0  0  0  0  0  0
  139.3813   77.8154  219.9862 H   0  0  0  0  0  0  0  0  0  0  0  0
  139.4908   79.2511  221.1191 H   0  0  0  0  0  0  0  0  0  0  0  0
  141.5507   77.2504  218.7786 H   0  0  0  0  0  0  0  0  0  0  0  0
  140.5331   78.6280  218.2190 H   0  0  0  0  0  0  0  0  0  0  0  0
  143.5162   78.8208  218.8768 H   0  0  0  0  0  0  0  0  0  0  0  0
  142.8770   78.6501  217.2370 H   0  0  0  0  0  0  0  0  0  0  0  0
  142.8498   80.8853  216.1999 H   0  0  0  0  0  0  0  0  0  0  0  0
  142.2629   83.2977  216.4026 H   0  0  0  0  0  0  0  0  0  0  0  0
  141.4180   84.2089  218.5543 H   0  0  0  0  0  0  0  0  0  0  0  0
  141.1371   82.7178  220.5480 H   0  0  0  0  0  0  0  0  0  0  0  0
  142.7181   79.8516  220.9955 H   0  0  0  0  0  0  0  0  0  0  0  0
  141.0013   80.4236  221.2760 H   0  0  0  0  0  0  0  0  0  0  0  0
  1  2  1  0
  2  3  1  0
  3  4  1  0
  4  5  1  0
  5  6  2  0
  6  7  1  0
  7  8  1  0
  8  9  1  0
  9 10  1  0
 10 11  1  0
 11 12  2  0
 12 13  1  0
 13 14  2  0
 14 15  1  0
 15 16  2  0
 16 17  1  0
  7 18  2  0
 18 19  1  0
 19 20  1  0
 20 21  1  0
 21 22  1  0
 22 23  1  0
 23 24  2  0
 24 25  1  0
 25 26  2  0
 26 27  1  0
 27 28  2  0
 28 29  1  0
 19 30  2  0
  2 31  1  0
 31 32  1  0
 32 33  1  0
 33 34  1  0
 34 35  1  0
 35 36  2  0
 36 37  1  0
 37 38  2  0
 38 39  1  0
 39 40  2  0
 40 41  1  0
 30  5  1  0
 41 32  1  0
 17  8  1  0
 29 20  1  0
 40 35  1  0
 16 11  1  0
 28 23  1  0
  1 42  1  0
  1 43  1  0
  2 44  1  1
  3 45  1  0
  3 46  1  0
  4 47  1  0
  9 48  1  0
  9 49  1  0
 10 50  1  0
 10 51  1  0
 12 52  1  0
 13 53  1  0
 14 54  1  0
 15 55  1  0
 17 56  1  0
 17 57  1  0
 21 58  1  0
 21 59  1  0
 22 60  1  0
 22 61  1  0
 24 62  1  0
 25 63  1  0
 26 64  1  0
 27 65  1  0
 29 66  1  0
 29 67  1  0
 31 68  1  0
 31 69  1  0
 33 70  1  0
 33 71  1  0
 34 72  1  0
 34 73  1  0
 36 74  1  0
 37 75  1  0
 38 76  1  0
 39 77  1  0
 41 78  1  0
 41 79  1  0
M  END
>  <smiles>  (19) 
NC(CNc1nc(N2CCc3ccccc3C2)nc(N2CCc3ccccc3C2)n1)CN1CCc2ccccc2C1

>  <score_type>  (19) 
oracle

>  <origin>  (19) 
autodockgpu

>  <m_score__min__energy>  (19) 
-11.49

>  <m_primary>  (19) 
energy

>  <rmsd>  (19) 
12.023837066373458

>  <m_score__min__rmsd>  (19) 
12.023837066373458

>  <meeko>  (19) 
{"free_energy": -10.39, "intermolecular_energy": -12.78, "internal_energy": -2.61, "cluster_size": 11, "cluster_id": 1, "rank_in_cluster": 8}

>  <energy>  (19) 
-9.55

>  <cluster_rmsd>  (19) 
1.2

>  <cluster>  (19) 
2

$$$$

     RDKit          3D

 79 85  0  0  1  0  0  0  0  0999 V2000
  138.6780   74.7210  220.7080 N   0  0  0  0  0  0  0  0  0  0  0  0
  139.0440   76.1030  220.9110 C   0  0  2  0  0  0  0  0  0  0  0  0
  140.1150   76.1020  221.9790 C   0  0  0  0  0  0  0  0  0  0  0  0
  141.3240   75.3990  221.5370 N   0  0  0  0  0  0  0  0  0  0  0  0
  141.2360   73.9630  221.5830 C   0  0  0  0  0  0  0  0  0  0  0  0
  141.6740   73.1870  220.5750 N   0  0  0  0  0  0  0  0  0  0  0  0
  141.5740   71.8280  220.6390 C   0  0  0  0  0  0  0  0  0  0  0  0
  142.0360   70.9880  219.5890 N   0  0  0  0  0  0  0  0  0  0  0  0
  141.2590   69.8900  219.1030 C   0  0  0  0  0  0  0  0  0  0  0  0
  141.9810   68.5890  219.1430 C   0  0  0  0  0  0  0  0  0  0  0  0
  143.4410   68.7660  219.1810 C   0  0  0  0  0  0  0  0  0  0  0  0
  144.2210   67.6280  219.2840 C   0  0  0  0  0  0  0  0  0  0  0  0
  145.6070   67.6750  219.3280 C   0  0  0  0  0  0  0  0  0  0  0  0
  146.2300   68.8950  219.2660 C   0  0  0  0  0  0  0  0  0  0  0  0
  145.4960   70.0510  219.1630 C   0  0  0  0  0  0  0  0  0  0  0  0
  144.1010   69.9670  219.1210 C   0  0  0  0  0  0  0  0  0  0  0  0
  143.3400   71.2630  219.0130 C   0  0  0  0  0  0  0  0  0  0  0  0
  141.0310   71.2610  221.7200 N   0  0  0  0  0  0  0  0  0  0  0  0
  140.5850   72.0100  222.7440 C   0  0  0  0  0  0  0  0  0  0  0  0
  140.0150   71.3470  223.8700 N   0  0  0  0  0  0  0  0  0  0  0  0
  138.8730   70.4810  223.6530 C   0  0  0  0  0  0  0  0  0  0  0  0
  139.3590   69.0690  223.9970 C   0  0  0  0  0  0  0  0  0  0  0  0
  139.6490   69.1360  225.4740 C   0  0  0  0  0  0  0  0  0  0  0  0
  139.3550   68.0180  226.2510 C   0  0  0  0  0  0  0  0  0  0  0  0
  139.6210   68.0690  227.6210 C   0  0  0  0  0  0  0  0  0  0  0  0
  140.1650   69.2180  228.1730 C   0  0  0  0  0  0  0  0  0  0  0  0
  140.4570   70.3340  227.3840 C   0  0  0  0  0  0  0  0  0  0  0  0
  140.1920   70.2770  226.0300 C   0  0  0  0  0  0  0  0  0  0  0  0
  140.5120   71.4880  225.2060 C   0  0  0  0  0  0  0  0  0  0  0  0
  140.6870   73.3480  222.6730 N   0  0  0  0  0  0  0  0  0  0  0  0
  137.8930   76.9300  221.4230 C   0  0  0  0  0  0  0  0  0  0  0  0
  138.2250   78.2930  221.6870 N   0  0  0  0  0  0  0  0  0  0  0  0
  138.0240   78.7310  223.0140 C   0  0  0  0  0  0  0  0  0  0  0  0
  138.6200   80.1090  223.2060 C   0  0  0  0  0  0  0  0  0  0  0  0
  140.0850   79.9410  223.0040 C   0  0  0  0  0  0  0  0  0  0  0  0
  141.0370   80.3930  223.8720 C   0  0  0  0  0  0  0  0  0  0  0  0
  142.3740   80.1780  223.5730 C   0  0  0  0  0  0  0  0  0  0  0  0
  142.7400   79.5090  222.4020 C   0  0  0  0  0  0  0  0  0  0  0  0
  141.7780   79.0430  221.5100 C   0  0  0  0  0  0  0  0  0  0  0  0
  140.4560   79.2700  221.8320 C   0  0  0  0  0  0  0  0  0  0  0  0
  139.3300   78.8240  220.9680 C   0  0  0  0  0  0  0  0  0  0  0  0
  139.0940   74.0740  221.3810 H   0  0  0  0  0  0  0  0  0  0  0  0
  137.6670   74.5980  220.4990 H   0  0  0  0  0  0  0  0  0  0  0  0
  139.3709   76.5354  219.9538 H   0  0  0  0  0  0  0  0  0  0  0  0
  140.3768   77.1424  222.2218 H   0  0  0  0  0  0  0  0  0  0  0  0
  139.7180   75.5782  222.8610 H   0  0  0  0  0  0  0  0  0  0  0  0
  142.1780   75.9000  221.2140 H   0  0  0  0  0  0  0  0  0  0  0  0
  140.3526   69.8045  219.7203 H   0  0  0  0  0  0  0  0  0  0  0  0
  141.0268   70.0993  218.0483 H   0  0  0  0  0  0  0  0  0  0  0  0
  141.6674   68.0370  220.0413 H   0  0  0  0  0  0  0  0  0  0  0  0
  141.7312   68.0352  218.2260 H   0  0  0  0  0  0  0  0  0  0  0  0
  143.7232   66.6483  219.3329 H   0  0  0  0  0  0  0  0  0  0  0  0
  146.1959   66.7496  219.4112 H   0  0  0  0  0  0  0  0  0  0  0  0
  147.3282   68.9482  219.2991 H   0  0  0  0  0  0  0  0  0  0  0  0
  145.9981   71.0285  219.1142 H   0  0  0  0  0  0  0  0  0  0  0  0
  143.8505   72.0581  219.5761 H   0  0  0  0  0  0  0  0  0  0  0  0
  143.2646   71.6099  217.9719 H   0  0  0  0  0  0  0  0  0  0  0  0
  138.0399   70.7715  224.3099 H   0  0  0  0  0  0  0  0  0  0  0  0
  138.5030   70.5448  222.6191 H   0  0  0  0  0  0  0  0  0  0  0  0
  138.5783   68.3237  223.7848 H   0  0  0  0  0  0  0  0  0  0  0  0
  140.2356   68.7660  223.4056 H   0  0  0  0  0  0  0  0  0  0  0  0
  138.9228   67.1148  225.7956 H   0  0  0  0  0  0  0  0  0  0  0  0
  139.3997   67.2009  228.2593 H   0  0  0  0  0  0  0  0  0  0  0  0
  140.3709   69.2522  229.2530 H   0  0  0  0  0  0  0  0  0  0  0  0
  140.8896   71.2403  227.8329 H   0  0  0  0  0  0  0  0  0  0  0  0
  140.0493   72.3713  225.6704 H   0  0  0  0  0  0  0  0  0  0  0  0
  141.6051   71.6029  225.1625 H   0  0  0  0  0  0  0  0  0  0  0  0
  137.0914   76.9096  220.6700 H   0  0  0  0  0  0  0  0  0  0  0  0
  137.5871   76.4872  222.3823 H   0  0  0  0  0  0  0  0  0  0  0  0
  136.9450   78.7693  223.2244 H   0  0  0  0  0  0  0  0  0  0  0  0
  138.5163   78.0282  223.7022 H   0  0  0  0  0  0  0  0  0  0  0  0
  138.2083   80.8122  222.4670 H   0  0  0  0  0  0  0  0  0  0  0  0
  138.3897   80.5179  224.2009 H   0  0  0  0  0  0  0  0  0  0  0  0
  140.7481   80.9193  224.7937 H   0  0  0  0  0  0  0  0  0  0  0  0
  143.1522   80.5367  224.2627 H   0  0  0  0  0  0  0  0  0  0  0  0
  143.8056   79.3480  222.1814 H   0  0  0  0  0  0  0  0  0  0  0  0
  142.0604   78.5157  220.5868 H   0  0  0  0  0  0  0  0  0  0  0  0
  138.9796   79.6874  220.3833 H   0  0  0  0  0  0  0  0  0  0  0  0
  139.7171   78.0124  220.3344 H   0  0  0  0  0  0  0  0  0  0  0  0
  1  2  1  0
  2  3  1  0
  3  4  1  0
  4  5  1  0
  5  6  2  0
  6  7  1  0
  7  8  1  0
  8  9  1  0
  9 10  1  0
 10 11  1  0
 11 12  2  0
 12 13  1  0
 13 14  2  0
 14 15  1  0
 15 16  2  0
 16 17  1  0
  7 18  2  0
 18 19  1  0
 19 20  1  0
 20 21  1  0
 21 22  1  0
 22 23  1  0
 23 24  2  0
 24 25  1  0
 25 26  2  0
 26 27  1  0
 27 28  2  0
 28 29  1  0
 19 30  2  0
  2 31  1  0
 31 32  1  0
 32 33  1  0
 33 34  1  0
 34 35  1  0
 35 36  2  0
 36 37  1  0
 37 38  2  0
 38 39  1  0
 39 40  2  0
 40 41  1  0
 30  5  1  0
 41 32  1  0
 17  8  1  0
 29 20  1  0
 40 35  1  0
 16 11  1  0
 28 23  1  0
  1 42  1  0
  1 43  1  0
  2 44  1  6
  3 45  1  0
  3 46  1  0
  4 47  1  0
  9 48  1  0
  9 49  1  0
 10 50  1  0
 10 51  1  0
 12 52  1  0
 13 53  1  0
 14 54  1  0
 15 55  1  0
 17 56  1  0
 17 57  1  0
 21 58  1  0
 21 59  1  0
 22 60  1  0
 22 61  1  0
 24 62  1  0
 25 63  1  0
 26 64  1  0
 27 65  1  0
 29 66  1  0
 29 67  1  0
 31 68  1  0
 31 69  1  0
 33 70  1  0
 33 71  1  0
 34 72  1  0
 34 73  1  0
 36 74  1  0
 37 75  1  0
 38 76  1  0
 39 77  1  0
 41 78  1  0
 41 79  1  0
M  END
>  <smiles>  (20) 
NC(CNc1nc(N2CCc3ccccc3C2)nc(N2CCc3ccccc3C2)n1)CN1CCc2ccccc2C1

>  <score_type>  (20) 
oracle

>  <origin>  (20) 
autodockgpu

>  <m_score__min__energy>  (20) 
-11.49

>  <m_primary>  (20) 
energy

>  <rmsd>  (20) 
9.342526075143008

>  <m_score__min__rmsd>  (20) 
9.342526075143008

>  <meeko>  (20) 
{"free_energy": -10.13, "intermolecular_energy": -12.51, "internal_energy": -1.97, "cluster_size": 11, "cluster_id": 1, "rank_in_cluster": 10}

>  <energy>  (20) 
-9.54

>  <cluster_rmsd>  (20) 
1.98

>  <cluster>  (20) 
2

$$$$

     RDKit          3D

 79 85  0  0  1  0  0  0  0  0999 V2000
  139.3090   75.3180  222.6800 N   0  0  0  0  0  0  0  0  0  0  0  0
  138.8980   75.8500  221.4030 C   0  0  2  0  0  0  0  0  0  0  0  0
  140.0420   75.5840  220.4490 C   0  0  0  0  0  0  0  0  0  0  0  0
  141.2090   75.0300  221.1400 N   0  0  0  0  0  0  0  0  0  0  0  0
  141.1770   73.6030  221.3280 C   0  0  0  0  0  0  0  0  0  0  0  0
  141.6050   72.7470  220.3820 N   0  0  0  0  0  0  0  0  0  0  0  0
  141.5570   71.3990  220.5810 C   0  0  0  0  0  0  0  0  0  0  0  0
  142.0100   70.4760  219.5990 N   0  0  0  0  0  0  0  0  0  0  0  0
  141.2910   69.2760  219.3000 C   0  0  0  0  0  0  0  0  0  0  0  0
  142.1140   68.0430  219.4290 C   0  0  0  0  0  0  0  0  0  0  0  0
  143.5540   68.3250  219.3340 C   0  0  0  0  0  0  0  0  0  0  0  0
  144.4270   67.2650  219.5030 C   0  0  0  0  0  0  0  0  0  0  0  0
  145.8050   67.4140  219.4340 C   0  0  0  0  0  0  0  0  0  0  0  0
  146.3240   68.6590  219.1870 C   0  0  0  0  0  0  0  0  0  0  0  0
  145.4960   69.7400  219.0120 C   0  0  0  0  0  0  0  0  0  0  0  0
  144.1120   69.5550  219.0890 C   0  0  0  0  0  0  0  0  0  0  0  0
  143.2460   70.7720  218.8960 C   0  0  0  0  0  0  0  0  0  0  0  0
  141.0760   70.9220  221.7330 N   0  0  0  0  0  0  0  0  0  0  0  0
  140.6410   71.7520  222.6970 C   0  0  0  0  0  0  0  0  0  0  0  0
  140.1380   71.1840  223.9030 N   0  0  0  0  0  0  0  0  0  0  0  0
  138.9760   70.3210  223.8250 C   0  0  0  0  0  0  0  0  0  0  0  0
  139.4690   68.9320  224.2440 C   0  0  0  0  0  0  0  0  0  0  0  0
  139.8540   69.1050  225.6910 C   0  0  0  0  0  0  0  0  0  0  0  0
  139.6000   68.0530  226.5670 C   0  0  0  0  0  0  0  0  0  0  0  0
  139.9540   68.2030  227.9100 C   0  0  0  0  0  0  0  0  0  0  0  0
  140.5430   69.3830  228.3370 C   0  0  0  0  0  0  0  0  0  0  0  0
  140.7940   70.4320  227.4500 C   0  0  0  0  0  0  0  0  0  0  0  0
  140.4420   70.2770  226.1230 C   0  0  0  0  0  0  0  0  0  0  0  0
  140.7200   71.4180  225.1910 C   0  0  0  0  0  0  0  0  0  0  0  0
  140.6910   73.0800  222.4930 N   0  0  0  0  0  0  0  0  0  0  0  0
  138.6810   77.3410  221.4470 C   0  0  0  0  0  0  0  0  0  0  0  0
  139.8040   78.1080  221.0140 N   0  0  0  0  0  0  0  0  0  0  0  0
  139.5110   79.3760  220.4660 C   0  0  0  0  0  0  0  0  0  0  0  0
  140.7860   80.1650  220.2620 C   0  0  0  0  0  0  0  0  0  0  0  0
  141.3450   80.3810  221.6240 C   0  0  0  0  0  0  0  0  0  0  0  0
  141.7360   81.5950  222.1100 C   0  0  0  0  0  0  0  0  0  0  0  0
  142.2460   81.6700  223.3970 C   0  0  0  0  0  0  0  0  0  0  0  0
  142.3550   80.5200  224.1850 C   0  0  0  0  0  0  0  0  0  0  0  0
  141.9580   79.2770  223.7000 C   0  0  0  0  0  0  0  0  0  0  0  0
  141.4560   79.2310  222.4160 C   0  0  0  0  0  0  0  0  0  0  0  0
  140.9950   77.9690  221.7770 C   0  0  0  0  0  0  0  0  0  0  0  0
  138.9750   75.8520  223.4840 H   0  0  0  0  0  0  0  0  0  0  0  0
  139.2220   74.2830  222.7330 H   0  0  0  0  0  0  0  0  0  0  0  0
  137.9498   75.3798  221.1032 H   0  0  0  0  0  0  0  0  0  0  0  0
  139.7082   74.8679  219.6837 H   0  0  0  0  0  0  0  0  0  0  0  0
  140.3368   76.5408  219.9934 H   0  0  0  0  0  0  0  0  0  0  0  0
  142.0010   75.6220  221.4700 H   0  0  0  0  0  0  0  0  0  0  0  0
  140.4386   69.1995  219.9911 H   0  0  0  0  0  0  0  0  0  0  0  0
  140.9718   69.3434  218.2495 H   0  0  0  0  0  0  0  0  0  0  0  0
  141.9073   67.5794  220.4049 H   0  0  0  0  0  0  0  0  0  0  0  0
  141.8460   67.3695  218.6016 H   0  0  0  0  0  0  0  0  0  0  0  0
  144.0127   66.2652  219.6997 H   0  0  0  0  0  0  0  0  0  0  0  0
  146.4693   66.5486  219.5750 H   0  0  0  0  0  0  0  0  0  0  0  0
  147.4143   68.7928  219.1285 H   0  0  0  0  0  0  0  0  0  0  0  0
  145.9153   70.7375  218.8140 H   0  0  0  0  0  0  0  0  0  0  0  0
  143.7301   71.6617  219.3250 H   0  0  0  0  0  0  0  0  0  0  0  0
  143.0717   70.9876  217.8315 H   0  0  0  0  0  0  0  0  0  0  0  0
  138.1895   70.6724  224.5091 H   0  0  0  0  0  0  0  0  0  0  0  0
  138.5412   70.3122  222.8146 H   0  0  0  0  0  0  0  0  0  0  0  0
  138.6689   68.1845  224.1386 H   0  0  0  0  0  0  0  0  0  0  0  0
  140.3030   68.5729  223.6232 H   0  0  0  0  0  0  0  0  0  0  0  0
  139.1310   67.1244  226.2095 H   0  0  0  0  0  0  0  0  0  0  0  0
  139.7663   67.3887  228.6253 H   0  0  0  0  0  0  0  0  0  0  0  0
  140.8183   69.4954  229.3961 H   0  0  0  0  0  0  0  0  0  0  0  0
  141.2627   71.3632  227.8009 H   0  0  0  0  0  0  0  0  0  0  0  0
  140.2957   72.3401  225.6150 H   0  0  0  0  0  0  0  0  0  0  0  0
  141.8092   71.5140  225.0706 H   0  0  0  0  0  0  0  0  0  0  0  0
  137.8262   77.5846  220.7990 H   0  0  0  0  0  0  0  0  0  0  0  0
  138.5053   77.6042  222.5005 H   0  0  0  0  0  0  0  0  0  0  0  0
  139.0058   79.2453  219.4976 H   0  0  0  0  0  0  0  0  0  0  0  0
  138.8570   79.9243  221.1601 H   0  0  0  0  0  0  0  0  0  0  0  0
  141.4945   79.5962  219.6419 H   0  0  0  0  0  0  0  0  0  0  0  0
  140.5972   81.1168  219.7438 H   0  0  0  0  0  0  0  0  0  0  0  0
  141.6478   82.4996  221.4904 H   0  0  0  0  0  0  0  0  0  0  0  0
  142.5673   82.6413  223.8012 H   0  0  0  0  0  0  0  0  0  0  0  0
  142.7609   80.5988  225.2043 H   0  0  0  0  0  0  0  0  0  0  0  0
  142.0412   78.3690  224.3153 H   0  0  0  0  0  0  0  0  0  0  0  0
  141.7922   77.6075  221.1108 H   0  0  0  0  0  0  0  0  0  0  0  0
  140.7706   77.2640  222.5910 H   0  0  0  0  0  0  0  0  0  0  0  0
  1  2  1  0
  2  3  1  0
  3  4  1  0
  4  5  1  0
  5  6  2  0
  6  7  1  0
  7  8  1  0
  8  9  1  0
  9 10  1  0
 10 11  1  0
 11 12  2  0
 12 13  1  0
 13 14  2  0
 14 15  1  0
 15 16  2  0
 16 17  1  0
  7 18  2  0
 18 19  1  0
 19 20  1  0
 20 21  1  0
 21 22  1  0
 22 23  1  0
 23 24  2  0
 24 25  1  0
 25 26  2  0
 26 27  1  0
 27 28  2  0
 28 29  1  0
 19 30  2  0
  2 31  1  0
 31 32  1  0
 32 33  1  0
 33 34  1  0
 34 35  1  0
 35 36  2  0
 36 37  1  0
 37 38  2  0
 38 39  1  0
 39 40  2  0
 40 41  1  0
 30  5  1  0
 41 32  1  0
 17  8  1  0
 29 20  1  0
 40 35  1  0
 16 11  1  0
 28 23  1  0
  1 42  1  0
  1 43  1  0
  2 44  1  6
  3 45  1  0
  3 46  1  0
  4 47  1  0
  9 48  1  0
  9 49  1  0
 10 50  1  0
 10 51  1  0
 12 52  1  0
 13 53  1  0
 14 54  1  0
 15 55  1  0
 17 56  1  0
 17 57  1  0
 21 58  1  0
 21 59  1  0
 22 60  1  0
 22 61  1  0
 24 62  1  0
 25 63  1  0
 26 64  1  0
 27 65  1  0
 29 66  1  0
 29 67  1  0
 31 68  1  0
 31 69  1  0
 33 70  1  0
 33 71  1  0
 34 72  1  0
 34 73  1  0
 36 74  1  0
 37 75  1  0
 38 76  1  0
 39 77  1  0
 41 78  1  0
 41 79  1  0
M  END
>  <smiles>  (21) 
NC(CNc1nc(N2CCc3ccccc3C2)nc(N2CCc3ccccc3C2)n1)CN1CCc2ccccc2C1

>  <score_type>  (21) 
oracle

>  <origin>  (21) 
autodockgpu

>  <m_score__min__energy>  (21) 
-11.49

>  <m_primary>  (21) 
energy

>  <rmsd>  (21) 
10.180248446824486

>  <m_score__min__rmsd>  (21) 
10.180248446824486

>  <meeko>  (21) 
{"free_energy": -11.49, "intermolecular_energy": -13.88, "internal_energy": -1.72, "cluster_size": 11, "cluster_id": 1, "rank_in_cluster": 1}

>  <energy>  (21) 
-9.51

>  <cluster_rmsd>  (21) 
1.76

>  <cluster>  (21) 
2

$$$$

     RDKit          3D

 79 85  0  0  1  0  0  0  0  0999 V2000
  135.8780   73.8850  223.9730 N   0  0  0  0  0  0  0  0  0  0  0  0
  135.8100   75.0990  223.1940 C   0  0  2  0  0  0  0  0  0  0  0  0
  135.9350   74.6770  221.7470 C   0  0  0  0  0  0  0  0  0  0  0  0
  136.2860   73.2590  221.6220 N   0  0  0  0  0  0  0  0  0  0  0  0
  137.6940   72.9760  221.7250 C   0  0  0  0  0  0  0  0  0  0  0  0
  138.5920   73.4910  220.8650 N   0  0  0  0  0  0  0  0  0  0  0  0
  139.9200   73.2020  220.9780 C   0  0  0  0  0  0  0  0  0  0  0  0
  140.8870   73.7400  220.0850 N   0  0  0  0  0  0  0  0  0  0  0  0
  142.2910   73.6080  220.3240 C   0  0  0  0  0  0  0  0  0  0  0  0
  143.0150   74.9090  220.3390 C   0  0  0  0  0  0  0  0  0  0  0  0
  142.2750   75.9630  219.6290 C   0  0  0  0  0  0  0  0  0  0  0  0
  142.8160   77.2360  219.6290 C   0  0  0  0  0  0  0  0  0  0  0  0
  142.2070   78.3070  218.9910 C   0  0  0  0  0  0  0  0  0  0  0  0
  141.0220   78.0970  218.3330 C   0  0  0  0  0  0  0  0  0  0  0  0
  140.4470   76.8500  218.3070 C   0  0  0  0  0  0  0  0  0  0  0  0
  141.0890   75.7940  218.9610 C   0  0  0  0  0  0  0  0  0  0  0  0
  140.4170   74.4470  218.9070 C   0  0  0  0  0  0  0  0  0  0  0  0
  140.3340   72.3950  221.9590 N   0  0  0  0  0  0  0  0  0  0  0  0
  139.4610   71.8650  222.8340 C   0  0  0  0  0  0  0  0  0  0  0  0
  139.9630   71.0110  223.8580 N   0  0  0  0  0  0  0  0  0  0  0  0
  141.0710   71.4810  224.6650 C   0  0  0  0  0  0  0  0  0  0  0  0
  140.5120   71.6280  226.0840 C   0  0  0  0  0  0  0  0  0  0  0  0
  140.1760   70.2160  226.4890 C   0  0  0  0  0  0  0  0  0  0  0  0
  140.3930   69.8450  227.8140 C   0  0  0  0  0  0  0  0  0  0  0  0
  140.0840   68.5390  228.2000 C   0  0  0  0  0  0  0  0  0  0  0  0
  139.5750   67.6500  227.2670 C   0  0  0  0  0  0  0  0  0  0  0  0
  139.3600   68.0320  225.9410 C   0  0  0  0  0  0  0  0  0  0  0  0
  139.6670   69.3260  225.5650 C   0  0  0  0  0  0  0  0  0  0  0  0
  139.4290   69.7110  224.1370 C   0  0  0  0  0  0  0  0  0  0  0  0
  138.1540   72.1550  222.7150 N   0  0  0  0  0  0  0  0  0  0  0  0
  136.9510   76.0360  223.4940 C   0  0  0  0  0  0  0  0  0  0  0  0
  137.5550   76.6120  222.3360 N   0  0  0  0  0  0  0  0  0  0  0  0
  137.1070   77.9040  221.9840 C   0  0  0  0  0  0  0  0  0  0  0  0
  137.9790   78.4790  220.8880 C   0  0  0  0  0  0  0  0  0  0  0  0
  139.3330   78.6200  221.4890 C   0  0  0  0  0  0  0  0  0  0  0  0
  140.0790   79.7620  221.4430 C   0  0  0  0  0  0  0  0  0  0  0  0
  141.3310   79.7710  222.0380 C   0  0  0  0  0  0  0  0  0  0  0  0
  141.8210   78.6270  222.6750 C   0  0  0  0  0  0  0  0  0  0  0  0
  141.0700   77.4570  222.7290 C   0  0  0  0  0  0  0  0  0  0  0  0
  139.8270   77.4760  222.1280 C   0  0  0  0  0  0  0  0  0  0  0  0
  138.9230   76.2960  222.1140 C   0  0  0  0  0  0  0  0  0  0  0  0
  136.7390   73.3510  223.8420 H   0  0  0  0  0  0  0  0  0  0  0  0
  135.5470   74.0150  224.9500 H   0  0  0  0  0  0  0  0  0  0  0  0
  134.8720   75.6253  223.4247 H   0  0  0  0  0  0  0  0  0  0  0  0
  134.9742   74.8520  221.2408 H   0  0  0  0  0  0  0  0  0  0  0  0
  136.7385   75.2702  221.2859 H   0  0  0  0  0  0  0  0  0  0  0  0
  135.5740   72.5150  221.4710 H   0  0  0  0  0  0  0  0  0  0  0  0
  142.4339   73.1186  221.2987 H   0  0  0  0  0  0  0  0  0  0  0  0
  142.7064   73.0157  219.4954 H   0  0  0  0  0  0  0  0  0  0  0  0
  143.1618   75.2210  221.3836 H   0  0  0  0  0  0  0  0  0  0  0  0
  143.9773   74.7666  219.8256 H   0  0  0  0  0  0  0  0  0  0  0  0
  143.7667   77.4060  220.1556 H   0  0  0  0  0  0  0  0  0  0  0  0
  142.6662   79.3064  219.0125 H   0  0  0  0  0  0  0  0  0  0  0  0
  140.5273   78.9356  217.8211 H   0  0  0  0  0  0  0  0  0  0  0  0
  139.4959   76.6846  217.7797 H   0  0  0  0  0  0  0  0  0  0  0  0
  139.3232   74.5601  218.9357 H   0  0  0  0  0  0  0  0  0  0  0  0
  140.6554   73.9053  217.9798 H   0  0  0  0  0  0  0  0  0  0  0  0
  141.8940   70.7513  224.6499 H   0  0  0  0  0  0  0  0  0  0  0  0
  141.4770   72.4306  224.2864 H   0  0  0  0  0  0  0  0  0  0  0  0
  141.2657   72.0599  226.7588 H   0  0  0  0  0  0  0  0  0  0  0  0
  139.6430   72.3008  226.1301 H   0  0  0  0  0  0  0  0  0  0  0  0
  140.7988   70.5648  228.5401 H   0  0  0  0  0  0  0  0  0  0  0  0
  140.2439   68.2176  229.2398 H   0  0  0  0  0  0  0  0  0  0  0  0
  139.3353   66.6222  227.5771 H   0  0  0  0  0  0  0  0  0  0  0  0
  138.9543   67.3170  225.2102 H   0  0  0  0  0  0  0  0  0  0  0  0
  139.9150   68.9743  223.4804 H   0  0  0  0  0  0  0  0  0  0  0  0
  138.3441   69.7326  223.9568 H   0  0  0  0  0  0  0  0  0  0  0  0
  136.5705   76.8516  224.1264 H   0  0  0  0  0  0  0  0  0  0  0  0
  137.7286   75.4380  223.9918 H   0  0  0  0  0  0  0  0  0  0  0  0
  136.0680   77.8438  221.6278 H   0  0  0  0  0  0  0  0  0  0  0  0
  137.1638   78.5568  222.8676 H   0  0  0  0  0  0  0  0  0  0  0  0
  138.0107   77.7977  220.0249 H   0  0  0  0  0  0  0  0  0  0  0  0
  137.5928   79.4420  220.5226 H   0  0  0  0  0  0  0  0  0  0  0  0
  139.6926   80.6615  220.9414 H   0  0  0  0  0  0  0  0  0  0  0  0
  141.9431   80.6845  222.0087 H   0  0  0  0  0  0  0  0  0  0  0  0
  142.8169   78.6523  223.1413 H   0  0  0  0  0  0  0  0  0  0  0  0
  141.4506   76.5545  223.2296 H   0  0  0  0  0  0  0  0  0  0  0  0
  139.0098   75.8056  221.1332 H   0  0  0  0  0  0  0  0  0  0  0  0
  139.2374   75.6449  222.9430 H   0  0  0  0  0  0  0  0  0  0  0  0
  1  2  1  0
  2  3  1  0
  3  4  1  0
  4  5  1  0
  5  6  2  0
  6  7  1  0
  7  8  1  0
  8  9  1  0
  9 10  1  0
 10 11  1  0
 11 12  2  0
 12 13  1  0
 13 14  2  0
 14 15  1  0
 15 16  2  0
 16 17  1  0
  7 18  2  0
 18 19  1  0
 19 20  1  0
 20 21  1  0
 21 22  1  0
 22 23  1  0
 23 24  2  0
 24 25  1  0
 25 26  2  0
 26 27  1  0
 27 28  2  0
 28 29  1  0
 19 30  2  0
  2 31  1  0
 31 32  1  0
 32 33  1  0
 33 34  1  0
 34 35  1  0
 35 36  2  0
 36 37  1  0
 37 38  2  0
 38 39  1  0
 39 40  2  0
 40 41  1  0
 30  5  1  0
 41 32  1  0
 17  8  1  0
 29 20  1  0
 40 35  1  0
 16 11  1  0
 28 23  1  0
  1 42  1  0
  1 43  1  0
  2 44  1  6
  3 45  1  0
  3 46  1  0
  4 47  1  0
  9 48  1  0
  9 49  1  0
 10 50  1  0
 10 51  1  0
 12 52  1  0
 13 53  1  0
 14 54  1  0
 15 55  1  0
 17 56  1  0
 17 57  1  0
 21 58  1  0
 21 59  1  0
 22 60  1  0
 22 61  1  0
 24 62  1  0
 25 63  1  0
 26 64  1  0
 27 65  1  0
 29 66  1  0
 29 67  1  0
 31 68  1  0
 31 69  1  0
 33 70  1  0
 33 71  1  0
 34 72  1  0
 34 73  1  0
 36 74  1  0
 37 75  1  0
 38 76  1  0
 39 77  1  0
 41 78  1  0
 41 79  1  0
M  END
>  <smiles>  (22) 
NC(CNc1nc(N2CCc3ccccc3C2)nc(N2CCc3ccccc3C2)n1)CN1CCc2ccccc2C1

>  <score_type>  (22) 
oracle

>  <origin>  (22) 
autodockgpu

>  <m_score__min__energy>  (22) 
-11.49

>  <m_primary>  (22) 
energy

>  <rmsd>  (22) 
9.007136836935983

>  <m_score__min__rmsd>  (22) 
9.007136836935983

>  <meeko>  (22) 
{"free_energy": -8.21, "intermolecular_energy": -10.6, "internal_energy": -4.18, "cluster_size": 3, "cluster_id": 12, "rank_in_cluster": 3}

>  <energy>  (22) 
-9.35

>  <cluster_rmsd>  (22) 
1.64

>  <cluster>  (22) 
2

$$$$

     RDKit          3D

 79 85  0  0  1  0  0  0  0  0999 V2000
  145.3820   73.3890  218.5800 N   0  0  0  0  0  0  0  0  0  0  0  0
  144.8590   73.7910  219.8640 C   0  0  2  0  0  0  0  0  0  0  0  0
  144.2950   72.5400  220.4990 C   0  0  0  0  0  0  0  0  0  0  0  0
  142.9260   72.2700  220.0470 N   0  0  0  0  0  0  0  0  0  0  0  0
  141.8950   72.7680  220.9210 C   0  0  0  0  0  0  0  0  0  0  0  0
  141.3910   74.0100  220.7970 N   0  0  0  0  0  0  0  0  0  0  0  0
  140.4200   74.4620  221.6420 C   0  0  0  0  0  0  0  0  0  0  0  0
  139.8690   75.7670  221.5260 N   0  0  0  0  0  0  0  0  0  0  0  0
  139.3710   76.2690  220.2830 C   0  0  0  0  0  0  0  0  0  0  0  0
  139.9940   77.5570  219.8720 C   0  0  0  0  0  0  0  0  0  0  0  0
  140.5810   78.2780  221.0110 C   0  0  0  0  0  0  0  0  0  0  0  0
  141.2470   79.4610  220.7460 C   0  0  0  0  0  0  0  0  0  0  0  0
  141.8380   80.2250  221.7430 C   0  0  0  0  0  0  0  0  0  0  0  0
  141.7600   79.7930  223.0420 C   0  0  0  0  0  0  0  0  0  0  0  0
  141.1090   78.6240  223.3520 C   0  0  0  0  0  0  0  0  0  0  0  0
  140.5250   77.8790  222.3230 C   0  0  0  0  0  0  0  0  0  0  0  0
  139.8260   76.6030  222.7130 C   0  0  0  0  0  0  0  0  0  0  0  0
  139.9640   73.6580  222.6060 N   0  0  0  0  0  0  0  0  0  0  0  0
  140.4470   72.4110  222.7550 C   0  0  0  0  0  0  0  0  0  0  0  0
  139.9210   71.6020  223.8020 N   0  0  0  0  0  0  0  0  0  0  0  0
  138.7390   70.8080  223.5300 C   0  0  0  0  0  0  0  0  0  0  0  0
  139.1950   69.3480  223.6290 C   0  0  0  0  0  0  0  0  0  0  0  0
  139.5720   69.1840  225.0790 C   0  0  0  0  0  0  0  0  0  0  0  0
  139.2860   67.9690  225.6980 C   0  0  0  0  0  0  0  0  0  0  0  0
  139.6330   67.8060  227.0400 C   0  0  0  0  0  0  0  0  0  0  0  0
  140.2470   68.8450  227.7220 C   0  0  0  0  0  0  0  0  0  0  0  0
  140.5300   70.0600  227.0920 C   0  0  0  0  0  0  0  0  0  0  0  0
  140.1850   70.2140  225.7630 C   0  0  0  0  0  0  0  0  0  0  0  0
  140.4990   71.5260  225.1110 C   0  0  0  0  0  0  0  0  0  0  0  0
  141.4040   71.9740  221.9190 N   0  0  0  0  0  0  0  0  0  0  0  0
  143.7310   74.7830  219.7370 C   0  0  0  0  0  0  0  0  0  0  0  0
  143.3090   75.0200  218.3940 N   0  0  0  0  0  0  0  0  0  0  0  0
  142.0490   74.4890  218.0410 C   0  0  0  0  0  0  0  0  0  0  0  0
  141.6290   75.0010  216.6800 C   0  0  0  0  0  0  0  0  0  0  0  0
  141.4700   76.4720  216.8380 C   0  0  0  0  0  0  0  0  0  0  0  0
  140.3660   77.1710  216.4440 C   0  0  0  0  0  0  0  0  0  0  0  0
  140.3350   78.5430  216.6430 C   0  0  0  0  0  0  0  0  0  0  0  0
  141.4170   79.1980  217.2380 C   0  0  0  0  0  0  0  0  0  0  0  0
  142.5480   78.4960  217.6440 C   0  0  0  0  0  0  0  0  0  0  0  0
  142.5520   77.1320  217.4340 C   0  0  0  0  0  0  0  0  0  0  0  0
  143.6950   76.2620  217.8210 C   0  0  0  0  0  0  0  0  0  0  0  0
  144.6960   73.4070  217.8230 H   0  0  0  0  0  0  0  0  0  0  0  0
  146.3160   73.8000  218.3790 H   0  0  0  0  0  0  0  0  0  0  0  0
  145.6611   74.2643  220.4493 H   0  0  0  0  0  0  0  0  0  0  0  0
  144.9337   71.6855  220.2308 H   0  0  0  0  0  0  0  0  0  0  0  0
  144.2723   72.6897  221.5885 H   0  0  0  0  0  0  0  0  0  0  0  0
  142.7150   71.7590  219.1650 H   0  0  0  0  0  0  0  0  0  0  0  0
  139.5686   75.5211  219.5009 H   0  0  0  0  0  0  0  0  0  0  0  0
  138.2955   76.4573  220.4170 H   0  0  0  0  0  0  0  0  0  0  0  0
  140.7864   77.3490  219.1379 H   0  0  0  0  0  0  0  0  0  0  0  0
  139.2055   78.1913  219.4407 H   0  0  0  0  0  0  0  0  0  0  0  0
  141.3108   79.8099  219.7048 H   0  0  0  0  0  0  0  0  0  0  0  0
  142.3600   81.1610  221.4952 H   0  0  0  0  0  0  0  0  0  0  0  0
  142.2229   80.3880  223.8430 H   0  0  0  0  0  0  0  0  0  0  0  0
  141.0480   78.2789  224.3947 H   0  0  0  0  0  0  0  0  0  0  0  0
  140.3509   76.1152  223.5476 H   0  0  0  0  0  0  0  0  0  0  0  0
  138.7950   76.7856  223.0501 H   0  0  0  0  0  0  0  0  0  0  0  0
  137.9557   71.0174  224.2734 H   0  0  0  0  0  0  0  0  0  0  0  0
  138.3124   71.0363  222.5421 H   0  0  0  0  0  0  0  0  0  0  0  0
  138.3780   68.6634  223.3571 H   0  0  0  0  0  0  0  0  0  0  0  0
  140.0251   69.1154  222.9457 H   0  0  0  0  0  0  0  0  0  0  0  0
  138.7973   67.1559  225.1411 H   0  0  0  0  0  0  0  0  0  0  0  0
  139.4202   66.8572  227.5543 H   0  0  0  0  0  0  0  0  0  0  0  0
  140.5168   68.7105  228.7799 H   0  0  0  0  0  0  0  0  0  0  0  0
  141.0177   70.8775  227.6433 H   0  0  0  0  0  0  0  0  0  0  0  0
  140.0952   72.3407  225.7300 H   0  0  0  0  0  0  0  0  0  0  0  0
  141.5912   71.6173  225.0169 H   0  0  0  0  0  0  0  0  0  0  0  0
  142.8707   74.4020  220.3068 H   0  0  0  0  0  0  0  0  0  0  0  0
  144.1076   75.7414  220.1239 H   0  0  0  0  0  0  0  0  0  0  0  0
  142.1123   73.3912  218.0126 H   0  0  0  0  0  0  0  0  0  0  0  0
  141.3050   74.8029  218.7880 H   0  0  0  0  0  0  0  0  0  0  0  0
  142.4017   74.7766  215.9300 H   0  0  0  0  0  0  0  0  0  0  0  0
  140.6989   74.5256  216.3353 H   0  0  0  0  0  0  0  0  0  0  0  0
  139.5148   76.6546  215.9763 H   0  0  0  0  0  0  0  0  0  0  0  0
  139.4524   79.1202  216.3303 H   0  0  0  0  0  0  0  0  0  0  0  0
  141.3738   80.2869  217.3879 H   0  0  0  0  0  0  0  0  0  0  0  0
  143.4024   79.0066  218.1123 H   0  0  0  0  0  0  0  0  0  0  0  0
  144.2933   76.0565  216.9211 H   0  0  0  0  0  0  0  0  0  0  0  0
  144.2613   76.8053  218.5917 H   0  0  0  0  0  0  0  0  0  0  0  0
  1  2  1  0
  2  3  1  0
  3  4  1  0
  4  5  1  0
  5  6  2  0
  6  7  1  0
  7  8  1  0
  8  9  1  0
  9 10  1  0
 10 11  1  0
 11 12  2  0
 12 13  1  0
 13 14  2  0
 14 15  1  0
 15 16  2  0
 16 17  1  0
  7 18  2  0
 18 19  1  0
 19 20  1  0
 20 21  1  0
 21 22  1  0
 22 23  1  0
 23 24  2  0
 24 25  1  0
 25 26  2  0
 26 27  1  0
 27 28  2  0
 28 29  1  0
 19 30  2  0
  2 31  1  0
 31 32  1  0
 32 33  1  0
 33 34  1  0
 34 35  1  0
 35 36  2  0
 36 37  1  0
 37 38  2  0
 38 39  1  0
 39 40  2  0
 40 41  1  0
 30  5  1  0
 41 32  1  0
 17  8  1  0
 29 20  1  0
 40 35  1  0
 16 11  1  0
 28 23  1  0
  1 42  1  0
  1 43  1  0
  2 44  1  1
  3 45  1  0
  3 46  1  0
  4 47  1  0
  9 48  1  0
  9 49  1  0
 10 50  1  0
 10 51  1  0
 12 52  1  0
 13 53  1  0
 14 54  1  0
 15 55  1  0
 17 56  1  0
 17 57  1  0
 21 58  1  0
 21 59  1  0
 22 60  1  0
 22 61  1  0
 24 62  1  0
 25 63  1  0
 26 64  1  0
 27 65  1  0
 29 66  1  0
 29 67  1  0
 31 68  1  0
 31 69  1  0
 33 70  1  0
 33 71  1  0
 34 72  1  0
 34 73  1  0
 36 74  1  0
 37 75  1  0
 38 76  1  0
 39 77  1  0
 41 78  1  0
 41 79  1  0
M  END
>  <smiles>  (23) 
NC(CNc1nc(N2CCc3ccccc3C2)nc(N2CCc3ccccc3C2)n1)CN1CCc2ccccc2C1

>  <score_type>  (23) 
oracle

>  <origin>  (23) 
autodockgpu

>  <m_score__min__energy>  (23) 
-11.49

>  <m_primary>  (23) 
energy

>  <rmsd>  (23) 
10.544077731407153

>  <m_score__min__rmsd>  (23) 
10.544077731407153

>  <meeko>  (23) 
{"free_energy": -9.53, "intermolecular_energy": -11.91, "internal_energy": -3.05, "cluster_size": 4, "cluster_id": 5, "rank_in_cluster": 4}

>  <energy>  (23) 
-9.26

>  <cluster_rmsd>  (23) 
1.92

>  <cluster>  (23) 
2

$$$$

     RDKit          3D

 79 85  0  0  1  0  0  0  0  0999 V2000
  140.6980   73.7640  222.3180 N   0  0  0  0  0  0  0  0  0  0  0  0
  141.0020   72.7150  221.3730 C   0  0  2  0  0  0  0  0  0  0  0  0
  140.0950   72.9440  220.1840 C   0  0  0  0  0  0  0  0  0  0  0  0
  138.6790   72.8580  220.5550 N   0  0  0  0  0  0  0  0  0  0  0  0
  138.1800   73.9890  221.2920 C   0  0  0  0  0  0  0  0  0  0  0  0
  137.0240   73.9410  221.9790 N   0  0  0  0  0  0  0  0  0  0  0  0
  136.5680   75.0290  222.6640 C   0  0  0  0  0  0  0  0  0  0  0  0
  135.3530   74.9990  223.4030 N   0  0  0  0  0  0  0  0  0  0  0  0
  135.1350   75.8490  224.5320 C   0  0  0  0  0  0  0  0  0  0  0  0
  134.7650   75.1080  225.7690 C   0  0  0  0  0  0  0  0  0  0  0  0
  134.2180   73.7750  225.4740 C   0  0  0  0  0  0  0  0  0  0  0  0
  133.8960   72.9640  226.5470 C   0  0  0  0  0  0  0  0  0  0  0  0
  133.3730   71.6880  226.3880 C   0  0  0  0  0  0  0  0  0  0  0  0
  133.1660   71.2120  225.1190 C   0  0  0  0  0  0  0  0  0  0  0  0
  133.4710   71.9820  224.0240 C   0  0  0  0  0  0  0  0  0  0  0  0
  133.9970   73.2620  224.2210 C   0  0  0  0  0  0  0  0  0  0  0  0
  134.3200   74.0670  222.9890 C   0  0  0  0  0  0  0  0  0  0  0  0
  137.2810   76.1590  222.6510 N   0  0  0  0  0  0  0  0  0  0  0  0
  138.4400   76.2380  221.9740 C   0  0  0  0  0  0  0  0  0  0  0  0
  139.1550   77.4700  221.9960 N   0  0  0  0  0  0  0  0  0  0  0  0
  138.4000   78.7050  221.9280 C   0  0  0  0  0  0  0  0  0  0  0  0
  138.6260   79.3980  223.2760 C   0  0  0  0  0  0  0  0  0  0  0  0
  140.0970   79.7230  223.2740 C   0  0  0  0  0  0  0  0  0  0  0  0
  140.5040   80.9230  223.8520 C   0  0  0  0  0  0  0  0  0  0  0  0
  141.8650   81.2340  223.8560 C   0  0  0  0  0  0  0  0  0  0  0  0
  142.7730   80.3520  223.2900 C   0  0  0  0  0  0  0  0  0  0  0  0
  142.3540   79.1510  222.7130 C   0  0  0  0  0  0  0  0  0  0  0  0
  141.0060   78.8490  222.7120 C   0  0  0  0  0  0  0  0  0  0  0  0
  140.5830   77.5550  222.0860 C   0  0  0  0  0  0  0  0  0  0  0  0
  138.8820   75.1610  221.3010 N   0  0  0  0  0  0  0  0  0  0  0  0
  140.6930   71.3450  221.9200 C   0  0  0  0  0  0  0  0  0  0  0  0
  139.8690   71.3530  223.0860 N   0  0  0  0  0  0  0  0  0  0  0  0
  138.7350   70.5130  223.0460 C   0  0  0  0  0  0  0  0  0  0  0  0
  138.0850   70.4460  224.4110 C   0  0  0  0  0  0  0  0  0  0  0  0
  139.0900   69.8020  225.3000 C   0  0  0  0  0  0  0  0  0  0  0  0
  138.8250   68.7410  226.1160 C   0  0  0  0  0  0  0  0  0  0  0  0
  139.8460   68.2280  226.9020 C   0  0  0  0  0  0  0  0  0  0  0  0
  141.1250   68.7900  226.8580 C   0  0  0  0  0  0  0  0  0  0  0  0
  141.4070   69.8720  226.0300 C   0  0  0  0  0  0  0  0  0  0  0  0
  140.3730   70.3630  225.2580 C   0  0  0  0  0  0  0  0  0  0  0  0
  140.5380   71.5130  224.3300 C   0  0  0  0  0  0  0  0  0  0  0  0
  140.8830   74.7070  221.9700 H   0  0  0  0  0  0  0  0  0  0  0  0
  139.7980   73.6120  222.8130 H   0  0  0  0  0  0  0  0  0  0  0  0
  142.0740   72.7480  221.1287 H   0  0  0  0  0  0  0  0  0  0  0  0
  140.2948   73.9438  219.7710 H   0  0  0  0  0  0  0  0  0  0  0  0
  140.3019   72.1605  219.4401 H   0  0  0  0  0  0  0  0  0  0  0  0
  138.0810   72.0420  220.3040 H   0  0  0  0  0  0  0  0  0  0  0  0
  136.0590   76.4131  224.7270 H   0  0  0  0  0  0  0  0  0  0  0  0
  134.2896   76.5074  224.2835 H   0  0  0  0  0  0  0  0  0  0  0  0
  135.6623   74.9924  226.3948 H   0  0  0  0  0  0  0  0  0  0  0  0
  133.9866   75.6855  226.2892 H   0  0  0  0  0  0  0  0  0  0  0  0
  134.0607   73.3448  227.5658 H   0  0  0  0  0  0  0  0  0  0  0  0
  133.1290   71.0698  227.2645 H   0  0  0  0  0  0  0  0  0  0  0  0
  132.7514   70.2031  224.9768 H   0  0  0  0  0  0  0  0  0  0  0  0
  133.3039   71.5975  223.0070 H   0  0  0  0  0  0  0  0  0  0  0  0
  134.6905   73.4121  222.1866 H   0  0  0  0  0  0  0  0  0  0  0  0
  133.4342   74.5848  222.5924 H   0  0  0  0  0  0  0  0  0  0  0  0
  138.7678   79.3356  221.1051 H   0  0  0  0  0  0  0  0  0  0  0  0
  137.3323   78.5206  221.7379 H   0  0  0  0  0  0  0  0  0  0  0  0
  138.0227   80.3148  223.3508 H   0  0  0  0  0  0  0  0  0  0  0  0
  138.3312   78.7708  224.1302 H   0  0  0  0  0  0  0  0  0  0  0  0
  139.7691   81.6108  224.2957 H   0  0  0  0  0  0  0  0  0  0  0  0
  142.2155   82.1745  224.3061 H   0  0  0  0  0  0  0  0  0  0  0  0
  143.8440   80.6030  223.2955 H   0  0  0  0  0  0  0  0  0  0  0  0
  143.0837   78.4587  222.2678 H   0  0  0  0  0  0  0  0  0  0  0  0
  141.0117   77.4874  221.0752 H   0  0  0  0  0  0  0  0  0  0  0  0
  140.9442   76.7274  222.7142 H   0  0  0  0  0  0  0  0  0  0  0  0
  140.1776   70.7691  221.1372 H   0  0  0  0  0  0  0  0  0  0  0  0
  141.6539   70.8980  222.2148 H   0  0  0  0  0  0  0  0  0  0  0  0
  138.0126   70.9124  222.3189 H   0  0  0  0  0  0  0  0  0  0  0  0
  139.0482   69.5016  222.7479 H   0  0  0  0  0  0  0  0  0  0  0  0
  137.8444   71.4568  224.7720 H   0  0  0  0  0  0  0  0  0  0  0  0
  137.1415   69.8811  224.3859 H   0  0  0  0  0  0  0  0  0  0  0  0
  137.8180   68.2997  226.1499 H   0  0  0  0  0  0  0  0  0  0  0  0
  139.6478   67.3727  227.5647 H   0  0  0  0  0  0  0  0  0  0  0  0
  141.9222   68.3697  227.4887 H   0  0  0  0  0  0  0  0  0  0  0  0
  142.4119   70.3177  225.9920 H   0  0  0  0  0  0  0  0  0  0  0  0
  140.1426   72.4139  224.8220 H   0  0  0  0  0  0  0  0  0  0  0  0
  141.6122   71.5895  224.1060 H   0  0  0  0  0  0  0  0  0  0  0  0
  1  2  1  0
  2  3  1  0
  3  4  1  0
  4  5  1  0
  5  6  2  0
  6  7  1  0
  7  8  1  0
  8  9  1  0
  9 10  1  0
 10 11  1  0
 11 12  2  0
 12 13  1  0
 13 14  2  0
 14 15  1  0
 15 16  2  0
 16 17  1  0
  7 18  2  0
 18 19  1  0
 19 20  1  0
 20 21  1  0
 21 22  1  0
 22 23  1  0
 23 24  2  0
 24 25  1  0
 25 26  2  0
 26 27  1  0
 27 28  2  0
 28 29  1  0
 19 30  2  0
  2 31  1  0
 31 32  1  0
 32 33  1  0
 33 34  1  0
 34 35  1  0
 35 36  2  0
 36 37  1  0
 37 38  2  0
 38 39  1  0
 39 40  2  0
 40 41  1  0
 30  5  1  0
 41 32  1  0
 17  8  1  0
 29 20  1  0
 40 35  1  0
 16 11  1  0
 28 23  1  0
  1 42  1  0
  1 43  1  0
  2 44  1  6
  3 45  1  0
  3 46  1  0
  4 47  1  0
  9 48  1  0
  9 49  1  0
 10 50  1  0
 10 51  1  0
 12 52  1  0
 13 53  1  0
 14 54  1  0
 15 55  1  0
 17 56  1  0
 17 57  1  0
 21 58  1  0
 21 59  1  0
 22 60  1  0
 22 61  1  0
 24 62  1  0
 25 63  1  0
 26 64  1  0
 27 65  1  0
 29 66  1  0
 29 67  1  0
 31 68  1  0
 31 69  1  0
 33 70  1  0
 33 71  1  0
 34 72  1  0
 34 73  1  0
 36 74  1  0
 37 75  1  0
 38 76  1  0
 39 77  1  0
 41 78  1  0
 41 79  1  0
M  END
>  <smiles>  (24) 
NC(CNc1nc(N2CCc3ccccc3C2)nc(N2CCc3ccccc3C2)n1)CN1CCc2ccccc2C1

>  <score_type>  (24) 
oracle

>  <origin>  (24) 
autodockgpu

>  <m_score__min__energy>  (24) 
-11.49

>  <m_primary>  (24) 
energy

>  <rmsd>  (24) 
3.635227362381807

>  <m_score__min__rmsd>  (24) 
3.635227362381807

>  <meeko>  (24) 
{"free_energy": -9.95, "intermolecular_energy": -12.33, "internal_energy": -3.23, "cluster_size": 12, "cluster_id": 2, "rank_in_cluster": 5}

>  <energy>  (24) 
-10.4

>  <cluster_rmsd>  (24) 
0.0

>  <cluster>  (24) 
3

$$$$

     RDKit          3D

 79 85  0  0  1  0  0  0  0  0999 V2000
  139.9540   74.3920  222.3080 N   0  0  0  0  0  0  0  0  0  0  0  0
  139.6180   75.3160  221.2510 C   0  0  2  0  0  0  0  0  0  0  0  0
  139.0120   74.4850  220.1420 C   0  0  0  0  0  0  0  0  0  0  0  0
  137.6060   74.1640  220.4090 N   0  0  0  0  0  0  0  0  0  0  0  0
  137.3830   73.3730  221.5910 C   0  0  0  0  0  0  0  0  0  0  0  0
  138.3210   72.5450  222.0860 N   0  0  0  0  0  0  0  0  0  0  0  0
  138.0830   71.8010  223.2040 C   0  0  0  0  0  0  0  0  0  0  0  0
  139.0610   70.9240  223.7480 N   0  0  0  0  0  0  0  0  0  0  0  0
  138.8990   69.5040  223.7240 C   0  0  0  0  0  0  0  0  0  0  0  0
  139.0010   68.8720  225.0680 C   0  0  0  0  0  0  0  0  0  0  0  0
  139.7260   69.7210  226.0260 C   0  0  0  0  0  0  0  0  0  0  0  0
  139.8320   69.2710  227.3290 C   0  0  0  0  0  0  0  0  0  0  0  0
  140.4930   69.9870  228.3160 C   0  0  0  0  0  0  0  0  0  0  0  0
  141.0670   71.1900  227.9890 C   0  0  0  0  0  0  0  0  0  0  0  0
  140.9870   71.6760  226.7070 C   0  0  0  0  0  0  0  0  0  0  0  0
  140.3120   70.9280  225.7380 C   0  0  0  0  0  0  0  0  0  0  0  0
  140.2480   71.5070  224.3480 C   0  0  0  0  0  0  0  0  0  0  0  0
  136.8990   71.8970  223.8160 N   0  0  0  0  0  0  0  0  0  0  0  0
  135.9420   72.7160  223.3460 C   0  0  0  0  0  0  0  0  0  0  0  0
  134.7000   72.7750  224.0410 N   0  0  0  0  0  0  0  0  0  0  0  0
  133.8490   71.6020  224.0310 C   0  0  0  0  0  0  0  0  0  0  0  0
  133.7980   71.1200  225.4840 C   0  0  0  0  0  0  0  0  0  0  0  0
  133.0870   72.2330  226.2100 C   0  0  0  0  0  0  0  0  0  0  0  0
  132.2110   71.8910  227.2380 C   0  0  0  0  0  0  0  0  0  0  0  0
  131.5490   72.9150  227.9180 C   0  0  0  0  0  0  0  0  0  0  0  0
  131.7730   74.2350  227.5590 C   0  0  0  0  0  0  0  0  0  0  0  0
  132.6540   74.5670  226.5270 C   0  0  0  0  0  0  0  0  0  0  0  0
  133.3070   73.5490  225.8590 C   0  0  0  0  0  0  0  0  0  0  0  0
  134.2450   73.9320  224.7550 C   0  0  0  0  0  0  0  0  0  0  0  0
  136.1840   73.4460  222.2440 N   0  0  0  0  0  0  0  0  0  0  0  0
  140.8320   76.0080  220.6880 C   0  0  0  0  0  0  0  0  0  0  0  0
  141.3220   77.0800  221.4940 N   0  0  0  0  0  0  0  0  0  0  0  0
  141.8050   78.2070  220.7940 C   0  0  0  0  0  0  0  0  0  0  0  0
  142.0780   79.3420  221.7570 C   0  0  0  0  0  0  0  0  0  0  0  0
  140.7540   79.7030  222.3340 C   0  0  0  0  0  0  0  0  0  0  0  0
  140.2590   80.9740  222.3850 C   0  0  0  0  0  0  0  0  0  0  0  0
  139.0110   81.1860  222.9510 C   0  0  0  0  0  0  0  0  0  0  0  0
  138.2720   80.1140  223.4600 C   0  0  0  0  0  0  0  0  0  0  0  0
  138.7660   78.8140  223.4120 C   0  0  0  0  0  0  0  0  0  0  0  0
  140.0110   78.6320  222.8450 C   0  0  0  0  0  0  0  0  0  0  0  0
  140.6540   77.2960  222.7290 C   0  0  0  0  0  0  0  0  0  0  0  0
  139.2530   74.3290  223.0490 H   0  0  0  0  0  0  0  0  0  0  0  0
  140.3460   73.4980  221.9520 H   0  0  0  0  0  0  0  0  0  0  0  0
  138.9429   76.0887  221.6476 H   0  0  0  0  0  0  0  0  0  0  0  0
  139.0760   75.0482  219.1993 H   0  0  0  0  0  0  0  0  0  0  0  0
  139.5722   73.5406  220.0767 H   0  0  0  0  0  0  0  0  0  0  0  0
  136.8300   74.4820  219.7910 H   0  0  0  0  0  0  0  0  0  0  0  0
  137.9083   69.2736  223.3052 H   0  0  0  0  0  0  0  0  0  0  0  0
  139.7162   69.0954  223.1114 H   0  0  0  0  0  0  0  0  0  0  0  0
  137.9865   68.6904  225.4523 H   0  0  0  0  0  0  0  0  0  0  0  0
  139.5609   67.9316  224.9581 H   0  0  0  0  0  0  0  0  0  0  0  0
  139.3738   68.3066  227.5935 H   0  0  0  0  0  0  0  0  0  0  0  0
  140.5561   69.5975  229.3428 H   0  0  0  0  0  0  0  0  0  0  0  0
  141.5955   71.7697  228.7601 H   0  0  0  0  0  0  0  0  0  0  0  0
  141.4476   72.6403  226.4463 H   0  0  0  0  0  0  0  0  0  0  0  0
  140.1607   72.6027  224.3900 H   0  0  0  0  0  0  0  0  0  0  0  0
  141.1549   71.2836  223.7670 H   0  0  0  0  0  0  0  0  0  0  0  0
  132.8406   71.8618  223.6767 H   0  0  0  0  0  0  0  0  0  0  0  0
  134.2354   70.8237  223.3565 H   0  0  0  0  0  0  0  0  0  0  0  0
  133.2355   70.1782  225.5644 H   0  0  0  0  0  0  0  0  0  0  0  0
  134.7960   70.9131  225.8977 H   0  0  0  0  0  0  0  0  0  0  0  0
  132.0447   70.8377  227.5079 H   0  0  0  0  0  0  0  0  0  0  0  0
  130.8527   72.6753  228.7351 H   0  0  0  0  0  0  0  0  0  0  0  0
  131.2466   75.0369  228.0974 H   0  0  0  0  0  0  0  0  0  0  0  0
  132.8245   75.6182  226.2516 H   0  0  0  0  0  0  0  0  0  0  0  0
  133.7234   74.6032  224.0568 H   0  0  0  0  0  0  0  0  0  0  0  0
  135.1174   74.4362  225.1963 H   0  0  0  0  0  0  0  0  0  0  0  0
  141.6343   75.2633  220.5799 H   0  0  0  0  0  0  0  0  0  0  0  0
  140.5270   76.4490  219.7275 H   0  0  0  0  0  0  0  0  0  0  0  0
  142.7365   77.9399  220.2736 H   0  0  0  0  0  0  0  0  0  0  0  0
  141.0469   78.5290  220.0649 H   0  0  0  0  0  0  0  0  0  0  0  0
  142.7667   79.0156  222.5502 H   0  0  0  0  0  0  0  0  0  0  0  0
  142.5506   80.1985  221.2540 H   0  0  0  0  0  0  0  0  0  0  0  0
  140.8409   81.8167  221.9835 H   0  0  0  0  0  0  0  0  0  0  0  0
  138.5995   82.2050  222.9999 H   0  0  0  0  0  0  0  0  0  0  0  0
  137.2839   80.3012  223.9057 H   0  0  0  0  0  0  0  0  0  0  0  0
  138.1882   77.9666  223.8095 H   0  0  0  0  0  0  0  0  0  0  0  0
  141.3884   77.1942  223.5416 H   0  0  0  0  0  0  0  0  0  0  0  0
  139.8483   76.5495  222.7891 H   0  0  0  0  0  0  0  0  0  0  0  0
  1  2  1  0
  2  3  1  0
  3  4  1  0
  4  5  1  0
  5  6  2  0
  6  7  1  0
  7  8  1  0
  8  9  1  0
  9 10  1  0
 10 11  1  0
 11 12  2  0
 12 13  1  0
 13 14  2  0
 14 15  1  0
 15 16  2  0
 16 17  1  0
  7 18  2  0
 18 19  1  0
 19 20  1  0
 20 21  1  0
 21 22  1  0
 22 23  1  0
 23 24  2  0
 24 25  1  0
 25 26  2  0
 26 27  1  0
 27 28  2  0
 28 29  1  0
 19 30  2  0
  2 31  1  0
 31 32  1  0
 32 33  1  0
 33 34  1  0
 34 35  1  0
 35 36  2  0
 36 37  1  0
 37 38  2  0
 38 39  1  0
 39 40  2  0
 40 41  1  0
 30  5  1  0
 41 32  1  0
 17  8  1  0
 29 20  1  0
 40 35  1  0
 16 11  1  0
 28 23  1  0
  1 42  1  0
  1 43  1  0
  2 44  1  1
  3 45  1  0
  3 46  1  0
  4 47  1  0
  9 48  1  0
  9 49  1  0
 10 50  1  0
 10 51  1  0
 12 52  1  0
 13 53  1  0
 14 54  1  0
 15 55  1  0
 17 56  1  0
 17 57  1  0
 21 58  1  0
 21 59  1  0
 22 60  1  0
 22 61  1  0
 24 62  1  0
 25 63  1  0
 26 64  1  0
 27 65  1  0
 29 66  1  0
 29 67  1  0
 31 68  1  0
 31 69  1  0
 33 70  1  0
 33 71  1  0
 34 72  1  0
 34 73  1  0
 36 74  1  0
 37 75  1  0
 38 76  1  0
 39 77  1  0
 41 78  1  0
 41 79  1  0
M  END
>  <smiles>  (25) 
NC(CNc1nc(N2CCc3ccccc3C2)nc(N2CCc3ccccc3C2)n1)CN1CCc2ccccc2C1

>  <score_type>  (25) 
oracle

>  <origin>  (25) 
autodockgpu

>  <m_score__min__energy>  (25) 
-11.49

>  <m_primary>  (25) 
energy

>  <rmsd>  (25) 
9.313094127112496

>  <m_score__min__rmsd>  (25) 
9.313094127112496

>  <meeko>  (25) 
{"free_energy": -10.51, "intermolecular_energy": -12.9, "internal_energy": -2.31, "cluster_size": 12, "cluster_id": 2, "rank_in_cluster": 2}

>  <energy>  (25) 
-9.59

>  <cluster_rmsd>  (25) 
1.99

>  <cluster>  (25) 
3

$$$$

     RDKit          3D

 79 85  0  0  1  0  0  0  0  0999 V2000
  137.0560   75.4720  222.7870 N   0  0  0  0  0  0  0  0  0  0  0  0
  136.6280   76.3920  221.7610 C   0  0  2  0  0  0  0  0  0  0  0  0
  136.7340   75.6420  220.4520 C   0  0  0  0  0  0  0  0  0  0  0  0
  136.6260   74.1920  220.6460 N   0  0  0  0  0  0  0  0  0  0  0  0
  137.8620   73.5370  220.9890 C   0  0  0  0  0  0  0  0  0  0  0  0
  138.9450   73.5900  220.1920 N   0  0  0  0  0  0  0  0  0  0  0  0
  140.1010   72.9540  220.5360 C   0  0  0  0  0  0  0  0  0  0  0  0
  141.2600   73.0010  219.7130 N   0  0  0  0  0  0  0  0  0  0  0  0
  141.6050   71.9280  218.8340 C   0  0  0  0  0  0  0  0  0  0  0  0
  142.9790   71.3990  219.0540 C   0  0  0  0  0  0  0  0  0  0  0  0
  143.8450   72.3710  219.7380 C   0  0  0  0  0  0  0  0  0  0  0  0
  145.1300   71.9710  220.0570 C   0  0  0  0  0  0  0  0  0  0  0  0
  146.0340   72.8050  220.7010 C   0  0  0  0  0  0  0  0  0  0  0  0
  145.6390   74.0750  221.0350 C   0  0  0  0  0  0  0  0  0  0  0  0
  144.3730   74.5160  220.7380 C   0  0  0  0  0  0  0  0  0  0  0  0
  143.4890   73.6490  220.0890 C   0  0  0  0  0  0  0  0  0  0  0  0
  142.1100   74.1770  219.7890 C   0  0  0  0  0  0  0  0  0  0  0  0
  140.1580   72.2700  221.6820 N   0  0  0  0  0  0  0  0  0  0  0  0
  139.0930   72.1990  222.5000 C   0  0  0  0  0  0  0  0  0  0  0  0
  139.2140   71.4540  223.7070 N   0  0  0  0  0  0  0  0  0  0  0  0
  138.0100   70.9100  224.3040 C   0  0  0  0  0  0  0  0  0  0  0  0
  138.1600   69.3880  224.2150 C   0  0  0  0  0  0  0  0  0  0  0  0
  139.3320   69.0860  225.1140 C   0  0  0  0  0  0  0  0  0  0  0  0
  139.2920   67.9190  225.8730 C   0  0  0  0  0  0  0  0  0  0  0  0
  140.3730   67.6290  226.7080 C   0  0  0  0  0  0  0  0  0  0  0  0
  141.4500   68.4990  226.7650 C   0  0  0  0  0  0  0  0  0  0  0  0
  141.4800   69.6680  225.9990 C   0  0  0  0  0  0  0  0  0  0  0  0
  140.4080   69.9480  225.1740 C   0  0  0  0  0  0  0  0  0  0  0  0
  140.4640   71.2080  224.3650 C   0  0  0  0  0  0  0  0  0  0  0  0
  137.9570   72.8280  222.1530 N   0  0  0  0  0  0  0  0  0  0  0  0
  137.5240   77.6000  221.6650 C   0  0  0  0  0  0  0  0  0  0  0  0
  138.7000   77.5220  222.4700 N   0  0  0  0  0  0  0  0  0  0  0  0
  139.8240   76.9200  221.8650 C   0  0  0  0  0  0  0  0  0  0  0  0
  141.0480   77.1040  222.7350 C   0  0  0  0  0  0  0  0  0  0  0  0
  141.2910   78.5720  222.7760 C   0  0  0  0  0  0  0  0  0  0  0  0
  142.4960   79.1590  222.5160 C   0  0  0  0  0  0  0  0  0  0  0  0
  142.5990   80.5390  222.5880 C   0  0  0  0  0  0  0  0  0  0  0  0
  141.4860   81.3170  222.9210 C   0  0  0  0  0  0  0  0  0  0  0  0
  140.2530   80.7310  223.1870 C   0  0  0  0  0  0  0  0  0  0  0  0
  140.1780   79.3550  223.1090 C   0  0  0  0  0  0  0  0  0  0  0  0
  138.9220   78.6020  223.3680 C   0  0  0  0  0  0  0  0  0  0  0  0
  136.6840   74.5260  222.6850 H   0  0  0  0  0  0  0  0  0  0  0  0
  138.0680   75.5600  223.0100 H   0  0  0  0  0  0  0  0  0  0  0  0
  135.6114   76.7431  221.9918 H   0  0  0  0  0  0  0  0  0  0  0  0
  135.9246   75.9735  219.7849 H   0  0  0  0  0  0  0  0  0  0  0  0
  137.7197   75.8563  220.0134 H   0  0  0  0  0  0  0  0  0  0  0  0
  135.7270   73.6770  220.5430 H   0  0  0  0  0  0  0  0  0  0  0  0
  140.8876   71.1082  218.9868 H   0  0  0  0  0  0  0  0  0  0  0  0
  141.5715   72.3257  217.8090 H   0  0  0  0  0  0  0  0  0  0  0  0
  142.9141   70.4886  219.6680 H   0  0  0  0  0  0  0  0  0  0  0  0
  143.4211   71.1868  218.0694 H   0  0  0  0  0  0  0  0  0  0  0  0
  145.4481   70.9524  219.7901 H   0  0  0  0  0  0  0  0  0  0  0  0
  147.0487   72.4534  220.9390 H   0  0  0  0  0  0  0  0  0  0  0  0
  146.3437   74.7474  221.5462 H   0  0  0  0  0  0  0  0  0  0  0  0
  144.0593   75.5355  221.0066 H   0  0  0  0  0  0  0  0  0  0  0  0
  141.7703   74.8472  220.5924 H   0  0  0  0  0  0  0  0  0  0  0  0
  142.0873   74.7616  218.8575 H   0  0  0  0  0  0  0  0  0  0  0  0
  137.9245   71.2270  225.3538 H   0  0  0  0  0  0  0  0  0  0  0  0
  137.1043   71.2614  223.7881 H   0  0  0  0  0  0  0  0  0  0  0  0
  137.2510   68.8835  224.5743 H   0  0  0  0  0  0  0  0  0  0  0  0
  138.3144   69.0365  223.1842 H   0  0  0  0  0  0  0  0  0  0  0  0
  138.4279   67.2407  225.8160 H   0  0  0  0  0  0  0  0  0  0  0  0
  140.3696   66.7136  227.3180 H   0  0  0  0  0  0  0  0  0  0  0  0
  142.2978   68.2653  227.4258 H   0  0  0  0  0  0  0  0  0  0  0  0
  142.3403   70.3514  226.0521 H   0  0  0  0  0  0  0  0  0  0  0  0
  140.6919   72.0531  225.0313 H   0  0  0  0  0  0  0  0  0  0  0  0
  141.2464   71.0978  223.5997 H   0  0  0  0  0  0  0  0  0  0  0  0
  137.8316   77.7187  220.6156 H   0  0  0  0  0  0  0  0  0  0  0  0
  136.9419   78.4556  222.0381 H   0  0  0  0  0  0  0  0  0  0  0  0
  139.6321   75.8452  221.7307 H   0  0  0  0  0  0  0  0  0  0  0  0
  140.0032   77.3948  220.8890 H   0  0  0  0  0  0  0  0  0  0  0  0
  140.8614   76.7170  223.7476 H   0  0  0  0  0  0  0  0  0  0  0  0
  141.9164   76.5580  222.3377 H   0  0  0  0  0  0  0  0  0  0  0  0
  143.3710   78.5463  222.2536 H   0  0  0  0  0  0  0  0  0  0  0  0
  143.5635   81.0260  222.3816 H   0  0  0  0  0  0  0  0  0  0  0  0
  141.5872   82.4111  222.9735 H   0  0  0  0  0  0  0  0  0  0  0  0
  139.3743   81.3388  223.4486 H   0  0  0  0  0  0  0  0  0  0  0  0
  138.9651   78.1986  224.3904 H   0  0  0  0  0  0  0  0  0  0  0  0
  138.0916   79.3095  223.2267 H   0  0  0  0  0  0  0  0  0  0  0  0
  1  2  1  0
  2  3  1  0
  3  4  1  0
  4  5  1  0
  5  6  2  0
  6  7  1  0
  7  8  1  0
  8  9  1  0
  9 10  1  0
 10 11  1  0
 11 12  2  0
 12 13  1  0
 13 14  2  0
 14 15  1  0
 15 16  2  0
 16 17  1  0
  7 18  2  0
 18 19  1  0
 19 20  1  0
 20 21  1  0
 21 22  1  0
 22 23  1  0
 23 24  2  0
 24 25  1  0
 25 26  2  0
 26 27  1  0
 27 28  2  0
 28 29  1  0
 19 30  2  0
  2 31  1  0
 31 32  1  0
 32 33  1  0
 33 34  1  0
 34 35  1  0
 35 36  2  0
 36 37  1  0
 37 38  2  0
 38 39  1  0
 39 40  2  0
 40 41  1  0
 30  5  1  0
 41 32  1  0
 17  8  1  0
 29 20  1  0
 40 35  1  0
 16 11  1  0
 28 23  1  0
  1 42  1  0
  1 43  1  0
  2 44  1  1
  3 45  1  0
  3 46  1  0
  4 47  1  0
  9 48  1  0
  9 49  1  0
 10 50  1  0
 10 51  1  0
 12 52  1  0
 13 53  1  0
 14 54  1  0
 15 55  1  0
 17 56  1  0
 17 57  1  0
 21 58  1  0
 21 59  1  0
 22 60  1  0
 22 61  1  0
 24 62  1  0
 25 63  1  0
 26 64  1  0
 27 65  1  0
 29 66  1  0
 29 67  1  0
 31 68  1  0
 31 69  1  0
 33 70  1  0
 33 71  1  0
 34 72  1  0
 34 73  1  0
 36 74  1  0
 37 75  1  0
 38 76  1  0
 39 77  1  0
 41 78  1  0
 41 79  1  0
M  END
>  <smiles>  (26) 
NC(CNc1nc(N2CCc3ccccc3C2)nc(N2CCc3ccccc3C2)n1)CN1CCc2ccccc2C1

>  <score_type>  (26) 
oracle

>  <origin>  (26) 
autodockgpu

>  <m_score__min__energy>  (26) 
-11.49

>  <m_primary>  (26) 
energy

>  <rmsd>  (26) 
9.243901408965073

>  <m_score__min__rmsd>  (26) 
9.243901408965073

>  <meeko>  (26) 
{"free_energy": -9.48, "intermolecular_energy": -11.86, "internal_energy": -3.18, "cluster_size": 9, "cluster_id": 7, "rank_in_cluster": 3}

>  <energy>  (26) 
-9.5

>  <cluster_rmsd>  (26) 
0.98

>  <cluster>  (26) 
3

$$$$

     RDKit          3D

 79 85  0  0  1  0  0  0  0  0999 V2000
  143.3780   70.0360  217.9710 N   0  0  0  0  0  0  0  0  0  0  0  0
  144.1100   69.9990  219.2150 C   0  0  2  0  0  0  0  0  0  0  0  0
  143.4970   71.0660  220.0950 C   0  0  0  0  0  0  0  0  0  0  0  0
  142.1170   71.3670  219.7050 N   0  0  0  0  0  0  0  0  0  0  0  0
  141.3610   72.1040  220.6840 C   0  0  0  0  0  0  0  0  0  0  0  0
  140.9740   73.3760  220.4800 N   0  0  0  0  0  0  0  0  0  0  0  0
  140.2650   74.0560  221.4260 C   0  0  0  0  0  0  0  0  0  0  0  0
  139.8400   75.3980  221.2290 N   0  0  0  0  0  0  0  0  0  0  0  0
  139.5230   75.9080  219.9310 C   0  0  0  0  0  0  0  0  0  0  0  0
  140.2920   77.1300  219.5690 C   0  0  0  0  0  0  0  0  0  0  0  0
  140.8110   77.8300  220.7540 C   0  0  0  0  0  0  0  0  0  0  0  0
  141.5980   78.9470  220.5440 C   0  0  0  0  0  0  0  0  0  0  0  0
  142.1400   79.6860  221.5870 C   0  0  0  0  0  0  0  0  0  0  0  0
  141.8860   79.2940  222.8770 C   0  0  0  0  0  0  0  0  0  0  0  0
  141.1100   78.1910  223.1330 C   0  0  0  0  0  0  0  0  0  0  0  0
  140.5800   77.4700  222.0580 C   0  0  0  0  0  0  0  0  0  0  0  0
  139.7400   76.2650  222.3900 C   0  0  0  0  0  0  0  0  0  0  0  0
  139.9510   73.4480  222.5730 N   0  0  0  0  0  0  0  0  0  0  0  0
  140.3230   72.1760  222.8070 C   0  0  0  0  0  0  0  0  0  0  0  0
  139.9600   71.5820  224.0490 N   0  0  0  0  0  0  0  0  0  0  0  0
  138.7620   70.7670  224.0980 C   0  0  0  0  0  0  0  0  0  0  0  0
  139.2460   69.3450  224.4010 C   0  0  0  0  0  0  0  0  0  0  0  0
  139.8250   69.4480  225.7890 C   0  0  0  0  0  0  0  0  0  0  0  0
  139.6430   68.3730  226.6560 C   0  0  0  0  0  0  0  0  0  0  0  0
  140.1770   68.4570  227.9430 C   0  0  0  0  0  0  0  0  0  0  0  0
  140.8680   69.5960  228.3270 C   0  0  0  0  0  0  0  0  0  0  0  0
  141.0440   70.6680  227.4500 C   0  0  0  0  0  0  0  0  0  0  0  0
  140.5150   70.5790  226.1770 C   0  0  0  0  0  0  0  0  0  0  0  0
  140.7170   71.7430  225.2560 C   0  0  0  0  0  0  0  0  0  0  0  0
  141.0220   71.5140  221.8690 N   0  0  0  0  0  0  0  0  0  0  0  0
  145.5660   70.3420  219.0330 C   0  0  0  0  0  0  0  0  0  0  0  0
  145.7980   71.6550  218.5220 N   0  0  0  0  0  0  0  0  0  0  0  0
  145.1860   71.9530  217.2850 C   0  0  0  0  0  0  0  0  0  0  0  0
  145.3240   73.4270  216.9750 C   0  0  0  0  0  0  0  0  0  0  0  0
  144.5570   74.1320  218.0390 C   0  0  0  0  0  0  0  0  0  0  0  0
  143.6150   75.0900  217.7990 C   0  0  0  0  0  0  0  0  0  0  0  0
  142.9680   75.6780  218.8750 C   0  0  0  0  0  0  0  0  0  0  0  0
  143.2760   75.2940  220.1840 C   0  0  0  0  0  0  0  0  0  0  0  0
  144.2340   74.3180  220.4400 C   0  0  0  0  0  0  0  0  0  0  0  0
  144.8630   73.7500  219.3510 C   0  0  0  0  0  0  0  0  0  0  0  0
  145.9040   72.6960  219.4830 C   0  0  0  0  0  0  0  0  0  0  0  0
  143.9690   70.0810  217.1380 H   0  0  0  0  0  0  0  0  0  0  0  0
  142.5850   69.3650  217.9500 H   0  0  0  0  0  0  0  0  0  0  0  0
  144.0528   68.9855  219.6386 H   0  0  0  0  0  0  0  0  0  0  0  0
  143.5038   70.7149  221.1374 H   0  0  0  0  0  0  0  0  0  0  0  0
  144.0918   71.9845  219.9831 H   0  0  0  0  0  0  0  0  0  0  0  0
  141.7140   71.0710  218.7910 H   0  0  0  0  0  0  0  0  0  0  0  0
  139.7402   75.1270  219.1875 H   0  0  0  0  0  0  0  0  0  0  0  0
  138.4591   76.1873  219.9441 H   0  0  0  0  0  0  0  0  0  0  0  0
  141.1388   76.8395  218.9298 H   0  0  0  0  0  0  0  0  0  0  0  0
  139.6106   77.8149  219.0431 H   0  0  0  0  0  0  0  0  0  0  0  0
  141.8028   79.2626  219.5103 H   0  0  0  0  0  0  0  0  0  0  0  0
  142.7619   80.5700  221.3827 H   0  0  0  0  0  0  0  0  0  0  0  0
  142.3083   79.8691  223.7142 H   0  0  0  0  0  0  0  0  0  0  0  0
  140.9080   77.8788  224.1682 H   0  0  0  0  0  0  0  0  0  0  0  0
  140.1301   75.7577  223.2847 H   0  0  0  0  0  0  0  0  0  0  0  0
  138.6975   76.5390  222.6093 H   0  0  0  0  0  0  0  0  0  0  0  0
  138.0884   71.1212  224.8922 H   0  0  0  0  0  0  0  0  0  0  0  0
  138.1979   70.8137  223.1548 H   0  0  0  0  0  0  0  0  0  0  0  0
  138.4078   68.6330  224.3783 H   0  0  0  0  0  0  0  0  0  0  0  0
  139.9748   68.9784  223.6631 H   0  0  0  0  0  0  0  0  0  0  0  0
  139.0908   67.4779  226.3337 H   0  0  0  0  0  0  0  0  0  0  0  0
  140.0501   67.6233  228.6493 H   0  0  0  0  0  0  0  0  0  0  0  0
  141.2858   69.6563  229.3428 H   0  0  0  0  0  0  0  0  0  0  0  0
  141.5936   71.5666  227.7668 H   0  0  0  0  0  0  0  0  0  0  0  0
  140.3929   72.6635  225.7636 H   0  0  0  0  0  0  0  0  0  0  0  0
  141.7839   71.8015  224.9948 H   0  0  0  0  0  0  0  0  0  0  0  0
  146.0648   70.2587  220.0098 H   0  0  0  0  0  0  0  0  0  0  0  0
  145.9663   69.6376  218.2890 H   0  0  0  0  0  0  0  0  0  0  0  0
  145.6705   71.3676  216.4897 H   0  0  0  0  0  0  0  0  0  0  0  0
  144.1177   71.6970  217.3424 H   0  0  0  0  0  0  0  0  0  0  0  0
  146.3818   73.7276  217.0006 H   0  0  0  0  0  0  0  0  0  0  0  0
  144.9456   73.6696  215.9710 H   0  0  0  0  0  0  0  0  0  0  0  0
  143.3731   75.3906  216.7689 H   0  0  0  0  0  0  0  0  0  0  0  0
  142.2069   76.4522  218.6978 H   0  0  0  0  0  0  0  0  0  0  0  0
  142.7522   75.7715  221.0252 H   0  0  0  0  0  0  0  0  0  0  0  0
  144.4797   74.0119  221.4676 H   0  0  0  0  0  0  0  0  0  0  0  0
  146.8910   73.1690  219.3730 H   0  0  0  0  0  0  0  0  0  0  0  0
  145.7639   72.2325  220.4707 H   0  0  0  0  0  0  0  0  0  0  0  0
  1  2  1  0
  2  3  1  0
  3  4  1  0
  4  5  1  0
  5  6  2  0
  6  7  1  0
  7  8  1  0
  8  9  1  0
  9 10  1  0
 10 11  1  0
 11 12  2  0
 12 13  1  0
 13 14  2  0
 14 15  1  0
 15 16  2  0
 16 17  1  0
  7 18  2  0
 18 19  1  0
 19 20  1  0
 20 21  1  0
 21 22  1  0
 22 23  1  0
 23 24  2  0
 24 25  1  0
 25 26  2  0
 26 27  1  0
 27 28  2  0
 28 29  1  0
 19 30  2  0
  2 31  1  0
 31 32  1  0
 32 33  1  0
 33 34  1  0
 34 35  1  0
 35 36  2  0
 36 37  1  0
 37 38  2  0
 38 39  1  0
 39 40  2  0
 40 41  1  0
 30  5  1  0
 41 32  1  0
 17  8  1  0
 29 20  1  0
 40 35  1  0
 16 11  1  0
 28 23  1  0
  1 42  1  0
  1 43  1  0
  2 44  1  1
  3 45  1  0
  3 46  1  0
  4 47  1  0
  9 48  1  0
  9 49  1  0
 10 50  1  0
 10 51  1  0
 12 52  1  0
 13 53  1  0
 14 54  1  0
 15 55  1  0
 17 56  1  0
 17 57  1  0
 21 58  1  0
 21 59  1  0
 22 60  1  0
 22 61  1  0
 24 62  1  0
 25 63  1  0
 26 64  1  0
 27 65  1  0
 29 66  1  0
 29 67  1  0
 31 68  1  0
 31 69  1  0
 33 70  1  0
 33 71  1  0
 34 72  1  0
 34 73  1  0
 36 74  1  0
 37 75  1  0
 38 76  1  0
 39 77  1  0
 41 78  1  0
 41 79  1  0
M  END
>  <smiles>  (27) 
NC(CNc1nc(N2CCc3ccccc3C2)nc(N2CCc3ccccc3C2)n1)CN1CCc2ccccc2C1

>  <score_type>  (27) 
oracle

>  <origin>  (27) 
autodockgpu

>  <m_score__min__energy>  (27) 
-11.49

>  <m_primary>  (27) 
energy

>  <rmsd>  (27) 
9.719109673772698

>  <m_score__min__rmsd>  (27) 
9.719109673772698

>  <meeko>  (27) 
{"free_energy": -10.06, "intermolecular_energy": -12.45, "internal_energy": -3.01, "cluster_size": 4, "cluster_id": 5, "rank_in_cluster": 2}

>  <energy>  (27) 
-10.32

>  <cluster_rmsd>  (27) 
0.0

>  <cluster>  (27) 
4

$$$$

     RDKit          3D

 79 85  0  0  1  0  0  0  0  0999 V2000
  138.5280   75.5520  219.7550 N   0  0  0  0  0  0  0  0  0  0  0  0
  138.1510   75.6420  221.1460 C   0  0  2  0  0  0  0  0  0  0  0  0
  136.7620   75.0490  221.2440 C   0  0  0  0  0  0  0  0  0  0  0  0
  136.7680   73.6050  220.9930 N   0  0  0  0  0  0  0  0  0  0  0  0
  137.9640   72.9250  221.4180 C   0  0  0  0  0  0  0  0  0  0  0  0
  139.0620   72.8550  220.6420 N   0  0  0  0  0  0  0  0  0  0  0  0
  140.1800   72.1990  221.0640 C   0  0  0  0  0  0  0  0  0  0  0  0
  141.3530   72.1180  220.2640 N   0  0  0  0  0  0  0  0  0  0  0  0
  142.0560   70.8870  220.0770 C   0  0  0  0  0  0  0  0  0  0  0  0
  143.4960   70.9640  220.4480 C   0  0  0  0  0  0  0  0  0  0  0  0
  143.9980   72.3460  220.4390 C   0  0  0  0  0  0  0  0  0  0  0  0
  145.3080   72.5540  220.8300 C   0  0  0  0  0  0  0  0  0  0  0  0
  145.8880   73.8140  220.8590 C   0  0  0  0  0  0  0  0  0  0  0  0
  145.1350   74.8980  220.4840 C   0  0  0  0  0  0  0  0  0  0  0  0
  143.8300   74.7390  220.0890 C   0  0  0  0  0  0  0  0  0  0  0  0
  143.2770   73.4550  220.0720 C   0  0  0  0  0  0  0  0  0  0  0  0
  141.8410   73.3330  219.6350 C   0  0  0  0  0  0  0  0  0  0  0  0
  140.1840   71.6150  222.2660 N   0  0  0  0  0  0  0  0  0  0  0  0
  139.1030   71.6680  223.0640 C   0  0  0  0  0  0  0  0  0  0  0  0
  139.1680   71.0260  224.3340 N   0  0  0  0  0  0  0  0  0  0  0  0
  138.3020   69.8890  224.5760 C   0  0  0  0  0  0  0  0  0  0  0  0
  139.2390   68.6890  224.7450 C   0  0  0  0  0  0  0  0  0  0  0  0
  140.0020   68.9990  226.0070 C   0  0  0  0  0  0  0  0  0  0  0  0
  140.3130   67.9450  226.8610 C   0  0  0  0  0  0  0  0  0  0  0  0
  141.0210   68.2220  228.0330 C   0  0  0  0  0  0  0  0  0  0  0  0
  141.3930   69.5260  228.3190 C   0  0  0  0  0  0  0  0  0  0  0  0
  141.0750   70.5770  227.4550 C   0  0  0  0  0  0  0  0  0  0  0  0
  140.3760   70.2960  226.2970 C   0  0  0  0  0  0  0  0  0  0  0  0
  140.0460   71.4410  225.3880 C   0  0  0  0  0  0  0  0  0  0  0  0
  138.0050   72.3160  222.6410 N   0  0  0  0  0  0  0  0  0  0  0  0
  138.0700   77.0680  221.6260 C   0  0  0  0  0  0  0  0  0  0  0  0
  139.1080   77.4410  222.5310 N   0  0  0  0  0  0  0  0  0  0  0  0
  140.4100   77.0200  222.1830 C   0  0  0  0  0  0  0  0  0  0  0  0
  141.4300   77.6670  223.0960 C   0  0  0  0  0  0  0  0  0  0  0  0
  141.3400   79.1270  222.8230 C   0  0  0  0  0  0  0  0  0  0  0  0
  142.4130   79.9240  222.5470 C   0  0  0  0  0  0  0  0  0  0  0  0
  142.2030   81.2740  222.3120 C   0  0  0  0  0  0  0  0  0  0  0  0
  140.9120   81.8090  222.3570 C   0  0  0  0  0  0  0  0  0  0  0  0
  139.8110   81.0060  222.6370 C   0  0  0  0  0  0  0  0  0  0  0  0
  140.0480   79.6670  222.8670 C   0  0  0  0  0  0  0  0  0  0  0  0
  138.9620   78.6990  223.1760 C   0  0  0  0  0  0  0  0  0  0  0  0
  138.8750   74.6330  219.4730 H   0  0  0  0  0  0  0  0  0  0  0  0
  137.8440   76.0120  219.1220 H   0  0  0  0  0  0  0  0  0  0  0  0
  138.9018   75.1218  221.7589 H   0  0  0  0  0  0  0  0  0  0  0  0
  136.3665   75.2333  222.2538 H   0  0  0  0  0  0  0  0  0  0  0  0
  136.1315   75.5265  220.4794 H   0  0  0  0  0  0  0  0  0  0  0  0
  135.9710   73.1090  220.5430 H   0  0  0  0  0  0  0  0  0  0  0  0
  141.5773   70.1148  220.6972 H   0  0  0  0  0  0  0  0  0  0  0  0
  142.0102   70.6476  219.0043 H   0  0  0  0  0  0  0  0  0  0  0  0
  143.6246   70.5468  221.4577 H   0  0  0  0  0  0  0  0  0  0  0  0
  144.0681   70.3917  219.7029 H   0  0  0  0  0  0  0  0  0  0  0  0
  145.9140   71.6863  221.1298 H   0  0  0  0  0  0  0  0  0  0  0  0
  146.9332   73.9417  221.1770 H   0  0  0  0  0  0  0  0  0  0  0  0
  145.5810   75.9034  220.5000 H   0  0  0  0  0  0  0  0  0  0  0  0
  143.2278   75.6096  219.7900 H   0  0  0  0  0  0  0  0  0  0  0  0
  141.2595   74.2031  219.9738 H   0  0  0  0  0  0  0  0  0  0  0  0
  141.7465   73.2952  218.5397 H   0  0  0  0  0  0  0  0  0  0  0  0
  137.7089   70.0451  225.4891 H   0  0  0  0  0  0  0  0  0  0  0  0
  137.5888   69.7369  223.7525 H   0  0  0  0  0  0  0  0  0  0  0  0
  138.6652   67.7568  224.8537 H   0  0  0  0  0  0  0  0  0  0  0  0
  139.8980   68.5401  223.8769 H   0  0  0  0  0  0  0  0  0  0  0  0
  140.0080   66.9163  226.6184 H   0  0  0  0  0  0  0  0  0  0  0  0
  141.2821   67.4085  228.7259 H   0  0  0  0  0  0  0  0  0  0  0  0
  141.9494   69.7377  229.2440 H   0  0  0  0  0  0  0  0  0  0  0  0
  141.3754   71.6083  227.6923 H   0  0  0  0  0  0  0  0  0  0  0  0
  139.5564   72.2341  225.9722 H   0  0  0  0  0  0  0  0  0  0  0  0
  140.9796   71.8117  224.9397 H   0  0  0  0  0  0  0  0  0  0  0  0
  138.1223   77.7304  220.7494 H   0  0  0  0  0  0  0  0  0  0  0  0
  137.1222   77.1626  222.1762 H   0  0  0  0  0  0  0  0  0  0  0  0
  140.4766   75.9264  222.2809 H   0  0  0  0  0  0  0  0  0  0  0  0
  140.6179   77.3173  221.1446 H   0  0  0  0  0  0  0  0  0  0  0  0
  141.1907   77.4575  224.1490 H   0  0  0  0  0  0  0  0  0  0  0  0
  142.4435   77.2800  222.9141 H   0  0  0  0  0  0  0  0  0  0  0  0
  143.4282   79.5019  222.5116 H   0  0  0  0  0  0  0  0  0  0  0  0
  143.0581   81.9289  222.0886 H   0  0  0  0  0  0  0  0  0  0  0  0
  140.7644   82.8825  222.1679 H   0  0  0  0  0  0  0  0  0  0  0  0
  138.7933   81.4219  222.6734 H   0  0  0  0  0  0  0  0  0  0  0  0
  138.9476   78.5308  224.2630 H   0  0  0  0  0  0  0  0  0  0  0  0
  138.0262   79.1410  222.8032 H   0  0  0  0  0  0  0  0  0  0  0  0
  1  2  1  0
  2  3  1  0
  3  4  1  0
  4  5  1  0
  5  6  2  0
  6  7  1  0
  7  8  1  0
  8  9  1  0
  9 10  1  0
 10 11  1  0
 11 12  2  0
 12 13  1  0
 13 14  2  0
 14 15  1  0
 15 16  2  0
 16 17  1  0
  7 18  2  0
 18 19  1  0
 19 20  1  0
 20 21  1  0
 21 22  1  0
 22 23  1  0
 23 24  2  0
 24 25  1  0
 25 26  2  0
 26 27  1  0
 27 28  2  0
 28 29  1  0
 19 30  2  0
  2 31  1  0
 31 32  1  0
 32 33  1  0
 33 34  1  0
 34 35  1  0
 35 36  2  0
 36 37  1  0
 37 38  2  0
 38 39  1  0
 39 40  2  0
 40 41  1  0
 30  5  1  0
 41 32  1  0
 17  8  1  0
 29 20  1  0
 40 35  1  0
 16 11  1  0
 28 23  1  0
  1 42  1  0
  1 43  1  0
  2 44  1  1
  3 45  1  0
  3 46  1  0
  4 47  1  0
  9 48  1  0
  9 49  1  0
 10 50  1  0
 10 51  1  0
 12 52  1  0
 13 53  1  0
 14 54  1  0
 15 55  1  0
 17 56  1  0
 17 57  1  0
 21 58  1  0
 21 59  1  0
 22 60  1  0
 22 61  1  0
 24 62  1  0
 25 63  1  0
 26 64  1  0
 27 65  1  0
 29 66  1  0
 29 67  1  0
 31 68  1  0
 31 69  1  0
 33 70  1  0
 33 71  1  0
 34 72  1  0
 34 73  1  0
 36 74  1  0
 37 75  1  0
 38 76  1  0
 39 77  1  0
 41 78  1  0
 41 79  1  0
M  END
>  <smiles>  (28) 
NC(CNc1nc(N2CCc3ccccc3C2)nc(N2CCc3ccccc3C2)n1)CN1CCc2ccccc2C1

>  <score_type>  (28) 
oracle

>  <origin>  (28) 
autodockgpu

>  <m_score__min__energy>  (28) 
-11.49

>  <m_primary>  (28) 
energy

>  <rmsd>  (28) 
9.420328711061359

>  <m_score__min__rmsd>  (28) 
9.420328711061359

>  <meeko>  (28) 
{"free_energy": -9.71, "intermolecular_energy": -12.1, "internal_energy": -2.37, "cluster_size": 9, "cluster_id": 7, "rank_in_cluster": 1}

>  <energy>  (28) 
-10.09

>  <cluster_rmsd>  (28) 
0.0

>  <cluster>  (28) 
5

$$$$

     RDKit          3D

 79 85  0  0  1  0  0  0  0  0999 V2000
  140.1930   75.1810  218.6730 N   0  0  0  0  0  0  0  0  0  0  0  0
  141.4030   74.7790  219.3500 C   0  0  2  0  0  0  0  0  0  0  0  0
  141.0140   73.6390  220.2650 C   0  0  0  0  0  0  0  0  0  0  0  0
  139.5860   73.3230  220.1630 N   0  0  0  0  0  0  0  0  0  0  0  0
  138.9980   72.7990  221.3680 C   0  0  0  0  0  0  0  0  0  0  0  0
  137.6800   72.8970  221.6230 N   0  0  0  0  0  0  0  0  0  0  0  0
  137.1480   72.3990  222.7750 C   0  0  0  0  0  0  0  0  0  0  0  0
  135.7580   72.4850  223.0620 N   0  0  0  0  0  0  0  0  0  0  0  0
  135.0200   73.6940  222.8640 C   0  0  0  0  0  0  0  0  0  0  0  0
  134.3040   74.1580  224.0840 C   0  0  0  0  0  0  0  0  0  0  0  0
  134.0850   73.0690  225.0470 C   0  0  0  0  0  0  0  0  0  0  0  0
  133.4850   73.3900  226.2510 C   0  0  0  0  0  0  0  0  0  0  0  0
  133.2290   72.4440  227.2340 C   0  0  0  0  0  0  0  0  0  0  0  0
  133.5840   71.1390  227.0040 C   0  0  0  0  0  0  0  0  0  0  0  0
  134.1820   70.7740  225.8230 C   0  0  0  0  0  0  0  0  0  0  0  0
  134.4250   71.7530  224.8550 C   0  0  0  0  0  0  0  0  0  0  0  0
  135.0880   71.3050  223.5790 C   0  0  0  0  0  0  0  0  0  0  0  0
  137.9490   71.8050  223.6650 N   0  0  0  0  0  0  0  0  0  0  0  0
  139.2700   71.6920  223.4390 C   0  0  0  0  0  0  0  0  0  0  0  0
  140.0720   71.0490  224.4250 N   0  0  0  0  0  0  0  0  0  0  0  0
  141.0120   71.8550  225.1800 C   0  0  0  0  0  0  0  0  0  0  0  0
  140.5100   71.8220  226.6270 C   0  0  0  0  0  0  0  0  0  0  0  0
  140.6670   70.3800  227.0320 C   0  0  0  0  0  0  0  0  0  0  0  0
  141.0620   70.1050  228.3400 C   0  0  0  0  0  0  0  0  0  0  0  0
  141.2100   68.7710  228.7260 C   0  0  0  0  0  0  0  0  0  0  0  0
  140.9650   67.7600  227.8100 C   0  0  0  0  0  0  0  0  0  0  0  0
  140.5690   68.0460  226.5010 C   0  0  0  0  0  0  0  0  0  0  0  0
  140.4240   69.3680  226.1250 C   0  0  0  0  0  0  0  0  0  0  0  0
  140.0000   69.6480  224.7160 C   0  0  0  0  0  0  0  0  0  0  0  0
  139.7860   72.1850  222.3010 N   0  0  0  0  0  0  0  0  0  0  0  0
  141.9680   75.8790  220.2120 C   0  0  0  0  0  0  0  0  0  0  0  0
  140.9850   76.7520  220.7660 N   0  0  0  0  0  0  0  0  0  0  0  0
  140.5440   76.4360  222.0690 C   0  0  0  0  0  0  0  0  0  0  0  0
  139.6840   77.5550  222.6160 C   0  0  0  0  0  0  0  0  0  0  0  0
  140.5840   78.7360  222.7190 C   0  0  0  0  0  0  0  0  0  0  0  0
  140.7170   79.5050  223.8390 C   0  0  0  0  0  0  0  0  0  0  0  0
  141.5870   80.5840  223.8130 C   0  0  0  0  0  0  0  0  0  0  0  0
  142.3170   80.8780  222.6570 C   0  0  0  0  0  0  0  0  0  0  0  0
  142.1890   80.1020  221.5090 C   0  0  0  0  0  0  0  0  0  0  0  0
  141.3160   79.0340  221.5630 C   0  0  0  0  0  0  0  0  0  0  0  0
  141.0870   78.1240  220.4090 C   0  0  0  0  0  0  0  0  0  0  0  0
  139.6500   74.4060  218.2880 H   0  0  0  0  0  0  0  0  0  0  0  0
  139.6670   75.9150  219.1880 H   0  0  0  0  0  0  0  0  0  0  0  0
  142.1639   74.5102  218.6025 H   0  0  0  0  0  0  0  0  0  0  0  0
  141.5967   72.7473  219.9906 H   0  0  0  0  0  0  0  0  0  0  0  0
  141.2238   73.9445  221.3007 H   0  0  0  0  0  0  0  0  0  0  0  0
  139.0390   73.4660  219.2880 H   0  0  0  0  0  0  0  0  0  0  0  0
  135.7202   74.4821  222.5501 H   0  0  0  0  0  0  0  0  0  0  0  0
  134.2567   73.4862  222.0997 H   0  0  0  0  0  0  0  0  0  0  0  0
  134.9018   74.9442  224.5682 H   0  0  0  0  0  0  0  0  0  0  0  0
  133.3193   74.5378  223.7739 H   0  0  0  0  0  0  0  0  0  0  0  0
  133.1995   74.4359  226.4369 H   0  0  0  0  0  0  0  0  0  0  0  0
  132.7501   72.7355  228.1804 H   0  0  0  0  0  0  0  0  0  0  0  0
  133.3877   70.3775  227.7732 H   0  0  0  0  0  0  0  0  0  0  0  0
  134.4657   69.7269  225.6413 H   0  0  0  0  0  0  0  0  0  0  0  0
  135.8164   70.5063  223.7828 H   0  0  0  0  0  0  0  0  0  0  0  0
  134.3620   70.8971  222.8603 H   0  0  0  0  0  0  0  0  0  0  0  0
  142.0237   71.4283  225.1143 H   0  0  0  0  0  0  0  0  0  0  0  0
  141.0717   72.8827  224.7922 H   0  0  0  0  0  0  0  0  0  0  0  0
  141.1189   72.4769  227.2675 H   0  0  0  0  0  0  0  0  0  0  0  0
  139.4745   72.1798  226.7251 H   0  0  0  0  0  0  0  0  0  0  0  0
  141.2530   70.9208  229.0527 H   0  0  0  0  0  0  0  0  0  0  0  0
  141.5196   68.5238  229.7522 H   0  0  0  0  0  0  0  0  0  0  0  0
  141.0847   66.7114  228.1199 H   0  0  0  0  0  0  0  0  0  0  0  0
  140.3764   67.2347  225.7836 H   0  0  0  0  0  0  0  0  0  0  0  0
  140.6618   69.1033  224.0266 H   0  0  0  0  0  0  0  0  0  0  0  0
  138.9578   69.3184  224.5924 H   0  0  0  0  0  0  0  0  0  0  0  0
  142.5246   75.4165  221.0404 H   0  0  0  0  0  0  0  0  0  0  0  0
  142.6059   76.4945  219.5607 H   0  0  0  0  0  0  0  0  0  0  0  0
  139.9553   75.5073  222.0380 H   0  0  0  0  0  0  0  0  0  0  0  0
  141.4194   76.3044  222.7219 H   0  0  0  0  0  0  0  0  0  0  0  0
  138.8487   77.7669  221.9323 H   0  0  0  0  0  0  0  0  0  0  0  0
  139.2436   77.2921  223.5891 H   0  0  0  0  0  0  0  0  0  0  0  0
  140.1428   79.2721  224.7479 H   0  0  0  0  0  0  0  0  0  0  0  0
  141.7039   81.2132  224.7077 H   0  0  0  0  0  0  0  0  0  0  0  0
  143.0040   81.7371  222.6551 H   0  0  0  0  0  0  0  0  0  0  0  0
  142.7596   80.3301  220.5966 H   0  0  0  0  0  0  0  0  0  0  0  0
  140.1517   78.4228  219.9131 H   0  0  0  0  0  0  0  0  0  0  0  0
  141.9637   78.2174  219.7512 H   0  0  0  0  0  0  0  0  0  0  0  0
  1  2  1  0
  2  3  1  0
  3  4  1  0
  4  5  1  0
  5  6  2  0
  6  7  1  0
  7  8  1  0
  8  9  1  0
  9 10  1  0
 10 11  1  0
 11 12  2  0
 12 13  1  0
 13 14  2  0
 14 15  1  0
 15 16  2  0
 16 17  1  0
  7 18  2  0
 18 19  1  0
 19 20  1  0
 20 21  1  0
 21 22  1  0
 22 23  1  0
 23 24  2  0
 24 25  1  0
 25 26  2  0
 26 27  1  0
 27 28  2  0
 28 29  1  0
 19 30  2  0
  2 31  1  0
 31 32  1  0
 32 33  1  0
 33 34  1  0
 34 35  1  0
 35 36  2  0
 36 37  1  0
 37 38  2  0
 38 39  1  0
 39 40  2  0
 40 41  1  0
 30  5  1  0
 41 32  1  0
 17  8  1  0
 29 20  1  0
 40 35  1  0
 16 11  1  0
 28 23  1  0
  1 42  1  0
  1 43  1  0
  2 44  1  6
  3 45  1  0
  3 46  1  0
  4 47  1  0
  9 48  1  0
  9 49  1  0
 10 50  1  0
 10 51  1  0
 12 52  1  0
 13 53  1  0
 14 54  1  0
 15 55  1  0
 17 56  1  0
 17 57  1  0
 21 58  1  0
 21 59  1  0
 22 60  1  0
 22 61  1  0
 24 62  1  0
 25 63  1  0
 26 64  1  0
 27 65  1  0
 29 66  1  0
 29 67  1  0
 31 68  1  0
 31 69  1  0
 33 70  1  0
 33 71  1  0
 34 72  1  0
 34 73  1  0
 36 74  1  0
 37 75  1  0
 38 76  1  0
 39 77  1  0
 41 78  1  0
 41 79  1  0
M  END
>  <smiles>  (29) 
NC(CNc1nc(N2CCc3ccccc3C2)nc(N2CCc3ccccc3C2)n1)CN1CCc2ccccc2C1

>  <score_type>  (29) 
oracle

>  <origin>  (29) 
autodockgpu

>  <m_score__min__energy>  (29) 
-11.49

>  <m_primary>  (29) 
energy

>  <rmsd>  (29) 
9.200808142808144

>  <m_score__min__rmsd>  (29) 
9.200808142808144

>  <meeko>  (29) 
{"free_energy": -9.35, "intermolecular_energy": -11.74, "internal_energy": -2.82, "cluster_size": 12, "cluster_id": 2, "rank_in_cluster": 11}

>  <energy>  (29) 
-10.06

>  <cluster_rmsd>  (29) 
0.36

>  <cluster>  (29) 
5

$$$$

     RDKit          3D

 79 85  0  0  1  0  0  0  0  0999 V2000
  141.6020   77.8400  221.9460 N   0  0  0  0  0  0  0  0  0  0  0  0
  140.3350   77.5290  221.3270 C   0  0  2  0  0  0  0  0  0  0  0  0
  140.1280   76.0430  221.5150 C   0  0  0  0  0  0  0  0  0  0  0  0
  141.3990   75.3130  221.5250 N   0  0  0  0  0  0  0  0  0  0  0  0
  141.2710   73.8810  221.5950 C   0  0  0  0  0  0  0  0  0  0  0  0
  141.6620   73.0770  220.5890 N   0  0  0  0  0  0  0  0  0  0  0  0
  141.5230   71.7240  220.6760 C   0  0  0  0  0  0  0  0  0  0  0  0
  141.9360   70.8550  219.6280 N   0  0  0  0  0  0  0  0  0  0  0  0
  141.0950   69.8050  219.1430 C   0  0  0  0  0  0  0  0  0  0  0  0
  141.7380   68.4630  219.1860 C   0  0  0  0  0  0  0  0  0  0  0  0
  143.2050   68.5510  219.2260 C   0  0  0  0  0  0  0  0  0  0  0  0
  143.9150   67.3690  219.3330 C   0  0  0  0  0  0  0  0  0  0  0  0
  145.3020   67.3320  219.3790 C   0  0  0  0  0  0  0  0  0  0  0  0
  145.9970   68.5130  219.3160 C   0  0  0  0  0  0  0  0  0  0  0  0
  145.3340   69.7100  219.2090 C   0  0  0  0  0  0  0  0  0  0  0  0
  143.9370   69.7110  219.1660 C   0  0  0  0  0  0  0  0  0  0  0  0
  143.2550   71.0500  219.0530 C   0  0  0  0  0  0  0  0  0  0  0  0
  140.9900   71.1880  221.7770 N   0  0  0  0  0  0  0  0  0  0  0  0
  140.5900   71.9640  222.8000 C   0  0  0  0  0  0  0  0  0  0  0  0
  140.0280   71.3350  223.9480 N   0  0  0  0  0  0  0  0  0  0  0  0
  138.8680   70.4850  223.7680 C   0  0  0  0  0  0  0  0  0  0  0  0
  139.3350   69.0720  224.1340 C   0  0  0  0  0  0  0  0  0  0  0  0
  139.6510   69.1640  225.6040 C   0  0  0  0  0  0  0  0  0  0  0  0
  139.3510   68.0680  226.4100 C   0  0  0  0  0  0  0  0  0  0  0  0
  139.6400   68.1430  227.7730 C   0  0  0  0  0  0  0  0  0  0  0  0
  140.2120   69.2940  228.2920 C   0  0  0  0  0  0  0  0  0  0  0  0
  140.5090   70.3880  227.4760 C   0  0  0  0  0  0  0  0  0  0  0  0
  140.2210   70.3080  226.1270 C   0  0  0  0  0  0  0  0  0  0  0  0
  140.5480   71.4950  225.2740 C   0  0  0  0  0  0  0  0  0  0  0  0
  140.7290   73.2980  222.7060 N   0  0  0  0  0  0  0  0  0  0  0  0
  140.3400   77.8020  219.8450 C   0  0  0  0  0  0  0  0  0  0  0  0
  141.6330   77.7420  219.2430 N   0  0  0  0  0  0  0  0  0  0  0  0
  142.0290   76.4770  218.7560 C   0  0  0  0  0  0  0  0  0  0  0  0
  143.3050   76.6020  217.9530 C   0  0  0  0  0  0  0  0  0  0  0  0
  142.9560   77.4480  216.7790 C   0  0  0  0  0  0  0  0  0  0  0  0
  143.2360   77.1180  215.4840 C   0  0  0  0  0  0  0  0  0  0  0  0
  142.8630   77.9900  214.4740 C   0  0  0  0  0  0  0  0  0  0  0  0
  142.2090   79.1880  214.7770 C   0  0  0  0  0  0  0  0  0  0  0  0
  141.9170   79.5340  216.0930 C   0  0  0  0  0  0  0  0  0  0  0  0
  142.3010   78.6480  217.0790 C   0  0  0  0  0  0  0  0  0  0  0  0
  142.0490   78.8940  218.5240 C   0  0  0  0  0  0  0  0  0  0  0  0
  141.7760   77.3370  222.8190 H   0  0  0  0  0  0  0  0  0  0  0  0
  142.3840   77.8840  221.2630 H   0  0  0  0  0  0  0  0  0  0  0  0
  139.5485   78.1489  221.7821 H   0  0  0  0  0  0  0  0  0  0  0  0
  139.6127   75.8736  222.4719 H   0  0  0  0  0  0  0  0  0  0  0  0
  139.5275   75.6721  220.6713 H   0  0  0  0  0  0  0  0  0  0  0  0
  142.3230   75.7920  221.4840 H   0  0  0  0  0  0  0  0  0  0  0  0
  140.1845   69.7750  219.7595 H   0  0  0  0  0  0  0  0  0  0  0  0
  140.8765   70.0260  218.0878 H   0  0  0  0  0  0  0  0  0  0  0  0
  141.3904   67.9323  220.0846 H   0  0  0  0  0  0  0  0  0  0  0  0
  141.4569   67.9244  218.2690 H   0  0  0  0  0  0  0  0  0  0  0  0
  143.3590   66.4212  219.3836 H   0  0  0  0  0  0  0  0  0  0  0  0
  145.8341   66.3730  219.4644 H   0  0  0  0  0  0  0  0  0  0  0  0
  147.0963   68.5006  219.3516 H   0  0  0  0  0  0  0  0  0  0  0  0
  145.8942   70.6553  219.1578 H   0  0  0  0  0  0  0  0  0  0  0  0
  143.8114   71.8149  219.6145 H   0  0  0  0  0  0  0  0  0  0  0  0
  143.2019   71.3978  218.0108 H   0  0  0  0  0  0  0  0  0  0  0  0
  138.0510   70.8039  224.4319 H   0  0  0  0  0  0  0  0  0  0  0  0
  138.4822   70.5336  222.7390 H   0  0  0  0  0  0  0  0  0  0  0  0
  138.5379   68.3366  223.9504 H   0  0  0  0  0  0  0  0  0  0  0  0
  140.1963   68.7415  223.5349 H   0  0  0  0  0  0  0  0  0  0  0  0
  138.8961   67.1630  225.9811 H   0  0  0  0  0  0  0  0  0  0  0  0
  139.4148   67.2922  228.4329 H   0  0  0  0  0  0  0  0  0  0  0  0
  140.4364   69.3469  229.3676 H   0  0  0  0  0  0  0  0  0  0  0  0
  140.9635   71.2959  227.8992 H   0  0  0  0  0  0  0  0  0  0  0  0
  140.1073   72.3954  225.7268 H   0  0  0  0  0  0  0  0  0  0  0  0
  141.6421   71.5903  225.2117 H   0  0  0  0  0  0  0  0  0  0  0  0
  139.6964   77.0567  219.3548 H   0  0  0  0  0  0  0  0  0  0  0  0
  139.9771   78.8319  219.7122 H   0  0  0  0  0  0  0  0  0  0  0  0
  142.1988   75.7979  219.6045 H   0  0  0  0  0  0  0  0  0  0  0  0
  141.2350   76.0774  218.1080 H   0  0  0  0  0  0  0  0  0  0  0  0
  144.0912   77.0832  218.5533 H   0  0  0  0  0  0  0  0  0  0  0  0
  143.6918   75.6189  217.6465 H   0  0  0  0  0  0  0  0  0  0  0  0
  143.7496   76.1747  215.2463 H   0  0  0  0  0  0  0  0  0  0  0  0
  143.0830   77.7379  213.4261 H   0  0  0  0  0  0  0  0  0  0  0  0
  141.9206   79.8681  213.9620 H   0  0  0  0  0  0  0  0  0  0  0  0
  141.4016   80.4746  216.3371 H   0  0  0  0  0  0  0  0  0  0  0  0
  142.9784   79.2681  218.9782 H   0  0  0  0  0  0  0  0  0  0  0  0
  141.2253   79.6206  218.5838 H   0  0  0  0  0  0  0  0  0  0  0  0
  1  2  1  0
  2  3  1  0
  3  4  1  0
  4  5  1  0
  5  6  2  0
  6  7  1  0
  7  8  1  0
  8  9  1  0
  9 10  1  0
 10 11  1  0
 11 12  2  0
 12 13  1  0
 13 14  2  0
 14 15  1  0
 15 16  2  0
 16 17  1  0
  7 18  2  0
 18 19  1  0
 19 20  1  0
 20 21  1  0
 21 22  1  0
 22 23  1  0
 23 24  2  0
 24 25  1  0
 25 26  2  0
 26 27  1  0
 27 28  2  0
 28 29  1  0
 19 30  2  0
  2 31  1  0
 31 32  1  0
 32 33  1  0
 33 34  1  0
 34 35  1  0
 35 36  2  0
 36 37  1  0
 37 38  2  0
 38 39  1  0
 39 40  2  0
 40 41  1  0
 30  5  1  0
 41 32  1  0
 17  8  1  0
 29 20  1  0
 40 35  1  0
 16 11  1  0
 28 23  1  0
  1 42  1  0
  1 43  1  0
  2 44  1  1
  3 45  1  0
  3 46  1  0
  4 47  1  0
  9 48  1  0
  9 49  1  0
 10 50  1  0
 10 51  1  0
 12 52  1  0
 13 53  1  0
 14 54  1  0
 15 55  1  0
 17 56  1  0
 17 57  1  0
 21 58  1  0
 21 59  1  0
 22 60  1  0
 22 61  1  0
 24 62  1  0
 25 63  1  0
 26 64  1  0
 27 65  1  0
 29 66  1  0
 29 67  1  0
 31 68  1  0
 31 69  1  0
 33 70  1  0
 33 71  1  0
 34 72  1  0
 34 73  1  0
 36 74  1  0
 37 75  1  0
 38 76  1  0
 39 77  1  0
 41 78  1  0
 41 79  1  0
M  END
>  <smiles>  (30) 
NC(CNc1nc(N2CCc3ccccc3C2)nc(N2CCc3ccccc3C2)n1)CN1CCc2ccccc2C1

>  <score_type>  (30) 
oracle

>  <origin>  (30) 
autodockgpu

>  <m_score__min__energy>  (30) 
-11.49

>  <m_primary>  (30) 
energy

>  <rmsd>  (30) 
11.03320126879129

>  <m_score__min__rmsd>  (30) 
11.03320126879129

>  <meeko>  (30) 
{"free_energy": -9.57, "intermolecular_energy": -11.96, "internal_energy": -2.76, "cluster_size": 1, "cluster_id": 8, "rank_in_cluster": 1}

>  <energy>  (30) 
-9.7

>  <cluster_rmsd>  (30) 
0.74

>  <cluster>  (30) 
5

$$$$

     RDKit          3D

 79 85  0  0  1  0  0  0  0  0999 V2000
  138.7320   75.1600  218.2510 N   0  0  0  0  0  0  0  0  0  0  0  0
  139.0210   74.0480  217.3760 C   0  0  2  0  0  0  0  0  0  0  0  0
  138.1370   72.9100  217.8360 C   0  0  0  0  0  0  0  0  0  0  0  0
  137.3920   73.2550  219.0500 N   0  0  0  0  0  0  0  0  0  0  0  0
  138.1980   73.3740  220.2370 C   0  0  0  0  0  0  0  0  0  0  0  0
  138.6260   72.2970  220.9220 N   0  0  0  0  0  0  0  0  0  0  0  0
  139.3820   72.4360  222.0480 C   0  0  0  0  0  0  0  0  0  0  0  0
  139.8500   71.3120  222.7840 N   0  0  0  0  0  0  0  0  0  0  0  0
  139.2050   70.0390  222.7100 C   0  0  0  0  0  0  0  0  0  0  0  0
  138.7950   69.5040  224.0370 C   0  0  0  0  0  0  0  0  0  0  0  0
  139.5560   70.1100  225.1390 C   0  0  0  0  0  0  0  0  0  0  0  0
  139.2210   69.7400  226.4290 C   0  0  0  0  0  0  0  0  0  0  0  0
  139.8720   70.2480  227.5450 C   0  0  0  0  0  0  0  0  0  0  0  0
  140.8880   71.1510  227.3640 C   0  0  0  0  0  0  0  0  0  0  0  0
  141.2550   71.5480  226.1020 C   0  0  0  0  0  0  0  0  0  0  0  0
  140.5780   71.0160  225.0000 C   0  0  0  0  0  0  0  0  0  0  0  0
  141.0130   71.4860  223.6360 C   0  0  0  0  0  0  0  0  0  0  0  0
  139.7010   73.6600  222.4780 N   0  0  0  0  0  0  0  0  0  0  0  0
  139.2900   74.7550  221.8150 C   0  0  0  0  0  0  0  0  0  0  0  0
  139.6610   76.0330  222.3220 N   0  0  0  0  0  0  0  0  0  0  0  0
  141.0710   76.3650  222.3850 C   0  0  0  0  0  0  0  0  0  0  0  0
  141.2640   77.5200  221.3960 C   0  0  0  0  0  0  0  0  0  0  0  0
  140.4680   78.6490  221.9980 C   0  0  0  0  0  0  0  0  0  0  0  0
  140.9750   79.9420  221.8840 C   0  0  0  0  0  0  0  0  0  0  0  0
  140.2440   80.9950  222.4360 C   0  0  0  0  0  0  0  0  0  0  0  0
  139.0450   80.7360  223.0810 C   0  0  0  0  0  0  0  0  0  0  0  0
  138.5460   79.4360  223.1900 C   0  0  0  0  0  0  0  0  0  0  0  0
  139.2730   78.3980  222.6410 C   0  0  0  0  0  0  0  0  0  0  0  0
  138.7170   77.0120  222.7720 C   0  0  0  0  0  0  0  0  0  0  0  0
  138.5440   74.6100  220.7060 N   0  0  0  0  0  0  0  0  0  0  0  0
  140.4520   73.5870  217.4920 C   0  0  0  0  0  0  0  0  0  0  0  0
  140.8380   73.2050  218.8120 N   0  0  0  0  0  0  0  0  0  0  0  0
  141.3150   71.8840  218.9570 C   0  0  0  0  0  0  0  0  0  0  0  0
  141.8950   71.6870  220.3410 C   0  0  0  0  0  0  0  0  0  0  0  0
  143.0680   72.6000  220.4160 C   0  0  0  0  0  0  0  0  0  0  0  0
  144.3140   72.2170  220.8200 C   0  0  0  0  0  0  0  0  0  0  0  0
  145.3290   73.1620  220.8500 C   0  0  0  0  0  0  0  0  0  0  0  0
  145.0780   74.4840  220.4720 C   0  0  0  0  0  0  0  0  0  0  0  0
  143.8120   74.8850  220.0580 C   0  0  0  0  0  0  0  0  0  0  0  0
  142.8210   73.9260  220.0380 C   0  0  0  0  0  0  0  0  0  0  0  0
  141.4250   74.2190  219.6150 C   0  0  0  0  0  0  0  0  0  0  0  0
  137.7870   75.1510  218.6410 H   0  0  0  0  0  0  0  0  0  0  0  0
  139.5100   75.3710  218.9060 H   0  0  0  0  0  0  0  0  0  0  0  0
  138.8472   74.3523  216.3333 H   0  0  0  0  0  0  0  0  0  0  0  0
  137.4217   72.6692  217.0358 H   0  0  0  0  0  0  0  0  0  0  0  0
  138.7810   72.0478  218.0639 H   0  0  0  0  0  0  0  0  0  0  0  0
  136.3610   73.4040  219.0540 H   0  0  0  0  0  0  0  0  0  0  0  0
  138.3072   70.1394  222.0824 H   0  0  0  0  0  0  0  0  0  0  0  0
  139.9328   69.3313  222.2863 H   0  0  0  0  0  0  0  0  0  0  0  0
  137.7256   69.7127  224.1881 H   0  0  0  0  0  0  0  0  0  0  0  0
  138.9963   68.4226  224.0421 H   0  0  0  0  0  0  0  0  0  0  0  0
  138.4070   69.0149  226.5764 H   0  0  0  0  0  0  0  0  0  0  0  0
  139.5780   69.9317  228.5567 H   0  0  0  0  0  0  0  0  0  0  0  0
  141.4141   71.5613  228.2385 H   0  0  0  0  0  0  0  0  0  0  0  0
  142.0694   72.2737  225.9598 H   0  0  0  0  0  0  0  0  0  0  0  0
  141.3115   72.5442  223.6698 H   0  0  0  0  0  0  0  0  0  0  0  0
  141.8821   70.9228  223.2651 H   0  0  0  0  0  0  0  0  0  0  0  0
  141.3468   76.6797  223.4023 H   0  0  0  0  0  0  0  0  0  0  0  0
  141.7052   75.5021  222.1337 H   0  0  0  0  0  0  0  0  0  0  0  0
  142.3269   77.7910  221.3133 H   0  0  0  0  0  0  0  0  0  0  0  0
  140.9361   77.2656  220.3773 H   0  0  0  0  0  0  0  0  0  0  0  0
  141.9298   80.1285  221.3706 H   0  0  0  0  0  0  0  0  0  0  0  0
  140.6181   82.0266  222.3594 H   0  0  0  0  0  0  0  0  0  0  0  0
  138.4752   81.5705  223.5156 H   0  0  0  0  0  0  0  0  0  0  0  0
  137.5924   79.2427  223.7032 H   0  0  0  0  0  0  0  0  0  0  0  0
  138.4760   76.8199  223.8279 H   0  0  0  0  0  0  0  0  0  0  0  0
  137.8131   76.9379  222.1495 H   0  0  0  0  0  0  0  0  0  0  0  0
  140.5905   72.7212  216.8278 H   0  0  0  0  0  0  0  0  0  0  0  0
  141.0837   74.4432  217.2130 H   0  0  0  0  0  0  0  0  0  0  0  0
  140.4839   71.1791  218.8075 H   0  0  0  0  0  0  0  0  0  0  0  0
  142.1008   71.7019  218.2091 H   0  0  0  0  0  0  0  0  0  0  0  0
  141.1533   71.9505  221.1094 H   0  0  0  0  0  0  0  0  0  0  0  0
  142.1819   70.6398  220.5173 H   0  0  0  0  0  0  0  0  0  0  0  0
  144.5102   71.1762  221.1169 H   0  0  0  0  0  0  0  0  0  0  0  0
  146.3386   72.8689  221.1736 H   0  0  0  0  0  0  0  0  0  0  0  0
  145.8953   75.2196  220.5024 H   0  0  0  0  0  0  0  0  0  0  0  0
  143.6096   75.9240  219.7589 H   0  0  0  0  0  0  0  0  0  0  0  0
  140.8094   74.3443  220.5180 H   0  0  0  0  0  0  0  0  0  0  0  0
  141.4645   75.1291  218.9984 H   0  0  0  0  0  0  0  0  0  0  0  0
  1  2  1  0
  2  3  1  0
  3  4  1  0
  4  5  1  0
  5  6  2  0
  6  7  1  0
  7  8  1  0
  8  9  1  0
  9 10  1  0
 10 11  1  0
 11 12  2  0
 12 13  1  0
 13 14  2  0
 14 15  1  0
 15 16  2  0
 16 17  1  0
  7 18  2  0
 18 19  1  0
 19 20  1  0
 20 21  1  0
 21 22  1  0
 22 23  1  0
 23 24  2  0
 24 25  1  0
 25 26  2  0
 26 27  1  0
 27 28  2  0
 28 29  1  0
 19 30  2  0
  2 31  1  0
 31 32  1  0
 32 33  1  0
 33 34  1  0
 34 35  1  0
 35 36  2  0
 36 37  1  0
 37 38  2  0
 38 39  1  0
 39 40  2  0
 40 41  1  0
 30  5  1  0
 41 32  1  0
 17  8  1  0
 29 20  1  0
 40 35  1  0
 16 11  1  0
 28 23  1  0
  1 42  1  0
  1 43  1  0
  2 44  1  6
  3 45  1  0
  3 46  1  0
  4 47  1  0
  9 48  1  0
  9 49  1  0
 10 50  1  0
 10 51  1  0
 12 52  1  0
 13 53  1  0
 14 54  1  0
 15 55  1  0
 17 56  1  0
 17 57  1  0
 21 58  1  0
 21 59  1  0
 22 60  1  0
 22 61  1  0
 24 62  1  0
 25 63  1  0
 26 64  1  0
 27 65  1  0
 29 66  1  0
 29 67  1  0
 31 68  1  0
 31 69  1  0
 33 70  1  0
 33 71  1  0
 34 72  1  0
 34 73  1  0
 36 74  1  0
 37 75  1  0
 38 76  1  0
 39 77  1  0
 41 78  1  0
 41 79  1  0
M  END
>  <smiles>  (31) 
NC(CNc1nc(N2CCc3ccccc3C2)nc(N2CCc3ccccc3C2)n1)CN1CCc2ccccc2C1

>  <score_type>  (31) 
oracle

>  <origin>  (31) 
autodockgpu

>  <m_score__min__energy>  (31) 
-11.49

>  <m_primary>  (31) 
energy

>  <rmsd>  (31) 
7.135188392265456

>  <m_score__min__rmsd>  (31) 
7.135188392265456

>  <meeko>  (31) 
{"free_energy": -8.15, "intermolecular_energy": -10.54, "internal_energy": -4.1, "cluster_size": 9, "cluster_id": 7, "rank_in_cluster": 9}

>  <energy>  (31) 
-9.53

>  <cluster_rmsd>  (31) 
1.96

>  <cluster>  (31) 
5

$$$$

     RDKit          3D

 79 85  0  0  1  0  0  0  0  0999 V2000
  136.1460   71.1790  223.2490 N   0  0  0  0  0  0  0  0  0  0  0  0
  135.0750   71.5350  222.3490 C   0  0  2  0  0  0  0  0  0  0  0  0
  135.7340   71.9330  221.0470 C   0  0  0  0  0  0  0  0  0  0  0  0
  136.3420   73.2640  221.1290 N   0  0  0  0  0  0  0  0  0  0  0  0
  137.6780   73.2830  221.6650 C   0  0  0  0  0  0  0  0  0  0  0  0
  138.1810   72.2540  222.3710 N   0  0  0  0  0  0  0  0  0  0  0  0
  139.4480   72.2990  222.8740 C   0  0  0  0  0  0  0  0  0  0  0  0
  140.0020   71.2210  223.6180 N   0  0  0  0  0  0  0  0  0  0  0  0
  139.5480   69.8750  223.4490 C   0  0  0  0  0  0  0  0  0  0  0  0
  139.1030   69.2360  224.7170 C   0  0  0  0  0  0  0  0  0  0  0  0
  139.6730   69.8950  225.9010 C   0  0  0  0  0  0  0  0  0  0  0  0
  139.2820   69.4310  227.1430 C   0  0  0  0  0  0  0  0  0  0  0  0
  139.7560   69.9760  228.3280 C   0  0  0  0  0  0  0  0  0  0  0  0
  140.6490   71.0150  228.2670 C   0  0  0  0  0  0  0  0  0  0  0  0
  141.0660   71.5090  227.0560 C   0  0  0  0  0  0  0  0  0  0  0  0
  140.5670   70.9360  225.8820 C   0  0  0  0  0  0  0  0  0  0  0  0
  141.0510   71.5150  224.5780 C   0  0  0  0  0  0  0  0  0  0  0  0
  140.2000   73.3820  222.6630 N   0  0  0  0  0  0  0  0  0  0  0  0
  139.7260   74.4270  221.9600 C   0  0  0  0  0  0  0  0  0  0  0  0
  140.5750   75.5550  221.7680 N   0  0  0  0  0  0  0  0  0  0  0  0
  141.3620   75.6250  220.5530 C   0  0  0  0  0  0  0  0  0  0  0  0
  140.8170   76.8310  219.7810 C   0  0  0  0  0  0  0  0  0  0  0  0
  141.1630   78.0080  220.6570 C   0  0  0  0  0  0  0  0  0  0  0  0
  141.5440   79.1960  220.0380 C   0  0  0  0  0  0  0  0  0  0  0  0
  141.8660   80.2930  220.8400 C   0  0  0  0  0  0  0  0  0  0  0  0
  141.8010   80.1770  222.2200 C   0  0  0  0  0  0  0  0  0  0  0  0
  141.4170   78.9810  222.8310 C   0  0  0  0  0  0  0  0  0  0  0  0
  141.0990   77.9000  222.0320 C   0  0  0  0  0  0  0  0  0  0  0  0
  140.6920   76.6280  222.7110 C   0  0  0  0  0  0  0  0  0  0  0  0
  138.4770   74.3750  221.4680 N   0  0  0  0  0  0  0  0  0  0  0  0
  134.2860   72.7230  222.8390 C   0  0  0  0  0  0  0  0  0  0  0  0
  134.8270   73.3430  224.0060 N   0  0  0  0  0  0  0  0  0  0  0  0
  135.0820   74.7280  223.9060 C   0  0  0  0  0  0  0  0  0  0  0  0
  135.4340   75.2940  225.2650 C   0  0  0  0  0  0  0  0  0  0  0  0
  134.2130   75.1190  226.0980 C   0  0  0  0  0  0  0  0  0  0  0  0
  133.6360   76.1140  226.8320 C   0  0  0  0  0  0  0  0  0  0  0  0
  132.4990   75.8290  227.5730 C   0  0  0  0  0  0  0  0  0  0  0  0
  131.9540   74.5410  227.5660 C   0  0  0  0  0  0  0  0  0  0  0  0
  132.5330   73.5190  226.8210 C   0  0  0  0  0  0  0  0  0  0  0  0
  133.6640   73.8310  226.0940 C   0  0  0  0  0  0  0  0  0  0  0  0
  134.3810   72.8340  225.2550 C   0  0  0  0  0  0  0  0  0  0  0  0
  136.8430   70.5520  222.8430 H   0  0  0  0  0  0  0  0  0  0  0  0
  136.5010   71.9900  223.7940 H   0  0  0  0  0  0  0  0  0  0  0  0
  134.3832   70.6848  222.2564 H   0  0  0  0  0  0  0  0  0  0  0  0
  136.5163   71.1986  220.8049 H   0  0  0  0  0  0  0  0  0  0  0  0
  134.9599   71.9584  220.2659 H   0  0  0  0  0  0  0  0  0  0  0  0
  135.8470   74.1290  220.8250 H   0  0  0  0  0  0  0  0  0  0  0  0
  138.7026   69.8783  222.7452 H   0  0  0  0  0  0  0  0  0  0  0  0
  140.4007   69.2903  223.0734 H   0  0  0  0  0  0  0  0  0  0  0  0
  138.0059   69.2905  224.7751 H   0  0  0  0  0  0  0  0  0  0  0  0
  139.4524   68.1930  224.7102 H   0  0  0  0  0  0  0  0  0  0  0  0
  138.5668   68.5968  227.1941 H   0  0  0  0  0  0  0  0  0  0  0  0
  139.4214   69.5816  229.2988 H   0  0  0  0  0  0  0  0  0  0  0  0
  141.0349   71.4568  229.1975 H   0  0  0  0  0  0  0  0  0  0  0  0
  141.7818   72.3430  227.0098 H   0  0  0  0  0  0  0  0  0  0  0  0
  141.1971   72.6014  224.6690 H   0  0  0  0  0  0  0  0  0  0  0  0
  142.0183   71.0892  224.2731 H   0  0  0  0  0  0  0  0  0  0  0  0
  142.4259   75.7703  220.7919 H   0  0  0  0  0  0  0  0  0  0  0  0
  141.2892   74.6978  219.9657 H   0  0  0  0  0  0  0  0  0  0  0  0
  141.3027   76.9185  218.7979 H   0  0  0  0  0  0  0  0  0  0  0  0
  139.7383   76.7541  219.5801 H   0  0  0  0  0  0  0  0  0  0  0  0
  141.5903   79.2686  218.9414 H   0  0  0  0  0  0  0  0  0  0  0  0
  142.1697   81.2445  220.3790 H   0  0  0  0  0  0  0  0  0  0  0  0
  142.0570   81.0443  222.8464 H   0  0  0  0  0  0  0  0  0  0  0  0
  141.3688   78.9015  223.9271 H   0  0  0  0  0  0  0  0  0  0  0  0
  141.4496   76.3640  223.4636 H   0  0  0  0  0  0  0  0  0  0  0  0
  139.7126   76.7836  223.1869 H   0  0  0  0  0  0  0  0  0  0  0  0
  134.2538   73.4718  222.0338 H   0  0  0  0  0  0  0  0  0  0  0  0
  133.2884   72.3491  223.1129 H   0  0  0  0  0  0  0  0  0  0  0  0
  135.9214   74.8940  223.2147 H   0  0  0  0  0  0  0  0  0  0  0  0
  134.1801   75.2328  223.5295 H   0  0  0  0  0  0  0  0  0  0  0  0
  136.2800   74.7440  225.7029 H   0  0  0  0  0  0  0  0  0  0  0  0
  135.7362   76.3498  225.2012 H   0  0  0  0  0  0  0  0  0  0  0  0
  134.0660   77.1265  226.8359 H   0  0  0  0  0  0  0  0  0  0  0  0
  132.0228   76.6208  228.1699 H   0  0  0  0  0  0  0  0  0  0  0  0
  131.0519   74.3326  228.1599 H   0  0  0  0  0  0  0  0  0  0  0  0
  132.1074   72.5047  226.8116 H   0  0  0  0  0  0  0  0  0  0  0  0
  135.2574   72.4767  225.8156 H   0  0  0  0  0  0  0  0  0  0  0  0
  133.6634   72.0305  225.0329 H   0  0  0  0  0  0  0  0  0  0  0  0
  1  2  1  0
  2  3  1  0
  3  4  1  0
  4  5  1  0
  5  6  2  0
  6  7  1  0
  7  8  1  0
  8  9  1  0
  9 10  1  0
 10 11  1  0
 11 12  2  0
 12 13  1  0
 13 14  2  0
 14 15  1  0
 15 16  2  0
 16 17  1  0
  7 18  2  0
 18 19  1  0
 19 20  1  0
 20 21  1  0
 21 22  1  0
 22 23  1  0
 23 24  2  0
 24 25  1  0
 25 26  2  0
 26 27  1  0
 27 28  2  0
 28 29  1  0
 19 30  2  0
  2 31  1  0
 31 32  1  0
 32 33  1  0
 33 34  1  0
 34 35  1  0
 35 36  2  0
 36 37  1  0
 37 38  2  0
 38 39  1  0
 39 40  2  0
 40 41  1  0
 30  5  1  0
 41 32  1  0
 17  8  1  0
 29 20  1  0
 40 35  1  0
 16 11  1  0
 28 23  1  0
  1 42  1  0
  1 43  1  0
  2 44  1  6
  3 45  1  0
  3 46  1  0
  4 47  1  0
  9 48  1  0
  9 49  1  0
 10 50  1  0
 10 51  1  0
 12 52  1  0
 13 53  1  0
 14 54  1  0
 15 55  1  0
 17 56  1  0
 17 57  1  0
 21 58  1  0
 21 59  1  0
 22 60  1  0
 22 61  1  0
 24 62  1  0
 25 63  1  0
 26 64  1  0
 27 65  1  0
 29 66  1  0
 29 67  1  0
 31 68  1  0
 31 69  1  0
 33 70  1  0
 33 71  1  0
 34 72  1  0
 34 73  1  0
 36 74  1  0
 37 75  1  0
 38 76  1  0
 39 77  1  0
 41 78  1  0
 41 79  1  0
M  END
>  <smiles>  (32) 
NC(CNc1nc(N2CCc3ccccc3C2)nc(N2CCc3ccccc3C2)n1)CN1CCc2ccccc2C1

>  <score_type>  (32) 
oracle

>  <origin>  (32) 
autodockgpu

>  <m_score__min__energy>  (32) 
-11.49

>  <m_primary>  (32) 
energy

>  <rmsd>  (32) 
7.783044802769628

>  <m_score__min__rmsd>  (32) 
7.783044802769628

>  <meeko>  (32) 
{"free_energy": -9.71, "intermolecular_energy": -12.09, "internal_energy": -3.34, "cluster_size": 12, "cluster_id": 2, "rank_in_cluster": 6}

>  <energy>  (32) 
-9.99

>  <cluster_rmsd>  (32) 
0.0

>  <cluster>  (32) 
6

$$$$

     RDKit          3D

 79 85  0  0  1  0  0  0  0  0999 V2000
  137.2580   75.7930  222.9440 N   0  0  0  0  0  0  0  0  0  0  0  0
  137.6320   76.3680  221.6730 C   0  0  2  0  0  0  0  0  0  0  0  0
  137.5210   75.2520  220.6580 C   0  0  0  0  0  0  0  0  0  0  0  0
  138.4890   74.1830  220.9170 N   0  0  0  0  0  0  0  0  0  0  0  0
  138.1120   73.2710  221.9650 C   0  0  0  0  0  0  0  0  0  0  0  0
  138.9480   72.3210  222.4230 N   0  0  0  0  0  0  0  0  0  0  0  0
  138.5650   71.4630  223.4120 C   0  0  0  0  0  0  0  0  0  0  0  0
  139.4340   70.4560  223.9150 N   0  0  0  0  0  0  0  0  0  0  0  0
  139.1920   69.0660  223.6830 C   0  0  0  0  0  0  0  0  0  0  0  0
  139.1280   68.2590  224.9330 C   0  0  0  0  0  0  0  0  0  0  0  0
  139.8060   68.9230  226.0570 C   0  0  0  0  0  0  0  0  0  0  0  0
  139.7590   68.3000  227.2910 C   0  0  0  0  0  0  0  0  0  0  0  0
  140.3630   68.8330  228.4210 C   0  0  0  0  0  0  0  0  0  0  0  0
  141.0330   70.0250  228.3120 C   0  0  0  0  0  0  0  0  0  0  0  0
  141.1060   70.6790  227.1070 C   0  0  0  0  0  0  0  0  0  0  0  0
  140.4860   70.1130  225.9890 C   0  0  0  0  0  0  0  0  0  0  0  0
  140.5890   70.8710  224.6910 C   0  0  0  0  0  0  0  0  0  0  0  0
  137.3400   71.5690  223.9330 N   0  0  0  0  0  0  0  0  0  0  0  0
  136.4810   72.5080  223.4980 C   0  0  0  0  0  0  0  0  0  0  0  0
  135.1880   72.5710  224.0920 N   0  0  0  0  0  0  0  0  0  0  0  0
  134.4040   71.3540  224.1660 C   0  0  0  0  0  0  0  0  0  0  0  0
  134.2670   71.0450  225.6600 C   0  0  0  0  0  0  0  0  0  0  0  0
  133.4440   72.1900  226.1930 C   0  0  0  0  0  0  0  0  0  0  0  0
  132.5110   71.9180  227.1910 C   0  0  0  0  0  0  0  0  0  0  0  0
  131.7440   72.9720  227.6920 C   0  0  0  0  0  0  0  0  0  0  0  0
  131.9250   74.2520  227.1910 C   0  0  0  0  0  0  0  0  0  0  0  0
  132.8640   74.5140  226.1900 C   0  0  0  0  0  0  0  0  0  0  0  0
  133.6200   73.4670  225.6990 C   0  0  0  0  0  0  0  0  0  0  0  0
  134.6180   73.7740  224.6240 C   0  0  0  0  0  0  0  0  0  0  0  0
  136.8660   73.3490  222.5220 N   0  0  0  0  0  0  0  0  0  0  0  0
  139.0600   76.8510  221.6620 C   0  0  0  0  0  0  0  0  0  0  0  0
  139.1960   78.2720  221.6430 N   0  0  0  0  0  0  0  0  0  0  0  0
  138.6040   78.9630  222.7220 C   0  0  0  0  0  0  0  0  0  0  0  0
  139.0130   80.4200  222.6970 C   0  0  0  0  0  0  0  0  0  0  0  0
  140.4860   80.4250  222.9130 C   0  0  0  0  0  0  0  0  0  0  0  0
  141.1230   81.1930  223.8440 C   0  0  0  0  0  0  0  0  0  0  0  0
  142.5030   81.1130  223.9500 C   0  0  0  0  0  0  0  0  0  0  0  0
  143.2290   80.2570  223.1160 C   0  0  0  0  0  0  0  0  0  0  0  0
  142.5900   79.4680  222.1640 C   0  0  0  0  0  0  0  0  0  0  0  0
  141.2160   79.5690  222.0800 C   0  0  0  0  0  0  0  0  0  0  0  0
  140.4110   78.7820  221.1090 C   0  0  0  0  0  0  0  0  0  0  0  0
  136.2860   75.4840  222.9940 H   0  0  0  0  0  0  0  0  0  0  0  0
  137.9790   75.1470  223.3220 H   0  0  0  0  0  0  0  0  0  0  0  0
  136.9823   77.2297  221.4599 H   0  0  0  0  0  0  0  0  0  0  0  0
  136.5056   74.8311  220.7011 H   0  0  0  0  0  0  0  0  0  0  0  0
  137.7329   75.6718  219.6636 H   0  0  0  0  0  0  0  0  0  0  0  0
  139.3800   74.0890  220.3860 H   0  0  0  0  0  0  0  0  0  0  0  0
  138.2341   68.9629  223.1522 H   0  0  0  0  0  0  0  0  0  0  0  0
  140.0381   68.6836  223.0931 H   0  0  0  0  0  0  0  0  0  0  0  0
  138.0725   68.1009  225.1992 H   0  0  0  0  0  0  0  0  0  0  0  0
  139.6404   67.3038  224.7455 H   0  0  0  0  0  0  0  0  0  0  0  0
  139.2217   67.3443  227.3802 H   0  0  0  0  0  0  0  0  0  0  0  0
  140.3055   68.3091  229.3865 H   0  0  0  0  0  0  0  0  0  0  0  0
  141.5165   70.4611  229.1986 H   0  0  0  0  0  0  0  0  0  0  0  0
  141.6445   71.6344  227.0224 H   0  0  0  0  0  0  0  0  0  0  0  0
  140.5612   71.9553  224.8743 H   0  0  0  0  0  0  0  0  0  0  0  0
  141.5332   70.6620  224.1667 H   0  0  0  0  0  0  0  0  0  0  0  0
  133.4135   71.5068  223.7127 H   0  0  0  0  0  0  0  0  0  0  0  0
  134.8822   70.5270  223.6206 H   0  0  0  0  0  0  0  0  0  0  0  0
  133.7507   70.0862  225.8156 H   0  0  0  0  0  0  0  0  0  0  0  0
  135.2398   70.9508  226.1647 H   0  0  0  0  0  0  0  0  0  0  0  0
  132.3813   70.8957  227.5759 H   0  0  0  0  0  0  0  0  0  0  0  0
  130.9996   72.7875  228.4806 H   0  0  0  0  0  0  0  0  0  0  0  0
  131.3173   75.0778  227.5895 H   0  0  0  0  0  0  0  0  0  0  0  0
  132.9987   75.5339  225.8005 H   0  0  0  0  0  0  0  0  0  0  0  0
  134.1161   74.3230  223.8136 H   0  0  0  0  0  0  0  0  0  0  0  0
  135.4254   74.3812  225.0591 H   0  0  0  0  0  0  0  0  0  0  0  0
  139.5607   76.4684  222.5636 H   0  0  0  0  0  0  0  0  0  0  0  0
  139.5135   76.4772  220.7322 H   0  0  0  0  0  0  0  0  0  0  0  0
  137.5092   78.8915  222.6424 H   0  0  0  0  0  0  0  0  0  0  0  0
  138.9422   78.5114  223.6663 H   0  0  0  0  0  0  0  0  0  0  0  0
  138.7657   80.8718  221.7250 H   0  0  0  0  0  0  0  0  0  0  0  0
  138.4864   81.0043  223.4660 H   0  0  0  0  0  0  0  0  0  0  0  0
  140.5504   81.8651  224.5001 H   0  0  0  0  0  0  0  0  0  0  0  0
  143.0303   81.7269  224.6950 H   0  0  0  0  0  0  0  0  0  0  0  0
  144.3235   80.2064  223.2140 H   0  0  0  0  0  0  0  0  0  0  0  0
  143.1562   78.7923  221.5061 H   0  0  0  0  0  0  0  0  0  0  0  0
  140.1677   79.4313  220.2551 H   0  0  0  0  0  0  0  0  0  0  0  0
  141.0210   77.9132  220.8208 H   0  0  0  0  0  0  0  0  0  0  0  0
  1  2  1  0
  2  3  1  0
  3  4  1  0
  4  5  1  0
  5  6  2  0
  6  7  1  0
  7  8  1  0
  8  9  1  0
  9 10  1  0
 10 11  1  0
 11 12  2  0
 12 13  1  0
 13 14  2  0
 14 15  1  0
 15 16  2  0
 16 17  1  0
  7 18  2  0
 18 19  1  0
 19 20  1  0
 20 21  1  0
 21 22  1  0
 22 23  1  0
 23 24  2  0
 24 25  1  0
 25 26  2  0
 26 27  1  0
 27 28  2  0
 28 29  1  0
 19 30  2  0
  2 31  1  0
 31 32  1  0
 32 33  1  0
 33 34  1  0
 34 35  1  0
 35 36  2  0
 36 37  1  0
 37 38  2  0
 38 39  1  0
 39 40  2  0
 40 41  1  0
 30  5  1  0
 41 32  1  0
 17  8  1  0
 29 20  1  0
 40 35  1  0
 16 11  1  0
 28 23  1  0
  1 42  1  0
  1 43  1  0
  2 44  1  6
  3 45  1  0
  3 46  1  0
  4 47  1  0
  9 48  1  0
  9 49  1  0
 10 50  1  0
 10 51  1  0
 12 52  1  0
 13 53  1  0
 14 54  1  0
 15 55  1  0
 17 56  1  0
 17 57  1  0
 21 58  1  0
 21 59  1  0
 22 60  1  0
 22 61  1  0
 24 62  1  0
 25 63  1  0
 26 64  1  0
 27 65  1  0
 29 66  1  0
 29 67  1  0
 31 68  1  0
 31 69  1  0
 33 70  1  0
 33 71  1  0
 34 72  1  0
 34 73  1  0
 36 74  1  0
 37 75  1  0
 38 76  1  0
 39 77  1  0
 41 78  1  0
 41 79  1  0
M  END
>  <smiles>  (33) 
NC(CNc1nc(N2CCc3ccccc3C2)nc(N2CCc3ccccc3C2)n1)CN1CCc2ccccc2C1

>  <score_type>  (33) 
oracle

>  <origin>  (33) 
autodockgpu

>  <m_score__min__energy>  (33) 
-11.49

>  <m_primary>  (33) 
energy

>  <rmsd>  (33) 
9.859538416617633

>  <m_score__min__rmsd>  (33) 
9.859538416617633

>  <meeko>  (33) 
{"free_energy": -10.39, "intermolecular_energy": -12.78, "internal_energy": -2.17, "cluster_size": 12, "cluster_id": 2, "rank_in_cluster": 4}

>  <energy>  (33) 
-9.45

>  <cluster_rmsd>  (33) 
0.71

>  <cluster>  (33) 
6

$$$$

     RDKit          3D

 79 85  0  0  1  0  0  0  0  0999 V2000
  135.7160   73.8090  223.3820 N   0  0  0  0  0  0  0  0  0  0  0  0
  135.2060   75.0660  222.8870 C   0  0  2  0  0  0  0  0  0  0  0  0
  135.4460   75.0590  221.3940 C   0  0  0  0  0  0  0  0  0  0  0  0
  136.1730   73.8600  220.9650 N   0  0  0  0  0  0  0  0  0  0  0  0
  137.5250   73.7710  221.4500 C   0  0  0  0  0  0  0  0  0  0  0  0
  137.9900   72.6750  222.0760 N   0  0  0  0  0  0  0  0  0  0  0  0
  139.2740   72.6170  222.5330 C   0  0  0  0  0  0  0  0  0  0  0  0
  139.7880   71.4670  223.1920 N   0  0  0  0  0  0  0  0  0  0  0  0
  139.2080   70.1720  223.0140 C   0  0  0  0  0  0  0  0  0  0  0  0
  138.8080   69.5210  224.2920 C   0  0  0  0  0  0  0  0  0  0  0  0
  139.5250   70.0810  225.4480 C   0  0  0  0  0  0  0  0  0  0  0  0
  139.1930   69.6010  226.7020 C   0  0  0  0  0  0  0  0  0  0  0  0
  139.8040   70.0550  227.8620 C   0  0  0  0  0  0  0  0  0  0  0  0
  140.7760   71.0170  227.7640 C   0  0  0  0  0  0  0  0  0  0  0  0
  141.1380   71.5240  226.5400 C   0  0  0  0  0  0  0  0  0  0  0  0
  140.5020   71.0430  225.3920 C   0  0  0  0  0  0  0  0  0  0  0  0
  140.9310   71.6330  224.0730 C   0  0  0  0  0  0  0  0  0  0  0  0
  140.0810   73.6660  222.3560 N   0  0  0  0  0  0  0  0  0  0  0  0
  139.6460   74.7770  221.7330 C   0  0  0  0  0  0  0  0  0  0  0  0
  140.5530   75.8630  221.5740 N   0  0  0  0  0  0  0  0  0  0  0  0
  140.9850   76.2090  220.2340 C   0  0  0  0  0  0  0  0  0  0  0  0
  140.4170   77.6070  219.9690 C   0  0  0  0  0  0  0  0  0  0  0  0
  141.1390   78.4860  220.9580 C   0  0  0  0  0  0  0  0  0  0  0  0
  141.4930   79.7720  220.5570 C   0  0  0  0  0  0  0  0  0  0  0  0
  142.1610   80.5940  221.4660 C   0  0  0  0  0  0  0  0  0  0  0  0
  142.4570   80.1180  222.7340 C   0  0  0  0  0  0  0  0  0  0  0  0
  142.0970   78.8260  223.1270 C   0  0  0  0  0  0  0  0  0  0  0  0
  141.4350   78.0180  222.2230 C   0  0  0  0  0  0  0  0  0  0  0  0
  141.0620   76.6370  222.6680 C   0  0  0  0  0  0  0  0  0  0  0  0
  138.3800   74.8250  221.2860 N   0  0  0  0  0  0  0  0  0  0  0  0
  135.9450   76.2490  223.4600 C   0  0  0  0  0  0  0  0  0  0  0  0
  136.5870   77.0670  222.4810 N   0  0  0  0  0  0  0  0  0  0  0  0
  135.7670   78.0230  221.8430 C   0  0  0  0  0  0  0  0  0  0  0  0
  136.6120   78.9600  221.0070 C   0  0  0  0  0  0  0  0  0  0  0  0
  137.4800   79.6850  221.9750 C   0  0  0  0  0  0  0  0  0  0  0  0
  137.6190   81.0420  222.0140 C   0  0  0  0  0  0  0  0  0  0  0  0
  138.4610   81.6030  222.9620 C   0  0  0  0  0  0  0  0  0  0  0  0
  139.1560   80.7900  223.8630 C   0  0  0  0  0  0  0  0  0  0  0  0
  139.0210   79.4060  223.8330 C   0  0  0  0  0  0  0  0  0  0  0  0
  138.1770   78.8740  222.8790 C   0  0  0  0  0  0  0  0  0  0  0  0
  137.9410   77.4120  222.7380 C   0  0  0  0  0  0  0  0  0  0  0  0
  135.2970   72.9860  222.9450 H   0  0  0  0  0  0  0  0  0  0  0  0
  136.7490   73.8100  223.4950 H   0  0  0  0  0  0  0  0  0  0  0  0
  134.1465   75.1618  223.1667 H   0  0  0  0  0  0  0  0  0  0  0  0
  134.4755   75.0909  220.8772 H   0  0  0  0  0  0  0  0  0  0  0  0
  136.0573   75.9381  221.1418 H   0  0  0  0  0  0  0  0  0  0  0  0
  135.7450   73.1300  220.3580 H   0  0  0  0  0  0  0  0  0  0  0  0
  138.3145   70.2745  222.3806 H   0  0  0  0  0  0  0  0  0  0  0  0
  139.9754   69.5339  222.5515 H   0  0  0  0  0  0  0  0  0  0  0  0
  137.7278   69.6660  224.4407 H   0  0  0  0  0  0  0  0  0  0  0  0
  139.0621   68.4531  224.2215 H   0  0  0  0  0  0  0  0  0  0  0  0
  138.4138   68.8288  226.7828 H   0  0  0  0  0  0  0  0  0  0  0  0
  139.5138   69.6503  228.8428 H   0  0  0  0  0  0  0  0  0  0  0  0
  141.2707   71.3863  228.6745 H   0  0  0  0  0  0  0  0  0  0  0  0
  141.9168   72.2971  226.4642 H   0  0  0  0  0  0  0  0  0  0  0  0
  141.1771   72.6988  224.1890 H   0  0  0  0  0  0  0  0  0  0  0  0
  141.8312   71.1411  223.6758 H   0  0  0  0  0  0  0  0  0  0  0  0
  142.0834   76.2229  220.1758 H   0  0  0  0  0  0  0  0  0  0  0  0
  140.6339   75.4782  219.4906 H   0  0  0  0  0  0  0  0  0  0  0  0
  140.6264   77.9252  218.9371 H   0  0  0  0  0  0  0  0  0  0  0  0
  139.3238   77.6491  220.0836 H   0  0  0  0  0  0  0  0  0  0  0  0
  141.2514   80.1320  219.5460 H   0  0  0  0  0  0  0  0  0  0  0  0
  142.4513   81.6150  221.1776 H   0  0  0  0  0  0  0  0  0  0  0  0
  142.9857   80.7701  223.4448 H   0  0  0  0  0  0  0  0  0  0  0  0
  142.3361   78.4597  224.1363 H   0  0  0  0  0  0  0  0  0  0  0  0
  141.9530   76.1383  223.0772 H   0  0  0  0  0  0  0  0  0  0  0  0
  140.2775   76.7166  223.4350 H   0  0  0  0  0  0  0  0  0  0  0  0
  135.2252   76.8715  224.0117 H   0  0  0  0  0  0  0  0  0  0  0  0
  136.7392   75.8443  224.1045 H   0  0  0  0  0  0  0  0  0  0  0  0
  135.0450   77.5069  221.1931 H   0  0  0  0  0  0  0  0  0  0  0  0
  135.2330   78.6062  222.6077 H   0  0  0  0  0  0  0  0  0  0  0  0
  137.2250   78.3907  220.2928 H   0  0  0  0  0  0  0  0  0  0  0  0
  135.9921   79.6518  220.4178 H   0  0  0  0  0  0  0  0  0  0  0  0
  137.0719   81.6805  221.3048 H   0  0  0  0  0  0  0  0  0  0  0  0
  138.5832   82.6953  223.0057 H   0  0  0  0  0  0  0  0  0  0  0  0
  139.8204   81.2527  224.6077 H   0  0  0  0  0  0  0  0  0  0  0  0
  139.5643   78.7620  224.5402 H   0  0  0  0  0  0  0  0  0  0  0  0
  138.5564   77.0411  221.9051 H   0  0  0  0  0  0  0  0  0  0  0  0
  138.2092   76.9522  223.7007 H   0  0  0  0  0  0  0  0  0  0  0  0
  1  2  1  0
  2  3  1  0
  3  4  1  0
  4  5  1  0
  5  6  2  0
  6  7  1  0
  7  8  1  0
  8  9  1  0
  9 10  1  0
 10 11  1  0
 11 12  2  0
 12 13  1  0
 13 14  2  0
 14 15  1  0
 15 16  2  0
 16 17  1  0
  7 18  2  0
 18 19  1  0
 19 20  1  0
 20 21  1  0
 21 22  1  0
 22 23  1  0
 23 24  2  0
 24 25  1  0
 25 26  2  0
 26 27  1  0
 27 28  2  0
 28 29  1  0
 19 30  2  0
  2 31  1  0
 31 32  1  0
 32 33  1  0
 33 34  1  0
 34 35  1  0
 35 36  2  0
 36 37  1  0
 37 38  2  0
 38 39  1  0
 39 40  2  0
 40 41  1  0
 30  5  1  0
 41 32  1  0
 17  8  1  0
 29 20  1  0
 40 35  1  0
 16 11  1  0
 28 23  1  0
  1 42  1  0
  1 43  1  0
  2 44  1  6
  3 45  1  0
  3 46  1  0
  4 47  1  0
  9 48  1  0
  9 49  1  0
 10 50  1  0
 10 51  1  0
 12 52  1  0
 13 53  1  0
 14 54  1  0
 15 55  1  0
 17 56  1  0
 17 57  1  0
 21 58  1  0
 21 59  1  0
 22 60  1  0
 22 61  1  0
 24 62  1  0
 25 63  1  0
 26 64  1  0
 27 65  1  0
 29 66  1  0
 29 67  1  0
 31 68  1  0
 31 69  1  0
 33 70  1  0
 33 71  1  0
 34 72  1  0
 34 73  1  0
 36 74  1  0
 37 75  1  0
 38 76  1  0
 39 77  1  0
 41 78  1  0
 41 79  1  0
M  END
>  <smiles>  (34) 
NC(CNc1nc(N2CCc3ccccc3C2)nc(N2CCc3ccccc3C2)n1)CN1CCc2ccccc2C1

>  <score_type>  (34) 
oracle

>  <origin>  (34) 
autodockgpu

>  <m_score__min__energy>  (34) 
-11.49

>  <m_primary>  (34) 
energy

>  <rmsd>  (34) 
10.009325519972863

>  <m_score__min__rmsd>  (34) 
10.009325519972863

>  <meeko>  (34) 
{"free_energy": -9.2, "intermolecular_energy": -11.58, "internal_energy": -3.67, "cluster_size": 9, "cluster_id": 7, "rank_in_cluster": 5}

>  <energy>  (34) 
-9.71

>  <cluster_rmsd>  (34) 
0.0

>  <cluster>  (34) 
7

$$$$

     RDKit          3D

 79 85  0  0  1  0  0  0  0  0999 V2000
  138.1190   70.6530  221.2200 N   0  0  0  0  0  0  0  0  0  0  0  0
  136.9380   70.6150  222.0490 C   0  0  2  0  0  0  0  0  0  0  0  0
  136.2970   71.9800  221.9310 C   0  0  0  0  0  0  0  0  0  0  0  0
  136.7480   72.6910  220.7310 N   0  0  0  0  0  0  0  0  0  0  0  0
  137.9260   73.4980  220.9160 C   0  0  0  0  0  0  0  0  0  0  0  0
  137.8620   74.8330  221.0720 N   0  0  0  0  0  0  0  0  0  0  0  0
  138.9930   75.5770  221.2390 C   0  0  0  0  0  0  0  0  0  0  0  0
  138.9480   76.9870  221.4120 N   0  0  0  0  0  0  0  0  0  0  0  0
  138.6380   77.8710  220.3320 C   0  0  0  0  0  0  0  0  0  0  0  0
  139.6750   78.9140  220.1020 C   0  0  0  0  0  0  0  0  0  0  0  0
  140.5090   79.1390  221.2930 C   0  0  0  0  0  0  0  0  0  0  0  0
  141.5510   80.0410  221.1830 C   0  0  0  0  0  0  0  0  0  0  0  0
  142.4010   80.3320  222.2410 C   0  0  0  0  0  0  0  0  0  0  0  0
  142.2010   79.7020  223.4430 C   0  0  0  0  0  0  0  0  0  0  0  0
  141.1790   78.7990  223.5970 C   0  0  0  0  0  0  0  0  0  0  0  0
  140.3420   78.5290  222.5110 C   0  0  0  0  0  0  0  0  0  0  0  0
  139.2380   77.5280  222.7290 C   0  0  0  0  0  0  0  0  0  0  0  0
  140.1820   74.9690  221.2470 N   0  0  0  0  0  0  0  0  0  0  0  0
  140.2800   73.6360  221.0940 C   0  0  0  0  0  0  0  0  0  0  0  0
  141.5760   73.0460  221.1100 N   0  0  0  0  0  0  0  0  0  0  0  0
  141.6770   71.6130  221.3060 C   0  0  0  0  0  0  0  0  0  0  0  0
  142.2480   71.0600  219.9950 C   0  0  0  0  0  0  0  0  0  0  0  0
  143.6360   71.6440  219.9300 C   0  0  0  0  0  0  0  0  0  0  0  0
  144.6570   70.8520  219.4090 C   0  0  0  0  0  0  0  0  0  0  0  0
  145.9460   71.3840  219.3430 C   0  0  0  0  0  0  0  0  0  0  0  0
  146.1800   72.6740  219.7930 C   0  0  0  0  0  0  0  0  0  0  0  0
  145.1490   73.4600  220.3140 C   0  0  0  0  0  0  0  0  0  0  0  0
  143.8760   72.9280  220.3760 C   0  0  0  0  0  0  0  0  0  0  0  0
  142.7880   73.7910  220.9400 C   0  0  0  0  0  0  0  0  0  0  0  0
  139.1600   72.9110  220.9290 N   0  0  0  0  0  0  0  0  0  0  0  0
  137.2680   70.3940  223.5030 C   0  0  0  0  0  0  0  0  0  0  0  0
  138.6650   70.3940  223.7940 N   0  0  0  0  0  0  0  0  0  0  0  0
  139.2990   71.6560  223.7760 C   0  0  0  0  0  0  0  0  0  0  0  0
  140.7080   71.5410  224.3150 C   0  0  0  0  0  0  0  0  0  0  0  0
  140.5580   71.1310  225.7380 C   0  0  0  0  0  0  0  0  0  0  0  0
  141.1720   71.7560  226.7860 C   0  0  0  0  0  0  0  0  0  0  0  0
  140.9570   71.2800  228.0700 C   0  0  0  0  0  0  0  0  0  0  0  0
  140.1240   70.1780  228.2870 C   0  0  0  0  0  0  0  0  0  0  0  0
  139.4930   69.5340  227.2280 C   0  0  0  0  0  0  0  0  0  0  0  0
  139.7250   70.0280  225.9600 C   0  0  0  0  0  0  0  0  0  0  0  0
  139.1130   69.4350  224.7410 C   0  0  0  0  0  0  0  0  0  0  0  0
  137.9890   71.1320  220.3260 H   0  0  0  0  0  0  0  0  0  0  0  0
  138.9810   70.8800  221.7550 H   0  0  0  0  0  0  0  0  0  0  0  0
  136.2904   69.7892  221.7192 H   0  0  0  0  0  0  0  0  0  0  0  0
  135.2049   71.8576  221.8831 H   0  0  0  0  0  0  0  0  0  0  0  0
  136.5901   72.5727  222.8101 H   0  0  0  0  0  0  0  0  0  0  0  0
  136.2560   72.6190  219.8150 H   0  0  0  0  0  0  0  0  0  0  0  0
  138.5337   77.2751  219.4133 H   0  0  0  0  0  0  0  0  0  0  0  0
  137.7073   78.3933  220.5984 H   0  0  0  0  0  0  0  0  0  0  0  0
  140.3217   78.5939  219.2717 H   0  0  0  0  0  0  0  0  0  0  0  0
  139.1599   79.8570  219.8668 H   0  0  0  0  0  0  0  0  0  0  0  0
  141.7126   80.5475  220.2200 H   0  0  0  0  0  0  0  0  0  0  0  0
  143.2207   81.0552  222.1177 H   0  0  0  0  0  0  0  0  0  0  0  0
  142.8658   79.9226  224.2912 H   0  0  0  0  0  0  0  0  0  0  0  0
  141.0209   78.2948  224.5618 H   0  0  0  0  0  0  0  0  0  0  0  0
  139.5699   76.7298  223.4093 H   0  0  0  0  0  0  0  0  0  0  0  0
  138.3509   77.9882  223.1886 H   0  0  0  0  0  0  0  0  0  0  0  0
  142.3513   71.3862  222.1450 H   0  0  0  0  0  0  0  0  0  0  0  0
  140.7023   71.1643  221.5482 H   0  0  0  0  0  0  0  0  0  0  0  0
  142.2864   69.9609  220.0175 H   0  0  0  0  0  0  0  0  0  0  0  0
  141.6351   71.3237  219.1204 H   0  0  0  0  0  0  0  0  0  0  0  0
  144.4520   69.8301  219.0574 H   0  0  0  0  0  0  0  0  0  0  0  0
  146.7720   70.7824  218.9359 H   0  0  0  0  0  0  0  0  0  0  0  0
  147.1980   73.0873  219.7388 H   0  0  0  0  0  0  0  0  0  0  0  0
  145.3473   74.4825  220.6678 H   0  0  0  0  0  0  0  0  0  0  0  0
  143.1094   74.1823  221.9165 H   0  0  0  0  0  0  0  0  0  0  0  0
  142.5962   74.6157  220.2378 H   0  0  0  0  0  0  0  0  0  0  0  0
  136.7938   71.1946  224.0896 H   0  0  0  0  0  0  0  0  0  0  0  0
  136.8917   69.3936  223.7632 H   0  0  0  0  0  0  0  0  0  0  0  0
  139.3349   72.0298  222.7421 H   0  0  0  0  0  0  0  0  0  0  0  0
  138.7289   72.3529  224.4079 H   0  0  0  0  0  0  0  0  0  0  0  0
  141.2733   70.7823  223.7540 H   0  0  0  0  0  0  0  0  0  0  0  0
  141.2597   72.4878  224.2194 H   0  0  0  0  0  0  0  0  0  0  0  0
  141.8265   72.6231  226.6138 H   0  0  0  0  0  0  0  0  0  0  0  0
  141.4450   71.7725  228.9240 H   0  0  0  0  0  0  0  0  0  0  0  0
  139.9650   69.8142  229.3129 H   0  0  0  0  0  0  0  0  0  0  0  0
  138.8364   68.6672  227.3939 H   0  0  0  0  0  0  0  0  0  0  0  0
  139.8626   68.7931  224.2550 H   0  0  0  0  0  0  0  0  0  0  0  0
  138.2255   68.8751  225.0709 H   0  0  0  0  0  0  0  0  0  0  0  0
  1  2  1  0
  2  3  1  0
  3  4  1  0
  4  5  1  0
  5  6  2  0
  6  7  1  0
  7  8  1  0
  8  9  1  0
  9 10  1  0
 10 11  1  0
 11 12  2  0
 12 13  1  0
 13 14  2  0
 14 15  1  0
 15 16  2  0
 16 17  1  0
  7 18  2  0
 18 19  1  0
 19 20  1  0
 20 21  1  0
 21 22  1  0
 22 23  1  0
 23 24  2  0
 24 25  1  0
 25 26  2  0
 26 27  1  0
 27 28  2  0
 28 29  1  0
 19 30  2  0
  2 31  1  0
 31 32  1  0
 32 33  1  0
 33 34  1  0
 34 35  1  0
 35 36  2  0
 36 37  1  0
 37 38  2  0
 38 39  1  0
 39 40  2  0
 40 41  1  0
 30  5  1  0
 41 32  1  0
 17  8  1  0
 29 20  1  0
 40 35  1  0
 16 11  1  0
 28 23  1  0
  1 42  1  0
  1 43  1  0
  2 44  1  6
  3 45  1  0
  3 46  1  0
  4 47  1  0
  9 48  1  0
  9 49  1  0
 10 50  1  0
 10 51  1  0
 12 52  1  0
 13 53  1  0
 14 54  1  0
 15 55  1  0
 17 56  1  0
 17 57  1  0
 21 58  1  0
 21 59  1  0
 22 60  1  0
 22 61  1  0
 24 62  1  0
 25 63  1  0
 26 64  1  0
 27 65  1  0
 29 66  1  0
 29 67  1  0
 31 68  1  0
 31 69  1  0
 33 70  1  0
 33 71  1  0
 34 72  1  0
 34 73  1  0
 36 74  1  0
 37 75  1  0
 38 76  1  0
 39 77  1  0
 41 78  1  0
 41 79  1  0
M  END
>  <smiles>  (35) 
NC(CNc1nc(N2CCc3ccccc3C2)nc(N2CCc3ccccc3C2)n1)CN1CCc2ccccc2C1

>  <score_type>  (35) 
oracle

>  <origin>  (35) 
autodockgpu

>  <m_score__min__energy>  (35) 
-11.49

>  <m_primary>  (35) 
energy

>  <rmsd>  (35) 
4.2793843492501304

>  <m_score__min__rmsd>  (35) 
4.2793843492501304

>  <meeko>  (35) 
{"free_energy": -8.79, "intermolecular_energy": -11.18, "internal_energy": -3.62, "cluster_size": 9, "cluster_id": 7, "rank_in_cluster": 8}

>  <energy>  (35) 
-9.59

>  <cluster_rmsd>  (35) 
1.89

>  <cluster>  (35) 
7

$$$$

     RDKit          3D

 79 85  0  0  1  0  0  0  0  0999 V2000
  139.5930   74.4430  222.1180 N   0  0  0  0  0  0  0  0  0  0  0  0
  138.4510   75.1690  221.6160 C   0  0  2  0  0  0  0  0  0  0  0  0
  138.2580   74.7130  220.1870 C   0  0  0  0  0  0  0  0  0  0  0  0
  137.7150   73.3520  220.1180 N   0  0  0  0  0  0  0  0  0  0  0  0
  137.4830   72.7320  221.3960 C   0  0  0  0  0  0  0  0  0  0  0  0
  138.3860   71.9140  221.9690 N   0  0  0  0  0  0  0  0  0  0  0  0
  138.1400   71.3320  223.1770 C   0  0  0  0  0  0  0  0  0  0  0  0
  139.0810   70.4690  223.8030 N   0  0  0  0  0  0  0  0  0  0  0  0
  138.8630   69.0590  223.9040 C   0  0  0  0  0  0  0  0  0  0  0  0
  138.9360   68.5460  225.3000 C   0  0  0  0  0  0  0  0  0  0  0  0
  139.6910   69.4480  226.1840 C   0  0  0  0  0  0  0  0  0  0  0  0
  139.7730   69.1110  227.5220 C   0  0  0  0  0  0  0  0  0  0  0  0
  140.4590   69.8860  228.4470 C   0  0  0  0  0  0  0  0  0  0  0  0
  141.0800   71.0320  228.0180 C   0  0  0  0  0  0  0  0  0  0  0  0
  141.0240   71.4060  226.6980 C   0  0  0  0  0  0  0  0  0  0  0  0
  140.3240   70.6010  225.7940 C   0  0  0  0  0  0  0  0  0  0  0  0
  140.2880   71.0560  224.3590 C   0  0  0  0  0  0  0  0  0  0  0  0
  136.9850   71.5780  223.8010 N   0  0  0  0  0  0  0  0  0  0  0  0
  136.0630   72.3910  223.2550 C   0  0  0  0  0  0  0  0  0  0  0  0
  134.8500   72.6140  223.9670 N   0  0  0  0  0  0  0  0  0  0  0  0
  133.9440   71.4980  224.1520 C   0  0  0  0  0  0  0  0  0  0  0  0
  133.9210   71.2350  225.6610 C   0  0  0  0  0  0  0  0  0  0  0  0
  133.2890   72.4770  226.2350 C   0  0  0  0  0  0  0  0  0  0  0  0
  132.4330   72.3340  227.3250 C   0  0  0  0  0  0  0  0  0  0  0  0
  131.8440   73.4780  227.8650 C   0  0  0  0  0  0  0  0  0  0  0  0
  132.1180   74.7190  227.3110 C   0  0  0  0  0  0  0  0  0  0  0  0
  132.9780   74.8520  226.2180 C   0  0  0  0  0  0  0  0  0  0  0  0
  133.5590   73.7150  225.6890 C   0  0  0  0  0  0  0  0  0  0  0  0
  134.4750   73.8840  224.5160 C   0  0  0  0  0  0  0  0  0  0  0  0
  136.3130   72.9600  222.0630 N   0  0  0  0  0  0  0  0  0  0  0  0
  138.6840   76.6570  221.5890 C   0  0  0  0  0  0  0  0  0  0  0  0
  140.0550   77.0320  221.4580 N   0  0  0  0  0  0  0  0  0  0  0  0
  140.3810   77.7930  220.3140 C   0  0  0  0  0  0  0  0  0  0  0  0
  141.8000   78.3070  220.4150 C   0  0  0  0  0  0  0  0  0  0  0  0
  141.8090   79.2270  221.5850 C   0  0  0  0  0  0  0  0  0  0  0  0
  142.3060   80.4980  221.5590 C   0  0  0  0  0  0  0  0  0  0  0  0
  142.2610   81.2600  222.7160 C   0  0  0  0  0  0  0  0  0  0  0  0
  141.7140   80.7340  223.8900 C   0  0  0  0  0  0  0  0  0  0  0  0
  141.2040   79.4400  223.9290 C   0  0  0  0  0  0  0  0  0  0  0  0
  141.2620   78.7040  222.7630 C   0  0  0  0  0  0  0  0  0  0  0  0
  140.7510   77.3100  222.6660 C   0  0  0  0  0  0  0  0  0  0  0  0
  140.3920   75.0340  222.3580 H   0  0  0  0  0  0  0  0  0  0  0  0
  139.3330   73.7020  222.7990 H   0  0  0  0  0  0  0  0  0  0  0  0
  137.5854   74.9751  222.2665 H   0  0  0  0  0  0  0  0  0  0  0  0
  137.5611   75.4003  219.6850 H   0  0  0  0  0  0  0  0  0  0  0  0
  139.2403   74.7147  219.6920 H   0  0  0  0  0  0  0  0  0  0  0  0
  137.5130   72.8720  219.2160 H   0  0  0  0  0  0  0  0  0  0  0  0
  137.8653   68.8310  223.5009 H   0  0  0  0  0  0  0  0  0  0  0  0
  139.6650   68.5657  223.3353 H   0  0  0  0  0  0  0  0  0  0  0  0
  137.9139   68.4391  225.6922 H   0  0  0  0  0  0  0  0  0  0  0  0
  139.4591   67.5786  225.2777 H   0  0  0  0  0  0  0  0  0  0  0  0
  139.2752   68.1928  227.8673 H   0  0  0  0  0  0  0  0  0  0  0  0
  140.5040   69.5869  229.5046 H   0  0  0  0  0  0  0  0  0  0  0  0
  141.6279   71.6570  228.7385 H   0  0  0  0  0  0  0  0  0  0  0  0
  141.5224   72.3253  226.3567 H   0  0  0  0  0  0  0  0  0  0  0  0
  140.2439   72.1537  224.3035 H   0  0  0  0  0  0  0  0  0  0  0  0
  141.1876   70.7462  223.8070 H   0  0  0  0  0  0  0  0  0  0  0  0
  132.9374   71.7562  223.7914 H   0  0  0  0  0  0  0  0  0  0  0  0
  134.2687   70.6111  223.5882 H   0  0  0  0  0  0  0  0  0  0  0  0
  133.3178   70.3452  225.8942 H   0  0  0  0  0  0  0  0  0  0  0  0
  134.9219   71.0387  226.0730 H   0  0  0  0  0  0  0  0  0  0  0  0
  132.2260   71.3410  227.7506 H   0  0  0  0  0  0  0  0  0  0  0  0
  131.1652   73.3955  228.7266 H   0  0  0  0  0  0  0  0  0  0  0  0
  131.6491   75.6166  227.7405 H   0  0  0  0  0  0  0  0  0  0  0  0
  133.1885   75.8419  225.7871 H   0  0  0  0  0  0  0  0  0  0  0  0
  133.9619   74.4729  223.7414 H   0  0  0  0  0  0  0  0  0  0  0  0
  135.3851   74.4006  224.8549 H   0  0  0  0  0  0  0  0  0  0  0  0
  138.1284   77.0778  220.7380 H   0  0  0  0  0  0  0  0  0  0  0  0
  138.3403   77.0485  222.5578 H   0  0  0  0  0  0  0  0  0  0  0  0
  140.2863   77.1614  219.4184 H   0  0  0  0  0  0  0  0  0  0  0  0
  139.6935   78.6489  220.2446 H   0  0  0  0  0  0  0  0  0  0  0  0
  142.4999   77.4738  220.5761 H   0  0  0  0  0  0  0  0  0  0  0  0
  142.1151   78.8174  219.4929 H   0  0  0  0  0  0  0  0  0  0  0  0
  142.7355   80.9111  220.6344 H   0  0  0  0  0  0  0  0  0  0  0  0
  142.6585   82.2857  222.7103 H   0  0  0  0  0  0  0  0  0  0  0  0
  141.6863   81.3536  224.7985 H   0  0  0  0  0  0  0  0  0  0  0  0
  140.7728   79.0213  224.8503 H   0  0  0  0  0  0  0  0  0  0  0  0
  141.6064   76.6222  222.7385 H   0  0  0  0  0  0  0  0  0  0  0  0
  140.0302   77.1775  223.4863 H   0  0  0  0  0  0  0  0  0  0  0  0
  1  2  1  0
  2  3  1  0
  3  4  1  0
  4  5  1  0
  5  6  2  0
  6  7  1  0
  7  8  1  0
  8  9  1  0
  9 10  1  0
 10 11  1  0
 11 12  2  0
 12 13  1  0
 13 14  2  0
 14 15  1  0
 15 16  2  0
 16 17  1  0
  7 18  2  0
 18 19  1  0
 19 20  1  0
 20 21  1  0
 21 22  1  0
 22 23  1  0
 23 24  2  0
 24 25  1  0
 25 26  2  0
 26 27  1  0
 27 28  2  0
 28 29  1  0
 19 30  2  0
  2 31  1  0
 31 32  1  0
 32 33  1  0
 33 34  1  0
 34 35  1  0
 35 36  2  0
 36 37  1  0
 37 38  2  0
 38 39  1  0
 39 40  2  0
 40 41  1  0
 30  5  1  0
 41 32  1  0
 17  8  1  0
 29 20  1  0
 40 35  1  0
 16 11  1  0
 28 23  1  0
  1 42  1  0
  1 43  1  0
  2 44  1  1
  3 45  1  0
  3 46  1  0
  4 47  1  0
  9 48  1  0
  9 49  1  0
 10 50  1  0
 10 51  1  0
 12 52  1  0
 13 53  1  0
 14 54  1  0
 15 55  1  0
 17 56  1  0
 17 57  1  0
 21 58  1  0
 21 59  1  0
 22 60  1  0
 22 61  1  0
 24 62  1  0
 25 63  1  0
 26 64  1  0
 27 65  1  0
 29 66  1  0
 29 67  1  0
 31 68  1  0
 31 69  1  0
 33 70  1  0
 33 71  1  0
 34 72  1  0
 34 73  1  0
 36 74  1  0
 37 75  1  0
 38 76  1  0
 39 77  1  0
 41 78  1  0
 41 79  1  0
M  END
>  <smiles>  (36) 
NC(CNc1nc(N2CCc3ccccc3C2)nc(N2CCc3ccccc3C2)n1)CN1CCc2ccccc2C1

>  <score_type>  (36) 
oracle

>  <origin>  (36) 
autodockgpu

>  <m_score__min__energy>  (36) 
-11.49

>  <m_primary>  (36) 
energy

>  <rmsd>  (36) 
9.591736433812773

>  <m_score__min__rmsd>  (36) 
9.591736433812773

>  <meeko>  (36) 
{"free_energy": -10.87, "intermolecular_energy": -13.26, "internal_energy": -2.59, "cluster_size": 12, "cluster_id": 2, "rank_in_cluster": 1}

>  <energy>  (36) 
-9.48

>  <cluster_rmsd>  (36) 
1.2

>  <cluster>  (36) 
7

$$$$

     RDKit          3D

 79 85  0  0  1  0  0  0  0  0999 V2000
  139.4860   69.0020  221.4970 N   0  0  0  0  0  0  0  0  0  0  0  0
  138.1500   69.0590  222.0420 C   0  0  2  0  0  0  0  0  0  0  0  0
  137.5570   70.3670  221.5650 C   0  0  0  0  0  0  0  0  0  0  0  0
  138.5820   71.4040  221.4080 N   0  0  0  0  0  0  0  0  0  0  0  0
  138.1400   72.7380  221.7190 C   0  0  0  0  0  0  0  0  0  0  0  0
  138.8220   73.8280  221.3220 N   0  0  0  0  0  0  0  0  0  0  0  0
  138.3870   75.0820  221.6360 C   0  0  0  0  0  0  0  0  0  0  0  0
  139.0880   76.2480  221.2210 N   0  0  0  0  0  0  0  0  0  0  0  0
  140.3310   76.1720  220.5180 C   0  0  0  0  0  0  0  0  0  0  0  0
  141.4310   76.9320  221.1730 C   0  0  0  0  0  0  0  0  0  0  0  0
  140.9220   77.9750  222.0770 C   0  0  0  0  0  0  0  0  0  0  0  0
  141.8500   78.7080  222.7950 C   0  0  0  0  0  0  0  0  0  0  0  0
  141.4850   79.7170  223.6750 C   0  0  0  0  0  0  0  0  0  0  0  0
  140.1540   80.0000  223.8410 C   0  0  0  0  0  0  0  0  0  0  0  0
  139.1980   79.2980  223.1490 C   0  0  0  0  0  0  0  0  0  0  0  0
  139.6010   78.2880  222.2710 C   0  0  0  0  0  0  0  0  0  0  0  0
  138.5150   77.5440  221.5390 C   0  0  0  0  0  0  0  0  0  0  0  0
  137.2670   75.2290  222.3480 N   0  0  0  0  0  0  0  0  0  0  0  0
  136.5630   74.1600  222.7590 C   0  0  0  0  0  0  0  0  0  0  0  0
  135.3770   74.3800  223.5160 N   0  0  0  0  0  0  0  0  0  0  0  0
  134.3410   73.3660  223.4840 C   0  0  0  0  0  0  0  0  0  0  0  0
  134.2670   72.8110  224.9100 C   0  0  0  0  0  0  0  0  0  0  0  0
  133.7820   73.9790  225.7290 C   0  0  0  0  0  0  0  0  0  0  0  0
  132.9030   73.7250  226.7780 C   0  0  0  0  0  0  0  0  0  0  0  0
  132.4480   74.8000  227.5440 C   0  0  0  0  0  0  0  0  0  0  0  0
  132.8770   76.0850  227.2470 C   0  0  0  0  0  0  0  0  0  0  0  0
  133.7600   76.3290  226.1920 C   0  0  0  0  0  0  0  0  0  0  0  0
  134.2060   75.2610  225.4390 C   0  0  0  0  0  0  0  0  0  0  0  0
  135.1510   75.5500  224.3120 C   0  0  0  0  0  0  0  0  0  0  0  0
  136.9980   72.9270  222.4460 N   0  0  0  0  0  0  0  0  0  0  0  0
  138.1470   69.0830  223.5490 C   0  0  0  0  0  0  0  0  0  0  0  0
  139.4010   69.4410  224.1310 N   0  0  0  0  0  0  0  0  0  0  0  0
  139.8340   70.7640  223.8980 C   0  0  0  0  0  0  0  0  0  0  0  0
  141.0480   71.0740  224.7480 C   0  0  0  0  0  0  0  0  0  0  0  0
  140.5780   70.9940  226.1580 C   0  0  0  0  0  0  0  0  0  0  0  0
  140.7940   71.9630  227.0950 C   0  0  0  0  0  0  0  0  0  0  0  0
  140.3090   71.7740  228.3800 C   0  0  0  0  0  0  0  0  0  0  0  0
  139.6100   70.6080  228.7090 C   0  0  0  0  0  0  0  0  0  0  0  0
  139.3840   69.6140  227.7620 C   0  0  0  0  0  0  0  0  0  0  0  0
  139.8780   69.8280  226.4920 C   0  0  0  0  0  0  0  0  0  0  0  0
  139.7050   68.8490  225.3860 C   0  0  0  0  0  0  0  0  0  0  0  0
  140.2230   68.9280  222.2010 H   0  0  0  0  0  0  0  0  0  0  0  0
  139.5570   68.3740  220.6720 H   0  0  0  0  0  0  0  0  0  0  0  0
  137.5885   68.1705  221.7174 H   0  0  0  0  0  0  0  0  0  0  0  0
  137.0654   70.2024  220.5948 H   0  0  0  0  0  0  0  0  0  0  0  0
  136.8352   70.7110  222.3204 H   0  0  0  0  0  0  0  0  0  0  0  0
  139.5530   71.1920  221.0960 H   0  0  0  0  0  0  0  0  0  0  0  0
  140.6294   75.1153  220.4515 H   0  0  0  0  0  0  0  0  0  0  0  0
  140.1708   76.6233  219.5277 H   0  0  0  0  0  0  0  0  0  0  0  0
  142.0497   76.2313  221.7528 H   0  0  0  0  0  0  0  0  0  0  0  0
  142.0182   77.4249  220.3842 H   0  0  0  0  0  0  0  0  0  0  0  0
  142.9185   78.4823  222.6632 H   0  0  0  0  0  0  0  0  0  0  0  0
  142.2503   80.2798  224.2296 H   0  0  0  0  0  0  0  0  0  0  0  0
  139.8489   80.7970  224.5351 H   0  0  0  0  0  0  0  0  0  0  0  0
  138.1306   79.5272  223.2837 H   0  0  0  0  0  0  0  0  0  0  0  0
  137.6285   77.4269  222.1797 H   0  0  0  0  0  0  0  0  0  0  0  0
  138.1860   78.0803  220.6367 H   0  0  0  0  0  0  0  0  0  0  0  0
  133.3773   73.8100  223.1938 H   0  0  0  0  0  0  0  0  0  0  0  0
  134.5644   72.5774  222.7503 H   0  0  0  0  0  0  0  0  0  0  0  0
  133.5581   71.9718  224.9670 H   0  0  0  0  0  0  0  0  0  0  0  0
  135.2318   72.4173  225.2625 H   0  0  0  0  0  0  0  0  0  0  0  0
  132.5738   72.6989  226.9988 H   0  0  0  0  0  0  0  0  0  0  0  0
  131.7527   74.6286  228.3790 H   0  0  0  0  0  0  0  0  0  0  0  0
  132.5152   76.9282  227.8536 H   0  0  0  0  0  0  0  0  0  0  0  0
  134.0935   77.3525  225.9656 H   0  0  0  0  0  0  0  0  0  0  0  0
  134.7223   76.3393  223.6770 H   0  0  0  0  0  0  0  0  0  0  0  0
  136.1123   75.8751  224.7365 H   0  0  0  0  0  0  0  0  0  0  0  0
  137.3922   69.8110  223.8810 H   0  0  0  0  0  0  0  0  0  0  0  0
  137.9254   68.0580  223.8811 H   0  0  0  0  0  0  0  0  0  0  0  0
  140.0952   70.8791  222.8357 H   0  0  0  0  0  0  0  0  0  0  0  0
  139.0234   71.4589  224.1628 H   0  0  0  0  0  0  0  0  0  0  0  0
  141.8434   70.3364  224.5656 H   0  0  0  0  0  0  0  0  0  0  0  0
  141.4681   72.0633  224.5137 H   0  0  0  0  0  0  0  0  0  0  0  0
  141.3442   72.8793  226.8346 H   0  0  0  0  0  0  0  0  0  0  0  0
  140.4750   72.5460  229.1458 H   0  0  0  0  0  0  0  0  0  0  0  0
  139.2326   70.4746  229.7336 H   0  0  0  0  0  0  0  0  0  0  0  0
  138.8342   68.6956  228.0155 H   0  0  0  0  0  0  0  0  0  0  0  0
  140.6389   68.2772  225.2813 H   0  0  0  0  0  0  0  0  0  0  0  0
  138.8471   68.2150  225.6543 H   0  0  0  0  0  0  0  0  0  0  0  0
  1  2  1  0
  2  3  1  0
  3  4  1  0
  4  5  1  0
  5  6  2  0
  6  7  1  0
  7  8  1  0
  8  9  1  0
  9 10  1  0
 10 11  1  0
 11 12  2  0
 12 13  1  0
 13 14  2  0
 14 15  1  0
 15 16  2  0
 16 17  1  0
  7 18  2  0
 18 19  1  0
 19 20  1  0
 20 21  1  0
 21 22  1  0
 22 23  1  0
 23 24  2  0
 24 25  1  0
 25 26  2  0
 26 27  1  0
 27 28  2  0
 28 29  1  0
 19 30  2  0
  2 31  1  0
 31 32  1  0
 32 33  1  0
 33 34  1  0
 34 35  1  0
 35 36  2  0
 36 37  1  0
 37 38  2  0
 38 39  1  0
 39 40  2  0
 40 41  1  0
 30  5  1  0
 41 32  1  0
 17  8  1  0
 29 20  1  0
 40 35  1  0
 16 11  1  0
 28 23  1  0
  1 42  1  0
  1 43  1  0
  2 44  1  1
  3 45  1  0
  3 46  1  0
  4 47  1  0
  9 48  1  0
  9 49  1  0
 10 50  1  0
 10 51  1  0
 12 52  1  0
 13 53  1  0
 14 54  1  0
 15 55  1  0
 17 56  1  0
 17 57  1  0
 21 58  1  0
 21 59  1  0
 22 60  1  0
 22 61  1  0
 24 62  1  0
 25 63  1  0
 26 64  1  0
 27 65  1  0
 29 66  1  0
 29 67  1  0
 31 68  1  0
 31 69  1  0
 33 70  1  0
 33 71  1  0
 34 72  1  0
 34 73  1  0
 36 74  1  0
 37 75  1  0
 38 76  1  0
 39 77  1  0
 41 78  1  0
 41 79  1  0
M  END
>  <smiles>  (37) 
NC(CNc1nc(N2CCc3ccccc3C2)nc(N2CCc3ccccc3C2)n1)CN1CCc2ccccc2C1

>  <score_type>  (37) 
oracle

>  <origin>  (37) 
autodockgpu

>  <m_score__min__energy>  (37) 
-11.49

>  <m_primary>  (37) 
energy

>  <rmsd>  (37) 
4.748704999891312

>  <m_score__min__rmsd>  (37) 
4.748704999891312

>  <meeko>  (37) 
{"free_energy": -9.54, "intermolecular_energy": -11.93, "internal_energy": -2.85, "cluster_size": 12, "cluster_id": 2, "rank_in_cluster": 9}

>  <energy>  (37) 
-9.37

>  <cluster_rmsd>  (37) 
1.0

>  <cluster>  (37) 
7

$$$$

     RDKit          3D

 79 85  0  0  1  0  0  0  0  0999 V2000
  143.2060   69.9860  218.2710 N   0  0  0  0  0  0  0  0  0  0  0  0
  144.0570   70.0170  219.4370 C   0  0  2  0  0  0  0  0  0  0  0  0
  143.5470   71.1510  220.3000 C   0  0  0  0  0  0  0  0  0  0  0  0
  142.2890   71.7020  219.7870 N   0  0  0  0  0  0  0  0  0  0  0  0
  141.4680   72.3500  220.7760 C   0  0  0  0  0  0  0  0  0  0  0  0
  141.0620   73.6260  220.6440 N   0  0  0  0  0  0  0  0  0  0  0  0
  140.2900   74.2200  221.5980 C   0  0  0  0  0  0  0  0  0  0  0  0
  139.8440   75.5650  221.4770 N   0  0  0  0  0  0  0  0  0  0  0  0
  139.4470   76.1180  220.2190 C   0  0  0  0  0  0  0  0  0  0  0  0
  140.1840   77.3600  219.8590 C   0  0  0  0  0  0  0  0  0  0  0  0
  140.7660   78.0210  221.0370 C   0  0  0  0  0  0  0  0  0  0  0  0
  141.5310   79.1540  220.8220 C   0  0  0  0  0  0  0  0  0  0  0  0
  142.1270   79.8590  221.8580 C   0  0  0  0  0  0  0  0  0  0  0  0
  141.9530   79.4180  223.1450 C   0  0  0  0  0  0  0  0  0  0  0  0
  141.2020   78.2980  223.4050 C   0  0  0  0  0  0  0  0  0  0  0  0
  140.6150   77.6120  222.3380 C   0  0  0  0  0  0  0  0  0  0  0  0
  139.8050   76.3870  222.6730 C   0  0  0  0  0  0  0  0  0  0  0  0
  139.9340   73.5240  222.6810 N   0  0  0  0  0  0  0  0  0  0  0  0
  140.3230   72.2460  222.8420 C   0  0  0  0  0  0  0  0  0  0  0  0
  139.9130   71.5560  224.0180 N   0  0  0  0  0  0  0  0  0  0  0  0
  138.7220   70.7320  223.9520 C   0  0  0  0  0  0  0  0  0  0  0  0
  139.2060   69.2940  224.1660 C   0  0  0  0  0  0  0  0  0  0  0  0
  139.7240   69.2930  225.5810 C   0  0  0  0  0  0  0  0  0  0  0  0
  139.5150   68.1540  226.3550 C   0  0  0  0  0  0  0  0  0  0  0  0
  139.9920   68.1420  227.6670 C   0  0  0  0  0  0  0  0  0  0  0  0
  140.6540   69.2530  228.1670 C   0  0  0  0  0  0  0  0  0  0  0  0
  140.8570   70.3910  227.3830 C   0  0  0  0  0  0  0  0  0  0  0  0
  140.3840   70.3950  226.0850 C   0  0  0  0  0  0  0  0  0  0  0  0
  140.6140   71.6290  225.2650 C   0  0  0  0  0  0  0  0  0  0  0  0
  141.0840   71.6680  221.8970 N   0  0  0  0  0  0  0  0  0  0  0  0
  145.4920   70.3220  219.0900 C   0  0  0  0  0  0  0  0  0  0  0  0
  145.6890   71.5990  218.4830 N   0  0  0  0  0  0  0  0  0  0  0  0
  144.9830   71.8270  217.2820 C   0  0  0  0  0  0  0  0  0  0  0  0
  145.1030   73.2790  216.8730 C   0  0  0  0  0  0  0  0  0  0  0  0
  144.4240   74.0530  217.9480 C   0  0  0  0  0  0  0  0  0  0  0  0
  143.4700   75.0040  217.7240 C   0  0  0  0  0  0  0  0  0  0  0  0
  142.9110   75.6610  218.8090 C   0  0  0  0  0  0  0  0  0  0  0  0
  143.3180   75.3550  220.1110 C   0  0  0  0  0  0  0  0  0  0  0  0
  144.2890   74.3870  220.3510 C   0  0  0  0  0  0  0  0  0  0  0  0
  144.8300   73.7490  219.2530 C   0  0  0  0  0  0  0  0  0  0  0  0
  145.8730   72.6960  219.3680 C   0  0  0  0  0  0  0  0  0  0  0  0
  142.3650   69.4150  218.3810 H   0  0  0  0  0  0  0  0  0  0  0  0
  143.0870   70.9210  217.8340 H   0  0  0  0  0  0  0  0  0  0  0  0
  144.0300   69.0345  219.9309 H   0  0  0  0  0  0  0  0  0  0  0  0
  143.3813   70.7752  221.3204 H   0  0  0  0  0  0  0  0  0  0  0  0
  144.3002   71.9527  220.2915 H   0  0  0  0  0  0  0  0  0  0  0  0
  142.0100   71.6300  218.7860 H   0  0  0  0  0  0  0  0  0  0  0  0
  139.6267   75.3668  219.4358 H   0  0  0  0  0  0  0  0  0  0  0  0
  138.3833   76.3851  220.3035 H   0  0  0  0  0  0  0  0  0  0  0  0
  140.9942   77.1017  219.1612 H   0  0  0  0  0  0  0  0  0  0  0  0
  139.4676   78.0571  219.3997 H   0  0  0  0  0  0  0  0  0  0  0  0
  141.6720   79.5093  219.7905 H   0  0  0  0  0  0  0  0  0  0  0  0
  142.7287   80.7562  221.6506 H   0  0  0  0  0  0  0  0  0  0  0  0
  142.4193   79.9665  223.9767 H   0  0  0  0  0  0  0  0  0  0  0  0
  141.0644   77.9459  224.4380 H   0  0  0  0  0  0  0  0  0  0  0  0
  140.2506   75.8510  223.5240 H   0  0  0  0  0  0  0  0  0  0  0  0
  138.7749   76.6422  222.9626 H   0  0  0  0  0  0  0  0  0  0  0  0
  138.0114   71.0197  224.7408 H   0  0  0  0  0  0  0  0  0  0  0  0
  138.1988   70.8475  222.9913 H   0  0  0  0  0  0  0  0  0  0  0  0
  138.3763   68.5808  224.0524 H   0  0  0  0  0  0  0  0  0  0  0  0
  139.9692   68.9899  223.4345 H   0  0  0  0  0  0  0  0  0  0  0  0
  138.9856   67.2829  225.9415 H   0  0  0  0  0  0  0  0  0  0  0  0
  139.8434   67.2555  228.3010 H   0  0  0  0  0  0  0  0  0  0  0  0
  141.0268   69.2379  229.2018 H   0  0  0  0  0  0  0  0  0  0  0  0
  141.3830   71.2667  227.7910 H   0  0  0  0  0  0  0  0  0  0  0  0
  140.2582   72.5053  225.8266 H   0  0  0  0  0  0  0  0  0  0  0  0
  141.6907   71.7151  225.0567 H   0  0  0  0  0  0  0  0  0  0  0  0
  146.0860   70.2845  220.0151 H   0  0  0  0  0  0  0  0  0  0  0  0
  145.8052   69.5694  218.3514 H   0  0  0  0  0  0  0  0  0  0  0  0
  145.4009   71.1902  216.4884 H   0  0  0  0  0  0  0  0  0  0  0  0
  143.9215   71.5846  217.4380 H   0  0  0  0  0  0  0  0  0  0  0  0
  146.1609   73.5712  216.7986 H   0  0  0  0  0  0  0  0  0  0  0  0
  144.6491   73.4642  215.8883 H   0  0  0  0  0  0  0  0  0  0  0  0
  143.1504   75.2447  216.6994 H   0  0  0  0  0  0  0  0  0  0  0  0
  142.1411   76.4292  218.6443 H   0  0  0  0  0  0  0  0  0  0  0  0
  142.8636   75.8877  220.9594 H   0  0  0  0  0  0  0  0  0  0  0  0
  144.6118   74.1407  221.3733 H   0  0  0  0  0  0  0  0  0  0  0  0
  146.8504   73.1528  219.1536 H   0  0  0  0  0  0  0  0  0  0  0  0
  145.8073   72.2942  220.3899 H   0  0  0  0  0  0  0  0  0  0  0  0
  1  2  1  0
  2  3  1  0
  3  4  1  0
  4  5  1  0
  5  6  2  0
  6  7  1  0
  7  8  1  0
  8  9  1  0
  9 10  1  0
 10 11  1  0
 11 12  2  0
 12 13  1  0
 13 14  2  0
 14 15  1  0
 15 16  2  0
 16 17  1  0
  7 18  2  0
 18 19  1  0
 19 20  1  0
 20 21  1  0
 21 22  1  0
 22 23  1  0
 23 24  2  0
 24 25  1  0
 25 26  2  0
 26 27  1  0
 27 28  2  0
 28 29  1  0
 19 30  2  0
  2 31  1  0
 31 32  1  0
 32 33  1  0
 33 34  1  0
 34 35  1  0
 35 36  2  0
 36 37  1  0
 37 38  2  0
 38 39  1  0
 39 40  2  0
 40 41  1  0
 30  5  1  0
 41 32  1  0
 17  8  1  0
 29 20  1  0
 40 35  1  0
 16 11  1  0
 28 23  1  0
  1 42  1  0
  1 43  1  0
  2 44  1  1
  3 45  1  0
  3 46  1  0
  4 47  1  0
  9 48  1  0
  9 49  1  0
 10 50  1  0
 10 51  1  0
 12 52  1  0
 13 53  1  0
 14 54  1  0
 15 55  1  0
 17 56  1  0
 17 57  1  0
 21 58  1  0
 21 59  1  0
 22 60  1  0
 22 61  1  0
 24 62  1  0
 25 63  1  0
 26 64  1  0
 27 65  1  0
 29 66  1  0
 29 67  1  0
 31 68  1  0
 31 69  1  0
 33 70  1  0
 33 71  1  0
 34 72  1  0
 34 73  1  0
 36 74  1  0
 37 75  1  0
 38 76  1  0
 39 77  1  0
 41 78  1  0
 41 79  1  0
M  END
>  <smiles>  (38) 
NC(CNc1nc(N2CCc3ccccc3C2)nc(N2CCc3ccccc3C2)n1)CN1CCc2ccccc2C1

>  <score_type>  (38) 
oracle

>  <origin>  (38) 
autodockgpu

>  <m_score__min__energy>  (38) 
-11.49

>  <m_primary>  (38) 
energy

>  <rmsd>  (38) 
9.711202080861769

>  <m_score__min__rmsd>  (38) 
9.711202080861769

>  <meeko>  (38) 
{"free_energy": -10.09, "intermolecular_energy": -12.47, "internal_energy": -2.94, "cluster_size": 4, "cluster_id": 5, "rank_in_cluster": 1}

>  <energy>  (38) 
-9.2

>  <cluster_rmsd>  (38) 
1.87

>  <cluster>  (38) 
7

$$$$

     RDKit          3D

 79 85  0  0  1  0  0  0  0  0999 V2000
  135.4850   70.5530  224.4080 N   0  0  0  0  0  0  0  0  0  0  0  0
  134.3240   70.7040  223.5640 C   0  0  2  0  0  0  0  0  0  0  0  0
  134.8470   70.8610  222.1530 C   0  0  0  0  0  0  0  0  0  0  0  0
  135.2350   72.2460  221.8680 N   0  0  0  0  0  0  0  0  0  0  0  0
  136.6200   72.5470  222.1180 C   0  0  0  0  0  0  0  0  0  0  0  0
  137.2100   73.6570  221.6370 N   0  0  0  0  0  0  0  0  0  0  0  0
  138.5260   73.9160  221.8810 C   0  0  0  0  0  0  0  0  0  0  0  0
  139.1680   75.0850  221.3890 N   0  0  0  0  0  0  0  0  0  0  0  0
  140.5100   75.0600  220.8960 C   0  0  0  0  0  0  0  0  0  0  0  0
  141.4090   76.0350  221.5720 C   0  0  0  0  0  0  0  0  0  0  0  0
  140.6610   77.1290  222.2100 C   0  0  0  0  0  0  0  0  0  0  0  0
  141.3840   78.0660  222.9260 C   0  0  0  0  0  0  0  0  0  0  0  0
  140.7840   79.1400  223.5680 C   0  0  0  0  0  0  0  0  0  0  0  0
  139.4220   79.2810  223.4900 C   0  0  0  0  0  0  0  0  0  0  0  0
  138.6640   78.3740  222.7900 C   0  0  0  0  0  0  0  0  0  0  0  0
  139.3010   77.3040  222.1560 C   0  0  0  0  0  0  0  0  0  0  0  0
  138.4270   76.3340  221.4050 C   0  0  0  0  0  0  0  0  0  0  0  0
  139.2400   73.0530  222.6090 N   0  0  0  0  0  0  0  0  0  0  0  0
  138.6800   71.9340  223.1030 C   0  0  0  0  0  0  0  0  0  0  0  0
  139.4930   71.0520  223.8710 N   0  0  0  0  0  0  0  0  0  0  0  0
  140.7310   71.5630  224.4250 C   0  0  0  0  0  0  0  0  0  0  0  0
  140.5440   71.5290  225.9460 C   0  0  0  0  0  0  0  0  0  0  0  0
  140.4350   70.0600  226.2640 C   0  0  0  0  0  0  0  0  0  0  0  0
  141.0140   69.6000  227.4450 C   0  0  0  0  0  0  0  0  0  0  0  0
  140.9180   68.2410  227.7490 C   0  0  0  0  0  0  0  0  0  0  0  0
  140.2580   67.3870  226.8800 C   0  0  0  0  0  0  0  0  0  0  0  0
  139.6810   67.8580  225.6980 C   0  0  0  0  0  0  0  0  0  0  0  0
  139.7780   69.2040  225.4030 C   0  0  0  0  0  0  0  0  0  0  0  0
  139.1530   69.6840  224.1280 C   0  0  0  0  0  0  0  0  0  0  0  0
  137.3820   71.6860  222.8580 N   0  0  0  0  0  0  0  0  0  0  0  0
  133.5330   71.9440  223.8950 C   0  0  0  0  0  0  0  0  0  0  0  0
  134.1960   72.8400  224.7870 N   0  0  0  0  0  0  0  0  0  0  0  0
  134.5910   74.0790  224.2380 C   0  0  0  0  0  0  0  0  0  0  0  0
  135.0710   75.0070  225.3320 C   0  0  0  0  0  0  0  0  0  0  0  0
  133.8830   75.2540  226.1950 C   0  0  0  0  0  0  0  0  0  0  0  0
  133.4530   76.4930  226.5730 C   0  0  0  0  0  0  0  0  0  0  0  0
  132.3320   76.5960  227.3830 C   0  0  0  0  0  0  0  0  0  0  0  0
  131.6540   75.4480  227.8050 C   0  0  0  0  0  0  0  0  0  0  0  0
  132.0840   74.1800  227.4250 C   0  0  0  0  0  0  0  0  0  0  0  0
  133.2020   74.1070  226.6190 C   0  0  0  0  0  0  0  0  0  0  0  0
  133.7650   72.8160  226.1410 C   0  0  0  0  0  0  0  0  0  0  0  0
  136.2970   70.1500  223.9360 H   0  0  0  0  0  0  0  0  0  0  0  0
  135.6540   71.3810  225.0130 H   0  0  0  0  0  0  0  0  0  0  0  0
  133.6628   69.8354  223.6996 H   0  0  0  0  0  0  0  0  0  0  0  0
  135.7253   70.2113  222.0243 H   0  0  0  0  0  0  0  0  0  0  0  0
  134.0429   70.5806  221.4567 H   0  0  0  0  0  0  0  0  0  0  0  0
  134.5620   72.9570  221.5120 H   0  0  0  0  0  0  0  0  0  0  0  0
  140.9172   74.0492  221.0457 H   0  0  0  0  0  0  0  0  0  0  0  0
  140.4695   75.3402  219.8330 H   0  0  0  0  0  0  0  0  0  0  0  0
  141.9899   75.5065  222.3422 H   0  0  0  0  0  0  0  0  0  0  0  0
  142.0661   76.4754  220.8076 H   0  0  0  0  0  0  0  0  0  0  0  0
  142.4766   77.9555  222.9889 H   0  0  0  0  0  0  0  0  0  0  0  0
  141.3903   79.8658  224.1298 H   0  0  0  0  0  0  0  0  0  0  0  0
  138.9321   80.1280  223.9925 H   0  0  0  0  0  0  0  0  0  0  0  0
  137.5716   78.4884  222.7294 H   0  0  0  0  0  0  0  0  0  0  0  0
  137.4639   76.2042  221.9204 H   0  0  0  0  0  0  0  0  0  0  0  0
  138.1987   76.6888  220.3891 H   0  0  0  0  0  0  0  0  0  0  0  0
  141.5771   70.9262  224.1274 H   0  0  0  0  0  0  0  0  0  0  0  0
  140.9514   72.5783  224.0636 H   0  0  0  0  0  0  0  0  0  0  0  0
  141.4090   71.9771  226.4569 H   0  0  0  0  0  0  0  0  0  0  0  0
  139.6658   72.1018  226.2788 H   0  0  0  0  0  0  0  0  0  0  0  0
  141.5351   70.2923  228.1226 H   0  0  0  0  0  0  0  0  0  0  0  0
  141.3646   67.8495  228.6749 H   0  0  0  0  0  0  0  0  0  0  0  0
  140.1869   66.3171  227.1256 H   0  0  0  0  0  0  0  0  0  0  0  0
  139.1597   67.1705  225.0157 H   0  0  0  0  0  0  0  0  0  0  0  0
  139.5123   69.0618  223.2951 H   0  0  0  0  0  0  0  0  0  0  0  0
  138.0599   69.6073  224.2238 H   0  0  0  0  0  0  0  0  0  0  0  0
  133.3252   72.4811  222.9578 H   0  0  0  0  0  0  0  0  0  0  0  0
  132.6183   71.6086  224.4057 H   0  0  0  0  0  0  0  0  0  0  0  0
  135.4062   73.9139  223.5182 H   0  0  0  0  0  0  0  0  0  0  0  0
  133.7291   74.5377  223.7313 H   0  0  0  0  0  0  0  0  0  0  0  0
  135.8758   74.5326  225.9127 H   0  0  0  0  0  0  0  0  0  0  0  0
  135.4793   75.9428  224.9228 H   0  0  0  0  0  0  0  0  0  0  0  0
  133.9870   77.3954  226.2405 H   0  0  0  0  0  0  0  0  0  0  0  0
  131.9736   77.5878  227.6958 H   0  0  0  0  0  0  0  0  0  0  0  0
  130.7668   75.5487  228.4474 H   0  0  0  0  0  0  0  0  0  0  0  0
  131.5546   73.2734  227.7535 H   0  0  0  0  0  0  0  0  0  0  0  0
  134.6271   72.5590  226.7740 H   0  0  0  0  0  0  0  0  0  0  0  0
  132.9565   72.0729  226.2048 H   0  0  0  0  0  0  0  0  0  0  0  0
  1  2  1  0
  2  3  1  0
  3  4  1  0
  4  5  1  0
  5  6  2  0
  6  7  1  0
  7  8  1  0
  8  9  1  0
  9 10  1  0
 10 11  1  0
 11 12  2  0
 12 13  1  0
 13 14  2  0
 14 15  1  0
 15 16  2  0
 16 17  1  0
  7 18  2  0
 18 19  1  0
 19 20  1  0
 20 21  1  0
 21 22  1  0
 22 23  1  0
 23 24  2  0
 24 25  1  0
 25 26  2  0
 26 27  1  0
 27 28  2  0
 28 29  1  0
 19 30  2  0
  2 31  1  0
 31 32  1  0
 32 33  1  0
 33 34  1  0
 34 35  1  0
 35 36  2  0
 36 37  1  0
 37 38  2  0
 38 39  1  0
 39 40  2  0
 40 41  1  0
 30  5  1  0
 41 32  1  0
 17  8  1  0
 29 20  1  0
 40 35  1  0
 16 11  1  0
 28 23  1  0
  1 42  1  0
  1 43  1  0
  2 44  1  6
  3 45  1  0
  3 46  1  0
  4 47  1  0
  9 48  1  0
  9 49  1  0
 10 50  1  0
 10 51  1  0
 12 52  1  0
 13 53  1  0
 14 54  1  0
 15 55  1  0
 17 56  1  0
 17 57  1  0
 21 58  1  0
 21 59  1  0
 22 60  1  0
 22 61  1  0
 24 62  1  0
 25 63  1  0
 26 64  1  0
 27 65  1  0
 29 66  1  0
 29 67  1  0
 31 68  1  0
 31 69  1  0
 33 70  1  0
 33 71  1  0
 34 72  1  0
 34 73  1  0
 36 74  1  0
 37 75  1  0
 38 76  1  0
 39 77  1  0
 41 78  1  0
 41 79  1  0
M  END
>  <smiles>  (39) 
NC(CNc1nc(N2CCc3ccccc3C2)nc(N2CCc3ccccc3C2)n1)CN1CCc2ccccc2C1

>  <score_type>  (39) 
oracle

>  <origin>  (39) 
autodockgpu

>  <m_score__min__energy>  (39) 
-11.49

>  <m_primary>  (39) 
energy

>  <rmsd>  (39) 
8.487839315949005

>  <m_score__min__rmsd>  (39) 
8.487839315949005

>  <meeko>  (39) 
{"free_energy": -9.26, "intermolecular_energy": -11.64, "internal_energy": -3.24, "cluster_size": 12, "cluster_id": 2, "rank_in_cluster": 12}

>  <energy>  (39) 
-8.95

>  <cluster_rmsd>  (39) 
1.79

>  <cluster>  (39) 
7

$$$$

     RDKit          3D

 79 85  0  0  1  0  0  0  0  0999 V2000
  140.4810   77.5880  221.9210 N   0  0  0  0  0  0  0  0  0  0  0  0
  139.8820   77.2380  220.6550 C   0  0  2  0  0  0  0  0  0  0  0  0
  140.4010   75.8590  220.3110 C   0  0  0  0  0  0  0  0  0  0  0  0
  141.2530   75.3180  221.3750 N   0  0  0  0  0  0  0  0  0  0  0  0
  141.2160   73.8850  221.5060 C   0  0  0  0  0  0  0  0  0  0  0  0
  141.6460   73.0660  220.5280 N   0  0  0  0  0  0  0  0  0  0  0  0
  141.5940   71.7110  220.6730 C   0  0  0  0  0  0  0  0  0  0  0  0
  142.0490   70.8270  219.6560 N   0  0  0  0  0  0  0  0  0  0  0  0
  141.2980   69.6730  219.2670 C   0  0  0  0  0  0  0  0  0  0  0  0
  142.0720   68.4050  219.3540 C   0  0  0  0  0  0  0  0  0  0  0  0
  143.5240   68.6380  219.3230 C   0  0  0  0  0  0  0  0  0  0  0  0
  144.3510   67.5380  219.4610 C   0  0  0  0  0  0  0  0  0  0  0  0
  145.7360   67.6390  219.4460 C   0  0  0  0  0  0  0  0  0  0  0  0
  146.3070   68.8760  219.2870 C   0  0  0  0  0  0  0  0  0  0  0  0
  145.5250   69.9950  219.1460 C   0  0  0  0  0  0  0  0  0  0  0  0
  144.1330   69.8570  219.1660 C   0  0  0  0  0  0  0  0  0  0  0  0
  143.3180   71.1140  219.0120 C   0  0  0  0  0  0  0  0  0  0  0  0
  141.1080   71.1900  221.8020 N   0  0  0  0  0  0  0  0  0  0  0  0
  140.6710   71.9820  222.7980 C   0  0  0  0  0  0  0  0  0  0  0  0
  140.1620   71.3680  223.9780 N   0  0  0  0  0  0  0  0  0  0  0  0
  138.9900   70.5230  223.8640 C   0  0  0  0  0  0  0  0  0  0  0  0
  139.4660   69.1110  224.2210 C   0  0  0  0  0  0  0  0  0  0  0  0
  139.8550   69.2150  225.6730 C   0  0  0  0  0  0  0  0  0  0  0  0
  139.5880   68.1290  226.5030 C   0  0  0  0  0  0  0  0  0  0  0  0
  139.9450   68.2150  227.8500 C   0  0  0  0  0  0  0  0  0  0  0  0
  140.5490   69.3670  228.3280 C   0  0  0  0  0  0  0  0  0  0  0  0
  140.8120   70.4520  227.4870 C   0  0  0  0  0  0  0  0  0  0  0  0
  140.4570   70.3600  226.1550 C   0  0  0  0  0  0  0  0  0  0  0  0
  140.7490   71.5370  225.2750 C   0  0  0  0  0  0  0  0  0  0  0  0
  140.7250   73.3160  222.6470 N   0  0  0  0  0  0  0  0  0  0  0  0
  140.3010   78.1690  219.5460 C   0  0  0  0  0  0  0  0  0  0  0  0
  140.4840   79.5240  219.9580 N   0  0  0  0  0  0  0  0  0  0  0  0
  139.4410   80.0790  220.7310 C   0  0  0  0  0  0  0  0  0  0  0  0
  139.8600   81.4250  221.2830 C   0  0  0  0  0  0  0  0  0  0  0  0
  140.9990   81.1430  222.1990 C   0  0  0  0  0  0  0  0  0  0  0  0
  141.0830   81.5990  223.4820 C   0  0  0  0  0  0  0  0  0  0  0  0
  142.1980   81.2720  224.2390 C   0  0  0  0  0  0  0  0  0  0  0  0
  143.2190   80.4870  223.6940 C   0  0  0  0  0  0  0  0  0  0  0  0
  143.1440   80.0170  222.3870 C   0  0  0  0  0  0  0  0  0  0  0  0
  142.0240   80.3570  221.6570 C   0  0  0  0  0  0  0  0  0  0  0  0
  141.8170   79.9200  220.2500 C   0  0  0  0  0  0  0  0  0  0  0  0
  140.7990   78.5580  221.9800 H   0  0  0  0  0  0  0  0  0  0  0  0
  139.9510   77.2160  222.7340 H   0  0  0  0  0  0  0  0  0  0  0  0
  138.7871   77.2923  220.7460 H   0  0  0  0  0  0  0  0  0  0  0  0
  139.5458   75.1836  220.1613 H   0  0  0  0  0  0  0  0  0  0  0  0
  141.0056   75.9392  219.3956 H   0  0  0  0  0  0  0  0  0  0  0  0
  141.8400   75.9230  221.9880 H   0  0  0  0  0  0  0  0  0  0  0  0
  140.4199   69.5909  219.9245 H   0  0  0  0  0  0  0  0  0  0  0  0
  141.0175   69.8095  218.2122 H   0  0  0  0  0  0  0  0  0  0  0  0
  141.8147   67.8966  220.2949 H   0  0  0  0  0  0  0  0  0  0  0  0
  141.8099   67.7884  218.4816 H   0  0  0  0  0  0  0  0  0  0  0  0
  143.8943   66.5453  219.5875 H   0  0  0  0  0  0  0  0  0  0  0  0
  146.3639   66.7430  219.5596 H   0  0  0  0  0  0  0  0  0  0  0  0
  147.4027   68.9721  219.2724 H   0  0  0  0  0  0  0  0  0  0  0  0
  145.9859   70.9857  219.0191 H   0  0  0  0  0  0  0  0  0  0  0  0
  143.8180   71.9606  219.5052 H   0  0  0  0  0  0  0  0  0  0  0  0
  143.1889   71.3931  217.9558 H   0  0  0  0  0  0  0  0  0  0  0  0
  138.2084   70.8535  224.5639 H   0  0  0  0  0  0  0  0  0  0  0  0
  138.5547   70.5635  222.8546 H   0  0  0  0  0  0  0  0  0  0  0  0
  138.6564   68.3790  224.0843 H   0  0  0  0  0  0  0  0  0  0  0  0
  140.2948   68.7693  223.5836 H   0  0  0  0  0  0  0  0  0  0  0  0
  139.1063   67.2233  226.1060 H   0  0  0  0  0  0  0  0  0  0  0  0
  139.7478   67.3722  228.5288 H   0  0  0  0  0  0  0  0  0  0  0  0
  140.8270   69.4288  229.3905 H   0  0  0  0  0  0  0  0  0  0  0  0
  141.2921   71.3612  227.8780 H   0  0  0  0  0  0  0  0  0  0  0  0
  140.3375   72.4448  225.7404 H   0  0  0  0  0  0  0  0  0  0  0  0
  141.8392   71.6241  225.1572 H   0  0  0  0  0  0  0  0  0  0  0  0
  141.2512   77.8037  219.1292 H   0  0  0  0  0  0  0  0  0  0  0  0
  139.4849   78.1700  218.8084 H   0  0  0  0  0  0  0  0  0  0  0  0
  138.5491   80.2065  220.1000 H   0  0  0  0  0  0  0  0  0  0  0  0
  139.2146   79.4020  221.5679 H   0  0  0  0  0  0  0  0  0  0  0  0
  140.1781   82.0923  220.4684 H   0  0  0  0  0  0  0  0  0  0  0  0
  139.0321   81.9275  221.8046 H   0  0  0  0  0  0  0  0  0  0  0  0
  140.2790   82.2163  223.9093 H   0  0  0  0  0  0  0  0  0  0  0  0
  142.2799   81.6325  225.2750 H   0  0  0  0  0  0  0  0  0  0  0  0
  144.0960   80.2371  224.3092 H   0  0  0  0  0  0  0  0  0  0  0  0
  143.9446   79.3997  221.9535 H   0  0  0  0  0  0  0  0  0  0  0  0
  142.0831   80.7554  219.5856 H   0  0  0  0  0  0  0  0  0  0  0  0
  142.4529   79.0360  220.0945 H   0  0  0  0  0  0  0  0  0  0  0  0
  1  2  1  0
  2  3  1  0
  3  4  1  0
  4  5  1  0
  5  6  2  0
  6  7  1  0
  7  8  1  0
  8  9  1  0
  9 10  1  0
 10 11  1  0
 11 12  2  0
 12 13  1  0
 13 14  2  0
 14 15  1  0
 15 16  2  0
 16 17  1  0
  7 18  2  0
 18 19  1  0
 19 20  1  0
 20 21  1  0
 21 22  1  0
 22 23  1  0
 23 24  2  0
 24 25  1  0
 25 26  2  0
 26 27  1  0
 27 28  2  0
 28 29  1  0
 19 30  2  0
  2 31  1  0
 31 32  1  0
 32 33  1  0
 33 34  1  0
 34 35  1  0
 35 36  2  0
 36 37  1  0
 37 38  2  0
 38 39  1  0
 39 40  2  0
 40 41  1  0
 30  5  1  0
 41 32  1  0
 17  8  1  0
 29 20  1  0
 40 35  1  0
 16 11  1  0
 28 23  1  0
  1 42  1  0
  1 43  1  0
  2 44  1  1
  3 45  1  0
  3 46  1  0
  4 47  1  0
  9 48  1  0
  9 49  1  0
 10 50  1  0
 10 51  1  0
 12 52  1  0
 13 53  1  0
 14 54  1  0
 15 55  1  0
 17 56  1  0
 17 57  1  0
 21 58  1  0
 21 59  1  0
 22 60  1  0
 22 61  1  0
 24 62  1  0
 25 63  1  0
 26 64  1  0
 27 65  1  0
 29 66  1  0
 29 67  1  0
 31 68  1  0
 31 69  1  0
 33 70  1  0
 33 71  1  0
 34 72  1  0
 34 73  1  0
 36 74  1  0
 37 75  1  0
 38 76  1  0
 39 77  1  0
 41 78  1  0
 41 79  1  0
M  END
>  <smiles>  (40) 
NC(CNc1nc(N2CCc3ccccc3C2)nc(N2CCc3ccccc3C2)n1)CN1CCc2ccccc2C1

>  <score_type>  (40) 
oracle

>  <origin>  (40) 
autodockgpu

>  <m_score__min__energy>  (40) 
-11.49

>  <m_primary>  (40) 
energy

>  <rmsd>  (40) 
10.68857767773619

>  <m_score__min__rmsd>  (40) 
10.68857767773619

>  <meeko>  (40) 
{"free_energy": -10.21, "intermolecular_energy": -12.6, "internal_energy": -2.54, "cluster_size": 11, "cluster_id": 1, "rank_in_cluster": 9}

>  <energy>  (40) 
-8.84

>  <cluster_rmsd>  (40) 
1.92

>  <cluster>  (40) 
7

$$$$

     RDKit          3D

 79 85  0  0  1  0  0  0  0  0999 V2000
  139.0430   75.6800  222.7270 N   0  0  0  0  0  0  0  0  0  0  0  0
  139.8270   76.6390  221.9840 C   0  0  2  0  0  0  0  0  0  0  0  0
  140.3240   75.9120  220.7540 C   0  0  0  0  0  0  0  0  0  0  0  0
  141.5750   75.1940  221.0150 N   0  0  0  0  0  0  0  0  0  0  0  0
  141.4290   73.7720  221.1830 C   0  0  0  0  0  0  0  0  0  0  0  0
  141.8130   72.8960  220.2370 N   0  0  0  0  0  0  0  0  0  0  0  0
  141.6570   71.5530  220.4170 C   0  0  0  0  0  0  0  0  0  0  0  0
  142.0620   70.6090  219.4330 N   0  0  0  0  0  0  0  0  0  0  0  0
  141.2590   69.4730  219.1020 C   0  0  0  0  0  0  0  0  0  0  0  0
  141.9820   68.1780  219.2330 C   0  0  0  0  0  0  0  0  0  0  0  0
  143.4410   68.3490  219.1760 C   0  0  0  0  0  0  0  0  0  0  0  0
  144.2250   67.2230  219.3510 C   0  0  0  0  0  0  0  0  0  0  0  0
  145.6120   67.2650  219.3160 C   0  0  0  0  0  0  0  0  0  0  0  0
  146.2320   68.4690  219.0980 C   0  0  0  0  0  0  0  0  0  0  0  0
  145.4940   69.6130  218.9190 C   0  0  0  0  0  0  0  0  0  0  0  0
  144.0980   69.5340  218.9610 C   0  0  0  0  0  0  0  0  0  0  0  0
  143.3340   70.8170  218.7630 C   0  0  0  0  0  0  0  0  0  0  0  0
  141.1140   71.1020  221.5500 N   0  0  0  0  0  0  0  0  0  0  0  0
  140.7200   71.9520  222.5160 C   0  0  0  0  0  0  0  0  0  0  0  0
  140.1460   71.4110  223.7020 N   0  0  0  0  0  0  0  0  0  0  0  0
  138.9620   70.5840  223.5790 C   0  0  0  0  0  0  0  0  0  0  0  0
  139.3910   69.1840  224.0290 C   0  0  0  0  0  0  0  0  0  0  0  0
  139.7170   69.3570  225.4900 C   0  0  0  0  0  0  0  0  0  0  0  0
  139.3900   68.3210  226.3620 C   0  0  0  0  0  0  0  0  0  0  0  0
  139.6890   68.4710  227.7170 C   0  0  0  0  0  0  0  0  0  0  0  0
  140.2970   69.6350  228.1620 C   0  0  0  0  0  0  0  0  0  0  0  0
  140.6200   70.6680  227.2790 C   0  0  0  0  0  0  0  0  0  0  0  0
  140.3230   70.5130  225.9390 C   0  0  0  0  0  0  0  0  0  0  0  0
  140.6790   71.6360  225.0130 C   0  0  0  0  0  0  0  0  0  0  0  0
  140.8770   73.2740  222.3300 N   0  0  0  0  0  0  0  0  0  0  0  0
  141.0350   77.1090  222.7530 C   0  0  0  0  0  0  0  0  0  0  0  0
  140.9250   78.4390  223.2600 N   0  0  0  0  0  0  0  0  0  0  0  0
  142.1360   79.1520  223.3900 C   0  0  0  0  0  0  0  0  0  0  0  0
  141.8560   80.6020  223.7190 C   0  0  0  0  0  0  0  0  0  0  0  0
  141.1370   81.1480  222.5350 C   0  0  0  0  0  0  0  0  0  0  0  0
  141.4860   82.2970  221.8870 C   0  0  0  0  0  0  0  0  0  0  0  0
  140.7360   82.7060  220.7950 C   0  0  0  0  0  0  0  0  0  0  0  0
  139.6400   81.9510  220.3650 C   0  0  0  0  0  0  0  0  0  0  0  0
  139.2760   80.7780  221.0170 C   0  0  0  0  0  0  0  0  0  0  0  0
  140.0390   80.3940  222.1010 C   0  0  0  0  0  0  0  0  0  0  0  0
  139.7600   79.1620  222.8860 C   0  0  0  0  0  0  0  0  0  0  0  0
  139.5540   74.8340  222.9880 H   0  0  0  0  0  0  0  0  0  0  0  0
  138.4560   76.1230  223.4620 H   0  0  0  0  0  0  0  0  0  0  0  0
  139.2062   77.5191  221.7604 H   0  0  0  0  0  0  0  0  0  0  0  0
  139.5588   75.1895  220.4338 H   0  0  0  0  0  0  0  0  0  0  0  0
  140.5154   76.6587  219.9692 H   0  0  0  0  0  0  0  0  0  0  0  0
  142.4980   75.6740  221.0750 H   0  0  0  0  0  0  0  0  0  0  0  0
  140.3875   69.4549  219.7729 H   0  0  0  0  0  0  0  0  0  0  0  0
  140.9694   69.5773  218.0459 H   0  0  0  0  0  0  0  0  0  0  0  0
  141.7163   67.7198  220.1971 H   0  0  0  0  0  0  0  0  0  0  0  0
  141.6836   67.5376  218.3899 H   0  0  0  0  0  0  0  0  0  0  0  0
  143.7299   66.2562  219.5247 H   0  0  0  0  0  0  0  0  0  0  0  0
  146.2035   66.3489  219.4605 H   0  0  0  0  0  0  0  0  0  0  0  0
  147.3304   68.5185  219.0663 H   0  0  0  0  0  0  0  0  0  0  0  0
  145.9933   70.5776  218.7451 H   0  0  0  0  0  0  0  0  0  0  0  0
  143.8746   71.6617  219.2149 H   0  0  0  0  0  0  0  0  0  0  0  0
  143.2034   71.0580  217.6977 H   0  0  0  0  0  0  0  0  0  0  0  0
  138.1578   70.9657  224.2252 H   0  0  0  0  0  0  0  0  0  0  0  0
  138.5725   70.5801  222.5503 H   0  0  0  0  0  0  0  0  0  0  0  0
  138.5727   68.4615  223.8935 H   0  0  0  0  0  0  0  0  0  0  0  0
  140.2396   68.7932  223.4484 H   0  0  0  0  0  0  0  0  0  0  0  0
  138.9069   67.4051  225.9909 H   0  0  0  0  0  0  0  0  0  0  0  0
  139.4434   67.6692  228.4289 H   0  0  0  0  0  0  0  0  0  0  0  0
  140.5295   69.7471  229.2313 H   0  0  0  0  0  0  0  0  0  0  0  0
  141.1016   71.5872  227.6438 H   0  0  0  0  0  0  0  0  0  0  0  0
  140.2677   72.5750  225.4120 H   0  0  0  0  0  0  0  0  0  0  0  0
  141.7750   71.6949  224.9397 H   0  0  0  0  0  0  0  0  0  0  0  0
  141.1896   76.4277  223.6026 H   0  0  0  0  0  0  0  0  0  0  0  0
  141.8788   77.1086  222.0473 H   0  0  0  0  0  0  0  0  0  0  0  0
  142.7356   78.7056  224.1969 H   0  0  0  0  0  0  0  0  0  0  0  0
  142.6871   79.0996  222.4395 H   0  0  0  0  0  0  0  0  0  0  0  0
  141.2276   80.6775  224.6186 H   0  0  0  0  0  0  0  0  0  0  0  0
  142.7816   81.1590  223.9264 H   0  0  0  0  0  0  0  0  0  0  0  0
  142.3488   82.8894  222.2256 H   0  0  0  0  0  0  0  0  0  0  0  0
  141.0048   83.6306  220.2632 H   0  0  0  0  0  0  0  0  0  0  0  0
  139.0563   82.2907  219.4967 H   0  0  0  0  0  0  0  0  0  0  0  0
  138.4151   80.1806  220.6825 H   0  0  0  0  0  0  0  0  0  0  0  0
  139.2225   79.4495  223.8016 H   0  0  0  0  0  0  0  0  0  0  0  0
  139.1680   78.4989  222.2381 H   0  0  0  0  0  0  0  0  0  0  0  0
  1  2  1  0
  2  3  1  0
  3  4  1  0
  4  5  1  0
  5  6  2  0
  6  7  1  0
  7  8  1  0
  8  9  1  0
  9 10  1  0
 10 11  1  0
 11 12  2  0
 12 13  1  0
 13 14  2  0
 14 15  1  0
 15 16  2  0
 16 17  1  0
  7 18  2  0
 18 19  1  0
 19 20  1  0
 20 21  1  0
 21 22  1  0
 22 23  1  0
 23 24  2  0
 24 25  1  0
 25 26  2  0
 26 27  1  0
 27 28  2  0
 28 29  1  0
 19 30  2  0
  2 31  1  0
 31 32  1  0
 32 33  1  0
 33 34  1  0
 34 35  1  0
 35 36  2  0
 36 37  1  0
 37 38  2  0
 38 39  1  0
 39 40  2  0
 40 41  1  0
 30  5  1  0
 41 32  1  0
 17  8  1  0
 29 20  1  0
 40 35  1  0
 16 11  1  0
 28 23  1  0
  1 42  1  0
  1 43  1  0
  2 44  1  6
  3 45  1  0
  3 46  1  0
  4 47  1  0
  9 48  1  0
  9 49  1  0
 10 50  1  0
 10 51  1  0
 12 52  1  0
 13 53  1  0
 14 54  1  0
 15 55  1  0
 17 56  1  0
 17 57  1  0
 21 58  1  0
 21 59  1  0
 22 60  1  0
 22 61  1  0
 24 62  1  0
 25 63  1  0
 26 64  1  0
 27 65  1  0
 29 66  1  0
 29 67  1  0
 31 68  1  0
 31 69  1  0
 33 70  1  0
 33 71  1  0
 34 72  1  0
 34 73  1  0
 36 74  1  0
 37 75  1  0
 38 76  1  0
 39 77  1  0
 41 78  1  0
 41 79  1  0
M  END
>  <smiles>  (41) 
NC(CNc1nc(N2CCc3ccccc3C2)nc(N2CCc3ccccc3C2)n1)CN1CCc2ccccc2C1

>  <score_type>  (41) 
oracle

>  <origin>  (41) 
autodockgpu

>  <m_score__min__energy>  (41) 
-11.49

>  <m_primary>  (41) 
energy

>  <rmsd>  (41) 
10.534674511230598

>  <m_score__min__rmsd>  (41) 
10.534674511230598

>  <meeko>  (41) 
{"free_energy": -11.21, "intermolecular_energy": -13.59, "internal_energy": -2.05, "cluster_size": 11, "cluster_id": 1, "rank_in_cluster": 3}

>  <energy>  (41) 
-8.79

>  <cluster_rmsd>  (41) 
1.82

>  <cluster>  (41) 
7

$$$$

     RDKit          3D

 79 85  0  0  1  0  0  0  0  0999 V2000
  135.9560   71.1970  222.7950 N   0  0  0  0  0  0  0  0  0  0  0  0
  134.9020   71.6910  221.9410 C   0  0  2  0  0  0  0  0  0  0  0  0
  135.5870   72.2930  220.7330 C   0  0  0  0  0  0  0  0  0  0  0  0
  136.1810   73.5980  221.0400 N   0  0  0  0  0  0  0  0  0  0  0  0
  137.5240   73.5410  221.5560 C   0  0  0  0  0  0  0  0  0  0  0  0
  137.9920   72.4660  222.2170 N   0  0  0  0  0  0  0  0  0  0  0  0
  139.2650   72.4400  222.7030 C   0  0  0  0  0  0  0  0  0  0  0  0
  139.7830   71.3120  223.3990 N   0  0  0  0  0  0  0  0  0  0  0  0
  139.1950   70.0140  223.2760 C   0  0  0  0  0  0  0  0  0  0  0  0
  138.8080   69.4130  224.5820 C   0  0  0  0  0  0  0  0  0  0  0  0
  139.5410   70.0120  225.7070 C   0  0  0  0  0  0  0  0  0  0  0  0
  139.2210   69.5800  226.9820 C   0  0  0  0  0  0  0  0  0  0  0  0
  139.8480   70.0750  228.1170 C   0  0  0  0  0  0  0  0  0  0  0  0
  140.8220   71.0290  227.9720 C   0  0  0  0  0  0  0  0  0  0  0  0
  141.1720   71.4870  226.7260 C   0  0  0  0  0  0  0  0  0  0  0  0
  140.5200   70.9670  225.6040 C   0  0  0  0  0  0  0  0  0  0  0  0
  140.9360   71.5060  224.2600 C   0  0  0  0  0  0  0  0  0  0  0  0
  140.0590   73.4980  222.5210 N   0  0  0  0  0  0  0  0  0  0  0  0
  139.6220   74.5870  221.8650 C   0  0  0  0  0  0  0  0  0  0  0  0
  140.5150   75.6850  221.7030 N   0  0  0  0  0  0  0  0  0  0  0  0
  141.2820   75.7720  220.4760 C   0  0  0  0  0  0  0  0  0  0  0  0
  140.7760   77.0320  219.7650 C   0  0  0  0  0  0  0  0  0  0  0  0
  141.1880   78.1550  220.6810 C   0  0  0  0  0  0  0  0  0  0  0  0
  141.6090   79.3510  220.1040 C   0  0  0  0  0  0  0  0  0  0  0  0
  141.9910   80.3990  220.9440 C   0  0  0  0  0  0  0  0  0  0  0  0
  141.9460   80.2290  222.3190 C   0  0  0  0  0  0  0  0  0  0  0  0
  141.5220   79.0250  222.8880 C   0  0  0  0  0  0  0  0  0  0  0  0
  141.1440   77.9930  222.0510 C   0  0  0  0  0  0  0  0  0  0  0  0
  140.6940   76.7120  222.6860 C   0  0  0  0  0  0  0  0  0  0  0  0
  138.3650   74.6060  221.3890 N   0  0  0  0  0  0  0  0  0  0  0  0
  134.0990   72.7840  222.5980 C   0  0  0  0  0  0  0  0  0  0  0  0
  134.7230   73.3600  223.7450 N   0  0  0  0  0  0  0  0  0  0  0  0
  134.9540   74.7520  223.6880 C   0  0  0  0  0  0  0  0  0  0  0  0
  135.4060   75.2620  225.0390 C   0  0  0  0  0  0  0  0  0  0  0  0
  134.2560   75.0330  225.9570 C   0  0  0  0  0  0  0  0  0  0  0  0
  133.7280   75.9870  226.7780 C   0  0  0  0  0  0  0  0  0  0  0  0
  132.6560   75.6520  227.5920 C   0  0  0  0  0  0  0  0  0  0  0  0
  132.1260   74.3580  227.5710 C   0  0  0  0  0  0  0  0  0  0  0  0
  132.6570   73.3790  226.7370 C   0  0  0  0  0  0  0  0  0  0  0  0
  133.7230   73.7380  225.9380 C   0  0  0  0  0  0  0  0  0  0  0  0
  134.3820   72.7900  225.0020 C   0  0  0  0  0  0  0  0  0  0  0  0
  136.6820   70.6700  222.3040 H   0  0  0  0  0  0  0  0  0  0  0  0
  136.2730   71.8990  223.4920 H   0  0  0  0  0  0  0  0  0  0  0  0
  134.2156   70.8663  221.6987 H   0  0  0  0  0  0  0  0  0  0  0  0
  136.3811   71.6102  220.3966 H   0  0  0  0  0  0  0  0  0  0  0  0
  134.8312   72.4369  219.9468 H   0  0  0  0  0  0  0  0  0  0  0  0
  135.6730   74.4960  220.8950 H   0  0  0  0  0  0  0  0  0  0  0  0
  138.2943   70.0973  222.6501 H   0  0  0  0  0  0  0  0  0  0  0  0
  139.9537   69.3554  222.8280 H   0  0  0  0  0  0  0  0  0  0  0  0
  137.7303   69.5685  224.7382 H   0  0  0  0  0  0  0  0  0  0  0  0
  139.0568   68.3420  224.5483 H   0  0  0  0  0  0  0  0  0  0  0  0
  138.4396   68.8149  227.1006 H   0  0  0  0  0  0  0  0  0  0  0  0
  139.5683   69.7082  229.1156 H   0  0  0  0  0  0  0  0  0  0  0  0
  141.3277   71.4311  228.8623 H   0  0  0  0  0  0  0  0  0  0  0  0
  141.9541   72.2521  226.6121 H   0  0  0  0  0  0  0  0  0  0  0  0
  141.1871   72.5744  224.3337 H   0  0  0  0  0  0  0  0  0  0  0  0
  141.8300   70.9964  223.8713 H   0  0  0  0  0  0  0  0  0  0  0  0
  142.3554   75.8614  220.6992 H   0  0  0  0  0  0  0  0  0  0  0  0
  141.1579   74.8742  219.8527 H   0  0  0  0  0  0  0  0  0  0  0  0
  141.2474   77.1399  218.7770 H   0  0  0  0  0  0  0  0  0  0  0  0
  139.6915   77.0096  219.5825 H   0  0  0  0  0  0  0  0  0  0  0  0
  141.6398   79.4673  219.0106 H   0  0  0  0  0  0  0  0  0  0  0  0
  142.3262   81.3554  220.5164 H   0  0  0  0  0  0  0  0  0  0  0  0
  142.2500   81.0580  222.9751 H   0  0  0  0  0  0  0  0  0  0  0  0
  141.4899   78.9015  223.9806 H   0  0  0  0  0  0  0  0  0  0  0  0
  141.4522   76.3855  223.4130 H   0  0  0  0  0  0  0  0  0  0  0  0
  139.7305   76.8892  223.1862 H   0  0  0  0  0  0  0  0  0  0  0  0
  133.9325   73.5815  221.8589 H   0  0  0  0  0  0  0  0  0  0  0  0
  133.1629   72.3228  222.9458 H   0  0  0  0  0  0  0  0  0  0  0  0
  135.7342   74.9607  222.9412 H   0  0  0  0  0  0  0  0  0  0  0  0
  134.0197   75.2598  223.4067 H   0  0  0  0  0  0  0  0  0  0  0  0
  136.2898   74.7052  225.3839 H   0  0  0  0  0  0  0  0  0  0  0  0
  135.6909   76.3237  224.9995 H   0  0  0  0  0  0  0  0  0  0  0  0
  134.1456   77.0045  226.7939 H   0  0  0  0  0  0  0  0  0  0  0  0
  132.2194   76.4099  228.2591 H   0  0  0  0  0  0  0  0  0  0  0  0
  131.2761   74.1103  228.2240 H   0  0  0  0  0  0  0  0  0  0  0  0
  132.2436   72.3599  226.7155 H   0  0  0  0  0  0  0  0  0  0  0  0
  135.3037   72.4210  225.4757 H   0  0  0  0  0  0  0  0  0  0  0  0
  133.6577   71.9870  224.8008 H   0  0  0  0  0  0  0  0  0  0  0  0
  1  2  1  0
  2  3  1  0
  3  4  1  0
  4  5  1  0
  5  6  2  0
  6  7  1  0
  7  8  1  0
  8  9  1  0
  9 10  1  0
 10 11  1  0
 11 12  2  0
 12 13  1  0
 13 14  2  0
 14 15  1  0
 15 16  2  0
 16 17  1  0
  7 18  2  0
 18 19  1  0
 19 20  1  0
 20 21  1  0
 21 22  1  0
 22 23  1  0
 23 24  2  0
 24 25  1  0
 25 26  2  0
 26 27  1  0
 27 28  2  0
 28 29  1  0
 19 30  2  0
  2 31  1  0
 31 32  1  0
 32 33  1  0
 33 34  1  0
 34 35  1  0
 35 36  2  0
 36 37  1  0
 37 38  2  0
 38 39  1  0
 39 40  2  0
 40 41  1  0
 30  5  1  0
 41 32  1  0
 17  8  1  0
 29 20  1  0
 40 35  1  0
 16 11  1  0
 28 23  1  0
  1 42  1  0
  1 43  1  0
  2 44  1  6
  3 45  1  0
  3 46  1  0
  4 47  1  0
  9 48  1  0
  9 49  1  0
 10 50  1  0
 10 51  1  0
 12 52  1  0
 13 53  1  0
 14 54  1  0
 15 55  1  0
 17 56  1  0
 17 57  1  0
 21 58  1  0
 21 59  1  0
 22 60  1  0
 22 61  1  0
 24 62  1  0
 25 63  1  0
 26 64  1  0
 27 65  1  0
 29 66  1  0
 29 67  1  0
 31 68  1  0
 31 69  1  0
 33 70  1  0
 33 71  1  0
 34 72  1  0
 34 73  1  0
 36 74  1  0
 37 75  1  0
 38 76  1  0
 39 77  1  0
 41 78  1  0
 41 79  1  0
M  END
>  <smiles>  (42) 
NC(CNc1nc(N2CCc3ccccc3C2)nc(N2CCc3ccccc3C2)n1)CN1CCc2ccccc2C1

>  <score_type>  (42) 
oracle

>  <origin>  (42) 
autodockgpu

>  <m_score__min__energy>  (42) 
-11.49

>  <m_primary>  (42) 
energy

>  <rmsd>  (42) 
7.711645788501915

>  <m_score__min__rmsd>  (42) 
7.711645788501915

>  <meeko>  (42) 
{"free_energy": -9.56, "intermolecular_energy": -11.94, "internal_energy": -3.42, "cluster_size": 12, "cluster_id": 2, "rank_in_cluster": 7}

>  <energy>  (42) 
-8.15

>  <cluster_rmsd>  (42) 
1.71

>  <cluster>  (42) 
7

$$$$

     RDKit          3D

 79 85  0  0  1  0  0  0  0  0999 V2000
  137.7980   71.0120  221.3770 N   0  0  0  0  0  0  0  0  0  0  0  0
  136.7910   71.0390  222.4110 C   0  0  2  0  0  0  0  0  0  0  0  0
  136.6600   72.4860  222.8330 C   0  0  0  0  0  0  0  0  0  0  0  0
  136.7590   73.3980  221.6890 N   0  0  0  0  0  0  0  0  0  0  0  0
  137.9980   74.1260  221.6060 C   0  0  0  0  0  0  0  0  0  0  0  0
  138.0420   75.4700  221.6580 N   0  0  0  0  0  0  0  0  0  0  0  0
  139.2280   76.1380  221.5690 C   0  0  0  0  0  0  0  0  0  0  0  0
  139.3000   77.5570  221.6290 N   0  0  0  0  0  0  0  0  0  0  0  0
  139.2200   78.3670  220.4530 C   0  0  0  0  0  0  0  0  0  0  0  0
  140.3750   79.2920  220.2910 C   0  0  0  0  0  0  0  0  0  0  0  0
  141.0650   79.5460  221.5640 C   0  0  0  0  0  0  0  0  0  0  0  0
  142.1970   80.3410  221.5320 C   0  0  0  0  0  0  0  0  0  0  0  0
  142.9270   80.6490  222.6710 C   0  0  0  0  0  0  0  0  0  0  0  0
  142.5120   80.1460  223.8780 C   0  0  0  0  0  0  0  0  0  0  0  0
  141.3940   79.3520  223.9580 C   0  0  0  0  0  0  0  0  0  0  0  0
  140.6830   79.0620  222.7900 C   0  0  0  0  0  0  0  0  0  0  0  0
  139.4670   78.1830  222.9280 C   0  0  0  0  0  0  0  0  0  0  0  0
  140.3620   75.4460  221.4280 N   0  0  0  0  0  0  0  0  0  0  0  0
  140.3500   74.1030  221.3730 C   0  0  0  0  0  0  0  0  0  0  0  0
  141.5920   73.4200  221.2210 N   0  0  0  0  0  0  0  0  0  0  0  0
  141.6220   71.9890  221.4440 C   0  0  0  0  0  0  0  0  0  0  0  0
  141.9570   71.3680  220.0830 C   0  0  0  0  0  0  0  0  0  0  0  0
  143.3570   71.8490  219.8010 C   0  0  0  0  0  0  0  0  0  0  0  0
  144.2340   70.9750  219.1630 C   0  0  0  0  0  0  0  0  0  0  0  0
  145.5330   71.4120  218.8950 C   0  0  0  0  0  0  0  0  0  0  0  0
  145.9180   72.6900  219.2670 C   0  0  0  0  0  0  0  0  0  0  0  0
  145.0310   73.5590  219.9060 C   0  0  0  0  0  0  0  0  0  0  0  0
  143.7470   73.1220  220.1670 C   0  0  0  0  0  0  0  0  0  0  0  0
  142.8140   74.0730  220.8550 C   0  0  0  0  0  0  0  0  0  0  0  0
  139.1780   73.4520  221.4610 N   0  0  0  0  0  0  0  0  0  0  0  0
  137.1990   70.2480  223.6270 C   0  0  0  0  0  0  0  0  0  0  0  0
  138.6060   70.2200  223.8620 N   0  0  0  0  0  0  0  0  0  0  0  0
  139.2550   71.4740  223.8730 C   0  0  0  0  0  0  0  0  0  0  0  0
  140.6820   71.3200  224.3520 C   0  0  0  0  0  0  0  0  0  0  0  0
  140.5820   70.8520  225.7610 C   0  0  0  0  0  0  0  0  0  0  0  0
  141.2430   71.4250  226.8090 C   0  0  0  0  0  0  0  0  0  0  0  0
  141.0720   70.8970  228.0800 C   0  0  0  0  0  0  0  0  0  0  0  0
  140.2340   69.7960  228.2830 C   0  0  0  0  0  0  0  0  0  0  0  0
  139.5550   69.2040  227.2220 C   0  0  0  0  0  0  0  0  0  0  0  0
  139.7440   69.7500  225.9690 C   0  0  0  0  0  0  0  0  0  0  0  0
  139.0780   69.2160  224.7510 C   0  0  0  0  0  0  0  0  0  0  0  0
  137.8460   71.8660  220.8160 H   0  0  0  0  0  0  0  0  0  0  0  0
  138.6990   70.6110  221.7020 H   0  0  0  0  0  0  0  0  0  0  0  0
  135.8596   70.6030  222.0206 H   0  0  0  0  0  0  0  0  0  0  0  0
  135.6832   72.6283  223.3183 H   0  0  0  0  0  0  0  0  0  0  0  0
  137.4829   72.7159  223.5258 H   0  0  0  0  0  0  0  0  0  0  0  0
  135.9940   73.5100  220.9910 H   0  0  0  0  0  0  0  0  0  0  0  0
  139.1784   77.7046  219.5758 H   0  0  0  0  0  0  0  0  0  0  0  0
  138.3176   78.9888  220.5485 H   0  0  0  0  0  0  0  0  0  0  0  0
  141.0895   78.8462  219.5834 H   0  0  0  0  0  0  0  0  0  0  0  0
  139.9892   80.2523  219.9182 H   0  0  0  0  0  0  0  0  0  0  0  0
  142.5315   80.7449  220.5651 H   0  0  0  0  0  0  0  0  0  0  0  0
  143.8223   81.2850  222.6074 H   0  0  0  0  0  0  0  0  0  0  0  0
  143.0799   80.3808  224.7903 H   0  0  0  0  0  0  0  0  0  0  0  0
  141.0630   78.9502  224.9270 H   0  0  0  0  0  0  0  0  0  0  0  0
  139.6278   77.4215  223.7053 H   0  0  0  0  0  0  0  0  0  0  0  0
  138.5768   78.7567  223.2252 H   0  0  0  0  0  0  0  0  0  0  0  0
  142.3939   71.7316  222.1842 H   0  0  0  0  0  0  0  0  0  0  0  0
  140.6640   71.6175  221.8368 H   0  0  0  0  0  0  0  0  0  0  0  0
  141.9233   70.2697  220.1348 H   0  0  0  0  0  0  0  0  0  0  0  0
  141.2428   71.6560  219.2975 H   0  0  0  0  0  0  0  0  0  0  0  0
  143.9107   69.9633  218.8767 H   0  0  0  0  0  0  0  0  0  0  0  0
  146.2474   70.7446  218.3908 H   0  0  0  0  0  0  0  0  0  0  0  0
  146.9433   73.0270  219.0546 H   0  0  0  0  0  0  0  0  0  0  0  0
  145.3486   74.5715  220.1958 H   0  0  0  0  0  0  0  0  0  0  0  0
  143.3003   74.4607  221.7623 H   0  0  0  0  0  0  0  0  0  0  0  0
  142.5782   74.8947  220.1627 H   0  0  0  0  0  0  0  0  0  0  0  0
  136.7111   70.6923  224.5071 H   0  0  0  0  0  0  0  0  0  0  0  0
  136.8881   69.2084  223.4465 H   0  0  0  0  0  0  0  0  0  0  0  0
  139.2565   71.8913  222.8552 H   0  0  0  0  0  0  0  0  0  0  0  0
  138.7185   72.1497  224.5553 H   0  0  0  0  0  0  0  0  0  0  0  0
  141.2154   70.5793  223.7382 H   0  0  0  0  0  0  0  0  0  0  0  0
  141.2416   72.2639  224.2750 H   0  0  0  0  0  0  0  0  0  0  0  0
  141.9008   72.2918  226.6479 H   0  0  0  0  0  0  0  0  0  0  0  0
  141.5991   71.3473  228.9341 H   0  0  0  0  0  0  0  0  0  0  0  0
  140.1094   69.3911  229.2981 H   0  0  0  0  0  0  0  0  0  0  0  0
  138.8954   68.3373  227.3759 H   0  0  0  0  0  0  0  0  0  0  0  0
  139.7999   68.5867  224.2099 H   0  0  0  0  0  0  0  0  0  0  0  0
  138.1965   68.6530  225.0916 H   0  0  0  0  0  0  0  0  0  0  0  0
  1  2  1  0
  2  3  1  0
  3  4  1  0
  4  5  1  0
  5  6  2  0
  6  7  1  0
  7  8  1  0
  8  9  1  0
  9 10  1  0
 10 11  1  0
 11 12  2  0
 12 13  1  0
 13 14  2  0
 14 15  1  0
 15 16  2  0
 16 17  1  0
  7 18  2  0
 18 19  1  0
 19 20  1  0
 20 21  1  0
 21 22  1  0
 22 23  1  0
 23 24  2  0
 24 25  1  0
 25 26  2  0
 26 27  1  0
 27 28  2  0
 28 29  1  0
 19 30  2  0
  2 31  1  0
 31 32  1  0
 32 33  1  0
 33 34  1  0
 34 35  1  0
 35 36  2  0
 36 37  1  0
 37 38  2  0
 38 39  1  0
 39 40  2  0
 40 41  1  0
 30  5  1  0
 41 32  1  0
 17  8  1  0
 29 20  1  0
 40 35  1  0
 16 11  1  0
 28 23  1  0
  1 42  1  0
  1 43  1  0
  2 44  1  6
  3 45  1  0
  3 46  1  0
  4 47  1  0
  9 48  1  0
  9 49  1  0
 10 50  1  0
 10 51  1  0
 12 52  1  0
 13 53  1  0
 14 54  1  0
 15 55  1  0
 17 56  1  0
 17 57  1  0
 21 58  1  0
 21 59  1  0
 22 60  1  0
 22 61  1  0
 24 62  1  0
 25 63  1  0
 26 64  1  0
 27 65  1  0
 29 66  1  0
 29 67  1  0
 31 68  1  0
 31 69  1  0
 33 70  1  0
 33 71  1  0
 34 72  1  0
 34 73  1  0
 36 74  1  0
 37 75  1  0
 38 76  1  0
 39 77  1  0
 41 78  1  0
 41 79  1  0
M  END
>  <smiles>  (43) 
NC(CNc1nc(N2CCc3ccccc3C2)nc(N2CCc3ccccc3C2)n1)CN1CCc2ccccc2C1

>  <score_type>  (43) 
oracle

>  <origin>  (43) 
autodockgpu

>  <m_score__min__energy>  (43) 
-11.49

>  <m_primary>  (43) 
energy

>  <rmsd>  (43) 
4.2579879367340405

>  <m_score__min__rmsd>  (43) 
4.2579879367340405

>  <meeko>  (43) 
{"free_energy": -9.59, "intermolecular_energy": -11.97, "internal_energy": -3.11, "cluster_size": 9, "cluster_id": 7, "rank_in_cluster": 2}

>  <energy>  (43) 
-9.57

>  <cluster_rmsd>  (43) 
0.0

>  <cluster>  (43) 
8

$$$$

     RDKit          3D

 79 85  0  0  1  0  0  0  0  0999 V2000
  141.8480   75.3880  220.6460 N   0  0  0  0  0  0  0  0  0  0  0  0
  140.8190   74.8250  221.4870 C   0  0  2  0  0  0  0  0  0  0  0  0
  139.8170   74.1830  220.5530 C   0  0  0  0  0  0  0  0  0  0  0  0
  138.4450   74.3190  221.0510 N   0  0  0  0  0  0  0  0  0  0  0  0
  138.0730   73.3610  222.0590 C   0  0  0  0  0  0  0  0  0  0  0  0
  138.9240   72.4140  222.4950 N   0  0  0  0  0  0  0  0  0  0  0  0
  138.5460   71.5120  223.4450 C   0  0  0  0  0  0  0  0  0  0  0  0
  139.4300   70.5070  223.9250 N   0  0  0  0  0  0  0  0  0  0  0  0
  139.2150   69.1200  223.6540 C   0  0  0  0  0  0  0  0  0  0  0  0
  139.1600   68.2780  224.8810 C   0  0  0  0  0  0  0  0  0  0  0  0
  139.8190   68.9220  226.0260 C   0  0  0  0  0  0  0  0  0  0  0  0
  139.7780   68.2640  227.2420 C   0  0  0  0  0  0  0  0  0  0  0  0
  140.3660   68.7770  228.3900 C   0  0  0  0  0  0  0  0  0  0  0  0
  141.0160   69.9830  228.3170 C   0  0  0  0  0  0  0  0  0  0  0  0
  141.0820   70.6720  227.1310 C   0  0  0  0  0  0  0  0  0  0  0  0
  140.4780   70.1260  225.9950 C   0  0  0  0  0  0  0  0  0  0  0  0
  140.5740   70.9210  224.7190 C   0  0  0  0  0  0  0  0  0  0  0  0
  137.3110   71.5710  223.9510 N   0  0  0  0  0  0  0  0  0  0  0  0
  136.4370   72.5060  223.5360 C   0  0  0  0  0  0  0  0  0  0  0  0
  135.1340   72.5170  224.1120 N   0  0  0  0  0  0  0  0  0  0  0  0
  134.3740   71.2830  224.1200 C   0  0  0  0  0  0  0  0  0  0  0  0
  134.2210   70.9060  225.5970 C   0  0  0  0  0  0  0  0  0  0  0  0
  133.3670   72.0100  226.1660 C   0  0  0  0  0  0  0  0  0  0  0  0
  132.4240   71.6760  227.1350 C   0  0  0  0  0  0  0  0  0  0  0  0
  131.6290   72.6920  227.6700 C   0  0  0  0  0  0  0  0  0  0  0  0
  131.7910   73.9960  227.2280 C   0  0  0  0  0  0  0  0  0  0  0  0
  132.7400   74.3200  226.2550 C   0  0  0  0  0  0  0  0  0  0  0  0
  133.5240   73.3110  225.7310 C   0  0  0  0  0  0  0  0  0  0  0  0
  134.5330   73.6840  224.6870 C   0  0  0  0  0  0  0  0  0  0  0  0
  136.8170   73.3900  222.5990 N   0  0  0  0  0  0  0  0  0  0  0  0
  140.0890   75.8780  222.2810 C   0  0  0  0  0  0  0  0  0  0  0  0
  140.1370   77.1830  221.7050 N   0  0  0  0  0  0  0  0  0  0  0  0
  139.0180   78.0080  221.9520 C   0  0  0  0  0  0  0  0  0  0  0  0
  139.2960   79.4200  221.4830 C   0  0  0  0  0  0  0  0  0  0  0  0
  140.4150   79.9100  222.3340 C   0  0  0  0  0  0  0  0  0  0  0  0
  140.4040   81.0980  223.0070 C   0  0  0  0  0  0  0  0  0  0  0  0
  141.5090   81.4470  223.7680 C   0  0  0  0  0  0  0  0  0  0  0  0
  142.6150   80.5970  223.8440 C   0  0  0  0  0  0  0  0  0  0  0  0
  142.6380   79.3840  223.1630 C   0  0  0  0  0  0  0  0  0  0  0  0
  141.5250   79.0610  222.4130 C   0  0  0  0  0  0  0  0  0  0  0  0
  141.4170   77.7960  221.6370 C   0  0  0  0  0  0  0  0  0  0  0  0
  141.5440   76.1890  220.0900 H   0  0  0  0  0  0  0  0  0  0  0  0
  142.7640   75.4710  221.1310 H   0  0  0  0  0  0  0  0  0  0  0  0
  141.2775   74.1228  222.1988 H   0  0  0  0  0  0  0  0  0  0  0  0
  139.8879   74.6667  219.5676 H   0  0  0  0  0  0  0  0  0  0  0  0
  140.0515   73.1105  220.4843 H   0  0  0  0  0  0  0  0  0  0  0  0
  137.7900   75.0510  220.7040 H   0  0  0  0  0  0  0  0  0  0  0  0
  138.2617   69.0139  223.1156 H   0  0  0  0  0  0  0  0  0  0  0  0
  140.0709   68.7696  223.0585 H   0  0  0  0  0  0  0  0  0  0  0  0
  138.1063   68.0930  225.1368 H   0  0  0  0  0  0  0  0  0  0  0  0
  139.6916   67.3384  224.6700 H   0  0  0  0  0  0  0  0  0  0  0  0
  139.2589   67.2960  227.3016 H   0  0  0  0  0  0  0  0  0  0  0  0
  140.3118   68.2267  229.3409 H   0  0  0  0  0  0  0  0  0  0  0  0
  141.4889   70.4021  229.2174 H   0  0  0  0  0  0  0  0  0  0  0  0
  141.6026   71.6394  227.0758 H   0  0  0  0  0  0  0  0  0  0  0  0
  140.5260   71.9992  224.9318 H   0  0  0  0  0  0  0  0  0  0  0  0
  141.5244   70.7432  224.1944 H   0  0  0  0  0  0  0  0  0  0  0  0
  133.3875   71.4361  223.6581 H   0  0  0  0  0  0  0  0  0  0  0  0
  134.8768   70.4904  223.5465 H   0  0  0  0  0  0  0  0  0  0  0  0
  133.7221   69.9313  225.7025 H   0  0  0  0  0  0  0  0  0  0  0  0
  135.1879   70.8089  226.1125 H   0  0  0  0  0  0  0  0  0  0  0  0
  132.3080   70.6352  227.4714 H   0  0  0  0  0  0  0  0  0  0  0  0
  130.8776   72.4586  228.4387 H   0  0  0  0  0  0  0  0  0  0  0  0
  131.1600   74.7912  227.6516 H   0  0  0  0  0  0  0  0  0  0  0  0
  132.8603   75.3585  225.9130 H   0  0  0  0  0  0  0  0  0  0  0  0
  134.0335   74.2592  223.8935 H   0  0  0  0  0  0  0  0  0  0  0  0
  135.3217   74.2860  225.1618 H   0  0  0  0  0  0  0  0  0  0  0  0
  139.0344   75.5769  222.3657 H   0  0  0  0  0  0  0  0  0  0  0  0
  140.5929   75.9443  223.2565 H   0  0  0  0  0  0  0  0  0  0  0  0
  138.1468   77.6103  221.4108 H   0  0  0  0  0  0  0  0  0  0  0  0
  138.8142   78.0224  223.0329 H   0  0  0  0  0  0  0  0  0  0  0  0
  139.5901   79.4219  220.4230 H   0  0  0  0  0  0  0  0  0  0  0  0
  138.4064   80.0611  221.5705 H   0  0  0  0  0  0  0  0  0  0  0  0
  139.5329   81.7670  222.9464 H   0  0  0  0  0  0  0  0  0  0  0  0
  141.5149   82.4006  224.3162 H   0  0  0  0  0  0  0  0  0  0  0  0
  143.4825   80.8918  224.4527 H   0  0  0  0  0  0  0  0  0  0  0  0
  143.5062   78.7109  223.2198 H   0  0  0  0  0  0  0  0  0  0  0  0
  141.6389   78.0172  220.5825 H   0  0  0  0  0  0  0  0  0  0  0  0
  142.1324   77.0884  222.0813 H   0  0  0  0  0  0  0  0  0  0  0  0
  1  2  1  0
  2  3  1  0
  3  4  1  0
  4  5  1  0
  5  6  2  0
  6  7  1  0
  7  8  1  0
  8  9  1  0
  9 10  1  0
 10 11  1  0
 11 12  2  0
 12 13  1  0
 13 14  2  0
 14 15  1  0
 15 16  2  0
 16 17  1  0
  7 18  2  0
 18 19  1  0
 19 20  1  0
 20 21  1  0
 21 22  1  0
 22 23  1  0
 23 24  2  0
 24 25  1  0
 25 26  2  0
 26 27  1  0
 27 28  2  0
 28 29  1  0
 19 30  2  0
  2 31  1  0
 31 32  1  0
 32 33  1  0
 33 34  1  0
 34 35  1  0
 35 36  2  0
 36 37  1  0
 37 38  2  0
 38 39  1  0
 39 40  2  0
 40 41  1  0
 30  5  1  0
 41 32  1  0
 17  8  1  0
 29 20  1  0
 40 35  1  0
 16 11  1  0
 28 23  1  0
  1 42  1  0
  1 43  1  0
  2 44  1  1
  3 45  1  0
  3 46  1  0
  4 47  1  0
  9 48  1  0
  9 49  1  0
 10 50  1  0
 10 51  1  0
 12 52  1  0
 13 53  1  0
 14 54  1  0
 15 55  1  0
 17 56  1  0
 17 57  1  0
 21 58  1  0
 21 59  1  0
 22 60  1  0
 22 61  1  0
 24 62  1  0
 25 63  1  0
 26 64  1  0
 27 65  1  0
 29 66  1  0
 29 67  1  0
 31 68  1  0
 31 69  1  0
 33 70  1  0
 33 71  1  0
 34 72  1  0
 34 73  1  0
 36 74  1  0
 37 75  1  0
 38 76  1  0
 39 77  1  0
 41 78  1  0
 41 79  1  0
M  END
>  <smiles>  (44) 
NC(CNc1nc(N2CCc3ccccc3C2)nc(N2CCc3ccccc3C2)n1)CN1CCc2ccccc2C1

>  <score_type>  (44) 
oracle

>  <origin>  (44) 
autodockgpu

>  <m_score__min__energy>  (44) 
-11.49

>  <m_primary>  (44) 
energy

>  <rmsd>  (44) 
9.69394915121754

>  <m_score__min__rmsd>  (44) 
9.69394915121754

>  <meeko>  (44) 
{"free_energy": -10.43, "intermolecular_energy": -12.81, "internal_energy": -1.52, "cluster_size": 12, "cluster_id": 2, "rank_in_cluster": 3}

>  <energy>  (44) 
-9.4

>  <cluster_rmsd>  (44) 
0.0

>  <cluster>  (44) 
9

$$$$

     RDKit          3D

 79 85  0  0  1  0  0  0  0  0999 V2000
  140.3450   70.1840  220.5040 N   0  0  0  0  0  0  0  0  0  0  0  0
  139.4200   70.2820  221.6080 C   0  0  2  0  0  0  0  0  0  0  0  0
  138.5330   71.4710  221.3110 C   0  0  0  0  0  0  0  0  0  0  0  0
  138.8300   72.6050  222.1920 N   0  0  0  0  0  0  0  0  0  0  0  0
  139.8960   73.4580  221.7360 C   0  0  0  0  0  0  0  0  0  0  0  0
  141.0380   72.9640  221.2230 N   0  0  0  0  0  0  0  0  0  0  0  0
  142.0370   73.7930  220.8050 C   0  0  0  0  0  0  0  0  0  0  0  0
  143.2500   73.2940  220.2540 N   0  0  0  0  0  0  0  0  0  0  0  0
  143.8980   73.9340  219.1520 C   0  0  0  0  0  0  0  0  0  0  0  0
  144.1430   73.0260  217.9990 C   0  0  0  0  0  0  0  0  0  0  0  0
  144.1420   71.6100  218.3970 C   0  0  0  0  0  0  0  0  0  0  0  0
  144.2950   70.6650  217.3990 C   0  0  0  0  0  0  0  0  0  0  0  0
  144.3100   69.3010  217.6590 C   0  0  0  0  0  0  0  0  0  0  0  0
  144.1680   68.8730  218.9540 C   0  0  0  0  0  0  0  0  0  0  0  0
  144.0130   69.7760  219.9760 C   0  0  0  0  0  0  0  0  0  0  0  0
  144.0030   71.1420  219.6790 C   0  0  0  0  0  0  0  0  0  0  0  0
  143.8250   72.0930  220.8340 C   0  0  0  0  0  0  0  0  0  0  0  0
  141.8780   75.1150  220.9070 N   0  0  0  0  0  0  0  0  0  0  0  0
  140.7490   75.6400  221.4150 C   0  0  0  0  0  0  0  0  0  0  0  0
  140.6380   77.0570  221.4990 N   0  0  0  0  0  0  0  0  0  0  0  0
  139.3250   77.6340  221.7100 C   0  0  0  0  0  0  0  0  0  0  0  0
  139.3850   78.2940  223.0920 C   0  0  0  0  0  0  0  0  0  0  0  0
  140.3860   79.4070  222.9180 C   0  0  0  0  0  0  0  0  0  0  0  0
  140.1560   80.6060  223.5880 C   0  0  0  0  0  0  0  0  0  0  0  0
  141.0780   81.6440  223.4350 C   0  0  0  0  0  0  0  0  0  0  0  0
  142.1900   81.4610  222.6270 C   0  0  0  0  0  0  0  0  0  0  0  0
  142.4120   80.2540  221.9600 C   0  0  0  0  0  0  0  0  0  0  0  0
  141.4960   79.2310  222.1160 C   0  0  0  0  0  0  0  0  0  0  0  0
  141.7560   77.9470  221.3890 C   0  0  0  0  0  0  0  0  0  0  0  0
  139.7690   74.8160  221.8250 N   0  0  0  0  0  0  0  0  0  0  0  0
  140.1180   70.5530  222.9170 C   0  0  0  0  0  0  0  0  0  0  0  0
  139.3530   70.2070  224.0710 N   0  0  0  0  0  0  0  0  0  0  0  0
  139.1350   68.8270  224.2760 C   0  0  0  0  0  0  0  0  0  0  0  0
  138.5140   68.5930  225.6360 C   0  0  0  0  0  0  0  0  0  0  0  0
  139.5340   69.0390  226.6230 C   0  0  0  0  0  0  0  0  0  0  0  0
  139.9550   68.2910  227.6840 C   0  0  0  0  0  0  0  0  0  0  0  0
  140.9120   68.8170  228.5380 C   0  0  0  0  0  0  0  0  0  0  0  0
  141.4370   70.0930  228.3150 C   0  0  0  0  0  0  0  0  0  0  0  0
  141.0160   70.8650  227.2370 C   0  0  0  0  0  0  0  0  0  0  0  0
  140.0620   70.3170  226.4020 C   0  0  0  0  0  0  0  0  0  0  0  0
  139.5270   71.0330  225.2140 C   0  0  0  0  0  0  0  0  0  0  0  0
  140.9190   71.0180  220.3630 H   0  0  0  0  0  0  0  0  0  0  0  0
  140.8300   69.2660  220.4640 H   0  0  0  0  0  0  0  0  0  0  0  0
  138.8730   69.3327  221.7064 H   0  0  0  0  0  0  0  0  0  0  0  0
  138.6898   71.7804  220.2671 H   0  0  0  0  0  0  0  0  0  0  0  0
  137.4888   71.1698  221.4813 H   0  0  0  0  0  0  0  0  0  0  0  0
  138.3110   72.7800  223.0770 H   0  0  0  0  0  0  0  0  0  0  0  0
  143.2647   74.7664  218.8113 H   0  0  0  0  0  0  0  0  0  0  0  0
  144.8806   74.2764  219.5088 H   0  0  0  0  0  0  0  0  0  0  0  0
  143.3534   73.1839  217.2497 H   0  0  0  0  0  0  0  0  0  0  0  0
  145.1364   73.2609  217.5892 H   0  0  0  0  0  0  0  0  0  0  0  0
  144.4092   71.0068  216.3597 H   0  0  0  0  0  0  0  0  0  0  0  0
  144.4336   68.5766  216.8405 H   0  0  0  0  0  0  0  0  0  0  0  0
  144.1784   67.7957  219.1759 H   0  0  0  0  0  0  0  0  0  0  0  0
  143.8983   69.4298  221.0138 H   0  0  0  0  0  0  0  0  0  0  0  0
  143.1456   71.6642  221.5854 H   0  0  0  0  0  0  0  0  0  0  0  0
  144.7760   72.2991  221.3469 H   0  0  0  0  0  0  0  0  0  0  0  0
  139.1054   78.3834  220.9353 H   0  0  0  0  0  0  0  0  0  0  0  0
  138.5316   76.8741  221.6548 H   0  0  0  0  0  0  0  0  0  0  0  0
  138.4009   78.6937  223.3780 H   0  0  0  0  0  0  0  0  0  0  0  0
  139.6681   77.5888  223.8873 H   0  0  0  0  0  0  0  0  0  0  0  0
  139.2675   80.7329  224.2239 H   0  0  0  0  0  0  0  0  0  0  0  0
  140.9228   82.6019  223.9529 H   0  0  0  0  0  0  0  0  0  0  0  0
  142.9117   82.2828  222.5090 H   0  0  0  0  0  0  0  0  0  0  0  0
  143.2987   80.1203  221.3229 H   0  0  0  0  0  0  0  0  0  0  0  0
  141.9378   78.1661  220.3265 H   0  0  0  0  0  0  0  0  0  0  0  0
  142.6346   77.4620  221.8393 H   0  0  0  0  0  0  0  0  0  0  0  0
  141.0525   69.9730  222.9361 H   0  0  0  0  0  0  0  0  0  0  0  0
  140.2888   71.6386  222.9651 H   0  0  0  0  0  0  0  0  0  0  0  0
  138.4581   68.4463  223.4970 H   0  0  0  0  0  0  0  0  0  0  0  0
  140.0991   68.2997  224.2258 H   0  0  0  0  0  0  0  0  0  0  0  0
  137.5917   69.1827  225.7437 H   0  0  0  0  0  0  0  0  0  0  0  0
  138.2397   67.5379  225.7824 H   0  0  0  0  0  0  0  0  0  0  0  0
  139.5416   67.2867  227.8588 H   0  0  0  0  0  0  0  0  0  0  0  0
  141.2608   68.2257  229.3975 H   0  0  0  0  0  0  0  0  0  0  0  0
  142.1957   70.4935  229.0034 H   0  0  0  0  0  0  0  0  0  0  0  0
  141.4258   71.8699  227.0571 H   0  0  0  0  0  0  0  0  0  0  0  0
  138.5509   71.4644  225.4808 H   0  0  0  0  0  0  0  0  0  0  0  0
  140.2689   71.7987  224.9432 H   0  0  0  0  0  0  0  0  0  0  0  0
  1  2  1  0
  2  3  1  0
  3  4  1  0
  4  5  1  0
  5  6  2  0
  6  7  1  0
  7  8  1  0
  8  9  1  0
  9 10  1  0
 10 11  1  0
 11 12  2  0
 12 13  1  0
 13 14  2  0
 14 15  1  0
 15 16  2  0
 16 17  1  0
  7 18  2  0
 18 19  1  0
 19 20  1  0
 20 21  1  0
 21 22  1  0
 22 23  1  0
 23 24  2  0
 24 25  1  0
 25 26  2  0
 26 27  1  0
 27 28  2  0
 28 29  1  0
 19 30  2  0
  2 31  1  0
 31 32  1  0
 32 33  1  0
 33 34  1  0
 34 35  1  0
 35 36  2  0
 36 37  1  0
 37 38  2  0
 38 39  1  0
 39 40  2  0
 40 41  1  0
 30  5  1  0
 41 32  1  0
 17  8  1  0
 29 20  1  0
 40 35  1  0
 16 11  1  0
 28 23  1  0
  1 42  1  0
  1 43  1  0
  2 44  1  1
  3 45  1  0
  3 46  1  0
  4 47  1  0
  9 48  1  0
  9 49  1  0
 10 50  1  0
 10 51  1  0
 12 52  1  0
 13 53  1  0
 14 54  1  0
 15 55  1  0
 17 56  1  0
 17 57  1  0
 21 58  1  0
 21 59  1  0
 22 60  1  0
 22 61  1  0
 24 62  1  0
 25 63  1  0
 26 64  1  0
 27 65  1  0
 29 66  1  0
 29 67  1  0
 31 68  1  0
 31 69  1  0
 33 70  1  0
 33 71  1  0
 34 72  1  0
 34 73  1  0
 36 74  1  0
 37 75  1  0
 38 76  1  0
 39 77  1  0
 41 78  1  0
 41 79  1  0
M  END
>  <smiles>  (45) 
NC(CNc1nc(N2CCc3ccccc3C2)nc(N2CCc3ccccc3C2)n1)CN1CCc2ccccc2C1

>  <score_type>  (45) 
oracle

>  <origin>  (45) 
autodockgpu

>  <m_score__min__energy>  (45) 
-11.49

>  <m_primary>  (45) 
energy

>  <rmsd>  (45) 
4.24720218662551

>  <m_score__min__rmsd>  (45) 
4.24720218662551

>  <meeko>  (45) 
{"free_energy": -9.31, "intermolecular_energy": -11.7, "internal_energy": -2.31, "cluster_size": 2, "cluster_id": 10, "rank_in_cluster": 2}

>  <energy>  (45) 
-9.35

>  <cluster_rmsd>  (45) 
0.0

>  <cluster>  (45) 
10

$$$$

     RDKit          3D

 79 85  0  0  1  0  0  0  0  0999 V2000
  136.5220   75.0760  223.5020 N   0  0  0  0  0  0  0  0  0  0  0  0
  135.2820   75.4560  222.8670 C   0  0  2  0  0  0  0  0  0  0  0  0
  135.1130   74.5310  221.6830 C   0  0  0  0  0  0  0  0  0  0  0  0
  136.2100   74.6740  220.7200 N   0  0  0  0  0  0  0  0  0  0  0  0
  137.5210   74.4220  221.2600 C   0  0  0  0  0  0  0  0  0  0  0  0
  137.8760   73.2190  221.7460 N   0  0  0  0  0  0  0  0  0  0  0  0
  139.1210   73.0070  222.2590 C   0  0  0  0  0  0  0  0  0  0  0  0
  139.5200   71.7420  222.7730 N   0  0  0  0  0  0  0  0  0  0  0  0
  138.7660   70.5540  222.5220 C   0  0  0  0  0  0  0  0  0  0  0  0
  138.3620   69.8350  223.7610 C   0  0  0  0  0  0  0  0  0  0  0  0
  139.2140   70.1840  224.9080 C   0  0  0  0  0  0  0  0  0  0  0  0
  138.8980   69.6280  226.1340 C   0  0  0  0  0  0  0  0  0  0  0  0
  139.6320   69.8860  227.2830 C   0  0  0  0  0  0  0  0  0  0  0  0
  140.7130   70.7250  227.2020 C   0  0  0  0  0  0  0  0  0  0  0  0
  141.0650   71.3010  226.0060 C   0  0  0  0  0  0  0  0  0  0  0  0
  140.3030   71.0190  224.8680 C   0  0  0  0  0  0  0  0  0  0  0  0
  140.7250   71.6780  223.5810 C   0  0  0  0  0  0  0  0  0  0  0  0
  140.0020   74.0110  222.2780 N   0  0  0  0  0  0  0  0  0  0  0  0
  139.6780   75.2250  221.7990 C   0  0  0  0  0  0  0  0  0  0  0  0
  140.6600   76.2570  221.8470 N   0  0  0  0  0  0  0  0  0  0  0  0
  141.4620   76.4990  220.6640 C   0  0  0  0  0  0  0  0  0  0  0  0
  141.0760   77.9030  220.1880 C   0  0  0  0  0  0  0  0  0  0  0  0
  141.5530   78.8060  221.2960 C   0  0  0  0  0  0  0  0  0  0  0  0
  142.0820   80.0470  220.9500 C   0  0  0  0  0  0  0  0  0  0  0  0
  142.5260   80.8910  221.9690 C   0  0  0  0  0  0  0  0  0  0  0  0
  142.4330   80.4810  223.2900 C   0  0  0  0  0  0  0  0  0  0  0  0
  141.9000   79.2340  223.6270 C   0  0  0  0  0  0  0  0  0  0  0  0
  141.4620   78.4040  222.6140 C   0  0  0  0  0  0  0  0  0  0  0  0
  140.8960   77.0710  223.0020 C   0  0  0  0  0  0  0  0  0  0  0  0
  138.4480   75.4260  221.2960 N   0  0  0  0  0  0  0  0  0  0  0  0
  135.3190   76.8670  222.3390 C   0  0  0  0  0  0  0  0  0  0  0  0
  136.6080   77.2930  221.8970 N   0  0  0  0  0  0  0  0  0  0  0  0
  136.6470   77.9520  220.6500 C   0  0  0  0  0  0  0  0  0  0  0  0
  138.0200   78.5420  220.4120 C   0  0  0  0  0  0  0  0  0  0  0  0
  138.2010   79.5710  221.4720 C   0  0  0  0  0  0  0  0  0  0  0  0
  138.5970   80.8560  221.2340 C   0  0  0  0  0  0  0  0  0  0  0  0
  138.7330   81.7250  222.3060 C   0  0  0  0  0  0  0  0  0  0  0  0
  138.4680   81.2910  223.6090 C   0  0  0  0  0  0  0  0  0  0  0  0
  138.0630   79.9840  223.8620 C   0  0  0  0  0  0  0  0  0  0  0  0
  137.9370   79.1400  222.7780 C   0  0  0  0  0  0  0  0  0  0  0  0
  137.5110   77.7210  222.9080 C   0  0  0  0  0  0  0  0  0  0  0  0
  136.6680   74.0660  223.5630 H   0  0  0  0  0  0  0  0  0  0  0  0
  137.3280   75.6510  223.1880 H   0  0  0  0  0  0  0  0  0  0  0  0
  134.4655   75.3911  223.6012 H   0  0  0  0  0  0  0  0  0  0  0  0
  135.0886   73.4920  222.0434 H   0  0  0  0  0  0  0  0  0  0  0  0
  134.1742   74.7947  221.1740 H   0  0  0  0  0  0  0  0  0  0  0  0
  136.0540   74.9370  219.7250 H   0  0  0  0  0  0  0  0  0  0  0  0
  137.8571   70.8292  221.9669 H   0  0  0  0  0  0  0  0  0  0  0  0
  139.4142   69.8740  221.9498 H   0  0  0  0  0  0  0  0  0  0  0  0
  137.3210   70.0980  223.9999 H   0  0  0  0  0  0  0  0  0  0  0  0
  138.4696   68.7560  223.5760 H   0  0  0  0  0  0  0  0  0  0  0  0
  138.0307   68.9547  226.2011 H   0  0  0  0  0  0  0  0  0  0  0  0
  139.3514   69.4255  228.2417 H   0  0  0  0  0  0  0  0  0  0  0  0
  141.3046   70.9391  228.1043 H   0  0  0  0  0  0  0  0  0  0  0  0
  141.9330   71.9738  225.9442 H   0  0  0  0  0  0  0  0  0  0  0  0
  141.1138   72.6886  223.7745 H   0  0  0  0  0  0  0  0  0  0  0  0
  141.5284   71.1201  223.0776 H   0  0  0  0  0  0  0  0  0  0  0  0
  142.5332   76.4577  220.9107 H   0  0  0  0  0  0  0  0  0  0  0  0
  141.2826   75.7411  219.8873 H   0  0  0  0  0  0  0  0  0  0  0  0
  141.5789   78.1470  219.2406 H   0  0  0  0  0  0  0  0  0  0  0  0
  139.9979   78.0033  219.9938 H   0  0  0  0  0  0  0  0  0  0  0  0
  142.1485   80.3553  219.8962 H   0  0  0  0  0  0  0  0  0  0  0  0
  142.9479   81.8772  221.7250 H   0  0  0  0  0  0  0  0  0  0  0  0
  142.7857   81.1504  224.0885 H   0  0  0  0  0  0  0  0  0  0  0  0
  141.8307   78.9196  224.6788 H   0  0  0  0  0  0  0  0  0  0  0  0
  141.6079   76.5572  223.6647 H   0  0  0  0  0  0  0  0  0  0  0  0
  139.9379   77.2339  223.5173 H   0  0  0  0  0  0  0  0  0  0  0  0
  134.6230   76.9359  221.4900 H   0  0  0  0  0  0  0  0  0  0  0  0
  135.0382   77.5247  223.1748 H   0  0  0  0  0  0  0  0  0  0  0  0
  136.4180   77.2313  219.8511 H   0  0  0  0  0  0  0  0  0  0  0  0
  135.9036   78.7628  220.6497 H   0  0  0  0  0  0  0  0  0  0  0  0
  138.7926   77.7635  220.4962 H   0  0  0  0  0  0  0  0  0  0  0  0
  138.1088   78.9746  219.4045 H   0  0  0  0  0  0  0  0  0  0  0  0
  138.8047   81.1962  220.2087 H   0  0  0  0  0  0  0  0  0  0  0  0
  139.0516   82.7631  222.1304 H   0  0  0  0  0  0  0  0  0  0  0  0
  138.5816   81.9942  224.4472 H   0  0  0  0  0  0  0  0  0  0  0  0
  137.8519   79.6379  224.8846 H   0  0  0  0  0  0  0  0  0  0  0  0
  138.4075   77.0853  222.8626 H   0  0  0  0  0  0  0  0  0  0  0  0
  136.9788   77.6353  223.8668 H   0  0  0  0  0  0  0  0  0  0  0  0
  1  2  1  0
  2  3  1  0
  3  4  1  0
  4  5  1  0
  5  6  2  0
  6  7  1  0
  7  8  1  0
  8  9  1  0
  9 10  1  0
 10 11  1  0
 11 12  2  0
 12 13  1  0
 13 14  2  0
 14 15  1  0
 15 16  2  0
 16 17  1  0
  7 18  2  0
 18 19  1  0
 19 20  1  0
 20 21  1  0
 21 22  1  0
 22 23  1  0
 23 24  2  0
 24 25  1  0
 25 26  2  0
 26 27  1  0
 27 28  2  0
 28 29  1  0
 19 30  2  0
  2 31  1  0
 31 32  1  0
 32 33  1  0
 33 34  1  0
 34 35  1  0
 35 36  2  0
 36 37  1  0
 37 38  2  0
 38 39  1  0
 39 40  2  0
 40 41  1  0
 30  5  1  0
 41 32  1  0
 17  8  1  0
 29 20  1  0
 40 35  1  0
 16 11  1  0
 28 23  1  0
  1 42  1  0
  1 43  1  0
  2 44  1  1
  3 45  1  0
  3 46  1  0
  4 47  1  0
  9 48  1  0
  9 49  1  0
 10 50  1  0
 10 51  1  0
 12 52  1  0
 13 53  1  0
 14 54  1  0
 15 55  1  0
 17 56  1  0
 17 57  1  0
 21 58  1  0
 21 59  1  0
 22 60  1  0
 22 61  1  0
 24 62  1  0
 25 63  1  0
 26 64  1  0
 27 65  1  0
 29 66  1  0
 29 67  1  0
 31 68  1  0
 31 69  1  0
 33 70  1  0
 33 71  1  0
 34 72  1  0
 34 73  1  0
 36 74  1  0
 37 75  1  0
 38 76  1  0
 39 77  1  0
 41 78  1  0
 41 79  1  0
M  END
>  <smiles>  (46) 
NC(CNc1nc(N2CCc3ccccc3C2)nc(N2CCc3ccccc3C2)n1)CN1CCc2ccccc2C1

>  <score_type>  (46) 
oracle

>  <origin>  (46) 
autodockgpu

>  <m_score__min__energy>  (46) 
-11.49

>  <m_primary>  (46) 
energy

>  <rmsd>  (46) 
10.116493984018526

>  <m_score__min__rmsd>  (46) 
10.116493984018526

>  <meeko>  (46) 
{"free_energy": -8.74, "intermolecular_energy": -11.13, "internal_energy": -4.56, "cluster_size": 3, "cluster_id": 12, "rank_in_cluster": 1}

>  <energy>  (46) 
-9.31

>  <cluster_rmsd>  (46) 
1.23

>  <cluster>  (46) 
10

$$$$

     RDKit          3D

 79 85  0  0  1  0  0  0  0  0999 V2000
  136.2990   75.0940  223.6280 N   0  0  0  0  0  0  0  0  0  0  0  0
  135.3450   75.5920  222.6660 C   0  0  2  0  0  0  0  0  0  0  0  0
  135.6950   74.9370  221.3480 C   0  0  0  0  0  0  0  0  0  0  0  0
  136.1940   73.5720  221.5350 N   0  0  0  0  0  0  0  0  0  0  0  0
  137.5840   73.4840  221.9000 C   0  0  0  0  0  0  0  0  0  0  0  0
  138.0970   72.3970  222.5060 N   0  0  0  0  0  0  0  0  0  0  0  0
  139.4160   72.3410  222.8490 C   0  0  0  0  0  0  0  0  0  0  0  0
  139.9810   71.2010  223.4850 N   0  0  0  0  0  0  0  0  0  0  0  0
  139.5350   69.8750  223.1920 C   0  0  0  0  0  0  0  0  0  0  0  0
  139.1000   69.1150  224.3970 C   0  0  0  0  0  0  0  0  0  0  0  0
  139.6740   69.6640  225.6350 C   0  0  0  0  0  0  0  0  0  0  0  0
  139.2920   69.0820  226.8300 C   0  0  0  0  0  0  0  0  0  0  0  0
  139.7700   69.5160  228.0590 C   0  0  0  0  0  0  0  0  0  0  0  0
  140.6550   70.5630  228.0910 C   0  0  0  0  0  0  0  0  0  0  0  0
  141.0620   71.1720  226.9290 C   0  0  0  0  0  0  0  0  0  0  0  0
  140.5610   70.7080  225.7090 C   0  0  0  0  0  0  0  0  0  0  0  0
  141.0330   71.4110  224.4640 C   0  0  0  0  0  0  0  0  0  0  0  0
  140.2090   73.3810  222.5780 N   0  0  0  0  0  0  0  0  0  0  0  0
  139.7270   74.4800  221.9720 C   0  0  0  0  0  0  0  0  0  0  0  0
  140.6220   75.5570  221.7100 N   0  0  0  0  0  0  0  0  0  0  0  0
  141.2460   75.6310  220.4040 C   0  0  0  0  0  0  0  0  0  0  0  0
  140.6920   76.9050  219.7570 C   0  0  0  0  0  0  0  0  0  0  0  0
  141.2330   78.0150  220.6220 C   0  0  0  0  0  0  0  0  0  0  0  0
  141.6140   79.2030  220.0020 C   0  0  0  0  0  0  0  0  0  0  0  0
  142.1150   80.2370  220.7940 C   0  0  0  0  0  0  0  0  0  0  0  0
  142.2240   80.0630  222.1650 C   0  0  0  0  0  0  0  0  0  0  0  0
  141.8390   78.8670  222.7770 C   0  0  0  0  0  0  0  0  0  0  0  0
  141.3420   77.8470  221.9880 C   0  0  0  0  0  0  0  0  0  0  0  0
  140.9380   76.5750  222.6680 C   0  0  0  0  0  0  0  0  0  0  0  0
  138.4260   74.5280  221.6380 N   0  0  0  0  0  0  0  0  0  0  0  0
  135.4510   77.0830  222.4730 C   0  0  0  0  0  0  0  0  0  0  0  0
  136.6620   77.5080  221.8480 N   0  0  0  0  0  0  0  0  0  0  0  0
  136.5170   78.4090  220.7710 C   0  0  0  0  0  0  0  0  0  0  0  0
  137.8680   78.9460  220.3530 C   0  0  0  0  0  0  0  0  0  0  0  0
  138.3700   79.7180  221.5220 C   0  0  0  0  0  0  0  0  0  0  0  0
  138.8450   80.9960  221.4520 C   0  0  0  0  0  0  0  0  0  0  0  0
  139.2890   81.6110  222.6130 C   0  0  0  0  0  0  0  0  0  0  0  0
  139.2490   80.9330  223.8340 C   0  0  0  0  0  0  0  0  0  0  0  0
  138.7660   79.6310  223.9180 C   0  0  0  0  0  0  0  0  0  0  0  0
  138.3320   79.0420  222.7480 C   0  0  0  0  0  0  0  0  0  0  0  0
  137.7920   77.6570  222.6960 C   0  0  0  0  0  0  0  0  0  0  0  0
  136.0790   74.1660  223.9950 H   0  0  0  0  0  0  0  0  0  0  0  0
  137.2840   75.2690  223.3460 H   0  0  0  0  0  0  0  0  0  0  0  0
  134.3271   75.3686  223.0179 H   0  0  0  0  0  0  0  0  0  0  0  0
  134.7949   74.9038  220.7166 H   0  0  0  0  0  0  0  0  0  0  0  0
  136.4899   75.5297  220.8718 H   0  0  0  0  0  0  0  0  0  0  0  0
  135.5920   72.7310  221.4130 H   0  0  0  0  0  0  0  0  0  0  0  0
  138.6861   69.9391  222.4954 H   0  0  0  0  0  0  0  0  0  0  0  0
  140.3896   69.3342  222.7592 H   0  0  0  0  0  0  0  0  0  0  0  0
  138.0030   69.1569  224.4658 H   0  0  0  0  0  0  0  0  0  0  0  0
  139.4542   68.0791  224.2900 H   0  0  0  0  0  0  0  0  0  0  0  0
  138.5817   68.2424  226.8057 H   0  0  0  0  0  0  0  0  0  0  0  0
  139.4448   69.0289  228.9901 H   0  0  0  0  0  0  0  0  0  0  0  0
  141.0429   70.9187  229.0569 H   0  0  0  0  0  0  0  0  0  0  0  0
  141.7714   72.0121  226.9579 H   0  0  0  0  0  0  0  0  0  0  0  0
  141.1715   72.4851  224.6567 H   0  0  0  0  0  0  0  0  0  0  0  0
  142.0017   71.0233  224.1156 H   0  0  0  0  0  0  0  0  0  0  0  0
  142.3396   75.6947  220.5036 H   0  0  0  0  0  0  0  0  0  0  0  0
  141.0308   74.7387  219.7978 H   0  0  0  0  0  0  0  0  0  0  0  0
  141.0498   77.0057  218.7217 H   0  0  0  0  0  0  0  0  0  0  0  0
  139.5935   76.9087  219.6995 H   0  0  0  0  0  0  0  0  0  0  0  0
  141.5220   79.3233  218.9125 H   0  0  0  0  0  0  0  0  0  0  0  0
  142.4224   81.1868  220.3320 H   0  0  0  0  0  0  0  0  0  0  0  0
  142.6211   80.8819  222.7829 H   0  0  0  0  0  0  0  0  0  0  0  0
  141.9298   78.7399  223.8658 H   0  0  0  0  0  0  0  0  0  0  0  0
  141.7670   76.2272  223.3019 H   0  0  0  0  0  0  0  0  0  0  0  0
  140.0433   76.7725  223.2767 H   0  0  0  0  0  0  0  0  0  0  0  0
  134.6070   77.4107  221.8483 H   0  0  0  0  0  0  0  0  0  0  0  0
  135.4387   77.5331  223.4766 H   0  0  0  0  0  0  0  0  0  0  0  0
  136.0546   77.8869  219.9204 H   0  0  0  0  0  0  0  0  0  0  0  0
  135.8801   79.2478  221.0883 H   0  0  0  0  0  0  0  0  0  0  0  0
  138.5534   78.1190  220.1158 H   0  0  0  0  0  0  0  0  0  0  0  0
  137.7963   79.5724  219.4516 H   0  0  0  0  0  0  0  0  0  0  0  0
  138.8751   81.5292  220.4904 H   0  0  0  0  0  0  0  0  0  0  0  0
  139.6755   82.6401  222.5723 H   0  0  0  0  0  0  0  0  0  0  0  0
  139.6054   81.4372  224.7443 H   0  0  0  0  0  0  0  0  0  0  0  0
  138.7315   79.0935  224.8771 H   0  0  0  0  0  0  0  0  0  0  0  0
  138.5872   76.9893  222.3329 H   0  0  0  0  0  0  0  0  0  0  0  0
  137.4603   77.4067  223.7145 H   0  0  0  0  0  0  0  0  0  0  0  0
  1  2  1  0
  2  3  1  0
  3  4  1  0
  4  5  1  0
  5  6  2  0
  6  7  1  0
  7  8  1  0
  8  9  1  0
  9 10  1  0
 10 11  1  0
 11 12  2  0
 12 13  1  0
 13 14  2  0
 14 15  1  0
 15 16  2  0
 16 17  1  0
  7 18  2  0
 18 19  1  0
 19 20  1  0
 20 21  1  0
 21 22  1  0
 22 23  1  0
 23 24  2  0
 24 25  1  0
 25 26  2  0
 26 27  1  0
 27 28  2  0
 28 29  1  0
 19 30  2  0
  2 31  1  0
 31 32  1  0
 32 33  1  0
 33 34  1  0
 34 35  1  0
 35 36  2  0
 36 37  1  0
 37 38  2  0
 38 39  1  0
 39 40  2  0
 40 41  1  0
 30  5  1  0
 41 32  1  0
 17  8  1  0
 29 20  1  0
 40 35  1  0
 16 11  1  0
 28 23  1  0
  1 42  1  0
  1 43  1  0
  2 44  1  1
  3 45  1  0
  3 46  1  0
  4 47  1  0
  9 48  1  0
  9 49  1  0
 10 50  1  0
 10 51  1  0
 12 52  1  0
 13 53  1  0
 14 54  1  0
 15 55  1  0
 17 56  1  0
 17 57  1  0
 21 58  1  0
 21 59  1  0
 22 60  1  0
 22 61  1  0
 24 62  1  0
 25 63  1  0
 26 64  1  0
 27 65  1  0
 29 66  1  0
 29 67  1  0
 31 68  1  0
 31 69  1  0
 33 70  1  0
 33 71  1  0
 34 72  1  0
 34 73  1  0
 36 74  1  0
 37 75  1  0
 38 76  1  0
 39 77  1  0
 41 78  1  0
 41 79  1  0
M  END
>  <smiles>  (47) 
NC(CNc1nc(N2CCc3ccccc3C2)nc(N2CCc3ccccc3C2)n1)CN1CCc2ccccc2C1

>  <score_type>  (47) 
oracle

>  <origin>  (47) 
autodockgpu

>  <m_score__min__energy>  (47) 
-11.49

>  <m_primary>  (47) 
energy

>  <rmsd>  (47) 
10.112021500362086

>  <m_score__min__rmsd>  (47) 
10.112021500362086

>  <meeko>  (47) 
{"free_energy": -8.84, "intermolecular_energy": -11.23, "internal_energy": -4.07, "cluster_size": 9, "cluster_id": 7, "rank_in_cluster": 7}

>  <energy>  (47) 
-8.96

>  <cluster_rmsd>  (47) 
0.0

>  <cluster>  (47) 
11

$$$$

     RDKit          3D

 79 85  0  0  1  0  0  0  0  0999 V2000
  143.1570   69.0070  219.8220 N   0  0  0  0  0  0  0  0  0  0  0  0
  143.8350   70.2790  219.9100 C   0  0  2  0  0  0  0  0  0  0  0  0
  142.9320   71.2860  219.2320 C   0  0  0  0  0  0  0  0  0  0  0  0
  141.5160   71.0010  219.4820 N   0  0  0  0  0  0  0  0  0  0  0  0
  140.9160   71.8010  220.5180 C   0  0  0  0  0  0  0  0  0  0  0  0
  140.5960   73.0950  220.3280 N   0  0  0  0  0  0  0  0  0  0  0  0
  140.0350   73.8330  221.3280 C   0  0  0  0  0  0  0  0  0  0  0  0
  139.6830   75.2000  221.1480 N   0  0  0  0  0  0  0  0  0  0  0  0
  139.4230   75.7480  219.8540 C   0  0  0  0  0  0  0  0  0  0  0  0
  140.2610   76.9360  219.5340 C   0  0  0  0  0  0  0  0  0  0  0  0
  140.7860   77.5870  220.7440 C   0  0  0  0  0  0  0  0  0  0  0  0
  141.6330   78.6660  220.5740 C   0  0  0  0  0  0  0  0  0  0  0  0
  142.1870   79.3570  221.6430 C   0  0  0  0  0  0  0  0  0  0  0  0
  141.8840   78.9540  222.9190 C   0  0  0  0  0  0  0  0  0  0  0  0
  141.0470   77.8870  223.1350 C   0  0  0  0  0  0  0  0  0  0  0  0
  140.5070   77.2150  222.0350 C   0  0  0  0  0  0  0  0  0  0  0  0
  139.5990   76.0480  222.3240 C   0  0  0  0  0  0  0  0  0  0  0  0
  139.8000   73.2630  222.5130 N   0  0  0  0  0  0  0  0  0  0  0  0
  140.1080   71.9730  222.7330 C   0  0  0  0  0  0  0  0  0  0  0  0
  139.8340   71.4210  224.0170 N   0  0  0  0  0  0  0  0  0  0  0  0
  138.6940   70.5370  224.1580 C   0  0  0  0  0  0  0  0  0  0  0  0
  139.2790   69.1650  224.5080 C   0  0  0  0  0  0  0  0  0  0  0  0
  139.9070   69.3730  225.8620 C   0  0  0  0  0  0  0  0  0  0  0  0
  139.8300   68.3350  226.7870 C   0  0  0  0  0  0  0  0  0  0  0  0
  140.4100   68.5170  228.0440 C   0  0  0  0  0  0  0  0  0  0  0  0
  141.0410   69.7150  228.3420 C   0  0  0  0  0  0  0  0  0  0  0  0
  141.1130   70.7500  227.4070 C   0  0  0  0  0  0  0  0  0  0  0  0
  140.5390   70.5630  226.1650 C   0  0  0  0  0  0  0  0  0  0  0  0
  140.6280   71.6890  225.1800 C   0  0  0  0  0  0  0  0  0  0  0  0
  140.6610   71.2510  221.7430 N   0  0  0  0  0  0  0  0  0  0  0  0
  145.1500   70.2790  219.1720 C   0  0  0  0  0  0  0  0  0  0  0  0
  145.5560   71.5640  218.7010 N   0  0  0  0  0  0  0  0  0  0  0  0
  145.1270   71.9080  217.4000 C   0  0  0  0  0  0  0  0  0  0  0  0
  145.4290   73.3630  217.1180 C   0  0  0  0  0  0  0  0  0  0  0  0
  144.6030   74.1370  218.0840 C   0  0  0  0  0  0  0  0  0  0  0  0
  143.7840   75.1730  217.7370 C   0  0  0  0  0  0  0  0  0  0  0  0
  143.0650   75.8200  218.7290 C   0  0  0  0  0  0  0  0  0  0  0  0
  143.1770   75.4180  220.0640 C   0  0  0  0  0  0  0  0  0  0  0  0
  144.0080   74.3640  220.4290 C   0  0  0  0  0  0  0  0  0  0  0  0
  144.7130   73.7370  219.4210 C   0  0  0  0  0  0  0  0  0  0  0  0
  145.6340   72.5970  219.6730 C   0  0  0  0  0  0  0  0  0  0  0  0
  142.5670   68.9040  218.9940 H   0  0  0  0  0  0  0  0  0  0  0  0
  143.7710   68.2050  220.0660 H   0  0  0  0  0  0  0  0  0  0  0  0
  144.0406   70.5067  220.9664 H   0  0  0  0  0  0  0  0  0  0  0  0
  143.1665   72.2899  219.6157 H   0  0  0  0  0  0  0  0  0  0  0  0
  143.1068   71.2270  218.1476 H   0  0  0  0  0  0  0  0  0  0  0  0
  140.9850   70.2780  218.9530 H   0  0  0  0  0  0  0  0  0  0  0  0
  139.6186   74.9706  219.1007 H   0  0  0  0  0  0  0  0  0  0  0  0
  138.3743   76.0800  219.8475 H   0  0  0  0  0  0  0  0  0  0  0  0
  141.1072   76.6148  218.9089 H   0  0  0  0  0  0  0  0  0  0  0  0
  139.6276   77.6642  219.0062 H   0  0  0  0  0  0  0  0  0  0  0  0
  141.8777   78.9898  219.5516 H   0  0  0  0  0  0  0  0  0  0  0  0
  142.8568   80.2122  221.4701 H   0  0  0  0  0  0  0  0  0  0  0  0
  142.3155   79.4905  223.7769 H   0  0  0  0  0  0  0  0  0  0  0  0
  140.8051   77.5659  224.1589 H   0  0  0  0  0  0  0  0  0  0  0  0
  139.9417   75.5044  223.2168 H   0  0  0  0  0  0  0  0  0  0  0  0
  138.5668   76.3702  222.5257 H   0  0  0  0  0  0  0  0  0  0  0  0
  138.0321   70.8891  224.9629 H   0  0  0  0  0  0  0  0  0  0  0  0
  138.0906   70.5004  223.2390 H   0  0  0  0  0  0  0  0  0  0  0  0
  138.4873   68.4029  224.5568 H   0  0  0  0  0  0  0  0  0  0  0  0
  139.9988   68.8069  223.7572 H   0  0  0  0  0  0  0  0  0  0  0  0
  139.3233   67.3923  226.5330 H   0  0  0  0  0  0  0  0  0  0  0  0
  140.3665   67.7137  228.7943 H   0  0  0  0  0  0  0  0  0  0  0  0
  141.4940   69.8531  229.3348 H   0  0  0  0  0  0  0  0  0  0  0  0
  141.6171   71.6957  227.6551 H   0  0  0  0  0  0  0  0  0  0  0  0
  140.2672   72.6125  225.6564 H   0  0  0  0  0  0  0  0  0  0  0  0
  141.6774   71.7991  224.8689 H   0  0  0  0  0  0  0  0  0  0  0  0
  145.9271   69.8992  219.8516 H   0  0  0  0  0  0  0  0  0  0  0  0
  145.0142   69.6448  218.2835 H   0  0  0  0  0  0  0  0  0  0  0  0
  145.6521   71.2790  216.6661 H   0  0  0  0  0  0  0  0  0  0  0  0
  144.0416   71.7457  217.3253 H   0  0  0  0  0  0  0  0  0  0  0  0
  146.4979   73.5706  217.2739 H   0  0  0  0  0  0  0  0  0  0  0  0
  145.1978   73.6326  216.0769 H   0  0  0  0  0  0  0  0  0  0  0  0
  143.6965   75.4888  216.6869 H   0  0  0  0  0  0  0  0  0  0  0  0
  142.4010   76.6562  218.4647 H   0  0  0  0  0  0  0  0  0  0  0  0
  142.5985   75.9439  220.8378 H   0  0  0  0  0  0  0  0  0  0  0  0
  144.0997   74.0433  221.4772 H   0  0  0  0  0  0  0  0  0  0  0  0
  146.6645   72.9816  219.6867 H   0  0  0  0  0  0  0  0  0  0  0  0
  145.3342   72.1527  220.6336 H   0  0  0  0  0  0  0  0  0  0  0  0
  1  2  1  0
  2  3  1  0
  3  4  1  0
  4  5  1  0
  5  6  2  0
  6  7  1  0
  7  8  1  0
  8  9  1  0
  9 10  1  0
 10 11  1  0
 11 12  2  0
 12 13  1  0
 13 14  2  0
 14 15  1  0
 15 16  2  0
 16 17  1  0
  7 18  2  0
 18 19  1  0
 19 20  1  0
 20 21  1  0
 21 22  1  0
 22 23  1  0
 23 24  2  0
 24 25  1  0
 25 26  2  0
 26 27  1  0
 27 28  2  0
 28 29  1  0
 19 30  2  0
  2 31  1  0
 31 32  1  0
 32 33  1  0
 33 34  1  0
 34 35  1  0
 35 36  2  0
 36 37  1  0
 37 38  2  0
 38 39  1  0
 39 40  2  0
 40 41  1  0
 30  5  1  0
 41 32  1  0
 17  8  1  0
 29 20  1  0
 40 35  1  0
 16 11  1  0
 28 23  1  0
  1 42  1  0
  1 43  1  0
  2 44  1  1
  3 45  1  0
  3 46  1  0
  4 47  1  0
  9 48  1  0
  9 49  1  0
 10 50  1  0
 10 51  1  0
 12 52  1  0
 13 53  1  0
 14 54  1  0
 15 55  1  0
 17 56  1  0
 17 57  1  0
 21 58  1  0
 21 59  1  0
 22 60  1  0
 22 61  1  0
 24 62  1  0
 25 63  1  0
 26 64  1  0
 27 65  1  0
 29 66  1  0
 29 67  1  0
 31 68  1  0
 31 69  1  0
 33 70  1  0
 33 71  1  0
 34 72  1  0
 34 73  1  0
 36 74  1  0
 37 75  1  0
 38 76  1  0
 39 77  1  0
 41 78  1  0
 41 79  1  0
M  END
>  <smiles>  (48) 
NC(CNc1nc(N2CCc3ccccc3C2)nc(N2CCc3ccccc3C2)n1)CN1CCc2ccccc2C1

>  <score_type>  (48) 
oracle

>  <origin>  (48) 
autodockgpu

>  <m_score__min__energy>  (48) 
-11.49

>  <m_primary>  (48) 
energy

>  <rmsd>  (48) 
9.628012869392519

>  <m_score__min__rmsd>  (48) 
9.628012869392519

>  <meeko>  (48) 
{"free_energy": -9.7, "intermolecular_energy": -12.09, "internal_energy": -2.44, "cluster_size": 4, "cluster_id": 5, "rank_in_cluster": 3}

>  <energy>  (48) 
-8.74

>  <cluster_rmsd>  (48) 
0.0

>  <cluster>  (48) 
12

$$$$

     RDKit          3D

 79 85  0  0  1  0  0  0  0  0999 V2000
  135.8890   71.2770  222.7170 N   0  0  0  0  0  0  0  0  0  0  0  0
  134.8260   71.7920  221.8870 C   0  0  2  0  0  0  0  0  0  0  0  0
  135.5000   72.5260  220.7480 C   0  0  0  0  0  0  0  0  0  0  0  0
  136.0870   73.7940  221.1900 N   0  0  0  0  0  0  0  0  0  0  0  0
  137.4470   73.6990  221.6520 C   0  0  0  0  0  0  0  0  0  0  0  0
  137.9150   72.6040  222.2790 N   0  0  0  0  0  0  0  0  0  0  0  0
  139.2060   72.5420  222.7140 C   0  0  0  0  0  0  0  0  0  0  0  0
  139.7240   71.3930  223.3730 N   0  0  0  0  0  0  0  0  0  0  0  0
  139.1440   70.0970  223.1990 C   0  0  0  0  0  0  0  0  0  0  0  0
  138.7500   69.4480  224.4790 C   0  0  0  0  0  0  0  0  0  0  0  0
  139.4710   70.0100  225.6320 C   0  0  0  0  0  0  0  0  0  0  0  0
  139.1440   69.5310  226.8870 C   0  0  0  0  0  0  0  0  0  0  0  0
  139.7590   69.9880  228.0440 C   0  0  0  0  0  0  0  0  0  0  0  0
  140.7300   70.9510  227.9410 C   0  0  0  0  0  0  0  0  0  0  0  0
  141.0870   71.4560  226.7150 C   0  0  0  0  0  0  0  0  0  0  0  0
  140.4470   70.9730  225.5700 C   0  0  0  0  0  0  0  0  0  0  0  0
  140.8700   71.5610  224.2490 C   0  0  0  0  0  0  0  0  0  0  0  0
  140.0170   73.5840  222.5150 N   0  0  0  0  0  0  0  0  0  0  0  0
  139.5790   74.6930  221.8920 C   0  0  0  0  0  0  0  0  0  0  0  0
  140.4900   75.7720  221.7100 N   0  0  0  0  0  0  0  0  0  0  0  0
  141.1740   75.8890  220.4360 C   0  0  0  0  0  0  0  0  0  0  0  0
  140.6560   77.1890  219.8120 C   0  0  0  0  0  0  0  0  0  0  0  0
  141.1630   78.2630  220.7390 C   0  0  0  0  0  0  0  0  0  0  0  0
  141.5780   79.4700  220.1800 C   0  0  0  0  0  0  0  0  0  0  0  0
  142.0480   80.4720  221.0310 C   0  0  0  0  0  0  0  0  0  0  0  0
  142.0930   80.2480  222.3980 C   0  0  0  0  0  0  0  0  0  0  0  0
  141.6740   79.0340  222.9490 C   0  0  0  0  0  0  0  0  0  0  0  0
  141.2090   78.0460  222.1020 C   0  0  0  0  0  0  0  0  0  0  0  0
  140.7680   76.7530  222.7170 C   0  0  0  0  0  0  0  0  0  0  0  0
  138.3050   74.7470  221.4660 N   0  0  0  0  0  0  0  0  0  0  0  0
  133.9610   72.7870  222.6170 C   0  0  0  0  0  0  0  0  0  0  0  0
  134.5830   73.3770  223.7590 N   0  0  0  0  0  0  0  0  0  0  0  0
  134.8010   74.7700  223.6910 C   0  0  0  0  0  0  0  0  0  0  0  0
  135.2520   75.2940  225.0370 C   0  0  0  0  0  0  0  0  0  0  0  0
  134.1070   75.0620  225.9600 C   0  0  0  0  0  0  0  0  0  0  0  0
  133.5720   76.0160  226.7750 C   0  0  0  0  0  0  0  0  0  0  0  0
  132.5060   75.6780  227.5940 C   0  0  0  0  0  0  0  0  0  0  0  0
  131.9870   74.3790  227.5840 C   0  0  0  0  0  0  0  0  0  0  0  0
  132.5240   73.3980  226.7560 C   0  0  0  0  0  0  0  0  0  0  0  0
  133.5850   73.7620  225.9520 C   0  0  0  0  0  0  0  0  0  0  0  0
  134.2510   72.8130  225.0200 C   0  0  0  0  0  0  0  0  0  0  0  0
  136.6340   70.8060  222.2000 H   0  0  0  0  0  0  0  0  0  0  0  0
  136.1790   71.9430  223.4600 H   0  0  0  0  0  0  0  0  0  0  0  0
  134.1843   70.9594  221.5631 H   0  0  0  0  0  0  0  0  0  0  0  0
  136.2967   71.8892  220.3359 H   0  0  0  0  0  0  0  0  0  0  0  0
  134.7384   72.7487  219.9862 H   0  0  0  0  0  0  0  0  0  0  0  0
  135.5620   74.6940  221.1710 H   0  0  0  0  0  0  0  0  0  0  0  0
  138.2478   70.1980  222.5692 H   0  0  0  0  0  0  0  0  0  0  0  0
  139.9098   69.4588  222.7341 H   0  0  0  0  0  0  0  0  0  0  0  0
  137.6703   69.5923  224.6317 H   0  0  0  0  0  0  0  0  0  0  0  0
  139.0052   68.3803  224.4089 H   0  0  0  0  0  0  0  0  0  0  0  0
  138.3663   68.7577  226.9717 H   0  0  0  0  0  0  0  0  0  0  0  0
  139.4727   69.5849  229.0266 H   0  0  0  0  0  0  0  0  0  0  0  0
  141.2275   71.3224  228.8490 H   0  0  0  0  0  0  0  0  0  0  0  0
  141.8652   72.2293  226.6351 H   0  0  0  0  0  0  0  0  0  0  0  0
  141.1158   72.6272  224.3624 H   0  0  0  0  0  0  0  0  0  0  0  0
  141.7689   71.0690  223.8490 H   0  0  0  0  0  0  0  0  0  0  0  0
  142.2623   75.9420  220.5872 H   0  0  0  0  0  0  0  0  0  0  0  0
  140.9826   75.0206  219.7885 H   0  0  0  0  0  0  0  0  0  0  0  0
  141.0601   77.3245  218.7979 H   0  0  0  0  0  0  0  0  0  0  0  0
  139.5612   77.2020  219.7062 H   0  0  0  0  0  0  0  0  0  0  0  0
  141.5362   79.6298  219.0925 H   0  0  0  0  0  0  0  0  0  0  0  0
  142.3813   81.4356  220.6182 H   0  0  0  0  0  0  0  0  0  0  0  0
  142.4659   81.0415  223.0624 H   0  0  0  0  0  0  0  0  0  0  0  0
  141.7135   78.8681  224.0357 H   0  0  0  0  0  0  0  0  0  0  0  0
  141.5658   76.3771  223.3744 H   0  0  0  0  0  0  0  0  0  0  0  0
  139.8478   76.9349  223.2916 H   0  0  0  0  0  0  0  0  0  0  0  0
  133.6936   73.5913  221.9159 H   0  0  0  0  0  0  0  0  0  0  0  0
  133.0847   72.2335  222.9853 H   0  0  0  0  0  0  0  0  0  0  0  0
  135.5772   74.9802  222.9405 H   0  0  0  0  0  0  0  0  0  0  0  0
  133.8614   75.2673  223.4084 H   0  0  0  0  0  0  0  0  0  0  0  0
  136.1416   74.7476  225.3835 H   0  0  0  0  0  0  0  0  0  0  0  0
  135.5272   76.3579  224.9886 H   0  0  0  0  0  0  0  0  0  0  0  0
  133.9801   77.0375  226.7822 H   0  0  0  0  0  0  0  0  0  0  0  0
  132.0648   76.4370  228.2568 H   0  0  0  0  0  0  0  0  0  0  0  0
  131.1410   74.1291  228.2411 H   0  0  0  0  0  0  0  0  0  0  0  0
  132.1197   72.3751  226.7428 H   0  0  0  0  0  0  0  0  0  0  0  0
  135.1774   72.4561  225.4937 H   0  0  0  0  0  0  0  0  0  0  0  0
  133.5338   72.0018  224.8264 H   0  0  0  0  0  0  0  0  0  0  0  0
  1  2  1  0
  2  3  1  0
  3  4  1  0
  4  5  1  0
  5  6  2  0
  6  7  1  0
  7  8  1  0
  8  9  1  0
  9 10  1  0
 10 11  1  0
 11 12  2  0
 12 13  1  0
 13 14  2  0
 14 15  1  0
 15 16  2  0
 16 17  1  0
  7 18  2  0
 18 19  1  0
 19 20  1  0
 20 21  1  0
 21 22  1  0
 22 23  1  0
 23 24  2  0
 24 25  1  0
 25 26  2  0
 26 27  1  0
 27 28  2  0
 28 29  1  0
 19 30  2  0
  2 31  1  0
 31 32  1  0
 32 33  1  0
 33 34  1  0
 34 35  1  0
 35 36  2  0
 36 37  1  0
 37 38  2  0
 38 39  1  0
 39 40  2  0
 40 41  1  0
 30  5  1  0
 41 32  1  0
 17  8  1  0
 29 20  1  0
 40 35  1  0
 16 11  1  0
 28 23  1  0
  1 42  1  0
  1 43  1  0
  2 44  1  6
  3 45  1  0
  3 46  1  0
  4 47  1  0
  9 48  1  0
  9 49  1  0
 10 50  1  0
 10 51  1  0
 12 52  1  0
 13 53  1  0
 14 54  1  0
 15 55  1  0
 17 56  1  0
 17 57  1  0
 21 58  1  0
 21 59  1  0
 22 60  1  0
 22 61  1  0
 24 62  1  0
 25 63  1  0
 26 64  1  0
 27 65  1  0
 29 66  1  0
 29 67  1  0
 31 68  1  0
 31 69  1  0
 33 70  1  0
 33 71  1  0
 34 72  1  0
 34 73  1  0
 36 74  1  0
 37 75  1  0
 38 76  1  0
 39 77  1  0
 41 78  1  0
 41 79  1  0
M  END
>  <smiles>  (49) 
NC(CNc1nc(N2CCc3ccccc3C2)nc(N2CCc3ccccc3C2)n1)CN1CCc2ccccc2C1

>  <score_type>  (49) 
oracle

>  <origin>  (49) 
autodockgpu

>  <m_score__min__energy>  (49) 
-11.49

>  <m_primary>  (49) 
energy

>  <rmsd>  (49) 
7.822284330126606

>  <m_score__min__rmsd>  (49) 
7.822284330126606

>  <meeko>  (49) 
{"free_energy": -9.51, "intermolecular_energy": -11.9, "internal_energy": -3.37, "cluster_size": 12, "cluster_id": 2, "rank_in_cluster": 10}

>  <energy>  (49) 
-8.71

>  <cluster_rmsd>  (49) 
0.13

>  <cluster>  (49) 
12

$$$$

     RDKit          3D

 79 85  0  0  1  0  0  0  0  0999 V2000
  140.2770   74.0310  222.2650 N   0  0  0  0  0  0  0  0  0  0  0  0
  139.8680   73.0210  221.3170 C   0  0  2  0  0  0  0  0  0  0  0  0
  138.3880   73.2330  221.0900 C   0  0  0  0  0  0  0  0  0  0  0  0
  137.6720   73.4640  222.3480 N   0  0  0  0  0  0  0  0  0  0  0  0
  137.3170   74.8370  222.5960 C   0  0  0  0  0  0  0  0  0  0  0  0
  136.0790   75.1980  222.9810 N   0  0  0  0  0  0  0  0  0  0  0  0
  135.7660   76.5060  223.2020 C   0  0  0  0  0  0  0  0  0  0  0  0
  134.4660   76.9100  223.6160 N   0  0  0  0  0  0  0  0  0  0  0  0
  134.0620   78.2820  223.6020 C   0  0  0  0  0  0  0  0  0  0  0  0
  133.5660   78.7670  224.9190 C   0  0  0  0  0  0  0  0  0  0  0  0
  133.1260   77.6650  225.7870 C   0  0  0  0  0  0  0  0  0  0  0  0
  132.7030   77.9850  227.0640 C   0  0  0  0  0  0  0  0  0  0  0  0
  132.2650   77.0270  227.9680 C   0  0  0  0  0  0  0  0  0  0  0  0
  132.2500   75.7110  227.5820 C   0  0  0  0  0  0  0  0  0  0  0  0
  132.6610   75.3470  226.3240 C   0  0  0  0  0  0  0  0  0  0  0  0
  133.0960   76.3380  225.4380 C   0  0  0  0  0  0  0  0  0  0  0  0
  133.5410   75.8870  224.0720 C   0  0  0  0  0  0  0  0  0  0  0  0
  136.7030   77.4430  223.0330 N   0  0  0  0  0  0  0  0  0  0  0  0
  137.9490   77.1140  222.6490 C   0  0  0  0  0  0  0  0  0  0  0  0
  138.9040   78.1580  222.4840 N   0  0  0  0  0  0  0  0  0  0  0  0
  138.4330   79.5290  222.4850 C   0  0  0  0  0  0  0  0  0  0  0  0
  139.0420   80.1710  223.7360 C   0  0  0  0  0  0  0  0  0  0  0  0
  140.5240   80.1630  223.4620 C   0  0  0  0  0  0  0  0  0  0  0  0
  141.2780   81.2500  223.8990 C   0  0  0  0  0  0  0  0  0  0  0  0
  142.6520   81.2520  223.6520 C   0  0  0  0  0  0  0  0  0  0  0  0
  143.2310   80.1840  222.9830 C   0  0  0  0  0  0  0  0  0  0  0  0
  142.4660   79.0980  222.5490 C   0  0  0  0  0  0  0  0  0  0  0  0
  141.1070   79.1020  222.7980 C   0  0  0  0  0  0  0  0  0  0  0  0
  140.3090   77.9270  222.3210 C   0  0  0  0  0  0  0  0  0  0  0  0
  138.2500   75.8220  222.4320 N   0  0  0  0  0  0  0  0  0  0  0  0
  140.0500   71.6250  221.8550 C   0  0  0  0  0  0  0  0  0  0  0  0
  139.2920   71.3490  223.0330 N   0  0  0  0  0  0  0  0  0  0  0  0
  138.3450   70.3070  222.9280 C   0  0  0  0  0  0  0  0  0  0  0  0
  137.7820   69.9730  224.2920 C   0  0  0  0  0  0  0  0  0  0  0  0
  138.9320   69.4580  225.0840 C   0  0  0  0  0  0  0  0  0  0  0  0
  138.9180   68.2870  225.7860 C   0  0  0  0  0  0  0  0  0  0  0  0
  140.0530   67.9130  226.4890 C   0  0  0  0  0  0  0  0  0  0  0  0
  141.1930   68.7220  226.4770 C   0  0  0  0  0  0  0  0  0  0  0  0
  141.2190   69.9170  225.7640 C   0  0  0  0  0  0  0  0  0  0  0  0
  140.0760   70.2650  225.0740 C   0  0  0  0  0  0  0  0  0  0  0  0
  139.9700   71.5130  224.2710 C   0  0  0  0  0  0  0  0  0  0  0  0
  139.5920   74.2190  223.0000 H   0  0  0  0  0  0  0  0  0  0  0  0
  141.2690   73.9290  222.5600 H   0  0  0  0  0  0  0  0  0  0  0  0
  140.4755   73.1128  220.4046 H   0  0  0  0  0  0  0  0  0  0  0  0
  138.2496   74.1065  220.4360 H   0  0  0  0  0  0  0  0  0  0  0  0
  137.9794   72.3231  220.6261 H   0  0  0  0  0  0  0  0  0  0  0  0
  137.4370   72.6950  223.0110 H   0  0  0  0  0  0  0  0  0  0  0  0
  134.9254   78.8965  223.3071 H   0  0  0  0  0  0  0  0  0  0  0  0
  133.2277   78.3670  222.8901 H   0  0  0  0  0  0  0  0  0  0  0  0
  134.3766   79.3132  225.4235 H   0  0  0  0  0  0  0  0  0  0  0  0
  132.6988   79.4181  224.7342 H   0  0  0  0  0  0  0  0  0  0  0  0
  132.7140   79.0399  227.3756 H   0  0  0  0  0  0  0  0  0  0  0  0
  131.9357   77.3182  228.9763 H   0  0  0  0  0  0  0  0  0  0  0  0
  131.9054   74.9402  228.2871 H   0  0  0  0  0  0  0  0  0  0  0  0
  132.6484   74.2908  226.0170 H   0  0  0  0  0  0  0  0  0  0  0  0
  134.0447   74.9110  224.1331 H   0  0  0  0  0  0  0  0  0  0  0  0
  132.6924   75.7633  223.3831 H   0  0  0  0  0  0  0  0  0  0  0  0
  138.7734   80.0530  221.5797 H   0  0  0  0  0  0  0  0  0  0  0  0
  137.3343   79.5827  222.4928 H   0  0  0  0  0  0  0  0  0  0  0  0
  138.6737   81.1992  223.8671 H   0  0  0  0  0  0  0  0  0  0  0  0
  138.7782   79.6347  224.6595 H   0  0  0  0  0  0  0  0  0  0  0  0
  140.8009   82.0886  224.4273 H   0  0  0  0  0  0  0  0  0  0  0  0
  143.2724   82.0966  223.9864 H   0  0  0  0  0  0  0  0  0  0  0  0
  144.3139   80.1919  222.7902 H   0  0  0  0  0  0  0  0  0  0  0  0
  142.9366   78.2565  222.0195 H   0  0  0  0  0  0  0  0  0  0  0  0
  140.5238   77.7552  221.2559 H   0  0  0  0  0  0  0  0  0  0  0  0
  140.5904   77.0474  222.9186 H   0  0  0  0  0  0  0  0  0  0  0  0
  139.7464   70.9120  221.0743 H   0  0  0  0  0  0  0  0  0  0  0  0
  141.1104   71.5281  222.1311 H   0  0  0  0  0  0  0  0  0  0  0  0
  137.5268   70.6251  222.2652 H   0  0  0  0  0  0  0  0  0  0  0  0
  138.8377   69.4145  222.5148 H   0  0  0  0  0  0  0  0  0  0  0  0
  137.3622   70.8730  224.7651 H   0  0  0  0  0  0  0  0  0  0  0  0
  136.9690   69.2349  224.2274 H   0  0  0  0  0  0  0  0  0  0  0  0
  138.0208   67.6506  225.7937 H   0  0  0  0  0  0  0  0  0  0  0  0
  140.0565   66.9730  227.0603 H   0  0  0  0  0  0  0  0  0  0  0  0
  142.0843   68.4089  227.0405 H   0  0  0  0  0  0  0  0  0  0  0  0
  142.1134   70.5572  225.7511 H   0  0  0  0  0  0  0  0  0  0  0  0
  139.4268   72.2619  224.8661 H   0  0  0  0  0  0  0  0  0  0  0  0
  140.9973   71.8252  224.0318 H   0  0  0  0  0  0  0  0  0  0  0  0
  1  2  1  0
  2  3  1  0
  3  4  1  0
  4  5  1  0
  5  6  2  0
  6  7  1  0
  7  8  1  0
  8  9  1  0
  9 10  1  0
 10 11  1  0
 11 12  2  0
 12 13  1  0
 13 14  2  0
 14 15  1  0
 15 16  2  0
 16 17  1  0
  7 18  2  0
 18 19  1  0
 19 20  1  0
 20 21  1  0
 21 22  1  0
 22 23  1  0
 23 24  2  0
 24 25  1  0
 25 26  2  0
 26 27  1  0
 27 28  2  0
 28 29  1  0
 19 30  2  0
  2 31  1  0
 31 32  1  0
 32 33  1  0
 33 34  1  0
 34 35  1  0
 35 36  2  0
 36 37  1  0
 37 38  2  0
 38 39  1  0
 39 40  2  0
 40 41  1  0
 30  5  1  0
 41 32  1  0
 17  8  1  0
 29 20  1  0
 40 35  1  0
 16 11  1  0
 28 23  1  0
  1 42  1  0
  1 43  1  0
  2 44  1  6
  3 45  1  0
  3 46  1  0
  4 47  1  0
  9 48  1  0
  9 49  1  0
 10 50  1  0
 10 51  1  0
 12 52  1  0
 13 53  1  0
 14 54  1  0
 15 55  1  0
 17 56  1  0
 17 57  1  0
 21 58  1  0
 21 59  1  0
 22 60  1  0
 22 61  1  0
 24 62  1  0
 25 63  1  0
 26 64  1  0
 27 65  1  0
 29 66  1  0
 29 67  1  0
 31 68  1  0
 31 69  1  0
 33 70  1  0
 33 71  1  0
 34 72  1  0
 34 73  1  0
 36 74  1  0
 37 75  1  0
 38 76  1  0
 39 77  1  0
 41 78  1  0
 41 79  1  0
M  END
>  <smiles>  (50) 
NC(CNc1nc(N2CCc3ccccc3C2)nc(N2CCc3ccccc3C2)n1)CN1CCc2ccccc2C1

>  <score_type>  (50) 
oracle

>  <origin>  (50) 
autodockgpu

>  <m_score__min__energy>  (50) 
-11.49

>  <m_primary>  (50) 
energy

>  <rmsd>  (50) 
3.5130878469988285

>  <m_score__min__rmsd>  (50) 
3.5130878469988285

>  <meeko>  (50) 
{"free_energy": -10.4, "intermolecular_energy": -12.78, "internal_energy": -2.64, "cluster_size": 3, "cluster_id": 3, "rank_in_cluster": 1}

>  <energy>  (50) 
-8.21

>  <cluster_rmsd>  (50) 
1.95

>  <cluster>  (50) 
12

$$$$

     RDKit          3D

 79 85  0  0  1  0  0  0  0  0999 V2000
  139.9700   74.0010  222.2370 N   0  0  0  0  0  0  0  0  0  0  0  0
  139.5680   74.7080  221.0400 C   0  0  1  0  0  0  0  0  0  0  0  0
  139.0260   73.7760  219.9940 C   0  0  0  0  0  0  0  0  0  0  0  0
  137.6240   73.5420  220.2640 N   0  0  0  0  0  0  0  0  0  0  0  0
  137.2900   72.9650  221.5390 C   0  0  0  0  0  0  0  0  0  0  0  0
  136.1360   73.2810  222.1760 N   0  0  0  0  0  0  0  0  0  0  0  0
  135.8100   72.7520  223.3680 C   0  0  0  0  0  0  0  0  0  0  0  0
  134.6020   73.0720  224.0510 N   0  0  0  0  0  0  0  0  0  0  0  0
  134.0730   74.4240  224.0260 C   0  0  0  0  0  0  0  0  0  0  0  0
  134.1690   74.9090  225.4660 C   0  0  0  0  0  0  0  0  0  0  0  0
  133.2190   74.0360  226.2340 C   0  0  0  0  0  0  0  0  0  0  0  0
  132.4880   74.6040  227.2740 C   0  0  0  0  0  0  0  0  0  0  0  0
  131.6160   73.7730  227.9680 C   0  0  0  0  0  0  0  0  0  0  0  0
  131.4750   72.4390  227.6440 C   0  0  0  0  0  0  0  0  0  0  0  0
  132.2100   71.8780  226.6000 C   0  0  0  0  0  0  0  0  0  0  0  0
  133.0760   72.7010  225.9110 C   0  0  0  0  0  0  0  0  0  0  0  0
  133.8550   72.0750  224.7930 C   0  0  0  0  0  0  0  0  0  0  0  0
  136.6690   71.8850  223.9310 N   0  0  0  0  0  0  0  0  0  0  0  0
  137.8390   71.5260  223.3480 C   0  0  0  0  0  0  0  0  0  0  0  0
  138.7080   70.6010  223.9950 N   0  0  0  0  0  0  0  0  0  0  0  0
  138.3280   69.2310  224.1090 C   0  0  0  0  0  0  0  0  0  0  0  0
  139.1690   68.4020  224.9990 C   0  0  0  0  0  0  0  0  0  0  0  0
  139.8140   69.1740  226.0810 C   0  0  0  0  0  0  0  0  0  0  0  0
  140.0440   68.6440  227.3250 C   0  0  0  0  0  0  0  0  0  0  0  0
  140.6520   69.3840  228.3290 C   0  0  0  0  0  0  0  0  0  0  0  0
  141.0600   70.6940  228.1290 C   0  0  0  0  0  0  0  0  0  0  0  0
  140.8290   71.2270  226.8770 C   0  0  0  0  0  0  0  0  0  0  0  0
  140.2260   70.4950  225.8850 C   0  0  0  0  0  0  0  0  0  0  0  0
  139.9700   71.0550  224.5340 C   0  0  0  0  0  0  0  0  0  0  0  0
  138.1060   72.0880  222.1610 N   0  0  0  0  0  0  0  0  0  0  0  0
  138.4880   75.6950  221.4130 C   0  0  0  0  0  0  0  0  0  0  0  0
  139.0980   77.0300  221.3640 N   0  0  0  0  0  0  0  0  0  0  0  0
  140.5140   76.8600  221.3280 C   0  0  0  0  0  0  0  0  0  0  0  0
  141.1070   77.0680  222.7170 C   0  0  0  0  0  0  0  0  0  0  0  0
  140.8570   78.5220  223.0180 C   0  0  0  0  0  0  0  0  0  0  0  0
  141.8550   79.3690  223.4290 C   0  0  0  0  0  0  0  0  0  0  0  0
  141.4940   80.6860  223.6710 C   0  0  0  0  0  0  0  0  0  0  0  0
  140.1720   81.1060  223.4980 C   0  0  0  0  0  0  0  0  0  0  0  0
  139.1890   80.2270  223.0820 C   0  0  0  0  0  0  0  0  0  0  0  0
  139.5370   78.9330  222.8420 C   0  0  0  0  0  0  0  0  0  0  0  0
  138.5880   77.8760  222.3910 C   0  0  0  0  0  0  0  0  0  0  0  0
  140.8290   74.3890  222.6580 H   0  0  0  0  0  0  0  0  0  0  0  0
  139.1970   73.8260  222.8930 H   0  0  0  0  0  0  0  0  0  0  0  0
  140.4517   75.2120  220.6217 H   0  0  0  0  0  0  0  0  0  0  0  0
  139.1407   74.2297  218.9985 H   0  0  0  0  0  0  0  0  0  0  0  0
  139.5767   72.8241  220.0181 H   0  0  0  0  0  0  0  0  0  0  0  0
  136.8460   73.7530  219.6280 H   0  0  0  0  0  0  0  0  0  0  0  0
  134.6739   75.0625  223.3617 H   0  0  0  0  0  0  0  0  0  0  0  0
  133.0415   74.4581  223.6455 H   0  0  0  0  0  0  0  0  0  0  0  0
  135.1947   74.7920  225.8458 H   0  0  0  0  0  0  0  0  0  0  0  0
  133.9181   75.9758  225.5604 H   0  0  0  0  0  0  0  0  0  0  0  0
  132.5961   75.6669  227.5358 H   0  0  0  0  0  0  0  0  0  0  0  0
  131.0236   74.1892  228.7961 H   0  0  0  0  0  0  0  0  0  0  0  0
  130.7753   71.8114  228.2154 H   0  0  0  0  0  0  0  0  0  0  0  0
  132.1027   70.8157  226.3352 H   0  0  0  0  0  0  0  0  0  0  0  0
  134.5572   71.3397  225.2129 H   0  0  0  0  0  0  0  0  0  0  0  0
  133.1474   71.5877  224.1060 H   0  0  0  0  0  0  0  0  0  0  0  0
  137.2970   69.1974  224.4911 H   0  0  0  0  0  0  0  0  0  0  0  0
  138.4462   68.8034  223.1024 H   0  0  0  0  0  0  0  0  0  0  0  0
  138.5361   67.6256  225.4537 H   0  0  0  0  0  0  0  0  0  0  0  0
  139.9722   67.9736  224.3815 H   0  0  0  0  0  0  0  0  0  0  0  0
  139.7392   67.6075  227.5317 H   0  0  0  0  0  0  0  0  0  0  0  0
  140.8150   68.9180  229.3120 H   0  0  0  0  0  0  0  0  0  0  0  0
  141.5426   71.2780  228.9265 H   0  0  0  0  0  0  0  0  0  0  0  0
  141.1354   72.2629  226.6694 H   0  0  0  0  0  0  0  0  0  0  0  0
  139.9543   72.1529  224.6008 H   0  0  0  0  0  0  0  0  0  0  0  0
  140.7716   70.7110  223.8638 H   0  0  0  0  0  0  0  0  0  0  0  0
  137.6547   75.6329  220.6976 H   0  0  0  0  0  0  0  0  0  0  0  0
  138.0865   75.4810  222.4145 H   0  0  0  0  0  0  0  0  0  0  0  0
  140.7487   75.8426  220.9818 H   0  0  0  0  0  0  0  0  0  0  0  0
  140.9461   77.6012  220.6396 H   0  0  0  0  0  0  0  0  0  0  0  0
  140.6040   76.4258  223.4550 H   0  0  0  0  0  0  0  0  0  0  0  0
  142.1752   76.8090  222.7595 H   0  0  0  0  0  0  0  0  0  0  0  0
  142.8902   79.0208  223.5601 H   0  0  0  0  0  0  0  0  0  0  0  0
  142.2556   81.4073  224.0024 H   0  0  0  0  0  0  0  0  0  0  0  0
  139.9088   82.1554  223.6965 H   0  0  0  0  0  0  0  0  0  0  0  0
  138.1509   80.5652  222.9482 H   0  0  0  0  0  0  0  0  0  0  0  0
  138.3325   77.2495  223.2583 H   0  0  0  0  0  0  0  0  0  0  0  0
  137.7158   78.3954  221.9673 H   0  0  0  0  0  0  0  0  0  0  0  0
  1  2  1  0
  2  3  1  0
  3  4  1  0
  4  5  1  0
  5  6  2  0
  6  7  1  0
  7  8  1  0
  8  9  1  0
  9 10  1  0
 10 11  1  0
 11 12  2  0
 12 13  1  0
 13 14  2  0
 14 15  1  0
 15 16  2  0
 16 17  1  0
  7 18  2  0
 18 19  1  0
 19 20  1  0
 20 21  1  0
 21 22  1  0
 22 23  1  0
 23 24  2  0
 24 25  1  0
 25 26  2  0
 26 27  1  0
 27 28  2  0
 28 29  1  0
 19 30  2  0
  2 31  1  0
 31 32  1  0
 32 33  1  0
 33 34  1  0
 34 35  1  0
 35 36  2  0
 36 37  1  0
 37 38  2  0
 38 39  1  0
 39 40  2  0
 40 41  1  0
 30  5  1  0
 41 32  1  0
 17  8  1  0
 29 20  1  0
 40 35  1  0
 16 11  1  0
 28 23  1  0
  1 42  1  0
  1 43  1  0
  2 44  1  6
  3 45  1  0
  3 46  1  0
  4 47  1  0
  9 48  1  0
  9 49  1  0
 10 50  1  0
 10 51  1  0
 12 52  1  0
 13 53  1  0
 14 54  1  0
 15 55  1  0
 17 56  1  0
 17 57  1  0
 21 58  1  0
 21 59  1  0
 22 60  1  0
 22 61  1  0
 24 62  1  0
 25 63  1  0
 26 64  1  0
 27 65  1  0
 29 66  1  0
 29 67  1  0
 31 68  1  0
 31 69  1  0
 33 70  1  0
 33 71  1  0
 34 72  1  0
 34 73  1  0
 36 74  1  0
 37 75  1  0
 38 76  1  0
 39 77  1  0
 41 78  1  0
 41 79  1  0
M  END
>  <smiles>  (51) 
NC(CNc1nc(N2CCc3ccccc3C2)nc(N2CCc3ccccc3C2)n1)CN1CCc2ccccc2C1

>  <score_type>  (51) 
oracle

>  <origin>  (51) 
autodockgpu

>  <m_score__min__energy>  (51) 
-11.49

>  <m_primary>  (51) 
energy

>  <rmsd>  (51) 
8.811217178429171

>  <m_score__min__rmsd>  (51) 
8.811217178429171

>  <meeko>  (51) 
{"free_energy": -10.9, "intermolecular_energy": -13.28, "internal_energy": -1.92, "cluster_size": 16, "cluster_id": 1, "rank_in_cluster": 9}

>  <energy>  (51) 
-11.49

>  <cluster_rmsd>  (51) 
0.0

>  <cluster>  (51) 
1

$$$$

     RDKit          3D

 79 85  0  0  1  0  0  0  0  0999 V2000
  136.4800   70.0660  222.5740 N   0  0  0  0  0  0  0  0  0  0  0  0
  137.4070   69.6870  221.5290 C   0  0  1  0  0  0  0  0  0  0  0  0
  137.3700   70.6450  220.3730 C   0  0  0  0  0  0  0  0  0  0  0  0
  136.2660   71.5590  220.5630 N   0  0  0  0  0  0  0  0  0  0  0  0
  136.4850   72.6760  221.4430 C   0  0  0  0  0  0  0  0  0  0  0  0
  135.7740   72.8220  222.5880 N   0  0  0  0  0  0  0  0  0  0  0  0
  135.9650   73.8600  223.4210 C   0  0  0  0  0  0  0  0  0  0  0  0
  135.2270   74.0290  224.6280 N   0  0  0  0  0  0  0  0  0  0  0  0
  134.5740   72.8960  225.2600 C   0  0  0  0  0  0  0  0  0  0  0  0
  133.0850   73.1960  225.1560 C   0  0  0  0  0  0  0  0  0  0  0  0
  132.8730   74.4120  226.0100 C   0  0  0  0  0  0  0  0  0  0  0  0
  131.6960   74.5070  226.7490 C   0  0  0  0  0  0  0  0  0  0  0  0
  131.5250   75.6430  227.5310 C   0  0  0  0  0  0  0  0  0  0  0  0
  132.4790   76.6400  227.5790 C   0  0  0  0  0  0  0  0  0  0  0  0
  133.6540   76.5360  226.8360 C   0  0  0  0  0  0  0  0  0  0  0  0
  133.8250   75.4100  226.0600 C   0  0  0  0  0  0  0  0  0  0  0  0
  135.0980   75.3220  225.2710 C   0  0  0  0  0  0  0  0  0  0  0  0
  136.8950   74.7710  223.0910 N   0  0  0  0  0  0  0  0  0  0  0  0
  137.6410   74.6860  221.9610 C   0  0  0  0  0  0  0  0  0  0  0  0
  138.6120   75.6850  221.6660 N   0  0  0  0  0  0  0  0  0  0  0  0
  139.9560   75.3040  221.3740 C   0  0  0  0  0  0  0  0  0  0  0  0
  140.9390   76.4060  221.3200 C   0  0  0  0  0  0  0  0  0  0  0  0
  140.5730   77.5600  222.1660 C   0  0  0  0  0  0  0  0  0  0  0  0
  141.5120   78.3320  222.8030 C   0  0  0  0  0  0  0  0  0  0  0  0
  141.1490   79.4130  223.5940 C   0  0  0  0  0  0  0  0  0  0  0  0
  139.8230   79.7700  223.7830 C   0  0  0  0  0  0  0  0  0  0  0  0
  138.8780   78.9940  223.1420 C   0  0  0  0  0  0  0  0  0  0  0  0
  139.2370   77.9240  222.3600 C   0  0  0  0  0  0  0  0  0  0  0  0
  138.2340   77.0800  221.6660 C   0  0  0  0  0  0  0  0  0  0  0  0
  137.4020   73.6280  221.1730 N   0  0  0  0  0  0  0  0  0  0  0  0
  138.8000   69.6860  222.1110 C   0  0  0  0  0  0  0  0  0  0  0  0
  138.6830   70.1600  223.4960 N   0  0  0  0  0  0  0  0  0  0  0  0
  139.1840   71.4950  223.5430 C   0  0  0  0  0  0  0  0  0  0  0  0
  140.6130   71.5040  224.0730 C   0  0  0  0  0  0  0  0  0  0  0  0
  140.4860   71.0440  225.5010 C   0  0  0  0  0  0  0  0  0  0  0  0
  141.0280   71.7420  226.5500 C   0  0  0  0  0  0  0  0  0  0  0  0
  140.8380   71.2120  227.8170 C   0  0  0  0  0  0  0  0  0  0  0  0
  140.1260   70.0220  227.9920 C   0  0  0  0  0  0  0  0  0  0  0  0
  139.5910   69.3420  226.9140 C   0  0  0  0  0  0  0  0  0  0  0  0
  139.7740   69.8570  225.6670 C   0  0  0  0  0  0  0  0  0  0  0  0
  139.2570   69.2350  224.4160 C   0  0  0  0  0  0  0  0  0  0  0  0
  136.2790   69.2920  223.2260 H   0  0  0  0  0  0  0  0  0  0  0  0
  136.6990   70.9690  223.0140 H   0  0  0  0  0  0  0  0  0  0  0  0
  137.1220   68.6924  221.1554 H   0  0  0  0  0  0  0  0  0  0  0  0
  138.3136   71.2086  220.3291 H   0  0  0  0  0  0  0  0  0  0  0  0
  137.2400   70.0912  219.4315 H   0  0  0  0  0  0  0  0  0  0  0  0
  135.3400   71.4850  220.1240 H   0  0  0  0  0  0  0  0  0  0  0  0
  134.8190   71.9632  224.7309 H   0  0  0  0  0  0  0  0  0  0  0  0
  134.8977   72.7593  226.3024 H   0  0  0  0  0  0  0  0  0  0  0  0
  132.8042   73.4026  224.1127 H   0  0  0  0  0  0  0  0  0  0  0  0
  132.4685   72.3469  225.4860 H   0  0  0  0  0  0  0  0  0  0  0  0
  130.9331   73.7152  226.7149 H   0  0  0  0  0  0  0  0  0  0  0  0
  130.6065   75.7506  228.1267 H   0  0  0  0  0  0  0  0  0  0  0  0
  132.3102   77.5252  228.2098 H   0  0  0  0  0  0  0  0  0  0  0  0
  134.4188   77.3260  226.8680 H   0  0  0  0  0  0  0  0  0  0  0  0
  135.0981   76.1075  224.5009 H   0  0  0  0  0  0  0  0  0  0  0  0
  135.9452   75.4549  225.9600 H   0  0  0  0  0  0  0  0  0  0  0  0
  140.2831   74.5976  222.1512 H   0  0  0  0  0  0  0  0  0  0  0  0
  139.9319   74.8750  220.3614 H   0  0  0  0  0  0  0  0  0  0  0  0
  141.9129   76.0214  221.6571 H   0  0  0  0  0  0  0  0  0  0  0  0
  140.9704   76.7627  220.2799 H   0  0  0  0  0  0  0  0  0  0  0  0
  142.5780   78.0881  222.6837 H   0  0  0  0  0  0  0  0  0  0  0  0
  141.9363   80.0036  224.0852 H   0  0  0  0  0  0  0  0  0  0  0  0
  139.5384   80.6270  224.4111 H   0  0  0  0  0  0  0  0  0  0  0  0
  137.8122   79.2388  223.2606 H   0  0  0  0  0  0  0  0  0  0  0  0
  137.2654   77.1861  222.1764 H   0  0  0  0  0  0  0  0  0  0  0  0
  138.1698   77.4162  220.6206 H   0  0  0  0  0  0  0  0  0  0  0  0
  139.2168   68.6682  222.0933 H   0  0  0  0  0  0  0  0  0  0  0  0
  139.4711   70.3339  221.5281 H   0  0  0  0  0  0  0  0  0  0  0  0
  139.1696   71.9241  222.5302 H   0  0  0  0  0  0  0  0  0  0  0  0
  138.5492   72.0926  224.2138 H   0  0  0  0  0  0  0  0  0  0  0  0
  141.2463   70.8135  223.4966 H   0  0  0  0  0  0  0  0  0  0  0  0
  141.0838   72.4948  223.9921 H   0  0  0  0  0  0  0  0  0  0  0  0
  141.5863   72.6768  226.3936 H   0  0  0  0  0  0  0  0  0  0  0  0
  141.2516   71.7331  228.6930 H   0  0  0  0  0  0  0  0  0  0  0  0
  139.9889   69.6192  229.0064 H   0  0  0  0  0  0  0  0  0  0  0  0
  139.0306   68.4068  227.0602 H   0  0  0  0  0  0  0  0  0  0  0  0
  140.0920   68.7235  223.9148 H   0  0  0  0  0  0  0  0  0  0  0  0
  138.4525   68.5470  224.7149 H   0  0  0  0  0  0  0  0  0  0  0  0
  1  2  1  0
  2  3  1  0
  3  4  1  0
  4  5  1  0
  5  6  2  0
  6  7  1  0
  7  8  1  0
  8  9  1  0
  9 10  1  0
 10 11  1  0
 11 12  2  0
 12 13  1  0
 13 14  2  0
 14 15  1  0
 15 16  2  0
 16 17  1  0
  7 18  2  0
 18 19  1  0
 19 20  1  0
 20 21  1  0
 21 22  1  0
 22 23  1  0
 23 24  2  0
 24 25  1  0
 25 26  2  0
 26 27  1  0
 27 28  2  0
 28 29  1  0
 19 30  2  0
  2 31  1  0
 31 32  1  0
 32 33  1  0
 33 34  1  0
 34 35  1  0
 35 36  2  0
 36 37  1  0
 37 38  2  0
 38 39  1  0
 39 40  2  0
 40 41  1  0
 30  5  1  0
 41 32  1  0
 17  8  1  0
 29 20  1  0
 40 35  1  0
 16 11  1  0
 28 23  1  0
  1 42  1  0
  1 43  1  0
  2 44  1  6
  3 45  1  0
  3 46  1  0
  4 47  1  0
  9 48  1  0
  9 49  1  0
 10 50  1  0
 10 51  1  0
 12 52  1  0
 13 53  1  0
 14 54  1  0
 15 55  1  0
 17 56  1  0
 17 57  1  0
 21 58  1  0
 21 59  1  0
 22 60  1  0
 22 61  1  0
 24 62  1  0
 25 63  1  0
 26 64  1  0
 27 65  1  0
 29 66  1  0
 29 67  1  0
 31 68  1  0
 31 69  1  0
 33 70  1  0
 33 71  1  0
 34 72  1  0
 34 73  1  0
 36 74  1  0
 37 75  1  0
 38 76  1  0
 39 77  1  0
 41 78  1  0
 41 79  1  0
M  END
>  <smiles>  (52) 
NC(CNc1nc(N2CCc3ccccc3C2)nc(N2CCc3ccccc3C2)n1)CN1CCc2ccccc2C1

>  <score_type>  (52) 
oracle

>  <origin>  (52) 
autodockgpu

>  <m_score__min__energy>  (52) 
-11.49

>  <m_primary>  (52) 
energy

>  <rmsd>  (52) 
4.325423527327044

>  <m_score__min__rmsd>  (52) 
4.325423527327044

>  <meeko>  (52) 
{"free_energy": -8.92, "intermolecular_energy": -11.31, "internal_energy": -3.46, "cluster_size": 2, "cluster_id": 7, "rank_in_cluster": 2}

>  <energy>  (52) 
-11.45

>  <cluster_rmsd>  (52) 
0.79

>  <cluster>  (52) 
1

$$$$

     RDKit          3D

 79 85  0  0  1  0  0  0  0  0999 V2000
  139.4620   74.9270  222.4080 N   0  0  0  0  0  0  0  0  0  0  0  0
  139.3940   75.4860  221.0760 C   0  0  1  0  0  0  0  0  0  0  0  0
  138.3790   74.7810  220.2230 C   0  0  0  0  0  0  0  0  0  0  0  0
  138.5420   73.3540  220.3930 N   0  0  0  0  0  0  0  0  0  0  0  0
  138.0540   72.7810  221.6200 C   0  0  0  0  0  0  0  0  0  0  0  0
  136.8890   73.1930  222.1760 N   0  0  0  0  0  0  0  0  0  0  0  0
  136.4210   72.6700  223.3230 C   0  0  0  0  0  0  0  0  0  0  0  0
  135.1980   73.0890  223.9210 N   0  0  0  0  0  0  0  0  0  0  0  0
  134.6770   74.4230  223.6830 C   0  0  0  0  0  0  0  0  0  0  0  0
  134.7410   75.1160  225.0370 C   0  0  0  0  0  0  0  0  0  0  0  0
  133.7690   74.3680  225.9030 C   0  0  0  0  0  0  0  0  0  0  0  0
  133.0170   75.0850  226.8290 C   0  0  0  0  0  0  0  0  0  0  0  0
  132.1240   74.3680  227.6170 C   0  0  0  0  0  0  0  0  0  0  0  0
  131.9830   73.0000  227.4910 C   0  0  0  0  0  0  0  0  0  0  0  0
  132.7410   72.2900  226.5600 C   0  0  0  0  0  0  0  0  0  0  0  0
  133.6270   73.0000  225.7780 C   0  0  0  0  0  0  0  0  0  0  0  0
  134.4290   72.2140  224.7840 C   0  0  0  0  0  0  0  0  0  0  0  0
  137.1450   71.7090  223.9210 N   0  0  0  0  0  0  0  0  0  0  0  0
  138.3190   71.2520  223.4190 C   0  0  0  0  0  0  0  0  0  0  0  0
  139.0420   70.2310  224.1000 N   0  0  0  0  0  0  0  0  0  0  0  0
  138.5100   68.9080  224.1650 C   0  0  0  0  0  0  0  0  0  0  0  0
  139.2010   67.9840  225.0890 C   0  0  0  0  0  0  0  0  0  0  0  0
  139.8550   68.6680  226.2230 C   0  0  0  0  0  0  0  0  0  0  0  0
  139.9490   68.1010  227.4690 C   0  0  0  0  0  0  0  0  0  0  0  0
  140.5680   68.7600  228.5220 C   0  0  0  0  0  0  0  0  0  0  0  0
  141.1250   70.0210  228.3720 C   0  0  0  0  0  0  0  0  0  0  0  0
  141.0310   70.5910  227.1180 C   0  0  0  0  0  0  0  0  0  0  0  0
  140.4180   69.9400  226.0770 C   0  0  0  0  0  0  0  0  0  0  0  0
  140.3080   70.5400  224.7240 C   0  0  0  0  0  0  0  0  0  0  0  0
  138.7310   71.8140  222.2730 N   0  0  0  0  0  0  0  0  0  0  0  0
  139.0010   76.9400  221.1920 C   0  0  0  0  0  0  0  0  0  0  0  0
  139.8470   77.5260  222.2400 N   0  0  0  0  0  0  0  0  0  0  0  0
  139.0290   78.3910  223.0260 C   0  0  0  0  0  0  0  0  0  0  0  0
  139.2290   79.8400  222.5980 C   0  0  0  0  0  0  0  0  0  0  0  0
  140.6560   80.1460  222.9680 C   0  0  0  0  0  0  0  0  0  0  0  0
  141.0030   81.2430  223.7170 C   0  0  0  0  0  0  0  0  0  0  0  0
  142.3520   81.4090  223.9900 C   0  0  0  0  0  0  0  0  0  0  0  0
  143.2950   80.4930  223.5150 C   0  0  0  0  0  0  0  0  0  0  0  0
  142.9130   79.3970  222.7630 C   0  0  0  0  0  0  0  0  0  0  0  0
  141.5900   79.2270  222.4920 C   0  0  0  0  0  0  0  0  0  0  0  0
  141.0330   78.0980  221.6950 C   0  0  0  0  0  0  0  0  0  0  0  0
  139.8700   75.5820  223.0940 H   0  0  0  0  0  0  0  0  0  0  0  0
  138.5950   74.4600  222.7050 H   0  0  0  0  0  0  0  0  0  0  0  0
  140.3786   75.3681  220.6000 H   0  0  0  0  0  0  0  0  0  0  0  0
  137.3657   75.0773  220.5320 H   0  0  0  0  0  0  0  0  0  0  0  0
  138.5238   75.0518  219.1667 H   0  0  0  0  0  0  0  0  0  0  0  0
  138.9710   72.7120  219.7160 H   0  0  0  0  0  0  0  0  0  0  0  0
  135.2970   74.9549  222.9463 H   0  0  0  0  0  0  0  0  0  0  0  0
  133.6551   74.4020  223.2765 H   0  0  0  0  0  0  0  0  0  0  0  0
  135.7568   75.0554  225.4546 H   0  0  0  0  0  0  0  0  0  0  0  0
  134.4928   76.1853  224.9659 H   0  0  0  0  0  0  0  0  0  0  0  0
  133.1249   76.1747  226.9331 H   0  0  0  0  0  0  0  0  0  0  0  0
  131.5144   74.9037  228.3595 H   0  0  0  0  0  0  0  0  0  0  0  0
  131.2659   72.4651  228.1311 H   0  0  0  0  0  0  0  0  0  0  0  0
  132.6354   71.2003  226.4533 H   0  0  0  0  0  0  0  0  0  0  0  0
  135.1174   71.5480  225.3249 H   0  0  0  0  0  0  0  0  0  0  0  0
  133.7355   71.6312  224.1600 H   0  0  0  0  0  0  0  0  0  0  0  0
  137.4596   68.9814  224.4832 H   0  0  0  0  0  0  0  0  0  0  0  0
  138.6428   68.4817  223.1597 H   0  0  0  0  0  0  0  0  0  0  0  0
  138.4622   67.2741  225.4893 H   0  0  0  0  0  0  0  0  0  0  0  0
  139.9921   67.4809  224.5135 H   0  0  0  0  0  0  0  0  0  0  0  0
  139.5238   67.1006  227.6372 H   0  0  0  0  0  0  0  0  0  0  0  0
  140.6182   68.2676  229.5043 H   0  0  0  0  0  0  0  0  0  0  0  0
  141.6161   70.5400  229.2083 H   0  0  0  0  0  0  0  0  0  0  0  0
  141.4576   71.5908  226.9493 H   0  0  0  0  0  0  0  0  0  0  0  0
  140.4050   71.6323  224.8102 H   0  0  0  0  0  0  0  0  0  0  0  0
  141.1088   70.1195  224.0980 H   0  0  0  0  0  0  0  0  0  0  0  0
  139.1713   77.4558  220.2354 H   0  0  0  0  0  0  0  0  0  0  0  0
  137.9348   77.0419  221.4426 H   0  0  0  0  0  0  0  0  0  0  0  0
  137.9730   78.1147  222.8899 H   0  0  0  0  0  0  0  0  0  0  0  0
  139.3118   78.2877  224.0840 H   0  0  0  0  0  0  0  0  0  0  0  0
  139.0755   79.9505  221.5144 H   0  0  0  0  0  0  0  0  0  0  0  0
  138.5148   80.5225  223.0817 H   0  0  0  0  0  0  0  0  0  0  0  0
  140.2482   81.9549  224.0823 H   0  0  0  0  0  0  0  0  0  0  0  0
  142.6840   82.2711  224.5871 H   0  0  0  0  0  0  0  0  0  0  0  0
  144.3600   80.6467  223.7434 H   0  0  0  0  0  0  0  0  0  0  0  0
  143.6604   78.6799  222.3928 H   0  0  0  0  0  0  0  0  0  0  0  0
  140.8042   78.4689  220.6850 H   0  0  0  0  0  0  0  0  0  0  0  0
  141.7952   77.3048  221.6960 H   0  0  0  0  0  0  0  0  0  0  0  0
  1  2  1  0
  2  3  1  0
  3  4  1  0
  4  5  1  0
  5  6  2  0
  6  7  1  0
  7  8  1  0
  8  9  1  0
  9 10  1  0
 10 11  1  0
 11 12  2  0
 12 13  1  0
 13 14  2  0
 14 15  1  0
 15 16  2  0
 16 17  1  0
  7 18  2  0
 18 19  1  0
 19 20  1  0
 20 21  1  0
 21 22  1  0
 22 23  1  0
 23 24  2  0
 24 25  1  0
 25 26  2  0
 26 27  1  0
 27 28  2  0
 28 29  1  0
 19 30  2  0
  2 31  1  0
 31 32  1  0
 32 33  1  0
 33 34  1  0
 34 35  1  0
 35 36  2  0
 36 37  1  0
 37 38  2  0
 38 39  1  0
 39 40  2  0
 40 41  1  0
 30  5  1  0
 41 32  1  0
 17  8  1  0
 29 20  1  0
 40 35  1  0
 16 11  1  0
 28 23  1  0
  1 42  1  0
  1 43  1  0
  2 44  1  6
  3 45  1  0
  3 46  1  0
  4 47  1  0
  9 48  1  0
  9 49  1  0
 10 50  1  0
 10 51  1  0
 12 52  1  0
 13 53  1  0
 14 54  1  0
 15 55  1  0
 17 56  1  0
 17 57  1  0
 21 58  1  0
 21 59  1  0
 22 60  1  0
 22 61  1  0
 24 62  1  0
 25 63  1  0
 26 64  1  0
 27 65  1  0
 29 66  1  0
 29 67  1  0
 31 68  1  0
 31 69  1  0
 33 70  1  0
 33 71  1  0
 34 72  1  0
 34 73  1  0
 36 74  1  0
 37 75  1  0
 38 76  1  0
 39 77  1  0
 41 78  1  0
 41 79  1  0
M  END
>  <smiles>  (53) 
NC(CNc1nc(N2CCc3ccccc3C2)nc(N2CCc3ccccc3C2)n1)CN1CCc2ccccc2C1

>  <score_type>  (53) 
oracle

>  <origin>  (53) 
autodockgpu

>  <m_score__min__energy>  (53) 
-11.49

>  <m_primary>  (53) 
energy

>  <rmsd>  (53) 
9.689491787211677

>  <m_score__min__rmsd>  (53) 
9.689491787211677

>  <meeko>  (53) 
{"free_energy": -11.49, "intermolecular_energy": -13.88, "internal_energy": -2.45, "cluster_size": 16, "cluster_id": 1, "rank_in_cluster": 1}

>  <energy>  (53) 
-11.32

>  <cluster_rmsd>  (53) 
0.79

>  <cluster>  (53) 
1

$$$$

     RDKit          3D

 79 85  0  0  1  0  0  0  0  0999 V2000
  137.3540   76.5810  220.6700 N   0  0  0  0  0  0  0  0  0  0  0  0
  136.8230   76.4000  222.0030 C   0  0  1  0  0  0  0  0  0  0  0  0
  136.3260   75.0000  222.2230 C   0  0  0  0  0  0  0  0  0  0  0  0
  136.9740   74.1230  221.2730 N   0  0  0  0  0  0  0  0  0  0  0  0
  138.3310   73.7380  221.5580 C   0  0  0  0  0  0  0  0  0  0  0  0
  138.6170   72.7940  222.4870 N   0  0  0  0  0  0  0  0  0  0  0  0
  139.8790   72.4240  222.7660 C   0  0  0  0  0  0  0  0  0  0  0  0
  140.1980   71.4330  223.7380 N   0  0  0  0  0  0  0  0  0  0  0  0
  139.9190   70.0310  223.4850 C   0  0  0  0  0  0  0  0  0  0  0  0
  138.8520   69.6540  224.5020 C   0  0  0  0  0  0  0  0  0  0  0  0
  139.5270   69.7770  225.8380 C   0  0  0  0  0  0  0  0  0  0  0  0
  139.2030   68.8570  226.8310 C   0  0  0  0  0  0  0  0  0  0  0  0
  139.8440   68.9920  228.0580 C   0  0  0  0  0  0  0  0  0  0  0  0
  140.7630   69.9960  228.2880 C   0  0  0  0  0  0  0  0  0  0  0  0
  141.0810   70.9120  227.2860 C   0  0  0  0  0  0  0  0  0  0  0  0
  140.4470   70.7790  226.0690 C   0  0  0  0  0  0  0  0  0  0  0  0
  140.8070   71.7760  225.0090 C   0  0  0  0  0  0  0  0  0  0  0  0
  140.8760   73.0210  222.0900 N   0  0  0  0  0  0  0  0  0  0  0  0
  140.6600   73.9730  221.1490 C   0  0  0  0  0  0  0  0  0  0  0  0
  141.7590   74.5700  220.4670 N   0  0  0  0  0  0  0  0  0  0  0  0
  141.5250   75.6120  219.5210 C   0  0  0  0  0  0  0  0  0  0  0  0
  142.6870   76.0000  218.6930 C   0  0  0  0  0  0  0  0  0  0  0  0
  143.6550   74.9030  218.4910 C   0  0  0  0  0  0  0  0  0  0  0  0
  144.3730   74.7600  217.3300 C   0  0  0  0  0  0  0  0  0  0  0  0
  145.2790   73.7230  217.1600 C   0  0  0  0  0  0  0  0  0  0  0  0
  145.5070   72.7790  218.1490 C   0  0  0  0  0  0  0  0  0  0  0  0
  144.7850   72.9230  219.3170 C   0  0  0  0  0  0  0  0  0  0  0  0
  143.8890   73.9480  219.4850 C   0  0  0  0  0  0  0  0  0  0  0  0
  143.1040   74.1160  220.7340 C   0  0  0  0  0  0  0  0  0  0  0  0
  139.3790   74.2970  220.9180 N   0  0  0  0  0  0  0  0  0  0  0  0
  137.9270   76.6810  222.9950 C   0  0  0  0  0  0  0  0  0  0  0  0
  138.7760   77.7210  222.4000 N   0  0  0  0  0  0  0  0  0  0  0  0
  140.0120   77.1120  222.0280 C   0  0  0  0  0  0  0  0  0  0  0  0
  141.0780   77.3930  223.0810 C   0  0  0  0  0  0  0  0  0  0  0  0
  141.2930   78.8820  223.0090 C   0  0  0  0  0  0  0  0  0  0  0  0
  142.5400   79.4380  222.8700 C   0  0  0  0  0  0  0  0  0  0  0  0
  142.6020   80.8220  222.8130 C   0  0  0  0  0  0  0  0  0  0  0  0
  141.4380   81.5920  222.8960 C   0  0  0  0  0  0  0  0  0  0  0  0
  140.1970   81.0010  223.0350 C   0  0  0  0  0  0  0  0  0  0  0  0
  140.1290   79.6420  223.0910 C   0  0  0  0  0  0  0  0  0  0  0  0
  138.8640   78.8690  223.2400 C   0  0  0  0  0  0  0  0  0  0  0  0
  137.7200   77.5330  220.5140 H   0  0  0  0  0  0  0  0  0  0  0  0
  137.9690   75.8160  220.3620 H   0  0  0  0  0  0  0  0  0  0  0  0
  135.9742   77.0872  222.1341 H   0  0  0  0  0  0  0  0  0  0  0  0
  136.5665   74.6786  223.2471 H   0  0  0  0  0  0  0  0  0  0  0  0
  135.2355   74.9633  222.0835 H   0  0  0  0  0  0  0  0  0  0  0  0
  136.5530   73.7480  220.4150 H   0  0  0  0  0  0  0  0  0  0  0  0
  139.5442   69.8898  222.4605 H   0  0  0  0  0  0  0  0  0  0  0  0
  140.8195   69.4063  223.5789 H   0  0  0  0  0  0  0  0  0  0  0  0
  137.9958   70.3415  224.4368 H   0  0  0  0  0  0  0  0  0  0  0  0
  138.4572   68.6417  224.3304 H   0  0  0  0  0  0  0  0  0  0  0  0
  138.4702   68.0562  226.6527 H   0  0  0  0  0  0  0  0  0  0  0  0
  139.6129   68.2811  228.8650 H   0  0  0  0  0  0  0  0  0  0  0  0
  141.2493   70.0742  229.2716 H   0  0  0  0  0  0  0  0  0  0  0  0
  141.8133   71.7140  227.4607 H   0  0  0  0  0  0  0  0  0  0  0  0
  140.4555   72.7714  225.3183 H   0  0  0  0  0  0  0  0  0  0  0  0
  141.8999   71.7723  224.8840 H   0  0  0  0  0  0  0  0  0  0  0  0
  140.7237   75.2803  218.8443 H   0  0  0  0  0  0  0  0  0  0  0  0
  141.2687   76.5026  220.1136 H   0  0  0  0  0  0  0  0  0  0  0  0
  142.3203   76.3272  217.7089 H   0  0  0  0  0  0  0  0  0  0  0  0
  143.2137   76.8037  219.2284 H   0  0  0  0  0  0  0  0  0  0  0  0
  144.2267   75.4845  216.5153 H   0  0  0  0  0  0  0  0  0  0  0  0
  145.8326   73.6478  216.2125 H   0  0  0  0  0  0  0  0  0  0  0  0
  146.2257   71.9579  218.0105 H   0  0  0  0  0  0  0  0  0  0  0  0
  144.9317   72.1988  220.1319 H   0  0  0  0  0  0  0  0  0  0  0  0
  143.0560   73.1494  221.2568 H   0  0  0  0  0  0  0  0  0  0  0  0
  143.6044   74.8761  221.3519 H   0  0  0  0  0  0  0  0  0  0  0  0
  137.5014   77.0369  223.9448 H   0  0  0  0  0  0  0  0  0  0  0  0
  138.5074   75.7713  223.2084 H   0  0  0  0  0  0  0  0  0  0  0  0
  139.8684   76.0251  221.9379 H   0  0  0  0  0  0  0  0  0  0  0  0
  140.3412   77.5296  221.0651 H   0  0  0  0  0  0  0  0  0  0  0  0
  140.7250   77.0986  224.0804 H   0  0  0  0  0  0  0  0  0  0  0  0
  142.0038   76.8267  222.9016 H   0  0  0  0  0  0  0  0  0  0  0  0
  143.4454   78.8165  222.8069 H   0  0  0  0  0  0  0  0  0  0  0  0
  143.5769   81.3192  222.7014 H   0  0  0  0  0  0  0  0  0  0  0  0
  141.5116   82.6886  222.8498 H   0  0  0  0  0  0  0  0  0  0  0  0
  139.2856   81.6135  223.0989 H   0  0  0  0  0  0  0  0  0  0  0  0
  138.7839   78.5376  224.2858 H   0  0  0  0  0  0  0  0  0  0  0  0
  138.0466   79.5417  222.9410 H   0  0  0  0  0  0  0  0  0  0  0  0
  1  2  1  0
  2  3  1  0
  3  4  1  0
  4  5  1  0
  5  6  2  0
  6  7  1  0
  7  8  1  0
  8  9  1  0
  9 10  1  0
 10 11  1  0
 11 12  2  0
 12 13  1  0
 13 14  2  0
 14 15  1  0
 15 16  2  0
 16 17  1  0
  7 18  2  0
 18 19  1  0
 19 20  1  0
 20 21  1  0
 21 22  1  0
 22 23  1  0
 23 24  2  0
 24 25  1  0
 25 26  2  0
 26 27  1  0
 27 28  2  0
 28 29  1  0
 19 30  2  0
  2 31  1  0
 31 32  1  0
 32 33  1  0
 33 34  1  0
 34 35  1  0
 35 36  2  0
 36 37  1  0
 37 38  2  0
 38 39  1  0
 39 40  2  0
 40 41  1  0
 30  5  1  0
 41 32  1  0
 17  8  1  0
 29 20  1  0
 40 35  1  0
 16 11  1  0
 28 23  1  0
  1 42  1  0
  1 43  1  0
  2 44  1  1
  3 45  1  0
  3 46  1  0
  4 47  1  0
  9 48  1  0
  9 49  1  0
 10 50  1  0
 10 51  1  0
 12 52  1  0
 13 53  1  0
 14 54  1  0
 15 55  1  0
 17 56  1  0
 17 57  1  0
 21 58  1  0
 21 59  1  0
 22 60  1  0
 22 61  1  0
 24 62  1  0
 25 63  1  0
 26 64  1  0
 27 65  1  0
 29 66  1  0
 29 67  1  0
 31 68  1  0
 31 69  1  0
 33 70  1  0
 33 71  1  0
 34 72  1  0
 34 73  1  0
 36 74  1  0
 37 75  1  0
 38 76  1  0
 39 77  1  0
 41 78  1  0
 41 79  1  0
M  END
>  <smiles>  (54) 
NC(CNc1nc(N2CCc3ccccc3C2)nc(N2CCc3ccccc3C2)n1)CN1CCc2ccccc2C1

>  <score_type>  (54) 
oracle

>  <origin>  (54) 
autodockgpu

>  <m_score__min__energy>  (54) 
-11.49

>  <m_primary>  (54) 
energy

>  <rmsd>  (54) 
9.35073833370179

>  <m_score__min__rmsd>  (54) 
9.35073833370179

>  <meeko>  (54) 
{"free_energy": -9.3, "intermolecular_energy": -11.68, "internal_energy": -3.49, "cluster_size": 11, "cluster_id": 4, "rank_in_cluster": 2}

>  <energy>  (54) 
-11.31

>  <cluster_rmsd>  (54) 
0.82

>  <cluster>  (54) 
1

$$$$

     RDKit          3D

 79 85  0  0  1  0  0  0  0  0999 V2000
  143.7020   76.8150  219.3270 N   0  0  0  0  0  0  0  0  0  0  0  0
  143.3680   76.3680  217.9920 C   0  0  1  0  0  0  0  0  0  0  0  0
  142.8340   74.9640  217.9880 C   0  0  0  0  0  0  0  0  0  0  0  0
  143.1810   74.3320  219.2420 N   0  0  0  0  0  0  0  0  0  0  0  0
  142.1920   74.3650  220.2870 C   0  0  0  0  0  0  0  0  0  0  0  0
  141.5950   73.2310  220.7290 N   0  0  0  0  0  0  0  0  0  0  0  0
  140.6680   73.2440  221.7030 C   0  0  0  0  0  0  0  0  0  0  0  0
  140.0310   72.0620  222.1790 N   0  0  0  0  0  0  0  0  0  0  0  0
  138.8340   71.5540  221.5320 C   0  0  0  0  0  0  0  0  0  0  0  0
  137.7340   71.7020  222.5740 C   0  0  0  0  0  0  0  0  0  0  0  0
  138.1170   70.7630  223.6810 C   0  0  0  0  0  0  0  0  0  0  0  0
  137.1070   70.0740  224.3470 C   0  0  0  0  0  0  0  0  0  0  0  0
  137.4900   69.2110  225.3660 C   0  0  0  0  0  0  0  0  0  0  0  0
  138.8160   69.0390  225.7100 C   0  0  0  0  0  0  0  0  0  0  0  0
  139.8210   69.7320  225.0370 C   0  0  0  0  0  0  0  0  0  0  0  0
  139.4430   70.5890  224.0250 C   0  0  0  0  0  0  0  0  0  0  0  0
  140.5420   71.3230  223.3170 C   0  0  0  0  0  0  0  0  0  0  0  0
  140.3370   74.4280  222.2440 N   0  0  0  0  0  0  0  0  0  0  0  0
  140.8950   75.5990  221.8490 C   0  0  0  0  0  0  0  0  0  0  0  0
  140.5010   76.8240  222.4610 N   0  0  0  0  0  0  0  0  0  0  0  0
  139.1900   77.3400  222.2360 C   0  0  0  0  0  0  0  0  0  0  0  0
  138.9540   78.7220  222.7070 C   0  0  0  0  0  0  0  0  0  0  0  0
  140.1760   79.5510  222.7280 C   0  0  0  0  0  0  0  0  0  0  0  0
  140.1560   80.8970  222.4630 C   0  0  0  0  0  0  0  0  0  0  0  0
  141.3140   81.6600  222.4880 C   0  0  0  0  0  0  0  0  0  0  0  0
  142.5510   81.1050  222.7800 C   0  0  0  0  0  0  0  0  0  0  0  0
  142.5720   79.7510  223.0470 C   0  0  0  0  0  0  0  0  0  0  0  0
  141.4260   78.9960  223.0210 C   0  0  0  0  0  0  0  0  0  0  0  0
  141.4320   77.5390  223.3040 C   0  0  0  0  0  0  0  0  0  0  0  0
  141.8120   75.5190  220.8740 N   0  0  0  0  0  0  0  0  0  0  0  0
  142.3090   77.2900  217.4360 C   0  0  0  0  0  0  0  0  0  0  0  0
  142.1780   78.4050  218.3810 N   0  0  0  0  0  0  0  0  0  0  0  0
  140.9570   78.2280  219.0970 C   0  0  0  0  0  0  0  0  0  0  0  0
  139.8650   79.1120  218.5060 C   0  0  0  0  0  0  0  0  0  0  0  0
  140.3270   80.5180  218.7870 C   0  0  0  0  0  0  0  0  0  0  0  0
  139.5230   81.4470  219.3980 C   0  0  0  0  0  0  0  0  0  0  0  0
  140.0700   82.7060  219.6010 C   0  0  0  0  0  0  0  0  0  0  0  0
  141.3770   82.9890  219.1960 C   0  0  0  0  0  0  0  0  0  0  0  0
  142.1610   82.0300  218.5830 C   0  0  0  0  0  0  0  0  0  0  0  0
  141.6310   80.7920  218.3800 C   0  0  0  0  0  0  0  0  0  0  0  0
  142.3560   79.6630  217.7340 C   0  0  0  0  0  0  0  0  0  0  0  0
  144.0400   77.7900  219.3460 H   0  0  0  0  0  0  0  0  0  0  0  0
  142.9920   76.5800  220.0320 H   0  0  0  0  0  0  0  0  0  0  0  0
  144.2825   76.3848  217.3810 H   0  0  0  0  0  0  0  0  0  0  0  0
  141.7401   74.9844  217.8741 H   0  0  0  0  0  0  0  0  0  0  0  0
  143.2702   74.3996  217.1507 H   0  0  0  0  0  0  0  0  0  0  0  0
  144.0680   73.8610  219.4540 H   0  0  0  0  0  0  0  0  0  0  0  0
  138.5989   72.1445  220.6342 H   0  0  0  0  0  0  0  0  0  0  0  0
  138.9528   70.5121  221.1997 H   0  0  0  0  0  0  0  0  0  0  0  0
  137.6886   72.7370  222.9436 H   0  0  0  0  0  0  0  0  0  0  0  0
  136.7409   71.4705  222.1615 H   0  0  0  0  0  0  0  0  0  0  0  0
  136.0490   70.2075  224.0773 H   0  0  0  0  0  0  0  0  0  0  0  0
  136.7173   68.6505  225.9126 H   0  0  0  0  0  0  0  0  0  0  0  0
  139.0821   68.3480  226.5235 H   0  0  0  0  0  0  0  0  0  0  0  0
  140.8798   69.5997  225.3042 H   0  0  0  0  0  0  0  0  0  0  0  0
  141.0139   72.0263  224.0189 H   0  0  0  0  0  0  0  0  0  0  0  0
  141.2745   70.5871  222.9538 H   0  0  0  0  0  0  0  0  0  0  0  0
  138.9984   77.3149  221.1531 H   0  0  0  0  0  0  0  0  0  0  0  0
  138.5127   76.7035  222.8243 H   0  0  0  0  0  0  0  0  0  0  0  0
  138.2212   79.1978  222.0387 H   0  0  0  0  0  0  0  0  0  0  0  0
  138.5895   78.6544  223.7427 H   0  0  0  0  0  0  0  0  0  0  0  0
  139.1983   81.3829  222.2249 H   0  0  0  0  0  0  0  0  0  0  0  0
  141.2494   82.7362  222.2700 H   0  0  0  0  0  0  0  0  0  0  0  0
  143.4679   81.7124  222.7979 H   0  0  0  0  0  0  0  0  0  0  0  0
  143.5297   79.2656  223.2862 H   0  0  0  0  0  0  0  0  0  0  0  0
  142.4446   77.1466  223.1288 H   0  0  0  0  0  0  0  0  0  0  0  0
  141.1267   77.3930  224.3506 H   0  0  0  0  0  0  0  0  0  0  0  0
  142.6144   77.6650  216.4480 H   0  0  0  0  0  0  0  0  0  0  0  0
  141.3516   76.7624  217.3133 H   0  0  0  0  0  0  0  0  0  0  0  0
  140.6468   77.1747  219.0308 H   0  0  0  0  0  0  0  0  0  0  0  0
  141.1148   78.5087  220.1488 H   0  0  0  0  0  0  0  0  0  0  0  0
  139.7707   78.9425  217.4232 H   0  0  0  0  0  0  0  0  0  0  0  0
  138.8758   78.9017  218.9387 H   0  0  0  0  0  0  0  0  0  0  0  0
  138.4965   81.2058  219.7111 H   0  0  0  0  0  0  0  0  0  0  0  0
  139.4686   83.4892  220.0857 H   0  0  0  0  0  0  0  0  0  0  0  0
  141.7897   83.9940  219.3683 H   0  0  0  0  0  0  0  0  0  0  0  0
  143.1888   82.2612  218.2665 H   0  0  0  0  0  0  0  0  0  0  0  0
  141.9979   79.5714  216.6980 H   0  0  0  0  0  0  0  0  0  0  0  0
  143.4283   79.9004  217.7961 H   0  0  0  0  0  0  0  0  0  0  0  0
  1  2  1  0
  2  3  1  0
  3  4  1  0
  4  5  1  0
  5  6  2  0
  6  7  1  0
  7  8  1  0
  8  9  1  0
  9 10  1  0
 10 11  1  0
 11 12  2  0
 12 13  1  0
 13 14  2  0
 14 15  1  0
 15 16  2  0
 16 17  1  0
  7 18  2  0
 18 19  1  0
 19 20  1  0
 20 21  1  0
 21 22  1  0
 22 23  1  0
 23 24  2  0
 24 25  1  0
 25 26  2  0
 26 27  1  0
 27 28  2  0
 28 29  1  0
 19 30  2  0
  2 31  1  0
 31 32  1  0
 32 33  1  0
 33 34  1  0
 34 35  1  0
 35 36  2  0
 36 37  1  0
 37 38  2  0
 38 39  1  0
 39 40  2  0
 40 41  1  0
 30  5  1  0
 41 32  1  0
 17  8  1  0
 29 20  1  0
 40 35  1  0
 16 11  1  0
 28 23  1  0
  1 42  1  0
  1 43  1  0
  2 44  1  6
  3 45  1  0
  3 46  1  0
  4 47  1  0
  9 48  1  0
  9 49  1  0
 10 50  1  0
 10 51  1  0
 12 52  1  0
 13 53  1  0
 14 54  1  0
 15 55  1  0
 17 56  1  0
 17 57  1  0
 21 58  1  0
 21 59  1  0
 22 60  1  0
 22 61  1  0
 24 62  1  0
 25 63  1  0
 26 64  1  0
 27 65  1  0
 29 66  1  0
 29 67  1  0
 31 68  1  0
 31 69  1  0
 33 70  1  0
 33 71  1  0
 34 72  1  0
 34 73  1  0
 36 74  1  0
 37 75  1  0
 38 76  1  0
 39 77  1  0
 41 78  1  0
 41 79  1  0
M  END
>  <smiles>  (55) 
NC(CNc1nc(N2CCc3ccccc3C2)nc(N2CCc3ccccc3C2)n1)CN1CCc2ccccc2C1

>  <score_type>  (55) 
oracle

>  <origin>  (55) 
autodockgpu

>  <m_score__min__energy>  (55) 
-11.49

>  <m_primary>  (55) 
energy

>  <rmsd>  (55) 
11.940685394542633

>  <m_score__min__rmsd>  (55) 
11.940685394542633

>  <meeko>  (55) 
{"free_energy": -8.28, "intermolecular_energy": -10.67, "internal_energy": -4.52, "cluster_size": 3, "cluster_id": 5, "rank_in_cluster": 2}

>  <energy>  (55) 
-11.27

>  <cluster_rmsd>  (55) 
0.82

>  <cluster>  (55) 
1

$$$$

     RDKit          3D

 79 85  0  0  1  0  0  0  0  0999 V2000
  137.4610   76.3450  220.0100 N   0  0  0  0  0  0  0  0  0  0  0  0
  136.4040   76.7360  220.9170 C   0  0  1  0  0  0  0  0  0  0  0  0
  136.1600   75.6980  221.9750 C   0  0  0  0  0  0  0  0  0  0  0  0
  136.5960   74.4130  221.4740 N   0  0  0  0  0  0  0  0  0  0  0  0
  137.9690   74.0510  221.7090 C   0  0  0  0  0  0  0  0  0  0  0  0
  138.2950   72.9470  222.4240 N   0  0  0  0  0  0  0  0  0  0  0  0
  139.5720   72.5950  222.6540 C   0  0  0  0  0  0  0  0  0  0  0  0
  139.9330   71.4390  223.4020 N   0  0  0  0  0  0  0  0  0  0  0  0
  139.5860   70.1110  222.9270 C   0  0  0  0  0  0  0  0  0  0  0  0
  138.5910   69.5780  223.9490 C   0  0  0  0  0  0  0  0  0  0  0  0
  139.3760   69.4430  225.2210 C   0  0  0  0  0  0  0  0  0  0  0  0
  139.1010   68.3650  226.0580 C   0  0  0  0  0  0  0  0  0  0  0  0
  139.8430   68.2630  227.2300 C   0  0  0  0  0  0  0  0  0  0  0  0
  140.8130   69.1890  227.5560 C   0  0  0  0  0  0  0  0  0  0  0  0
  141.0810   70.2650  226.7110 C   0  0  0  0  0  0  0  0  0  0  0  0
  140.3460   70.3670  225.5480 C   0  0  0  0  0  0  0  0  0  0  0  0
  140.6540   71.5330  224.6570 C   0  0  0  0  0  0  0  0  0  0  0  0
  140.5420   73.3760  222.1490 N   0  0  0  0  0  0  0  0  0  0  0  0
  140.2860   74.4940  221.4250 C   0  0  0  0  0  0  0  0  0  0  0  0
  141.3590   75.2810  220.9170 N   0  0  0  0  0  0  0  0  0  0  0  0
  141.2310   76.7010  220.8590 C   0  0  0  0  0  0  0  0  0  0  0  0
  142.2830   77.4110  220.1010 C   0  0  0  0  0  0  0  0  0  0  0  0
  142.8880   76.5910  219.0310 C   0  0  0  0  0  0  0  0  0  0  0  0
  143.3240   77.1320  217.8480 C   0  0  0  0  0  0  0  0  0  0  0  0
  143.8900   76.3460  216.8550 C   0  0  0  0  0  0  0  0  0  0  0  0
  144.0460   74.9760  217.0040 C   0  0  0  0  0  0  0  0  0  0  0  0
  143.6080   74.4320  218.1940 C   0  0  0  0  0  0  0  0  0  0  0  0
  143.0470   75.2090  219.1760 C   0  0  0  0  0  0  0  0  0  0  0  0
  142.5700   74.6390  220.4600 C   0  0  0  0  0  0  0  0  0  0  0  0
  138.9930   74.7890  221.2320 N   0  0  0  0  0  0  0  0  0  0  0  0
  136.8100   78.0260  221.5900 C   0  0  0  0  0  0  0  0  0  0  0  0
  138.2730   78.1060  221.5040 N   0  0  0  0  0  0  0  0  0  0  0  0
  138.8050   77.7470  222.7780 C   0  0  0  0  0  0  0  0  0  0  0  0
  139.1720   78.9970  223.5690 C   0  0  0  0  0  0  0  0  0  0  0  0
  140.3040   79.6140  222.7910 C   0  0  0  0  0  0  0  0  0  0  0  0
  141.4950   79.9640  223.3770 C   0  0  0  0  0  0  0  0  0  0  0  0
  142.4570   80.5210  222.5490 C   0  0  0  0  0  0  0  0  0  0  0  0
  142.2040   80.7080  221.1870 C   0  0  0  0  0  0  0  0  0  0  0  0
  140.9940   80.3440  220.6260 C   0  0  0  0  0  0  0  0  0  0  0  0
  140.0450   79.7960  221.4340 C   0  0  0  0  0  0  0  0  0  0  0  0
  138.6980   79.3580  220.9710 C   0  0  0  0  0  0  0  0  0  0  0  0
  138.3850   76.7000  220.3020 H   0  0  0  0  0  0  0  0  0  0  0  0
  137.4330   75.3510  219.7460 H   0  0  0  0  0  0  0  0  0  0  0  0
  135.4766   76.8549  220.3376 H   0  0  0  0  0  0  0  0  0  0  0  0
  136.7276   75.9535  222.8820 H   0  0  0  0  0  0  0  0  0  0  0  0
  135.0888   75.6598  222.2223 H   0  0  0  0  0  0  0  0  0  0  0  0
  136.0140   73.7350  220.9680 H   0  0  0  0  0  0  0  0  0  0  0  0
  139.1253   70.1647  221.9296 H   0  0  0  0  0  0  0  0  0  0  0  0
  140.4686   69.4617  222.8301 H   0  0  0  0  0  0  0  0  0  0  0  0
  137.7577   70.2837  224.0819 H   0  0  0  0  0  0  0  0  0  0  0  0
  138.1469   68.6222  223.6340 H   0  0  0  0  0  0  0  0  0  0  0  0
  138.3287   67.6244  225.8029 H   0  0  0  0  0  0  0  0  0  0  0  0
  139.6519   67.4232  227.9142 H   0  0  0  0  0  0  0  0  0  0  0  0
  141.3803   69.0770  228.4918 H   0  0  0  0  0  0  0  0  0  0  0  0
  141.8524   71.0075  226.9631 H   0  0  0  0  0  0  0  0  0  0  0  0
  140.3636   72.4623  225.1689 H   0  0  0  0  0  0  0  0  0  0  0  0
  141.7324   71.5303  224.4402 H   0  0  0  0  0  0  0  0  0  0  0  0
  140.2628   76.9338  220.3917 H   0  0  0  0  0  0  0  0  0  0  0  0
  141.3223   77.0520  221.8975 H   0  0  0  0  0  0  0  0  0  0  0  0
  141.8391   78.3080  219.6445 H   0  0  0  0  0  0  0  0  0  0  0  0
  143.0842   77.6606  220.8121 H   0  0  0  0  0  0  0  0  0  0  0  0
  143.2223   78.2148  217.6830 H   0  0  0  0  0  0  0  0  0  0  0  0
  144.2248   76.8232  215.9222 H   0  0  0  0  0  0  0  0  0  0  0  0
  144.4954   74.3555  216.2147 H   0  0  0  0  0  0  0  0  0  0  0  0
  143.7110   73.3494  218.3594 H   0  0  0  0  0  0  0  0  0  0  0  0
  142.3731   73.5657  220.3214 H   0  0  0  0  0  0  0  0  0  0  0  0
  143.3504   74.8042  221.2174 H   0  0  0  0  0  0  0  0  0  0  0  0
  136.3527   78.8829  221.0736 H   0  0  0  0  0  0  0  0  0  0  0  0
  136.4740   78.0480  222.6372 H   0  0  0  0  0  0  0  0  0  0  0  0
  138.0519   77.1720  223.3368 H   0  0  0  0  0  0  0  0  0  0  0  0
  139.7095   77.1389  222.6297 H   0  0  0  0  0  0  0  0  0  0  0  0
  138.3171   79.6869  223.6254 H   0  0  0  0  0  0  0  0  0  0  0  0
  139.4529   78.7683  224.6076 H   0  0  0  0  0  0  0  0  0  0  0  0
  141.6770   79.8100  224.4509 H   0  0  0  0  0  0  0  0  0  0  0  0
  143.4295   80.8189  222.9680 H   0  0  0  0  0  0  0  0  0  0  0  0
  142.9822   81.1531  220.5496 H   0  0  0  0  0  0  0  0  0  0  0  0
  140.8027   80.4935  219.5531 H   0  0  0  0  0  0  0  0  0  0  0  0
  137.9662   80.1244  221.2662 H   0  0  0  0  0  0  0  0  0  0  0  0
  138.7661   79.2294  219.8807 H   0  0  0  0  0  0  0  0  0  0  0  0
  1  2  1  0
  2  3  1  0
  3  4  1  0
  4  5  1  0
  5  6  2  0
  6  7  1  0
  7  8  1  0
  8  9  1  0
  9 10  1  0
 10 11  1  0
 11 12  2  0
 12 13  1  0
 13 14  2  0
 14 15  1  0
 15 16  2  0
 16 17  1  0
  7 18  2  0
 18 19  1  0
 19 20  1  0
 20 21  1  0
 21 22  1  0
 22 23  1  0
 23 24  2  0
 24 25  1  0
 25 26  2  0
 26 27  1  0
 27 28  2  0
 28 29  1  0
 19 30  2  0
  2 31  1  0
 31 32  1  0
 32 33  1  0
 33 34  1  0
 34 35  1  0
 35 36  2  0
 36 37  1  0
 37 38  2  0
 38 39  1  0
 39 40  2  0
 40 41  1  0
 30  5  1  0
 41 32  1  0
 17  8  1  0
 29 20  1  0
 40 35  1  0
 16 11  1  0
 28 23  1  0
  1 42  1  0
  1 43  1  0
  2 44  1  6
  3 45  1  0
  3 46  1  0
  4 47  1  0
  9 48  1  0
  9 49  1  0
 10 50  1  0
 10 51  1  0
 12 52  1  0
 13 53  1  0
 14 54  1  0
 15 55  1  0
 17 56  1  0
 17 57  1  0
 21 58  1  0
 21 59  1  0
 22 60  1  0
 22 61  1  0
 24 62  1  0
 25 63  1  0
 26 64  1  0
 27 65  1  0
 29 66  1  0
 29 67  1  0
 31 68  1  0
 31 69  1  0
 33 70  1  0
 33 71  1  0
 34 72  1  0
 34 73  1  0
 36 74  1  0
 37 75  1  0
 38 76  1  0
 39 77  1  0
 41 78  1  0
 41 79  1  0
M  END
>  <smiles>  (56) 
NC(CNc1nc(N2CCc3ccccc3C2)nc(N2CCc3ccccc3C2)n1)CN1CCc2ccccc2C1

>  <score_type>  (56) 
oracle

>  <origin>  (56) 
autodockgpu

>  <m_score__min__energy>  (56) 
-11.49

>  <m_primary>  (56) 
energy

>  <rmsd>  (56) 
9.602858962811409

>  <m_score__min__rmsd>  (56) 
9.602858962811409

>  <meeko>  (56) 
{"free_energy": -8.73, "intermolecular_energy": -11.11, "internal_energy": -4.07, "cluster_size": 11, "cluster_id": 4, "rank_in_cluster": 8}

>  <energy>  (56) 
-11.07

>  <cluster_rmsd>  (56) 
0.78

>  <cluster>  (56) 
1

$$$$

     RDKit          3D

 79 85  0  0  1  0  0  0  0  0999 V2000
  140.2480   74.1030  222.3310 N   0  0  0  0  0  0  0  0  0  0  0  0
  140.1610   74.5010  220.9430 C   0  0  1  0  0  0  0  0  0  0  0  0
  139.3780   73.5150  220.1240 C   0  0  0  0  0  0  0  0  0  0  0  0
  137.9820   73.6150  220.4880 N   0  0  0  0  0  0  0  0  0  0  0  0
  137.5820   73.0010  221.7260 C   0  0  0  0  0  0  0  0  0  0  0  0
  136.4080   73.3190  222.3250 N   0  0  0  0  0  0  0  0  0  0  0  0
  136.0210   72.7550  223.4820 C   0  0  0  0  0  0  0  0  0  0  0  0
  134.7920   73.0770  224.1260 N   0  0  0  0  0  0  0  0  0  0  0  0
  134.2450   74.4210  224.0470 C   0  0  0  0  0  0  0  0  0  0  0  0
  134.2980   74.9480  225.4750 C   0  0  0  0  0  0  0  0  0  0  0  0
  133.3410   74.0840  226.2440 C   0  0  0  0  0  0  0  0  0  0  0  0
  132.5770   74.6710  227.2490 C   0  0  0  0  0  0  0  0  0  0  0  0
  131.6990   73.8490  227.9450 C   0  0  0  0  0  0  0  0  0  0  0  0
  131.5850   72.5040  227.6570 C   0  0  0  0  0  0  0  0  0  0  0  0
  132.3540   71.9240  226.6490 C   0  0  0  0  0  0  0  0  0  0  0  0
  133.2250   72.7390  225.9570 C   0  0  0  0  0  0  0  0  0  0  0  0
  134.0400   72.0910  224.8780 C   0  0  0  0  0  0  0  0  0  0  0  0
  136.8360   71.8490  224.0480 N   0  0  0  0  0  0  0  0  0  0  0  0
  138.0230   71.4850  223.5020 C   0  0  0  0  0  0  0  0  0  0  0  0
  138.8450   70.5190  224.1500 N   0  0  0  0  0  0  0  0  0  0  0  0
  138.4130   69.1610  224.2310 C   0  0  0  0  0  0  0  0  0  0  0  0
  139.2040   68.2870  225.1220 C   0  0  0  0  0  0  0  0  0  0  0  0
  139.8530   69.0160  226.2320 C   0  0  0  0  0  0  0  0  0  0  0  0
  140.0360   68.4560  227.4710 C   0  0  0  0  0  0  0  0  0  0  0  0
  140.6480   69.1550  228.5010 C   0  0  0  0  0  0  0  0  0  0  0  0
  141.1060   70.4540  228.3340 C   0  0  0  0  0  0  0  0  0  0  0  0
  140.9220   71.0170  227.0880 C   0  0  0  0  0  0  0  0  0  0  0  0
  140.3160   70.3250  226.0690 C   0  0  0  0  0  0  0  0  0  0  0  0
  140.1090   70.9170  224.7240 C   0  0  0  0  0  0  0  0  0  0  0  0
  138.3520   72.0840  222.3480 N   0  0  0  0  0  0  0  0  0  0  0  0
  139.4660   75.8410  220.8780 C   0  0  0  0  0  0  0  0  0  0  0  0
  139.9710   76.6360  222.0040 N   0  0  0  0  0  0  0  0  0  0  0  0
  138.8770   77.3830  222.5350 C   0  0  0  0  0  0  0  0  0  0  0  0
  138.9130   78.8150  222.0140 C   0  0  0  0  0  0  0  0  0  0  0  0
  140.1630   79.4010  222.6140 C   0  0  0  0  0  0  0  0  0  0  0  0
  140.1620   80.5860  223.3050 C   0  0  0  0  0  0  0  0  0  0  0  0
  141.3800   81.0160  223.8100 C   0  0  0  0  0  0  0  0  0  0  0  0
  142.5390   80.2610  223.6120 C   0  0  0  0  0  0  0  0  0  0  0  0
  142.5080   79.0700  222.9110 C   0  0  0  0  0  0  0  0  0  0  0  0
  141.3150   78.6420  222.4130 C   0  0  0  0  0  0  0  0  0  0  0  0
  141.1290   77.3830  221.6390 C   0  0  0  0  0  0  0  0  0  0  0  0
  139.6280   74.6570  222.9430 H   0  0  0  0  0  0  0  0  0  0  0  0
  140.2130   73.0850  222.4720 H   0  0  0  0  0  0  0  0  0  0  0  0
  141.1802   74.5505  220.5322 H   0  0  0  0  0  0  0  0  0  0  0  0
  139.4990   73.7432  219.0547 H   0  0  0  0  0  0  0  0  0  0  0  0
  139.7431   72.4952  220.3153 H   0  0  0  0  0  0  0  0  0  0  0  0
  137.2500   74.0880  219.9430 H   0  0  0  0  0  0  0  0  0  0  0  0
  134.8540   75.0485  223.3797 H   0  0  0  0  0  0  0  0  0  0  0  0
  133.2235   74.4299  223.6391 H   0  0  0  0  0  0  0  0  0  0  0  0
  135.3153   74.8564  225.8834 H   0  0  0  0  0  0  0  0  0  0  0  0
  134.0303   76.0134  225.5324 H   0  0  0  0  0  0  0  0  0  0  0  0
  132.6648   75.7423  227.4827 H   0  0  0  0  0  0  0  0  0  0  0  0
  131.0797   74.2808  228.7450 H   0  0  0  0  0  0  0  0  0  0  0  0
  130.8798   71.8830  228.2289 H   0  0  0  0  0  0  0  0  0  0  0  0
  132.2689   70.8528  226.4137 H   0  0  0  0  0  0  0  0  0  0  0  0
  134.7411   71.3783  225.3368 H   0  0  0  0  0  0  0  0  0  0  0  0
  133.3569   71.5733  224.1885 H   0  0  0  0  0  0  0  0  0  0  0  0
  137.3737   69.1583  224.5912 H   0  0  0  0  0  0  0  0  0  0  0  0
  138.5367   68.7471  223.2194 H   0  0  0  0  0  0  0  0  0  0  0  0
  138.5342   67.5259  225.5488 H   0  0  0  0  0  0  0  0  0  0  0  0
  140.0045   67.8411  224.5135 H   0  0  0  0  0  0  0  0  0  0  0  0
  139.6890   67.4280  227.6519 H   0  0  0  0  0  0  0  0  0  0  0  0
  140.7738   68.6655  229.4780 H   0  0  0  0  0  0  0  0  0  0  0  0
  141.5907   71.0063  229.1526 H   0  0  0  0  0  0  0  0  0  0  0  0
  141.2692   72.0449  226.9067 H   0  0  0  0  0  0  0  0  0  0  0  0
  140.1309   72.0134  224.8106 H   0  0  0  0  0  0  0  0  0  0  0  0
  140.9120   70.5556  224.0648 H   0  0  0  0  0  0  0  0  0  0  0  0
  139.6979   76.3421  219.9266 H   0  0  0  0  0  0  0  0  0  0  0  0
  138.3740   75.7224  220.9370 H   0  0  0  0  0  0  0  0  0  0  0  0
  137.9321   76.9094  222.2302 H   0  0  0  0  0  0  0  0  0  0  0  0
  138.9532   77.3990  223.6322 H   0  0  0  0  0  0  0  0  0  0  0  0
  138.9656   78.8282  220.9153 H   0  0  0  0  0  0  0  0  0  0  0  0
  138.0113   79.3829  222.2867 H   0  0  0  0  0  0  0  0  0  0  0  0
  139.2396   81.1672  223.4515 H   0  0  0  0  0  0  0  0  0  0  0  0
  141.4342   81.9602  224.3717 H   0  0  0  0  0  0  0  0  0  0  0  0
  143.4942   80.6212  224.0217 H   0  0  0  0  0  0  0  0  0  0  0  0
  143.4251   78.4820  222.7591 H   0  0  0  0  0  0  0  0  0  0  0  0
  141.0498   77.6424  220.5730 H   0  0  0  0  0  0  0  0  0  0  0  0
  141.9978   76.7457  221.8604 H   0  0  0  0  0  0  0  0  0  0  0  0
  1  2  1  0
  2  3  1  0
  3  4  1  0
  4  5  1  0
  5  6  2  0
  6  7  1  0
  7  8  1  0
  8  9  1  0
  9 10  1  0
 10 11  1  0
 11 12  2  0
 12 13  1  0
 13 14  2  0
 14 15  1  0
 15 16  2  0
 16 17  1  0
  7 18  2  0
 18 19  1  0
 19 20  1  0
 20 21  1  0
 21 22  1  0
 22 23  1  0
 23 24  2  0
 24 25  1  0
 25 26  2  0
 26 27  1  0
 27 28  2  0
 28 29  1  0
 19 30  2  0
  2 31  1  0
 31 32  1  0
 32 33  1  0
 33 34  1  0
 34 35  1  0
 35 36  2  0
 36 37  1  0
 37 38  2  0
 38 39  1  0
 39 40  2  0
 40 41  1  0
 30  5  1  0
 41 32  1  0
 17  8  1  0
 29 20  1  0
 40 35  1  0
 16 11  1  0
 28 23  1  0
  1 42  1  0
  1 43  1  0
  2 44  1  6
  3 45  1  0
  3 46  1  0
  4 47  1  0
  9 48  1  0
  9 49  1  0
 10 50  1  0
 10 51  1  0
 12 52  1  0
 13 53  1  0
 14 54  1  0
 15 55  1  0
 17 56  1  0
 17 57  1  0
 21 58  1  0
 21 59  1  0
 22 60  1  0
 22 61  1  0
 24 62  1  0
 25 63  1  0
 26 64  1  0
 27 65  1  0
 29 66  1  0
 29 67  1  0
 31 68  1  0
 31 69  1  0
 33 70  1  0
 33 71  1  0
 34 72  1  0
 34 73  1  0
 36 74  1  0
 37 75  1  0
 38 76  1  0
 39 77  1  0
 41 78  1  0
 41 79  1  0
M  END
>  <smiles>  (57) 
NC(CNc1nc(N2CCc3ccccc3C2)nc(N2CCc3ccccc3C2)n1)CN1CCc2ccccc2C1

>  <score_type>  (57) 
oracle

>  <origin>  (57) 
autodockgpu

>  <m_score__min__energy>  (57) 
-11.49

>  <m_primary>  (57) 
energy

>  <rmsd>  (57) 
9.223290773383596

>  <m_score__min__rmsd>  (57) 
9.223290773383596

>  <meeko>  (57) 
{"free_energy": -11.31, "intermolecular_energy": -13.69, "internal_energy": -2.74, "cluster_size": 16, "cluster_id": 1, "rank_in_cluster": 4}

>  <energy>  (57) 
-11.01

>  <cluster_rmsd>  (57) 
0.8

>  <cluster>  (57) 
1

$$$$

     RDKit          3D

 79 85  0  0  1  0  0  0  0  0999 V2000
  139.7020   74.9150  222.2790 N   0  0  0  0  0  0  0  0  0  0  0  0
  139.6570   74.8670  220.8340 C   0  0  1  0  0  0  0  0  0  0  0  0
  138.2470   74.8500  220.3180 C   0  0  0  0  0  0  0  0  0  0  0  0
  137.7670   73.4850  220.3240 N   0  0  0  0  0  0  0  0  0  0  0  0
  137.4160   72.9210  221.6010 C   0  0  0  0  0  0  0  0  0  0  0  0
  136.2590   73.2510  222.2240 N   0  0  0  0  0  0  0  0  0  0  0  0
  135.9170   72.7340  223.4180 C   0  0  0  0  0  0  0  0  0  0  0  0
  134.7050   73.0690  224.0870 N   0  0  0  0  0  0  0  0  0  0  0  0
  134.1630   74.4130  224.0080 C   0  0  0  0  0  0  0  0  0  0  0  0
  134.2530   74.9540  225.4280 C   0  0  0  0  0  0  0  0  0  0  0  0
  133.3110   74.1030  226.2290 C   0  0  0  0  0  0  0  0  0  0  0  0
  132.5730   74.7040  227.2450 C   0  0  0  0  0  0  0  0  0  0  0  0
  131.7080   73.8930  227.9700 C   0  0  0  0  0  0  0  0  0  0  0  0
  131.5810   72.5460  227.6990 C   0  0  0  0  0  0  0  0  0  0  0  0
  132.3230   71.9520  226.6780 C   0  0  0  0  0  0  0  0  0  0  0  0
  133.1810   72.7560  225.9580 C   0  0  0  0  0  0  0  0  0  0  0  0
  133.9670   72.0940  224.8660 C   0  0  0  0  0  0  0  0  0  0  0  0
  136.7640   71.8640  223.9950 N   0  0  0  0  0  0  0  0  0  0  0  0
  137.9370   71.4920  223.4260 C   0  0  0  0  0  0  0  0  0  0  0  0
  138.7930   70.5650  224.0880 N   0  0  0  0  0  0  0  0  0  0  0  0
  138.4090   69.1950  224.1920 C   0  0  0  0  0  0  0  0  0  0  0  0
  139.2320   68.3640  225.0970 C   0  0  0  0  0  0  0  0  0  0  0  0
  139.8560   69.1330  226.1930 C   0  0  0  0  0  0  0  0  0  0  0  0
  140.0610   68.6000  227.4410 C   0  0  0  0  0  0  0  0  0  0  0  0
  140.6490   69.3380  228.4580 C   0  0  0  0  0  0  0  0  0  0  0  0
  141.0610   70.6490  228.2690 C   0  0  0  0  0  0  0  0  0  0  0  0
  140.8550   71.1850  227.0140 C   0  0  0  0  0  0  0  0  0  0  0  0
  140.2720   70.4550  226.0080 C   0  0  0  0  0  0  0  0  0  0  0  0
  140.0430   71.0170  224.6540 C   0  0  0  0  0  0  0  0  0  0  0  0
  138.2190   72.0420  222.2370 N   0  0  0  0  0  0  0  0  0  0  0  0
  140.3530   76.0950  220.2980 C   0  0  0  0  0  0  0  0  0  0  0  0
  140.1700   77.1560  221.2960 N   0  0  0  0  0  0  0  0  0  0  0  0
  139.5890   78.2800  220.6350 C   0  0  0  0  0  0  0  0  0  0  0  0
  140.6610   79.3120  220.3060 C   0  0  0  0  0  0  0  0  0  0  0  0
  141.1350   79.8020  221.6490 C   0  0  0  0  0  0  0  0  0  0  0  0
  141.1960   81.1350  221.9650 C   0  0  0  0  0  0  0  0  0  0  0  0
  141.6480   81.4550  223.2360 C   0  0  0  0  0  0  0  0  0  0  0  0
  142.0180   80.4490  224.1350 C   0  0  0  0  0  0  0  0  0  0  0  0
  141.9440   79.1140  223.7850 C   0  0  0  0  0  0  0  0  0  0  0  0
  141.5010   78.7940  222.5390 C   0  0  0  0  0  0  0  0  0  0  0  0
  141.3700   77.4010  222.0240 C   0  0  0  0  0  0  0  0  0  0  0  0
  139.5050   75.8570  222.6520 H   0  0  0  0  0  0  0  0  0  0  0  0
  139.1960   74.1440  222.7350 H   0  0  0  0  0  0  0  0  0  0  0  0
  140.1518   73.9425  220.5016 H   0  0  0  0  0  0  0  0  0  0  0  0
  137.6086   75.4697  220.9649 H   0  0  0  0  0  0  0  0  0  0  0  0
  138.2175   75.2531  219.2949 H   0  0  0  0  0  0  0  0  0  0  0  0
  137.6520   72.8830  219.5010 H   0  0  0  0  0  0  0  0  0  0  0  0
  134.7584   75.0309  223.3197 H   0  0  0  0  0  0  0  0  0  0  0  0
  133.1318   74.4225  223.6252 H   0  0  0  0  0  0  0  0  0  0  0  0
  135.2795   74.8615  225.8125 H   0  0  0  0  0  0  0  0  0  0  0  0
  133.9917   76.0212  225.4806 H   0  0  0  0  0  0  0  0  0  0  0  0
  132.6705   75.7773  227.4650 H   0  0  0  0  0  0  0  0  0  0  0  0
  131.1098   74.3359  228.7799 H   0  0  0  0  0  0  0  0  0  0  0  0
  130.8873   71.9341  228.2944 H   0  0  0  0  0  0  0  0  0  0  0  0
  132.2269   70.8791  226.4550 H   0  0  0  0  0  0  0  0  0  0  0  0
  134.6757   71.3823  225.3147 H   0  0  0  0  0  0  0  0  0  0  0  0
  133.2653   71.5731  224.1980 H   0  0  0  0  0  0  0  0  0  0  0  0
  137.3707   69.1618  224.5539 H   0  0  0  0  0  0  0  0  0  0  0  0
  138.5458   68.7688  223.1872 H   0  0  0  0  0  0  0  0  0  0  0  0
  138.5899   67.5871  225.5376 H   0  0  0  0  0  0  0  0  0  0  0  0
  140.0472   67.9367  224.4946 H   0  0  0  0  0  0  0  0  0  0  0  0
  139.7518   67.5632  227.6396 H   0  0  0  0  0  0  0  0  0  0  0  0
  140.7927   68.8699  229.4430 H   0  0  0  0  0  0  0  0  0  0  0  0
  141.5276   71.2311  229.0773 H   0  0  0  0  0  0  0  0  0  0  0  0
  141.1652   72.2214  226.8151 H   0  0  0  0  0  0  0  0  0  0  0  0
  140.0261   72.1147  224.7227 H   0  0  0  0  0  0  0  0  0  0  0  0
  140.8578   70.6734  223.9997 H   0  0  0  0  0  0  0  0  0  0  0  0
  141.4243   75.8908  220.1546 H   0  0  0  0  0  0  0  0  0  0  0  0
  139.9352   76.3923  219.3248 H   0  0  0  0  0  0  0  0  0  0  0  0
  139.1095   77.9452  219.7034 H   0  0  0  0  0  0  0  0  0  0  0  0
  138.8420   78.7391  221.2992 H   0  0  0  0  0  0  0  0  0  0  0  0
  141.4876   78.8496  219.7466 H   0  0  0  0  0  0  0  0  0  0  0  0
  140.2782   80.1268  219.6739 H   0  0  0  0  0  0  0  0  0  0  0  0
  140.9007   81.9125  221.2451 H   0  0  0  0  0  0  0  0  0  0  0  0
  141.7163   82.5098  223.5404 H   0  0  0  0  0  0  0  0  0  0  0  0
  142.3742   80.7254  225.1383 H   0  0  0  0  0  0  0  0  0  0  0  0
  142.2365   78.3284  224.4973 H   0  0  0  0  0  0  0  0  0  0  0  0
  142.2233   77.1973  221.3604 H   0  0  0  0  0  0  0  0  0  0  0  0
  141.3455   76.7408  222.9035 H   0  0  0  0  0  0  0  0  0  0  0  0
  1  2  1  0
  2  3  1  0
  3  4  1  0
  4  5  1  0
  5  6  2  0
  6  7  1  0
  7  8  1  0
  8  9  1  0
  9 10  1  0
 10 11  1  0
 11 12  2  0
 12 13  1  0
 13 14  2  0
 14 15  1  0
 15 16  2  0
 16 17  1  0
  7 18  2  0
 18 19  1  0
 19 20  1  0
 20 21  1  0
 21 22  1  0
 22 23  1  0
 23 24  2  0
 24 25  1  0
 25 26  2  0
 26 27  1  0
 27 28  2  0
 28 29  1  0
 19 30  2  0
  2 31  1  0
 31 32  1  0
 32 33  1  0
 33 34  1  0
 34 35  1  0
 35 36  2  0
 36 37  1  0
 37 38  2  0
 38 39  1  0
 39 40  2  0
 40 41  1  0
 30  5  1  0
 41 32  1  0
 17  8  1  0
 29 20  1  0
 40 35  1  0
 16 11  1  0
 28 23  1  0
  1 42  1  0
  1 43  1  0
  2 44  1  6
  3 45  1  0
  3 46  1  0
  4 47  1  0
  9 48  1  0
  9 49  1  0
 10 50  1  0
 10 51  1  0
 12 52  1  0
 13 53  1  0
 14 54  1  0
 15 55  1  0
 17 56  1  0
 17 57  1  0
 21 58  1  0
 21 59  1  0
 22 60  1  0
 22 61  1  0
 24 62  1  0
 25 63  1  0
 26 64  1  0
 27 65  1  0
 29 66  1  0
 29 67  1  0
 31 68  1  0
 31 69  1  0
 33 70  1  0
 33 71  1  0
 34 72  1  0
 34 73  1  0
 36 74  1  0
 37 75  1  0
 38 76  1  0
 39 77  1  0
 41 78  1  0
 41 79  1  0
M  END
>  <smiles>  (58) 
NC(CNc1nc(N2CCc3ccccc3C2)nc(N2CCc3ccccc3C2)n1)CN1CCc2ccccc2C1

>  <score_type>  (58) 
oracle

>  <origin>  (58) 
autodockgpu

>  <m_score__min__energy>  (58) 
-11.49

>  <m_primary>  (58) 
energy

>  <rmsd>  (58) 
9.786623980975758

>  <m_score__min__rmsd>  (58) 
9.786623980975758

>  <meeko>  (58) 
{"free_energy": -10.72, "intermolecular_energy": -13.11, "internal_energy": -2.4, "cluster_size": 16, "cluster_id": 1, "rank_in_cluster": 12}

>  <energy>  (58) 
-10.92

>  <cluster_rmsd>  (58) 
0.48

>  <cluster>  (58) 
1

$$$$

     RDKit          3D

 79 85  0  0  1  0  0  0  0  0999 V2000
  140.1740   74.8340  221.9630 N   0  0  0  0  0  0  0  0  0  0  0  0
  139.8230   75.0820  220.5820 C   0  0  1  0  0  0  0  0  0  0  0  0
  138.3730   74.7960  220.3110 C   0  0  0  0  0  0  0  0  0  0  0  0
  138.1550   73.3700  220.4200 N   0  0  0  0  0  0  0  0  0  0  0  0
  137.7600   72.8650  221.7080 C   0  0  0  0  0  0  0  0  0  0  0  0
  138.5510   72.0130  222.4040 N   0  0  0  0  0  0  0  0  0  0  0  0
  138.1970   71.5300  223.6080 C   0  0  0  0  0  0  0  0  0  0  0  0
  139.0150   70.6350  224.3540 N   0  0  0  0  0  0  0  0  0  0  0  0
  138.9730   69.2060  224.0980 C   0  0  0  0  0  0  0  0  0  0  0  0
  138.3980   68.5980  225.3710 C   0  0  0  0  0  0  0  0  0  0  0  0
  139.4290   68.8670  226.4290 C   0  0  0  0  0  0  0  0  0  0  0  0
  139.6480   67.8970  227.4030 C   0  0  0  0  0  0  0  0  0  0  0  0
  140.6080   68.1700  228.3710 C   0  0  0  0  0  0  0  0  0  0  0  0
  141.3180   69.3540  228.3720 C   0  0  0  0  0  0  0  0  0  0  0  0
  141.0920   70.3200  227.3920 C   0  0  0  0  0  0  0  0  0  0  0  0
  140.1410   70.0490  226.4310 C   0  0  0  0  0  0  0  0  0  0  0  0
  139.9170   71.1030  225.3880 C   0  0  0  0  0  0  0  0  0  0  0  0
  137.0160   71.9180  224.1210 N   0  0  0  0  0  0  0  0  0  0  0  0
  136.1780   72.7670  223.4780 C   0  0  0  0  0  0  0  0  0  0  0  0
  134.9390   73.1400  224.0740 N   0  0  0  0  0  0  0  0  0  0  0  0
  134.8410   74.3640  224.8010 C   0  0  0  0  0  0  0  0  0  0  0  0
  133.6000   74.5500  225.5820 C   0  0  0  0  0  0  0  0  0  0  0  0
  132.9850   73.2800  226.0160 C   0  0  0  0  0  0  0  0  0  0  0  0
  132.3140   73.1570  227.2070 C   0  0  0  0  0  0  0  0  0  0  0  0
  131.7420   71.9550  227.5980 C   0  0  0  0  0  0  0  0  0  0  0  0
  131.8170   70.8170  226.8100 C   0  0  0  0  0  0  0  0  0  0  0  0
  132.4910   70.9400  225.6120 C   0  0  0  0  0  0  0  0  0  0  0  0
  133.0580   72.1290  225.2250 C   0  0  0  0  0  0  0  0  0  0  0  0
  133.7870   72.2770  223.9420 C   0  0  0  0  0  0  0  0  0  0  0  0
  136.5890   73.2120  222.2820 N   0  0  0  0  0  0  0  0  0  0  0  0
  140.0920   76.5370  220.2780 C   0  0  0  0  0  0  0  0  0  0  0  0
  140.5780   77.1470  221.5220 N   0  0  0  0  0  0  0  0  0  0  0  0
  139.4650   77.7570  222.1730 C   0  0  0  0  0  0  0  0  0  0  0  0
  139.4520   79.2570  221.9010 C   0  0  0  0  0  0  0  0  0  0  0  0
  140.6860   79.7740  222.5910 C   0  0  0  0  0  0  0  0  0  0  0  0
  140.6510   80.8250  223.4720 C   0  0  0  0  0  0  0  0  0  0  0  0
  141.8580   81.2020  224.0410 C   0  0  0  0  0  0  0  0  0  0  0  0
  143.0400   80.5290  223.7170 C   0  0  0  0  0  0  0  0  0  0  0  0
  143.0420   79.4730  222.8250 C   0  0  0  0  0  0  0  0  0  0  0  0
  141.8600   79.0970  222.2630 C   0  0  0  0  0  0  0  0  0  0  0  0
  141.7100   77.9810  221.2880 C   0  0  0  0  0  0  0  0  0  0  0  0
  140.3820   75.7020  222.4820 H   0  0  0  0  0  0  0  0  0  0  0  0
  139.5430   74.1760  222.4380 H   0  0  0  0  0  0  0  0  0  0  0  0
  140.4258   74.4159  219.9471 H   0  0  0  0  0  0  0  0  0  0  0  0
  137.7476   75.3236  221.0462 H   0  0  0  0  0  0  0  0  0  0  0  0
  138.1045   75.1409  219.3016 H   0  0  0  0  0  0  0  0  0  0  0  0
  138.2530   72.6860  219.6600 H   0  0  0  0  0  0  0  0  0  0  0  0
  138.3252   68.9857  223.2367 H   0  0  0  0  0  0  0  0  0  0  0  0
  139.9657   68.7988  223.8556 H   0  0  0  0  0  0  0  0  0  0  0  0
  137.4426   69.0771  225.6312 H   0  0  0  0  0  0  0  0  0  0  0  0
  138.1907   67.5235  225.2592 H   0  0  0  0  0  0  0  0  0  0  0  0
  139.0842   66.9525  227.4067 H   0  0  0  0  0  0  0  0  0  0  0  0
  140.8066   67.4245  229.1551 H   0  0  0  0  0  0  0  0  0  0  0  0
  142.0697   69.5373  229.1539 H   0  0  0  0  0  0  0  0  0  0  0  0
  141.6533   71.2660  227.3858 H   0  0  0  0  0  0  0  0  0  0  0  0
  139.4835   71.9940  225.8658 H   0  0  0  0  0  0  0  0  0  0  0  0
  140.8844   71.3437  224.9231 H   0  0  0  0  0  0  0  0  0  0  0  0
  135.6896   74.4108  225.4993 H   0  0  0  0  0  0  0  0  0  0  0  0
  134.8404   75.1621  224.0441 H   0  0  0  0  0  0  0  0  0  0  0  0
  133.8364   75.1463  226.4756 H   0  0  0  0  0  0  0  0  0  0  0  0
  132.8755   75.0542  224.9256 H   0  0  0  0  0  0  0  0  0  0  0  0
  132.2277   74.0325  227.8674 H   0  0  0  0  0  0  0  0  0  0  0  0
  131.2136   71.9035  228.5614 H   0  0  0  0  0  0  0  0  0  0  0  0
  131.3629   69.8654  227.1233 H   0  0  0  0  0  0  0  0  0  0  0  0
  132.5760   70.0645  224.9514 H   0  0  0  0  0  0  0  0  0  0  0  0
  134.1225   71.2845  223.6069 H   0  0  0  0  0  0  0  0  0  0  0  0
  133.1022   72.7314  223.2108 H   0  0  0  0  0  0  0  0  0  0  0  0
  140.8545   76.6246  219.4901 H   0  0  0  0  0  0  0  0  0  0  0  0
  139.1817   77.0406  219.9206 H   0  0  0  0  0  0  0  0  0  0  0  0
  138.5335   77.3111  221.7941 H   0  0  0  0  0  0  0  0  0  0  0  0
  139.5480   77.5899  223.2571 H   0  0  0  0  0  0  0  0  0  0  0  0
  139.4978   79.4569  220.8203 H   0  0  0  0  0  0  0  0  0  0  0  0
  138.5341   79.7411  222.2658 H   0  0  0  0  0  0  0  0  0  0  0  0
  139.7116   81.3432  223.7151 H   0  0  0  0  0  0  0  0  0  0  0  0
  141.8859   82.0389  224.7544 H   0  0  0  0  0  0  0  0  0  0  0  0
  143.9859   80.8458  224.1806 H   0  0  0  0  0  0  0  0  0  0  0  0
  143.9762   78.9488  222.5751 H   0  0  0  0  0  0  0  0  0  0  0  0
  141.6173   78.4134  220.2808 H   0  0  0  0  0  0  0  0  0  0  0  0
  142.5997   77.3436  221.3988 H   0  0  0  0  0  0  0  0  0  0  0  0
  1  2  1  0
  2  3  1  0
  3  4  1  0
  4  5  1  0
  5  6  2  0
  6  7  1  0
  7  8  1  0
  8  9  1  0
  9 10  1  0
 10 11  1  0
 11 12  2  0
 12 13  1  0
 13 14  2  0
 14 15  1  0
 15 16  2  0
 16 17  1  0
  7 18  2  0
 18 19  1  0
 19 20  1  0
 20 21  1  0
 21 22  1  0
 22 23  1  0
 23 24  2  0
 24 25  1  0
 25 26  2  0
 26 27  1  0
 27 28  2  0
 28 29  1  0
 19 30  2  0
  2 31  1  0
 31 32  1  0
 32 33  1  0
 33 34  1  0
 34 35  1  0
 35 36  2  0
 36 37  1  0
 37 38  2  0
 38 39  1  0
 39 40  2  0
 40 41  1  0
 30  5  1  0
 41 32  1  0
 17  8  1  0
 29 20  1  0
 40 35  1  0
 16 11  1  0
 28 23  1  0
  1 42  1  0
  1 43  1  0
  2 44  1  6
  3 45  1  0
  3 46  1  0
  4 47  1  0
  9 48  1  0
  9 49  1  0
 10 50  1  0
 10 51  1  0
 12 52  1  0
 13 53  1  0
 14 54  1  0
 15 55  1  0
 17 56  1  0
 17 57  1  0
 21 58  1  0
 21 59  1  0
 22 60  1  0
 22 61  1  0
 24 62  1  0
 25 63  1  0
 26 64  1  0
 27 65  1  0
 29 66  1  0
 29 67  1  0
 31 68  1  0
 31 69  1  0
 33 70  1  0
 33 71  1  0
 34 72  1  0
 34 73  1  0
 36 74  1  0
 37 75  1  0
 38 76  1  0
 39 77  1  0
 41 78  1  0
 41 79  1  0
M  END
>  <smiles>  (59) 
NC(CNc1nc(N2CCc3ccccc3C2)nc(N2CCc3ccccc3C2)n1)CN1CCc2ccccc2C1

>  <score_type>  (59) 
oracle

>  <origin>  (59) 
autodockgpu

>  <m_score__min__energy>  (59) 
-11.49

>  <m_primary>  (59) 
energy

>  <rmsd>  (59) 
9.60298510428521

>  <m_score__min__rmsd>  (59) 
9.60298510428521

>  <meeko>  (59) 
{"free_energy": -9.92, "intermolecular_energy": -12.31, "internal_energy": -2.38, "cluster_size": 16, "cluster_id": 1, "rank_in_cluster": 15}

>  <energy>  (59) 
-10.9

>  <cluster_rmsd>  (59) 
0.95

>  <cluster>  (59) 
1

$$$$

     RDKit          3D

 79 85  0  0  1  0  0  0  0  0999 V2000
  134.8630   74.3060  221.7960 N   0  0  0  0  0  0  0  0  0  0  0  0
  134.2630   73.4040  220.8370 C   0  0  1  0  0  0  0  0  0  0  0  0
  135.1620   73.1600  219.6590 C   0  0  0  0  0  0  0  0  0  0  0  0
  136.1590   72.1810  220.0310 N   0  0  0  0  0  0  0  0  0  0  0  0
  137.2400   72.6330  220.8670 C   0  0  0  0  0  0  0  0  0  0  0  0
  137.6890   73.9110  220.8100 N   0  0  0  0  0  0  0  0  0  0  0  0
  138.6980   74.3490  221.5830 C   0  0  0  0  0  0  0  0  0  0  0  0
  139.1820   75.6880  221.5370 N   0  0  0  0  0  0  0  0  0  0  0  0
  140.2560   76.0550  220.6310 C   0  0  0  0  0  0  0  0  0  0  0  0
  141.4210   76.4290  221.5370 C   0  0  0  0  0  0  0  0  0  0  0  0
  140.9660   77.6590  222.2680 C   0  0  0  0  0  0  0  0  0  0  0  0
  141.9000   78.6560  222.5350 C   0  0  0  0  0  0  0  0  0  0  0  0
  141.4520   79.7840  223.2120 C   0  0  0  0  0  0  0  0  0  0  0  0
  140.1360   79.9170  223.6070 C   0  0  0  0  0  0  0  0  0  0  0  0
  139.2070   78.9140  223.3340 C   0  0  0  0  0  0  0  0  0  0  0  0
  139.6500   77.7940  222.6620 C   0  0  0  0  0  0  0  0  0  0  0  0
  138.6320   76.7300  222.3810 C   0  0  0  0  0  0  0  0  0  0  0  0
  139.2670   73.4770  222.4330 N   0  0  0  0  0  0  0  0  0  0  0  0
  138.8660   72.1860  222.5400 C   0  0  0  0  0  0  0  0  0  0  0  0
  139.5100   71.3090  223.4600 N   0  0  0  0  0  0  0  0  0  0  0  0
  138.9880   69.9980  223.6750 C   0  0  0  0  0  0  0  0  0  0  0  0
  139.5680   69.2540  224.8130 C   0  0  0  0  0  0  0  0  0  0  0  0
  140.0700   70.1310  225.8910 C   0  0  0  0  0  0  0  0  0  0  0  0
  140.0130   69.7730  227.2150 C   0  0  0  0  0  0  0  0  0  0  0  0
  140.4900   70.6100  228.2140 C   0  0  0  0  0  0  0  0  0  0  0  0
  141.0480   71.8470  227.9300 C   0  0  0  0  0  0  0  0  0  0  0  0
  141.1050   72.2060  226.5980 C   0  0  0  0  0  0  0  0  0  0  0  0
  140.6320   71.3800  225.6100 C   0  0  0  0  0  0  0  0  0  0  0  0
  140.6850   71.7520  224.1740 C   0  0  0  0  0  0  0  0  0  0  0  0
  137.8560   71.8120  221.7420 N   0  0  0  0  0  0  0  0  0  0  0  0
  134.0030   72.0860  221.5270 C   0  0  0  0  0  0  0  0  0  0  0  0
  134.4810   72.2270  222.9070 N   0  0  0  0  0  0  0  0  0  0  0  0
  135.3770   71.1480  223.1700 C   0  0  0  0  0  0  0  0  0  0  0  0
  134.6630   70.0450  223.9430 C   0  0  0  0  0  0  0  0  0  0  0  0
  134.3410   70.6690  225.2750 C   0  0  0  0  0  0  0  0  0  0  0  0
  134.6750   70.0740  226.4660 C   0  0  0  0  0  0  0  0  0  0  0  0
  134.3240   70.7540  227.6230 C   0  0  0  0  0  0  0  0  0  0  0  0
  133.6630   71.9840  227.5540 C   0  0  0  0  0  0  0  0  0  0  0  0
  133.3400   72.5570  226.3380 C   0  0  0  0  0  0  0  0  0  0  0  0
  133.6830   71.8950  225.1990 C   0  0  0  0  0  0  0  0  0  0  0  0
  133.4000   72.3890  223.8220 C   0  0  0  0  0  0  0  0  0  0  0  0
  134.2990   74.4050  222.6550 H   0  0  0  0  0  0  0  0  0  0  0  0
  135.8680   74.1450  221.9440 H   0  0  0  0  0  0  0  0  0  0  0  0
  133.3328   73.8593  220.4662 H   0  0  0  0  0  0  0  0  0  0  0  0
  134.5692   72.7815  218.8132 H   0  0  0  0  0  0  0  0  0  0  0  0
  135.6518   74.0987  219.3608 H   0  0  0  0  0  0  0  0  0  0  0  0
  136.1650   71.1920  219.7550 H   0  0  0  0  0  0  0  0  0  0  0  0
  140.5248   75.2061  219.9852 H   0  0  0  0  0  0  0  0  0  0  0  0
  139.9700   76.8799  219.9618 H   0  0  0  0  0  0  0  0  0  0  0  0
  141.6362   75.6156  222.2456 H   0  0  0  0  0  0  0  0  0  0  0  0
  142.3463   76.6049  220.9687 H   0  0  0  0  0  0  0  0  0  0  0  0
  142.9499   78.5551  222.2228 H   0  0  0  0  0  0  0  0  0  0  0  0
  142.1640   80.5912  223.4388 H   0  0  0  0  0  0  0  0  0  0  0  0
  139.8172   80.8234  224.1425 H   0  0  0  0  0  0  0  0  0  0  0  0
  138.1562   79.0125  223.6441 H   0  0  0  0  0  0  0  0  0  0  0  0
  138.3053   76.2857  223.3328 H   0  0  0  0  0  0  0  0  0  0  0  0
  137.7823   77.1910  221.8562 H   0  0  0  0  0  0  0  0  0  0  0  0
  137.9056   70.0898  223.8481 H   0  0  0  0  0  0  0  0  0  0  0  0
  139.2496   69.4208  222.7759 H   0  0  0  0  0  0  0  0  0  0  0  0
  138.7922   68.5959  225.2314 H   0  0  0  0  0  0  0  0  0  0  0  0
  140.4285   68.6879  224.4269 H   0  0  0  0  0  0  0  0  0  0  0  0
  139.5793   68.8004  227.4905 H   0  0  0  0  0  0  0  0  0  0  0  0
  140.4234   70.2823  229.2620 H   0  0  0  0  0  0  0  0  0  0  0  0
  141.4255   72.5078  228.7242 H   0  0  0  0  0  0  0  0  0  0  0  0
  141.5402   73.1779  226.3223 H   0  0  0  0  0  0  0  0  0  0  0  0
  140.7593   72.8465  224.0925 H   0  0  0  0  0  0  0  0  0  0  0  0
  141.5617   71.2611  223.7264 H   0  0  0  0  0  0  0  0  0  0  0  0
  132.9262   71.8614  221.5205 H   0  0  0  0  0  0  0  0  0  0  0  0
  134.5207   71.2629  221.0127 H   0  0  0  0  0  0  0  0  0  0  0  0
  135.7466   70.7424  222.2166 H   0  0  0  0  0  0  0  0  0  0  0  0
  136.2189   71.5202  223.7723 H   0  0  0  0  0  0  0  0  0  0  0  0
  133.7427   69.7390  223.4239 H   0  0  0  0  0  0  0  0  0  0  0  0
  135.2771   69.1379  224.0426 H   0  0  0  0  0  0  0  0  0  0  0  0
  135.1954   69.1055  226.5013 H   0  0  0  0  0  0  0  0  0  0  0  0
  134.5681   70.3212  228.6044 H   0  0  0  0  0  0  0  0  0  0  0  0
  133.3949   72.5056  228.4846 H   0  0  0  0  0  0  0  0  0  0  0  0
  132.8185   73.5244  226.2919 H   0  0  0  0  0  0  0  0  0  0  0  0
  132.5317   71.8389  223.4303 H   0  0  0  0  0  0  0  0  0  0  0  0
  133.2182   73.4706  223.9065 H   0  0  0  0  0  0  0  0  0  0  0  0
  1  2  1  0
  2  3  1  0
  3  4  1  0
  4  5  1  0
  5  6  2  0
  6  7  1  0
  7  8  1  0
  8  9  1  0
  9 10  1  0
 10 11  1  0
 11 12  2  0
 12 13  1  0
 13 14  2  0
 14 15  1  0
 15 16  2  0
 16 17  1  0
  7 18  2  0
 18 19  1  0
 19 20  1  0
 20 21  1  0
 21 22  1  0
 22 23  1  0
 23 24  2  0
 24 25  1  0
 25 26  2  0
 26 27  1  0
 27 28  2  0
 28 29  1  0
 19 30  2  0
  2 31  1  0
 31 32  1  0
 32 33  1  0
 33 34  1  0
 34 35  1  0
 35 36  2  0
 36 37  1  0
 37 38  2  0
 38 39  1  0
 39 40  2  0
 40 41  1  0
 30  5  1  0
 41 32  1  0
 17  8  1  0
 29 20  1  0
 40 35  1  0
 16 11  1  0
 28 23  1  0
  1 42  1  0
  1 43  1  0
  2 44  1  6
  3 45  1  0
  3 46  1  0
  4 47  1  0
  9 48  1  0
  9 49  1  0
 10 50  1  0
 10 51  1  0
 12 52  1  0
 13 53  1  0
 14 54  1  0
 15 55  1  0
 17 56  1  0
 17 57  1  0
 21 58  1  0
 21 59  1  0
 22 60  1  0
 22 61  1  0
 24 62  1  0
 25 63  1  0
 26 64  1  0
 27 65  1  0
 29 66  1  0
 29 67  1  0
 31 68  1  0
 31 69  1  0
 33 70  1  0
 33 71  1  0
 34 72  1  0
 34 73  1  0
 36 74  1  0
 37 75  1  0
 38 76  1  0
 39 77  1  0
 41 78  1  0
 41 79  1  0
M  END
>  <smiles>  (60) 
NC(CNc1nc(N2CCc3ccccc3C2)nc(N2CCc3ccccc3C2)n1)CN1CCc2ccccc2C1

>  <score_type>  (60) 
oracle

>  <origin>  (60) 
autodockgpu

>  <m_score__min__energy>  (60) 
-11.49

>  <m_primary>  (60) 
energy

>  <rmsd>  (60) 
6.435090389278718

>  <m_score__min__rmsd>  (60) 
6.435090389278718

>  <meeko>  (60) 
{"free_energy": -8.54, "intermolecular_energy": -10.92, "internal_energy": -3.61, "cluster_size": 2, "cluster_id": 9, "rank_in_cluster": 2}

>  <energy>  (60) 
-10.89

>  <cluster_rmsd>  (60) 
0.89

>  <cluster>  (60) 
1

$$$$

     RDKit          3D

 79 85  0  0  1  0  0  0  0  0999 V2000
  136.3230   69.7800  223.3950 N   0  0  0  0  0  0  0  0  0  0  0  0
  137.1260   69.2460  222.3170 C   0  0  1  0  0  0  0  0  0  0  0  0
  137.0150   70.0750  221.0700 C   0  0  0  0  0  0  0  0  0  0  0  0
  138.0710   71.0640  221.0750 N   0  0  0  0  0  0  0  0  0  0  0  0
  137.7380   72.3750  221.5660 C   0  0  0  0  0  0  0  0  0  0  0  0
  136.6100   72.5930  222.2860 N   0  0  0  0  0  0  0  0  0  0  0  0
  136.2840   73.8120  222.7510 C   0  0  0  0  0  0  0  0  0  0  0  0
  135.1040   74.0600  223.5090 N   0  0  0  0  0  0  0  0  0  0  0  0
  134.5130   75.3860  223.5460 C   0  0  0  0  0  0  0  0  0  0  0  0
  134.6700   75.8430  224.9900 C   0  0  0  0  0  0  0  0  0  0  0  0
  133.8080   74.9100  225.7900 C   0  0  0  0  0  0  0  0  0  0  0  0
  133.1140   75.4210  226.8830 C   0  0  0  0  0  0  0  0  0  0  0  0
  132.3230   74.5350  227.6050 C   0  0  0  0  0  0  0  0  0  0  0  0
  132.2240   73.2030  227.2580 C   0  0  0  0  0  0  0  0  0  0  0  0
  132.9230   72.7000  226.1610 C   0  0  0  0  0  0  0  0  0  0  0  0
  133.7080   73.5780  225.4430 C   0  0  0  0  0  0  0  0  0  0  0  0
  134.4480   73.0130  224.2680 C   0  0  0  0  0  0  0  0  0  0  0  0
  137.1150   74.8340  222.4830 N   0  0  0  0  0  0  0  0  0  0  0  0
  138.2580   74.6840  221.7680 C   0  0  0  0  0  0  0  0  0  0  0  0
  139.0980   75.8070  221.5170 N   0  0  0  0  0  0  0  0  0  0  0  0
  140.4700   75.6050  221.1810 C   0  0  0  0  0  0  0  0  0  0  0  0
  141.3160   76.8170  221.1760 C   0  0  0  0  0  0  0  0  0  0  0  0
  140.8360   77.8690  222.0950 C   0  0  0  0  0  0  0  0  0  0  0  0
  141.6930   78.7100  222.7610 C   0  0  0  0  0  0  0  0  0  0  0  0
  141.2230   79.6930  223.6200 C   0  0  0  0  0  0  0  0  0  0  0  0
  139.8690   79.8790  223.8510 C   0  0  0  0  0  0  0  0  0  0  0  0
  139.0070   79.0340  223.1810 C   0  0  0  0  0  0  0  0  0  0  0  0
  139.4720   78.0610  222.3320 C   0  0  0  0  0  0  0  0  0  0  0  0
  138.5590   77.1440  221.6050 C   0  0  0  0  0  0  0  0  0  0  0  0
  138.5260   73.4450  221.3340 N   0  0  0  0  0  0  0  0  0  0  0  0
  138.5700   69.2360  222.7630 C   0  0  0  0  0  0  0  0  0  0  0  0
  138.5880   69.7110  224.1520 N   0  0  0  0  0  0  0  0  0  0  0  0
  138.8130   71.1190  224.1280 C   0  0  0  0  0  0  0  0  0  0  0  0
  140.2790   71.4250  224.4140 C   0  0  0  0  0  0  0  0  0  0  0  0
  140.4830   70.9830  225.8390 C   0  0  0  0  0  0  0  0  0  0  0  0
  141.0400   71.8000  226.7900 C   0  0  0  0  0  0  0  0  0  0  0  0
  141.1700   71.2730  228.0660 C   0  0  0  0  0  0  0  0  0  0  0  0
  140.7480   69.9700  228.3460 C   0  0  0  0  0  0  0  0  0  0  0  0
  140.1900   69.1720  227.3650 C   0  0  0  0  0  0  0  0  0  0  0  0
  140.0590   69.6830  226.1100 C   0  0  0  0  0  0  0  0  0  0  0  0
  139.4790   68.9410  224.9560 C   0  0  0  0  0  0  0  0  0  0  0  0
  136.4510   69.2630  224.2800 H   0  0  0  0  0  0  0  0  0  0  0  0
  136.3640   70.8050  223.4730 H   0  0  0  0  0  0  0  0  0  0  0  0
  136.7647   68.2334  222.0846 H   0  0  0  0  0  0  0  0  0  0  0  0
  137.1172   69.4289  220.1857 H   0  0  0  0  0  0  0  0  0  0  0  0
  136.0349   70.5733  221.0372 H   0  0  0  0  0  0  0  0  0  0  0  0
  139.0370   70.9140  220.7620 H   0  0  0  0  0  0  0  0  0  0  0  0
  135.0449   76.0662  222.8645 H   0  0  0  0  0  0  0  0  0  0  0  0
  133.4609   75.3803  223.2249 H   0  0  0  0  0  0  0  0  0  0  0  0
  135.7204   75.7665  225.3075 H   0  0  0  0  0  0  0  0  0  0  0  0
  134.3756   76.8943  225.1245 H   0  0  0  0  0  0  0  0  0  0  0  0
  133.1884   76.4820  227.1637 H   0  0  0  0  0  0  0  0  0  0  0  0
  131.7614   74.9051  228.4754 H   0  0  0  0  0  0  0  0  0  0  0  0
  131.5874   72.5313  227.8526 H   0  0  0  0  0  0  0  0  0  0  0  0
  132.8508   71.6395  225.8781 H   0  0  0  0  0  0  0  0  0  0  0  0
  135.2063   72.3028  224.6293 H   0  0  0  0  0  0  0  0  0  0  0  0
  133.7249   72.5073  223.6112 H   0  0  0  0  0  0  0  0  0  0  0  0
  140.8956   74.8993  221.9096 H   0  0  0  0  0  0  0  0  0  0  0  0
  140.4726   75.2345  220.1453 H   0  0  0  0  0  0  0  0  0  0  0  0
  142.3358   76.5320  221.4739 H   0  0  0  0  0  0  0  0  0  0  0  0
  141.2822   77.2334  220.1584 H   0  0  0  0  0  0  0  0  0  0  0  0
  142.7772   78.6019  222.6100 H   0  0  0  0  0  0  0  0  0  0  0  0
  141.9463   80.3440  224.1329 H   0  0  0  0  0  0  0  0  0  0  0  0
  139.5004   80.6595  224.5329 H   0  0  0  0  0  0  0  0  0  0  0  0
  137.9228   79.1430  223.3310 H   0  0  0  0  0  0  0  0  0  0  0  0
  137.5965   77.1054  222.1361 H   0  0  0  0  0  0  0  0  0  0  0  0
  138.4319   77.5288  220.5824 H   0  0  0  0  0  0  0  0  0  0  0  0
  138.9768   68.2156  222.7064 H   0  0  0  0  0  0  0  0  0  0  0  0
  139.1869   69.8789  222.1179 H   0  0  0  0  0  0  0  0  0  0  0  0
  138.5470   71.5122  223.1357 H   0  0  0  0  0  0  0  0  0  0  0  0
  138.1907   71.5942  224.9006 H   0  0  0  0  0  0  0  0  0  0  0  0
  140.9342   70.8609  223.7339 H   0  0  0  0  0  0  0  0  0  0  0  0
  140.5221   72.4875  224.2658 H   0  0  0  0  0  0  0  0  0  0  0  0
  141.3674   72.8228  226.5520 H   0  0  0  0  0  0  0  0  0  0  0  0
  141.6097   71.8865  228.8661 H   0  0  0  0  0  0  0  0  0  0  0  0
  140.8621   69.5726  229.3654 H   0  0  0  0  0  0  0  0  0  0  0  0
  139.8595   68.1479  227.5931 H   0  0  0  0  0  0  0  0  0  0  0  0
  140.3058   68.5941  224.3187 H   0  0  0  0  0  0  0  0  0  0  0  0
  138.8886   68.1141  225.3775 H   0  0  0  0  0  0  0  0  0  0  0  0
  1  2  1  0
  2  3  1  0
  3  4  1  0
  4  5  1  0
  5  6  2  0
  6  7  1  0
  7  8  1  0
  8  9  1  0
  9 10  1  0
 10 11  1  0
 11 12  2  0
 12 13  1  0
 13 14  2  0
 14 15  1  0
 15 16  2  0
 16 17  1  0
  7 18  2  0
 18 19  1  0
 19 20  1  0
 20 21  1  0
 21 22  1  0
 22 23  1  0
 23 24  2  0
 24 25  1  0
 25 26  2  0
 26 27  1  0
 27 28  2  0
 28 29  1  0
 19 30  2  0
  2 31  1  0
 31 32  1  0
 32 33  1  0
 33 34  1  0
 34 35  1  0
 35 36  2  0
 36 37  1  0
 37 38  2  0
 38 39  1  0
 39 40  2  0
 40 41  1  0
 30  5  1  0
 41 32  1  0
 17  8  1  0
 29 20  1  0
 40 35  1  0
 16 11  1  0
 28 23  1  0
  1 42  1  0
  1 43  1  0
  2 44  1  6
  3 45  1  0
  3 46  1  0
  4 47  1  0
  9 48  1  0
  9 49  1  0
 10 50  1  0
 10 51  1  0
 12 52  1  0
 13 53  1  0
 14 54  1  0
 15 55  1  0
 17 56  1  0
 17 57  1  0
 21 58  1  0
 21 59  1  0
 22 60  1  0
 22 61  1  0
 24 62  1  0
 25 63  1  0
 26 64  1  0
 27 65  1  0
 29 66  1  0
 29 67  1  0
 31 68  1  0
 31 69  1  0
 33 70  1  0
 33 71  1  0
 34 72  1  0
 34 73  1  0
 36 74  1  0
 37 75  1  0
 38 76  1  0
 39 77  1  0
 41 78  1  0
 41 79  1  0
M  END
>  <smiles>  (61) 
NC(CNc1nc(N2CCc3ccccc3C2)nc(N2CCc3ccccc3C2)n1)CN1CCc2ccccc2C1

>  <score_type>  (61) 
oracle

>  <origin>  (61) 
autodockgpu

>  <m_score__min__energy>  (61) 
-11.49

>  <m_primary>  (61) 
energy

>  <rmsd>  (61) 
4.661493525035874

>  <m_score__min__rmsd>  (61) 
4.661493525035874

>  <meeko>  (61) 
{"free_energy": -9.58, "intermolecular_energy": -11.97, "internal_energy": -3.28, "cluster_size": 16, "cluster_id": 1, "rank_in_cluster": 16}

>  <energy>  (61) 
-10.85

>  <cluster_rmsd>  (61) 
0.45

>  <cluster>  (61) 
1

$$$$

     RDKit          3D

 79 85  0  0  1  0  0  0  0  0999 V2000
  140.2250   73.9990  222.3260 N   0  0  0  0  0  0  0  0  0  0  0  0
  140.1260   74.5160  220.9780 C   0  0  1  0  0  0  0  0  0  0  0  0
  139.4420   73.5500  220.0550 C   0  0  0  0  0  0  0  0  0  0  0  0
  138.0260   73.5480  220.3530 N   0  0  0  0  0  0  0  0  0  0  0  0
  137.6240   72.9780  221.6120 C   0  0  0  0  0  0  0  0  0  0  0  0
  136.4710   73.3530  222.2190 N   0  0  0  0  0  0  0  0  0  0  0  0
  136.0820   72.8310  223.3960 C   0  0  0  0  0  0  0  0  0  0  0  0
  134.8740   73.2130  224.0480 N   0  0  0  0  0  0  0  0  0  0  0  0
  134.3870   74.5780  223.9650 C   0  0  0  0  0  0  0  0  0  0  0  0
  134.4780   75.1130  225.3870 C   0  0  0  0  0  0  0  0  0  0  0  0
  133.4910   74.2980  226.1720 C   0  0  0  0  0  0  0  0  0  0  0  0
  132.7640   74.9260  227.1790 C   0  0  0  0  0  0  0  0  0  0  0  0
  131.8570   74.1480  227.8900 C   0  0  0  0  0  0  0  0  0  0  0  0
  131.6790   72.8080  227.6140 C   0  0  0  0  0  0  0  0  0  0  0  0
  132.4120   72.1870  226.6030 C   0  0  0  0  0  0  0  0  0  0  0  0
  133.3120   72.9570  225.8970 C   0  0  0  0  0  0  0  0  0  0  0  0
  134.0870   72.2670  224.8140 C   0  0  0  0  0  0  0  0  0  0  0  0
  136.8730   71.9110  223.9720 N   0  0  0  0  0  0  0  0  0  0  0  0
  138.0380   71.4920  223.4180 C   0  0  0  0  0  0  0  0  0  0  0  0
  138.8340   70.5120  224.0780 N   0  0  0  0  0  0  0  0  0  0  0  0
  138.3800   69.1610  224.1520 C   0  0  0  0  0  0  0  0  0  0  0  0
  139.1450   68.2750  225.0560 C   0  0  0  0  0  0  0  0  0  0  0  0
  139.7870   68.9940  226.1750 C   0  0  0  0  0  0  0  0  0  0  0  0
  139.9430   68.4310  227.4170 C   0  0  0  0  0  0  0  0  0  0  0  0
  140.5500   69.1210  228.4560 C   0  0  0  0  0  0  0  0  0  0  0  0
  141.0300   70.4120  228.2970 C   0  0  0  0  0  0  0  0  0  0  0  0
  140.8740   70.9780  227.0480 C   0  0  0  0  0  0  0  0  0  0  0  0
  140.2730   70.2960  226.0200 C   0  0  0  0  0  0  0  0  0  0  0  0
  140.0960   70.8910  224.6720 C   0  0  0  0  0  0  0  0  0  0  0  0
  138.3700   72.0500  222.2450 N   0  0  0  0  0  0  0  0  0  0  0  0
  139.3230   75.7950  221.0210 C   0  0  0  0  0  0  0  0  0  0  0  0
  139.8660   76.6010  222.1210 N   0  0  0  0  0  0  0  0  0  0  0  0
  138.7930   77.3600  222.6760 C   0  0  0  0  0  0  0  0  0  0  0  0
  138.8210   78.7860  222.1360 C   0  0  0  0  0  0  0  0  0  0  0  0
  140.0920   79.3720  222.6910 C   0  0  0  0  0  0  0  0  0  0  0  0
  140.1180   80.5660  223.3670 C   0  0  0  0  0  0  0  0  0  0  0  0
  141.3530   80.9940  223.8290 C   0  0  0  0  0  0  0  0  0  0  0  0
  142.5020   80.2300  223.6050 C   0  0  0  0  0  0  0  0  0  0  0  0
  142.4430   79.0300  222.9210 C   0  0  0  0  0  0  0  0  0  0  0  0
  141.2330   78.6040  222.4650 C   0  0  0  0  0  0  0  0  0  0  0  0
  141.0170   77.3360  221.7130 C   0  0  0  0  0  0  0  0  0  0  0  0
  139.5890   74.4770  222.9830 H   0  0  0  0  0  0  0  0  0  0  0  0
  140.2210   72.9710  222.3750 H   0  0  0  0  0  0  0  0  0  0  0  0
  141.1433   74.6868  220.5960 H   0  0  0  0  0  0  0  0  0  0  0  0
  139.6003   73.8597  219.0114 H   0  0  0  0  0  0  0  0  0  0  0  0
  139.8561   72.5405  220.1947 H   0  0  0  0  0  0  0  0  0  0  0  0
  137.2830   73.9180  219.7490 H   0  0  0  0  0  0  0  0  0  0  0  0
  135.0162   75.1729  223.2866 H   0  0  0  0  0  0  0  0  0  0  0  0
  133.3624   74.6289  223.5680 H   0  0  0  0  0  0  0  0  0  0  0  0
  135.4942   74.9793  225.7862 H   0  0  0  0  0  0  0  0  0  0  0  0
  134.2589   76.1897  225.4385 H   0  0  0  0  0  0  0  0  0  0  0  0
  132.9013   75.9941  227.4033 H   0  0  0  0  0  0  0  0  0  0  0  0
  131.2662   74.6128  228.6931 H   0  0  0  0  0  0  0  0  0  0  0  0
  130.9519   72.2237  228.1970 H   0  0  0  0  0  0  0  0  0  0  0  0
  132.2768   71.1191  226.3765 H   0  0  0  0  0  0  0  0  0  0  0  0
  134.7605   71.5269  225.2707 H   0  0  0  0  0  0  0  0  0  0  0  0
  133.3745   71.7762  224.1347 H   0  0  0  0  0  0  0  0  0  0  0  0
  137.3353   69.1741  224.4962 H   0  0  0  0  0  0  0  0  0  0  0  0
  138.5124   68.7449  223.1424 H   0  0  0  0  0  0  0  0  0  0  0  0
  138.4576   67.5239  225.4724 H   0  0  0  0  0  0  0  0  0  0  0  0
  139.9482   67.8173  224.4599 H   0  0  0  0  0  0  0  0  0  0  0  0
  139.5780   67.4083  227.5926 H   0  0  0  0  0  0  0  0  0  0  0  0
  140.6536   68.6296  229.4347 H   0  0  0  0  0  0  0  0  0  0  0  0
  141.5101   70.9567  229.1233 H   0  0  0  0  0  0  0  0  0  0  0  0
  141.2402   72.0003  226.8723 H   0  0  0  0  0  0  0  0  0  0  0  0
  140.1334   71.9869  224.7591 H   0  0  0  0  0  0  0  0  0  0  0  0
  140.9035   70.5173  224.0253 H   0  0  0  0  0  0  0  0  0  0  0  0
  139.4234   76.3371  220.0691 H   0  0  0  0  0  0  0  0  0  0  0  0
  138.2545   75.5847  221.1764 H   0  0  0  0  0  0  0  0  0  0  0  0
  137.8367   76.8881  222.4061 H   0  0  0  0  0  0  0  0  0  0  0  0
  138.9025   77.3887  223.7702 H   0  0  0  0  0  0  0  0  0  0  0  0
  138.8405   78.7854  221.0362 H   0  0  0  0  0  0  0  0  0  0  0  0
  137.9310   79.3625  222.4284 H   0  0  0  0  0  0  0  0  0  0  0  0
  139.2038   81.1545  223.5341 H   0  0  0  0  0  0  0  0  0  0  0  0
  141.4296   81.9445  224.3774 H   0  0  0  0  0  0  0  0  0  0  0  0
  143.4713   80.5904  223.9800 H   0  0  0  0  0  0  0  0  0  0  0  0
  143.3515   78.4340  222.7494 H   0  0  0  0  0  0  0  0  0  0  0  0
  140.9083   77.5822  220.6464 H   0  0  0  0  0  0  0  0  0  0  0  0
  141.8881   76.6962  221.9174 H   0  0  0  0  0  0  0  0  0  0  0  0
  1  2  1  0
  2  3  1  0
  3  4  1  0
  4  5  1  0
  5  6  2  0
  6  7  1  0
  7  8  1  0
  8  9  1  0
  9 10  1  0
 10 11  1  0
 11 12  2  0
 12 13  1  0
 13 14  2  0
 14 15  1  0
 15 16  2  0
 16 17  1  0
  7 18  2  0
 18 19  1  0
 19 20  1  0
 20 21  1  0
 21 22  1  0
 22 23  1  0
 23 24  2  0
 24 25  1  0
 25 26  2  0
 26 27  1  0
 27 28  2  0
 28 29  1  0
 19 30  2  0
  2 31  1  0
 31 32  1  0
 32 33  1  0
 33 34  1  0
 34 35  1  0
 35 36  2  0
 36 37  1  0
 37 38  2  0
 38 39  1  0
 39 40  2  0
 40 41  1  0
 30  5  1  0
 41 32  1  0
 17  8  1  0
 29 20  1  0
 40 35  1  0
 16 11  1  0
 28 23  1  0
  1 42  1  0
  1 43  1  0
  2 44  1  6
  3 45  1  0
  3 46  1  0
  4 47  1  0
  9 48  1  0
  9 49  1  0
 10 50  1  0
 10 51  1  0
 12 52  1  0
 13 53  1  0
 14 54  1  0
 15 55  1  0
 17 56  1  0
 17 57  1  0
 21 58  1  0
 21 59  1  0
 22 60  1  0
 22 61  1  0
 24 62  1  0
 25 63  1  0
 26 64  1  0
 27 65  1  0
 29 66  1  0
 29 67  1  0
 31 68  1  0
 31 69  1  0
 33 70  1  0
 33 71  1  0
 34 72  1  0
 34 73  1  0
 36 74  1  0
 37 75  1  0
 38 76  1  0
 39 77  1  0
 41 78  1  0
 41 79  1  0
M  END
>  <smiles>  (62) 
NC(CNc1nc(N2CCc3ccccc3C2)nc(N2CCc3ccccc3C2)n1)CN1CCc2ccccc2C1

>  <score_type>  (62) 
oracle

>  <origin>  (62) 
autodockgpu

>  <m_score__min__energy>  (62) 
-11.49

>  <m_primary>  (62) 
energy

>  <rmsd>  (62) 
9.172961715411233

>  <m_score__min__rmsd>  (62) 
9.172961715411233

>  <meeko>  (62) 
{"free_energy": -11.45, "intermolecular_energy": -13.83, "internal_energy": -2.66, "cluster_size": 16, "cluster_id": 1, "rank_in_cluster": 2}

>  <energy>  (62) 
-10.72

>  <cluster_rmsd>  (62) 
0.81

>  <cluster>  (62) 
1

$$$$

     RDKit          3D

 79 85  0  0  1  0  0  0  0  0999 V2000
  139.5920   74.5370  222.6070 N   0  0  0  0  0  0  0  0  0  0  0  0
  139.6770   74.9950  221.2370 C   0  0  1  0  0  0  0  0  0  0  0  0
  139.2150   73.9460  220.2660 C   0  0  0  0  0  0  0  0  0  0  0  0
  137.7990   73.7240  220.4630 N   0  0  0  0  0  0  0  0  0  0  0  0
  137.4020   73.0790  221.6860 C   0  0  0  0  0  0  0  0  0  0  0  0
  136.2280   73.3810  222.2940 N   0  0  0  0  0  0  0  0  0  0  0  0
  135.8430   72.7890  223.4380 C   0  0  0  0  0  0  0  0  0  0  0  0
  134.6140   73.0930  224.0900 N   0  0  0  0  0  0  0  0  0  0  0  0
  134.0490   74.4290  224.0180 C   0  0  0  0  0  0  0  0  0  0  0  0
  134.1050   74.9540  225.4450 C   0  0  0  0  0  0  0  0  0  0  0  0
  133.1650   74.0760  226.2200 C   0  0  0  0  0  0  0  0  0  0  0  0
  132.4000   74.6520  227.2310 C   0  0  0  0  0  0  0  0  0  0  0  0
  131.5380   73.8160  227.9320 C   0  0  0  0  0  0  0  0  0  0  0  0
  131.4400   72.4700  227.6430 C   0  0  0  0  0  0  0  0  0  0  0  0
  132.2100   71.9020  226.6280 C   0  0  0  0  0  0  0  0  0  0  0  0
  133.0650   72.7300  225.9320 C   0  0  0  0  0  0  0  0  0  0  0  0
  133.8810   72.0960  224.8450 C   0  0  0  0  0  0  0  0  0  0  0  0
  136.6610   71.8700  223.9800 N   0  0  0  0  0  0  0  0  0  0  0  0
  137.8470   71.5210  223.4240 C   0  0  0  0  0  0  0  0  0  0  0  0
  138.6710   70.5400  224.0470 N   0  0  0  0  0  0  0  0  0  0  0  0
  138.2270   69.1860  224.1230 C   0  0  0  0  0  0  0  0  0  0  0  0
  139.0260   68.2960  224.9910 C   0  0  0  0  0  0  0  0  0  0  0  0
  139.7020   69.0070  226.0950 C   0  0  0  0  0  0  0  0  0  0  0  0
  139.9030   68.4330  227.3260 C   0  0  0  0  0  0  0  0  0  0  0  0
  140.5410   69.1170  228.3510 C   0  0  0  0  0  0  0  0  0  0  0  0
  141.0080   70.4120  228.1880 C   0  0  0  0  0  0  0  0  0  0  0  0
  140.8070   70.9890  226.9500 C   0  0  0  0  0  0  0  0  0  0  0  0
  140.1750   70.3130  225.9370 C   0  0  0  0  0  0  0  0  0  0  0  0
  139.9490   70.9210  224.6020 C   0  0  0  0  0  0  0  0  0  0  0  0
  138.1730   72.1480  222.2840 N   0  0  0  0  0  0  0  0  0  0  0  0
  138.7960   76.2120  221.0890 C   0  0  0  0  0  0  0  0  0  0  0  0
  139.2010   77.1600  222.1340 N   0  0  0  0  0  0  0  0  0  0  0  0
  138.3970   78.3300  221.9970 C   0  0  0  0  0  0  0  0  0  0  0  0
  139.1680   79.4180  221.2580 C   0  0  0  0  0  0  0  0  0  0  0  0
  140.2940   79.7780  222.1900 C   0  0  0  0  0  0  0  0  0  0  0  0
  140.5570   81.0730  222.5590 C   0  0  0  0  0  0  0  0  0  0  0  0
  141.6210   81.2710  223.4260 C   0  0  0  0  0  0  0  0  0  0  0  0
  142.3760   80.1880  223.8860 C   0  0  0  0  0  0  0  0  0  0  0  0
  142.0850   78.8950  223.4960 C   0  0  0  0  0  0  0  0  0  0  0  0
  141.0410   78.6940  222.6460 C   0  0  0  0  0  0  0  0  0  0  0  0
  140.6130   77.3590  222.1400 C   0  0  0  0  0  0  0  0  0  0  0  0
  139.2280   75.2620  223.2460 H   0  0  0  0  0  0  0  0  0  0  0  0
  139.1650   73.6070  222.7060 H   0  0  0  0  0  0  0  0  0  0  0  0
  140.7288   75.2261  221.0129 H   0  0  0  0  0  0  0  0  0  0  0  0
  139.3964   74.2887  219.2366 H   0  0  0  0  0  0  0  0  0  0  0  0
  139.7683   73.0101  220.4335 H   0  0  0  0  0  0  0  0  0  0  0  0
  137.0520   73.9880  219.8090 H   0  0  0  0  0  0  0  0  0  0  0  0
  134.6448   75.0658  223.3475 H   0  0  0  0  0  0  0  0  0  0  0  0
  133.0244   74.4247  223.6178 H   0  0  0  0  0  0  0  0  0  0  0  0
  135.1263   74.8755  225.8459 H   0  0  0  0  0  0  0  0  0  0  0  0
  133.8232   76.0156  225.5058 H   0  0  0  0  0  0  0  0  0  0  0  0
  132.4746   75.7242  227.4654 H   0  0  0  0  0  0  0  0  0  0  0  0
  130.9186   74.2380  228.7371 H   0  0  0  0  0  0  0  0  0  0  0  0
  130.7475   71.8386  228.2190 H   0  0  0  0  0  0  0  0  0  0  0  0
  132.1376   70.8303  226.3910 H   0  0  0  0  0  0  0  0  0  0  0  0
  134.5950   71.3916  225.2968 H   0  0  0  0  0  0  0  0  0  0  0  0
  133.1996   71.5713  224.1591 H   0  0  0  0  0  0  0  0  0  0  0  0
  137.1945   69.1900  224.5025 H   0  0  0  0  0  0  0  0  0  0  0  0
  138.3275   68.7806  223.1054 H   0  0  0  0  0  0  0  0  0  0  0  0
  138.3569   67.5371  225.4228 H   0  0  0  0  0  0  0  0  0  0  0  0
  139.8110   67.8488  224.3634 H   0  0  0  0  0  0  0  0  0  0  0  0
  139.5499   67.4065  227.5039 H   0  0  0  0  0  0  0  0  0  0  0  0
  140.6802   68.6172  229.3209 H   0  0  0  0  0  0  0  0  0  0  0  0
  141.5125   70.9519  229.0028 H   0  0  0  0  0  0  0  0  0  0  0  0
  141.1619   72.0148  226.7715 H   0  0  0  0  0  0  0  0  0  0  0  0
  139.9823   72.0162  224.6996 H   0  0  0  0  0  0  0  0  0  0  0  0
  140.7367   70.5596  223.9246 H   0  0  0  0  0  0  0  0  0  0  0  0
  138.9360   76.6619  220.0950 H   0  0  0  0  0  0  0  0  0  0  0  0
  137.7339   75.9443  221.1899 H   0  0  0  0  0  0  0  0  0  0  0  0
  137.4876   78.0811  221.4304 H   0  0  0  0  0  0  0  0  0  0  0  0
  138.1282   78.6988  222.9979 H   0  0  0  0  0  0  0  0  0  0  0  0
  139.5597   79.0373  220.3032 H   0  0  0  0  0  0  0  0  0  0  0  0
  138.5367   80.2838  221.0092 H   0  0  0  0  0  0  0  0  0  0  0  0
  139.9533   81.9132  222.1854 H   0  0  0  0  0  0  0  0  0  0  0  0
  141.8734   82.2899  223.7549 H   0  0  0  0  0  0  0  0  0  0  0  0
  143.2174   80.3687  224.5712 H   0  0  0  0  0  0  0  0  0  0  0  0
  142.6828   78.0480  223.8637 H   0  0  0  0  0  0  0  0  0  0  0  0
  140.9813   77.2466  221.1096 H   0  0  0  0  0  0  0  0  0  0  0  0
  141.0341   76.6110  222.8279 H   0  0  0  0  0  0  0  0  0  0  0  0
  1  2  1  0
  2  3  1  0
  3  4  1  0
  4  5  1  0
  5  6  2  0
  6  7  1  0
  7  8  1  0
  8  9  1  0
  9 10  1  0
 10 11  1  0
 11 12  2  0
 12 13  1  0
 13 14  2  0
 14 15  1  0
 15 16  2  0
 16 17  1  0
  7 18  2  0
 18 19  1  0
 19 20  1  0
 20 21  1  0
 21 22  1  0
 22 23  1  0
 23 24  2  0
 24 25  1  0
 25 26  2  0
 26 27  1  0
 27 28  2  0
 28 29  1  0
 19 30  2  0
  2 31  1  0
 31 32  1  0
 32 33  1  0
 33 34  1  0
 34 35  1  0
 35 36  2  0
 36 37  1  0
 37 38  2  0
 38 39  1  0
 39 40  2  0
 40 41  1  0
 30  5  1  0
 41 32  1  0
 17  8  1  0
 29 20  1  0
 40 35  1  0
 16 11  1  0
 28 23  1  0
  1 42  1  0
  1 43  1  0
  2 44  1  6
  3 45  1  0
  3 46  1  0
  4 47  1  0
  9 48  1  0
  9 49  1  0
 10 50  1  0
 10 51  1  0
 12 52  1  0
 13 53  1  0
 14 54  1  0
 15 55  1  0
 17 56  1  0
 17 57  1  0
 21 58  1  0
 21 59  1  0
 22 60  1  0
 22 61  1  0
 24 62  1  0
 25 63  1  0
 26 64  1  0
 27 65  1  0
 29 66  1  0
 29 67  1  0
 31 68  1  0
 31 69  1  0
 33 70  1  0
 33 71  1  0
 34 72  1  0
 34 73  1  0
 36 74  1  0
 37 75  1  0
 38 76  1  0
 39 77  1  0
 41 78  1  0
 41 79  1  0
M  END
>  <smiles>  (63) 
NC(CNc1nc(N2CCc3ccccc3C2)nc(N2CCc3ccccc3C2)n1)CN1CCc2ccccc2C1

>  <score_type>  (63) 
oracle

>  <origin>  (63) 
autodockgpu

>  <m_score__min__energy>  (63) 
-11.49

>  <m_primary>  (63) 
energy

>  <rmsd>  (63) 
9.517507633491578

>  <m_score__min__rmsd>  (63) 
9.517507633491578

>  <meeko>  (63) 
{"free_energy": -11.27, "intermolecular_energy": -13.66, "internal_energy": -2.54, "cluster_size": 16, "cluster_id": 1, "rank_in_cluster": 5}

>  <energy>  (63) 
-10.31

>  <cluster_rmsd>  (63) 
0.6

>  <cluster>  (63) 
1

$$$$

     RDKit          3D

 79 85  0  0  1  0  0  0  0  0999 V2000
  140.0840   75.1850  221.9830 N   0  0  0  0  0  0  0  0  0  0  0  0
  139.3350   75.6250  220.8260 C   0  0  1  0  0  0  0  0  0  0  0  0
  138.0440   74.8730  220.6740 C   0  0  0  0  0  0  0  0  0  0  0  0
  138.3180   73.4560  220.7800 N   0  0  0  0  0  0  0  0  0  0  0  0
  137.8470   72.7860  221.9640 C   0  0  0  0  0  0  0  0  0  0  0  0
  136.6480   73.0900  222.5170 N   0  0  0  0  0  0  0  0  0  0  0  0
  136.1940   72.4740  223.6230 C   0  0  0  0  0  0  0  0  0  0  0  0
  134.9370   72.7810  224.2180 N   0  0  0  0  0  0  0  0  0  0  0  0
  134.3350   74.0900  224.0420 C   0  0  0  0  0  0  0  0  0  0  0  0
  134.3300   74.7080  225.4340 C   0  0  0  0  0  0  0  0  0  0  0  0
  133.3930   73.8520  226.2360 C   0  0  0  0  0  0  0  0  0  0  0  0
  132.5800   74.4670  227.1840 C   0  0  0  0  0  0  0  0  0  0  0  0
  131.7220   73.6510  227.9120 C   0  0  0  0  0  0  0  0  0  0  0  0
  131.6730   72.2870  227.7090 C   0  0  0  0  0  0  0  0  0  0  0  0
  132.4910   71.6800  226.7560 C   0  0  0  0  0  0  0  0  0  0  0  0
  133.3430   72.4880  226.0330 C   0  0  0  0  0  0  0  0  0  0  0  0
  134.2110   71.8110  225.0150 C   0  0  0  0  0  0  0  0  0  0  0  0
  136.9690   71.5290  224.1820 N   0  0  0  0  0  0  0  0  0  0  0  0
  138.1780   71.1770  223.6800 C   0  0  0  0  0  0  0  0  0  0  0  0
  138.9540   70.1670  224.3190 N   0  0  0  0  0  0  0  0  0  0  0  0
  138.4270   68.8480  224.4570 C   0  0  0  0  0  0  0  0  0  0  0  0
  139.1900   67.9400  225.3380 C   0  0  0  0  0  0  0  0  0  0  0  0
  139.9400   68.6450  226.3980 C   0  0  0  0  0  0  0  0  0  0  0  0
  140.1360   68.1030  227.6440 C   0  0  0  0  0  0  0  0  0  0  0  0
  140.8440   68.7800  228.6270 C   0  0  0  0  0  0  0  0  0  0  0  0
  141.3880   70.0360  228.4040 C   0  0  0  0  0  0  0  0  0  0  0  0
  141.1910   70.5800  227.1510 C   0  0  0  0  0  0  0  0  0  0  0  0
  140.4910   69.9110  226.1790 C   0  0  0  0  0  0  0  0  0  0  0  0
  140.2690   70.4830  224.8280 C   0  0  0  0  0  0  0  0  0  0  0  0
  138.5730   71.8280  222.5770 N   0  0  0  0  0  0  0  0  0  0  0  0
  139.0220   77.0930  220.9960 C   0  0  0  0  0  0  0  0  0  0  0  0
  139.8720   77.5850  222.0870 N   0  0  0  0  0  0  0  0  0  0  0  0
  139.0600   78.3880  222.9430 C   0  0  0  0  0  0  0  0  0  0  0  0
  139.2690   79.8660  222.6350 C   0  0  0  0  0  0  0  0  0  0  0  0
  140.6990   80.1320  223.0270 C   0  0  0  0  0  0  0  0  0  0  0  0
  141.0530   81.1610  223.8620 C   0  0  0  0  0  0  0  0  0  0  0  0
  142.4040   81.2970  224.1470 C   0  0  0  0  0  0  0  0  0  0  0  0
  143.3400   80.4160  223.5960 C   0  0  0  0  0  0  0  0  0  0  0  0
  142.9500   79.3890  222.7570 C   0  0  0  0  0  0  0  0  0  0  0  0
  141.6260   79.2500  222.4750 C   0  0  0  0  0  0  0  0  0  0  0  0
  141.0610   78.1930  221.5890 C   0  0  0  0  0  0  0  0  0  0  0  0
  140.9590   75.7170  222.1160 H   0  0  0  0  0  0  0  0  0  0  0  0
  139.5090   75.0640  222.8270 H   0  0  0  0  0  0  0  0  0  0  0  0
  139.9430   75.4402  219.9281 H   0  0  0  0  0  0  0  0  0  0  0  0
  137.3439   75.1751  221.4669 H   0  0  0  0  0  0  0  0  0  0  0  0
  137.5932   75.0957  219.6957 H   0  0  0  0  0  0  0  0  0  0  0  0
  138.8160   72.8850  220.0870 H   0  0  0  0  0  0  0  0  0  0  0  0
  134.9323   74.7009  223.3492 H   0  0  0  0  0  0  0  0  0  0  0  0
  133.3242   74.0271  223.6127 H   0  0  0  0  0  0  0  0  0  0  0  0
  135.3400   74.6883  225.8693 H   0  0  0  0  0  0  0  0  0  0  0  0
  134.0147   75.7617  225.4170 H   0  0  0  0  0  0  0  0  0  0  0  0
  132.6151   75.5538  227.3501 H   0  0  0  0  0  0  0  0  0  0  0  0
  131.0653   74.1041  228.6693 H   0  0  0  0  0  0  0  0  0  0  0  0
  130.9821   71.6723  228.3046 H   0  0  0  0  0  0  0  0  0  0  0  0
  132.4575   70.5936  226.5869 H   0  0  0  0  0  0  0  0  0  0  0  0
  134.9313   71.1607  225.5329 H   0  0  0  0  0  0  0  0  0  0  0  0
  133.5680   71.2208  224.3456 H   0  0  0  0  0  0  0  0  0  0  0  0
  137.4074   68.9324  224.8610 H   0  0  0  0  0  0  0  0  0  0  0  0
  138.4747   68.4005  223.4533 H   0  0  0  0  0  0  0  0  0  0  0  0
  138.4853   67.2425  225.8143 H   0  0  0  0  0  0  0  0  0  0  0  0
  139.9275   67.4203  224.7087 H   0  0  0  0  0  0  0  0  0  0  0  0
  139.7222   67.1088  227.8684 H   0  0  0  0  0  0  0  0  0  0  0  0
  140.9775   68.3069  229.6111 H   0  0  0  0  0  0  0  0  0  0  0  0
  141.9476   70.5710  229.1854 H   0  0  0  0  0  0  0  0  0  0  0  0
  141.6052   71.5739  226.9262 H   0  0  0  0  0  0  0  0  0  0  0  0
  140.3760   71.5764  224.8827 H   0  0  0  0  0  0  0  0  0  0  0  0
  141.0130   70.0456  224.1459 H   0  0  0  0  0  0  0  0  0  0  0  0
  139.2455   77.6378  220.0669 H   0  0  0  0  0  0  0  0  0  0  0  0
  137.9572   77.2452  221.2263 H   0  0  0  0  0  0  0  0  0  0  0  0
  138.0021   78.1305  222.7863 H   0  0  0  0  0  0  0  0  0  0  0  0
  139.3431   78.1964  223.9885 H   0  0  0  0  0  0  0  0  0  0  0  0
  139.1153   80.0660  221.5643 H   0  0  0  0  0  0  0  0  0  0  0  0
  138.5596   80.5110  223.1742 H   0  0  0  0  0  0  0  0  0  0  0  0
  140.3025   81.8449  224.2850 H   0  0  0  0  0  0  0  0  0  0  0  0
  142.7420   82.1051  224.8124 H   0  0  0  0  0  0  0  0  0  0  0  0
  144.4063   80.5427  223.8347 H   0  0  0  0  0  0  0  0  0  0  0  0
  143.6924   78.7003  222.3274 H   0  0  0  0  0  0  0  0  0  0  0  0
  140.8334   78.6467  220.6131 H   0  0  0  0  0  0  0  0  0  0  0  0
  141.8184   77.3979  221.5241 H   0  0  0  0  0  0  0  0  0  0  0  0
  1  2  1  0
  2  3  1  0
  3  4  1  0
  4  5  1  0
  5  6  2  0
  6  7  1  0
  7  8  1  0
  8  9  1  0
  9 10  1  0
 10 11  1  0
 11 12  2  0
 12 13  1  0
 13 14  2  0
 14 15  1  0
 15 16  2  0
 16 17  1  0
  7 18  2  0
 18 19  1  0
 19 20  1  0
 20 21  1  0
 21 22  1  0
 22 23  1  0
 23 24  2  0
 24 25  1  0
 25 26  2  0
 26 27  1  0
 27 28  2  0
 28 29  1  0
 19 30  2  0
  2 31  1  0
 31 32  1  0
 32 33  1  0
 33 34  1  0
 34 35  1  0
 35 36  2  0
 36 37  1  0
 37 38  2  0
 38 39  1  0
 39 40  2  0
 40 41  1  0
 30  5  1  0
 41 32  1  0
 17  8  1  0
 29 20  1  0
 40 35  1  0
 16 11  1  0
 28 23  1  0
  1 42  1  0
  1 43  1  0
  2 44  1  6
  3 45  1  0
  3 46  1  0
  4 47  1  0
  9 48  1  0
  9 49  1  0
 10 50  1  0
 10 51  1  0
 12 52  1  0
 13 53  1  0
 14 54  1  0
 15 55  1  0
 17 56  1  0
 17 57  1  0
 21 58  1  0
 21 59  1  0
 22 60  1  0
 22 61  1  0
 24 62  1  0
 25 63  1  0
 26 64  1  0
 27 65  1  0
 29 66  1  0
 29 67  1  0
 31 68  1  0
 31 69  1  0
 33 70  1  0
 33 71  1  0
 34 72  1  0
 34 73  1  0
 36 74  1  0
 37 75  1  0
 38 76  1  0
 39 77  1  0
 41 78  1  0
 41 79  1  0
M  END
>  <smiles>  (64) 
NC(CNc1nc(N2CCc3ccccc3C2)nc(N2CCc3ccccc3C2)n1)CN1CCc2ccccc2C1

>  <score_type>  (64) 
oracle

>  <origin>  (64) 
autodockgpu

>  <m_score__min__energy>  (64) 
-11.49

>  <m_primary>  (64) 
energy

>  <rmsd>  (64) 
9.671879048392183

>  <m_score__min__rmsd>  (64) 
9.671879048392183

>  <meeko>  (64) 
{"free_energy": -10.92, "intermolecular_energy": -13.31, "internal_energy": -2.14, "cluster_size": 16, "cluster_id": 1, "rank_in_cluster": 8}

>  <energy>  (64) 
-9.93

>  <cluster_rmsd>  (64) 
1.6

>  <cluster>  (64) 
1

$$$$

     RDKit          3D

 79 85  0  0  1  0  0  0  0  0999 V2000
  136.4690   76.4280  220.9800 N   0  0  0  0  0  0  0  0  0  0  0  0
  136.2860   76.3780  222.4140 C   0  0  1  0  0  0  0  0  0  0  0  0
  135.6040   75.1120  222.8480 C   0  0  0  0  0  0  0  0  0  0  0  0
  135.9330   74.0630  221.9080 N   0  0  0  0  0  0  0  0  0  0  0  0
  137.3040   73.6260  221.8690 C   0  0  0  0  0  0  0  0  0  0  0  0
  138.1840   74.1450  220.9780 N   0  0  0  0  0  0  0  0  0  0  0  0
  139.4670   73.7460  220.9260 C   0  0  0  0  0  0  0  0  0  0  0  0
  140.4050   74.2800  219.9970 N   0  0  0  0  0  0  0  0  0  0  0  0
  141.8170   73.9550  220.1020 C   0  0  0  0  0  0  0  0  0  0  0  0
  142.4970   75.2740  220.4460 C   0  0  0  0  0  0  0  0  0  0  0  0
  142.2920   76.1430  219.2390 C   0  0  0  0  0  0  0  0  0  0  0  0
  143.3170   77.0050  218.8600 C   0  0  0  0  0  0  0  0  0  0  0  0
  143.1020   77.7980  217.7390 C   0  0  0  0  0  0  0  0  0  0  0  0
  141.9210   77.7390  217.0260 C   0  0  0  0  0  0  0  0  0  0  0  0
  140.9000   76.8720  217.4130 C   0  0  0  0  0  0  0  0  0  0  0  0
  141.1120   76.0840  218.5250 C   0  0  0  0  0  0  0  0  0  0  0  0
  139.9990   75.1610  218.9190 C   0  0  0  0  0  0  0  0  0  0  0  0
  139.8710   72.8040  221.7940 N   0  0  0  0  0  0  0  0  0  0  0  0
  139.0430   72.2430  222.7110 C   0  0  0  0  0  0  0  0  0  0  0  0
  139.5300   71.2470  223.6040 N   0  0  0  0  0  0  0  0  0  0  0  0
  138.8370   70.0060  223.7300 C   0  0  0  0  0  0  0  0  0  0  0  0
  139.2700   69.1390  224.8470 C   0  0  0  0  0  0  0  0  0  0  0  0
  139.8350   69.8900  225.9860 C   0  0  0  0  0  0  0  0  0  0  0  0
  139.6800   69.4790  227.2870 C   0  0  0  0  0  0  0  0  0  0  0  0
  140.2190   70.1970  228.3450 C   0  0  0  0  0  0  0  0  0  0  0  0
  140.9410   71.3640  228.1460 C   0  0  0  0  0  0  0  0  0  0  0  0
  141.0980   71.7760  226.8380 C   0  0  0  0  0  0  0  0  0  0  0  0
  140.5640   71.0670  225.7920 C   0  0  0  0  0  0  0  0  0  0  0  0
  140.7230   71.4980  224.3810 C   0  0  0  0  0  0  0  0  0  0  0  0
  137.7760   72.6840  222.7100 N   0  0  0  0  0  0  0  0  0  0  0  0
  137.6460   76.4430  223.0680 C   0  0  0  0  0  0  0  0  0  0  0  0
  138.4150   77.4660  222.3470 N   0  0  0  0  0  0  0  0  0  0  0  0
  139.5770   76.8370  221.8080 C   0  0  0  0  0  0  0  0  0  0  0  0
  140.7850   77.1120  222.6960 C   0  0  0  0  0  0  0  0  0  0  0  0
  141.0070   78.5960  222.5780 C   0  0  0  0  0  0  0  0  0  0  0  0
  142.2280   79.1340  222.2580 C   0  0  0  0  0  0  0  0  0  0  0  0
  142.2990   80.5170  222.1790 C   0  0  0  0  0  0  0  0  0  0  0  0
  141.1690   81.3030  222.4200 C   0  0  0  0  0  0  0  0  0  0  0  0
  139.9520   80.7310  222.7410 C   0  0  0  0  0  0  0  0  0  0  0  0
  139.8760   79.3740  222.8190 C   0  0  0  0  0  0  0  0  0  0  0  0
  138.6360   78.6190  223.1550 C   0  0  0  0  0  0  0  0  0  0  0  0
  137.1210   77.1740  220.6890 H   0  0  0  0  0  0  0  0  0  0  0  0
  136.6310   75.5080  220.5510 H   0  0  0  0  0  0  0  0  0  0  0  0
  135.6515   77.2256  222.7124 H   0  0  0  0  0  0  0  0  0  0  0  0
  135.9508   74.8305  223.8533 H   0  0  0  0  0  0  0  0  0  0  0  0
  134.5148   75.2631  222.8753 H   0  0  0  0  0  0  0  0  0  0  0  0
  135.2770   73.6000  221.2690 H   0  0  0  0  0  0  0  0  0  0  0  0
  141.9856   73.2136  220.8969 H   0  0  0  0  0  0  0  0  0  0  0  0
  142.2113   73.5149  219.1742 H   0  0  0  0  0  0  0  0  0  0  0  0
  142.0323   75.7287  221.3333 H   0  0  0  0  0  0  0  0  0  0  0  0
  143.5629   75.1401  220.6826 H   0  0  0  0  0  0  0  0  0  0  0  0
  144.2594   77.0566  219.4250 H   0  0  0  0  0  0  0  0  0  0  0  0
  143.8922   78.4897  217.4117 H   0  0  0  0  0  0  0  0  0  0  0  0
  141.7844   78.3822  216.1442 H   0  0  0  0  0  0  0  0  0  0  0  0
  139.9565   76.8182  216.8500 H   0  0  0  0  0  0  0  0  0  0  0  0
  139.1370   75.7590  219.2497 H   0  0  0  0  0  0  0  0  0  0  0  0
  139.7323   74.5451  218.0475 H   0  0  0  0  0  0  0  0  0  0  0  0
  137.7688   70.2283  223.8695 H   0  0  0  0  0  0  0  0  0  0  0  0
  139.0600   69.4440  222.8111 H   0  0  0  0  0  0  0  0  0  0  0  0
  138.3998   68.5679  225.2029 H   0  0  0  0  0  0  0  0  0  0  0  0
  140.0663   68.4853  224.4614 H   0  0  0  0  0  0  0  0  0  0  0  0
  139.1150   68.5585  227.4955 H   0  0  0  0  0  0  0  0  0  0  0  0
  140.0692   69.8299  229.3711 H   0  0  0  0  0  0  0  0  0  0  0  0
  141.3664   71.9318  228.9866 H   0  0  0  0  0  0  0  0  0  0  0  0
  141.6651   72.6952  226.6293 H   0  0  0  0  0  0  0  0  0  0  0  0
  140.9406   72.5761  224.3606 H   0  0  0  0  0  0  0  0  0  0  0  0
  141.5469   70.9192  223.9381 H   0  0  0  0  0  0  0  0  0  0  0  0
  137.5440   76.7223  224.1270 H   0  0  0  0  0  0  0  0  0  0  0  0
  138.1513   75.4668  223.0261 H   0  0  0  0  0  0  0  0  0  0  0  0
  139.4085   75.7515  221.7498 H   0  0  0  0  0  0  0  0  0  0  0  0
  139.7706   77.2417  220.8036 H   0  0  0  0  0  0  0  0  0  0  0  0
  140.5735   76.8318  223.7385 H   0  0  0  0  0  0  0  0  0  0  0  0
  141.6685   76.5307  222.3934 H   0  0  0  0  0  0  0  0  0  0  0  0
  143.1074   78.4996  222.0732 H   0  0  0  0  0  0  0  0  0  0  0  0
  143.2540   80.9997  221.9242 H   0  0  0  0  0  0  0  0  0  0  0  0
  141.2494   82.3980  222.3530 H   0  0  0  0  0  0  0  0  0  0  0  0
  139.0671   81.3568  222.9287 H   0  0  0  0  0  0  0  0  0  0  0  0
  138.7025   78.2967  224.2046 H   0  0  0  0  0  0  0  0  0  0  0  0
  137.7923   79.3001  222.9700 H   0  0  0  0  0  0  0  0  0  0  0  0
  1  2  1  0
  2  3  1  0
  3  4  1  0
  4  5  1  0
  5  6  2  0
  6  7  1  0
  7  8  1  0
  8  9  1  0
  9 10  1  0
 10 11  1  0
 11 12  2  0
 12 13  1  0
 13 14  2  0
 14 15  1  0
 15 16  2  0
 16 17  1  0
  7 18  2  0
 18 19  1  0
 19 20  1  0
 20 21  1  0
 21 22  1  0
 22 23  1  0
 23 24  2  0
 24 25  1  0
 25 26  2  0
 26 27  1  0
 27 28  2  0
 28 29  1  0
 19 30  2  0
  2 31  1  0
 31 32  1  0
 32 33  1  0
 33 34  1  0
 34 35  1  0
 35 36  2  0
 36 37  1  0
 37 38  2  0
 38 39  1  0
 39 40  2  0
 40 41  1  0
 30  5  1  0
 41 32  1  0
 17  8  1  0
 29 20  1  0
 40 35  1  0
 16 11  1  0
 28 23  1  0
  1 42  1  0
  1 43  1  0
  2 44  1  1
  3 45  1  0
  3 46  1  0
  4 47  1  0
  9 48  1  0
  9 49  1  0
 10 50  1  0
 10 51  1  0
 12 52  1  0
 13 53  1  0
 14 54  1  0
 15 55  1  0
 17 56  1  0
 17 57  1  0
 21 58  1  0
 21 59  1  0
 22 60  1  0
 22 61  1  0
 24 62  1  0
 25 63  1  0
 26 64  1  0
 27 65  1  0
 29 66  1  0
 29 67  1  0
 31 68  1  0
 31 69  1  0
 33 70  1  0
 33 71  1  0
 34 72  1  0
 34 73  1  0
 36 74  1  0
 37 75  1  0
 38 76  1  0
 39 77  1  0
 41 78  1  0
 41 79  1  0
M  END
>  <smiles>  (65) 
NC(CNc1nc(N2CCc3ccccc3C2)nc(N2CCc3ccccc3C2)n1)CN1CCc2ccccc2C1

>  <score_type>  (65) 
oracle

>  <origin>  (65) 
autodockgpu

>  <m_score__min__energy>  (65) 
-11.49

>  <m_primary>  (65) 
energy

>  <rmsd>  (65) 
9.225835047226886

>  <m_score__min__rmsd>  (65) 
9.225835047226886

>  <meeko>  (65) 
{"free_energy": -8.8, "intermolecular_energy": -11.18, "internal_energy": -4.03, "cluster_size": 11, "cluster_id": 4, "rank_in_cluster": 6}

>  <energy>  (65) 
-9.92

>  <cluster_rmsd>  (65) 
0.81

>  <cluster>  (65) 
1

$$$$

     RDKit          3D

 79 85  0  0  1  0  0  0  0  0999 V2000
  136.1050   70.5750  222.7450 N   0  0  0  0  0  0  0  0  0  0  0  0
  136.9480   70.9970  221.6480 C   0  0  1  0  0  0  0  0  0  0  0  0
  136.7950   72.4620  221.3530 C   0  0  0  0  0  0  0  0  0  0  0  0
  137.4760   73.2150  222.3840 N   0  0  0  0  0  0  0  0  0  0  0  0
  138.5580   74.0660  221.9650 C   0  0  0  0  0  0  0  0  0  0  0  0
  138.6080   75.3720  222.3240 N   0  0  0  0  0  0  0  0  0  0  0  0
  139.6110   76.1810  221.9400 C   0  0  0  0  0  0  0  0  0  0  0  0
  139.6800   77.5560  222.3080 N   0  0  0  0  0  0  0  0  0  0  0  0
  138.6190   78.4750  221.9360 C   0  0  0  0  0  0  0  0  0  0  0  0
  139.2700   79.4480  220.9620 C   0  0  0  0  0  0  0  0  0  0  0  0
  140.2880   80.1920  221.7770 C   0  0  0  0  0  0  0  0  0  0  0  0
  140.4900   81.5440  221.5140 C   0  0  0  0  0  0  0  0  0  0  0  0
  141.4370   82.2090  222.2840 C   0  0  0  0  0  0  0  0  0  0  0  0
  142.1520   81.5610  223.2710 C   0  0  0  0  0  0  0  0  0  0  0  0
  141.9430   80.2070  223.5280 C   0  0  0  0  0  0  0  0  0  0  0  0
  141.0030   79.5460  222.7650 C   0  0  0  0  0  0  0  0  0  0  0  0
  140.7960   78.0910  223.0620 C   0  0  0  0  0  0  0  0  0  0  0  0
  140.5860   75.6600  221.1760 N   0  0  0  0  0  0  0  0  0  0  0  0
  140.5970   74.3630  220.7810 C   0  0  0  0  0  0  0  0  0  0  0  0
  141.6590   73.8690  219.9710 N   0  0  0  0  0  0  0  0  0  0  0  0
  141.5320   72.6000  219.3300 C   0  0  0  0  0  0  0  0  0  0  0  0
  142.7650   72.0640  218.7150 C   0  0  0  0  0  0  0  0  0  0  0  0
  144.0000   72.5380  219.3710 C   0  0  0  0  0  0  0  0  0  0  0  0
  145.1240   71.7570  219.4750 C   0  0  0  0  0  0  0  0  0  0  0  0
  146.2760   72.2200  220.0940 C   0  0  0  0  0  0  0  0  0  0  0  0
  146.3540   73.4930  220.6390 C   0  0  0  0  0  0  0  0  0  0  0  0
  145.2240   74.2790  220.5340 C   0  0  0  0  0  0  0  0  0  0  0  0
  144.0840   73.8200  219.9220 C   0  0  0  0  0  0  0  0  0  0  0  0
  142.8610   74.6520  219.8030 C   0  0  0  0  0  0  0  0  0  0  0  0
  139.5690   73.6090  221.1970 N   0  0  0  0  0  0  0  0  0  0  0  0
  138.3860   70.7280  222.0260 C   0  0  0  0  0  0  0  0  0  0  0  0
  138.3960   70.4200  223.4610 N   0  0  0  0  0  0  0  0  0  0  0  0
  139.1020   71.4670  224.1260 C   0  0  0  0  0  0  0  0  0  0  0  0
  140.5340   71.0360  224.4210 C   0  0  0  0  0  0  0  0  0  0  0  0
  140.3900   69.9160  225.4170 C   0  0  0  0  0  0  0  0  0  0  0  0
  141.0750   69.8970  226.6060 C   0  0  0  0  0  0  0  0  0  0  0  0
  140.8530   68.8090  227.4360 C   0  0  0  0  0  0  0  0  0  0  0  0
  139.9700   67.7930  227.0590 C   0  0  0  0  0  0  0  0  0  0  0  0
  139.2950   67.8410  225.8530 C   0  0  0  0  0  0  0  0  0  0  0  0
  139.5080   68.9070  225.0340 C   0  0  0  0  0  0  0  0  0  0  0  0
  138.8540   69.0930  223.7080 C   0  0  0  0  0  0  0  0  0  0  0  0
  136.3770   69.6540  223.1230 H   0  0  0  0  0  0  0  0  0  0  0  0
  135.9390   71.3090  223.4450 H   0  0  0  0  0  0  0  0  0  0  0  0
  136.6523   70.4372  220.7484 H   0  0  0  0  0  0  0  0  0  0  0  0
  137.2388   72.6908  220.3729 H   0  0  0  0  0  0  0  0  0  0  0  0
  135.7287   72.7317  221.3335 H   0  0  0  0  0  0  0  0  0  0  0  0
  137.2560   73.1990  223.3860 H   0  0  0  0  0  0  0  0  0  0  0  0
  137.7921   77.9360  221.4505 H   0  0  0  0  0  0  0  0  0  0  0  0
  138.1888   78.9874  222.8091 H   0  0  0  0  0  0  0  0  0  0  0  0
  139.7565   78.9037  220.1392 H   0  0  0  0  0  0  0  0  0  0  0  0
  138.5353   80.1247  220.5014 H   0  0  0  0  0  0  0  0  0  0  0  0
  139.9230   82.0650  220.7285 H   0  0  0  0  0  0  0  0  0  0  0  0
  141.6212   83.2781  222.1023 H   0  0  0  0  0  0  0  0  0  0  0  0
  142.8943   82.1188  223.8608 H   0  0  0  0  0  0  0  0  0  0  0  0
  142.5086   79.6833  224.3128 H   0  0  0  0  0  0  0  0  0  0  0  0
  141.7080   77.5370  222.7950 H   0  0  0  0  0  0  0  0  0  0  0  0
  140.5761   77.9821  224.1343 H   0  0  0  0  0  0  0  0  0  0  0  0
  141.1871   71.8750  220.0819 H   0  0  0  0  0  0  0  0  0  0  0  0
  140.8264   72.7535  218.5002 H   0  0  0  0  0  0  0  0  0  0  0  0
  142.7367   70.9661  218.7763 H   0  0  0  0  0  0  0  0  0  0  0  0
  142.7915   72.4212  217.6749 H   0  0  0  0  0  0  0  0  0  0  0  0
  145.1110   70.7394  219.0575 H   0  0  0  0  0  0  0  0  0  0  0  0
  147.1528   71.5585  220.1543 H   0  0  0  0  0  0  0  0  0  0  0  0
  147.2687   73.8574  221.1294 H   0  0  0  0  0  0  0  0  0  0  0  0
  145.2373   75.2970  220.9505 H   0  0  0  0  0  0  0  0  0  0  0  0
  142.8866   75.4346  220.5756 H   0  0  0  0  0  0  0  0  0  0  0  0
  142.8439   75.0910  218.7946 H   0  0  0  0  0  0  0  0  0  0  0  0
  138.7750   69.8737  221.4525 H   0  0  0  0  0  0  0  0  0  0  0  0
  139.0220   71.5976  221.8042 H   0  0  0  0  0  0  0  0  0  0  0  0
  139.1169   72.3596  223.4833 H   0  0  0  0  0  0  0  0  0  0  0  0
  138.5942   71.6940  225.0750 H   0  0  0  0  0  0  0  0  0  0  0  0
  141.0303   70.6815  223.5056 H   0  0  0  0  0  0  0  0  0  0  0  0
  141.1500   71.8624  224.8053 H   0  0  0  0  0  0  0  0  0  0  0  0
  141.7662   70.7053  226.8867 H   0  0  0  0  0  0  0  0  0  0  0  0
  141.3770   68.7446  228.4010 H   0  0  0  0  0  0  0  0  0  0  0  0
  139.8091   66.9396  227.7341 H   0  0  0  0  0  0  0  0  0  0  0  0
  138.6026   67.0371  225.5626 H   0  0  0  0  0  0  0  0  0  0  0  0
  139.5802   68.8279  222.9255 H   0  0  0  0  0  0  0  0  0  0  0  0
  137.9642   68.4464  223.7021 H   0  0  0  0  0  0  0  0  0  0  0  0
  1  2  1  0
  2  3  1  0
  3  4  1  0
  4  5  1  0
  5  6  2  0
  6  7  1  0
  7  8  1  0
  8  9  1  0
  9 10  1  0
 10 11  1  0
 11 12  2  0
 12 13  1  0
 13 14  2  0
 14 15  1  0
 15 16  2  0
 16 17  1  0
  7 18  2  0
 18 19  1  0
 19 20  1  0
 20 21  1  0
 21 22  1  0
 22 23  1  0
 23 24  2  0
 24 25  1  0
 25 26  2  0
 26 27  1  0
 27 28  2  0
 28 29  1  0
 19 30  2  0
  2 31  1  0
 31 32  1  0
 32 33  1  0
 33 34  1  0
 34 35  1  0
 35 36  2  0
 36 37  1  0
 37 38  2  0
 38 39  1  0
 39 40  2  0
 40 41  1  0
 30  5  1  0
 41 32  1  0
 17  8  1  0
 29 20  1  0
 40 35  1  0
 16 11  1  0
 28 23  1  0
  1 42  1  0
  1 43  1  0
  2 44  1  6
  3 45  1  0
  3 46  1  0
  4 47  1  0
  9 48  1  0
  9 49  1  0
 10 50  1  0
 10 51  1  0
 12 52  1  0
 13 53  1  0
 14 54  1  0
 15 55  1  0
 17 56  1  0
 17 57  1  0
 21 58  1  0
 21 59  1  0
 22 60  1  0
 22 61  1  0
 24 62  1  0
 25 63  1  0
 26 64  1  0
 27 65  1  0
 29 66  1  0
 29 67  1  0
 31 68  1  0
 31 69  1  0
 33 70  1  0
 33 71  1  0
 34 72  1  0
 34 73  1  0
 36 74  1  0
 37 75  1  0
 38 76  1  0
 39 77  1  0
 41 78  1  0
 41 79  1  0
M  END
>  <smiles>  (66) 
NC(CNc1nc(N2CCc3ccccc3C2)nc(N2CCc3ccccc3C2)n1)CN1CCc2ccccc2C1

>  <score_type>  (66) 
oracle

>  <origin>  (66) 
autodockgpu

>  <m_score__min__energy>  (66) 
-11.49

>  <m_primary>  (66) 
energy

>  <rmsd>  (66) 
3.52281934020014

>  <m_score__min__rmsd>  (66) 
3.52281934020014

>  <meeko>  (66) 
{"free_energy": -9.79, "intermolecular_energy": -12.18, "internal_energy": -2.59, "cluster_size": 9, "cluster_id": 2, "rank_in_cluster": 7}

>  <energy>  (66) 
-9.58

>  <cluster_rmsd>  (66) 
1.84

>  <cluster>  (66) 
1

$$$$

     RDKit          3D

 79 85  0  0  1  0  0  0  0  0999 V2000
  137.4400   76.9130  220.6420 N   0  0  0  0  0  0  0  0  0  0  0  0
  136.8520   76.6990  221.9460 C   0  0  1  0  0  0  0  0  0  0  0  0
  136.2990   75.3100  222.0910 C   0  0  0  0  0  0  0  0  0  0  0  0
  136.9010   74.4640  221.0840 N   0  0  0  0  0  0  0  0  0  0  0  0
  138.2240   73.9650  221.3540 C   0  0  0  0  0  0  0  0  0  0  0  0
  139.3070   74.4450  220.6960 N   0  0  0  0  0  0  0  0  0  0  0  0
  140.5490   73.9890  220.9350 C   0  0  0  0  0  0  0  0  0  0  0  0
  141.6980   74.4820  220.2530 N   0  0  0  0  0  0  0  0  0  0  0  0
  142.1250   75.8600  220.4230 C   0  0  0  0  0  0  0  0  0  0  0  0
  141.9290   76.5010  219.0550 C   0  0  0  0  0  0  0  0  0  0  0  0
  142.9060   75.8020  218.1550 C   0  0  0  0  0  0  0  0  0  0  0  0
  143.5450   76.5450  217.1660 C   0  0  0  0  0  0  0  0  0  0  0  0
  144.4460   75.8730  216.3470 C   0  0  0  0  0  0  0  0  0  0  0  0
  144.7010   74.5260  216.5030 C   0  0  0  0  0  0  0  0  0  0  0  0
  144.0570   73.7900  217.4970 C   0  0  0  0  0  0  0  0  0  0  0  0
  143.1630   74.4550  218.3100 C   0  0  0  0  0  0  0  0  0  0  0  0
  142.4840   73.6420  219.3720 C   0  0  0  0  0  0  0  0  0  0  0  0
  140.7010   73.0270  221.8610 N   0  0  0  0  0  0  0  0  0  0  0  0
  139.6600   72.5030  222.5550 C   0  0  0  0  0  0  0  0  0  0  0  0
  139.8860   71.4840  223.5240 N   0  0  0  0  0  0  0  0  0  0  0  0
  138.9380   70.4280  223.6760 C   0  0  0  0  0  0  0  0  0  0  0  0
  139.1280   69.5590  224.8580 C   0  0  0  0  0  0  0  0  0  0  0  0
  139.7920   70.2420  225.9860 C   0  0  0  0  0  0  0  0  0  0  0  0
  139.4980   69.9550  227.2950 C   0  0  0  0  0  0  0  0  0  0  0  0
  140.1340   70.6070  228.3430 C   0  0  0  0  0  0  0  0  0  0  0  0
  141.0970   71.5800  228.1230 C   0  0  0  0  0  0  0  0  0  0  0  0
  141.3930   71.8690  226.8060 C   0  0  0  0  0  0  0  0  0  0  0  0
  140.7640   71.2250  225.7710 C   0  0  0  0  0  0  0  0  0  0  0  0
  141.0700   71.5250  224.3500 C   0  0  0  0  0  0  0  0  0  0  0  0
  138.4480   73.0000  222.2700 N   0  0  0  0  0  0  0  0  0  0  0  0
  137.9260   76.9020  222.9880 C   0  0  0  0  0  0  0  0  0  0  0  0
  138.8080   77.9630  222.4870 N   0  0  0  0  0  0  0  0  0  0  0  0
  140.0070   77.3460  222.0180 C   0  0  0  0  0  0  0  0  0  0  0  0
  141.1070   77.4640  223.0670 C   0  0  0  0  0  0  0  0  0  0  0  0
  141.3880   78.9410  223.1500 C   0  0  0  0  0  0  0  0  0  0  0  0
  142.6560   79.4550  223.0390 C   0  0  0  0  0  0  0  0  0  0  0  0
  142.7800   80.8330  223.1310 C   0  0  0  0  0  0  0  0  0  0  0  0
  141.6540   81.6390  223.3280 C   0  0  0  0  0  0  0  0  0  0  0  0
  140.3900   81.0890  223.4360 C   0  0  0  0  0  0  0  0  0  0  0  0
  140.2620   79.7370  223.3460 C   0  0  0  0  0  0  0  0  0  0  0  0
  138.9660   79.0070  223.4440 C   0  0  0  0  0  0  0  0  0  0  0  0
  137.8540   77.8530  220.5420 H   0  0  0  0  0  0  0  0  0  0  0  0
  138.0300   76.1340  220.3210 H   0  0  0  0  0  0  0  0  0  0  0  0
  136.0224   77.4100  222.0733 H   0  0  0  0  0  0  0  0  0  0  0  0
  136.5357   74.9199  223.0919 H   0  0  0  0  0  0  0  0  0  0  0  0
  135.2066   75.3261  221.9629 H   0  0  0  0  0  0  0  0  0  0  0  0
  136.4700   74.1850  220.1950 H   0  0  0  0  0  0  0  0  0  0  0  0
  141.5078   76.3661  221.1799 H   0  0  0  0  0  0  0  0  0  0  0  0
  143.1666   75.9317  220.7692 H   0  0  0  0  0  0  0  0  0  0  0  0
  140.8990   76.3482  218.7004 H   0  0  0  0  0  0  0  0  0  0  0  0
  142.0953   77.5881  219.0804 H   0  0  0  0  0  0  0  0  0  0  0  0
  143.3454   77.6191  217.0377 H   0  0  0  0  0  0  0  0  0  0  0  0
  144.9685   76.4294  215.5549 H   0  0  0  0  0  0  0  0  0  0  0  0
  145.4199   74.0275  215.8362 H   0  0  0  0  0  0  0  0  0  0  0  0
  144.2552   72.7160  217.6282 H   0  0  0  0  0  0  0  0  0  0  0  0
  141.8215   72.9066  218.8921 H   0  0  0  0  0  0  0  0  0  0  0  0
  143.2562   73.1363  219.9704 H   0  0  0  0  0  0  0  0  0  0  0  0
  137.9375   70.8798  223.7463 H   0  0  0  0  0  0  0  0  0  0  0  0
  139.0733   69.7761  222.8004 H   0  0  0  0  0  0  0  0  0  0  0  0
  138.1416   69.2076  225.1948 H   0  0  0  0  0  0  0  0  0  0  0  0
  139.7814   68.7294  224.5500 H   0  0  0  0  0  0  0  0  0  0  0  0
  138.7402   69.1900  227.5197 H   0  0  0  0  0  0  0  0  0  0  0  0
  139.8663   70.3442  229.3771 H   0  0  0  0  0  0  0  0  0  0  0  0
  141.5993   72.0951  228.9551 H   0  0  0  0  0  0  0  0  0  0  0  0
  142.1511   72.6337  226.5813 H   0  0  0  0  0  0  0  0  0  0  0  0
  141.5136   72.5296  224.2861 H   0  0  0  0  0  0  0  0  0  0  0  0
  141.7687   70.7590  223.9826 H   0  0  0  0  0  0  0  0  0  0  0  0
  137.4738   77.2054  223.9438 H   0  0  0  0  0  0  0  0  0  0  0  0
  138.4871   75.9721  223.1628 H   0  0  0  0  0  0  0  0  0  0  0  0
  139.8124   76.2827  221.8141 H   0  0  0  0  0  0  0  0  0  0  0  0
  140.3339   77.8521  221.0977 H   0  0  0  0  0  0  0  0  0  0  0  0
  140.7622   77.0782  224.0377 H   0  0  0  0  0  0  0  0  0  0  0  0
  142.0019   76.8809  222.8038 H   0  0  0  0  0  0  0  0  0  0  0  0
  143.5305   78.8058  222.8847 H   0  0  0  0  0  0  0  0  0  0  0  0
  143.7739   81.2970  223.0482 H   0  0  0  0  0  0  0  0  0  0  0  0
  141.7762   82.7299  223.3983 H   0  0  0  0  0  0  0  0  0  0  0  0
  139.5088   81.7289  223.5910 H   0  0  0  0  0  0  0  0  0  0  0  0
  138.8936   78.5667  224.4494 H   0  0  0  0  0  0  0  0  0  0  0  0
  138.1736   79.7427  223.2418 H   0  0  0  0  0  0  0  0  0  0  0  0
  1  2  1  0
  2  3  1  0
  3  4  1  0
  4  5  1  0
  5  6  2  0
  6  7  1  0
  7  8  1  0
  8  9  1  0
  9 10  1  0
 10 11  1  0
 11 12  2  0
 12 13  1  0
 13 14  2  0
 14 15  1  0
 15 16  2  0
 16 17  1  0
  7 18  2  0
 18 19  1  0
 19 20  1  0
 20 21  1  0
 21 22  1  0
 22 23  1  0
 23 24  2  0
 24 25  1  0
 25 26  2  0
 26 27  1  0
 27 28  2  0
 28 29  1  0
 19 30  2  0
  2 31  1  0
 31 32  1  0
 32 33  1  0
 33 34  1  0
 34 35  1  0
 35 36  2  0
 36 37  1  0
 37 38  2  0
 38 39  1  0
 39 40  2  0
 40 41  1  0
 30  5  1  0
 41 32  1  0
 17  8  1  0
 29 20  1  0
 40 35  1  0
 16 11  1  0
 28 23  1  0
  1 42  1  0
  1 43  1  0
  2 44  1  1
  3 45  1  0
  3 46  1  0
  4 47  1  0
  9 48  1  0
  9 49  1  0
 10 50  1  0
 10 51  1  0
 12 52  1  0
 13 53  1  0
 14 54  1  0
 15 55  1  0
 17 56  1  0
 17 57  1  0
 21 58  1  0
 21 59  1  0
 22 60  1  0
 22 61  1  0
 24 62  1  0
 25 63  1  0
 26 64  1  0
 27 65  1  0
 29 66  1  0
 29 67  1  0
 31 68  1  0
 31 69  1  0
 33 70  1  0
 33 71  1  0
 34 72  1  0
 34 73  1  0
 36 74  1  0
 37 75  1  0
 38 76  1  0
 39 77  1  0
 41 78  1  0
 41 79  1  0
M  END
>  <smiles>  (67) 
NC(CNc1nc(N2CCc3ccccc3C2)nc(N2CCc3ccccc3C2)n1)CN1CCc2ccccc2C1

>  <score_type>  (67) 
oracle

>  <origin>  (67) 
autodockgpu

>  <m_score__min__energy>  (67) 
-11.49

>  <m_primary>  (67) 
energy

>  <rmsd>  (67) 
9.424302915952376

>  <m_score__min__rmsd>  (67) 
9.424302915952376

>  <meeko>  (67) 
{"free_energy": -9.29, "intermolecular_energy": -11.68, "internal_energy": -3.38, "cluster_size": 11, "cluster_id": 4, "rank_in_cluster": 3}

>  <energy>  (67) 
-10.71

>  <cluster_rmsd>  (67) 
0.0

>  <cluster>  (67) 
2

$$$$

     RDKit          3D

 79 85  0  0  1  0  0  0  0  0999 V2000
  135.7270   68.5570  223.8480 N   0  0  0  0  0  0  0  0  0  0  0  0
  136.4180   69.0790  222.6890 C   0  0  1  0  0  0  0  0  0  0  0  0
  135.9830   70.4790  222.3610 C   0  0  0  0  0  0  0  0  0  0  0  0
  135.1240   70.9590  223.4220 N   0  0  0  0  0  0  0  0  0  0  0  0
  135.2420   72.3470  223.7820 C   0  0  0  0  0  0  0  0  0  0  0  0
  136.0610   73.1850  223.1010 N   0  0  0  0  0  0  0  0  0  0  0  0
  136.1840   74.4840  223.4260 C   0  0  0  0  0  0  0  0  0  0  0  0
  137.0390   75.3800  222.7220 N   0  0  0  0  0  0  0  0  0  0  0  0
  137.8150   74.9210  221.5840 C   0  0  0  0  0  0  0  0  0  0  0  0
  139.2660   75.0290  222.0310 C   0  0  0  0  0  0  0  0  0  0  0  0
  139.5080   76.4990  222.2160 C   0  0  0  0  0  0  0  0  0  0  0  0
  140.7510   77.0160  221.8630 C   0  0  0  0  0  0  0  0  0  0  0  0
  140.9480   78.3800  222.0440 C   0  0  0  0  0  0  0  0  0  0  0  0
  139.9560   79.1940  222.5520 C   0  0  0  0  0  0  0  0  0  0  0  0
  138.7130   78.6670  222.9010 C   0  0  0  0  0  0  0  0  0  0  0  0
  138.5160   77.3140  222.7220 C   0  0  0  0  0  0  0  0  0  0  0  0
  137.1720   76.7720  223.1050 C   0  0  0  0  0  0  0  0  0  0  0  0
  135.4640   74.9470  224.4620 N   0  0  0  0  0  0  0  0  0  0  0  0
  134.6260   74.1630  225.1850 C   0  0  0  0  0  0  0  0  0  0  0  0
  133.8890   74.7130  226.2720 N   0  0  0  0  0  0  0  0  0  0  0  0
  132.7560   74.0140  226.7870 C   0  0  0  0  0  0  0  0  0  0  0  0
  131.9160   74.7660  227.7430 C   0  0  0  0  0  0  0  0  0  0  0  0
  131.9620   76.2280  227.5380 C   0  0  0  0  0  0  0  0  0  0  0  0
  130.8780   77.0380  227.7680 C   0  0  0  0  0  0  0  0  0  0  0  0
  130.9400   78.4090  227.5710 C   0  0  0  0  0  0  0  0  0  0  0  0
  132.0970   79.0350  227.1310 C   0  0  0  0  0  0  0  0  0  0  0  0
  133.1880   78.2210  226.8990 C   0  0  0  0  0  0  0  0  0  0  0  0
  133.1260   76.8640  227.0940 C   0  0  0  0  0  0  0  0  0  0  0  0
  134.2890   75.9760  226.8480 C   0  0  0  0  0  0  0  0  0  0  0  0
  134.5490   72.8780  224.8100 N   0  0  0  0  0  0  0  0  0  0  0  0
  137.8990   69.0910  222.9860 C   0  0  0  0  0  0  0  0  0  0  0  0
  138.0700   69.7930  224.2640 N   0  0  0  0  0  0  0  0  0  0  0  0
  138.5550   71.1040  223.9780 C   0  0  0  0  0  0  0  0  0  0  0  0
  140.0640   71.1660  224.1880 C   0  0  0  0  0  0  0  0  0  0  0  0
  140.2460   70.9550  225.6670 C   0  0  0  0  0  0  0  0  0  0  0  0
  140.9900   71.8050  226.4460 C   0  0  0  0  0  0  0  0  0  0  0  0
  141.0770   71.5000  227.7960 C   0  0  0  0  0  0  0  0  0  0  0  0
  140.4300   70.3740  228.3150 C   0  0  0  0  0  0  0  0  0  0  0  0
  139.6880   69.5370  227.5040 C   0  0  0  0  0  0  0  0  0  0  0  0
  139.5980   69.8310  226.1780 C   0  0  0  0  0  0  0  0  0  0  0  0
  138.8360   69.0210  225.1860 C   0  0  0  0  0  0  0  0  0  0  0  0
  136.1760   68.8340  224.7360 H   0  0  0  0  0  0  0  0  0  0  0  0
  134.7070   68.6800  223.8120 H   0  0  0  0  0  0  0  0  0  0  0  0
  136.1820   68.4382  221.8266 H   0  0  0  0  0  0  0  0  0  0  0  0
  136.8653   71.1303  222.2760 H   0  0  0  0  0  0  0  0  0  0  0  0
  135.4385   70.4878  221.4053 H   0  0  0  0  0  0  0  0  0  0  0  0
  134.4360   70.3990  223.9390 H   0  0  0  0  0  0  0  0  0  0  0  0
  137.5622   73.8791  221.3380 H   0  0  0  0  0  0  0  0  0  0  0  0
  137.6148   75.5143  220.6796 H   0  0  0  0  0  0  0  0  0  0  0  0
  139.4200   74.4899  222.9774 H   0  0  0  0  0  0  0  0  0  0  0  0
  139.9575   74.5856  221.2994 H   0  0  0  0  0  0  0  0  0  0  0  0
  141.5449   76.3717  221.4574 H   0  0  0  0  0  0  0  0  0  0  0  0
  141.9190   78.8218  221.7756 H   0  0  0  0  0  0  0  0  0  0  0  0
  140.1478   80.2692  222.6829 H   0  0  0  0  0  0  0  0  0  0  0  0
  137.9165   79.3089  223.3054 H   0  0  0  0  0  0  0  0  0  0  0  0
  137.0479   76.8577  224.1946 H   0  0  0  0  0  0  0  0  0  0  0  0
  136.3997   77.3530  222.5795 H   0  0  0  0  0  0  0  0  0  0  0  0
  132.1222   73.7249  225.9357 H   0  0  0  0  0  0  0  0  0  0  0  0
  133.1621   73.1621  227.3521 H   0  0  0  0  0  0  0  0  0  0  0  0
  130.8744   74.4305  227.6312 H   0  0  0  0  0  0  0  0  0  0  0  0
  132.3105   74.5660  228.7501 H   0  0  0  0  0  0  0  0  0  0  0  0
  129.9368   76.5883  228.1173 H   0  0  0  0  0  0  0  0  0  0  0  0
  130.0457   79.0180  227.7694 H   0  0  0  0  0  0  0  0  0  0  0  0
  132.1430   80.1229  226.9750 H   0  0  0  0  0  0  0  0  0  0  0  0
  134.1290   78.6709  226.5496 H   0  0  0  0  0  0  0  0  0  0  0  0
  134.9809   76.4792  226.1565 H   0  0  0  0  0  0  0  0  0  0  0  0
  134.7733   75.7723  227.8144 H   0  0  0  0  0  0  0  0  0  0  0  0
  138.2775   68.0613  223.0660 H   0  0  0  0  0  0  0  0  0  0  0  0
  138.4585   69.5924  222.1825 H   0  0  0  0  0  0  0  0  0  0  0  0
  138.3231   71.3570  222.9329 H   0  0  0  0  0  0  0  0  0  0  0  0
  138.0691   71.8216  224.6554 H   0  0  0  0  0  0  0  0  0  0  0  0
  140.5692   70.3732  223.6168 H   0  0  0  0  0  0  0  0  0  0  0  0
  140.4960   72.1174  223.8443 H   0  0  0  0  0  0  0  0  0  0  0  0
  141.4931   72.6857  226.0202 H   0  0  0  0  0  0  0  0  0  0  0  0
  141.6604   72.1498  228.4649 H   0  0  0  0  0  0  0  0  0  0  0  0
  140.5134   70.1506  229.3888 H   0  0  0  0  0  0  0  0  0  0  0  0
  139.1817   68.6536  227.9202 H   0  0  0  0  0  0  0  0  0  0  0  0
  139.5525   68.4128  224.6145 H   0  0  0  0  0  0  0  0  0  0  0  0
  138.1206   68.4124  225.7586 H   0  0  0  0  0  0  0  0  0  0  0  0
  1  2  1  0
  2  3  1  0
  3  4  1  0
  4  5  1  0
  5  6  2  0
  6  7  1  0
  7  8  1  0
  8  9  1  0
  9 10  1  0
 10 11  1  0
 11 12  2  0
 12 13  1  0
 13 14  2  0
 14 15  1  0
 15 16  2  0
 16 17  1  0
  7 18  2  0
 18 19  1  0
 19 20  1  0
 20 21  1  0
 21 22  1  0
 22 23  1  0
 23 24  2  0
 24 25  1  0
 25 26  2  0
 26 27  1  0
 27 28  2  0
 28 29  1  0
 19 30  2  0
  2 31  1  0
 31 32  1  0
 32 33  1  0
 33 34  1  0
 34 35  1  0
 35 36  2  0
 36 37  1  0
 37 38  2  0
 38 39  1  0
 39 40  2  0
 40 41  1  0
 30  5  1  0
 41 32  1  0
 17  8  1  0
 29 20  1  0
 40 35  1  0
 16 11  1  0
 28 23  1  0
  1 42  1  0
  1 43  1  0
  2 44  1  6
  3 45  1  0
  3 46  1  0
  4 47  1  0
  9 48  1  0
  9 49  1  0
 10 50  1  0
 10 51  1  0
 12 52  1  0
 13 53  1  0
 14 54  1  0
 15 55  1  0
 17 56  1  0
 17 57  1  0
 21 58  1  0
 21 59  1  0
 22 60  1  0
 22 61  1  0
 24 62  1  0
 25 63  1  0
 26 64  1  0
 27 65  1  0
 29 66  1  0
 29 67  1  0
 31 68  1  0
 31 69  1  0
 33 70  1  0
 33 71  1  0
 34 72  1  0
 34 73  1  0
 36 74  1  0
 37 75  1  0
 38 76  1  0
 39 77  1  0
 41 78  1  0
 41 79  1  0
M  END
>  <smiles>  (68) 
NC(CNc1nc(N2CCc3ccccc3C2)nc(N2CCc3ccccc3C2)n1)CN1CCc2ccccc2C1

>  <score_type>  (68) 
oracle

>  <origin>  (68) 
autodockgpu

>  <m_score__min__energy>  (68) 
-11.49

>  <m_primary>  (68) 
energy

>  <rmsd>  (68) 
4.912825157035348

>  <m_score__min__rmsd>  (68) 
4.912825157035348

>  <meeko>  (68) 
{"free_energy": -9.3, "intermolecular_energy": -11.69, "internal_energy": -2.97, "cluster_size": 2, "cluster_id": 7, "rank_in_cluster": 1}

>  <energy>  (68) 
-10.38

>  <cluster_rmsd>  (68) 
1.52

>  <cluster>  (68) 
2

$$$$

     RDKit          3D

 79 85  0  0  1  0  0  0  0  0999 V2000
  139.3940   74.7680  222.4170 N   0  0  0  0  0  0  0  0  0  0  0  0
  139.9410   74.4330  221.1200 C   0  0  1  0  0  0  0  0  0  0  0  0
  138.8850   74.4190  220.0530 C   0  0  0  0  0  0  0  0  0  0  0  0
  138.1640   73.1670  220.1300 N   0  0  0  0  0  0  0  0  0  0  0  0
  137.7660   72.7220  221.4400 C   0  0  0  0  0  0  0  0  0  0  0  0
  136.6420   73.1930  222.0330 N   0  0  0  0  0  0  0  0  0  0  0  0
  136.2570   72.7880  223.2560 C   0  0  0  0  0  0  0  0  0  0  0  0
  135.0790   73.2710  223.8950 N   0  0  0  0  0  0  0  0  0  0  0  0
  134.6540   74.6480  223.7190 C   0  0  0  0  0  0  0  0  0  0  0  0
  134.7920   75.2790  225.0980 C   0  0  0  0  0  0  0  0  0  0  0  0
  133.7830   74.5700  225.9530 C   0  0  0  0  0  0  0  0  0  0  0  0
  133.1020   75.3030  226.9220 C   0  0  0  0  0  0  0  0  0  0  0  0
  132.1720   74.6220  227.6990 C   0  0  0  0  0  0  0  0  0  0  0  0
  131.9290   73.2750  227.5240 C   0  0  0  0  0  0  0  0  0  0  0  0
  132.6160   72.5490  226.5500 C   0  0  0  0  0  0  0  0  0  0  0  0
  133.5380   73.2230  225.7780 C   0  0  0  0  0  0  0  0  0  0  0  0
  134.2620   72.4210  224.7390 C   0  0  0  0  0  0  0  0  0  0  0  0
  137.0230   71.8870  223.8940 N   0  0  0  0  0  0  0  0  0  0  0  0
  138.1590   71.3760  223.3570 C   0  0  0  0  0  0  0  0  0  0  0  0
  138.9300   70.4230  224.0830 N   0  0  0  0  0  0  0  0  0  0  0  0
  138.4560   69.0840  224.2210 C   0  0  0  0  0  0  0  0  0  0  0  0
  139.1920   68.2380  225.1840 C   0  0  0  0  0  0  0  0  0  0  0  0
  139.8240   69.0070  226.2760 C   0  0  0  0  0  0  0  0  0  0  0  0
  139.9500   68.5100  227.5490 C   0  0  0  0  0  0  0  0  0  0  0  0
  140.5470   69.2470  228.5610 C   0  0  0  0  0  0  0  0  0  0  0  0
  141.0480   70.5210  228.3420 C   0  0  0  0  0  0  0  0  0  0  0  0
  140.9220   71.0220  227.0610 C   0  0  0  0  0  0  0  0  0  0  0  0
  140.3300   70.2930  226.0610 C   0  0  0  0  0  0  0  0  0  0  0  0
  140.1850   70.8170  224.6800 C   0  0  0  0  0  0  0  0  0  0  0  0
  138.4880   71.8200  222.1360 N   0  0  0  0  0  0  0  0  0  0  0  0
  140.9770   75.4720  220.7610 C   0  0  0  0  0  0  0  0  0  0  0  0
  140.4650   76.7630  221.2340 N   0  0  0  0  0  0  0  0  0  0  0  0
  140.5250   77.6820  220.1440 C   0  0  0  0  0  0  0  0  0  0  0  0
  141.7600   78.5680  220.2680 C   0  0  0  0  0  0  0  0  0  0  0  0
  141.5100   79.3880  221.5060 C   0  0  0  0  0  0  0  0  0  0  0  0
  141.6110   80.7560  221.5150 C   0  0  0  0  0  0  0  0  0  0  0  0
  141.3540   81.3930  222.7190 C   0  0  0  0  0  0  0  0  0  0  0  0
  141.0100   80.6560  223.8560 C   0  0  0  0  0  0  0  0  0  0  0  0
  140.9160   79.2770  223.8150 C   0  0  0  0  0  0  0  0  0  0  0  0
  141.1670   78.6460  222.6350 C   0  0  0  0  0  0  0  0  0  0  0  0
  141.1050   77.1700  222.4410 C   0  0  0  0  0  0  0  0  0  0  0  0
  139.1000   75.7550  222.4810 H   0  0  0  0  0  0  0  0  0  0  0  0
  138.7150   74.0810  222.7690 H   0  0  0  0  0  0  0  0  0  0  0  0
  140.3789   73.4256  221.1776 H   0  0  0  0  0  0  0  0  0  0  0  0
  138.1896   75.2568  220.2095 H   0  0  0  0  0  0  0  0  0  0  0  0
  139.3519   74.5222  219.0624 H   0  0  0  0  0  0  0  0  0  0  0  0
  137.9080   72.5690  219.3360 H   0  0  0  0  0  0  0  0  0  0  0  0
  135.2992   75.1623  222.9915 H   0  0  0  0  0  0  0  0  0  0  0  0
  133.6268   74.7185  223.3319 H   0  0  0  0  0  0  0  0  0  0  0  0
  135.8076   75.1275  225.4925 H   0  0  0  0  0  0  0  0  0  0  0  0
  134.6221   76.3655  225.0738 H   0  0  0  0  0  0  0  0  0  0  0  0
  133.2923   76.3767  227.0665 H   0  0  0  0  0  0  0  0  0  0  0  0
  131.6156   75.1709  228.4731 H   0  0  0  0  0  0  0  0  0  0  0  0
  131.1866   72.7685  228.1583 H   0  0  0  0  0  0  0  0  0  0  0  0
  132.4281   71.4751  226.4033 H   0  0  0  0  0  0  0  0  0  0  0  0
  134.9083   71.6852  225.2398 H   0  0  0  0  0  0  0  0  0  0  0  0
  133.5165   71.9162  224.1070 H   0  0  0  0  0  0  0  0  0  0  0  0
  137.4058   69.1293  224.5451 H   0  0  0  0  0  0  0  0  0  0  0  0
  138.6003   68.6127  223.2376 H   0  0  0  0  0  0  0  0  0  0  0  0
  138.4870   67.5188  225.6265 H   0  0  0  0  0  0  0  0  0  0  0  0
  139.9995   67.7395  224.6278 H   0  0  0  0  0  0  0  0  0  0  0  0
  139.5683   67.5028  227.7721 H   0  0  0  0  0  0  0  0  0  0  0  0
  140.6252   68.8079  229.5665 H   0  0  0  0  0  0  0  0  0  0  0  0
  141.5213   71.1027  229.1467 H   0  0  0  0  0  0  0  0  0  0  0  0
  141.3051   72.0286  226.8376 H   0  0  0  0  0  0  0  0  0  0  0  0
  140.2354   71.9155  224.7094 H   0  0  0  0  0  0  0  0  0  0  0  0
  140.9989   70.3987  224.0696 H   0  0  0  0  0  0  0  0  0  0  0  0
  141.9325   75.2400  221.2541 H   0  0  0  0  0  0  0  0  0  0  0  0
  141.1559   75.4922  219.6758 H   0  0  0  0  0  0  0  0  0  0  0  0
  140.5736   77.1215  219.1987 H   0  0  0  0  0  0  0  0  0  0  0  0
  139.6261   78.3158  220.1597 H   0  0  0  0  0  0  0  0  0  0  0  0
  142.6675   77.9570  220.3826 H   0  0  0  0  0  0  0  0  0  0  0  0
  141.9192   79.1925  219.3766 H   0  0  0  0  0  0  0  0  0  0  0  0
  141.8827   81.3201  220.6106 H   0  0  0  0  0  0  0  0  0  0  0  0
  141.4214   82.4892  222.7804 H   0  0  0  0  0  0  0  0  0  0  0  0
  140.8104   81.1828  224.8008 H   0  0  0  0  0  0  0  0  0  0  0  0
  140.6450   78.7038  224.7139 H   0  0  0  0  0  0  0  0  0  0  0  0
  142.1335   76.7800  222.4339 H   0  0  0  0  0  0  0  0  0  0  0  0
  140.5011   76.7688  223.2683 H   0  0  0  0  0  0  0  0  0  0  0  0
  1  2  1  0
  2  3  1  0
  3  4  1  0
  4  5  1  0
  5  6  2  0
  6  7  1  0
  7  8  1  0
  8  9  1  0
  9 10  1  0
 10 11  1  0
 11 12  2  0
 12 13  1  0
 13 14  2  0
 14 15  1  0
 15 16  2  0
 16 17  1  0
  7 18  2  0
 18 19  1  0
 19 20  1  0
 20 21  1  0
 21 22  1  0
 22 23  1  0
 23 24  2  0
 24 25  1  0
 25 26  2  0
 26 27  1  0
 27 28  2  0
 28 29  1  0
 19 30  2  0
  2 31  1  0
 31 32  1  0
 32 33  1  0
 33 34  1  0
 34 35  1  0
 35 36  2  0
 36 37  1  0
 37 38  2  0
 38 39  1  0
 39 40  2  0
 40 41  1  0
 30  5  1  0
 41 32  1  0
 17  8  1  0
 29 20  1  0
 40 35  1  0
 16 11  1  0
 28 23  1  0
  1 42  1  0
  1 43  1  0
  2 44  1  1
  3 45  1  0
  3 46  1  0
  4 47  1  0
  9 48  1  0
  9 49  1  0
 10 50  1  0
 10 51  1  0
 12 52  1  0
 13 53  1  0
 14 54  1  0
 15 55  1  0
 17 56  1  0
 17 57  1  0
 21 58  1  0
 21 59  1  0
 22 60  1  0
 22 61  1  0
 24 62  1  0
 25 63  1  0
 26 64  1  0
 27 65  1  0
 29 66  1  0
 29 67  1  0
 31 68  1  0
 31 69  1  0
 33 70  1  0
 33 71  1  0
 34 72  1  0
 34 73  1  0
 36 74  1  0
 37 75  1  0
 38 76  1  0
 39 77  1  0
 41 78  1  0
 41 79  1  0
M  END
>  <smiles>  (69) 
NC(CNc1nc(N2CCc3ccccc3C2)nc(N2CCc3ccccc3C2)n1)CN1CCc2ccccc2C1

>  <score_type>  (69) 
oracle

>  <origin>  (69) 
autodockgpu

>  <m_score__min__energy>  (69) 
-11.49

>  <m_primary>  (69) 
energy

>  <rmsd>  (69) 
9.628183930283434

>  <m_score__min__rmsd>  (69) 
9.628183930283434

>  <meeko>  (69) 
{"free_energy": -11.07, "intermolecular_energy": -13.46, "internal_energy": -2.69, "cluster_size": 16, "cluster_id": 1, "rank_in_cluster": 6}

>  <energy>  (69) 
-10.31

>  <cluster_rmsd>  (69) 
1.66

>  <cluster>  (69) 
2

$$$$

     RDKit          3D

 79 85  0  0  1  0  0  0  0  0999 V2000
  137.1910   76.0290  220.6220 N   0  0  0  0  0  0  0  0  0  0  0  0
  136.7100   76.2370  221.9710 C   0  0  1  0  0  0  0  0  0  0  0  0
  135.9370   75.0540  222.4790 C   0  0  0  0  0  0  0  0  0  0  0  0
  136.3270   73.8850  221.7220 N   0  0  0  0  0  0  0  0  0  0  0  0
  137.7070   73.4840  221.8000 C   0  0  0  0  0  0  0  0  0  0  0  0
  138.1180   72.5400  222.6810 N   0  0  0  0  0  0  0  0  0  0  0  0
  139.4040   72.1560  222.7680 C   0  0  0  0  0  0  0  0  0  0  0  0
  139.8540   71.1650  223.6870 N   0  0  0  0  0  0  0  0  0  0  0  0
  139.6040   69.7570  223.4380 C   0  0  0  0  0  0  0  0  0  0  0  0
  138.6570   69.3260  224.5500 C   0  0  0  0  0  0  0  0  0  0  0  0
  139.4570   69.4550  225.8140 C   0  0  0  0  0  0  0  0  0  0  0  0
  139.2690   68.5100  226.8180 C   0  0  0  0  0  0  0  0  0  0  0  0
  140.0230   68.6540  227.9770 C   0  0  0  0  0  0  0  0  0  0  0  0
  140.9230   69.6880  228.1320 C   0  0  0  0  0  0  0  0  0  0  0  0
  141.1060   70.6300  227.1200 C   0  0  0  0  0  0  0  0  0  0  0  0
  140.3590   70.4890  225.9700 C   0  0  0  0  0  0  0  0  0  0  0  0
  140.5740   71.5140  224.8960 C   0  0  0  0  0  0  0  0  0  0  0  0
  140.2940   72.7380  221.9470 N   0  0  0  0  0  0  0  0  0  0  0  0
  139.9500   73.6890  221.0430 C   0  0  0  0  0  0  0  0  0  0  0  0
  140.9400   74.2690  220.2000 N   0  0  0  0  0  0  0  0  0  0  0  0
  142.3110   74.2440  220.5940 C   0  0  0  0  0  0  0  0  0  0  0  0
  143.2280   75.0750  219.7850 C   0  0  0  0  0  0  0  0  0  0  0  0
  142.5680   76.2420  219.1650 C   0  0  0  0  0  0  0  0  0  0  0  0
  143.2150   77.4370  218.9750 C   0  0  0  0  0  0  0  0  0  0  0  0
  142.5790   78.5220  218.3900 C   0  0  0  0  0  0  0  0  0  0  0  0
  141.2590   78.4580  217.9670 C   0  0  0  0  0  0  0  0  0  0  0  0
  140.6090   77.2550  218.1580 C   0  0  0  0  0  0  0  0  0  0  0  0
  141.2380   76.1820  218.7380 C   0  0  0  0  0  0  0  0  0  0  0  0
  140.5520   74.8840  218.9510 C   0  0  0  0  0  0  0  0  0  0  0  0
  138.6530   74.0270  221.0060 N   0  0  0  0  0  0  0  0  0  0  0  0
  137.9030   76.4560  222.8700 C   0  0  0  0  0  0  0  0  0  0  0  0
  138.7310   77.4880  222.2330 N   0  0  0  0  0  0  0  0  0  0  0  0
  139.9330   76.8650  221.7830 C   0  0  0  0  0  0  0  0  0  0  0  0
  141.0630   77.1230  222.7720 C   0  0  0  0  0  0  0  0  0  0  0  0
  141.2960   78.6080  222.6970 C   0  0  0  0  0  0  0  0  0  0  0  0
  142.5410   79.1480  222.4880 C   0  0  0  0  0  0  0  0  0  0  0  0
  142.6200   80.5310  222.4370 C   0  0  0  0  0  0  0  0  0  0  0  0
  141.4740   81.3170  222.5950 C   0  0  0  0  0  0  0  0  0  0  0  0
  140.2350   80.7420  222.8040 C   0  0  0  0  0  0  0  0  0  0  0  0
  140.1500   79.3850  222.8540 C   0  0  0  0  0  0  0  0  0  0  0  0
  138.8850   78.6280  223.0740 C   0  0  0  0  0  0  0  0  0  0  0  0
  138.2000   76.2250  220.5260 H   0  0  0  0  0  0  0  0  0  0  0  0
  136.8690   75.1480  220.2000 H   0  0  0  0  0  0  0  0  0  0  0  0
  136.0374   77.1074  221.9692 H   0  0  0  0  0  0  0  0  0  0  0  0
  136.1598   74.8962  223.5446 H   0  0  0  0  0  0  0  0  0  0  0  0
  134.8580   75.2333  222.3620 H   0  0  0  0  0  0  0  0  0  0  0  0
  135.7080   73.3130  221.1350 H   0  0  0  0  0  0  0  0  0  0  0  0
  139.1349   69.6152  222.4532 H   0  0  0  0  0  0  0  0  0  0  0  0
  140.5317   69.1660  223.4312 H   0  0  0  0  0  0  0  0  0  0  0  0
  137.7747   69.9821  224.5823 H   0  0  0  0  0  0  0  0  0  0  0  0
  138.2831   68.3023  224.4005 H   0  0  0  0  0  0  0  0  0  0  0  0
  138.5533   67.6831  226.6994 H   0  0  0  0  0  0  0  0  0  0  0  0
  139.8988   67.9249  228.7913 H   0  0  0  0  0  0  0  0  0  0  0  0
  141.5023   69.7703  229.0635 H   0  0  0  0  0  0  0  0  0  0  0  0
  141.8219   71.4572  227.2355 H   0  0  0  0  0  0  0  0  0  0  0  0
  140.2188   72.4909  225.2559 H   0  0  0  0  0  0  0  0  0  0  0  0
  141.6482   71.5541  224.6626 H   0  0  0  0  0  0  0  0  0  0  0  0
  142.3693   74.5931  221.6355 H   0  0  0  0  0  0  0  0  0  0  0  0
  142.6442   73.2055  220.4510 H   0  0  0  0  0  0  0  0  0  0  0  0
  144.0370   75.4371  220.4365 H   0  0  0  0  0  0  0  0  0  0  0  0
  143.6045   74.4423  218.9678 H   0  0  0  0  0  0  0  0  0  0  0  0
  144.2629   77.5369  219.2942 H   0  0  0  0  0  0  0  0  0  0  0  0
  143.1373   79.4605  218.2575 H   0  0  0  0  0  0  0  0  0  0  0  0
  140.7569   79.3203  217.5039 H   0  0  0  0  0  0  0  0  0  0  0  0
  139.5616   77.1541  217.8375 H   0  0  0  0  0  0  0  0  0  0  0  0
  139.4651   75.0533  218.9603 H   0  0  0  0  0  0  0  0  0  0  0  0
  140.8405   74.2072  218.1332 H   0  0  0  0  0  0  0  0  0  0  0  0
  137.5719   76.7955  223.8625 H   0  0  0  0  0  0  0  0  0  0  0  0
  138.4705   75.5236  223.0066 H   0  0  0  0  0  0  0  0  0  0  0  0
  139.7688   75.7810  221.6940 H   0  0  0  0  0  0  0  0  0  0  0  0
  140.2099   77.2851  220.8048 H   0  0  0  0  0  0  0  0  0  0  0  0
  140.7654   76.8268  223.7887 H   0  0  0  0  0  0  0  0  0  0  0  0
  141.9679   76.5446  222.5342 H   0  0  0  0  0  0  0  0  0  0  0  0
  143.4319   78.5143  222.3670 H   0  0  0  0  0  0  0  0  0  0  0  0
  143.5936   81.0151  222.2706 H   0  0  0  0  0  0  0  0  0  0  0  0
  141.5605   82.4128  222.5521 H   0  0  0  0  0  0  0  0  0  0  0  0
  139.3382   81.3669  222.9271 H   0  0  0  0  0  0  0  0  0  0  0  0
  138.8633   78.2898  224.1205 H   0  0  0  0  0  0  0  0  0  0  0  0
  138.0604   79.3139  222.8297 H   0  0  0  0  0  0  0  0  0  0  0  0
  1  2  1  0
  2  3  1  0
  3  4  1  0
  4  5  1  0
  5  6  2  0
  6  7  1  0
  7  8  1  0
  8  9  1  0
  9 10  1  0
 10 11  1  0
 11 12  2  0
 12 13  1  0
 13 14  2  0
 14 15  1  0
 15 16  2  0
 16 17  1  0
  7 18  2  0
 18 19  1  0
 19 20  1  0
 20 21  1  0
 21 22  1  0
 22 23  1  0
 23 24  2  0
 24 25  1  0
 25 26  2  0
 26 27  1  0
 27 28  2  0
 28 29  1  0
 19 30  2  0
  2 31  1  0
 31 32  1  0
 32 33  1  0
 33 34  1  0
 34 35  1  0
 35 36  2  0
 36 37  1  0
 37 38  2  0
 38 39  1  0
 39 40  2  0
 40 41  1  0
 30  5  1  0
 41 32  1  0
 17  8  1  0
 29 20  1  0
 40 35  1  0
 16 11  1  0
 28 23  1  0
  1 42  1  0
  1 43  1  0
  2 44  1  6
  3 45  1  0
  3 46  1  0
  4 47  1  0
  9 48  1  0
  9 49  1  0
 10 50  1  0
 10 51  1  0
 12 52  1  0
 13 53  1  0
 14 54  1  0
 15 55  1  0
 17 56  1  0
 17 57  1  0
 21 58  1  0
 21 59  1  0
 22 60  1  0
 22 61  1  0
 24 62  1  0
 25 63  1  0
 26 64  1  0
 27 65  1  0
 29 66  1  0
 29 67  1  0
 31 68  1  0
 31 69  1  0
 33 70  1  0
 33 71  1  0
 34 72  1  0
 34 73  1  0
 36 74  1  0
 37 75  1  0
 38 76  1  0
 39 77  1  0
 41 78  1  0
 41 79  1  0
M  END
>  <smiles>  (70) 
NC(CNc1nc(N2CCc3ccccc3C2)nc(N2CCc3ccccc3C2)n1)CN1CCc2ccccc2C1

>  <score_type>  (70) 
oracle

>  <origin>  (70) 
autodockgpu

>  <m_score__min__energy>  (70) 
-11.49

>  <m_primary>  (70) 
energy

>  <rmsd>  (70) 
9.199512732776755

>  <m_score__min__rmsd>  (70) 
9.199512732776755

>  <meeko>  (70) 
{"free_energy": -8.89, "intermolecular_energy": -11.27, "internal_energy": -4.32, "cluster_size": 11, "cluster_id": 4, "rank_in_cluster": 5}

>  <energy>  (70) 
-9.94

>  <cluster_rmsd>  (70) 
1.56

>  <cluster>  (70) 
2

$$$$

     RDKit          3D

 79 85  0  0  1  0  0  0  0  0999 V2000
  144.0000   76.4540  219.7560 N   0  0  0  0  0  0  0  0  0  0  0  0
  143.5120   75.8130  218.5540 C   0  0  1  0  0  0  0  0  0  0  0  0
  143.4020   74.3240  218.7170 C   0  0  0  0  0  0  0  0  0  0  0  0
  143.4430   74.0080  220.1280 N   0  0  0  0  0  0  0  0  0  0  0  0
  142.2270   74.1920  220.8760 C   0  0  0  0  0  0  0  0  0  0  0  0
  141.4120   73.1480  221.1650 N   0  0  0  0  0  0  0  0  0  0  0  0
  140.2720   73.3020  221.8600 C   0  0  0  0  0  0  0  0  0  0  0  0
  139.4050   72.2170  222.1740 N   0  0  0  0  0  0  0  0  0  0  0  0
  138.0960   72.1130  221.5520 C   0  0  0  0  0  0  0  0  0  0  0  0
  137.1060   72.2920  222.6940 C   0  0  0  0  0  0  0  0  0  0  0  0
  137.3140   71.0980  223.5800 C   0  0  0  0  0  0  0  0  0  0  0  0
  136.2030   70.5290  224.1980 C   0  0  0  0  0  0  0  0  0  0  0  0
  136.4240   69.4240  225.0120 C   0  0  0  0  0  0  0  0  0  0  0  0
  137.6900   68.9070  225.2050 C   0  0  0  0  0  0  0  0  0  0  0  0
  138.7960   69.4840  224.5820 C   0  0  0  0  0  0  0  0  0  0  0  0
  138.5780   70.5800  223.7730 C   0  0  0  0  0  0  0  0  0  0  0  0
  139.7840   71.1810  223.1140 C   0  0  0  0  0  0  0  0  0  0  0  0
  139.9480   74.5390  222.2740 N   0  0  0  0  0  0  0  0  0  0  0  0
  140.7180   75.6260  222.0190 C   0  0  0  0  0  0  0  0  0  0  0  0
  140.3190   76.9120  222.4850 N   0  0  0  0  0  0  0  0  0  0  0  0
  138.9710   77.3450  222.3070 C   0  0  0  0  0  0  0  0  0  0  0  0
  138.7110   78.7710  222.5980 C   0  0  0  0  0  0  0  0  0  0  0  0
  139.8900   79.6360  222.3920 C   0  0  0  0  0  0  0  0  0  0  0  0
  139.7850   80.9280  221.9430 C   0  0  0  0  0  0  0  0  0  0  0  0
  140.9050   81.7260  221.7560 C   0  0  0  0  0  0  0  0  0  0  0  0
  142.1860   81.2620  222.0120 C   0  0  0  0  0  0  0  0  0  0  0  0
  142.2920   79.9620  222.4650 C   0  0  0  0  0  0  0  0  0  0  0  0
  141.1850   79.1730  222.6480 C   0  0  0  0  0  0  0  0  0  0  0  0
  141.2820   77.7730  223.1320 C   0  0  0  0  0  0  0  0  0  0  0  0
  141.8410   75.4050  221.3220 N   0  0  0  0  0  0  0  0  0  0  0  0
  142.1420   76.3670  218.2440 C   0  0  0  0  0  0  0  0  0  0  0  0
  142.0830   77.7090  218.8370 N   0  0  0  0  0  0  0  0  0  0  0  0
  140.7570   77.9140  219.3210 C   0  0  0  0  0  0  0  0  0  0  0  0
  139.9530   78.7430  218.3260 C   0  0  0  0  0  0  0  0  0  0  0  0
  140.6250   80.0910  218.3340 C   0  0  0  0  0  0  0  0  0  0  0  0
  139.9290   81.2580  218.5240 C   0  0  0  0  0  0  0  0  0  0  0  0
  140.6660   82.4330  218.5110 C   0  0  0  0  0  0  0  0  0  0  0  0
  142.0490   82.4040  218.3120 C   0  0  0  0  0  0  0  0  0  0  0  0
  142.7220   81.2110  218.1230 C   0  0  0  0  0  0  0  0  0  0  0  0
  142.0040   80.0540  218.1350 C   0  0  0  0  0  0  0  0  0  0  0  0
  142.5910   78.6980  217.9450 C   0  0  0  0  0  0  0  0  0  0  0  0
  144.1060   77.4740  219.6460 H   0  0  0  0  0  0  0  0  0  0  0  0
  143.5170   76.1490  220.6110 H   0  0  0  0  0  0  0  0  0  0  0  0
  144.2249   76.0141  217.7408 H   0  0  0  0  0  0  0  0  0  0  0  0
  142.4523   73.9736  218.2866 H   0  0  0  0  0  0  0  0  0  0  0  0
  144.2346   73.8274  218.1972 H   0  0  0  0  0  0  0  0  0  0  0  0
  144.2610   73.6630  220.6440 H   0  0  0  0  0  0  0  0  0  0  0  0
  137.9625   72.9014  220.7966 H   0  0  0  0  0  0  0  0  0  0  0  0
  137.9594   71.1537  221.0313 H   0  0  0  0  0  0  0  0  0  0  0  0
  137.3138   73.2220  223.2435 H   0  0  0  0  0  0  0  0  0  0  0  0
  136.0690   72.3636  222.3342 H   0  0  0  0  0  0  0  0  0  0  0  0
  135.1926   70.9371  224.0482 H   0  0  0  0  0  0  0  0  0  0  0  0
  135.5687   68.9493  225.5152 H   0  0  0  0  0  0  0  0  0  0  0  0
  137.8272   68.0314  225.8566 H   0  0  0  0  0  0  0  0  0  0  0  0
  139.8079   69.0791  224.7305 H   0  0  0  0  0  0  0  0  0  0  0  0
  140.4348   71.6174  223.8860 H   0  0  0  0  0  0  0  0  0  0  0  0
  140.3126   70.3881  222.5646 H   0  0  0  0  0  0  0  0  0  0  0  0
  138.6915   77.1576  221.2598 H   0  0  0  0  0  0  0  0  0  0  0  0
  138.3753   76.7771  223.0368 H   0  0  0  0  0  0  0  0  0  0  0  0
  137.9030   79.1199  221.9381 H   0  0  0  0  0  0  0  0  0  0  0  0
  138.4387   78.8410  223.6615 H   0  0  0  0  0  0  0  0  0  0  0  0
  138.7891   81.3415  221.7259 H   0  0  0  0  0  0  0  0  0  0  0  0
  140.7724   82.7563  221.3942 H   0  0  0  0  0  0  0  0  0  0  0  0
  143.0720   81.8965  221.8620 H   0  0  0  0  0  0  0  0  0  0  0  0
  143.2878   79.5493  222.6843 H   0  0  0  0  0  0  0  0  0  0  0  0
  142.2937   77.3942  222.9247 H   0  0  0  0  0  0  0  0  0  0  0  0
  141.0713   77.7699  224.2116 H   0  0  0  0  0  0  0  0  0  0  0  0
  141.9953   76.4272  217.1555 H   0  0  0  0  0  0  0  0  0  0  0  0
  141.3525   75.7195  218.6533 H   0  0  0  0  0  0  0  0  0  0  0  0
  140.2669   76.9392  219.4608 H   0  0  0  0  0  0  0  0  0  0  0  0
  140.8050   78.4524  220.2790 H   0  0  0  0  0  0  0  0  0  0  0  0
  139.9931   78.2938  217.3227 H   0  0  0  0  0  0  0  0  0  0  0  0
  138.8878   78.8034  218.5939 H   0  0  0  0  0  0  0  0  0  0  0  0
  138.8400   81.2616  218.6790 H   0  0  0  0  0  0  0  0  0  0  0  0
  140.1570   83.3969  218.6587 H   0  0  0  0  0  0  0  0  0  0  0  0
  142.6130   83.3484  218.3056 H   0  0  0  0  0  0  0  0  0  0  0  0
  143.8108   81.1969  217.9668 H   0  0  0  0  0  0  0  0  0  0  0  0
  142.3818   78.3732  216.9151 H   0  0  0  0  0  0  0  0  0  0  0  0
  143.6671   78.7883  218.1543 H   0  0  0  0  0  0  0  0  0  0  0  0
  1  2  1  0
  2  3  1  0
  3  4  1  0
  4  5  1  0
  5  6  2  0
  6  7  1  0
  7  8  1  0
  8  9  1  0
  9 10  1  0
 10 11  1  0
 11 12  2  0
 12 13  1  0
 13 14  2  0
 14 15  1  0
 15 16  2  0
 16 17  1  0
  7 18  2  0
 18 19  1  0
 19 20  1  0
 20 21  1  0
 21 22  1  0
 22 23  1  0
 23 24  2  0
 24 25  1  0
 25 26  2  0
 26 27  1  0
 27 28  2  0
 28 29  1  0
 19 30  2  0
  2 31  1  0
 31 32  1  0
 32 33  1  0
 33 34  1  0
 34 35  1  0
 35 36  2  0
 36 37  1  0
 37 38  2  0
 38 39  1  0
 39 40  2  0
 40 41  1  0
 30  5  1  0
 41 32  1  0
 17  8  1  0
 29 20  1  0
 40 35  1  0
 16 11  1  0
 28 23  1  0
  1 42  1  0
  1 43  1  0
  2 44  1  6
  3 45  1  0
  3 46  1  0
  4 47  1  0
  9 48  1  0
  9 49  1  0
 10 50  1  0
 10 51  1  0
 12 52  1  0
 13 53  1  0
 14 54  1  0
 15 55  1  0
 17 56  1  0
 17 57  1  0
 21 58  1  0
 21 59  1  0
 22 60  1  0
 22 61  1  0
 24 62  1  0
 25 63  1  0
 26 64  1  0
 27 65  1  0
 29 66  1  0
 29 67  1  0
 31 68  1  0
 31 69  1  0
 33 70  1  0
 33 71  1  0
 34 72  1  0
 34 73  1  0
 36 74  1  0
 37 75  1  0
 38 76  1  0
 39 77  1  0
 41 78  1  0
 41 79  1  0
M  END
>  <smiles>  (71) 
NC(CNc1nc(N2CCc3ccccc3C2)nc(N2CCc3ccccc3C2)n1)CN1CCc2ccccc2C1

>  <score_type>  (71) 
oracle

>  <origin>  (71) 
autodockgpu

>  <m_score__min__energy>  (71) 
-11.49

>  <m_primary>  (71) 
energy

>  <rmsd>  (71) 
11.694450844490612

>  <m_score__min__rmsd>  (71) 
11.694450844490612

>  <meeko>  (71) 
{"free_energy": -8.12, "intermolecular_energy": -10.5, "internal_energy": -4.78, "cluster_size": 2, "cluster_id": 8, "rank_in_cluster": 2}

>  <energy>  (71) 
-9.9

>  <cluster_rmsd>  (71) 
1.03

>  <cluster>  (71) 
2

$$$$

     RDKit          3D

 79 85  0  0  1  0  0  0  0  0999 V2000
  137.4640   76.2880  219.9460 N   0  0  0  0  0  0  0  0  0  0  0  0
  136.4030   76.6960  220.8410 C   0  0  1  0  0  0  0  0  0  0  0  0
  136.1710   75.6910  221.9320 C   0  0  0  0  0  0  0  0  0  0  0  0
  136.5960   74.3900  221.4620 N   0  0  0  0  0  0  0  0  0  0  0  0
  137.9690   74.0270  221.6950 C   0  0  0  0  0  0  0  0  0  0  0  0
  138.2950   72.9240  222.4120 N   0  0  0  0  0  0  0  0  0  0  0  0
  139.5720   72.5720  222.6400 C   0  0  0  0  0  0  0  0  0  0  0  0
  139.9330   71.4160  223.3900 N   0  0  0  0  0  0  0  0  0  0  0  0
  139.5880   70.0880  222.9150 C   0  0  0  0  0  0  0  0  0  0  0  0
  138.5920   69.5540  223.9360 C   0  0  0  0  0  0  0  0  0  0  0  0
  139.3750   69.4200  225.2100 C   0  0  0  0  0  0  0  0  0  0  0  0
  139.1010   68.3430  226.0470 C   0  0  0  0  0  0  0  0  0  0  0  0
  139.8400   68.2430  227.2200 C   0  0  0  0  0  0  0  0  0  0  0  0
  140.8090   69.1700  227.5470 C   0  0  0  0  0  0  0  0  0  0  0  0
  141.0780   70.2460  226.7010 C   0  0  0  0  0  0  0  0  0  0  0  0
  140.3440   70.3470  225.5370 C   0  0  0  0  0  0  0  0  0  0  0  0
  140.6520   71.5120  224.6450 C   0  0  0  0  0  0  0  0  0  0  0  0
  140.5430   73.3510  222.1330 N   0  0  0  0  0  0  0  0  0  0  0  0
  140.2860   74.4680  221.4080 C   0  0  0  0  0  0  0  0  0  0  0  0
  141.3590   75.2530  220.8970 N   0  0  0  0  0  0  0  0  0  0  0  0
  141.2310   76.6730  220.8340 C   0  0  0  0  0  0  0  0  0  0  0  0
  142.2830   77.3800  220.0730 C   0  0  0  0  0  0  0  0  0  0  0  0
  142.8880   76.5560  219.0060 C   0  0  0  0  0  0  0  0  0  0  0  0
  143.3240   77.0940  217.8210 C   0  0  0  0  0  0  0  0  0  0  0  0
  143.8900   76.3040  216.8300 C   0  0  0  0  0  0  0  0  0  0  0  0
  144.0460   74.9350  216.9840 C   0  0  0  0  0  0  0  0  0  0  0  0
  143.6080   74.3950  218.1770 C   0  0  0  0  0  0  0  0  0  0  0  0
  143.0470   75.1750  219.1560 C   0  0  0  0  0  0  0  0  0  0  0  0
  142.5700   74.6100  220.4420 C   0  0  0  0  0  0  0  0  0  0  0  0
  138.9930   74.7640  221.2160 N   0  0  0  0  0  0  0  0  0  0  0  0
  136.7950   78.0110  221.4720 C   0  0  0  0  0  0  0  0  0  0  0  0
  138.2600   78.0880  221.4180 N   0  0  0  0  0  0  0  0  0  0  0  0
  138.7620   77.7310  222.7050 C   0  0  0  0  0  0  0  0  0  0  0  0
  139.1150   78.9830  223.4990 C   0  0  0  0  0  0  0  0  0  0  0  0
  140.2660   79.5940  222.7450 C   0  0  0  0  0  0  0  0  0  0  0  0
  141.4440   79.9420  223.3560 C   0  0  0  0  0  0  0  0  0  0  0  0
  142.4270   80.4940  222.5480 C   0  0  0  0  0  0  0  0  0  0  0  0
  142.2050   80.6760  221.1800 C   0  0  0  0  0  0  0  0  0  0  0  0
  141.0060   80.3140  220.5940 C   0  0  0  0  0  0  0  0  0  0  0  0
  140.0380   79.7720  221.3820 C   0  0  0  0  0  0  0  0  0  0  0  0
  138.7000   79.3370  220.8910 C   0  0  0  0  0  0  0  0  0  0  0  0
  138.3870   76.6510  220.2340 H   0  0  0  0  0  0  0  0  0  0  0  0
  137.4380   75.2890  219.7030 H   0  0  0  0  0  0  0  0  0  0  0  0
  135.4742   76.7854  220.2584 H   0  0  0  0  0  0  0  0  0  0  0  0
  136.7524   75.9709  222.8229 H   0  0  0  0  0  0  0  0  0  0  0  0
  135.1035   75.6639  222.1960 H   0  0  0  0  0  0  0  0  0  0  0  0
  136.0070   73.7020  220.9790 H   0  0  0  0  0  0  0  0  0  0  0  0
  139.1285   70.1410  221.9170 H   0  0  0  0  0  0  0  0  0  0  0  0
  140.4714   69.4396  222.8194 H   0  0  0  0  0  0  0  0  0  0  0  0
  137.7577   70.2588  224.0674 H   0  0  0  0  0  0  0  0  0  0  0  0
  138.1498   68.5975  223.6205 H   0  0  0  0  0  0  0  0  0  0  0  0
  138.3307   67.6007  225.7909 H   0  0  0  0  0  0  0  0  0  0  0  0
  139.6478   67.4040  227.9049 H   0  0  0  0  0  0  0  0  0  0  0  0
  141.3747   69.0592  228.4839 H   0  0  0  0  0  0  0  0  0  0  0  0
  141.8491   70.9888  226.9533 H   0  0  0  0  0  0  0  0  0  0  0  0
  140.3602   72.4417  225.1554 H   0  0  0  0  0  0  0  0  0  0  0  0
  141.7307   71.5099  224.4294 H   0  0  0  0  0  0  0  0  0  0  0  0
  140.2627   76.9043  220.3662 H   0  0  0  0  0  0  0  0  0  0  0  0
  141.3225   77.0278  221.8712 H   0  0  0  0  0  0  0  0  0  0  0  0
  141.8390   78.2752  219.6131 H   0  0  0  0  0  0  0  0  0  0  0  0
  143.0844   77.6321  220.7831 H   0  0  0  0  0  0  0  0  0  0  0  0
  143.2225   78.1763  217.6528 H   0  0  0  0  0  0  0  0  0  0  0  0
  144.2245   76.7778  215.8953 H   0  0  0  0  0  0  0  0  0  0  0  0
  144.4952   74.3116  216.1969 H   0  0  0  0  0  0  0  0  0  0  0  0
  143.7115   73.3131  218.3464 H   0  0  0  0  0  0  0  0  0  0  0  0
  142.3734   73.5361  220.3074 H   0  0  0  0  0  0  0  0  0  0  0  0
  143.3504   74.7787  221.1987 H   0  0  0  0  0  0  0  0  0  0  0  0
  136.3510   78.8470  220.9117 H   0  0  0  0  0  0  0  0  0  0  0  0
  136.4347   78.0736  222.5094 H   0  0  0  0  0  0  0  0  0  0  0  0
  137.9946   77.1605  223.2487 H   0  0  0  0  0  0  0  0  0  0  0  0
  139.6673   77.1188  222.5796 H   0  0  0  0  0  0  0  0  0  0  0  0
  138.2611   79.6755  223.5334 H   0  0  0  0  0  0  0  0  0  0  0  0
  139.3719   78.7573  224.5445 H   0  0  0  0  0  0  0  0  0  0  0  0
  141.6013   79.7906  224.4341 H   0  0  0  0  0  0  0  0  0  0  0  0
  143.3904   80.7914  222.9879 H   0  0  0  0  0  0  0  0  0  0  0  0
  142.9988   81.1153  220.5581 H   0  0  0  0  0  0  0  0  0  0  0  0
  140.8387   80.4606  219.5167 H   0  0  0  0  0  0  0  0  0  0  0  0
  137.9643   80.1064  221.1683 H   0  0  0  0  0  0  0  0  0  0  0  0
  138.7911   79.2054  219.8027 H   0  0  0  0  0  0  0  0  0  0  0  0
  1  2  1  0
  2  3  1  0
  3  4  1  0
  4  5  1  0
  5  6  2  0
  6  7  1  0
  7  8  1  0
  8  9  1  0
  9 10  1  0
 10 11  1  0
 11 12  2  0
 12 13  1  0
 13 14  2  0
 14 15  1  0
 15 16  2  0
 16 17  1  0
  7 18  2  0
 18 19  1  0
 19 20  1  0
 20 21  1  0
 21 22  1  0
 22 23  1  0
 23 24  2  0
 24 25  1  0
 25 26  2  0
 26 27  1  0
 27 28  2  0
 28 29  1  0
 19 30  2  0
  2 31  1  0
 31 32  1  0
 32 33  1  0
 33 34  1  0
 34 35  1  0
 35 36  2  0
 36 37  1  0
 37 38  2  0
 38 39  1  0
 39 40  2  0
 40 41  1  0
 30  5  1  0
 41 32  1  0
 17  8  1  0
 29 20  1  0
 40 35  1  0
 16 11  1  0
 28 23  1  0
  1 42  1  0
  1 43  1  0
  2 44  1  6
  3 45  1  0
  3 46  1  0
  4 47  1  0
  9 48  1  0
  9 49  1  0
 10 50  1  0
 10 51  1  0
 12 52  1  0
 13 53  1  0
 14 54  1  0
 15 55  1  0
 17 56  1  0
 17 57  1  0
 21 58  1  0
 21 59  1  0
 22 60  1  0
 22 61  1  0
 24 62  1  0
 25 63  1  0
 26 64  1  0
 27 65  1  0
 29 66  1  0
 29 67  1  0
 31 68  1  0
 31 69  1  0
 33 70  1  0
 33 71  1  0
 34 72  1  0
 34 73  1  0
 36 74  1  0
 37 75  1  0
 38 76  1  0
 39 77  1  0
 41 78  1  0
 41 79  1  0
M  END
>  <smiles>  (72) 
NC(CNc1nc(N2CCc3ccccc3C2)nc(N2CCc3ccccc3C2)n1)CN1CCc2ccccc2C1

>  <score_type>  (72) 
oracle

>  <origin>  (72) 
autodockgpu

>  <m_score__min__energy>  (72) 
-11.49

>  <m_primary>  (72) 
energy

>  <rmsd>  (72) 
9.594261461284523

>  <m_score__min__rmsd>  (72) 
9.594261461284523

>  <meeko>  (72) 
{"free_energy": -8.75, "intermolecular_energy": -11.14, "internal_energy": -4.06, "cluster_size": 11, "cluster_id": 4, "rank_in_cluster": 7}

>  <energy>  (72) 
-9.86

>  <cluster_rmsd>  (72) 
1.7

>  <cluster>  (72) 
2

$$$$

     RDKit          3D

 79 85  0  0  1  0  0  0  0  0999 V2000
  143.7560   76.3570  219.7330 N   0  0  0  0  0  0  0  0  0  0  0  0
  142.6300   76.1010  218.8620 C   0  0  1  0  0  0  0  0  0  0  0  0
  141.9200   74.8270  219.2220 C   0  0  0  0  0  0  0  0  0  0  0  0
  142.1230   74.5660  220.6300 N   0  0  0  0  0  0  0  0  0  0  0  0
  141.0160   74.0010  221.3570 C   0  0  0  0  0  0  0  0  0  0  0  0
  141.1360   72.8270  222.0230 N   0  0  0  0  0  0  0  0  0  0  0  0
  140.1120   72.2850  222.7050 C   0  0  0  0  0  0  0  0  0  0  0  0
  140.2190   71.0530  223.4110 N   0  0  0  0  0  0  0  0  0  0  0  0
  139.5510   69.8590  222.9230 C   0  0  0  0  0  0  0  0  0  0  0  0
  138.4990   69.5420  223.9770 C   0  0  0  0  0  0  0  0  0  0  0  0
  139.2790   69.1860  225.2090 C   0  0  0  0  0  0  0  0  0  0  0  0
  138.7920   68.1760  226.0340 C   0  0  0  0  0  0  0  0  0  0  0  0
  139.5340   67.8660  227.1680 C   0  0  0  0  0  0  0  0  0  0  0  0
  140.7060   68.5280  227.4700 C   0  0  0  0  0  0  0  0  0  0  0  0
  141.1870   69.5380  226.6370 C   0  0  0  0  0  0  0  0  0  0  0  0
  140.4520   69.8460  225.5120 C   0  0  0  0  0  0  0  0  0  0  0  0
  140.9910   70.9360  224.6330 C   0  0  0  0  0  0  0  0  0  0  0  0
  138.9410   72.9440  222.7150 N   0  0  0  0  0  0  0  0  0  0  0  0
  138.7530   74.1220  222.0700 C   0  0  0  0  0  0  0  0  0  0  0  0
  137.4870   74.7730  222.1170 N   0  0  0  0  0  0  0  0  0  0  0  0
  137.3550   76.1050  221.6240 C   0  0  0  0  0  0  0  0  0  0  0  0
  136.0770   76.7810  221.9330 C   0  0  0  0  0  0  0  0  0  0  0  0
  135.4410   76.2920  223.1730 C   0  0  0  0  0  0  0  0  0  0  0  0
  134.7120   77.1120  223.9980 C   0  0  0  0  0  0  0  0  0  0  0  0
  134.1210   76.6340  225.1590 C   0  0  0  0  0  0  0  0  0  0  0  0
  134.2340   75.3070  225.5470 C   0  0  0  0  0  0  0  0  0  0  0  0
  134.9660   74.4830  224.7160 C   0  0  0  0  0  0  0  0  0  0  0  0
  135.5520   74.9550  223.5690 C   0  0  0  0  0  0  0  0  0  0  0  0
  136.3430   74.0820  222.6670 C   0  0  0  0  0  0  0  0  0  0  0  0
  139.8130   74.6090  221.4080 N   0  0  0  0  0  0  0  0  0  0  0  0
  141.6580   77.2490  218.9940 C   0  0  0  0  0  0  0  0  0  0  0  0
  142.0090   77.9620  220.2280 N   0  0  0  0  0  0  0  0  0  0  0  0
  141.3480   77.3080  221.3110 C   0  0  0  0  0  0  0  0  0  0  0  0
  140.0830   78.0680  221.6940 C   0  0  0  0  0  0  0  0  0  0  0  0
  140.5840   79.3840  222.2280 C   0  0  0  0  0  0  0  0  0  0  0  0
  140.1920   79.8790  223.4460 C   0  0  0  0  0  0  0  0  0  0  0  0
  140.7280   81.1010  223.8240 C   0  0  0  0  0  0  0  0  0  0  0  0
  141.6210   81.7770  222.9880 C   0  0  0  0  0  0  0  0  0  0  0  0
  141.9970   81.2510  221.7660 C   0  0  0  0  0  0  0  0  0  0  0  0
  141.4740   80.0510  221.3890 C   0  0  0  0  0  0  0  0  0  0  0  0
  141.7860   79.3640  220.1040 C   0  0  0  0  0  0  0  0  0  0  0  0
  144.0710   77.3390  219.6970 H   0  0  0  0  0  0  0  0  0  0  0  0
  143.6460   75.9630  220.6770 H   0  0  0  0  0  0  0  0  0  0  0  0
  143.0043   76.0022  217.8324 H   0  0  0  0  0  0  0  0  0  0  0  0
  140.8445   74.9315  219.0160 H   0  0  0  0  0  0  0  0  0  0  0  0
  142.3185   73.9937  218.6247 H   0  0  0  0  0  0  0  0  0  0  0  0
  142.9850   74.7450  221.1580 H   0  0  0  0  0  0  0  0  0  0  0  0
  139.0776   70.0509  221.9488 H   0  0  0  0  0  0  0  0  0  0  0  0
  140.2514   69.0244  222.7720 H   0  0  0  0  0  0  0  0  0  0  0  0
  137.8614   70.4189  224.1629 H   0  0  0  0  0  0  0  0  0  0  0  0
  137.8301   68.7277  223.6616 H   0  0  0  0  0  0  0  0  0  0  0  0
  137.8581   67.6448  225.7982 H   0  0  0  0  0  0  0  0  0  0  0  0
  139.1775   67.0727  227.8415 H   0  0  0  0  0  0  0  0  0  0  0  0
  141.2667   68.2567  228.3767 H   0  0  0  0  0  0  0  0  0  0  0  0
  142.1209   70.0706  226.8697 H   0  0  0  0  0  0  0  0  0  0  0  0
  140.9478   71.8907  225.1777 H   0  0  0  0  0  0  0  0  0  0  0  0
  142.0292   70.6882  224.3672 H   0  0  0  0  0  0  0  0  0  0  0  0
  138.1683   76.7069  222.0556 H   0  0  0  0  0  0  0  0  0  0  0  0
  137.3926   76.0232  220.5277 H   0  0  0  0  0  0  0  0  0  0  0  0
  136.2695   77.8586  222.0411 H   0  0  0  0  0  0  0  0  0  0  0  0
  135.3857   76.5638  221.1054 H   0  0  0  0  0  0  0  0  0  0  0  0
  134.5936   78.1729  223.7325 H   0  0  0  0  0  0  0  0  0  0  0  0
  133.5461   77.3277  225.7901 H   0  0  0  0  0  0  0  0  0  0  0  0
  133.7650   74.9312  226.4683 H   0  0  0  0  0  0  0  0  0  0  0  0
  135.0823   73.4215  224.9801 H   0  0  0  0  0  0  0  0  0  0  0  0
  136.6945   73.2083  223.2355 H   0  0  0  0  0  0  0  0  0  0  0  0
  135.6948   73.7767  221.8324 H   0  0  0  0  0  0  0  0  0  0  0  0
  141.7477   77.9225  218.1289 H   0  0  0  0  0  0  0  0  0  0  0  0
  140.6204   76.8856  219.0296 H   0  0  0  0  0  0  0  0  0  0  0  0
  141.0794   76.2853  221.0080 H   0  0  0  0  0  0  0  0  0  0  0  0
  142.0244   77.2782  222.1780 H   0  0  0  0  0  0  0  0  0  0  0  0
  139.4411   78.2238  220.8144 H   0  0  0  0  0  0  0  0  0  0  0  0
  139.4723   77.5226  222.4285 H   0  0  0  0  0  0  0  0  0  0  0  0
  139.4873   79.3336  224.0909 H   0  0  0  0  0  0  0  0  0  0  0  0
  140.4474   81.5426  224.7916 H   0  0  0  0  0  0  0  0  0  0  0  0
  142.0324   82.7456  223.3083 H   0  0  0  0  0  0  0  0  0  0  0  0
  142.7013   81.7884  221.1140 H   0  0  0  0  0  0  0  0  0  0  0  0
  140.9414   79.5191  219.4165 H   0  0  0  0  0  0  0  0  0  0  0  0
  142.7249   79.8008  219.7330 H   0  0  0  0  0  0  0  0  0  0  0  0
  1  2  1  0
  2  3  1  0
  3  4  1  0
  4  5  1  0
  5  6  2  0
  6  7  1  0
  7  8  1  0
  8  9  1  0
  9 10  1  0
 10 11  1  0
 11 12  2  0
 12 13  1  0
 13 14  2  0
 14 15  1  0
 15 16  2  0
 16 17  1  0
  7 18  2  0
 18 19  1  0
 19 20  1  0
 20 21  1  0
 21 22  1  0
 22 23  1  0
 23 24  2  0
 24 25  1  0
 25 26  2  0
 26 27  1  0
 27 28  2  0
 28 29  1  0
 19 30  2  0
  2 31  1  0
 31 32  1  0
 32 33  1  0
 33 34  1  0
 34 35  1  0
 35 36  2  0
 36 37  1  0
 37 38  2  0
 38 39  1  0
 39 40  2  0
 40 41  1  0
 30  5  1  0
 41 32  1  0
 17  8  1  0
 29 20  1  0
 40 35  1  0
 16 11  1  0
 28 23  1  0
  1 42  1  0
  1 43  1  0
  2 44  1  6
  3 45  1  0
  3 46  1  0
  4 47  1  0
  9 48  1  0
  9 49  1  0
 10 50  1  0
 10 51  1  0
 12 52  1  0
 13 53  1  0
 14 54  1  0
 15 55  1  0
 17 56  1  0
 17 57  1  0
 21 58  1  0
 21 59  1  0
 22 60  1  0
 22 61  1  0
 24 62  1  0
 25 63  1  0
 26 64  1  0
 27 65  1  0
 29 66  1  0
 29 67  1  0
 31 68  1  0
 31 69  1  0
 33 70  1  0
 33 71  1  0
 34 72  1  0
 34 73  1  0
 36 74  1  0
 37 75  1  0
 38 76  1  0
 39 77  1  0
 41 78  1  0
 41 79  1  0
M  END
>  <smiles>  (73) 
NC(CNc1nc(N2CCc3ccccc3C2)nc(N2CCc3ccccc3C2)n1)CN1CCc2ccccc2C1

>  <score_type>  (73) 
oracle

>  <origin>  (73) 
autodockgpu

>  <m_score__min__energy>  (73) 
-11.49

>  <m_primary>  (73) 
energy

>  <rmsd>  (73) 
9.99644451094105

>  <m_score__min__rmsd>  (73) 
9.99644451094105

>  <meeko>  (73) 
{"free_energy": -9.69, "intermolecular_energy": -12.08, "internal_energy": -3.09, "cluster_size": 3, "cluster_id": 5, "rank_in_cluster": 1}

>  <energy>  (73) 
-9.79

>  <cluster_rmsd>  (73) 
1.55

>  <cluster>  (73) 
2

$$$$

     RDKit          3D

 79 85  0  0  1  0  0  0  0  0999 V2000
  136.6440   71.2560  223.5750 N   0  0  0  0  0  0  0  0  0  0  0  0
  137.2600   70.7080  222.3860 C   0  0  1  0  0  0  0  0  0  0  0  0
  137.8420   71.7810  221.5110 C   0  0  0  0  0  0  0  0  0  0  0  0
  138.3960   72.8180  222.3540 N   0  0  0  0  0  0  0  0  0  0  0  0
  139.5890   73.4740  221.8860 C   0  0  0  0  0  0  0  0  0  0  0  0
  140.6990   72.7690  221.5590 N   0  0  0  0  0  0  0  0  0  0  0  0
  141.8220   73.3670  221.1220 C   0  0  0  0  0  0  0  0  0  0  0  0
  142.9970   72.6430  220.7730 N   0  0  0  0  0  0  0  0  0  0  0  0
  144.2330   73.3410  220.4670 C   0  0  0  0  0  0  0  0  0  0  0  0
  144.4890   73.0550  218.9930 C   0  0  0  0  0  0  0  0  0  0  0  0
  144.7420   71.5760  218.9230 C   0  0  0  0  0  0  0  0  0  0  0  0
  145.6970   71.1090  218.0240 C   0  0  0  0  0  0  0  0  0  0  0  0
  145.9120   69.7360  217.9800 C   0  0  0  0  0  0  0  0  0  0  0  0
  145.2110   68.8670  218.7910 C   0  0  0  0  0  0  0  0  0  0  0  0
  144.2580   69.3440  219.6900 C   0  0  0  0  0  0  0  0  0  0  0  0
  144.0430   70.7060  219.7350 C   0  0  0  0  0  0  0  0  0  0  0  0
  143.0130   71.1940  220.7090 C   0  0  0  0  0  0  0  0  0  0  0  0
  141.8220   74.7060  221.0130 N   0  0  0  0  0  0  0  0  0  0  0  0
  140.7460   75.4710  221.3230 C   0  0  0  0  0  0  0  0  0  0  0  0
  140.8090   76.8870  221.1870 N   0  0  0  0  0  0  0  0  0  0  0  0
  141.5050   77.4630  220.0820 C   0  0  0  0  0  0  0  0  0  0  0  0
  141.7240   78.9240  220.1520 C   0  0  0  0  0  0  0  0  0  0  0  0
  141.7970   79.4390  221.5340 C   0  0  0  0  0  0  0  0  0  0  0  0
  142.6040   80.4930  221.8840 C   0  0  0  0  0  0  0  0  0  0  0  0
  142.6590   80.9640  223.1880 C   0  0  0  0  0  0  0  0  0  0  0  0
  141.9040   80.3990  224.2040 C   0  0  0  0  0  0  0  0  0  0  0  0
  141.0910   79.3390  223.8520 C   0  0  0  0  0  0  0  0  0  0  0  0
  141.0380   78.8720  222.5630 C   0  0  0  0  0  0  0  0  0  0  0  0
  140.1720   77.7340  222.1690 C   0  0  0  0  0  0  0  0  0  0  0  0
  139.6590   74.8140  221.7530 N   0  0  0  0  0  0  0  0  0  0  0  0
  138.3720   69.7790  222.8150 C   0  0  0  0  0  0  0  0  0  0  0  0
  138.4830   69.8950  224.2740 N   0  0  0  0  0  0  0  0  0  0  0  0
  139.2110   71.0880  224.5620 C   0  0  0  0  0  0  0  0  0  0  0  0
  140.6670   70.7580  224.8680 C   0  0  0  0  0  0  0  0  0  0  0  0
  140.6110   69.9700  226.1500 C   0  0  0  0  0  0  0  0  0  0  0  0
  141.3730   70.2920  227.2450 C   0  0  0  0  0  0  0  0  0  0  0  0
  141.2260   69.4880  228.3650 C   0  0  0  0  0  0  0  0  0  0  0  0
  140.3400   68.4070  228.3550 C   0  0  0  0  0  0  0  0  0  0  0  0
  139.5860   68.1090  227.2360 C   0  0  0  0  0  0  0  0  0  0  0  0
  139.7240   68.8950  226.1330 C   0  0  0  0  0  0  0  0  0  0  0  0
  138.9800   68.6940  224.8580 C   0  0  0  0  0  0  0  0  0  0  0  0
  136.3920   70.5290  224.2630 H   0  0  0  0  0  0  0  0  0  0  0  0
  137.1380   72.0740  223.9570 H   0  0  0  0  0  0  0  0  0  0  0  0
  136.4884   70.1789  221.8075 H   0  0  0  0  0  0  0  0  0  0  0  0
  138.6353   71.3540  220.8799 H   0  0  0  0  0  0  0  0  0  0  0  0
  137.0585   72.2028  220.8643 H   0  0  0  0  0  0  0  0  0  0  0  0
  138.0140   73.1290  223.2540 H   0  0  0  0  0  0  0  0  0  0  0  0
  144.1198   74.4218  220.6377 H   0  0  0  0  0  0  0  0  0  0  0  0
  145.0655   73.0084  221.1044 H   0  0  0  0  0  0  0  0  0  0  0  0
  143.6111   73.3262  218.3882 H   0  0  0  0  0  0  0  0  0  0  0  0
  145.3345   73.6382  218.5994 H   0  0  0  0  0  0  0  0  0  0  0  0
  146.2582   71.7977  217.3754 H   0  0  0  0  0  0  0  0  0  0  0  0
  146.6596   69.3324  217.2812 H   0  0  0  0  0  0  0  0  0  0  0  0
  145.4062   67.7863  218.7275 H   0  0  0  0  0  0  0  0  0  0  0  0
  143.6967   68.6578  220.3412 H   0  0  0  0  0  0  0  0  0  0  0  0
  142.0218   70.8378  220.3917 H   0  0  0  0  0  0  0  0  0  0  0  0
  143.2641   70.8039  221.7064 H   0  0  0  0  0  0  0  0  0  0  0  0
  142.4893   76.9769  220.0122 H   0  0  0  0  0  0  0  0  0  0  0  0
  140.8624   77.2982  219.2046 H   0  0  0  0  0  0  0  0  0  0  0  0
  142.6692   79.1601  219.6412 H   0  0  0  0  0  0  0  0  0  0  0  0
  140.8604   79.4059  219.6703 H   0  0  0  0  0  0  0  0  0  0  0  0
  143.2217   80.9756  221.1123 H   0  0  0  0  0  0  0  0  0  0  0  0
  143.3211   81.8106  223.4224 H   0  0  0  0  0  0  0  0  0  0  0  0
  141.9498   80.7751  225.2367 H   0  0  0  0  0  0  0  0  0  0  0  0
  140.4716   78.8580  224.6234 H   0  0  0  0  0  0  0  0  0  0  0  0
  139.9449   77.1339  223.0625 H   0  0  0  0  0  0  0  0  0  0  0  0
  139.2538   78.1431  221.7222 H   0  0  0  0  0  0  0  0  0  0  0  0
  138.1293   68.7433  222.5349 H   0  0  0  0  0  0  0  0  0  0  0  0
  139.3200   70.0456  222.3248 H   0  0  0  0  0  0  0  0  0  0  0  0
  139.1662   71.7595  223.6919 H   0  0  0  0  0  0  0  0  0  0  0  0
  138.7630   71.5777  225.4392 H   0  0  0  0  0  0  0  0  0  0  0  0
  141.1078   70.1558  224.0599 H   0  0  0  0  0  0  0  0  0  0  0  0
  141.2915   71.6592  224.9567 H   0  0  0  0  0  0  0  0  0  0  0  0
  142.0663   71.1459  227.2346 H   0  0  0  0  0  0  0  0  0  0  0  0
  141.8125   69.7030  229.2704 H   0  0  0  0  0  0  0  0  0  0  0  0
  140.2411   67.7818  229.2547 H   0  0  0  0  0  0  0  0  0  0  0  0
  138.8906   67.2567  227.2364 H   0  0  0  0  0  0  0  0  0  0  0  0
  139.6570   68.2142  224.1359 H   0  0  0  0  0  0  0  0  0  0  0  0
  138.1036   68.0744  225.0988 H   0  0  0  0  0  0  0  0  0  0  0  0
  1  2  1  0
  2  3  1  0
  3  4  1  0
  4  5  1  0
  5  6  2  0
  6  7  1  0
  7  8  1  0
  8  9  1  0
  9 10  1  0
 10 11  1  0
 11 12  2  0
 12 13  1  0
 13 14  2  0
 14 15  1  0
 15 16  2  0
 16 17  1  0
  7 18  2  0
 18 19  1  0
 19 20  1  0
 20 21  1  0
 21 22  1  0
 22 23  1  0
 23 24  2  0
 24 25  1  0
 25 26  2  0
 26 27  1  0
 27 28  2  0
 28 29  1  0
 19 30  2  0
  2 31  1  0
 31 32  1  0
 32 33  1  0
 33 34  1  0
 34 35  1  0
 35 36  2  0
 36 37  1  0
 37 38  2  0
 38 39  1  0
 39 40  2  0
 40 41  1  0
 30  5  1  0
 41 32  1  0
 17  8  1  0
 29 20  1  0
 40 35  1  0
 16 11  1  0
 28 23  1  0
  1 42  1  0
  1 43  1  0
  2 44  1  6
  3 45  1  0
  3 46  1  0
  4 47  1  0
  9 48  1  0
  9 49  1  0
 10 50  1  0
 10 51  1  0
 12 52  1  0
 13 53  1  0
 14 54  1  0
 15 55  1  0
 17 56  1  0
 17 57  1  0
 21 58  1  0
 21 59  1  0
 22 60  1  0
 22 61  1  0
 24 62  1  0
 25 63  1  0
 26 64  1  0
 27 65  1  0
 29 66  1  0
 29 67  1  0
 31 68  1  0
 31 69  1  0
 33 70  1  0
 33 71  1  0
 34 72  1  0
 34 73  1  0
 36 74  1  0
 37 75  1  0
 38 76  1  0
 39 77  1  0
 41 78  1  0
 41 79  1  0
M  END
>  <smiles>  (74) 
NC(CNc1nc(N2CCc3ccccc3C2)nc(N2CCc3ccccc3C2)n1)CN1CCc2ccccc2C1

>  <score_type>  (74) 
oracle

>  <origin>  (74) 
autodockgpu

>  <m_score__min__energy>  (74) 
-11.49

>  <m_primary>  (74) 
energy

>  <rmsd>  (74) 
4.121080667216274

>  <m_score__min__rmsd>  (74) 
4.121080667216274

>  <meeko>  (74) 
{"free_energy": -10.71, "intermolecular_energy": -13.09, "internal_energy": -2.66, "cluster_size": 9, "cluster_id": 2, "rank_in_cluster": 1}

>  <energy>  (74) 
-9.73

>  <cluster_rmsd>  (74) 
1.12

>  <cluster>  (74) 
2

$$$$

     RDKit          3D

 79 85  0  0  1  0  0  0  0  0999 V2000
  136.9940   71.4890  223.4210 N   0  0  0  0  0  0  0  0  0  0  0  0
  137.7010   71.0310  222.2450 C   0  0  1  0  0  0  0  0  0  0  0  0
  138.3300   72.1670  221.4910 C   0  0  0  0  0  0  0  0  0  0  0  0
  138.2730   73.3570  222.3120 N   0  0  0  0  0  0  0  0  0  0  0  0
  139.3010   74.3430  222.1080 C   0  0  0  0  0  0  0  0  0  0  0  0
  140.4530   74.0380  221.4630 N   0  0  0  0  0  0  0  0  0  0  0  0
  141.4240   74.9470  221.2650 C   0  0  0  0  0  0  0  0  0  0  0  0
  142.6400   74.6440  220.5900 N   0  0  0  0  0  0  0  0  0  0  0  0
  143.3160   75.6540  219.7940 C   0  0  0  0  0  0  0  0  0  0  0  0
  143.2340   75.1420  218.3620 C   0  0  0  0  0  0  0  0  0  0  0  0
  144.0600   73.8880  218.3500 C   0  0  0  0  0  0  0  0  0  0  0  0
  144.8200   73.6050  217.2180 C   0  0  0  0  0  0  0  0  0  0  0  0
  145.5750   72.4390  217.2330 C   0  0  0  0  0  0  0  0  0  0  0  0
  145.5770   71.5910  218.3220 C   0  0  0  0  0  0  0  0  0  0  0  0
  144.8130   71.8830  219.4520 C   0  0  0  0  0  0  0  0  0  0  0  0
  144.0630   73.0400  219.4380 C   0  0  0  0  0  0  0  0  0  0  0  0
  143.2510   73.3310  220.6650 C   0  0  0  0  0  0  0  0  0  0  0  0
  141.2260   76.1930  221.7290 N   0  0  0  0  0  0  0  0  0  0  0  0
  140.0970   76.5640  222.3820 C   0  0  0  0  0  0  0  0  0  0  0  0
  139.9470   77.9010  222.8510 N   0  0  0  0  0  0  0  0  0  0  0  0
  138.6420   78.4260  223.0930 C   0  0  0  0  0  0  0  0  0  0  0  0
  138.5710   79.8810  223.3400 C   0  0  0  0  0  0  0  0  0  0  0  0
  139.6590   80.6400  222.6910 C   0  0  0  0  0  0  0  0  0  0  0  0
  139.4800   81.9100  222.2030 C   0  0  0  0  0  0  0  0  0  0  0  0
  140.5150   82.6080  221.5960 C   0  0  0  0  0  0  0  0  0  0  0  0
  141.7810   82.0620  221.4530 C   0  0  0  0  0  0  0  0  0  0  0  0
  141.9620   80.7850  221.9450 C   0  0  0  0  0  0  0  0  0  0  0  0
  140.9380   80.0940  222.5430 C   0  0  0  0  0  0  0  0  0  0  0  0
  141.1160   78.7210  223.0760 C   0  0  0  0  0  0  0  0  0  0  0  0
  139.1680   75.6120  222.5470 N   0  0  0  0  0  0  0  0  0  0  0  0
  138.7900   70.0820  222.6860 C   0  0  0  0  0  0  0  0  0  0  0  0
  138.7750   70.0720  224.1540 N   0  0  0  0  0  0  0  0  0  0  0  0
  139.5050   71.2110  224.6050 C   0  0  0  0  0  0  0  0  0  0  0  0
  140.9190   70.8070  225.0050 C   0  0  0  0  0  0  0  0  0  0  0  0
  140.7300   69.9170  226.2050 C   0  0  0  0  0  0  0  0  0  0  0  0
  141.4000   70.1200  227.3850 C   0  0  0  0  0  0  0  0  0  0  0  0
  141.1340   69.2300  228.4150 C   0  0  0  0  0  0  0  0  0  0  0  0
  140.2230   68.1850  228.2350 C   0  0  0  0  0  0  0  0  0  0  0  0
  139.5640   68.0070  227.0340 C   0  0  0  0  0  0  0  0  0  0  0  0
  139.8200   68.8780  226.0190 C   0  0  0  0  0  0  0  0  0  0  0  0
  139.1870   68.8100  224.6720 C   0  0  0  0  0  0  0  0  0  0  0  0
  136.6850   70.7120  224.0260 H   0  0  0  0  0  0  0  0  0  0  0  0
  137.4600   72.2680  223.9060 H   0  0  0  0  0  0  0  0  0  0  0  0
  136.9794   70.5381  221.5770 H   0  0  0  0  0  0  0  0  0  0  0  0
  139.3785   71.9244  221.2632 H   0  0  0  0  0  0  0  0  0  0  0  0
  137.7891   72.3360  220.5482 H   0  0  0  0  0  0  0  0  0  0  0  0
  137.5630   73.5620  223.0250 H   0  0  0  0  0  0  0  0  0  0  0  0
  142.8078   76.6251  219.8878 H   0  0  0  0  0  0  0  0  0  0  0  0
  144.3550   75.8114  220.1192 H   0  0  0  0  0  0  0  0  0  0  0  0
  142.1915   74.9209  218.0895 H   0  0  0  0  0  0  0  0  0  0  0  0
  143.5985   75.8839  217.6363 H   0  0  0  0  0  0  0  0  0  0  0  0
  144.8224   74.2773  216.3474 H   0  0  0  0  0  0  0  0  0  0  0  0
  146.1867   72.1851  216.3547 H   0  0  0  0  0  0  0  0  0  0  0  0
  146.1870   70.6760  218.2986 H   0  0  0  0  0  0  0  0  0  0  0  0
  144.8090   71.2131  220.3245 H   0  0  0  0  0  0  0  0  0  0  0  0
  142.4604   72.5722  220.7604 H   0  0  0  0  0  0  0  0  0  0  0  0
  143.9190   73.3069  221.5386 H   0  0  0  0  0  0  0  0  0  0  0  0
  138.0195   78.2019  222.2142 H   0  0  0  0  0  0  0  0  0  0  0  0
  138.2943   77.9477  224.0206 H   0  0  0  0  0  0  0  0  0  0  0  0
  137.6095   80.2532  222.9567 H   0  0  0  0  0  0  0  0  0  0  0  0
  138.6725   80.0315  224.4249 H   0  0  0  0  0  0  0  0  0  0  0  0
  138.4927   82.3863  222.2950 H   0  0  0  0  0  0  0  0  0  0  0  0
  140.3251   83.6233  221.2177 H   0  0  0  0  0  0  0  0  0  0  0  0
  142.5995   82.6178  220.9721 H   0  0  0  0  0  0  0  0  0  0  0  0
  142.9502   80.3101  221.8557 H   0  0  0  0  0  0  0  0  0  0  0  0
  141.9789   78.2549  222.5778 H   0  0  0  0  0  0  0  0  0  0  0  0
  141.2778   78.7944  224.1616 H   0  0  0  0  0  0  0  0  0  0  0  0
  138.5918   69.0718  222.2984 H   0  0  0  0  0  0  0  0  0  0  0  0
  139.7706   70.4014  222.3035 H   0  0  0  0  0  0  0  0  0  0  0  0
  139.5550   71.9541  223.7955 H   0  0  0  0  0  0  0  0  0  0  0  0
  138.9943   71.6408  225.4793 H   0  0  0  0  0  0  0  0  0  0  0  0
  141.4129   70.2597  224.1886 H   0  0  0  0  0  0  0  0  0  0  0  0
  141.5567   71.6760  225.2243 H   0  0  0  0  0  0  0  0  0  0  0  0
  142.1133   70.9482  227.5081 H   0  0  0  0  0  0  0  0  0  0  0  0
  141.6445   69.3475  229.3823 H   0  0  0  0  0  0  0  0  0  0  0  0
  140.0272   67.4911  229.0657 H   0  0  0  0  0  0  0  0  0  0  0  0
  138.8495   67.1814  226.9007 H   0  0  0  0  0  0  0  0  0  0  0  0
  139.9127   68.3704  223.9719 H   0  0  0  0  0  0  0  0  0  0  0  0
  138.2770   68.2018  224.7816 H   0  0  0  0  0  0  0  0  0  0  0  0
  1  2  1  0
  2  3  1  0
  3  4  1  0
  4  5  1  0
  5  6  2  0
  6  7  1  0
  7  8  1  0
  8  9  1  0
  9 10  1  0
 10 11  1  0
 11 12  2  0
 12 13  1  0
 13 14  2  0
 14 15  1  0
 15 16  2  0
 16 17  1  0
  7 18  2  0
 18 19  1  0
 19 20  1  0
 20 21  1  0
 21 22  1  0
 22 23  1  0
 23 24  2  0
 24 25  1  0
 25 26  2  0
 26 27  1  0
 27 28  2  0
 28 29  1  0
 19 30  2  0
  2 31  1  0
 31 32  1  0
 32 33  1  0
 33 34  1  0
 34 35  1  0
 35 36  2  0
 36 37  1  0
 37 38  2  0
 38 39  1  0
 39 40  2  0
 40 41  1  0
 30  5  1  0
 41 32  1  0
 17  8  1  0
 29 20  1  0
 40 35  1  0
 16 11  1  0
 28 23  1  0
  1 42  1  0
  1 43  1  0
  2 44  1  6
  3 45  1  0
  3 46  1  0
  4 47  1  0
  9 48  1  0
  9 49  1  0
 10 50  1  0
 10 51  1  0
 12 52  1  0
 13 53  1  0
 14 54  1  0
 15 55  1  0
 17 56  1  0
 17 57  1  0
 21 58  1  0
 21 59  1  0
 22 60  1  0
 22 61  1  0
 24 62  1  0
 25 63  1  0
 26 64  1  0
 27 65  1  0
 29 66  1  0
 29 67  1  0
 31 68  1  0
 31 69  1  0
 33 70  1  0
 33 71  1  0
 34 72  1  0
 34 73  1  0
 36 74  1  0
 37 75  1  0
 38 76  1  0
 39 77  1  0
 41 78  1  0
 41 79  1  0
M  END
>  <smiles>  (75) 
NC(CNc1nc(N2CCc3ccccc3C2)nc(N2CCc3ccccc3C2)n1)CN1CCc2ccccc2C1

>  <score_type>  (75) 
oracle

>  <origin>  (75) 
autodockgpu

>  <m_score__min__energy>  (75) 
-11.49

>  <m_primary>  (75) 
energy

>  <rmsd>  (75) 
3.90177383446318

>  <m_score__min__rmsd>  (75) 
3.90177383446318

>  <meeko>  (75) 
{"free_energy": -10.38, "intermolecular_energy": -12.77, "internal_energy": -2.77, "cluster_size": 9, "cluster_id": 2, "rank_in_cluster": 2}

>  <energy>  (75) 
-9.71

>  <cluster_rmsd>  (75) 
1.14

>  <cluster>  (75) 
2

$$$$

     RDKit          3D

 79 85  0  0  1  0  0  0  0  0999 V2000
  136.1820   71.9780  223.6630 N   0  0  0  0  0  0  0  0  0  0  0  0
  136.5190   71.1770  222.5060 C   0  0  1  0  0  0  0  0  0  0  0  0
  137.0230   72.0190  221.3690 C   0  0  0  0  0  0  0  0  0  0  0  0
  137.0450   73.4020  221.7900 N   0  0  0  0  0  0  0  0  0  0  0  0
  138.2880   74.1120  221.6400 C   0  0  0  0  0  0  0  0  0  0  0  0
  138.4760   75.3320  222.1990 N   0  0  0  0  0  0  0  0  0  0  0  0
  139.6300   76.0090  222.0670 C   0  0  0  0  0  0  0  0  0  0  0  0
  139.8440   77.2920  222.6480 N   0  0  0  0  0  0  0  0  0  0  0  0
  138.7380   78.2140  222.8350 C   0  0  0  0  0  0  0  0  0  0  0  0
  139.0420   79.3810  221.9050 C   0  0  0  0  0  0  0  0  0  0  0  0
  140.2880   80.0070  222.4610 C   0  0  0  0  0  0  0  0  0  0  0  0
  140.4150   81.3920  222.4100 C   0  0  0  0  0  0  0  0  0  0  0  0
  141.5780   81.9450  222.9320 C   0  0  0  0  0  0  0  0  0  0  0  0
  142.5720   81.1590  223.4790 C   0  0  0  0  0  0  0  0  0  0  0  0
  142.4360   79.7720  223.5270 C   0  0  0  0  0  0  0  0  0  0  0  0
  141.2820   79.2220  223.0100 C   0  0  0  0  0  0  0  0  0  0  0  0
  141.1600   77.7290  223.0730 C   0  0  0  0  0  0  0  0  0  0  0  0
  140.6170   75.4410  221.3550 N   0  0  0  0  0  0  0  0  0  0  0  0
  140.4960   74.2230  220.7700 C   0  0  0  0  0  0  0  0  0  0  0  0
  141.5790   73.6740  220.0260 N   0  0  0  0  0  0  0  0  0  0  0  0
  141.5360   72.3090  219.6120 C   0  0  0  0  0  0  0  0  0  0  0  0
  142.7950   71.7630  219.0640 C   0  0  0  0  0  0  0  0  0  0  0  0
  144.0020   72.4260  219.5970 C   0  0  0  0  0  0  0  0  0  0  0  0
  145.1810   71.7540  219.8020 C   0  0  0  0  0  0  0  0  0  0  0  0
  146.3050   72.3940  220.3030 C   0  0  0  0  0  0  0  0  0  0  0  0
  146.2990   73.7440  220.6230 C   0  0  0  0  0  0  0  0  0  0  0  0
  145.1130   74.4200  220.4170 C   0  0  0  0  0  0  0  0  0  0  0  0
  144.0010   73.7860  219.9220 C   0  0  0  0  0  0  0  0  0  0  0  0
  142.7190   74.4990  219.6970 C   0  0  0  0  0  0  0  0  0  0  0  0
  139.3210   73.6000  220.9380 N   0  0  0  0  0  0  0  0  0  0  0  0
  137.6030   70.2040  222.9040 C   0  0  0  0  0  0  0  0  0  0  0  0
  138.0450   70.5890  224.2500 N   0  0  0  0  0  0  0  0  0  0  0  0
  139.1330   71.5010  224.1070 C   0  0  0  0  0  0  0  0  0  0  0  0
  140.4600   70.7760  224.3020 C   0  0  0  0  0  0  0  0  0  0  0  0
  140.4450   70.3500  225.7460 C   0  0  0  0  0  0  0  0  0  0  0  0
  141.4790   70.6260  226.6050 C   0  0  0  0  0  0  0  0  0  0  0  0
  141.3410   70.1800  227.9110 C   0  0  0  0  0  0  0  0  0  0  0  0
  140.1960   69.4840  228.3090 C   0  0  0  0  0  0  0  0  0  0  0  0
  139.1720   69.2210  227.4190 C   0  0  0  0  0  0  0  0  0  0  0  0
  139.3000   69.6570  226.1360 C   0  0  0  0  0  0  0  0  0  0  0  0
  138.2810   69.4470  225.0700 C   0  0  0  0  0  0  0  0  0  0  0  0
  136.9970   72.4800  224.0500 H   0  0  0  0  0  0  0  0  0  0  0  0
  135.3320   72.5440  223.5410 H   0  0  0  0  0  0  0  0  0  0  0  0
  135.6108   70.6570  222.1672 H   0  0  0  0  0  0  0  0  0  0  0  0
  138.0391   71.6996  221.0941 H   0  0  0  0  0  0  0  0  0  0  0  0
  136.3634   71.9035  220.4963 H   0  0  0  0  0  0  0  0  0  0  0  0
  136.2540   73.9250  222.1850 H   0  0  0  0  0  0  0  0  0  0  0  0
  137.7856   77.7374  222.5599 H   0  0  0  0  0  0  0  0  0  0  0  0
  138.6369   78.5337  223.8827 H   0  0  0  0  0  0  0  0  0  0  0  0
  139.2139   79.0231  220.8791 H   0  0  0  0  0  0  0  0  0  0  0  0
  138.2079   80.0963  221.8536 H   0  0  0  0  0  0  0  0  0  0  0  0
  139.6267   82.0233  221.9741 H   0  0  0  0  0  0  0  0  0  0  0  0
  141.7098   83.0368  222.9087 H   0  0  0  0  0  0  0  0  0  0  0  0
  143.4804   81.6313  223.8811 H   0  0  0  0  0  0  0  0  0  0  0  0
  143.2225   79.1382  223.9625 H   0  0  0  0  0  0  0  0  0  0  0  0
  141.9175   77.2790  222.4145 H   0  0  0  0  0  0  0  0  0  0  0  0
  141.3132   77.4106  224.1147 H   0  0  0  0  0  0  0  0  0  0  0  0
  141.2558   71.7004  220.4844 H   0  0  0  0  0  0  0  0  0  0  0  0
  140.8094   72.2699  218.7870 H   0  0  0  0  0  0  0  0  0  0  0  0
  142.8474   70.6923  219.3107 H   0  0  0  0  0  0  0  0  0  0  0  0
  142.7802   71.9389  217.9782 H   0  0  0  0  0  0  0  0  0  0  0  0
  145.2359   70.6816  219.5632 H   0  0  0  0  0  0  0  0  0  0  0  0
  147.2281   71.8143  220.4509 H   0  0  0  0  0  0  0  0  0  0  0  0
  147.1920   74.2490  221.0199 H   0  0  0  0  0  0  0  0  0  0  0  0
  145.0580   75.4925  220.6553 H   0  0  0  0  0  0  0  0  0  0  0  0
  142.6986   75.4011  220.3261 H   0  0  0  0  0  0  0  0  0  0  0  0
  142.6557   74.7584  218.6299 H   0  0  0  0  0  0  0  0  0  0  0  0
  137.2059   69.1782  222.9147 H   0  0  0  0  0  0  0  0  0  0  0  0
  138.4399   70.2319  222.1906 H   0  0  0  0  0  0  0  0  0  0  0  0
  139.1057   71.9435  223.1003 H   0  0  0  0  0  0  0  0  0  0  0  0
  139.0410   72.2900  224.8679 H   0  0  0  0  0  0  0  0  0  0  0  0
  140.5267   69.9010  223.6387 H   0  0  0  0  0  0  0  0  0  0  0  0
  141.3247   71.4119  224.0613 H   0  0  0  0  0  0  0  0  0  0  0  0
  142.3734   71.1741  226.2740 H   0  0  0  0  0  0  0  0  0  0  0  0
  142.1404   70.3759  228.6407 H   0  0  0  0  0  0  0  0  0  0  0  0
  140.1084   69.1392  229.3499 H   0  0  0  0  0  0  0  0  0  0  0  0
  138.2744   68.6721  227.7400 H   0  0  0  0  0  0  0  0  0  0  0  0
  138.6223   68.6242  224.4246 H   0  0  0  0  0  0  0  0  0  0  0  0
  137.3324   69.2249  225.5808 H   0  0  0  0  0  0  0  0  0  0  0  0
  1  2  1  0
  2  3  1  0
  3  4  1  0
  4  5  1  0
  5  6  2  0
  6  7  1  0
  7  8  1  0
  8  9  1  0
  9 10  1  0
 10 11  1  0
 11 12  2  0
 12 13  1  0
 13 14  2  0
 14 15  1  0
 15 16  2  0
 16 17  1  0
  7 18  2  0
 18 19  1  0
 19 20  1  0
 20 21  1  0
 21 22  1  0
 22 23  1  0
 23 24  2  0
 24 25  1  0
 25 26  2  0
 26 27  1  0
 27 28  2  0
 28 29  1  0
 19 30  2  0
  2 31  1  0
 31 32  1  0
 32 33  1  0
 33 34  1  0
 34 35  1  0
 35 36  2  0
 36 37  1  0
 37 38  2  0
 38 39  1  0
 39 40  2  0
 40 41  1  0
 30  5  1  0
 41 32  1  0
 17  8  1  0
 29 20  1  0
 40 35  1  0
 16 11  1  0
 28 23  1  0
  1 42  1  0
  1 43  1  0
  2 44  1  6
  3 45  1  0
  3 46  1  0
  4 47  1  0
  9 48  1  0
  9 49  1  0
 10 50  1  0
 10 51  1  0
 12 52  1  0
 13 53  1  0
 14 54  1  0
 15 55  1  0
 17 56  1  0
 17 57  1  0
 21 58  1  0
 21 59  1  0
 22 60  1  0
 22 61  1  0
 24 62  1  0
 25 63  1  0
 26 64  1  0
 27 65  1  0
 29 66  1  0
 29 67  1  0
 31 68  1  0
 31 69  1  0
 33 70  1  0
 33 71  1  0
 34 72  1  0
 34 73  1  0
 36 74  1  0
 37 75  1  0
 38 76  1  0
 39 77  1  0
 41 78  1  0
 41 79  1  0
M  END
>  <smiles>  (76) 
NC(CNc1nc(N2CCc3ccccc3C2)nc(N2CCc3ccccc3C2)n1)CN1CCc2ccccc2C1

>  <score_type>  (76) 
oracle

>  <origin>  (76) 
autodockgpu

>  <m_score__min__energy>  (76) 
-11.49

>  <m_primary>  (76) 
energy

>  <rmsd>  (76) 
4.182086520113481

>  <m_score__min__rmsd>  (76) 
4.182086520113481

>  <meeko>  (76) 
{"free_energy": -9.94, "intermolecular_energy": -12.33, "internal_energy": -2.66, "cluster_size": 9, "cluster_id": 2, "rank_in_cluster": 4}

>  <energy>  (76) 
-10.03

>  <cluster_rmsd>  (76) 
0.0

>  <cluster>  (76) 
3

$$$$

     RDKit          3D

 79 85  0  0  1  0  0  0  0  0999 V2000
  140.6090   74.1600  222.1700 N   0  0  0  0  0  0  0  0  0  0  0  0
  140.3860   74.4950  220.7800 C   0  0  1  0  0  0  0  0  0  0  0  0
  139.4870   73.5020  220.1010 C   0  0  0  0  0  0  0  0  0  0  0  0
  138.1260   73.7380  220.5320 N   0  0  0  0  0  0  0  0  0  0  0  0
  137.7020   73.0890  221.7440 C   0  0  0  0  0  0  0  0  0  0  0  0
  136.5200   73.3970  222.3320 N   0  0  0  0  0  0  0  0  0  0  0  0
  136.1090   72.8010  223.4650 C   0  0  0  0  0  0  0  0  0  0  0  0
  134.8710   73.1110  224.0960 N   0  0  0  0  0  0  0  0  0  0  0  0
  134.3050   74.4450  224.0000 C   0  0  0  0  0  0  0  0  0  0  0  0
  134.3400   74.9880  225.4230 C   0  0  0  0  0  0  0  0  0  0  0  0
  133.3910   74.1180  226.1940 C   0  0  0  0  0  0  0  0  0  0  0  0
  132.6110   74.7040  227.1870 C   0  0  0  0  0  0  0  0  0  0  0  0
  131.7410   73.8760  227.8860 C   0  0  0  0  0  0  0  0  0  0  0  0
  131.6480   72.5260  227.6120 C   0  0  0  0  0  0  0  0  0  0  0  0
  132.4320   71.9470  226.6150 C   0  0  0  0  0  0  0  0  0  0  0  0
  133.2960   72.7680  225.9200 C   0  0  0  0  0  0  0  0  0  0  0  0
  134.1280   72.1220  224.8530 C   0  0  0  0  0  0  0  0  0  0  0  0
  136.9090   71.8730  224.0160 N   0  0  0  0  0  0  0  0  0  0  0  0
  138.1030   71.5180  223.4800 C   0  0  0  0  0  0  0  0  0  0  0  0
  138.9070   70.5270  224.1120 N   0  0  0  0  0  0  0  0  0  0  0  0
  138.4560   69.1740  224.1640 C   0  0  0  0  0  0  0  0  0  0  0  0
  139.2310   68.2710  225.0420 C   0  0  0  0  0  0  0  0  0  0  0  0
  139.8830   68.9680  226.1690 C   0  0  0  0  0  0  0  0  0  0  0  0
  140.0520   68.3800  227.3980 C   0  0  0  0  0  0  0  0  0  0  0  0
  140.6680   69.0510  228.4450 C   0  0  0  0  0  0  0  0  0  0  0  0
  141.1450   70.3450  228.3070 C   0  0  0  0  0  0  0  0  0  0  0  0
  140.9750   70.9360  227.0710 C   0  0  0  0  0  0  0  0  0  0  0  0
  140.3650   70.2740  226.0350 C   0  0  0  0  0  0  0  0  0  0  0  0
  140.1740   70.8960  224.7020 C   0  0  0  0  0  0  0  0  0  0  0  0
  138.4550   72.1490  222.3510 N   0  0  0  0  0  0  0  0  0  0  0  0
  139.7340   75.8560  220.7200 C   0  0  0  0  0  0  0  0  0  0  0  0
  140.2600   76.6280  221.8520 N   0  0  0  0  0  0  0  0  0  0  0  0
  139.1490   77.1900  222.5490 C   0  0  0  0  0  0  0  0  0  0  0  0
  138.9560   78.6480  222.1480 C   0  0  0  0  0  0  0  0  0  0  0  0
  140.1850   79.3460  222.6680 C   0  0  0  0  0  0  0  0  0  0  0  0
  140.1160   80.4700  223.4510 C   0  0  0  0  0  0  0  0  0  0  0  0
  141.3210   81.0150  223.8660 C   0  0  0  0  0  0  0  0  0  0  0  0
  142.5350   80.4300  223.4920 C   0  0  0  0  0  0  0  0  0  0  0  0
  142.5700   79.2970  222.7020 C   0  0  0  0  0  0  0  0  0  0  0  0
  141.3900   78.7560  222.2910 C   0  0  0  0  0  0  0  0  0  0  0  0
  141.2740   77.5400  221.4380 C   0  0  0  0  0  0  0  0  0  0  0  0
  141.1940   74.8570  222.6570 H   0  0  0  0  0  0  0  0  0  0  0  0
  139.7560   73.8730  222.6680 H   0  0  0  0  0  0  0  0  0  0  0  0
  141.3559   74.4857  220.2612 H   0  0  0  0  0  0  0  0  0  0  0  0
  139.5565   73.6252  219.0101 H   0  0  0  0  0  0  0  0  0  0  0  0
  139.7917   72.4786  220.3652 H   0  0  0  0  0  0  0  0  0  0  0  0
  137.4370   74.3290  220.0520 H   0  0  0  0  0  0  0  0  0  0  0  0
  134.9092   75.0747  223.3304 H   0  0  0  0  0  0  0  0  0  0  0  0
  133.2861   74.4341  223.5855 H   0  0  0  0  0  0  0  0  0  0  0  0
  135.3556   74.9161  225.8394 H   0  0  0  0  0  0  0  0  0  0  0  0
  134.0560   76.0498  225.4672 H   0  0  0  0  0  0  0  0  0  0  0  0
  132.6805   75.7791  227.4094 H   0  0  0  0  0  0  0  0  0  0  0  0
  131.1105   74.3070  228.6776 H   0  0  0  0  0  0  0  0  0  0  0  0
  130.9482   71.9009  228.1861 H   0  0  0  0  0  0  0  0  0  0  0  0
  132.3640   70.8724  226.3902 H   0  0  0  0  0  0  0  0  0  0  0  0
  134.8362   71.4242  225.3236 H   0  0  0  0  0  0  0  0  0  0  0  0
  133.4571   71.5881  224.1639 H   0  0  0  0  0  0  0  0  0  0  0  0
  137.4149   69.1786  224.5191 H   0  0  0  0  0  0  0  0  0  0  0  0
  138.5791   68.7785  223.1450 H   0  0  0  0  0  0  0  0  0  0  0  0
  138.5488   67.5105  225.4498 H   0  0  0  0  0  0  0  0  0  0  0  0
  140.0289   67.8268  224.4288 H   0  0  0  0  0  0  0  0  0  0  0  0
  139.6908   67.3532  227.5565 H   0  0  0  0  0  0  0  0  0  0  0  0
  140.7810   68.5408  229.4130 H   0  0  0  0  0  0  0  0  0  0  0  0
  141.6335   70.8735  229.1389 H   0  0  0  0  0  0  0  0  0  0  0  0
  141.3373   71.9625  226.9126 H   0  0  0  0  0  0  0  0  0  0  0  0
  140.2103   71.9899  224.8114 H   0  0  0  0  0  0  0  0  0  0  0  0
  140.9759   70.5371  224.0401 H   0  0  0  0  0  0  0  0  0  0  0  0
  139.9849   76.3547  219.7722 H   0  0  0  0  0  0  0  0  0  0  0  0
  138.6386   75.7718  220.7745 H   0  0  0  0  0  0  0  0  0  0  0  0
  138.2401   76.6221  222.3012 H   0  0  0  0  0  0  0  0  0  0  0  0
  139.3420   77.1388  223.6307 H   0  0  0  0  0  0  0  0  0  0  0  0
  138.8868   78.7449  221.0545 H   0  0  0  0  0  0  0  0  0  0  0  0
  138.0277   79.0752  222.5551 H   0  0  0  0  0  0  0  0  0  0  0  0
  139.1520   80.9169  223.7356 H   0  0  0  0  0  0  0  0  0  0  0  0
  141.3224   81.9168  224.4959 H   0  0  0  0  0  0  0  0  0  0  0  0
  143.4791   80.8800  223.8330 H   0  0  0  0  0  0  0  0  0  0  0  0
  143.5288   78.8426  222.4118 H   0  0  0  0  0  0  0  0  0  0  0  0
  141.0502   77.8605  220.4098 H   0  0  0  0  0  0  0  0  0  0  0  0
  142.2316   77.0050  221.5201 H   0  0  0  0  0  0  0  0  0  0  0  0
  1  2  1  0
  2  3  1  0
  3  4  1  0
  4  5  1  0
  5  6  2  0
  6  7  1  0
  7  8  1  0
  8  9  1  0
  9 10  1  0
 10 11  1  0
 11 12  2  0
 12 13  1  0
 13 14  2  0
 14 15  1  0
 15 16  2  0
 16 17  1  0
  7 18  2  0
 18 19  1  0
 19 20  1  0
 20 21  1  0
 21 22  1  0
 22 23  1  0
 23 24  2  0
 24 25  1  0
 25 26  2  0
 26 27  1  0
 27 28  2  0
 28 29  1  0
 19 30  2  0
  2 31  1  0
 31 32  1  0
 32 33  1  0
 33 34  1  0
 34 35  1  0
 35 36  2  0
 36 37  1  0
 37 38  2  0
 38 39  1  0
 39 40  2  0
 40 41  1  0
 30  5  1  0
 41 32  1  0
 17  8  1  0
 29 20  1  0
 40 35  1  0
 16 11  1  0
 28 23  1  0
  1 42  1  0
  1 43  1  0
  2 44  1  6
  3 45  1  0
  3 46  1  0
  4 47  1  0
  9 48  1  0
  9 49  1  0
 10 50  1  0
 10 51  1  0
 12 52  1  0
 13 53  1  0
 14 54  1  0
 15 55  1  0
 17 56  1  0
 17 57  1  0
 21 58  1  0
 21 59  1  0
 22 60  1  0
 22 61  1  0
 24 62  1  0
 25 63  1  0
 26 64  1  0
 27 65  1  0
 29 66  1  0
 29 67  1  0
 31 68  1  0
 31 69  1  0
 33 70  1  0
 33 71  1  0
 34 72  1  0
 34 73  1  0
 36 74  1  0
 37 75  1  0
 38 76  1  0
 39 77  1  0
 41 78  1  0
 41 79  1  0
M  END
>  <smiles>  (77) 
NC(CNc1nc(N2CCc3ccccc3C2)nc(N2CCc3ccccc3C2)n1)CN1CCc2ccccc2C1

>  <score_type>  (77) 
oracle

>  <origin>  (77) 
autodockgpu

>  <m_score__min__energy>  (77) 
-11.49

>  <m_primary>  (77) 
energy

>  <rmsd>  (77) 
9.230122091828669

>  <m_score__min__rmsd>  (77) 
9.230122091828669

>  <meeko>  (77) 
{"free_energy": -11.01, "intermolecular_energy": -13.39, "internal_energy": -2.82, "cluster_size": 16, "cluster_id": 1, "rank_in_cluster": 7}

>  <energy>  (77) 
-9.76

>  <cluster_rmsd>  (77) 
0.0

>  <cluster>  (77) 
4

$$$$

     RDKit          3D

 79 85  0  0  1  0  0  0  0  0999 V2000
  136.8290   71.8600  223.1530 N   0  0  0  0  0  0  0  0  0  0  0  0
  137.4780   71.4120  221.9390 C   0  0  1  0  0  0  0  0  0  0  0  0
  137.9820   72.5620  221.1160 C   0  0  0  0  0  0  0  0  0  0  0  0
  138.4150   73.6160  222.0070 N   0  0  0  0  0  0  0  0  0  0  0  0
  139.7220   74.1720  221.7760 C   0  0  0  0  0  0  0  0  0  0  0  0
  139.9530   75.5030  221.8910 N   0  0  0  0  0  0  0  0  0  0  0  0
  141.1670   76.0390  221.6770 C   0  0  0  0  0  0  0  0  0  0  0  0
  141.4280   77.4340  221.7940 N   0  0  0  0  0  0  0  0  0  0  0  0
  141.4310   78.0800  223.0940 C   0  0  0  0  0  0  0  0  0  0  0  0
  140.2470   79.0370  223.0570 C   0  0  0  0  0  0  0  0  0  0  0  0
  140.6030   80.0560  222.0140 C   0  0  0  0  0  0  0  0  0  0  0  0
  140.2280   81.3800  222.2240 C   0  0  0  0  0  0  0  0  0  0  0  0
  140.5710   82.3030  221.2420 C   0  0  0  0  0  0  0  0  0  0  0  0
  141.2540   81.9280  220.1030 C   0  0  0  0  0  0  0  0  0  0  0  0
  141.6260   80.5990  219.9010 C   0  0  0  0  0  0  0  0  0  0  0  0
  141.2870   79.6830  220.8750 C   0  0  0  0  0  0  0  0  0  0  0  0
  141.6990   78.2610  220.6340 C   0  0  0  0  0  0  0  0  0  0  0  0
  142.1720   75.2120  221.3400 N   0  0  0  0  0  0  0  0  0  0  0  0
  142.0090   73.8720  221.2080 C   0  0  0  0  0  0  0  0  0  0  0  0
  143.1140   73.0480  220.8480 N   0  0  0  0  0  0  0  0  0  0  0  0
  144.3460   73.6470  220.4470 C   0  0  0  0  0  0  0  0  0  0  0  0
  145.3470   72.7290  219.8640 C   0  0  0  0  0  0  0  0  0  0  0  0
  144.7480   71.5520  219.2040 C   0  0  0  0  0  0  0  0  0  0  0  0
  145.3050   70.9700  218.0930 C   0  0  0  0  0  0  0  0  0  0  0  0
  144.7280   69.8630  217.4860 C   0  0  0  0  0  0  0  0  0  0  0  0
  143.5620   69.2880  217.9680 C   0  0  0  0  0  0  0  0  0  0  0  0
  143.0020   69.8730  219.0860 C   0  0  0  0  0  0  0  0  0  0  0  0
  143.5720   70.9680  219.6850 C   0  0  0  0  0  0  0  0  0  0  0  0
  142.9820   71.6100  220.8860 C   0  0  0  0  0  0  0  0  0  0  0  0
  140.7750   73.4010  221.4350 N   0  0  0  0  0  0  0  0  0  0  0  0
  138.6510   70.5420  222.3230 C   0  0  0  0  0  0  0  0  0  0  0  0
  138.6400   70.4360  223.7880 N   0  0  0  0  0  0  0  0  0  0  0  0
  139.4620   71.4810  224.3060 C   0  0  0  0  0  0  0  0  0  0  0  0
  140.8400   70.9380  224.6670 C   0  0  0  0  0  0  0  0  0  0  0  0
  140.5820   69.9890  225.8080 C   0  0  0  0  0  0  0  0  0  0  0  0
  141.2710   70.0600  226.9920 C   0  0  0  0  0  0  0  0  0  0  0  0
  140.9370   69.1290  227.9640 C   0  0  0  0  0  0  0  0  0  0  0  0
  139.9440   68.1740  227.7250 C   0  0  0  0  0  0  0  0  0  0  0  0
  139.2680   68.1290  226.5200 C   0  0  0  0  0  0  0  0  0  0  0  0
  139.5910   69.0410  225.5620 C   0  0  0  0  0  0  0  0  0  0  0  0
  138.9500   69.1130  224.2190 C   0  0  0  0  0  0  0  0  0  0  0  0
  136.5540   71.0780  223.7680 H   0  0  0  0  0  0  0  0  0  0  0  0
  137.3140   72.6380  223.6170 H   0  0  0  0  0  0  0  0  0  0  0  0
  136.7427   70.8592  221.3360 H   0  0  0  0  0  0  0  0  0  0  0  0
  138.8281   72.2306  220.4961 H   0  0  0  0  0  0  0  0  0  0  0  0
  137.1809   72.9322  220.4594 H   0  0  0  0  0  0  0  0  0  0  0  0
  137.8740   74.0040  222.7880 H   0  0  0  0  0  0  0  0  0  0  0  0
  141.3040   77.3376  223.8957 H   0  0  0  0  0  0  0  0  0  0  0  0
  142.3787   78.6005  223.2963 H   0  0  0  0  0  0  0  0  0  0  0  0
  139.3269   78.5029  222.7774 H   0  0  0  0  0  0  0  0  0  0  0  0
  140.0580   79.4983  224.0376 H   0  0  0  0  0  0  0  0  0  0  0  0
  139.6826   81.6838  223.1297 H   0  0  0  0  0  0  0  0  0  0  0  0
  140.2909   83.3582  221.3765 H   0  0  0  0  0  0  0  0  0  0  0  0
  141.5077   82.6852  219.3465 H   0  0  0  0  0  0  0  0  0  0  0  0
  142.1710   80.2919  218.9962 H   0  0  0  0  0  0  0  0  0  0  0  0
  141.1397   77.8662  219.7730 H   0  0  0  0  0  0  0  0  0  0  0  0
  142.7808   78.2400  220.4357 H   0  0  0  0  0  0  0  0  0  0  0  0
  144.1179   74.4184  219.6967 H   0  0  0  0  0  0  0  0  0  0  0  0
  144.8012   74.0400  221.3680 H   0  0  0  0  0  0  0  0  0  0  0  0
  145.9371   73.2836  219.1196 H   0  0  0  0  0  0  0  0  0  0  0  0
  145.9676   72.3564  220.6923 H   0  0  0  0  0  0  0  0  0  0  0  0
  146.2307   71.3907  217.6735 H   0  0  0  0  0  0  0  0  0  0  0  0
  145.2096   69.4295  216.5971 H   0  0  0  0  0  0  0  0  0  0  0  0
  143.1067   68.4111  217.4846 H   0  0  0  0  0  0  0  0  0  0  0  0
  142.0771   69.4514  219.5065 H   0  0  0  0  0  0  0  0  0  0  0  0
  141.9139   71.3522  220.9385 H   0  0  0  0  0  0  0  0  0  0  0  0
  143.5229   71.2413  221.7700 H   0  0  0  0  0  0  0  0  0  0  0  0
  138.5469   69.5448  221.8705 H   0  0  0  0  0  0  0  0  0  0  0  0
  139.5970   70.9753  221.9660 H   0  0  0  0  0  0  0  0  0  0  0  0
  139.5698   72.2689  223.5460 H   0  0  0  0  0  0  0  0  0  0  0  0
  138.9907   71.8931  225.2105 H   0  0  0  0  0  0  0  0  0  0  0  0
  141.2853   70.4074  223.8125 H   0  0  0  0  0  0  0  0  0  0  0  0
  141.5473   71.7359  224.9373 H   0  0  0  0  0  0  0  0  0  0  0  0
  142.0499   70.8179  227.1620 H   0  0  0  0  0  0  0  0  0  0  0  0
  141.4583   69.1419  228.9325 H   0  0  0  0  0  0  0  0  0  0  0  0
  139.6961   67.4449  228.5105 H   0  0  0  0  0  0  0  0  0  0  0  0
  138.4880   67.3746  226.3395 H   0  0  0  0  0  0  0  0  0  0  0  0
  139.6353   68.6632  223.4854 H   0  0  0  0  0  0  0  0  0  0  0  0
  137.9940   68.5744  224.2965 H   0  0  0  0  0  0  0  0  0  0  0  0
  1  2  1  0
  2  3  1  0
  3  4  1  0
  4  5  1  0
  5  6  2  0
  6  7  1  0
  7  8  1  0
  8  9  1  0
  9 10  1  0
 10 11  1  0
 11 12  2  0
 12 13  1  0
 13 14  2  0
 14 15  1  0
 15 16  2  0
 16 17  1  0
  7 18  2  0
 18 19  1  0
 19 20  1  0
 20 21  1  0
 21 22  1  0
 22 23  1  0
 23 24  2  0
 24 25  1  0
 25 26  2  0
 26 27  1  0
 27 28  2  0
 28 29  1  0
 19 30  2  0
  2 31  1  0
 31 32  1  0
 32 33  1  0
 33 34  1  0
 34 35  1  0
 35 36  2  0
 36 37  1  0
 37 38  2  0
 38 39  1  0
 39 40  2  0
 40 41  1  0
 30  5  1  0
 41 32  1  0
 17  8  1  0
 29 20  1  0
 40 35  1  0
 16 11  1  0
 28 23  1  0
  1 42  1  0
  1 43  1  0
  2 44  1  6
  3 45  1  0
  3 46  1  0
  4 47  1  0
  9 48  1  0
  9 49  1  0
 10 50  1  0
 10 51  1  0
 12 52  1  0
 13 53  1  0
 14 54  1  0
 15 55  1  0
 17 56  1  0
 17 57  1  0
 21 58  1  0
 21 59  1  0
 22 60  1  0
 22 61  1  0
 24 62  1  0
 25 63  1  0
 26 64  1  0
 27 65  1  0
 29 66  1  0
 29 67  1  0
 31 68  1  0
 31 69  1  0
 33 70  1  0
 33 71  1  0
 34 72  1  0
 34 73  1  0
 36 74  1  0
 37 75  1  0
 38 76  1  0
 39 77  1  0
 41 78  1  0
 41 79  1  0
M  END
>  <smiles>  (78) 
NC(CNc1nc(N2CCc3ccccc3C2)nc(N2CCc3ccccc3C2)n1)CN1CCc2ccccc2C1

>  <score_type>  (78) 
oracle

>  <origin>  (78) 
autodockgpu

>  <m_score__min__energy>  (78) 
-11.49

>  <m_primary>  (78) 
energy

>  <rmsd>  (78) 
3.5919026895429096

>  <m_score__min__rmsd>  (78) 
3.5919026895429096

>  <meeko>  (78) 
{"free_energy": -9.71, "intermolecular_energy": -12.09, "internal_energy": -2.87, "cluster_size": 9, "cluster_id": 2, "rank_in_cluster": 9}

>  <energy>  (78) 
-9.3

>  <cluster_rmsd>  (78) 
1.61

>  <cluster>  (78) 
4

$$$$

     RDKit          3D

 79 85  0  0  1  0  0  0  0  0999 V2000
  139.1340   75.2480  222.4420 N   0  0  0  0  0  0  0  0  0  0  0  0
  140.1700   74.5810  221.6860 C   0  0  1  0  0  0  0  0  0  0  0  0
  139.6370   73.9680  220.4230 C   0  0  0  0  0  0  0  0  0  0  0  0
  138.2120   73.7680  220.5710 N   0  0  0  0  0  0  0  0  0  0  0  0
  137.7670   73.0900  221.7600 C   0  0  0  0  0  0  0  0  0  0  0  0
  136.5840   73.3980  222.3460 N   0  0  0  0  0  0  0  0  0  0  0  0
  136.1540   72.7760  223.4570 C   0  0  0  0  0  0  0  0  0  0  0  0
  134.9140   73.0870  224.0870 N   0  0  0  0  0  0  0  0  0  0  0  0
  134.3480   74.4200  223.9880 C   0  0  0  0  0  0  0  0  0  0  0  0
  134.3800   74.9650  225.4090 C   0  0  0  0  0  0  0  0  0  0  0  0
  133.4300   74.0950  226.1810 C   0  0  0  0  0  0  0  0  0  0  0  0
  132.6490   74.6820  227.1720 C   0  0  0  0  0  0  0  0  0  0  0  0
  131.7780   73.8540  227.8700 C   0  0  0  0  0  0  0  0  0  0  0  0
  131.6860   72.5040  227.5980 C   0  0  0  0  0  0  0  0  0  0  0  0
  132.4730   71.9240  226.6020 C   0  0  0  0  0  0  0  0  0  0  0  0
  133.3370   72.7450  225.9080 C   0  0  0  0  0  0  0  0  0  0  0  0
  134.1720   72.0980  224.8440 C   0  0  0  0  0  0  0  0  0  0  0  0
  136.9360   71.8210  223.9890 N   0  0  0  0  0  0  0  0  0  0  0  0
  138.1290   71.4650  223.4540 C   0  0  0  0  0  0  0  0  0  0  0  0
  138.9130   70.4440  224.0640 N   0  0  0  0  0  0  0  0  0  0  0  0
  138.4510   69.0940  224.0570 C   0  0  0  0  0  0  0  0  0  0  0  0
  139.2010   68.1530  224.9150 C   0  0  0  0  0  0  0  0  0  0  0  0
  139.8360   68.8020  226.0800 C   0  0  0  0  0  0  0  0  0  0  0  0
  139.9760   68.1680  227.2890 C   0  0  0  0  0  0  0  0  0  0  0  0
  140.5770   68.7940  228.3720 C   0  0  0  0  0  0  0  0  0  0  0  0
  141.0660   70.0890  228.2920 C   0  0  0  0  0  0  0  0  0  0  0  0
  140.9250   70.7270  227.0750 C   0  0  0  0  0  0  0  0  0  0  0  0
  140.3310   70.1080  226.0050 C   0  0  0  0  0  0  0  0  0  0  0  0
  140.1710   70.7800  224.6910 C   0  0  0  0  0  0  0  0  0  0  0  0
  138.5010   72.1220  222.3460 N   0  0  0  0  0  0  0  0  0  0  0  0
  141.2210   75.6030  221.3200 C   0  0  0  0  0  0  0  0  0  0  0  0
  140.6650   76.9210  221.6510 N   0  0  0  0  0  0  0  0  0  0  0  0
  140.6140   77.6860  220.4480 C   0  0  0  0  0  0  0  0  0  0  0  0
  141.8020   78.6380  220.3770 C   0  0  0  0  0  0  0  0  0  0  0  0
  141.5770   79.6040  221.5100 C   0  0  0  0  0  0  0  0  0  0  0  0
  141.6030   80.9650  221.3330 C   0  0  0  0  0  0  0  0  0  0  0  0
  141.3780   81.7440  222.4570 C   0  0  0  0  0  0  0  0  0  0  0  0
  141.1390   81.1510  223.7000 C   0  0  0  0  0  0  0  0  0  0  0  0
  141.1200   79.7760  223.8460 C   0  0  0  0  0  0  0  0  0  0  0  0
  141.3390   79.0050  222.7460 C   0  0  0  0  0  0  0  0  0  0  0  0
  141.3490   77.5150  222.7520 C   0  0  0  0  0  0  0  0  0  0  0  0
  138.7180   76.0430  221.9310 H   0  0  0  0  0  0  0  0  0  0  0  0
  138.4620   74.6040  222.8800 H   0  0  0  0  0  0  0  0  0  0  0  0
  140.5862   73.7735  222.3062 H   0  0  0  0  0  0  0  0  0  0  0  0
  139.8303   74.6409  219.5746 H   0  0  0  0  0  0  0  0  0  0  0  0
  140.1335   73.0046  220.2350 H   0  0  0  0  0  0  0  0  0  0  0  0
  137.4890   74.0670  219.9050 H   0  0  0  0  0  0  0  0  0  0  0  0
  134.9533   75.0488  223.3185 H   0  0  0  0  0  0  0  0  0  0  0  0
  133.3299   74.4080  223.5717 H   0  0  0  0  0  0  0  0  0  0  0  0
  135.3950   74.8949  225.8271 H   0  0  0  0  0  0  0  0  0  0  0  0
  134.0946   76.0265  225.4507 H   0  0  0  0  0  0  0  0  0  0  0  0
  132.7182   75.7572  227.3938 H   0  0  0  0  0  0  0  0  0  0  0  0
  131.1455   74.2857  228.6597 H   0  0  0  0  0  0  0  0  0  0  0  0
  130.9857   71.8792  228.1718 H   0  0  0  0  0  0  0  0  0  0  0  0
  132.4065   70.8491  226.3782 H   0  0  0  0  0  0  0  0  0  0  0  0
  134.8807   71.4025  225.3173 H   0  0  0  0  0  0  0  0  0  0  0  0
  133.5037   71.5610  224.1549 H   0  0  0  0  0  0  0  0  0  0  0  0
  137.4032   69.0942  224.3918 H   0  0  0  0  0  0  0  0  0  0  0  0
  138.5915   68.7356  223.0266 H   0  0  0  0  0  0  0  0  0  0  0  0
  138.5050   67.3836  225.2806 H   0  0  0  0  0  0  0  0  0  0  0  0
  140.0075   67.7253  224.3013 H   0  0  0  0  0  0  0  0  0  0  0  0
  139.6031   67.1394  227.4024 H   0  0  0  0  0  0  0  0  0  0  0  0
  140.6681   68.2467  229.3218 H   0  0  0  0  0  0  0  0  0  0  0  0
  141.5413   70.5824  229.1526 H   0  0  0  0  0  0  0  0  0  0  0  0
  141.2979   71.7556  226.9614 H   0  0  0  0  0  0  0  0  0  0  0  0
  140.2142   71.8689  224.8407 H   0  0  0  0  0  0  0  0  0  0  0  0
  140.9827   70.4381  224.0320 H   0  0  0  0  0  0  0  0  0  0  0  0
  142.1402   75.4241  221.8970 H   0  0  0  0  0  0  0  0  0  0  0  0
  141.4777   75.5399  220.2522 H   0  0  0  0  0  0  0  0  0  0  0  0
  140.6416   77.0059  219.5838 H   0  0  0  0  0  0  0  0  0  0  0  0
  139.6836   78.2727  220.4357 H   0  0  0  0  0  0  0  0  0  0  0  0
  142.7470   78.0918  220.5132 H   0  0  0  0  0  0  0  0  0  0  0  0
  141.8757   79.1442  219.4032 H   0  0  0  0  0  0  0  0  0  0  0  0
  141.7931   81.4152  220.3475 H   0  0  0  0  0  0  0  0  0  0  0  0
  141.3876   82.8405  222.3700 H   0  0  0  0  0  0  0  0  0  0  0  0
  140.9628   81.7897  224.5781 H   0  0  0  0  0  0  0  0  0  0  0  0
  140.9324   79.3164  224.8276 H   0  0  0  0  0  0  0  0  0  0  0  0
  142.3956   77.1771  222.7307 H   0  0  0  0  0  0  0  0  0  0  0  0
  140.8173   77.1992  223.6617 H   0  0  0  0  0  0  0  0  0  0  0  0
  1  2  1  0
  2  3  1  0
  3  4  1  0
  4  5  1  0
  5  6  2  0
  6  7  1  0
  7  8  1  0
  8  9  1  0
  9 10  1  0
 10 11  1  0
 11 12  2  0
 12 13  1  0
 13 14  2  0
 14 15  1  0
 15 16  2  0
 16 17  1  0
  7 18  2  0
 18 19  1  0
 19 20  1  0
 20 21  1  0
 21 22  1  0
 22 23  1  0
 23 24  2  0
 24 25  1  0
 25 26  2  0
 26 27  1  0
 27 28  2  0
 28 29  1  0
 19 30  2  0
  2 31  1  0
 31 32  1  0
 32 33  1  0
 33 34  1  0
 34 35  1  0
 35 36  2  0
 36 37  1  0
 37 38  2  0
 38 39  1  0
 39 40  2  0
 40 41  1  0
 30  5  1  0
 41 32  1  0
 17  8  1  0
 29 20  1  0
 40 35  1  0
 16 11  1  0
 28 23  1  0
  1 42  1  0
  1 43  1  0
  2 44  1  1
  3 45  1  0
  3 46  1  0
  4 47  1  0
  9 48  1  0
  9 49  1  0
 10 50  1  0
 10 51  1  0
 12 52  1  0
 13 53  1  0
 14 54  1  0
 15 55  1  0
 17 56  1  0
 17 57  1  0
 21 58  1  0
 21 59  1  0
 22 60  1  0
 22 61  1  0
 24 62  1  0
 25 63  1  0
 26 64  1  0
 27 65  1  0
 29 66  1  0
 29 67  1  0
 31 68  1  0
 31 69  1  0
 33 70  1  0
 33 71  1  0
 34 72  1  0
 34 73  1  0
 36 74  1  0
 37 75  1  0
 38 76  1  0
 39 77  1  0
 41 78  1  0
 41 79  1  0
M  END
>  <smiles>  (79) 
NC(CNc1nc(N2CCc3ccccc3C2)nc(N2CCc3ccccc3C2)n1)CN1CCc2ccccc2C1

>  <score_type>  (79) 
oracle

>  <origin>  (79) 
autodockgpu

>  <m_score__min__energy>  (79) 
-11.49

>  <m_primary>  (79) 
energy

>  <rmsd>  (79) 
9.870133311658284

>  <m_score__min__rmsd>  (79) 
9.870133311658284

>  <meeko>  (79) 
{"free_energy": -10.89, "intermolecular_energy": -13.27, "internal_energy": -2.35, "cluster_size": 16, "cluster_id": 1, "rank_in_cluster": 10}

>  <energy>  (79) 
-9.29

>  <cluster_rmsd>  (79) 
1.32

>  <cluster>  (79) 
4

$$$$

     RDKit          3D

 79 85  0  0  1  0  0  0  0  0999 V2000
  138.9310   70.3980  219.0740 N   0  0  0  0  0  0  0  0  0  0  0  0
  138.8470   71.1550  217.8440 C   0  0  1  0  0  0  0  0  0  0  0  0
  138.0680   72.4260  218.0190 C   0  0  0  0  0  0  0  0  0  0  0  0
  137.5390   72.4640  219.3650 N   0  0  0  0  0  0  0  0  0  0  0  0
  138.4570   72.8020  220.4200 C   0  0  0  0  0  0  0  0  0  0  0  0
  138.7700   71.9130  221.3940 N   0  0  0  0  0  0  0  0  0  0  0  0
  139.6240   72.2140  222.3880 C   0  0  0  0  0  0  0  0  0  0  0  0
  139.9650   71.2920  223.4190 N   0  0  0  0  0  0  0  0  0  0  0  0
  139.5670   69.8990  223.3280 C   0  0  0  0  0  0  0  0  0  0  0  0
  138.5780   69.7000  224.4690 C   0  0  0  0  0  0  0  0  0  0  0  0
  139.3860   69.8880  225.7210 C   0  0  0  0  0  0  0  0  0  0  0  0
  139.0960   69.0890  226.8230 C   0  0  0  0  0  0  0  0  0  0  0  0
  139.8600   69.2840  227.9690 C   0  0  0  0  0  0  0  0  0  0  0  0
  140.8640   70.2290  228.0180 C   0  0  0  0  0  0  0  0  0  0  0  0
  141.1480   71.0240  226.9080 C   0  0  0  0  0  0  0  0  0  0  0  0
  140.3920   70.8320  225.7710 C   0  0  0  0  0  0  0  0  0  0  0  0
  140.7160   71.6990  224.5910 C   0  0  0  0  0  0  0  0  0  0  0  0
  140.1750   73.4390  222.3980 N   0  0  0  0  0  0  0  0  0  0  0  0
  139.9050   74.3750  221.4550 C   0  0  0  0  0  0  0  0  0  0  0  0
  140.5210   75.6580  221.5200 N   0  0  0  0  0  0  0  0  0  0  0  0
  139.8600   76.7290  222.1930 C   0  0  0  0  0  0  0  0  0  0  0  0
  140.4530   78.0700  222.0030 C   0  0  0  0  0  0  0  0  0  0  0  0
  141.1700   78.2170  220.7200 C   0  0  0  0  0  0  0  0  0  0  0  0
  141.2040   79.4020  220.0280 C   0  0  0  0  0  0  0  0  0  0  0  0
  141.8840   79.5210  218.8240 C   0  0  0  0  0  0  0  0  0  0  0  0
  142.5640   78.4540  218.2580 C   0  0  0  0  0  0  0  0  0  0  0  0
  142.5300   77.2620  218.9540 C   0  0  0  0  0  0  0  0  0  0  0  0
  141.8570   77.1440  220.1440 C   0  0  0  0  0  0  0  0  0  0  0  0
  141.8100   75.8700  220.9030 C   0  0  0  0  0  0  0  0  0  0  0  0
  139.0460   74.0130  220.4920 N   0  0  0  0  0  0  0  0  0  0  0  0
  140.2500   71.5040  217.4070 C   0  0  0  0  0  0  0  0  0  0  0  0
  140.9190   72.1060  218.5670 N   0  0  0  0  0  0  0  0  0  0  0  0
  141.0570   73.5030  218.3140 C   0  0  0  0  0  0  0  0  0  0  0  0
  142.4690   73.8150  217.8310 C   0  0  0  0  0  0  0  0  0  0  0  0
  143.3470   73.5050  219.0140 C   0  0  0  0  0  0  0  0  0  0  0  0
  144.2650   74.4000  219.5040 C   0  0  0  0  0  0  0  0  0  0  0  0
  145.0100   73.9920  220.6000 C   0  0  0  0  0  0  0  0  0  0  0  0
  144.8190   72.7260  221.1610 C   0  0  0  0  0  0  0  0  0  0  0  0
  143.8850   71.8470  220.6440 C   0  0  0  0  0  0  0  0  0  0  0  0
  143.1500   72.2410  219.5680 C   0  0  0  0  0  0  0  0  0  0  0  0
  142.1110   71.4030  218.9060 C   0  0  0  0  0  0  0  0  0  0  0  0
  138.9990   69.3810  218.9110 H   0  0  0  0  0  0  0  0  0  0  0  0
  139.6030   70.7830  219.7510 H   0  0  0  0  0  0  0  0  0  0  0  0
  138.3285   70.5405  217.0933 H   0  0  0  0  0  0  0  0  0  0  0  0
  138.7285   73.2904  217.8563 H   0  0  0  0  0  0  0  0  0  0  0  0
  137.2441   72.4639  217.2912 H   0  0  0  0  0  0  0  0  0  0  0  0
  136.5660   72.2730  219.6350 H   0  0  0  0  0  0  0  0  0  0  0  0
  139.0867   69.6960  222.3594 H   0  0  0  0  0  0  0  0  0  0  0  0
  140.4267   69.2166  223.4007 H   0  0  0  0  0  0  0  0  0  0  0  0
  137.7702   70.4446  224.4147 H   0  0  0  0  0  0  0  0  0  0  0  0
  138.0978   68.7111  224.4318 H   0  0  0  0  0  0  0  0  0  0  0  0
  138.2960   68.3348  226.7892 H   0  0  0  0  0  0  0  0  0  0  0  0
  139.6586   68.6692  228.8586 H   0  0  0  0  0  0  0  0  0  0  0  0
  141.4466   70.3567  228.9423 H   0  0  0  0  0  0  0  0  0  0  0  0
  141.9478   71.7785  226.9385 H   0  0  0  0  0  0  0  0  0  0  0  0
  140.4657   72.7425  224.8330 H   0  0  0  0  0  0  0  0  0  0  0  0
  141.7888   71.5988  224.3693 H   0  0  0  0  0  0  0  0  0  0  0  0
  138.8214   76.7648  221.8323 H   0  0  0  0  0  0  0  0  0  0  0  0
  139.9525   76.5102  223.2670 H   0  0  0  0  0  0  0  0  0  0  0  0
  139.6460   78.8166  222.0392 H   0  0  0  0  0  0  0  0  0  0  0  0
  141.1903   78.2162  222.8061 H   0  0  0  0  0  0  0  0  0  0  0  0
  140.6798   80.2781  220.4375 H   0  0  0  0  0  0  0  0  0  0  0  0
  141.8833   80.4902  218.3038 H   0  0  0  0  0  0  0  0  0  0  0  0
  143.1027   78.5518  217.3039 H   0  0  0  0  0  0  0  0  0  0  0  0
  143.0549   76.3862  218.5448 H   0  0  0  0  0  0  0  0  0  0  0  0
  142.0157   75.0377  220.2139 H   0  0  0  0  0  0  0  0  0  0  0  0
  142.5658   75.9202  221.7007 H   0  0  0  0  0  0  0  0  0  0  0  0
  140.7847   70.5963  217.0905 H   0  0  0  0  0  0  0  0  0  0  0  0
  140.2361   72.1995  216.5549 H   0  0  0  0  0  0  0  0  0  0  0  0
  140.3341   73.8054  217.5420 H   0  0  0  0  0  0  0  0  0  0  0  0
  140.8664   74.0564  219.2453 H   0  0  0  0  0  0  0  0  0  0  0  0
  142.7353   73.1815  216.9721 H   0  0  0  0  0  0  0  0  0  0  0  0
  142.5754   74.8559  217.4915 H   0  0  0  0  0  0  0  0  0  0  0  0
  144.4029   75.3922  219.0496 H   0  0  0  0  0  0  0  0  0  0  0  0
  145.7590   74.6716  221.0325 H   0  0  0  0  0  0  0  0  0  0  0  0
  145.4226   72.4235  222.0294 H   0  0  0  0  0  0  0  0  0  0  0  0
  143.7394   70.8528  221.0917 H   0  0  0  0  0  0  0  0  0  0  0  0
  142.5405   70.9877  217.9824 H   0  0  0  0  0  0  0  0  0  0  0  0
  141.8236   70.6269  219.6306 H   0  0  0  0  0  0  0  0  0  0  0  0
  1  2  1  0
  2  3  1  0
  3  4  1  0
  4  5  1  0
  5  6  2  0
  6  7  1  0
  7  8  1  0
  8  9  1  0
  9 10  1  0
 10 11  1  0
 11 12  2  0
 12 13  1  0
 13 14  2  0
 14 15  1  0
 15 16  2  0
 16 17  1  0
  7 18  2  0
 18 19  1  0
 19 20  1  0
 20 21  1  0
 21 22  1  0
 22 23  1  0
 23 24  2  0
 24 25  1  0
 25 26  2  0
 26 27  1  0
 27 28  2  0
 28 29  1  0
 19 30  2  0
  2 31  1  0
 31 32  1  0
 32 33  1  0
 33 34  1  0
 34 35  1  0
 35 36  2  0
 36 37  1  0
 37 38  2  0
 38 39  1  0
 39 40  2  0
 40 41  1  0
 30  5  1  0
 41 32  1  0
 17  8  1  0
 29 20  1  0
 40 35  1  0
 16 11  1  0
 28 23  1  0
  1 42  1  0
  1 43  1  0
  2 44  1  6
  3 45  1  0
  3 46  1  0
  4 47  1  0
  9 48  1  0
  9 49  1  0
 10 50  1  0
 10 51  1  0
 12 52  1  0
 13 53  1  0
 14 54  1  0
 15 55  1  0
 17 56  1  0
 17 57  1  0
 21 58  1  0
 21 59  1  0
 22 60  1  0
 22 61  1  0
 24 62  1  0
 25 63  1  0
 26 64  1  0
 27 65  1  0
 29 66  1  0
 29 67  1  0
 31 68  1  0
 31 69  1  0
 33 70  1  0
 33 71  1  0
 34 72  1  0
 34 73  1  0
 36 74  1  0
 37 75  1  0
 38 76  1  0
 39 77  1  0
 41 78  1  0
 41 79  1  0
M  END
>  <smiles>  (80) 
NC(CNc1nc(N2CCc3ccccc3C2)nc(N2CCc3ccccc3C2)n1)CN1CCc2ccccc2C1

>  <score_type>  (80) 
oracle

>  <origin>  (80) 
autodockgpu

>  <m_score__min__energy>  (80) 
-11.49

>  <m_primary>  (80) 
energy

>  <rmsd>  (80) 
7.857516380065969

>  <m_score__min__rmsd>  (80) 
7.857516380065969

>  <meeko>  (80) 
{"free_energy": -7.97, "intermolecular_energy": -10.36, "internal_energy": -4.35, "cluster_size": 1, "cluster_id": 11, "rank_in_cluster": 1}

>  <energy>  (80) 
-8.94

>  <cluster_rmsd>  (80) 
1.21

>  <cluster>  (80) 
4

$$$$

     RDKit          3D

 79 85  0  0  1  0  0  0  0  0999 V2000
  138.4910   75.5270  222.6670 N   0  0  0  0  0  0  0  0  0  0  0  0
  138.9440   75.7030  221.3040 C   0  0  1  0  0  0  0  0  0  0  0  0
  138.0920   74.9450  220.3280 C   0  0  0  0  0  0  0  0  0  0  0  0
  138.3480   73.5300  220.4900 N   0  0  0  0  0  0  0  0  0  0  0  0
  137.8940   72.9190  221.7110 C   0  0  0  0  0  0  0  0  0  0  0  0
  136.7220   73.2800  222.2870 N   0  0  0  0  0  0  0  0  0  0  0  0
  136.2840   72.7200  223.4280 C   0  0  0  0  0  0  0  0  0  0  0  0
  135.0550   73.0860  224.0480 N   0  0  0  0  0  0  0  0  0  0  0  0
  134.5040   74.4170  223.8680 C   0  0  0  0  0  0  0  0  0  0  0  0
  134.5570   75.0520  225.2510 C   0  0  0  0  0  0  0  0  0  0  0  0
  133.6050   74.2460  226.0860 C   0  0  0  0  0  0  0  0  0  0  0  0
  132.8400   74.9050  227.0440 C   0  0  0  0  0  0  0  0  0  0  0  0
  131.9660   74.1350  227.8030 C   0  0  0  0  0  0  0  0  0  0  0  0
  131.8560   72.7720  227.6180 C   0  0  0  0  0  0  0  0  0  0  0  0
  132.6250   72.1200  226.6560 C   0  0  0  0  0  0  0  0  0  0  0  0
  133.4930   72.8820  225.9020 C   0  0  0  0  0  0  0  0  0  0  0  0
  134.3080   72.1570  224.8740 C   0  0  0  0  0  0  0  0  0  0  0  0
  137.0480   71.7740  224.0010 N   0  0  0  0  0  0  0  0  0  0  0  0
  138.2310   71.3660  223.4770 C   0  0  0  0  0  0  0  0  0  0  0  0
  138.9960   70.3590  224.1320 N   0  0  0  0  0  0  0  0  0  0  0  0
  138.5020   69.0210  224.1940 C   0  0  0  0  0  0  0  0  0  0  0  0
  139.2370   68.1060  225.0930 C   0  0  0  0  0  0  0  0  0  0  0  0
  139.8970   68.7960  226.2190 C   0  0  0  0  0  0  0  0  0  0  0  0
  140.0330   68.2190  227.4570 C   0  0  0  0  0  0  0  0  0  0  0  0
  140.6570   68.8830  228.5030 C   0  0  0  0  0  0  0  0  0  0  0  0
  141.1760   70.1600  228.3550 C   0  0  0  0  0  0  0  0  0  0  0  0
  141.0400   70.7410  227.1100 C   0  0  0  0  0  0  0  0  0  0  0  0
  140.4220   70.0840  226.0750 C   0  0  0  0  0  0  0  0  0  0  0  0
  140.2660   70.6950  224.7320 C   0  0  0  0  0  0  0  0  0  0  0  0
  138.6110   71.9640  222.3390 N   0  0  0  0  0  0  0  0  0  0  0  0
  138.8720   77.1740  220.9680 C   0  0  0  0  0  0  0  0  0  0  0  0
  139.4420   77.8990  222.1090 N   0  0  0  0  0  0  0  0  0  0  0  0
  138.6970   79.1050  222.2760 C   0  0  0  0  0  0  0  0  0  0  0  0
  139.4460   80.2780  221.6550 C   0  0  0  0  0  0  0  0  0  0  0  0
  140.6860   80.4210  222.4990 C   0  0  0  0  0  0  0  0  0  0  0  0
  141.0620   81.6160  223.0570 C   0  0  0  0  0  0  0  0  0  0  0  0
  142.2240   81.6120  223.8150 C   0  0  0  0  0  0  0  0  0  0  0  0
  142.9590   80.4360  223.9860 C   0  0  0  0  0  0  0  0  0  0  0  0
  142.5530   79.2460  223.4100 C   0  0  0  0  0  0  0  0  0  0  0  0
  141.4130   79.2430  222.6650 C   0  0  0  0  0  0  0  0  0  0  0  0
  140.8550   78.0400  221.9860 C   0  0  0  0  0  0  0  0  0  0  0  0
  138.4020   74.5330  222.9300 H   0  0  0  0  0  0  0  0  0  0  0  0
  138.9840   76.1220  223.3460 H   0  0  0  0  0  0  0  0  0  0  0  0
  139.9718   75.3186  221.2273 H   0  0  0  0  0  0  0  0  0  0  0  0
  137.0299   75.1538  220.5238 H   0  0  0  0  0  0  0  0  0  0  0  0
  138.3336   75.2544  219.3004 H   0  0  0  0  0  0  0  0  0  0  0  0
  138.8220   72.9230  219.8110 H   0  0  0  0  0  0  0  0  0  0  0  0
  135.1100   74.9936  223.1537 H   0  0  0  0  0  0  0  0  0  0  0  0
  133.4818   74.3912  223.4626 H   0  0  0  0  0  0  0  0  0  0  0  0
  135.5753   74.9961  225.6632 H   0  0  0  0  0  0  0  0  0  0  0  0
  134.2848   76.1175  225.2269 H   0  0  0  0  0  0  0  0  0  0  0  0
  132.9236   75.9914  227.1946 H   0  0  0  0  0  0  0  0  0  0  0  0
  131.3471   74.6242  228.5696 H   0  0  0  0  0  0  0  0  0  0  0  0
  131.1537   72.1939  228.2366 H   0  0  0  0  0  0  0  0  0  0  0  0
  132.5426   71.0338  226.5030 H   0  0  0  0  0  0  0  0  0  0  0  0
  135.0125   71.4835  225.3840 H   0  0  0  0  0  0  0  0  0  0  0  0
  133.6257   71.5860  224.2272 H   0  0  0  0  0  0  0  0  0  0  0  0
  137.4570   69.0623  224.5350 H   0  0  0  0  0  0  0  0  0  0  0  0
  138.6256   68.6091  223.1815 H   0  0  0  0  0  0  0  0  0  0  0  0
  138.5260   67.3729  225.5017 H   0  0  0  0  0  0  0  0  0  0  0  0
  140.0280   67.6292  224.4955 H   0  0  0  0  0  0  0  0  0  0  0  0
  139.6378   67.2061  227.6236 H   0  0  0  0  0  0  0  0  0  0  0  0
  140.7425   68.3816  229.4784 H   0  0  0  0  0  0  0  0  0  0  0  0
  141.6706   70.6833  229.1866 H   0  0  0  0  0  0  0  0  0  0  0  0
  141.4359   71.7537  226.9435 H   0  0  0  0  0  0  0  0  0  0  0  0
  140.3356   71.7885  224.8285 H   0  0  0  0  0  0  0  0  0  0  0  0
  141.0637   70.3027  224.0841 H   0  0  0  0  0  0  0  0  0  0  0  0
  139.4534   77.3833  220.0579 H   0  0  0  0  0  0  0  0  0  0  0  0
  137.8336   77.4855  220.7820 H   0  0  0  0  0  0  0  0  0  0  0  0
  137.7184   78.9982  221.7852 H   0  0  0  0  0  0  0  0  0  0  0  0
  138.5600   79.2958  223.3506 H   0  0  0  0  0  0  0  0  0  0  0  0
  139.7099   80.0614  220.6093 H   0  0  0  0  0  0  0  0  0  0  0  0
  138.8430   81.1978  221.6371 H   0  0  0  0  0  0  0  0  0  0  0  0
  140.4714   82.5324  222.9108 H   0  0  0  0  0  0  0  0  0  0  0  0
  142.5701   82.5438  224.2860 H   0  0  0  0  0  0  0  0  0  0  0  0
  143.8780   80.4571  224.5902 H   0  0  0  0  0  0  0  0  0  0  0  0
  143.1367   78.3243  223.5502 H   0  0  0  0  0  0  0  0  0  0  0  0
  141.1031   78.1023  220.9161 H   0  0  0  0  0  0  0  0  0  0  0  0
  141.3028   77.1644  222.4787 H   0  0  0  0  0  0  0  0  0  0  0  0
  1  2  1  0
  2  3  1  0
  3  4  1  0
  4  5  1  0
  5  6  2  0
  6  7  1  0
  7  8  1  0
  8  9  1  0
  9 10  1  0
 10 11  1  0
 11 12  2  0
 12 13  1  0
 13 14  2  0
 14 15  1  0
 15 16  2  0
 16 17  1  0
  7 18  2  0
 18 19  1  0
 19 20  1  0
 20 21  1  0
 21 22  1  0
 22 23  1  0
 23 24  2  0
 24 25  1  0
 25 26  2  0
 26 27  1  0
 27 28  2  0
 28 29  1  0
 19 30  2  0
  2 31  1  0
 31 32  1  0
 32 33  1  0
 33 34  1  0
 34 35  1  0
 35 36  2  0
 36 37  1  0
 37 38  2  0
 38 39  1  0
 39 40  2  0
 40 41  1  0
 30  5  1  0
 41 32  1  0
 17  8  1  0
 29 20  1  0
 40 35  1  0
 16 11  1  0
 28 23  1  0
  1 42  1  0
  1 43  1  0
  2 44  1  1
  3 45  1  0
  3 46  1  0
  4 47  1  0
  9 48  1  0
  9 49  1  0
 10 50  1  0
 10 51  1  0
 12 52  1  0
 13 53  1  0
 14 54  1  0
 15 55  1  0
 17 56  1  0
 17 57  1  0
 21 58  1  0
 21 59  1  0
 22 60  1  0
 22 61  1  0
 24 62  1  0
 25 63  1  0
 26 64  1  0
 27 65  1  0
 29 66  1  0
 29 67  1  0
 31 68  1  0
 31 69  1  0
 33 70  1  0
 33 71  1  0
 34 72  1  0
 34 73  1  0
 36 74  1  0
 37 75  1  0
 38 76  1  0
 39 77  1  0
 41 78  1  0
 41 79  1  0
M  END
>  <smiles>  (81) 
NC(CNc1nc(N2CCc3ccccc3C2)nc(N2CCc3ccccc3C2)n1)CN1CCc2ccccc2C1

>  <score_type>  (81) 
oracle

>  <origin>  (81) 
autodockgpu

>  <m_score__min__energy>  (81) 
-11.49

>  <m_primary>  (81) 
energy

>  <rmsd>  (81) 
9.950318646213713

>  <m_score__min__rmsd>  (81) 
9.950318646213713

>  <meeko>  (81) 
{"free_energy": -10.85, "intermolecular_energy": -13.23, "internal_energy": -2.54, "cluster_size": 16, "cluster_id": 1, "rank_in_cluster": 11}

>  <energy>  (81) 
-8.89

>  <cluster_rmsd>  (81) 
1.27

>  <cluster>  (81) 
4

$$$$

     RDKit          3D

 79 85  0  0  1  0  0  0  0  0999 V2000
  143.7260   76.3820  219.8130 N   0  0  0  0  0  0  0  0  0  0  0  0
  143.4540   76.0820  218.4240 C   0  0  1  0  0  0  0  0  0  0  0  0
  143.0830   74.6410  218.2240 C   0  0  0  0  0  0  0  0  0  0  0  0
  141.6520   74.5030  218.3840 N   0  0  0  0  0  0  0  0  0  0  0  0
  141.1430   74.4880  219.7300 C   0  0  0  0  0  0  0  0  0  0  0  0
  140.8510   73.3240  220.3610 N   0  0  0  0  0  0  0  0  0  0  0  0
  140.3730   73.2930  221.6170 C   0  0  0  0  0  0  0  0  0  0  0  0
  140.0610   72.0800  222.2950 N   0  0  0  0  0  0  0  0  0  0  0  0
  138.9730   71.2340  221.8370 C   0  0  0  0  0  0  0  0  0  0  0  0
  137.9430   71.2820  222.9570 C   0  0  0  0  0  0  0  0  0  0  0  0
  138.6090   70.6170  224.1260 C   0  0  0  0  0  0  0  0  0  0  0  0
  137.8340   69.8230  224.9680 C   0  0  0  0  0  0  0  0  0  0  0  0
  138.4760   69.2180  226.0420 C   0  0  0  0  0  0  0  0  0  0  0  0
  139.8250   69.3930  226.2710 C   0  0  0  0  0  0  0  0  0  0  0  0
  140.5940   70.1890  225.4230 C   0  0  0  0  0  0  0  0  0  0  0  0
  139.9590   70.7890  224.3560 C   0  0  0  0  0  0  0  0  0  0  0  0
  140.8070   71.6390  223.4580 C   0  0  0  0  0  0  0  0  0  0  0  0
  140.1870   74.4620  222.2520 N   0  0  0  0  0  0  0  0  0  0  0  0
  140.4590   75.6620  221.6790 C   0  0  0  0  0  0  0  0  0  0  0  0
  140.2400   76.8680  222.4040 N   0  0  0  0  0  0  0  0  0  0  0  0
  138.9420   77.4630  222.4160 C   0  0  0  0  0  0  0  0  0  0  0  0
  138.8660   78.8260  222.9840 C   0  0  0  0  0  0  0  0  0  0  0  0
  140.1230   79.5880  222.8480 C   0  0  0  0  0  0  0  0  0  0  0  0
  140.1410   80.9470  222.6550 C   0  0  0  0  0  0  0  0  0  0  0  0
  141.3330   81.6470  222.5300 C   0  0  0  0  0  0  0  0  0  0  0  0
  142.5650   81.0140  222.5950 C   0  0  0  0  0  0  0  0  0  0  0  0
  142.5470   79.6470  222.7900 C   0  0  0  0  0  0  0  0  0  0  0  0
  141.3680   78.9550  222.9120 C   0  0  0  0  0  0  0  0  0  0  0  0
  141.3320   77.4860  223.1200 C   0  0  0  0  0  0  0  0  0  0  0  0
  140.9320   75.6250  220.4260 N   0  0  0  0  0  0  0  0  0  0  0  0
  142.2990   76.9450  217.9720 C   0  0  0  0  0  0  0  0  0  0  0  0
  142.5140   78.2780  218.5480 N   0  0  0  0  0  0  0  0  0  0  0  0
  141.5610   78.4590  219.5950 C   0  0  0  0  0  0  0  0  0  0  0  0
  140.3840   79.2900  219.0990 C   0  0  0  0  0  0  0  0  0  0  0  0
  140.9750   80.6470  218.8190 C   0  0  0  0  0  0  0  0  0  0  0  0
  140.4390   81.8020  219.3300 C   0  0  0  0  0  0  0  0  0  0  0  0
  141.0800   82.9860  218.9970 C   0  0  0  0  0  0  0  0  0  0  0  0
  142.2130   82.9780  218.1800 C   0  0  0  0  0  0  0  0  0  0  0  0
  142.7290   81.7970  217.6810 C   0  0  0  0  0  0  0  0  0  0  0  0
  142.1050   80.6300  218.0040 C   0  0  0  0  0  0  0  0  0  0  0  0
  142.5450   79.2850  217.5400 C   0  0  0  0  0  0  0  0  0  0  0  0
  143.9130   77.3850  219.9740 H   0  0  0  0  0  0  0  0  0  0  0  0
  143.0640   75.9450  220.4680 H   0  0  0  0  0  0  0  0  0  0  0  0
  144.3647   76.2825  217.8405 H   0  0  0  0  0  0  0  0  0  0  0  0
  143.3748   74.3207  217.2129 H   0  0  0  0  0  0  0  0  0  0  0  0
  143.6044   74.0142  218.9624 H   0  0  0  0  0  0  0  0  0  0  0  0
  140.9670   74.4180  217.6250 H   0  0  0  0  0  0  0  0  0  0  0  0
  138.5462   71.6246  220.9014 H   0  0  0  0  0  0  0  0  0  0  0  0
  139.3070   70.2077  221.6246 H   0  0  0  0  0  0  0  0  0  0  0  0
  137.6845   72.3232  223.2002 H   0  0  0  0  0  0  0  0  0  0  0  0
  137.0043   70.7817  222.6768 H   0  0  0  0  0  0  0  0  0  0  0  0
  136.7578   69.6806  224.7902 H   0  0  0  0  0  0  0  0  0  0  0  0
  137.8938   68.5837  226.7266 H   0  0  0  0  0  0  0  0  0  0  0  0
  140.2992   68.8992  227.1320 H   0  0  0  0  0  0  0  0  0  0  0  0
  141.6702   70.3334  225.5991 H   0  0  0  0  0  0  0  0  0  0  0  0
  141.1515   72.5204  224.0187 H   0  0  0  0  0  0  0  0  0  0  0  0
  141.6625   71.0382  223.1157 H   0  0  0  0  0  0  0  0  0  0  0  0
  138.5819   77.5092  221.3776 H   0  0  0  0  0  0  0  0  0  0  0  0
  138.3283   76.8298  223.0736 H   0  0  0  0  0  0  0  0  0  0  0  0
  138.0669   79.3759  222.4654 H   0  0  0  0  0  0  0  0  0  0  0  0
  138.6656   78.7189  224.0603 H   0  0  0  0  0  0  0  0  0  0  0  0
  139.1884   81.4941  222.5981 H   0  0  0  0  0  0  0  0  0  0  0  0
  141.2994   82.7355  222.3749 H   0  0  0  0  0  0  0  0  0  0  0  0
  143.5079   81.5719  222.4963 H   0  0  0  0  0  0  0  0  0  0  0  0
  143.4996   79.1001  222.8489 H   0  0  0  0  0  0  0  0  0  0  0  0
  142.2795   77.0533  222.7664 H   0  0  0  0  0  0  0  0  0  0  0  0
  141.1865   77.2968  224.1938 H   0  0  0  0  0  0  0  0  0  0  0  0
  142.2789   77.0058  216.8739 H   0  0  0  0  0  0  0  0  0  0  0  0
  141.3384   76.5229  218.3022 H   0  0  0  0  0  0  0  0  0  0  0  0
  141.1967   77.4761  219.9283 H   0  0  0  0  0  0  0  0  0  0  0  0
  142.0436   78.9849  220.4320 H   0  0  0  0  0  0  0  0  0  0  0  0
  139.9584   78.8543  218.1830 H   0  0  0  0  0  0  0  0  0  0  0  0
  139.5633   79.3329  219.8302 H   0  0  0  0  0  0  0  0  0  0  0  0
  139.5456   81.7896  219.9717 H   0  0  0  0  0  0  0  0  0  0  0  0
  140.6921   83.9413  219.3803 H   0  0  0  0  0  0  0  0  0  0  0  0
  142.7039   83.9299  217.9290 H   0  0  0  0  0  0  0  0  0  0  0  0
  143.6219   81.7993  217.0386 H   0  0  0  0  0  0  0  0  0  0  0  0
  141.8843   78.9707  216.7186 H   0  0  0  0  0  0  0  0  0  0  0  0
  143.5951   79.3870  217.2287 H   0  0  0  0  0  0  0  0  0  0  0  0
  1  2  1  0
  2  3  1  0
  3  4  1  0
  4  5  1  0
  5  6  2  0
  6  7  1  0
  7  8  1  0
  8  9  1  0
  9 10  1  0
 10 11  1  0
 11 12  2  0
 12 13  1  0
 13 14  2  0
 14 15  1  0
 15 16  2  0
 16 17  1  0
  7 18  2  0
 18 19  1  0
 19 20  1  0
 20 21  1  0
 21 22  1  0
 22 23  1  0
 23 24  2  0
 24 25  1  0
 25 26  2  0
 26 27  1  0
 27 28  2  0
 28 29  1  0
 19 30  2  0
  2 31  1  0
 31 32  1  0
 32 33  1  0
 33 34  1  0
 34 35  1  0
 35 36  2  0
 36 37  1  0
 37 38  2  0
 38 39  1  0
 39 40  2  0
 40 41  1  0
 30  5  1  0
 41 32  1  0
 17  8  1  0
 29 20  1  0
 40 35  1  0
 16 11  1  0
 28 23  1  0
  1 42  1  0
  1 43  1  0
  2 44  1  6
  3 45  1  0
  3 46  1  0
  4 47  1  0
  9 48  1  0
  9 49  1  0
 10 50  1  0
 10 51  1  0
 12 52  1  0
 13 53  1  0
 14 54  1  0
 15 55  1  0
 17 56  1  0
 17 57  1  0
 21 58  1  0
 21 59  1  0
 22 60  1  0
 22 61  1  0
 24 62  1  0
 25 63  1  0
 26 64  1  0
 27 65  1  0
 29 66  1  0
 29 67  1  0
 31 68  1  0
 31 69  1  0
 33 70  1  0
 33 71  1  0
 34 72  1  0
 34 73  1  0
 36 74  1  0
 37 75  1  0
 38 76  1  0
 39 77  1  0
 41 78  1  0
 41 79  1  0
M  END
>  <smiles>  (82) 
NC(CNc1nc(N2CCc3ccccc3C2)nc(N2CCc3ccccc3C2)n1)CN1CCc2ccccc2C1

>  <score_type>  (82) 
oracle

>  <origin>  (82) 
autodockgpu

>  <m_score__min__energy>  (82) 
-11.49

>  <m_primary>  (82) 
energy

>  <rmsd>  (82) 
11.983068113128901

>  <m_score__min__rmsd>  (82) 
11.983068113128901

>  <meeko>  (82) 
{"free_energy": -9.26, "intermolecular_energy": -11.65, "internal_energy": -4.26, "cluster_size": 2, "cluster_id": 8, "rank_in_cluster": 1}

>  <energy>  (82) 
-8.8

>  <cluster_rmsd>  (82) 
1.25

>  <cluster>  (82) 
4

$$$$

     RDKit          3D

 79 85  0  0  1  0  0  0  0  0999 V2000
  136.9700   71.7850  223.4550 N   0  0  0  0  0  0  0  0  0  0  0  0
  137.6110   71.2790  222.2610 C   0  0  1  0  0  0  0  0  0  0  0  0
  137.9440   72.3790  221.2940 C   0  0  0  0  0  0  0  0  0  0  0  0
  138.3120   73.5600  222.0440 N   0  0  0  0  0  0  0  0  0  0  0  0
  139.6230   74.1030  221.8090 C   0  0  0  0  0  0  0  0  0  0  0  0
  140.6650   73.3070  221.4630 N   0  0  0  0  0  0  0  0  0  0  0  0
  141.8960   73.7980  221.2410 C   0  0  0  0  0  0  0  0  0  0  0  0
  143.0020   72.9770  220.8770 N   0  0  0  0  0  0  0  0  0  0  0  0
  144.2980   73.5660  220.5890 C   0  0  0  0  0  0  0  0  0  0  0  0
  144.5310   73.2910  219.1090 C   0  0  0  0  0  0  0  0  0  0  0  0
  144.6480   71.7980  219.0040 C   0  0  0  0  0  0  0  0  0  0  0  0
  145.5580   71.2660  218.0960 C   0  0  0  0  0  0  0  0  0  0  0  0
  145.6460   69.8810  218.0190 C   0  0  0  0  0  0  0  0  0  0  0  0
  144.8660   69.0610  218.8090 C   0  0  0  0  0  0  0  0  0  0  0  0
  143.9570   69.6030  219.7170 C   0  0  0  0  0  0  0  0  0  0  0  0
  143.8690   70.9770  219.7940 C   0  0  0  0  0  0  0  0  0  0  0  0
  142.8850   71.5350  220.7780 C   0  0  0  0  0  0  0  0  0  0  0  0
  142.0810   75.1220  221.3710 N   0  0  0  0  0  0  0  0  0  0  0  0
  141.0830   75.9740  221.7150 C   0  0  0  0  0  0  0  0  0  0  0  0
  141.3420   77.3700  221.8370 N   0  0  0  0  0  0  0  0  0  0  0  0
  141.1070   78.0280  223.0810 C   0  0  0  0  0  0  0  0  0  0  0  0
  141.1700   79.5050  223.0480 C   0  0  0  0  0  0  0  0  0  0  0  0
  140.8220   80.0770  221.7310 C   0  0  0  0  0  0  0  0  0  0  0  0
  140.1750   81.2800  221.6000 C   0  0  0  0  0  0  0  0  0  0  0  0
  139.8570   81.8020  220.3540 C   0  0  0  0  0  0  0  0  0  0  0  0
  140.1750   81.1390  219.1790 C   0  0  0  0  0  0  0  0  0  0  0  0
  140.8270   79.9290  219.3110 C   0  0  0  0  0  0  0  0  0  0  0  0
  141.1400   79.4120  220.5430 C   0  0  0  0  0  0  0  0  0  0  0  0
  141.8390   78.1120  220.7010 C   0  0  0  0  0  0  0  0  0  0  0  0
  139.8800   75.4220  221.9220 N   0  0  0  0  0  0  0  0  0  0  0  0
  138.8920   70.5890  222.6680 C   0  0  0  0  0  0  0  0  0  0  0  0
  138.8470   70.4380  224.1280 N   0  0  0  0  0  0  0  0  0  0  0  0
  139.6010   71.5060  224.6990 C   0  0  0  0  0  0  0  0  0  0  0  0
  140.9950   71.0220  225.0820 C   0  0  0  0  0  0  0  0  0  0  0  0
  140.7560   70.0270  226.1870 C   0  0  0  0  0  0  0  0  0  0  0  0
  141.4080   70.0960  227.3920 C   0  0  0  0  0  0  0  0  0  0  0  0
  141.0960   69.1200  228.3260 C   0  0  0  0  0  0  0  0  0  0  0  0
  140.1600   68.1240  228.0320 C   0  0  0  0  0  0  0  0  0  0  0  0
  139.5190   68.0830  226.8080 C   0  0  0  0  0  0  0  0  0  0  0  0
  139.8210   69.0390  225.8860 C   0  0  0  0  0  0  0  0  0  0  0  0
  139.2120   69.1200  224.5280 C   0  0  0  0  0  0  0  0  0  0  0  0
  136.7580   71.0400  224.1380 H   0  0  0  0  0  0  0  0  0  0  0  0
  137.4190   72.6250  223.8410 H   0  0  0  0  0  0  0  0  0  0  0  0
  136.9174   70.5865  221.7617 H   0  0  0  0  0  0  0  0  0  0  0  0
  138.7846   72.0689  220.6558 H   0  0  0  0  0  0  0  0  0  0  0  0
  137.0731   72.5952  220.6578 H   0  0  0  0  0  0  0  0  0  0  0  0
  137.7200   74.0470  222.7280 H   0  0  0  0  0  0  0  0  0  0  0  0
  144.2836   74.6484  220.7843 H   0  0  0  0  0  0  0  0  0  0  0  0
  145.0946   73.1447  221.2198 H   0  0  0  0  0  0  0  0  0  0  0  0
  143.6833   73.6553  218.5101 H   0  0  0  0  0  0  0  0  0  0  0  0
  145.4279   73.8030  218.7302 H   0  0  0  0  0  0  0  0  0  0  0  0
  146.1825   71.9151  217.4646 H   0  0  0  0  0  0  0  0  0  0  0  0
  146.3549   69.4272  217.3108 H   0  0  0  0  0  0  0  0  0  0  0  0
  144.9624   67.9687  218.7215 H   0  0  0  0  0  0  0  0  0  0  0  0
  143.3315   68.9566  220.3502 H   0  0  0  0  0  0  0  0  0  0  0  0
  141.8663   71.2794  220.4509 H   0  0  0  0  0  0  0  0  0  0  0  0
  143.0959   71.1000  221.7661 H   0  0  0  0  0  0  0  0  0  0  0  0
  140.1047   77.7404  223.4312 H   0  0  0  0  0  0  0  0  0  0  0  0
  141.9217   77.7083  223.7474 H   0  0  0  0  0  0  0  0  0  0  0  0
  140.4681   79.9009  223.7968 H   0  0  0  0  0  0  0  0  0  0  0  0
  142.2104   79.7909  223.2620 H   0  0  0  0  0  0  0  0  0  0  0  0
  139.9019   81.8440  222.5041 H   0  0  0  0  0  0  0  0  0  0  0  0
  139.3375   82.7699  220.2972 H   0  0  0  0  0  0  0  0  0  0  0  0
  139.9212   81.5551  218.1929 H   0  0  0  0  0  0  0  0  0  0  0  0
  141.1021   79.3660  218.4069 H   0  0  0  0  0  0  0  0  0  0  0  0
  141.6874   77.5133  219.7907 H   0  0  0  0  0  0  0  0  0  0  0  0
  142.9071   78.3161  220.8667 H   0  0  0  0  0  0  0  0  0  0  0  0
  138.9598   69.6020  222.1871 H   0  0  0  0  0  0  0  0  0  0  0  0
  139.7709   71.1736  222.3585 H   0  0  0  0  0  0  0  0  0  0  0  0
  139.6884   72.3213  223.9658 H   0  0  0  0  0  0  0  0  0  0  0  0
  139.0859   71.8657  225.6019 H   0  0  0  0  0  0  0  0  0  0  0  0
  141.4890   70.5407  224.2250 H   0  0  0  0  0  0  0  0  0  0  0  0
  141.6534   71.8458  225.3949 H   0  0  0  0  0  0  0  0  0  0  0  0
  142.1421   70.8866  227.6066 H   0  0  0  0  0  0  0  0  0  0  0  0
  141.5901   69.1294  229.3087 H   0  0  0  0  0  0  0  0  0  0  0  0
  139.9295   67.3592  228.7883 H   0  0  0  0  0  0  0  0  0  0  0  0
  138.7826   67.2971  226.5839 H   0  0  0  0  0  0  0  0  0  0  0  0
  139.9380   68.7276  223.8007 H   0  0  0  0  0  0  0  0  0  0  0  0
  138.2829   68.5322  224.5633 H   0  0  0  0  0  0  0  0  0  0  0  0
  1  2  1  0
  2  3  1  0
  3  4  1  0
  4  5  1  0
  5  6  2  0
  6  7  1  0
  7  8  1  0
  8  9  1  0
  9 10  1  0
 10 11  1  0
 11 12  2  0
 12 13  1  0
 13 14  2  0
 14 15  1  0
 15 16  2  0
 16 17  1  0
  7 18  2  0
 18 19  1  0
 19 20  1  0
 20 21  1  0
 21 22  1  0
 22 23  1  0
 23 24  2  0
 24 25  1  0
 25 26  2  0
 26 27  1  0
 27 28  2  0
 28 29  1  0
 19 30  2  0
  2 31  1  0
 31 32  1  0
 32 33  1  0
 33 34  1  0
 34 35  1  0
 35 36  2  0
 36 37  1  0
 37 38  2  0
 38 39  1  0
 39 40  2  0
 40 41  1  0
 30  5  1  0
 41 32  1  0
 17  8  1  0
 29 20  1  0
 40 35  1  0
 16 11  1  0
 28 23  1  0
  1 42  1  0
  1 43  1  0
  2 44  1  6
  3 45  1  0
  3 46  1  0
  4 47  1  0
  9 48  1  0
  9 49  1  0
 10 50  1  0
 10 51  1  0
 12 52  1  0
 13 53  1  0
 14 54  1  0
 15 55  1  0
 17 56  1  0
 17 57  1  0
 21 58  1  0
 21 59  1  0
 22 60  1  0
 22 61  1  0
 24 62  1  0
 25 63  1  0
 26 64  1  0
 27 65  1  0
 29 66  1  0
 29 67  1  0
 31 68  1  0
 31 69  1  0
 33 70  1  0
 33 71  1  0
 34 72  1  0
 34 73  1  0
 36 74  1  0
 37 75  1  0
 38 76  1  0
 39 77  1  0
 41 78  1  0
 41 79  1  0
M  END
>  <smiles>  (83) 
NC(CNc1nc(N2CCc3ccccc3C2)nc(N2CCc3ccccc3C2)n1)CN1CCc2ccccc2C1

>  <score_type>  (83) 
oracle

>  <origin>  (83) 
autodockgpu

>  <m_score__min__energy>  (83) 
-11.49

>  <m_primary>  (83) 
energy

>  <rmsd>  (83) 
3.678822192458355

>  <m_score__min__rmsd>  (83) 
3.678822192458355

>  <meeko>  (83) 
{"free_energy": -9.73, "intermolecular_energy": -12.12, "internal_energy": -2.73, "cluster_size": 9, "cluster_id": 2, "rank_in_cluster": 8}

>  <energy>  (83) 
-8.75

>  <cluster_rmsd>  (83) 
1.42

>  <cluster>  (83) 
4

$$$$

     RDKit          3D

 79 85  0  0  1  0  0  0  0  0999 V2000
  136.7340   71.1460  222.6190 N   0  0  0  0  0  0  0  0  0  0  0  0
  137.6310   70.4490  221.7240 C   0  0  1  0  0  0  0  0  0  0  0  0
  138.3920   71.3960  220.8420 C   0  0  0  0  0  0  0  0  0  0  0  0
  138.2120   72.7420  221.3430 N   0  0  0  0  0  0  0  0  0  0  0  0
  139.3860   73.5690  221.4330 C   0  0  0  0  0  0  0  0  0  0  0  0
  139.3120   74.8550  221.8570 N   0  0  0  0  0  0  0  0  0  0  0  0
  140.3980   75.6410  221.9450 C   0  0  0  0  0  0  0  0  0  0  0  0
  140.3400   76.9940  222.3890 N   0  0  0  0  0  0  0  0  0  0  0  0
  139.1630   77.8050  222.1340 C   0  0  0  0  0  0  0  0  0  0  0  0
  139.6390   78.8950  221.1830 C   0  0  0  0  0  0  0  0  0  0  0  0
  140.6190   79.7060  221.9790 C   0  0  0  0  0  0  0  0  0  0  0  0
  140.6530   81.0840  221.7840 C   0  0  0  0  0  0  0  0  0  0  0  0
  141.5700   81.8110  222.5350 C   0  0  0  0  0  0  0  0  0  0  0  0
  142.4140   81.1980  223.4390 C   0  0  0  0  0  0  0  0  0  0  0  0
  142.3720   79.8170  223.6280 C   0  0  0  0  0  0  0  0  0  0  0  0
  141.4630   79.0950  222.8840 C   0  0  0  0  0  0  0  0  0  0  0  0
  141.4380   77.6120  223.1060 C   0  0  0  0  0  0  0  0  0  0  0  0
  141.5870   75.1190  221.5980 N   0  0  0  0  0  0  0  0  0  0  0  0
  141.7310   73.8410  221.1660 C   0  0  0  0  0  0  0  0  0  0  0  0
  143.0180   73.3450  220.8120 N   0  0  0  0  0  0  0  0  0  0  0  0
  143.9400   74.1900  220.1250 C   0  0  0  0  0  0  0  0  0  0  0  0
  145.1460   73.5230  219.5880 C   0  0  0  0  0  0  0  0  0  0  0  0
  144.9310   72.0980  219.2640 C   0  0  0  0  0  0  0  0  0  0  0  0
  145.5660   71.4800  218.2160 C   0  0  0  0  0  0  0  0  0  0  0  0
  145.3530   70.1390  217.9270 C   0  0  0  0  0  0  0  0  0  0  0  0
  144.4900   69.3560  218.6780 C   0  0  0  0  0  0  0  0  0  0  0  0
  143.8520   69.9780  219.7330 C   0  0  0  0  0  0  0  0  0  0  0  0
  144.0620   71.3040  220.0180 C   0  0  0  0  0  0  0  0  0  0  0  0
  143.3830   71.9870  221.1460 C   0  0  0  0  0  0  0  0  0  0  0  0
  140.6100   73.1090  221.1000 N   0  0  0  0  0  0  0  0  0  0  0  0
  138.6180   69.6670  222.5580 C   0  0  0  0  0  0  0  0  0  0  0  0
  138.6210   70.2760  223.8940 N   0  0  0  0  0  0  0  0  0  0  0  0
  139.3320   71.5100  223.8080 C   0  0  0  0  0  0  0  0  0  0  0  0
  140.7600   71.3340  224.3120 C   0  0  0  0  0  0  0  0  0  0  0  0
  140.6050   71.0300  225.7780 C   0  0  0  0  0  0  0  0  0  0  0  0
  141.2850   71.7220  226.7480 C   0  0  0  0  0  0  0  0  0  0  0  0
  141.0520   71.3450  228.0620 C   0  0  0  0  0  0  0  0  0  0  0  0
  140.1630   70.3080  228.3600 C   0  0  0  0  0  0  0  0  0  0  0  0
  139.4930   69.6300  227.3590 C   0  0  0  0  0  0  0  0  0  0  0  0
  139.7170   69.9950  226.0660 C   0  0  0  0  0  0  0  0  0  0  0  0
  139.0680   69.3560  224.8870 C   0  0  0  0  0  0  0  0  0  0  0  0
  136.0600   70.5130  223.0780 H   0  0  0  0  0  0  0  0  0  0  0  0
  137.2070   71.8140  223.2410 H   0  0  0  0  0  0  0  0  0  0  0  0
  137.0327   69.7900  221.0776 H   0  0  0  0  0  0  0  0  0  0  0  0
  139.4608   71.1360  220.8547 H   0  0  0  0  0  0  0  0  0  0  0  0
  138.0201   71.3274  219.8091 H   0  0  0  0  0  0  0  0  0  0  0  0
  137.3220   73.1600  221.6370 H   0  0  0  0  0  0  0  0  0  0  0  0
  138.3709   77.2018  221.6664 H   0  0  0  0  0  0  0  0  0  0  0  0
  138.7362   78.2192  223.0594 H   0  0  0  0  0  0  0  0  0  0  0  0
  140.1283   78.4530  220.3026 H   0  0  0  0  0  0  0  0  0  0  0  0
  138.8060   79.5072  220.8069 H   0  0  0  0  0  0  0  0  0  0  0  0
  139.9821   81.5774  221.0654 H   0  0  0  0  0  0  0  0  0  0  0  0
  141.6242   82.9020  222.4055 H   0  0  0  0  0  0  0  0  0  0  0  0
  143.1270   81.8050  224.0162 H   0  0  0  0  0  0  0  0  0  0  0  0
  143.0412   79.3206  224.3462 H   0  0  0  0  0  0  0  0  0  0  0  0
  142.3859   77.1801  222.7525 H   0  0  0  0  0  0  0  0  0  0  0  0
  141.3031   77.4225  224.1811 H   0  0  0  0  0  0  0  0  0  0  0  0
  143.4080   74.6555  219.2822 H   0  0  0  0  0  0  0  0  0  0  0  0
  144.3040   74.9077  220.8749 H   0  0  0  0  0  0  0  0  0  0  0  0
  145.4554   74.0465  218.6714 H   0  0  0  0  0  0  0  0  0  0  0  0
  145.9176   73.5660  220.3708 H   0  0  0  0  0  0  0  0  0  0  0  0
  146.2599   72.0607  217.5905 H   0  0  0  0  0  0  0  0  0  0  0  0
  145.8843   69.6847  217.0777 H   0  0  0  0  0  0  0  0  0  0  0  0
  144.3221   68.2940  218.4455 H   0  0  0  0  0  0  0  0  0  0  0  0
  143.1593   69.3971  220.3596 H   0  0  0  0  0  0  0  0  0  0  0  0
  142.4721   71.4271  221.4044 H   0  0  0  0  0  0  0  0  0  0  0  0
  144.0817   72.0205  221.9949 H   0  0  0  0  0  0  0  0  0  0  0  0
  138.3081   68.6136  222.6228 H   0  0  0  0  0  0  0  0  0  0  0  0
  139.6221   69.6941  222.1097 H   0  0  0  0  0  0  0  0  0  0  0  0
  139.3555   71.8430  222.7599 H   0  0  0  0  0  0  0  0  0  0  0  0
  138.8228   72.2605  224.4304 H   0  0  0  0  0  0  0  0  0  0  0  0
  141.2563   70.5013  223.7922 H   0  0  0  0  0  0  0  0  0  0  0  0
  141.3808   72.2240  224.1318 H   0  0  0  0  0  0  0  0  0  0  0  0
  141.9808   72.5358  226.4958 H   0  0  0  0  0  0  0  0  0  0  0  0
  141.5721   71.8674  228.8784 H   0  0  0  0  0  0  0  0  0  0  0  0
  139.9937   70.0266  229.4098 H   0  0  0  0  0  0  0  0  0  0  0  0
  138.7952   68.8148  227.6009 H   0  0  0  0  0  0  0  0  0  0  0  0
  139.7941   68.6729  224.4220 H   0  0  0  0  0  0  0  0  0  0  0  0
  138.1733   68.8375  225.2621 H   0  0  0  0  0  0  0  0  0  0  0  0
  1  2  1  0
  2  3  1  0
  3  4  1  0
  4  5  1  0
  5  6  2  0
  6  7  1  0
  7  8  1  0
  8  9  1  0
  9 10  1  0
 10 11  1  0
 11 12  2  0
 12 13  1  0
 13 14  2  0
 14 15  1  0
 15 16  2  0
 16 17  1  0
  7 18  2  0
 18 19  1  0
 19 20  1  0
 20 21  1  0
 21 22  1  0
 22 23  1  0
 23 24  2  0
 24 25  1  0
 25 26  2  0
 26 27  1  0
 27 28  2  0
 28 29  1  0
 19 30  2  0
  2 31  1  0
 31 32  1  0
 32 33  1  0
 33 34  1  0
 34 35  1  0
 35 36  2  0
 36 37  1  0
 37 38  2  0
 38 39  1  0
 39 40  2  0
 40 41  1  0
 30  5  1  0
 41 32  1  0
 17  8  1  0
 29 20  1  0
 40 35  1  0
 16 11  1  0
 28 23  1  0
  1 42  1  0
  1 43  1  0
  2 44  1  6
  3 45  1  0
  3 46  1  0
  4 47  1  0
  9 48  1  0
  9 49  1  0
 10 50  1  0
 10 51  1  0
 12 52  1  0
 13 53  1  0
 14 54  1  0
 15 55  1  0
 17 56  1  0
 17 57  1  0
 21 58  1  0
 21 59  1  0
 22 60  1  0
 22 61  1  0
 24 62  1  0
 25 63  1  0
 26 64  1  0
 27 65  1  0
 29 66  1  0
 29 67  1  0
 31 68  1  0
 31 69  1  0
 33 70  1  0
 33 71  1  0
 34 72  1  0
 34 73  1  0
 36 74  1  0
 37 75  1  0
 38 76  1  0
 39 77  1  0
 41 78  1  0
 41 79  1  0
M  END
>  <smiles>  (84) 
NC(CNc1nc(N2CCc3ccccc3C2)nc(N2CCc3ccccc3C2)n1)CN1CCc2ccccc2C1

>  <score_type>  (84) 
oracle

>  <origin>  (84) 
autodockgpu

>  <m_score__min__energy>  (84) 
-11.49

>  <m_primary>  (84) 
energy

>  <rmsd>  (84) 
4.358612522607776

>  <m_score__min__rmsd>  (84) 
4.358612522607776

>  <meeko>  (84) 
{"free_energy": -9.9, "intermolecular_energy": -12.28, "internal_energy": -2.86, "cluster_size": 9, "cluster_id": 2, "rank_in_cluster": 5}

>  <energy>  (84) 
-8.73

>  <cluster_rmsd>  (84) 
1.41

>  <cluster>  (84) 
4

$$$$

     RDKit          3D

 79 85  0  0  1  0  0  0  0  0999 V2000
  137.4220   76.3670  219.9910 N   0  0  0  0  0  0  0  0  0  0  0  0
  136.3770   76.7470  220.9170 C   0  0  1  0  0  0  0  0  0  0  0  0
  136.1470   75.6950  221.9650 C   0  0  0  0  0  0  0  0  0  0  0  0
  136.5820   74.4180  221.4430 N   0  0  0  0  0  0  0  0  0  0  0  0
  137.9560   74.0550  221.6650 C   0  0  0  0  0  0  0  0  0  0  0  0
  138.2880   72.9440  222.3680 N   0  0  0  0  0  0  0  0  0  0  0  0
  139.5670   72.5910  222.5850 C   0  0  0  0  0  0  0  0  0  0  0  0
  139.9340   71.4280  223.3210 N   0  0  0  0  0  0  0  0  0  0  0  0
  139.5940   70.1050  222.8300 C   0  0  0  0  0  0  0  0  0  0  0  0
  138.6010   69.5550  223.8460 C   0  0  0  0  0  0  0  0  0  0  0  0
  139.3860   69.4090  225.1170 C   0  0  0  0  0  0  0  0  0  0  0  0
  139.1170   68.3200  225.9420 C   0  0  0  0  0  0  0  0  0  0  0  0
  139.8590   68.2100  227.1130 C   0  0  0  0  0  0  0  0  0  0  0  0
  140.8230   69.1370  227.4500 C   0  0  0  0  0  0  0  0  0  0  0  0
  141.0870   70.2240  226.6170 C   0  0  0  0  0  0  0  0  0  0  0  0
  140.3520   70.3350  225.4550 C   0  0  0  0  0  0  0  0  0  0  0  0
  140.6540   71.5130  224.5770 C   0  0  0  0  0  0  0  0  0  0  0  0
  140.5330   73.3770  222.0800 N   0  0  0  0  0  0  0  0  0  0  0  0
  140.2710   74.5010  221.3680 C   0  0  0  0  0  0  0  0  0  0  0  0
  141.3400   75.2930  220.8590 N   0  0  0  0  0  0  0  0  0  0  0  0
  141.1960   76.7110  220.7780 C   0  0  0  0  0  0  0  0  0  0  0  0
  142.2480   77.4210  220.0200 C   0  0  0  0  0  0  0  0  0  0  0  0
  142.8730   76.5920  218.9700 C   0  0  0  0  0  0  0  0  0  0  0  0
  143.3150   77.1210  217.7830 C   0  0  0  0  0  0  0  0  0  0  0  0
  143.9010   76.3270  216.8070 C   0  0  0  0  0  0  0  0  0  0  0  0
  144.0710   74.9610  216.9790 C   0  0  0  0  0  0  0  0  0  0  0  0
  143.6270   74.4300  218.1730 C   0  0  0  0  0  0  0  0  0  0  0  0
  143.0470   75.2150  219.1370 C   0  0  0  0  0  0  0  0  0  0  0  0
  142.5630   74.6590  220.4250 C   0  0  0  0  0  0  0  0  0  0  0  0
  138.9760   74.7970  221.1870 N   0  0  0  0  0  0  0  0  0  0  0  0
  136.7940   78.0270  221.6020 C   0  0  0  0  0  0  0  0  0  0  0  0
  138.2530   78.1200  221.4760 N   0  0  0  0  0  0  0  0  0  0  0  0
  138.8230   77.7440  222.7280 C   0  0  0  0  0  0  0  0  0  0  0  0
  139.2040   78.9830  223.5290 C   0  0  0  0  0  0  0  0  0  0  0  0
  140.3090   79.6220  222.7300 C   0  0  0  0  0  0  0  0  0  0  0  0
  141.5130   79.9710  223.2880 C   0  0  0  0  0  0  0  0  0  0  0  0
  142.4480   80.5490  222.4430 C   0  0  0  0  0  0  0  0  0  0  0  0
  142.1550   80.7570  221.0920 C   0  0  0  0  0  0  0  0  0  0  0  0
  140.9320   80.3930  220.5600 C   0  0  0  0  0  0  0  0  0  0  0  0
  140.0100   79.8250  221.3840 C   0  0  0  0  0  0  0  0  0  0  0  0
  138.6530   79.3850  220.9530 C   0  0  0  0  0  0  0  0  0  0  0  0
  138.3500   76.7190  220.2740 H   0  0  0  0  0  0  0  0  0  0  0  0
  137.3900   75.3770  219.7150 H   0  0  0  0  0  0  0  0  0  0  0  0
  135.4420   76.8746  220.3517 H   0  0  0  0  0  0  0  0  0  0  0  0
  136.7231   75.9410  222.8692 H   0  0  0  0  0  0  0  0  0  0  0  0
  135.0787   75.6503  222.2232 H   0  0  0  0  0  0  0  0  0  0  0  0
  135.9980   73.7460  220.9310 H   0  0  0  0  0  0  0  0  0  0  0  0
  139.1332   70.1684  221.8332 H   0  0  0  0  0  0  0  0  0  0  0  0
  140.4797   69.4612  222.7252 H   0  0  0  0  0  0  0  0  0  0  0  0
  137.7642   70.2550  223.9867 H   0  0  0  0  0  0  0  0  0  0  0  0
  138.1620   68.6007  223.5197 H   0  0  0  0  0  0  0  0  0  0  0  0
  138.3494   67.5775  225.6784 H   0  0  0  0  0  0  0  0  0  0  0  0
  139.6722   67.3617  227.7879 H   0  0  0  0  0  0  0  0  0  0  0  0
  141.3894   69.0178  228.3854 H   0  0  0  0  0  0  0  0  0  0  0  0
  141.8549   70.9672  226.8777 H   0  0  0  0  0  0  0  0  0  0  0  0
  140.3579   72.4350  225.0988 H   0  0  0  0  0  0  0  0  0  0  0  0
  141.7326   71.5195  224.3609 H   0  0  0  0  0  0  0  0  0  0  0  0
  140.2302   76.9255  220.2972 H   0  0  0  0  0  0  0  0  0  0  0  0
  141.2718   77.0791  221.8118 H   0  0  0  0  0  0  0  0  0  0  0  0
  141.7990   78.3057  219.5450 H   0  0  0  0  0  0  0  0  0  0  0  0
  143.0388   77.6905  220.7355 H   0  0  0  0  0  0  0  0  0  0  0  0
  143.2021   78.1999  217.6010 H   0  0  0  0  0  0  0  0  0  0  0  0
  144.2402   76.7941  215.8706 H   0  0  0  0  0  0  0  0  0  0  0  0
  144.5355   74.3337  216.2040 H   0  0  0  0  0  0  0  0  0  0  0  0
  143.7409   73.3513  218.3561 H   0  0  0  0  0  0  0  0  0  0  0  0
  142.3805   73.5813  220.3011 H   0  0  0  0  0  0  0  0  0  0  0  0
  143.3332   74.8453  221.1879 H   0  0  0  0  0  0  0  0  0  0  0  0
  136.3162   78.8900  221.1152 H   0  0  0  0  0  0  0  0  0  0  0  0
  136.4886   78.0265  222.6587 H   0  0  0  0  0  0  0  0  0  0  0  0
  138.0898   77.1546  223.2981 H   0  0  0  0  0  0  0  0  0  0  0  0
  139.7270   77.1449  222.5441 H   0  0  0  0  0  0  0  0  0  0  0  0
  138.3462   79.6654  223.6216 H   0  0  0  0  0  0  0  0  0  0  0  0
  139.5165   78.7386  224.5550 H   0  0  0  0  0  0  0  0  0  0  0  0
  141.7260   79.8005  224.3536 H   0  0  0  0  0  0  0  0  0  0  0  0
  143.4299   80.8468  222.8395 H   0  0  0  0  0  0  0  0  0  0  0  0
  142.9114   81.2187  220.4403 H   0  0  0  0  0  0  0  0  0  0  0  0
  140.7094   80.5586  219.4956 H   0  0  0  0  0  0  0  0  0  0  0  0
  137.9248   80.1403  221.2834 H   0  0  0  0  0  0  0  0  0  0  0  0
  138.6895   79.2765  219.8590 H   0  0  0  0  0  0  0  0  0  0  0  0
  1  2  1  0
  2  3  1  0
  3  4  1  0
  4  5  1  0
  5  6  2  0
  6  7  1  0
  7  8  1  0
  8  9  1  0
  9 10  1  0
 10 11  1  0
 11 12  2  0
 12 13  1  0
 13 14  2  0
 14 15  1  0
 15 16  2  0
 16 17  1  0
  7 18  2  0
 18 19  1  0
 19 20  1  0
 20 21  1  0
 21 22  1  0
 22 23  1  0
 23 24  2  0
 24 25  1  0
 25 26  2  0
 26 27  1  0
 27 28  2  0
 28 29  1  0
 19 30  2  0
  2 31  1  0
 31 32  1  0
 32 33  1  0
 33 34  1  0
 34 35  1  0
 35 36  2  0
 36 37  1  0
 37 38  2  0
 38 39  1  0
 39 40  2  0
 40 41  1  0
 30  5  1  0
 41 32  1  0
 17  8  1  0
 29 20  1  0
 40 35  1  0
 16 11  1  0
 28 23  1  0
  1 42  1  0
  1 43  1  0
  2 44  1  6
  3 45  1  0
  3 46  1  0
  4 47  1  0
  9 48  1  0
  9 49  1  0
 10 50  1  0
 10 51  1  0
 12 52  1  0
 13 53  1  0
 14 54  1  0
 15 55  1  0
 17 56  1  0
 17 57  1  0
 21 58  1  0
 21 59  1  0
 22 60  1  0
 22 61  1  0
 24 62  1  0
 25 63  1  0
 26 64  1  0
 27 65  1  0
 29 66  1  0
 29 67  1  0
 31 68  1  0
 31 69  1  0
 33 70  1  0
 33 71  1  0
 34 72  1  0
 34 73  1  0
 36 74  1  0
 37 75  1  0
 38 76  1  0
 39 77  1  0
 41 78  1  0
 41 79  1  0
M  END
>  <smiles>  (85) 
NC(CNc1nc(N2CCc3ccccc3C2)nc(N2CCc3ccccc3C2)n1)CN1CCc2ccccc2C1

>  <score_type>  (85) 
oracle

>  <origin>  (85) 
autodockgpu

>  <m_score__min__energy>  (85) 
-11.49

>  <m_primary>  (85) 
energy

>  <rmsd>  (85) 
9.631711083406564

>  <m_score__min__rmsd>  (85) 
9.631711083406564

>  <meeko>  (85) 
{"free_energy": -8.72, "intermolecular_energy": -11.1, "internal_energy": -4.07, "cluster_size": 11, "cluster_id": 4, "rank_in_cluster": 10}

>  <energy>  (85) 
-8.72

>  <cluster_rmsd>  (85) 
1.31

>  <cluster>  (85) 
4

$$$$

     RDKit          3D

 79 85  0  0  1  0  0  0  0  0999 V2000
  136.1820   77.6630  221.2850 N   0  0  0  0  0  0  0  0  0  0  0  0
  136.2900   76.4010  221.9840 C   0  0  1  0  0  0  0  0  0  0  0  0
  136.1680   75.2310  221.0500 C   0  0  0  0  0  0  0  0  0  0  0  0
  136.4290   74.0170  221.7930 N   0  0  0  0  0  0  0  0  0  0  0  0
  137.7940   73.5670  221.8520 C   0  0  0  0  0  0  0  0  0  0  0  0
  138.1810   72.6000  222.7190 N   0  0  0  0  0  0  0  0  0  0  0  0
  139.4520   72.1690  222.7890 C   0  0  0  0  0  0  0  0  0  0  0  0
  139.8760   71.1530  223.6930 N   0  0  0  0  0  0  0  0  0  0  0  0
  139.5970   69.7550  223.4200 C   0  0  0  0  0  0  0  0  0  0  0  0
  138.6360   69.3260  224.5200 C   0  0  0  0  0  0  0  0  0  0  0  0
  139.4320   69.4180  225.7900 C   0  0  0  0  0  0  0  0  0  0  0  0
  139.2180   68.4610  226.7780 C   0  0  0  0  0  0  0  0  0  0  0  0
  139.9680   68.5690  227.9430 C   0  0  0  0  0  0  0  0  0  0  0  0
  140.8900   69.5820  228.1190 C   0  0  0  0  0  0  0  0  0  0  0  0
  141.0980   70.5360  227.1240 C   0  0  0  0  0  0  0  0  0  0  0  0
  140.3540   70.4290  225.9670 C   0  0  0  0  0  0  0  0  0  0  0  0
  140.5970   71.4670  224.9120 C   0  0  0  0  0  0  0  0  0  0  0  0
  140.3540   72.7260  221.9630 N   0  0  0  0  0  0  0  0  0  0  0  0
  140.0340   73.6970  221.0720 C   0  0  0  0  0  0  0  0  0  0  0  0
  141.0360   74.2500  220.2230 N   0  0  0  0  0  0  0  0  0  0  0  0
  142.3970   74.2690  220.6510 C   0  0  0  0  0  0  0  0  0  0  0  0
  143.3200   75.0720  219.8210 C   0  0  0  0  0  0  0  0  0  0  0  0
  142.6570   76.1930  219.1240 C   0  0  0  0  0  0  0  0  0  0  0  0
  143.2890   77.3870  218.8860 C   0  0  0  0  0  0  0  0  0  0  0  0
  142.6500   78.4290  218.2290 C   0  0  0  0  0  0  0  0  0  0  0  0
  141.3430   78.3190  217.7780 C   0  0  0  0  0  0  0  0  0  0  0  0
  140.7070   77.1170  218.0180 C   0  0  0  0  0  0  0  0  0  0  0  0
  141.3390   76.0880  218.6680 C   0  0  0  0  0  0  0  0  0  0  0  0
  140.6690   74.7900  218.9340 C   0  0  0  0  0  0  0  0  0  0  0  0
  138.7510   74.0830  221.0520 N   0  0  0  0  0  0  0  0  0  0  0  0
  137.6430   76.3450  222.6540 C   0  0  0  0  0  0  0  0  0  0  0  0
  138.4190   77.4800  222.1390 N   0  0  0  0  0  0  0  0  0  0  0  0
  139.5510   76.9560  221.4470 C   0  0  0  0  0  0  0  0  0  0  0  0
  140.7880   77.0160  222.3360 C   0  0  0  0  0  0  0  0  0  0  0  0
  141.0440   78.4880  222.5220 C   0  0  0  0  0  0  0  0  0  0  0  0
  142.2690   79.0570  222.2840 C   0  0  0  0  0  0  0  0  0  0  0  0
  142.3730   80.4250  222.4920 C   0  0  0  0  0  0  0  0  0  0  0  0
  141.2690   81.1660  222.9240 C   0  0  0  0  0  0  0  0  0  0  0  0
  140.0470   80.5620  223.1550 C   0  0  0  0  0  0  0  0  0  0  0  0
  139.9390   79.2200  222.9520 C   0  0  0  0  0  0  0  0  0  0  0  0
  138.6890   78.4360  223.1610 C   0  0  0  0  0  0  0  0  0  0  0  0
  136.0180   78.4580  221.9230 H   0  0  0  0  0  0  0  0  0  0  0  0
  136.9150   77.8090  220.5790 H   0  0  0  0  0  0  0  0  0  0  0  0
  135.4714   76.3387  222.7161 H   0  0  0  0  0  0  0  0  0  0  0  0
  135.1520   75.1969  220.6297 H   0  0  0  0  0  0  0  0  0  0  0  0
  136.8912   75.3304  220.2272 H   0  0  0  0  0  0  0  0  0  0  0  0
  135.7280   73.4490  222.2830 H   0  0  0  0  0  0  0  0  0  0  0  0
  139.1297   69.6395  222.4309 H   0  0  0  0  0  0  0  0  0  0  0  0
  140.5120   69.1446  223.4078 H   0  0  0  0  0  0  0  0  0  0  0  0
  137.7673   69.9996  224.5587 H   0  0  0  0  0  0  0  0  0  0  0  0
  138.2420   68.3128  224.3521 H   0  0  0  0  0  0  0  0  0  0  0  0
  138.4850   67.6521  226.6421 H   0  0  0  0  0  0  0  0  0  0  0  0
  139.8237   67.8296  228.7445 H   0  0  0  0  0  0  0  0  0  0  0  0
  141.4664   69.6367  229.0543 H   0  0  0  0  0  0  0  0  0  0  0  0
  141.8301   71.3462  227.2567 H   0  0  0  0  0  0  0  0  0  0  0  0
  140.2605   72.4451  225.2864 H   0  0  0  0  0  0  0  0  0  0  0  0
  141.6731   71.4886  224.6851 H   0  0  0  0  0  0  0  0  0  0  0  0
  142.4239   74.6733  221.6736 H   0  0  0  0  0  0  0  0  0  0  0  0
  142.7502   73.2302  220.5720 H   0  0  0  0  0  0  0  0  0  0  0  0
  144.1067   75.4821  220.4714 H   0  0  0  0  0  0  0  0  0  0  0  0
  143.7266   74.4036  219.0478 H   0  0  0  0  0  0  0  0  0  0  0  0
  144.3271   77.5217  219.2240 H   0  0  0  0  0  0  0  0  0  0  0  0
  143.1957   79.3692  218.0611 H   0  0  0  0  0  0  0  0  0  0  0  0
  140.8393   79.1461  217.2563 H   0  0  0  0  0  0  0  0  0  0  0  0
  139.6690   76.9817  217.6799 H   0  0  0  0  0  0  0  0  0  0  0  0
  139.5796   74.9399  218.9080 H   0  0  0  0  0  0  0  0  0  0  0  0
  140.9888   74.0758  218.1609 H   0  0  0  0  0  0  0  0  0  0  0  0
  137.5290   76.4281  223.7449 H   0  0  0  0  0  0  0  0  0  0  0  0
  138.1494   75.3919  222.4415 H   0  0  0  0  0  0  0  0  0  0  0  0
  139.3542   75.9101  221.1688 H   0  0  0  0  0  0  0  0  0  0  0  0
  139.7293   77.5585  220.5441 H   0  0  0  0  0  0  0  0  0  0  0  0
  140.5961   76.5289  223.3034 H   0  0  0  0  0  0  0  0  0  0  0  0
  141.6486   76.4933  221.8931 H   0  0  0  0  0  0  0  0  0  0  0  0
  143.1271   78.4582  221.9448 H   0  0  0  0  0  0  0  0  0  0  0  0
  143.3334   80.9313  222.3153 H   0  0  0  0  0  0  0  0  0  0  0  0
  141.3745   82.2493  223.0830 H   0  0  0  0  0  0  0  0  0  0  0  0
  139.1827   81.1515  223.4947 H   0  0  0  0  0  0  0  0  0  0  0  0
  138.7734   77.9019  224.1189 H   0  0  0  0  0  0  0  0  0  0  0  0
  137.8584   79.1570  223.1455 H   0  0  0  0  0  0  0  0  0  0  0  0
  1  2  1  0
  2  3  1  0
  3  4  1  0
  4  5  1  0
  5  6  2  0
  6  7  1  0
  7  8  1  0
  8  9  1  0
  9 10  1  0
 10 11  1  0
 11 12  2  0
 12 13  1  0
 13 14  2  0
 14 15  1  0
 15 16  2  0
 16 17  1  0
  7 18  2  0
 18 19  1  0
 19 20  1  0
 20 21  1  0
 21 22  1  0
 22 23  1  0
 23 24  2  0
 24 25  1  0
 25 26  2  0
 26 27  1  0
 27 28  2  0
 28 29  1  0
 19 30  2  0
  2 31  1  0
 31 32  1  0
 32 33  1  0
 33 34  1  0
 34 35  1  0
 35 36  2  0
 36 37  1  0
 37 38  2  0
 38 39  1  0
 39 40  2  0
 40 41  1  0
 30  5  1  0
 41 32  1  0
 17  8  1  0
 29 20  1  0
 40 35  1  0
 16 11  1  0
 28 23  1  0
  1 42  1  0
  1 43  1  0
  2 44  1  1
  3 45  1  0
  3 46  1  0
  4 47  1  0
  9 48  1  0
  9 49  1  0
 10 50  1  0
 10 51  1  0
 12 52  1  0
 13 53  1  0
 14 54  1  0
 15 55  1  0
 17 56  1  0
 17 57  1  0
 21 58  1  0
 21 59  1  0
 22 60  1  0
 22 61  1  0
 24 62  1  0
 25 63  1  0
 26 64  1  0
 27 65  1  0
 29 66  1  0
 29 67  1  0
 31 68  1  0
 31 69  1  0
 33 70  1  0
 33 71  1  0
 34 72  1  0
 34 73  1  0
 36 74  1  0
 37 75  1  0
 38 76  1  0
 39 77  1  0
 41 78  1  0
 41 79  1  0
M  END
>  <smiles>  (86) 
NC(CNc1nc(N2CCc3ccccc3C2)nc(N2CCc3ccccc3C2)n1)CN1CCc2ccccc2C1

>  <score_type>  (86) 
oracle

>  <origin>  (86) 
autodockgpu

>  <m_score__min__energy>  (86) 
-11.49

>  <m_primary>  (86) 
energy

>  <rmsd>  (86) 
9.176700227291704

>  <m_score__min__rmsd>  (86) 
9.176700227291704

>  <meeko>  (86) 
{"free_energy": -8.72, "intermolecular_energy": -11.11, "internal_energy": -3.45, "cluster_size": 11, "cluster_id": 4, "rank_in_cluster": 9}

>  <energy>  (86) 
-8.72

>  <cluster_rmsd>  (86) 
1.43

>  <cluster>  (86) 
4

$$$$

     RDKit          3D

 79 85  0  0  1  0  0  0  0  0999 V2000
  139.2580   74.8580  222.3450 N   0  0  0  0  0  0  0  0  0  0  0  0
  139.5960   74.4170  221.0090 C   0  0  1  0  0  0  0  0  0  0  0  0
  138.4120   73.8270  220.2970 C   0  0  0  0  0  0  0  0  0  0  0  0
  137.3790   74.8350  220.2020 N   0  0  0  0  0  0  0  0  0  0  0  0
  136.9410   75.4410  221.4320 C   0  0  0  0  0  0  0  0  0  0  0  0
  136.3120   74.7170  222.3910 N   0  0  0  0  0  0  0  0  0  0  0  0
  135.8960   75.2680  223.5440 C   0  0  0  0  0  0  0  0  0  0  0  0
  135.2350   74.5230  224.5620 N   0  0  0  0  0  0  0  0  0  0  0  0
  135.2710   73.0710  224.5580 C   0  0  0  0  0  0  0  0  0  0  0  0
  133.8290   72.6450  224.3150 C   0  0  0  0  0  0  0  0  0  0  0  0
  133.0780   73.1040  225.5310 C   0  0  0  0  0  0  0  0  0  0  0  0
  132.0510   72.3010  226.0200 C   0  0  0  0  0  0  0  0  0  0  0  0
  131.3730   72.7490  227.1470 C   0  0  0  0  0  0  0  0  0  0  0  0
  131.6980   73.9420  227.7620 C   0  0  0  0  0  0  0  0  0  0  0  0
  132.7280   74.7400  227.2660 C   0  0  0  0  0  0  0  0  0  0  0  0
  133.4020   74.2960  226.1480 C   0  0  0  0  0  0  0  0  0  0  0  0
  134.5060   75.1720  225.6340 C   0  0  0  0  0  0  0  0  0  0  0  0
  136.1190   76.5790  223.7340 N   0  0  0  0  0  0  0  0  0  0  0  0
  136.7410   77.3610  222.8170 C   0  0  0  0  0  0  0  0  0  0  0  0
  136.9480   78.7460  223.0770 N   0  0  0  0  0  0  0  0  0  0  0  0
  138.2690   79.2840  223.0460 C   0  0  0  0  0  0  0  0  0  0  0  0
  138.4140   80.6620  223.5610 C   0  0  0  0  0  0  0  0  0  0  0  0
  137.4000   81.0180  224.5740 C   0  0  0  0  0  0  0  0  0  0  0  0
  137.6730   81.8600  225.6230 C   0  0  0  0  0  0  0  0  0  0  0  0
  136.7080   82.1840  226.5650 C   0  0  0  0  0  0  0  0  0  0  0  0
  135.4190   81.6760  226.4980 C   0  0  0  0  0  0  0  0  0  0  0  0
  135.1440   80.8290  225.4430 C   0  0  0  0  0  0  0  0  0  0  0  0
  136.1000   80.5090  224.5120 C   0  0  0  0  0  0  0  0  0  0  0  0
  135.8200   79.5990  223.3730 C   0  0  0  0  0  0  0  0  0  0  0  0
  137.1320   76.7510  221.6880 N   0  0  0  0  0  0  0  0  0  0  0  0
  140.0840   75.6120  220.2250 C   0  0  0  0  0  0  0  0  0  0  0  0
  139.9660   76.7770  221.1100 N   0  0  0  0  0  0  0  0  0  0  0  0
  139.6480   77.9080  220.3000 C   0  0  0  0  0  0  0  0  0  0  0  0
  140.9020   78.7310  220.0280 C   0  0  0  0  0  0  0  0  0  0  0  0
  141.2990   79.2680  221.3770 C   0  0  0  0  0  0  0  0  0  0  0  0
  141.5390   80.6010  221.5970 C   0  0  0  0  0  0  0  0  0  0  0  0
  141.8950   80.9670  222.8860 C   0  0  0  0  0  0  0  0  0  0  0  0
  141.9990   80.0060  223.8960 C   0  0  0  0  0  0  0  0  0  0  0  0
  141.7500   78.6700  223.6430 C   0  0  0  0  0  0  0  0  0  0  0  0
  141.4000   78.3050  222.3790 C   0  0  0  0  0  0  0  0  0  0  0  0
  141.1040   76.9060  221.9590 C   0  0  0  0  0  0  0  0  0  0  0  0
  139.0580   75.8700  222.3900 H   0  0  0  0  0  0  0  0  0  0  0  0
  138.5780   74.2520  222.8210 H   0  0  0  0  0  0  0  0  0  0  0  0
  140.3693   73.6385  221.0862 H   0  0  0  0  0  0  0  0  0  0  0  0
  138.7093   73.5053  219.2880 H   0  0  0  0  0  0  0  0  0  0  0  0
  138.0358   72.9558  220.8533 H   0  0  0  0  0  0  0  0  0  0  0  0
  136.9310   75.1580  219.3370 H   0  0  0  0  0  0  0  0  0  0  0  0
  135.9245   72.7021  223.7537 H   0  0  0  0  0  0  0  0  0  0  0  0
  135.6707   72.6637  225.4984 H   0  0  0  0  0  0  0  0  0  0  0  0
  133.4308   73.1269  223.4099 H   0  0  0  0  0  0  0  0  0  0  0  0
  133.7395   71.5598  224.1594 H   0  0  0  0  0  0  0  0  0  0  0  0
  131.7870   71.3503  225.5337 H   0  0  0  0  0  0  0  0  0  0  0  0
  130.5568   72.1380  227.5598 H   0  0  0  0  0  0  0  0  0  0  0  0
  131.1386   74.2659  228.6521 H   0  0  0  0  0  0  0  0  0  0  0  0
  132.9939   75.6913  227.7500 H   0  0  0  0  0  0  0  0  0  0  0  0
  134.0732   76.1103  225.2568 H   0  0  0  0  0  0  0  0  0  0  0  0
  135.2051   75.3713  226.4595 H   0  0  0  0  0  0  0  0  0  0  0  0
  138.9147   78.6286  223.6489 H   0  0  0  0  0  0  0  0  0  0  0  0
  138.5478   79.3312  221.9830 H   0  0  0  0  0  0  0  0  0  0  0  0
  139.4109   80.7617  224.0152 H   0  0  0  0  0  0  0  0  0  0  0  0
  138.2760   81.3439  222.7090 H   0  0  0  0  0  0  0  0  0  0  0  0
  138.6817   82.2882  225.7189 H   0  0  0  0  0  0  0  0  0  0  0  0
  136.9724   82.8633  227.3888 H   0  0  0  0  0  0  0  0  0  0  0  0
  134.6556   81.9346  227.2466 H   0  0  0  0  0  0  0  0  0  0  0  0
  134.1354   80.4008  225.3465 H   0  0  0  0  0  0  0  0  0  0  0  0
  134.9541   78.9693  223.6251 H   0  0  0  0  0  0  0  0  0  0  0  0
  135.6158   80.2157  222.4853 H   0  0  0  0  0  0  0  0  0  0  0  0
  141.1331   75.4671  219.9277 H   0  0  0  0  0  0  0  0  0  0  0  0
  139.4920   75.7511  219.3084 H   0  0  0  0  0  0  0  0  0  0  0  0
  139.2255   77.5633  219.3447 H   0  0  0  0  0  0  0  0  0  0  0  0
  138.9159   78.5346  220.8305 H   0  0  0  0  0  0  0  0  0  0  0  0
  141.6995   78.0985  219.6110 H   0  0  0  0  0  0  0  0  0  0  0  0
  140.7266   79.5312  219.2939 H   0  0  0  0  0  0  0  0  0  0  0  0
  141.4531   81.3433  220.7897 H   0  0  0  0  0  0  0  0  0  0  0  0
  142.0975   82.0234  223.1161 H   0  0  0  0  0  0  0  0  0  0  0  0
  142.2843   80.3189  224.9112 H   0  0  0  0  0  0  0  0  0  0  0  0
  141.8327   77.9201  224.4435 H   0  0  0  0  0  0  0  0  0  0  0  0
  141.9806   76.5147  221.4220 H   0  0  0  0  0  0  0  0  0  0  0  0
  140.8783   76.3426  222.8764 H   0  0  0  0  0  0  0  0  0  0  0  0
  1  2  1  0
  2  3  1  0
  3  4  1  0
  4  5  1  0
  5  6  2  0
  6  7  1  0
  7  8  1  0
  8  9  1  0
  9 10  1  0
 10 11  1  0
 11 12  2  0
 12 13  1  0
 13 14  2  0
 14 15  1  0
 15 16  2  0
 16 17  1  0
  7 18  2  0
 18 19  1  0
 19 20  1  0
 20 21  1  0
 21 22  1  0
 22 23  1  0
 23 24  2  0
 24 25  1  0
 25 26  2  0
 26 27  1  0
 27 28  2  0
 28 29  1  0
 19 30  2  0
  2 31  1  0
 31 32  1  0
 32 33  1  0
 33 34  1  0
 34 35  1  0
 35 36  2  0
 36 37  1  0
 37 38  2  0
 38 39  1  0
 39 40  2  0
 40 41  1  0
 30  5  1  0
 41 32  1  0
 17  8  1  0
 29 20  1  0
 40 35  1  0
 16 11  1  0
 28 23  1  0
  1 42  1  0
  1 43  1  0
  2 44  1  1
  3 45  1  0
  3 46  1  0
  4 47  1  0
  9 48  1  0
  9 49  1  0
 10 50  1  0
 10 51  1  0
 12 52  1  0
 13 53  1  0
 14 54  1  0
 15 55  1  0
 17 56  1  0
 17 57  1  0
 21 58  1  0
 21 59  1  0
 22 60  1  0
 22 61  1  0
 24 62  1  0
 25 63  1  0
 26 64  1  0
 27 65  1  0
 29 66  1  0
 29 67  1  0
 31 68  1  0
 31 69  1  0
 33 70  1  0
 33 71  1  0
 34 72  1  0
 34 73  1  0
 36 74  1  0
 37 75  1  0
 38 76  1  0
 39 77  1  0
 41 78  1  0
 41 79  1  0
M  END
>  <smiles>  (87) 
NC(CNc1nc(N2CCc3ccccc3C2)nc(N2CCc3ccccc3C2)n1)CN1CCc2ccccc2C1

>  <score_type>  (87) 
oracle

>  <origin>  (87) 
autodockgpu

>  <m_score__min__energy>  (87) 
-11.49

>  <m_primary>  (87) 
energy

>  <rmsd>  (87) 
9.472541034160793

>  <m_score__min__rmsd>  (87) 
9.472541034160793

>  <meeko>  (87) 
{"free_energy": -8.86, "intermolecular_energy": -11.24, "internal_energy": -3.82, "cluster_size": 1, "cluster_id": 10, "rank_in_cluster": 1}

>  <energy>  (87) 
-8.63

>  <cluster_rmsd>  (87) 
1.05

>  <cluster>  (87) 
4

$$$$

     RDKit          3D

 79 85  0  0  1  0  0  0  0  0999 V2000
  139.9550   74.9050  222.1400 N   0  0  0  0  0  0  0  0  0  0  0  0
  139.8080   75.3620  220.7760 C   0  0  1  0  0  0  0  0  0  0  0  0
  138.6990   74.6460  220.0600 C   0  0  0  0  0  0  0  0  0  0  0  0
  138.8310   73.2260  220.3040 N   0  0  0  0  0  0  0  0  0  0  0  0
  138.3060   72.7240  221.5460 C   0  0  0  0  0  0  0  0  0  0  0  0
  139.0260   71.8810  222.3270 N   0  0  0  0  0  0  0  0  0  0  0  0
  138.5500   71.4020  223.4890 C   0  0  0  0  0  0  0  0  0  0  0  0
  139.2930   70.5170  224.3220 N   0  0  0  0  0  0  0  0  0  0  0  0
  139.2440   69.0820  224.1060 C   0  0  0  0  0  0  0  0  0  0  0  0
  138.5620   68.5230  225.3480 C   0  0  0  0  0  0  0  0  0  0  0  0
  139.5130   68.8070  226.4750 C   0  0  0  0  0  0  0  0  0  0  0  0
  139.6390   67.8640  227.4910 C   0  0  0  0  0  0  0  0  0  0  0  0
  140.5260   68.1530  228.5210 C   0  0  0  0  0  0  0  0  0  0  0  0
  141.2560   69.3240  228.5420 C   0  0  0  0  0  0  0  0  0  0  0  0
  141.1240   70.2630  227.5200 C   0  0  0  0  0  0  0  0  0  0  0  0
  140.2440   69.9780  226.4970 C   0  0  0  0  0  0  0  0  0  0  0  0
  140.1210   71.0030  225.4090 C   0  0  0  0  0  0  0  0  0  0  0  0
  137.3190   71.7810  223.8720 N   0  0  0  0  0  0  0  0  0  0  0  0
  136.5470   72.6200  223.1390 C   0  0  0  0  0  0  0  0  0  0  0  0
  135.2490   72.9860  223.5980 N   0  0  0  0  0  0  0  0  0  0  0  0
  134.9060   74.3640  223.7340 C   0  0  0  0  0  0  0  0  0  0  0  0
  133.6380   74.6450  224.4400 C   0  0  0  0  0  0  0  0  0  0  0  0
  133.2700   73.6020  225.4190 C   0  0  0  0  0  0  0  0  0  0  0  0
  132.6130   73.8900  226.5890 C   0  0  0  0  0  0  0  0  0  0  0  0
  132.2740   72.8970  227.4960 C   0  0  0  0  0  0  0  0  0  0  0  0
  132.5800   71.5630  227.2710 C   0  0  0  0  0  0  0  0  0  0  0  0
  133.2400   71.2730  226.0930 C   0  0  0  0  0  0  0  0  0  0  0  0
  133.5760   72.2560  225.1960 C   0  0  0  0  0  0  0  0  0  0  0  0
  134.2860   71.9600  223.9280 C   0  0  0  0  0  0  0  0  0  0  0  0
  137.0790   73.0630  221.9910 N   0  0  0  0  0  0  0  0  0  0  0  0
  139.4910   76.8390  220.8020 C   0  0  0  0  0  0  0  0  0  0  0  0
  140.2120   77.4070  221.9480 N   0  0  0  0  0  0  0  0  0  0  0  0
  139.2760   78.1520  222.7250 C   0  0  0  0  0  0  0  0  0  0  0  0
  139.3940   79.6390  222.4110 C   0  0  0  0  0  0  0  0  0  0  0  0
  140.7630   80.0200  222.9090 C   0  0  0  0  0  0  0  0  0  0  0  0
  140.9700   81.0810  223.7530 C   0  0  0  0  0  0  0  0  0  0  0  0
  142.2790   81.3250  224.1400 C   0  0  0  0  0  0  0  0  0  0  0  0
  143.3210   80.5150  223.6790 C   0  0  0  0  0  0  0  0  0  0  0  0
  143.0790   79.4520  222.8280 C   0  0  0  0  0  0  0  0  0  0  0  0
  141.7960   79.2070  222.4460 C   0  0  0  0  0  0  0  0  0  0  0  0
  141.3860   78.1010  221.5350 C   0  0  0  0  0  0  0  0  0  0  0  0
  140.2360   75.6620  222.7840 H   0  0  0  0  0  0  0  0  0  0  0  0
  139.1780   74.3150  222.4640 H   0  0  0  0  0  0  0  0  0  0  0  0
  140.7464   75.1572  220.2399 H   0  0  0  0  0  0  0  0  0  0  0  0
  137.7272   74.9977  220.4368 H   0  0  0  0  0  0  0  0  0  0  0  0
  138.7577   74.8481  218.9803 H   0  0  0  0  0  0  0  0  0  0  0  0
  139.2640   72.5440  219.6700 H   0  0  0  0  0  0  0  0  0  0  0  0
  138.6601   68.8459  223.2042 H   0  0  0  0  0  0  0  0  0  0  0  0
  140.2446   68.6514  223.9532 H   0  0  0  0  0  0  0  0  0  0  0  0
  137.5986   69.0255  225.5192 H   0  0  0  0  0  0  0  0  0  0  0  0
  138.3445   67.4490  225.2518 H   0  0  0  0  0  0  0  0  0  0  0  0
  139.0604   66.9286  227.4791 H   0  0  0  0  0  0  0  0  0  0  0  0
  140.6494   67.4298  229.3406 H   0  0  0  0  0  0  0  0  0  0  0  0
  141.9491   69.5185  229.3737 H   0  0  0  0  0  0  0  0  0  0  0  0
  141.7018   71.1990  227.5292 H   0  0  0  0  0  0  0  0  0  0  0  0
  139.6682   71.9152  225.8249 H   0  0  0  0  0  0  0  0  0  0  0  0
  141.1257   71.2142  225.0141 H   0  0  0  0  0  0  0  0  0  0  0  0
  135.7171   74.8607  224.2866 H   0  0  0  0  0  0  0  0  0  0  0  0
  134.7670   74.7396  222.7095 H   0  0  0  0  0  0  0  0  0  0  0  0
  133.7394   75.6026  224.9717 H   0  0  0  0  0  0  0  0  0  0  0  0
  132.8424   74.6742  223.6810 H   0  0  0  0  0  0  0  0  0  0  0  0
  132.3488   74.9341  226.8129 H   0  0  0  0  0  0  0  0  0  0  0  0
  131.7472   73.1755  228.4206 H   0  0  0  0  0  0  0  0  0  0  0  0
  132.3112   70.7775  227.9927 H   0  0  0  0  0  0  0  0  0  0  0  0
  133.5028   70.2288  225.8682 H   0  0  0  0  0  0  0  0  0  0  0  0
  134.8112   70.9989  224.0303 H   0  0  0  0  0  0  0  0  0  0  0  0
  133.5400   71.9199  223.1206 H   0  0  0  0  0  0  0  0  0  0  0  0
  139.8273   77.3151  219.8691 H   0  0  0  0  0  0  0  0  0  0  0  0
  138.4080   77.0089  220.8932 H   0  0  0  0  0  0  0  0  0  0  0  0
  138.2568   77.8112  222.4905 H   0  0  0  0  0  0  0  0  0  0  0  0
  139.4897   77.9932  223.7923 H   0  0  0  0  0  0  0  0  0  0  0  0
  139.3105   79.8160  221.3285 H   0  0  0  0  0  0  0  0  0  0  0  0
  138.5965   80.2316  222.8830 H   0  0  0  0  0  0  0  0  0  0  0  0
  140.1379   81.7080  224.1059 H   0  0  0  0  0  0  0  0  0  0  0  0
  142.4997   82.1640  224.8163 H   0  0  0  0  0  0  0  0  0  0  0  0
  144.3519   80.7269  223.9989 H   0  0  0  0  0  0  0  0  0  0  0  0
  143.9040   78.8195  222.4684 H   0  0  0  0  0  0  0  0  0  0  0  0
  141.2019   78.5264  220.5374 H   0  0  0  0  0  0  0  0  0  0  0  0
  142.2051   77.3669  221.5416 H   0  0  0  0  0  0  0  0  0  0  0  0
  1  2  1  0
  2  3  1  0
  3  4  1  0
  4  5  1  0
  5  6  2  0
  6  7  1  0
  7  8  1  0
  8  9  1  0
  9 10  1  0
 10 11  1  0
 11 12  2  0
 12 13  1  0
 13 14  2  0
 14 15  1  0
 15 16  2  0
 16 17  1  0
  7 18  2  0
 18 19  1  0
 19 20  1  0
 20 21  1  0
 21 22  1  0
 22 23  1  0
 23 24  2  0
 24 25  1  0
 25 26  2  0
 26 27  1  0
 27 28  2  0
 28 29  1  0
 19 30  2  0
  2 31  1  0
 31 32  1  0
 32 33  1  0
 33 34  1  0
 34 35  1  0
 35 36  2  0
 36 37  1  0
 37 38  2  0
 38 39  1  0
 39 40  2  0
 40 41  1  0
 30  5  1  0
 41 32  1  0
 17  8  1  0
 29 20  1  0
 40 35  1  0
 16 11  1  0
 28 23  1  0
  1 42  1  0
  1 43  1  0
  2 44  1  6
  3 45  1  0
  3 46  1  0
  4 47  1  0
  9 48  1  0
  9 49  1  0
 10 50  1  0
 10 51  1  0
 12 52  1  0
 13 53  1  0
 14 54  1  0
 15 55  1  0
 17 56  1  0
 17 57  1  0
 21 58  1  0
 21 59  1  0
 22 60  1  0
 22 61  1  0
 24 62  1  0
 25 63  1  0
 26 64  1  0
 27 65  1  0
 29 66  1  0
 29 67  1  0
 31 68  1  0
 31 69  1  0
 33 70  1  0
 33 71  1  0
 34 72  1  0
 34 73  1  0
 36 74  1  0
 37 75  1  0
 38 76  1  0
 39 77  1  0
 41 78  1  0
 41 79  1  0
M  END
>  <smiles>  (88) 
NC(CNc1nc(N2CCc3ccccc3C2)nc(N2CCc3ccccc3C2)n1)CN1CCc2ccccc2C1

>  <score_type>  (88) 
oracle

>  <origin>  (88) 
autodockgpu

>  <m_score__min__energy>  (88) 
-11.49

>  <m_primary>  (88) 
energy

>  <rmsd>  (88) 
9.658676074448975

>  <m_score__min__rmsd>  (88) 
9.658676074448975

>  <meeko>  (88) 
{"free_energy": -10.31, "intermolecular_energy": -12.69, "internal_energy": -2.41, "cluster_size": 16, "cluster_id": 1, "rank_in_cluster": 13}

>  <energy>  (88) 
-9.69

>  <cluster_rmsd>  (88) 
0.0

>  <cluster>  (88) 
5

$$$$

     RDKit          3D

 79 85  0  0  1  0  0  0  0  0999 V2000
  139.6480   70.8470  221.3560 N   0  0  0  0  0  0  0  0  0  0  0  0
  138.7310   71.2830  222.3860 C   0  0  1  0  0  0  0  0  0  0  0  0
  137.5150   71.9510  221.8090 C   0  0  0  0  0  0  0  0  0  0  0  0
  137.4830   73.3250  222.2600 N   0  0  0  0  0  0  0  0  0  0  0  0
  138.6300   74.1400  221.9570 C   0  0  0  0  0  0  0  0  0  0  0  0
  138.7540   75.3950  222.4530 N   0  0  0  0  0  0  0  0  0  0  0  0
  139.8180   76.1700  222.1790 C   0  0  0  0  0  0  0  0  0  0  0  0
  139.9650   77.4910  222.6910 N   0  0  0  0  0  0  0  0  0  0  0  0
  138.8920   78.4610  222.5550 C   0  0  0  0  0  0  0  0  0  0  0  0
  139.4490   79.5320  221.6280 C   0  0  0  0  0  0  0  0  0  0  0  0
  140.5740   80.1640  222.3960 C   0  0  0  0  0  0  0  0  0  0  0  0
  140.7780   81.5350  222.2660 C   0  0  0  0  0  0  0  0  0  0  0  0
  141.8260   82.0940  222.9880 C   0  0  0  0  0  0  0  0  0  0  0  0
  142.6350   81.3280  223.8020 C   0  0  0  0  0  0  0  0  0  0  0  0
  142.4230   79.9550  223.9260 C   0  0  0  0  0  0  0  0  0  0  0  0
  141.3830   79.3990  223.2110 C   0  0  0  0  0  0  0  0  0  0  0  0
  141.1760   77.9220  223.3620 C   0  0  0  0  0  0  0  0  0  0  0  0
  140.7800   75.6650  221.3870 N   0  0  0  0  0  0  0  0  0  0  0  0
  140.7190   74.4180  220.8590 C   0  0  0  0  0  0  0  0  0  0  0  0
  141.7700   73.9390  220.0260 N   0  0  0  0  0  0  0  0  0  0  0  0
  141.5950   72.7320  219.2850 C   0  0  0  0  0  0  0  0  0  0  0  0
  142.8120   72.1890  218.6460 C   0  0  0  0  0  0  0  0  0  0  0  0
  144.0570   72.5510  219.3530 C   0  0  0  0  0  0  0  0  0  0  0  0
  145.1420   71.7120  219.4100 C   0  0  0  0  0  0  0  0  0  0  0  0
  146.3040   72.0700  220.0780 C   0  0  0  0  0  0  0  0  0  0  0  0
  146.4310   73.2910  220.7230 C   0  0  0  0  0  0  0  0  0  0  0  0
  145.3400   74.1350  220.6660 C   0  0  0  0  0  0  0  0  0  0  0  0
  144.1910   73.7810  220.0060 C   0  0  0  0  0  0  0  0  0  0  0  0
  143.0100   74.6760  219.9370 C   0  0  0  0  0  0  0  0  0  0  0  0
  139.6320   73.6970  221.1700 N   0  0  0  0  0  0  0  0  0  0  0  0
  138.2880   70.0700  223.1700 C   0  0  0  0  0  0  0  0  0  0  0  0
  139.3870   69.7320  224.0830 N   0  0  0  0  0  0  0  0  0  0  0  0
  139.2430   68.3590  224.4460 C   0  0  0  0  0  0  0  0  0  0  0  0
  138.5870   68.2420  225.8170 C   0  0  0  0  0  0  0  0  0  0  0  0
  139.5940   68.8330  226.7670 C   0  0  0  0  0  0  0  0  0  0  0  0
  140.0210   68.1730  227.8910 C   0  0  0  0  0  0  0  0  0  0  0  0
  140.9530   68.8270  228.6830 C   0  0  0  0  0  0  0  0  0  0  0  0
  141.4200   70.0970  228.3320 C   0  0  0  0  0  0  0  0  0  0  0  0
  140.9700   70.7370  227.1920 C   0  0  0  0  0  0  0  0  0  0  0  0
  140.0550   70.0990  226.4100 C   0  0  0  0  0  0  0  0  0  0  0  0
  139.4800   70.6640  225.1570 C   0  0  0  0  0  0  0  0  0  0  0  0
  140.1120   71.6350  220.8780 H   0  0  0  0  0  0  0  0  0  0  0  0
  140.2680   70.0810  221.6510 H   0  0  0  0  0  0  0  0  0  0  0  0
  139.2495   72.0132  223.0248 H   0  0  0  0  0  0  0  0  0  0  0  0
  137.5635   71.9230  220.7104 H   0  0  0  0  0  0  0  0  0  0  0  0
  136.6065   71.4265  222.1401 H   0  0  0  0  0  0  0  0  0  0  0  0
  136.7150   73.7720  222.7740 H   0  0  0  0  0  0  0  0  0  0  0  0
  138.0001   77.9924  222.1135 H   0  0  0  0  0  0  0  0  0  0  0  0
  138.5810   78.8740  223.5259 H   0  0  0  0  0  0  0  0  0  0  0  0
  139.8221   79.0812  220.6966 H   0  0  0  0  0  0  0  0  0  0  0  0
  138.6831   80.2663  221.3378 H   0  0  0  0  0  0  0  0  0  0  0  0
  140.1362   82.1506  221.6186 H   0  0  0  0  0  0  0  0  0  0  0  0
  142.0153   83.1747  222.9084 H   0  0  0  0  0  0  0  0  0  0  0  0
  143.4552   81.8048  224.3586 H   0  0  0  0  0  0  0  0  0  0  0  0
  143.0635   79.3367  224.5721 H   0  0  0  0  0  0  0  0  0  0  0  0
  142.0358   77.3927  222.9255 H   0  0  0  0  0  0  0  0  0  0  0  0
  141.0816   77.6912  224.4334 H   0  0  0  0  0  0  0  0  0  0  0  0
  141.2045   71.9672  219.9725 H   0  0  0  0  0  0  0  0  0  0  0  0
  140.9108   72.9830  218.4611 H   0  0  0  0  0  0  0  0  0  0  0  0
  142.7322   71.0922  218.6197 H   0  0  0  0  0  0  0  0  0  0  0  0
  142.8721   72.6258  217.6382 H   0  0  0  0  0  0  0  0  0  0  0  0
  145.0888   70.7317  218.9138 H   0  0  0  0  0  0  0  0  0  0  0  0
  147.1485   71.3654  220.0965 H   0  0  0  0  0  0  0  0  0  0  0  0
  147.3532   73.5724  221.2526 H   0  0  0  0  0  0  0  0  0  0  0  0
  145.3935   75.1154  221.1620 H   0  0  0  0  0  0  0  0  0  0  0  0
  143.0581   75.3932  220.7696 H   0  0  0  0  0  0  0  0  0  0  0  0
  143.0304   75.1935  218.9665 H   0  0  0  0  0  0  0  0  0  0  0  0
  137.3773   70.3005  223.7422 H   0  0  0  0  0  0  0  0  0  0  0  0
  138.0580   69.2286  222.4998 H   0  0  0  0  0  0  0  0  0  0  0  0
  138.6165   67.8496  223.6990 H   0  0  0  0  0  0  0  0  0  0  0  0
  140.2382   67.8918  224.4837 H   0  0  0  0  0  0  0  0  0  0  0  0
  137.6447   68.8086  225.8470 H   0  0  0  0  0  0  0  0  0  0  0  0
  138.3309   67.2029  226.0714 H   0  0  0  0  0  0  0  0  0  0  0  0
  139.6426   67.1735  228.1516 H   0  0  0  0  0  0  0  0  0  0  0  0
  141.3283   68.3417  229.5960 H   0  0  0  0  0  0  0  0  0  0  0  0
  142.1595   70.5967  228.9750 H   0  0  0  0  0  0  0  0  0  0  0  0
  141.3417   71.7368  226.9231 H   0  0  0  0  0  0  0  0  0  0  0  0
  138.4689   71.0361  225.3789 H   0  0  0  0  0  0  0  0  0  0  0  0
  140.1646   71.4589  224.8263 H   0  0  0  0  0  0  0  0  0  0  0  0
  1  2  1  0
  2  3  1  0
  3  4  1  0
  4  5  1  0
  5  6  2  0
  6  7  1  0
  7  8  1  0
  8  9  1  0
  9 10  1  0
 10 11  1  0
 11 12  2  0
 12 13  1  0
 13 14  2  0
 14 15  1  0
 15 16  2  0
 16 17  1  0
  7 18  2  0
 18 19  1  0
 19 20  1  0
 20 21  1  0
 21 22  1  0
 22 23  1  0
 23 24  2  0
 24 25  1  0
 25 26  2  0
 26 27  1  0
 27 28  2  0
 28 29  1  0
 19 30  2  0
  2 31  1  0
 31 32  1  0
 32 33  1  0
 33 34  1  0
 34 35  1  0
 35 36  2  0
 36 37  1  0
 37 38  2  0
 38 39  1  0
 39 40  2  0
 40 41  1  0
 30  5  1  0
 41 32  1  0
 17  8  1  0
 29 20  1  0
 40 35  1  0
 16 11  1  0
 28 23  1  0
  1 42  1  0
  1 43  1  0
  2 44  1  1
  3 45  1  0
  3 46  1  0
  4 47  1  0
  9 48  1  0
  9 49  1  0
 10 50  1  0
 10 51  1  0
 12 52  1  0
 13 53  1  0
 14 54  1  0
 15 55  1  0
 17 56  1  0
 17 57  1  0
 21 58  1  0
 21 59  1  0
 22 60  1  0
 22 61  1  0
 24 62  1  0
 25 63  1  0
 26 64  1  0
 27 65  1  0
 29 66  1  0
 29 67  1  0
 31 68  1  0
 31 69  1  0
 33 70  1  0
 33 71  1  0
 34 72  1  0
 34 73  1  0
 36 74  1  0
 37 75  1  0
 38 76  1  0
 39 77  1  0
 41 78  1  0
 41 79  1  0
M  END
>  <smiles>  (89) 
NC(CNc1nc(N2CCc3ccccc3C2)nc(N2CCc3ccccc3C2)n1)CN1CCc2ccccc2C1

>  <score_type>  (89) 
oracle

>  <origin>  (89) 
autodockgpu

>  <m_score__min__energy>  (89) 
-11.49

>  <m_primary>  (89) 
energy

>  <rmsd>  (89) 
4.2742220829200575

>  <m_score__min__rmsd>  (89) 
4.2742220829200575

>  <meeko>  (89) 
{"free_energy": -9.86, "intermolecular_energy": -12.25, "internal_energy": -2.15, "cluster_size": 9, "cluster_id": 2, "rank_in_cluster": 6}

>  <energy>  (89) 
-8.28

>  <cluster_rmsd>  (89) 
1.98

>  <cluster>  (89) 
5

$$$$

     RDKit          3D

 79 85  0  0  1  0  0  0  0  0999 V2000
  138.8190   72.4870  218.2880 N   0  0  0  0  0  0  0  0  0  0  0  0
  138.9270   73.4810  217.2420 C   0  0  1  0  0  0  0  0  0  0  0  0
  138.1870   74.7410  217.5880 C   0  0  0  0  0  0  0  0  0  0  0  0
  137.4250   74.5150  218.7970 N   0  0  0  0  0  0  0  0  0  0  0  0
  138.1550   74.5020  220.0370 C   0  0  0  0  0  0  0  0  0  0  0  0
  138.5430   75.6540  220.6390 N   0  0  0  0  0  0  0  0  0  0  0  0
  139.2260   75.6600  221.7960 C   0  0  0  0  0  0  0  0  0  0  0  0
  139.6410   76.8590  222.4430 N   0  0  0  0  0  0  0  0  0  0  0  0
  138.6650   77.8480  222.8640 C   0  0  0  0  0  0  0  0  0  0  0  0
  138.9480   79.0690  221.9990 C   0  0  0  0  0  0  0  0  0  0  0  0
  140.3140   79.5330  222.4160 C   0  0  0  0  0  0  0  0  0  0  0  0
  140.5650   80.9020  222.4610 C   0  0  0  0  0  0  0  0  0  0  0  0
  141.8370   81.3040  222.8510 C   0  0  0  0  0  0  0  0  0  0  0  0
  142.8160   80.3890  223.1810 C   0  0  0  0  0  0  0  0  0  0  0  0
  142.5560   79.0190  223.1340 C   0  0  0  0  0  0  0  0  0  0  0  0
  141.2940   78.6190  222.7480 C   0  0  0  0  0  0  0  0  0  0  0  0
  141.0390   77.1420  222.7060 C   0  0  0  0  0  0  0  0  0  0  0  0
  139.5240   74.4770  222.3600 N   0  0  0  0  0  0  0  0  0  0  0  0
  139.1660   73.2890  221.8120 C   0  0  0  0  0  0  0  0  0  0  0  0
  139.5120   72.0680  222.4570 N   0  0  0  0  0  0  0  0  0  0  0  0
  138.6940   70.9130  222.2770 C   0  0  0  0  0  0  0  0  0  0  0  0
  138.9880   69.7710  223.1680 C   0  0  0  0  0  0  0  0  0  0  0  0
  139.5740   70.1740  224.4620 C   0  0  0  0  0  0  0  0  0  0  0  0
  139.3210   69.4940  225.6270 C   0  0  0  0  0  0  0  0  0  0  0  0
  139.8820   69.8870  226.8340 C   0  0  0  0  0  0  0  0  0  0  0  0
  140.7250   70.9830  226.9280 C   0  0  0  0  0  0  0  0  0  0  0  0
  140.9800   71.6670  225.7560 C   0  0  0  0  0  0  0  0  0  0  0  0
  140.4250   71.2790  224.5620 C   0  0  0  0  0  0  0  0  0  0  0  0
  140.6880   72.0040  223.2950 C   0  0  0  0  0  0  0  0  0  0  0  0
  138.4870   73.3520  220.6570 N   0  0  0  0  0  0  0  0  0  0  0  0
  140.3880   73.8150  217.0560 C   0  0  0  0  0  0  0  0  0  0  0  0
  141.0330   73.6400  218.3630 N   0  0  0  0  0  0  0  0  0  0  0  0
  141.3000   74.9370  218.8940 C   0  0  0  0  0  0  0  0  0  0  0  0
  142.7590   75.3130  218.6610 C   0  0  0  0  0  0  0  0  0  0  0  0
  143.5370   74.3370  219.5020 C   0  0  0  0  0  0  0  0  0  0  0  0
  144.4940   74.7400  220.3990 C   0  0  0  0  0  0  0  0  0  0  0  0
  145.1380   73.7410  221.1150 C   0  0  0  0  0  0  0  0  0  0  0  0
  144.8100   72.3970  220.9140 C   0  0  0  0  0  0  0  0  0  0  0  0
  143.8400   72.0240  220.0020 C   0  0  0  0  0  0  0  0  0  0  0  0
  143.2050   72.9990  219.2970 C   0  0  0  0  0  0  0  0  0  0  0  0
  142.1420   72.7480  218.2830 C   0  0  0  0  0  0  0  0  0  0  0  0
  139.6110   72.5180  218.9490 H   0  0  0  0  0  0  0  0  0  0  0  0
  137.8860   72.4390  218.7180 H   0  0  0  0  0  0  0  0  0  0  0  0
  138.4844   73.0680  216.3236 H   0  0  0  0  0  0  0  0  0  0  0  0
  138.9045   75.5588  217.7502 H   0  0  0  0  0  0  0  0  0  0  0  0
  137.5109   75.0163  216.7651 H   0  0  0  0  0  0  0  0  0  0  0  0
  136.4110   74.3640  218.8500 H   0  0  0  0  0  0  0  0  0  0  0  0
  137.6425   77.4805  222.6924 H   0  0  0  0  0  0  0  0  0  0  0  0
  138.7407   78.0741  223.9378 H   0  0  0  0  0  0  0  0  0  0  0  0
  138.9406   78.7977  220.9330 H   0  0  0  0  0  0  0  0  0  0  0  0
  138.1877   79.8531  222.1298 H   0  0  0  0  0  0  0  0  0  0  0  0
  139.7882   81.6353  222.1986 H   0  0  0  0  0  0  0  0  0  0  0  0
  142.0692   82.3782  222.8978 H   0  0  0  0  0  0  0  0  0  0  0  0
  143.8121   80.7436  223.4844 H   0  0  0  0  0  0  0  0  0  0  0  0
  143.3309   78.2834  223.3958 H   0  0  0  0  0  0  0  0  0  0  0  0
  141.6518   76.6945  221.9096 H   0  0  0  0  0  0  0  0  0  0  0  0
  141.3031   76.7147  223.6846 H   0  0  0  0  0  0  0  0  0  0  0  0
  137.6483   71.2107  222.4439 H   0  0  0  0  0  0  0  0  0  0  0  0
  138.9006   70.5568  221.2570 H   0  0  0  0  0  0  0  0  0  0  0  0
  138.0502   69.2302  223.3630 H   0  0  0  0  0  0  0  0  0  0  0  0
  139.7313   69.1421  222.6561 H   0  0  0  0  0  0  0  0  0  0  0  0
  138.6578   68.6167  225.6035 H   0  0  0  0  0  0  0  0  0  0  0  0
  139.6508   69.3118  227.7427 H   0  0  0  0  0  0  0  0  0  0  0  0
  141.1679   71.2919  227.8864 H   0  0  0  0  0  0  0  0  0  0  0  0
  141.6438   72.5438  225.7797 H   0  0  0  0  0  0  0  0  0  0  0  0
  141.0121   73.0281  223.5319 H   0  0  0  0  0  0  0  0  0  0  0  0
  141.4691   71.4582  222.7455 H   0  0  0  0  0  0  0  0  0  0  0  0
  140.8402   73.1374  216.3168 H   0  0  0  0  0  0  0  0  0  0  0  0
  140.5138   74.8441  216.6885 H   0  0  0  0  0  0  0  0  0  0  0  0
  140.6515   75.6734  218.3969 H   0  0  0  0  0  0  0  0  0  0  0  0
  141.1004   74.9293  219.9757 H   0  0  0  0  0  0  0  0  0  0  0  0
  143.0230   75.2077  217.5983 H   0  0  0  0  0  0  0  0  0  0  0  0
  142.9701   76.3586  218.9295 H   0  0  0  0  0  0  0  0  0  0  0  0
  144.7386   75.8027  220.5434 H   0  0  0  0  0  0  0  0  0  0  0  0
  145.9137   74.0090  221.8474 H   0  0  0  0  0  0  0  0  0  0  0  0
  145.3335   71.6215  221.4924 H   0  0  0  0  0  0  0  0  0  0  0  0
  143.5877   70.9642  219.8501 H   0  0  0  0  0  0  0  0  0  0  0  0
  142.5901   72.8442  217.2830 H   0  0  0  0  0  0  0  0  0  0  0  0
  141.7500   71.7394  218.4804 H   0  0  0  0  0  0  0  0  0  0  0  0
  1  2  1  0
  2  3  1  0
  3  4  1  0
  4  5  1  0
  5  6  2  0
  6  7  1  0
  7  8  1  0
  8  9  1  0
  9 10  1  0
 10 11  1  0
 11 12  2  0
 12 13  1  0
 13 14  2  0
 14 15  1  0
 15 16  2  0
 16 17  1  0
  7 18  2  0
 18 19  1  0
 19 20  1  0
 20 21  1  0
 21 22  1  0
 22 23  1  0
 23 24  2  0
 24 25  1  0
 25 26  2  0
 26 27  1  0
 27 28  2  0
 28 29  1  0
 19 30  2  0
  2 31  1  0
 31 32  1  0
 32 33  1  0
 33 34  1  0
 34 35  1  0
 35 36  2  0
 36 37  1  0
 37 38  2  0
 38 39  1  0
 39 40  2  0
 40 41  1  0
 30  5  1  0
 41 32  1  0
 17  8  1  0
 29 20  1  0
 40 35  1  0
 16 11  1  0
 28 23  1  0
  1 42  1  0
  1 43  1  0
  2 44  1  6
  3 45  1  0
  3 46  1  0
  4 47  1  0
  9 48  1  0
  9 49  1  0
 10 50  1  0
 10 51  1  0
 12 52  1  0
 13 53  1  0
 14 54  1  0
 15 55  1  0
 17 56  1  0
 17 57  1  0
 21 58  1  0
 21 59  1  0
 22 60  1  0
 22 61  1  0
 24 62  1  0
 25 63  1  0
 26 64  1  0
 27 65  1  0
 29 66  1  0
 29 67  1  0
 31 68  1  0
 31 69  1  0
 33 70  1  0
 33 71  1  0
 34 72  1  0
 34 73  1  0
 36 74  1  0
 37 75  1  0
 38 76  1  0
 39 77  1  0
 41 78  1  0
 41 79  1  0
M  END
>  <smiles>  (90) 
NC(CNc1nc(N2CCc3ccccc3C2)nc(N2CCc3ccccc3C2)n1)CN1CCc2ccccc2C1

>  <score_type>  (90) 
oracle

>  <origin>  (90) 
autodockgpu

>  <m_score__min__energy>  (90) 
-11.49

>  <m_primary>  (90) 
energy

>  <rmsd>  (90) 
7.724624925941098

>  <m_score__min__rmsd>  (90) 
7.724624925941098

>  <meeko>  (90) 
{"free_energy": -8.69, "intermolecular_energy": -11.08, "internal_energy": -4.14, "cluster_size": 2, "cluster_id": 6, "rank_in_cluster": 2}

>  <energy>  (90) 
-7.89

>  <cluster_rmsd>  (90) 
1.98

>  <cluster>  (90) 
5

$$$$

     RDKit          3D

 79 85  0  0  1  0  0  0  0  0999 V2000
  136.6670   74.9390  222.4030 N   0  0  0  0  0  0  0  0  0  0  0  0
  135.5820   74.5000  221.5540 C   0  0  1  0  0  0  0  0  0  0  0  0
  135.9620   74.5230  220.1010 C   0  0  0  0  0  0  0  0  0  0  0  0
  137.0080   73.5490  219.8800 N   0  0  0  0  0  0  0  0  0  0  0  0
  138.1660   73.6290  220.7310 C   0  0  0  0  0  0  0  0  0  0  0  0
  138.5000   72.6130  221.5650 N   0  0  0  0  0  0  0  0  0  0  0  0
  139.5770   72.6720  222.3670 C   0  0  0  0  0  0  0  0  0  0  0  0
  139.9430   71.6150  223.2490 N   0  0  0  0  0  0  0  0  0  0  0  0
  139.6320   70.2350  222.9180 C   0  0  0  0  0  0  0  0  0  0  0  0
  138.6250   69.7980  223.9730 C   0  0  0  0  0  0  0  0  0  0  0  0
  139.3830   69.8230  225.2690 C   0  0  0  0  0  0  0  0  0  0  0  0
  139.1100   68.8400  226.2160 C   0  0  0  0  0  0  0  0  0  0  0  0
  139.8260   68.8870  227.4060 C   0  0  0  0  0  0  0  0  0  0  0  0
  140.7710   69.8650  227.6460 C   0  0  0  0  0  0  0  0  0  0  0  0
  141.0370   70.8450  226.6910 C   0  0  0  0  0  0  0  0  0  0  0  0
  140.3280   70.8000  225.5090 C   0  0  0  0  0  0  0  0  0  0  0  0
  140.6330   71.8650  224.4990 C   0  0  0  0  0  0  0  0  0  0  0  0
  140.3350   73.7810  222.3270 N   0  0  0  0  0  0  0  0  0  0  0  0
  140.0570   74.8330  221.5170 C   0  0  0  0  0  0  0  0  0  0  0  0
  140.8990   75.9820  221.5200 N   0  0  0  0  0  0  0  0  0  0  0  0
  140.6740   77.0230  222.4690 C   0  0  0  0  0  0  0  0  0  0  0  0
  141.4330   78.2720  222.2430 C   0  0  0  0  0  0  0  0  0  0  0  0
  141.7680   78.5060  220.8240 C   0  0  0  0  0  0  0  0  0  0  0  0
  141.8290   79.7650  220.2800 C   0  0  0  0  0  0  0  0  0  0  0  0
  142.1460   79.9640  218.9440 C   0  0  0  0  0  0  0  0  0  0  0  0
  142.4200   78.9070  218.0900 C   0  0  0  0  0  0  0  0  0  0  0  0
  142.3600   77.6410  218.6370 C   0  0  0  0  0  0  0  0  0  0  0  0
  142.0440   77.4430  219.9580 C   0  0  0  0  0  0  0  0  0  0  0  0
  141.9740   76.0890  220.5610 C   0  0  0  0  0  0  0  0  0  0  0  0
  138.9700   74.7120  220.7420 N   0  0  0  0  0  0  0  0  0  0  0  0
  135.2240   73.0840  221.9370 C   0  0  0  0  0  0  0  0  0  0  0  0
  135.3390   72.9970  223.3980 N   0  0  0  0  0  0  0  0  0  0  0  0
  136.1860   71.8900  223.7020 C   0  0  0  0  0  0  0  0  0  0  0  0
  135.3490   70.6750  224.0870 C   0  0  0  0  0  0  0  0  0  0  0  0
  134.6820   71.0720  225.3770 C   0  0  0  0  0  0  0  0  0  0  0  0
  134.7350   70.2910  226.5030 C   0  0  0  0  0  0  0  0  0  0  0  0
  134.0800   70.7720  227.6270 C   0  0  0  0  0  0  0  0  0  0  0  0
  133.4060   71.9960  227.5910 C   0  0  0  0  0  0  0  0  0  0  0  0
  133.3710   72.7600  226.4390 C   0  0  0  0  0  0  0  0  0  0  0  0
  134.0120   72.2940  225.3320 C   0  0  0  0  0  0  0  0  0  0  0  0
  134.0590   73.0070  224.0250 C   0  0  0  0  0  0  0  0  0  0  0  0
  137.0870   74.1650  222.9420 H   0  0  0  0  0  0  0  0  0  0  0  0
  137.3350   75.5620  221.9320 H   0  0  0  0  0  0  0  0  0  0  0  0
  134.7332   75.1855  221.6942 H   0  0  0  0  0  0  0  0  0  0  0  0
  135.0859   74.2715  219.4852 H   0  0  0  0  0  0  0  0  0  0  0  0
  136.3185   75.5257  219.8226 H   0  0  0  0  0  0  0  0  0  0  0  0
  136.9990   72.8050  219.1730 H   0  0  0  0  0  0  0  0  0  0  0  0
  139.1926   70.1677  221.9118 H   0  0  0  0  0  0  0  0  0  0  0  0
  140.5287   69.5979  222.9116 H   0  0  0  0  0  0  0  0  0  0  0  0
  137.7753   70.4957  224.0087 H   0  0  0  0  0  0  0  0  0  0  0  0
  138.2074   68.8033  223.7581 H   0  0  0  0  0  0  0  0  0  0  0  0
  138.3586   68.0584  226.0301 H   0  0  0  0  0  0  0  0  0  0  0  0
  139.6352   68.1256  228.1767 H   0  0  0  0  0  0  0  0  0  0  0  0
  141.3190   69.8707  228.5998 H   0  0  0  0  0  0  0  0  0  0  0  0
  141.7874   71.6281  226.8741 H   0  0  0  0  0  0  0  0  0  0  0  0
  140.3128   72.8392  224.8970 H   0  0  0  0  0  0  0  0  0  0  0  0
  141.7159   71.8619  224.3058 H   0  0  0  0  0  0  0  0  0  0  0  0
  139.6024   77.2708  222.4511 H   0  0  0  0  0  0  0  0  0  0  0  0
  141.0248   76.6295  223.4344 H   0  0  0  0  0  0  0  0  0  0  0  0
  140.8281   79.1175  222.6025 H   0  0  0  0  0  0  0  0  0  0  0  0
  142.3829   78.1782  222.7897 H   0  0  0  0  0  0  0  0  0  0  0  0
  141.6217   80.6365  220.9184 H   0  0  0  0  0  0  0  0  0  0  0  0
  142.1809   80.9908  218.5509 H   0  0  0  0  0  0  0  0  0  0  0  0
  142.6721   79.0687  217.0316 H   0  0  0  0  0  0  0  0  0  0  0  0
  142.5705   76.7700  217.9990 H   0  0  0  0  0  0  0  0  0  0  0  0
  141.8120   75.3513  219.7612 H   0  0  0  0  0  0  0  0  0  0  0  0
  142.9211   75.9007  221.0878 H   0  0  0  0  0  0  0  0  0  0  0  0
  134.1944   72.8560  221.6241 H   0  0  0  0  0  0  0  0  0  0  0  0
  135.8919   72.3615  221.4451 H   0  0  0  0  0  0  0  0  0  0  0  0
  136.7956   71.6461  222.8194 H   0  0  0  0  0  0  0  0  0  0  0  0
  136.8375   72.1586  224.5466 H   0  0  0  0  0  0  0  0  0  0  0  0
  134.5991   70.4578  223.3121 H   0  0  0  0  0  0  0  0  0  0  0  0
  135.9567   69.7642  224.1927 H   0  0  0  0  0  0  0  0  0  0  0  0
  135.2706   69.3303  226.5142 H   0  0  0  0  0  0  0  0  0  0  0  0
  134.0911   70.1840  228.5566 H   0  0  0  0  0  0  0  0  0  0  0  0
  132.8944   72.3579  228.4951 H   0  0  0  0  0  0  0  0  0  0  0  0
  132.8377   73.7218  226.4175 H   0  0  0  0  0  0  0  0  0  0  0  0
  133.3385   72.5286  223.3453 H   0  0  0  0  0  0  0  0  0  0  0  0
  133.8171   74.0601  224.2313 H   0  0  0  0  0  0  0  0  0  0  0  0
  1  2  1  0
  2  3  1  0
  3  4  1  0
  4  5  1  0
  5  6  2  0
  6  7  1  0
  7  8  1  0
  8  9  1  0
  9 10  1  0
 10 11  1  0
 11 12  2  0
 12 13  1  0
 13 14  2  0
 14 15  1  0
 15 16  2  0
 16 17  1  0
  7 18  2  0
 18 19  1  0
 19 20  1  0
 20 21  1  0
 21 22  1  0
 22 23  1  0
 23 24  2  0
 24 25  1  0
 25 26  2  0
 26 27  1  0
 27 28  2  0
 28 29  1  0
 19 30  2  0
  2 31  1  0
 31 32  1  0
 32 33  1  0
 33 34  1  0
 34 35  1  0
 35 36  2  0
 36 37  1  0
 37 38  2  0
 38 39  1  0
 39 40  2  0
 40 41  1  0
 30  5  1  0
 41 32  1  0
 17  8  1  0
 29 20  1  0
 40 35  1  0
 16 11  1  0
 28 23  1  0
  1 42  1  0
  1 43  1  0
  2 44  1  6
  3 45  1  0
  3 46  1  0
  4 47  1  0
  9 48  1  0
  9 49  1  0
 10 50  1  0
 10 51  1  0
 12 52  1  0
 13 53  1  0
 14 54  1  0
 15 55  1  0
 17 56  1  0
 17 57  1  0
 21 58  1  0
 21 59  1  0
 22 60  1  0
 22 61  1  0
 24 62  1  0
 25 63  1  0
 26 64  1  0
 27 65  1  0
 29 66  1  0
 29 67  1  0
 31 68  1  0
 31 69  1  0
 33 70  1  0
 33 71  1  0
 34 72  1  0
 34 73  1  0
 36 74  1  0
 37 75  1  0
 38 76  1  0
 39 77  1  0
 41 78  1  0
 41 79  1  0
M  END
>  <smiles>  (91) 
NC(CNc1nc(N2CCc3ccccc3C2)nc(N2CCc3ccccc3C2)n1)CN1CCc2ccccc2C1

>  <score_type>  (91) 
oracle

>  <origin>  (91) 
autodockgpu

>  <m_score__min__energy>  (91) 
-11.49

>  <m_primary>  (91) 
energy

>  <rmsd>  (91) 
5.985412052045889

>  <m_score__min__rmsd>  (91) 
5.985412052045889

>  <meeko>  (91) 
{"free_energy": -9.06, "intermolecular_energy": -11.44, "internal_energy": -3.5, "cluster_size": 2, "cluster_id": 9, "rank_in_cluster": 1}

>  <energy>  (91) 
-9.59

>  <cluster_rmsd>  (91) 
0.0

>  <cluster>  (91) 
6

$$$$

     RDKit          3D

 79 85  0  0  1  0  0  0  0  0999 V2000
  140.1550   72.9920  217.7850 N   0  0  0  0  0  0  0  0  0  0  0  0
  140.0670   74.3290  217.2380 C   0  0  1  0  0  0  0  0  0  0  0  0
  138.7290   74.9570  217.5060 C   0  0  0  0  0  0  0  0  0  0  0  0
  138.0450   74.1790  218.5150 N   0  0  0  0  0  0  0  0  0  0  0  0
  138.5790   74.2260  219.8510 C   0  0  0  0  0  0  0  0  0  0  0  0
  138.8810   75.4040  220.4490 N   0  0  0  0  0  0  0  0  0  0  0  0
  139.3820   75.4650  221.6950 C   0  0  0  0  0  0  0  0  0  0  0  0
  139.7050   76.6940  222.3390 N   0  0  0  0  0  0  0  0  0  0  0  0
  138.6610   77.6370  222.7000 C   0  0  0  0  0  0  0  0  0  0  0  0
  138.9190   78.8580  221.8290 C   0  0  0  0  0  0  0  0  0  0  0  0
  140.2380   79.3990  222.2980 C   0  0  0  0  0  0  0  0  0  0  0  0
  140.4150   80.7800  222.3310 C   0  0  0  0  0  0  0  0  0  0  0  0
  141.6460   81.2540  222.7700 C   0  0  0  0  0  0  0  0  0  0  0  0
  142.6550   80.3960  223.1590 C   0  0  0  0  0  0  0  0  0  0  0  0
  142.4690   79.0150  223.1230 C   0  0  0  0  0  0  0  0  0  0  0  0
  141.2480   78.5430  222.6880 C   0  0  0  0  0  0  0  0  0  0  0  0
  141.0720   77.0540  222.6590 C   0  0  0  0  0  0  0  0  0  0  0  0
  139.5820   74.3110  222.3520 N   0  0  0  0  0  0  0  0  0  0  0  0
  139.3020   73.0980  221.8130 C   0  0  0  0  0  0  0  0  0  0  0  0
  139.5370   71.9090  222.5610 N   0  0  0  0  0  0  0  0  0  0  0  0
  138.5900   70.8420  222.5130 C   0  0  0  0  0  0  0  0  0  0  0  0
  138.7930   69.7590  223.4990 C   0  0  0  0  0  0  0  0  0  0  0  0
  139.4690   70.2090  224.7320 C   0  0  0  0  0  0  0  0  0  0  0  0
  139.1890   69.6700  225.9630 C   0  0  0  0  0  0  0  0  0  0  0  0
  139.8360   70.1040  227.1110 C   0  0  0  0  0  0  0  0  0  0  0  0
  140.7970   71.1030  227.0760 C   0  0  0  0  0  0  0  0  0  0  0  0
  141.0800   71.6450  225.8380 C   0  0  0  0  0  0  0  0  0  0  0  0
  140.4390   71.2150  224.7030 C   0  0  0  0  0  0  0  0  0  0  0  0
  140.7310   71.7890  223.3660 C   0  0  0  0  0  0  0  0  0  0  0  0
  138.8050   73.1060  220.5680 N   0  0  0  0  0  0  0  0  0  0  0  0
  141.1360   75.1760  217.8860 C   0  0  0  0  0  0  0  0  0  0  0  0
  141.8930   74.2930  218.7810 N   0  0  0  0  0  0  0  0  0  0  0  0
  142.1640   75.0170  219.9800 C   0  0  0  0  0  0  0  0  0  0  0  0
  143.5860   75.5660  219.9560 C   0  0  0  0  0  0  0  0  0  0  0  0
  144.4610   74.3410  219.9880 C   0  0  0  0  0  0  0  0  0  0  0  0
  145.4780   74.1870  220.8970 C   0  0  0  0  0  0  0  0  0  0  0  0
  146.2080   73.0100  220.8220 C   0  0  0  0  0  0  0  0  0  0  0  0
  145.9060   72.0440  219.8590 C   0  0  0  0  0  0  0  0  0  0  0  0
  144.8750   72.2290  218.9560 C   0  0  0  0  0  0  0  0  0  0  0  0
  144.1530   73.3820  219.0250 C   0  0  0  0  0  0  0  0  0  0  0  0
  143.0180   73.7180  218.1210 C   0  0  0  0  0  0  0  0  0  0  0  0
  140.9210   72.4410  217.3660 H   0  0  0  0  0  0  0  0  0  0  0  0
  140.0980   72.9610  218.8110 H   0  0  0  0  0  0  0  0  0  0  0  0
  140.2019   74.2680  216.1480 H   0  0  0  0  0  0  0  0  0  0  0  0
  138.8690   75.9873  217.8649 H   0  0  0  0  0  0  0  0  0  0  0  0
  138.1332   74.9782  216.5816 H   0  0  0  0  0  0  0  0  0  0  0  0
  137.2110   73.5980  218.3660 H   0  0  0  0  0  0  0  0  0  0  0  0
  137.6676   77.2141  222.4894 H   0  0  0  0  0  0  0  0  0  0  0  0
  138.6766   77.8821  223.7722 H   0  0  0  0  0  0  0  0  0  0  0  0
  138.9739   78.5715  220.7684 H   0  0  0  0  0  0  0  0  0  0  0  0
  138.1139   79.6028  221.9132 H   0  0  0  0  0  0  0  0  0  0  0  0
  139.6137   81.4675  222.0224 H   0  0  0  0  0  0  0  0  0  0  0  0
  141.8203   82.3394  222.8083 H   0  0  0  0  0  0  0  0  0  0  0  0
  143.6164   80.8066  223.5011 H   0  0  0  0  0  0  0  0  0  0  0  0
  143.2686   78.3252  223.4310 H   0  0  0  0  0  0  0  0  0  0  0  0
  141.7427   76.6282  221.8982 H   0  0  0  0  0  0  0  0  0  0  0  0
  141.3131   76.6553  223.6554 H   0  0  0  0  0  0  0  0  0  0  0  0
  137.5906   71.2695  222.6816 H   0  0  0  0  0  0  0  0  0  0  0  0
  138.7148   70.3749  221.5250 H   0  0  0  0  0  0  0  0  0  0  0  0
  137.8104   69.3459  223.7707 H   0  0  0  0  0  0  0  0  0  0  0  0
  139.4433   69.0076  223.0274 H   0  0  0  0  0  0  0  0  0  0  0  0
  138.4332   68.8746  226.0412 H   0  0  0  0  0  0  0  0  0  0  0  0
  139.5794   69.6426  228.0760 H   0  0  0  0  0  0  0  0  0  0  0  0
  141.3077   71.4461  227.9878 H   0  0  0  0  0  0  0  0  0  0  0  0
  141.8366   72.4397  225.7595 H   0  0  0  0  0  0  0  0  0  0  0  0
  141.1744   72.7872  223.4962 H   0  0  0  0  0  0  0  0  0  0  0  0
  141.4261   71.1121  222.8477 H   0  0  0  0  0  0  0  0  0  0  0  0
  141.8016   75.5979  217.1186 H   0  0  0  0  0  0  0  0  0  0  0  0
  140.6916   76.0144  218.4424 H   0  0  0  0  0  0  0  0  0  0  0  0
  141.4538   75.8524  220.0679 H   0  0  0  0  0  0  0  0  0  0  0  0
  142.0564   74.3392  220.8396 H   0  0  0  0  0  0  0  0  0  0  0  0
  143.7634   76.1472  219.0391 H   0  0  0  0  0  0  0  0  0  0  0  0
  143.7868   76.2468  220.7963 H   0  0  0  0  0  0  0  0  0  0  0  0
  145.7029   74.9588  221.6478 H   0  0  0  0  0  0  0  0  0  0  0  0
  147.0332   72.8354  221.5281 H   0  0  0  0  0  0  0  0  0  0  0  0
  146.4995   71.1187  219.8182 H   0  0  0  0  0  0  0  0  0  0  0  0
  144.6436   71.4637  218.2005 H   0  0  0  0  0  0  0  0  0  0  0  0
  143.3781   74.4337  217.3672 H   0  0  0  0  0  0  0  0  0  0  0  0
  142.6746   72.7702  217.6808 H   0  0  0  0  0  0  0  0  0  0  0  0
  1  2  1  0
  2  3  1  0
  3  4  1  0
  4  5  1  0
  5  6  2  0
  6  7  1  0
  7  8  1  0
  8  9  1  0
  9 10  1  0
 10 11  1  0
 11 12  2  0
 12 13  1  0
 13 14  2  0
 14 15  1  0
 15 16  2  0
 16 17  1  0
  7 18  2  0
 18 19  1  0
 19 20  1  0
 20 21  1  0
 21 22  1  0
 22 23  1  0
 23 24  2  0
 24 25  1  0
 25 26  2  0
 26 27  1  0
 27 28  2  0
 28 29  1  0
 19 30  2  0
  2 31  1  0
 31 32  1  0
 32 33  1  0
 33 34  1  0
 34 35  1  0
 35 36  2  0
 36 37  1  0
 37 38  2  0
 38 39  1  0
 39 40  2  0
 40 41  1  0
 30  5  1  0
 41 32  1  0
 17  8  1  0
 29 20  1  0
 40 35  1  0
 16 11  1  0
 28 23  1  0
  1 42  1  0
  1 43  1  0
  2 44  1  6
  3 45  1  0
  3 46  1  0
  4 47  1  0
  9 48  1  0
  9 49  1  0
 10 50  1  0
 10 51  1  0
 12 52  1  0
 13 53  1  0
 14 54  1  0
 15 55  1  0
 17 56  1  0
 17 57  1  0
 21 58  1  0
 21 59  1  0
 22 60  1  0
 22 61  1  0
 24 62  1  0
 25 63  1  0
 26 64  1  0
 27 65  1  0
 29 66  1  0
 29 67  1  0
 31 68  1  0
 31 69  1  0
 33 70  1  0
 33 71  1  0
 34 72  1  0
 34 73  1  0
 36 74  1  0
 37 75  1  0
 38 76  1  0
 39 77  1  0
 41 78  1  0
 41 79  1  0
M  END
>  <smiles>  (92) 
NC(CNc1nc(N2CCc3ccccc3C2)nc(N2CCc3ccccc3C2)n1)CN1CCc2ccccc2C1

>  <score_type>  (92) 
oracle

>  <origin>  (92) 
autodockgpu

>  <m_score__min__energy>  (92) 
-11.49

>  <m_primary>  (92) 
energy

>  <rmsd>  (92) 
7.830529943902666

>  <m_score__min__rmsd>  (92) 
7.830529943902666

>  <meeko>  (92) 
{"free_energy": -9.59, "intermolecular_energy": -11.98, "internal_energy": -3.8, "cluster_size": 2, "cluster_id": 6, "rank_in_cluster": 1}

>  <energy>  (92) 
-8.69

>  <cluster_rmsd>  (92) 
0.76

>  <cluster>  (92) 
6

$$$$

     RDKit          3D

 79 85  0  0  1  0  0  0  0  0999 V2000
  139.7110   74.2560  222.3950 N   0  0  0  0  0  0  0  0  0  0  0  0
  139.5110   74.3910  220.9680 C   0  0  1  0  0  0  0  0  0  0  0  0
  138.2540   73.7070  220.5120 C   0  0  0  0  0  0  0  0  0  0  0  0
  137.2090   73.9660  221.4770 N   0  0  0  0  0  0  0  0  0  0  0  0
  136.8770   72.8990  222.3850 C   0  0  0  0  0  0  0  0  0  0  0  0
  135.5920   72.6360  222.7250 N   0  0  0  0  0  0  0  0  0  0  0  0
  135.2650   71.6450  223.5720 C   0  0  0  0  0  0  0  0  0  0  0  0
  133.9200   71.3550  223.9410 N   0  0  0  0  0  0  0  0  0  0  0  0
  132.9480   72.4220  224.0930 C   0  0  0  0  0  0  0  0  0  0  0  0
  132.5930   72.4200  225.5740 C   0  0  0  0  0  0  0  0  0  0  0  0
  131.9050   71.1060  225.8070 C   0  0  0  0  0  0  0  0  0  0  0  0
  130.8400   71.0640  226.7020 C   0  0  0  0  0  0  0  0  0  0  0  0
  130.2210   69.8350  226.8980 C   0  0  0  0  0  0  0  0  0  0  0  0
  130.6390   68.6990  226.2360 C   0  0  0  0  0  0  0  0  0  0  0  0
  131.7070   68.7500  225.3410 C   0  0  0  0  0  0  0  0  0  0  0  0
  132.3220   69.9690  225.1450 C   0  0  0  0  0  0  0  0  0  0  0  0
  133.4680   69.9980  224.1770 C   0  0  0  0  0  0  0  0  0  0  0  0
  136.2590   70.9010  224.0870 N   0  0  0  0  0  0  0  0  0  0  0  0
  137.5650   71.1100  223.7890 C   0  0  0  0  0  0  0  0  0  0  0  0
  138.5740   70.2880  224.3680 N   0  0  0  0  0  0  0  0  0  0  0  0
  138.3480   68.8860  224.5150 C   0  0  0  0  0  0  0  0  0  0  0  0
  139.3380   68.1600  225.3380 C   0  0  0  0  0  0  0  0  0  0  0  0
  139.9810   69.0060  226.3640 C   0  0  0  0  0  0  0  0  0  0  0  0
  140.3610   68.5160  227.5880 C   0  0  0  0  0  0  0  0  0  0  0  0
  140.9650   69.3260  228.5390 C   0  0  0  0  0  0  0  0  0  0  0  0
  141.2160   70.6690  228.3050 C   0  0  0  0  0  0  0  0  0  0  0  0
  140.8340   71.1620  227.0730 C   0  0  0  0  0  0  0  0  0  0  0  0
  140.2360   70.3610  226.1330 C   0  0  0  0  0  0  0  0  0  0  0  0
  139.8190   70.8760  224.8050 C   0  0  0  0  0  0  0  0  0  0  0  0
  137.8240   72.1140  222.9380 N   0  0  0  0  0  0  0  0  0  0  0  0
  139.4060   75.8620  220.6420 C   0  0  0  0  0  0  0  0  0  0  0  0
  139.9890   76.5910  221.7750 N   0  0  0  0  0  0  0  0  0  0  0  0
  138.9230   77.2250  222.4800 C   0  0  0  0  0  0  0  0  0  0  0  0
  138.8300   78.6940  222.0860 C   0  0  0  0  0  0  0  0  0  0  0  0
  140.1070   79.3030  222.6020 C   0  0  0  0  0  0  0  0  0  0  0  0
  140.1200   80.4260  223.3900 C   0  0  0  0  0  0  0  0  0  0  0  0
  141.3630   80.8840  223.8020 C   0  0  0  0  0  0  0  0  0  0  0  0
  142.5310   80.2180  223.4180 C   0  0  0  0  0  0  0  0  0  0  0  0
  142.4830   79.0890  222.6230 C   0  0  0  0  0  0  0  0  0  0  0  0
  141.2670   78.6330  222.2160 C   0  0  0  0  0  0  0  0  0  0  0  0
  141.0620   77.4320  221.3590 C   0  0  0  0  0  0  0  0  0  0  0  0
  139.2010   74.9710  222.9370 H   0  0  0  0  0  0  0  0  0  0  0  0
  139.6160   73.2910  222.7370 H   0  0  0  0  0  0  0  0  0  0  0  0
  140.3609   73.9205  220.4519 H   0  0  0  0  0  0  0  0  0  0  0  0
  137.9552   74.0990  219.5286 H   0  0  0  0  0  0  0  0  0  0  0  0
  138.4262   72.6238  220.4277 H   0  0  0  0  0  0  0  0  0  0  0  0
  136.6830   74.8420  221.5750 H   0  0  0  0  0  0  0  0  0  0  0  0
  133.3851   73.3883  223.8010 H   0  0  0  0  0  0  0  0  0  0  0  0
  132.0646   72.2716  223.4550 H   0  0  0  0  0  0  0  0  0  0  0  0
  133.5016   72.4951  226.1895 H   0  0  0  0  0  0  0  0  0  0  0  0
  131.9559   73.2741  225.8473 H   0  0  0  0  0  0  0  0  0  0  0  0
  130.5020   71.9664  227.2325 H   0  0  0  0  0  0  0  0  0  0  0  0
  129.3761   69.7663  227.5990 H   0  0  0  0  0  0  0  0  0  0  0  0
  130.1246   67.7435  226.4160 H   0  0  0  0  0  0  0  0  0  0  0  0
  132.0474   67.8491  224.8095 H   0  0  0  0  0  0  0  0  0  0  0  0
  134.3007   69.4089  224.5888 H   0  0  0  0  0  0  0  0  0  0  0  0
  133.1278   69.5728  223.2213 H   0  0  0  0  0  0  0  0  0  0  0  0
  137.3592   68.7497  224.9773 H   0  0  0  0  0  0  0  0  0  0  0  0
  138.4299   68.4614  223.5035 H   0  0  0  0  0  0  0  0  0  0  0  0
  138.8276   67.3266  225.8430 H   0  0  0  0  0  0  0  0  0  0  0  0
  140.1313   67.8121  224.6601 H   0  0  0  0  0  0  0  0  0  0  0  0
  140.1826   67.4558  227.8209 H   0  0  0  0  0  0  0  0  0  0  0  0
  141.2530   68.8897  229.5068 H   0  0  0  0  0  0  0  0  0  0  0  0
  141.6945   71.3086  229.0612 H   0  0  0  0  0  0  0  0  0  0  0  0
  141.0133   72.2219  226.8396 H   0  0  0  0  0  0  0  0  0  0  0  0
  139.6942   71.9670  224.8694 H   0  0  0  0  0  0  0  0  0  0  0  0
  140.5976   70.6094  224.0752 H   0  0  0  0  0  0  0  0  0  0  0  0
  139.9633   76.0862  219.7205 H   0  0  0  0  0  0  0  0  0  0  0  0
  138.3585   76.1564  220.4806 H   0  0  0  0  0  0  0  0  0  0  0  0
  137.9758   76.7225  222.2344 H   0  0  0  0  0  0  0  0  0  0  0  0
  139.1167   77.1554  223.5606 H   0  0  0  0  0  0  0  0  0  0  0  0
  138.7622   78.8002  220.9932 H   0  0  0  0  0  0  0  0  0  0  0  0
  137.9357   79.1828  222.4999 H   0  0  0  0  0  0  0  0  0  0  0  0
  139.1908   80.9379  223.6807 H   0  0  0  0  0  0  0  0  0  0  0  0
  141.4304   81.7797  224.4369 H   0  0  0  0  0  0  0  0  0  0  0  0
  143.5060   80.5999  223.7550 H   0  0  0  0  0  0  0  0  0  0  0  0
  143.4065   78.5705  222.3258 H   0  0  0  0  0  0  0  0  0  0  0  0
  140.8557   77.7718  220.3333 H   0  0  0  0  0  0  0  0  0  0  0  0
  141.9804   76.8312  221.4336 H   0  0  0  0  0  0  0  0  0  0  0  0
  1  2  1  0
  2  3  1  0
  3  4  1  0
  4  5  1  0
  5  6  2  0
  6  7  1  0
  7  8  1  0
  8  9  1  0
  9 10  1  0
 10 11  1  0
 11 12  2  0
 12 13  1  0
 13 14  2  0
 14 15  1  0
 15 16  2  0
 16 17  1  0
  7 18  2  0
 18 19  1  0
 19 20  1  0
 20 21  1  0
 21 22  1  0
 22 23  1  0
 23 24  2  0
 24 25  1  0
 25 26  2  0
 26 27  1  0
 27 28  2  0
 28 29  1  0
 19 30  2  0
  2 31  1  0
 31 32  1  0
 32 33  1  0
 33 34  1  0
 34 35  1  0
 35 36  2  0
 36 37  1  0
 37 38  2  0
 38 39  1  0
 39 40  2  0
 40 41  1  0
 30  5  1  0
 41 32  1  0
 17  8  1  0
 29 20  1  0
 40 35  1  0
 16 11  1  0
 28 23  1  0
  1 42  1  0
  1 43  1  0
  2 44  1  6
  3 45  1  0
  3 46  1  0
  4 47  1  0
  9 48  1  0
  9 49  1  0
 10 50  1  0
 10 51  1  0
 12 52  1  0
 13 53  1  0
 14 54  1  0
 15 55  1  0
 17 56  1  0
 17 57  1  0
 21 58  1  0
 21 59  1  0
 22 60  1  0
 22 61  1  0
 24 62  1  0
 25 63  1  0
 26 64  1  0
 27 65  1  0
 29 66  1  0
 29 67  1  0
 31 68  1  0
 31 69  1  0
 33 70  1  0
 33 71  1  0
 34 72  1  0
 34 73  1  0
 36 74  1  0
 37 75  1  0
 38 76  1  0
 39 77  1  0
 41 78  1  0
 41 79  1  0
M  END
>  <smiles>  (93) 
NC(CNc1nc(N2CCc3ccccc3C2)nc(N2CCc3ccccc3C2)n1)CN1CCc2ccccc2C1

>  <score_type>  (93) 
oracle

>  <origin>  (93) 
autodockgpu

>  <m_score__min__energy>  (93) 
-11.49

>  <m_primary>  (93) 
energy

>  <rmsd>  (93) 
9.165014140666832

>  <m_score__min__rmsd>  (93) 
9.165014140666832

>  <meeko>  (93) 
{"free_energy": -9.93, "intermolecular_energy": -12.31, "internal_energy": -2.65, "cluster_size": 16, "cluster_id": 1, "rank_in_cluster": 14}

>  <energy>  (93) 
-9.3

>  <cluster_rmsd>  (93) 
0.0

>  <cluster>  (93) 
7

$$$$

     RDKit          3D

 79 85  0  0  1  0  0  0  0  0999 V2000
  139.5900   74.7080  222.6900 N   0  0  0  0  0  0  0  0  0  0  0  0
  139.8840   75.0090  221.3060 C   0  0  1  0  0  0  0  0  0  0  0  0
  139.5090   73.8760  220.3940 C   0  0  0  0  0  0  0  0  0  0  0  0
  138.0930   73.6160  220.5350 N   0  0  0  0  0  0  0  0  0  0  0  0
  137.6640   72.9700  221.7470 C   0  0  0  0  0  0  0  0  0  0  0  0
  136.4860   73.2890  222.3380 N   0  0  0  0  0  0  0  0  0  0  0  0
  136.0720   72.6960  223.4710 C   0  0  0  0  0  0  0  0  0  0  0  0
  134.8380   73.0190  224.1060 N   0  0  0  0  0  0  0  0  0  0  0  0
  134.2780   74.3540  223.9990 C   0  0  0  0  0  0  0  0  0  0  0  0
  134.3230   74.9120  225.4150 C   0  0  0  0  0  0  0  0  0  0  0  0
  133.3740   74.0540  226.2010 C   0  0  0  0  0  0  0  0  0  0  0  0
  132.6020   74.6540  227.1920 C   0  0  0  0  0  0  0  0  0  0  0  0
  131.7310   73.8370  227.9030 C   0  0  0  0  0  0  0  0  0  0  0  0
  131.6310   72.4850  227.6430 C   0  0  0  0  0  0  0  0  0  0  0  0
  132.4080   71.8930  226.6480 C   0  0  0  0  0  0  0  0  0  0  0  0
  133.2720   72.7020  225.9410 C   0  0  0  0  0  0  0  0  0  0  0  0
  134.0950   72.0410  224.8770 C   0  0  0  0  0  0  0  0  0  0  0  0
  136.8630   71.7590  224.0200 N   0  0  0  0  0  0  0  0  0  0  0  0
  138.0520   71.3930  223.4810 C   0  0  0  0  0  0  0  0  0  0  0  0
  138.8470   70.3920  224.1100 N   0  0  0  0  0  0  0  0  0  0  0  0
  138.3890   69.0410  224.1470 C   0  0  0  0  0  0  0  0  0  0  0  0
  139.1530   68.1270  225.0230 C   0  0  0  0  0  0  0  0  0  0  0  0
  139.8020   68.8120  226.1600 C   0  0  0  0  0  0  0  0  0  0  0  0
  139.9600   68.2130  227.3850 C   0  0  0  0  0  0  0  0  0  0  0  0
  140.5720   68.8710  228.4410 C   0  0  0  0  0  0  0  0  0  0  0  0
  141.0560   70.1650  228.3170 C   0  0  0  0  0  0  0  0  0  0  0  0
  140.8980   70.7670  227.0850 C   0  0  0  0  0  0  0  0  0  0  0  0
  140.2910   70.1160  226.0400 C   0  0  0  0  0  0  0  0  0  0  0  0
  140.1120   70.7500  224.7110 C   0  0  0  0  0  0  0  0  0  0  0  0
  138.4080   72.0210  222.3510 N   0  0  0  0  0  0  0  0  0  0  0  0
  139.0910   76.2310  220.9080 C   0  0  0  0  0  0  0  0  0  0  0  0
  139.3820   77.2690  221.9040 N   0  0  0  0  0  0  0  0  0  0  0  0
  138.7130   78.4620  221.4980 C   0  0  0  0  0  0  0  0  0  0  0  0
  139.6890   79.4050  220.8030 C   0  0  0  0  0  0  0  0  0  0  0  0
  140.6590   79.8030  221.8830 C   0  0  0  0  0  0  0  0  0  0  0  0
  140.9580   81.1140  222.1560 C   0  0  0  0  0  0  0  0  0  0  0  0
  141.8670   81.3480  223.1780 C   0  0  0  0  0  0  0  0  0  0  0  0
  142.4370   80.2830  223.8810 C   0  0  0  0  0  0  0  0  0  0  0  0
  142.1140   78.9720  223.5830 C   0  0  0  0  0  0  0  0  0  0  0  0
  141.2230   78.7360  222.5810 C   0  0  0  0  0  0  0  0  0  0  0  0
  140.7820   77.3800  222.1490 C   0  0  0  0  0  0  0  0  0  0  0  0
  139.0610   75.4630  223.1560 H   0  0  0  0  0  0  0  0  0  0  0  0
  139.2270   73.7580  222.8380 H   0  0  0  0  0  0  0  0  0  0  0  0
  140.9667   75.1786  221.2108 H   0  0  0  0  0  0  0  0  0  0  0  0
  139.7331   74.1496  219.3524 H   0  0  0  0  0  0  0  0  0  0  0  0
  140.0834   72.9760  220.6588 H   0  0  0  0  0  0  0  0  0  0  0  0
  137.3660   73.8530  219.8500 H   0  0  0  0  0  0  0  0  0  0  0  0
  134.8816   74.9736  223.3194 H   0  0  0  0  0  0  0  0  0  0  0  0
  133.2568   74.3433  223.5902 H   0  0  0  0  0  0  0  0  0  0  0  0
  135.3405   74.8403  225.8267 H   0  0  0  0  0  0  0  0  0  0  0  0
  134.0437   75.9754  225.4492 H   0  0  0  0  0  0  0  0  0  0  0  0
  132.6783   75.7307  227.4037 H   0  0  0  0  0  0  0  0  0  0  0  0
  131.1056   74.2788  228.6927 H   0  0  0  0  0  0  0  0  0  0  0  0
  130.9314   71.8685  228.2266 H   0  0  0  0  0  0  0  0  0  0  0  0
  132.3341   70.8165  226.4343 H   0  0  0  0  0  0  0  0  0  0  0  0
  134.8027   71.3451  225.3512 H   0  0  0  0  0  0  0  0  0  0  0  0
  133.4183   71.5024  224.1972 H   0  0  0  0  0  0  0  0  0  0  0  0
  137.3453   69.0477  224.4943 H   0  0  0  0  0  0  0  0  0  0  0  0
  138.5177   68.6535  223.1256 H   0  0  0  0  0  0  0  0  0  0  0  0
  138.4638   67.3674  225.4205 H   0  0  0  0  0  0  0  0  0  0  0  0
  139.9523   67.6828  224.4116 H   0  0  0  0  0  0  0  0  0  0  0  0
  139.5924   67.1868  227.5324 H   0  0  0  0  0  0  0  0  0  0  0  0
  140.6767   68.3518  229.4051 H   0  0  0  0  0  0  0  0  0  0  0  0
  141.5406   70.6844  229.1569 H   0  0  0  0  0  0  0  0  0  0  0  0
  141.2672   71.7926  226.9371 H   0  0  0  0  0  0  0  0  0  0  0  0
  140.1529   71.8428  224.8297 H   0  0  0  0  0  0  0  0  0  0  0  0
  140.9165   70.3929  224.0513 H   0  0  0  0  0  0  0  0  0  0  0  0
  139.3958   76.5706  219.9071 H   0  0  0  0  0  0  0  0  0  0  0  0
  138.0143   76.0084  220.8733 H   0  0  0  0  0  0  0  0  0  0  0  0
  137.9004   78.2039  220.8030 H   0  0  0  0  0  0  0  0  0  0  0  0
  138.3030   78.9629  222.3873 H   0  0  0  0  0  0  0  0  0  0  0  0
  140.2100   78.8902  219.9823 H   0  0  0  0  0  0  0  0  0  0  0  0
  139.1847   80.2724  220.3522 H   0  0  0  0  0  0  0  0  0  0  0  0
  140.4993   81.9396  221.5920 H   0  0  0  0  0  0  0  0  0  0  0  0
  142.1415   82.3812  223.4372 H   0  0  0  0  0  0  0  0  0  0  0  0
  143.1562   80.4917  224.6867 H   0  0  0  0  0  0  0  0  0  0  0  0
  142.5661   78.1396  224.1421 H   0  0  0  0  0  0  0  0  0  0  0  0
  141.3154   77.1233  221.2219 H   0  0  0  0  0  0  0  0  0  0  0  0
  141.0121   76.6948  222.9782 H   0  0  0  0  0  0  0  0  0  0  0  0
  1  2  1  0
  2  3  1  0
  3  4  1  0
  4  5  1  0
  5  6  2  0
  6  7  1  0
  7  8  1  0
  8  9  1  0
  9 10  1  0
 10 11  1  0
 11 12  2  0
 12 13  1  0
 13 14  2  0
 14 15  1  0
 15 16  2  0
 16 17  1  0
  7 18  2  0
 18 19  1  0
 19 20  1  0
 20 21  1  0
 21 22  1  0
 22 23  1  0
 23 24  2  0
 24 25  1  0
 25 26  2  0
 26 27  1  0
 27 28  2  0
 28 29  1  0
 19 30  2  0
  2 31  1  0
 31 32  1  0
 32 33  1  0
 33 34  1  0
 34 35  1  0
 35 36  2  0
 36 37  1  0
 37 38  2  0
 38 39  1  0
 39 40  2  0
 40 41  1  0
 30  5  1  0
 41 32  1  0
 17  8  1  0
 29 20  1  0
 40 35  1  0
 16 11  1  0
 28 23  1  0
  1 42  1  0
  1 43  1  0
  2 44  1  1
  3 45  1  0
  3 46  1  0
  4 47  1  0
  9 48  1  0
  9 49  1  0
 10 50  1  0
 10 51  1  0
 12 52  1  0
 13 53  1  0
 14 54  1  0
 15 55  1  0
 17 56  1  0
 17 57  1  0
 21 58  1  0
 21 59  1  0
 22 60  1  0
 22 61  1  0
 24 62  1  0
 25 63  1  0
 26 64  1  0
 27 65  1  0
 29 66  1  0
 29 67  1  0
 31 68  1  0
 31 69  1  0
 33 70  1  0
 33 71  1  0
 34 72  1  0
 34 73  1  0
 36 74  1  0
 37 75  1  0
 38 76  1  0
 39 77  1  0
 41 78  1  0
 41 79  1  0
M  END
>  <smiles>  (94) 
NC(CNc1nc(N2CCc3ccccc3C2)nc(N2CCc3ccccc3C2)n1)CN1CCc2ccccc2C1

>  <score_type>  (94) 
oracle

>  <origin>  (94) 
autodockgpu

>  <m_score__min__energy>  (94) 
-11.49

>  <m_primary>  (94) 
energy

>  <rmsd>  (94) 
9.648290520904837

>  <m_score__min__rmsd>  (94) 
9.648290520904837

>  <meeko>  (94) 
{"free_energy": -11.32, "intermolecular_energy": -13.7, "internal_energy": -2.46, "cluster_size": 16, "cluster_id": 1, "rank_in_cluster": 3}

>  <energy>  (94) 
-8.92

>  <cluster_rmsd>  (94) 
1.7

>  <cluster>  (94) 
7

$$$$

     RDKit          3D

 79 85  0  0  1  0  0  0  0  0999 V2000
  139.2210   74.8530  222.4570 N   0  0  0  0  0  0  0  0  0  0  0  0
  139.8120   74.7470  221.1410 C   0  0  1  0  0  0  0  0  0  0  0  0
  138.7700   74.6210  220.0670 C   0  0  0  0  0  0  0  0  0  0  0  0
  138.2020   73.2920  220.1250 N   0  0  0  0  0  0  0  0  0  0  0  0
  137.8000   72.8080  221.4200 C   0  0  0  0  0  0  0  0  0  0  0  0
  136.6710   73.2560  222.0210 N   0  0  0  0  0  0  0  0  0  0  0  0
  136.2830   72.8160  223.2310 C   0  0  0  0  0  0  0  0  0  0  0  0
  135.1000   73.2760  223.8770 N   0  0  0  0  0  0  0  0  0  0  0  0
  134.6340   74.6380  223.6870 C   0  0  0  0  0  0  0  0  0  0  0  0
  134.7710   75.2920  225.0540 C   0  0  0  0  0  0  0  0  0  0  0  0
  133.7920   74.5680  225.9320 C   0  0  0  0  0  0  0  0  0  0  0  0
  133.1030   75.2950  226.8990 C   0  0  0  0  0  0  0  0  0  0  0  0
  132.2030   74.6000  227.6970 C   0  0  0  0  0  0  0  0  0  0  0  0
  131.9960   73.2440  227.5440 C   0  0  0  0  0  0  0  0  0  0  0  0
  132.6900   72.5230  226.5730 C   0  0  0  0  0  0  0  0  0  0  0  0
  133.5840   73.2120  225.7800 C   0  0  0  0  0  0  0  0  0  0  0  0
  134.3180   72.4150  224.7430 C   0  0  0  0  0  0  0  0  0  0  0  0
  137.0520   71.9020  223.8470 N   0  0  0  0  0  0  0  0  0  0  0  0
  138.1920   71.4120  223.3020 C   0  0  0  0  0  0  0  0  0  0  0  0
  138.9650   70.4440  224.0050 N   0  0  0  0  0  0  0  0  0  0  0  0
  138.5140   69.0920  224.0770 C   0  0  0  0  0  0  0  0  0  0  0  0
  139.2440   68.2200  225.0210 C   0  0  0  0  0  0  0  0  0  0  0  0
  139.8390   68.9550  226.1560 C   0  0  0  0  0  0  0  0  0  0  0  0
  139.9470   68.4070  227.4100 C   0  0  0  0  0  0  0  0  0  0  0  0
  140.5100   69.1130  228.4650 C   0  0  0  0  0  0  0  0  0  0  0  0
  140.9910   70.4040  228.3090 C   0  0  0  0  0  0  0  0  0  0  0  0
  140.8830   70.9540  227.0470 C   0  0  0  0  0  0  0  0  0  0  0  0
  140.3260   70.2570  226.0050 C   0  0  0  0  0  0  0  0  0  0  0  0
  140.2010   70.8350  224.6440 C   0  0  0  0  0  0  0  0  0  0  0  0
  138.5240   71.8910  222.0940 N   0  0  0  0  0  0  0  0  0  0  0  0
  140.6220   75.9960  220.8830 C   0  0  0  0  0  0  0  0  0  0  0  0
  142.0310   75.5860  220.8370 N   0  0  0  0  0  0  0  0  0  0  0  0
  142.6230   76.1930  219.6900 C   0  0  0  0  0  0  0  0  0  0  0  0
  142.6990   75.1920  218.5430 C   0  0  0  0  0  0  0  0  0  0  0  0
  143.6690   74.1450  219.0230 C   0  0  0  0  0  0  0  0  0  0  0  0
  144.7490   73.7450  218.2760 C   0  0  0  0  0  0  0  0  0  0  0  0
  145.5670   72.7740  218.8340 C   0  0  0  0  0  0  0  0  0  0  0  0
  145.2850   72.2420  220.0950 C   0  0  0  0  0  0  0  0  0  0  0  0
  144.1880   72.6660  220.8230 C   0  0  0  0  0  0  0  0  0  0  0  0
  143.3810   73.6200  220.2820 C   0  0  0  0  0  0  0  0  0  0  0  0
  142.1680   74.1710  220.9470 C   0  0  0  0  0  0  0  0  0  0  0  0
  138.7230   75.7460  222.5980 H   0  0  0  0  0  0  0  0  0  0  0  0
  138.7090   74.0100  222.7490 H   0  0  0  0  0  0  0  0  0  0  0  0
  140.4390   73.8436  221.1146 H   0  0  0  0  0  0  0  0  0  0  0  0
  137.9795   75.3687  220.2287 H   0  0  0  0  0  0  0  0  0  0  0  0
  139.2263   74.7907  219.0806 H   0  0  0  0  0  0  0  0  0  0  0  0
  138.0580   72.6630  219.3260 H   0  0  0  0  0  0  0  0  0  0  0  0
  135.2553   75.1597  222.9442 H   0  0  0  0  0  0  0  0  0  0  0  0
  133.6005   74.6739  223.3121 H   0  0  0  0  0  0  0  0  0  0  0  0
  135.7951   75.1741  225.4379 H   0  0  0  0  0  0  0  0  0  0  0  0
  134.5708   76.3730  225.0164 H   0  0  0  0  0  0  0  0  0  0  0  0
  133.2647   76.3756  227.0260 H   0  0  0  0  0  0  0  0  0  0  0  0
  131.6411   75.1442  228.4704 H   0  0  0  0  0  0  0  0  0  0  0  0
  131.2759   72.7266  228.1950 H   0  0  0  0  0  0  0  0  0  0  0  0
  132.5301   71.4424  226.4439 H   0  0  0  0  0  0  0  0  0  0  0  0
  134.9911   71.7051  225.2460 H   0  0  0  0  0  0  0  0  0  0  0  0
  133.5797   71.8798  224.1278 H   0  0  0  0  0  0  0  0  0  0  0  0
  137.4561   69.1047  224.3783 H   0  0  0  0  0  0  0  0  0  0  0  0
  138.6897   68.6648  223.0787 H   0  0  0  0  0  0  0  0  0  0  0  0
  138.5425   67.4720  225.4189 H   0  0  0  0  0  0  0  0  0  0  0  0
  140.0715   67.7574  224.4632 H   0  0  0  0  0  0  0  0  0  0  0  0
  139.5791   67.3849  227.5832 H   0  0  0  0  0  0  0  0  0  0  0  0
  140.5763   68.6341  229.4531 H   0  0  0  0  0  0  0  0  0  0  0  0
  141.4355   70.9611  229.1469 H   0  0  0  0  0  0  0  0  0  0  0  0
  141.2524   71.9754  226.8731 H   0  0  0  0  0  0  0  0  0  0  0  0
  140.2312   71.9320  224.7191 H   0  0  0  0  0  0  0  0  0  0  0  0
  141.0349   70.4567  224.0345 H   0  0  0  0  0  0  0  0  0  0  0  0
  140.3274   76.4470  219.9239 H   0  0  0  0  0  0  0  0  0  0  0  0
  140.4544   76.7449  221.6711 H   0  0  0  0  0  0  0  0  0  0  0  0
  142.0137   77.0548  219.3801 H   0  0  0  0  0  0  0  0  0  0  0  0
  143.6406   76.5239  219.9448 H   0  0  0  0  0  0  0  0  0  0  0  0
  141.7118   74.7478  218.3481 H   0  0  0  0  0  0  0  0  0  0  0  0
  143.0189   75.6588  217.5997 H   0  0  0  0  0  0  0  0  0  0  0  0
  144.9554   74.1734  217.2841 H   0  0  0  0  0  0  0  0  0  0  0  0
  146.4472   72.4188  218.2780 H   0  0  0  0  0  0  0  0  0  0  0  0
  145.9477   71.4718  220.5165 H   0  0  0  0  0  0  0  0  0  0  0  0
  143.9727   72.2427  221.8152 H   0  0  0  0  0  0  0  0  0  0  0  0
  141.2828   73.7026  220.4920 H   0  0  0  0  0  0  0  0  0  0  0  0
  142.2666   73.9461  222.0193 H   0  0  0  0  0  0  0  0  0  0  0  0
  1  2  1  0
  2  3  1  0
  3  4  1  0
  4  5  1  0
  5  6  2  0
  6  7  1  0
  7  8  1  0
  8  9  1  0
  9 10  1  0
 10 11  1  0
 11 12  2  0
 12 13  1  0
 13 14  2  0
 14 15  1  0
 15 16  2  0
 16 17  1  0
  7 18  2  0
 18 19  1  0
 19 20  1  0
 20 21  1  0
 21 22  1  0
 22 23  1  0
 23 24  2  0
 24 25  1  0
 25 26  2  0
 26 27  1  0
 27 28  2  0
 28 29  1  0
 19 30  2  0
  2 31  1  0
 31 32  1  0
 32 33  1  0
 33 34  1  0
 34 35  1  0
 35 36  2  0
 36 37  1  0
 37 38  2  0
 38 39  1  0
 39 40  2  0
 40 41  1  0
 30  5  1  0
 41 32  1  0
 17  8  1  0
 29 20  1  0
 40 35  1  0
 16 11  1  0
 28 23  1  0
  1 42  1  0
  1 43  1  0
  2 44  1  1
  3 45  1  0
  3 46  1  0
  4 47  1  0
  9 48  1  0
  9 49  1  0
 10 50  1  0
 10 51  1  0
 12 52  1  0
 13 53  1  0
 14 54  1  0
 15 55  1  0
 17 56  1  0
 17 57  1  0
 21 58  1  0
 21 59  1  0
 22 60  1  0
 22 61  1  0
 24 62  1  0
 25 63  1  0
 26 64  1  0
 27 65  1  0
 29 66  1  0
 29 67  1  0
 31 68  1  0
 31 69  1  0
 33 70  1  0
 33 71  1  0
 34 72  1  0
 34 73  1  0
 36 74  1  0
 37 75  1  0
 38 76  1  0
 39 77  1  0
 41 78  1  0
 41 79  1  0
M  END
>  <smiles>  (95) 
NC(CNc1nc(N2CCc3ccccc3C2)nc(N2CCc3ccccc3C2)n1)CN1CCc2ccccc2C1

>  <score_type>  (95) 
oracle

>  <origin>  (95) 
autodockgpu

>  <m_score__min__energy>  (95) 
-11.49

>  <m_primary>  (95) 
energy

>  <rmsd>  (95) 
7.832259077098399

>  <m_score__min__rmsd>  (95) 
7.832259077098399

>  <meeko>  (95) 
{"free_energy": -10.03, "intermolecular_energy": -12.42, "internal_energy": -2.34, "cluster_size": 1, "cluster_id": 3, "rank_in_cluster": 1}

>  <energy>  (95) 
-9.26

>  <cluster_rmsd>  (95) 
0.0

>  <cluster>  (95) 
8

$$$$

     RDKit          3D

 79 85  0  0  1  0  0  0  0  0999 V2000
  143.9490   76.2780  219.8030 N   0  0  0  0  0  0  0  0  0  0  0  0
  143.5820   75.6640  218.5460 C   0  0  1  0  0  0  0  0  0  0  0  0
  143.3540   74.1870  218.6880 C   0  0  0  0  0  0  0  0  0  0  0  0
  143.3370   73.8540  220.0960 N   0  0  0  0  0  0  0  0  0  0  0  0
  142.1190   74.1180  220.8160 C   0  0  0  0  0  0  0  0  0  0  0  0
  141.8310   75.3580  221.2830 N   0  0  0  0  0  0  0  0  0  0  0  0
  140.6990   75.6210  221.9590 C   0  0  0  0  0  0  0  0  0  0  0  0
  140.3800   76.9170  222.4570 N   0  0  0  0  0  0  0  0  0  0  0  0
  138.9980   77.3050  222.6780 C   0  0  0  0  0  0  0  0  0  0  0  0
  138.7380   78.4170  221.6710 C   0  0  0  0  0  0  0  0  0  0  0  0
  139.6290   79.5460  222.1000 C   0  0  0  0  0  0  0  0  0  0  0  0
  139.1570   80.8500  221.9700 C   0  0  0  0  0  0  0  0  0  0  0  0
  140.0020   81.8760  222.3750 C   0  0  0  0  0  0  0  0  0  0  0  0
  141.2580   81.6210  222.8870 C   0  0  0  0  0  0  0  0  0  0  0  0
  141.7220   80.3120  223.0150 C   0  0  0  0  0  0  0  0  0  0  0  0
  140.8850   79.2930  222.6130 C   0  0  0  0  0  0  0  0  0  0  0  0
  141.4060   77.8950  222.7610 C   0  0  0  0  0  0  0  0  0  0  0  0
  139.8380   74.6110  222.1680 N   0  0  0  0  0  0  0  0  0  0  0  0
  140.0650   73.3480  221.7280 C   0  0  0  0  0  0  0  0  0  0  0  0
  139.1140   72.3180  221.9810 N   0  0  0  0  0  0  0  0  0  0  0  0
  137.7320   72.6470  222.1180 C   0  0  0  0  0  0  0  0  0  0  0  0
  136.8600   71.5620  222.6160 C   0  0  0  0  0  0  0  0  0  0  0  0
  137.5670   70.5900  223.4740 C   0  0  0  0  0  0  0  0  0  0  0  0
  136.9560   69.9610  224.5300 C   0  0  0  0  0  0  0  0  0  0  0  0
  137.6360   69.0490  225.3240 C   0  0  0  0  0  0  0  0  0  0  0  0
  138.9640   68.7240  225.0950 C   0  0  0  0  0  0  0  0  0  0  0  0
  139.5780   69.3560  224.0320 C   0  0  0  0  0  0  0  0  0  0  0  0
  138.9060   70.2590  223.2470 C   0  0  0  0  0  0  0  0  0  0  0  0
  139.5520   70.9470  222.1020 C   0  0  0  0  0  0  0  0  0  0  0  0
  141.2120   73.1510  221.0610 N   0  0  0  0  0  0  0  0  0  0  0  0
  142.3020   76.3050  218.0620 C   0  0  0  0  0  0  0  0  0  0  0  0
  142.1880   77.5970  218.7510 N   0  0  0  0  0  0  0  0  0  0  0  0
  140.8750   77.6800  219.3040 C   0  0  0  0  0  0  0  0  0  0  0  0
  139.9760   78.5210  218.4050 C   0  0  0  0  0  0  0  0  0  0  0  0
  140.5610   79.9060  218.4800 C   0  0  0  0  0  0  0  0  0  0  0  0
  139.8030   81.0100  218.7820 C   0  0  0  0  0  0  0  0  0  0  0  0
  140.4640   82.2280  218.8210 C   0  0  0  0  0  0  0  0  0  0  0  0
  141.8360   82.3040  218.5610 C   0  0  0  0  0  0  0  0  0  0  0  0
  142.5720   81.1730  218.2600 C   0  0  0  0  0  0  0  0  0  0  0  0
  141.9290   79.9740  218.2210 C   0  0  0  0  0  0  0  0  0  0  0  0
  142.5900   78.6750  217.9100 C   0  0  0  0  0  0  0  0  0  0  0  0
  144.1380   77.2890  219.7110 H   0  0  0  0  0  0  0  0  0  0  0  0
  143.3380   76.0130  220.5870 H   0  0  0  0  0  0  0  0  0  0  0  0
  144.4068   75.8136  217.8338 H   0  0  0  0  0  0  0  0  0  0  0  0
  142.3906   73.9155  218.2317 H   0  0  0  0  0  0  0  0  0  0  0  0
  144.1580   73.6330  218.1813 H   0  0  0  0  0  0  0  0  0  0  0  0
  144.1140   73.4440  220.6270 H   0  0  0  0  0  0  0  0  0  0  0  0
  138.3237   76.4547  222.4983 H   0  0  0  0  0  0  0  0  0  0  0  0
  138.8202   77.6332  223.7127 H   0  0  0  0  0  0  0  0  0  0  0  0
  138.9960   78.0859  220.6542 H   0  0  0  0  0  0  0  0  0  0  0  0
  137.6788   78.7130  221.6467 H   0  0  0  0  0  0  0  0  0  0  0  0
  138.1565   81.0590  221.5634 H   0  0  0  0  0  0  0  0  0  0  0  0
  139.6612   82.9180  222.2853 H   0  0  0  0  0  0  0  0  0  0  0  0
  141.8997   82.4588  223.1973 H   0  0  0  0  0  0  0  0  0  0  0  0
  142.7214   80.1000  223.4227 H   0  0  0  0  0  0  0  0  0  0  0  0
  142.2521   77.7529  222.0726 H   0  0  0  0  0  0  0  0  0  0  0  0
  141.7253   77.7514  223.8038 H   0  0  0  0  0  0  0  0  0  0  0  0
  137.6537   73.4916  222.8183 H   0  0  0  0  0  0  0  0  0  0  0  0
  137.3763   72.8746  221.1023 H   0  0  0  0  0  0  0  0  0  0  0  0
  136.0421   72.0113  223.1984 H   0  0  0  0  0  0  0  0  0  0  0  0
  136.4909   71.0123  221.7376 H   0  0  0  0  0  0  0  0  0  0  0  0
  135.9022   70.1854  224.7519 H   0  0  0  0  0  0  0  0  0  0  0  0
  137.1057   68.5696  226.1600 H   0  0  0  0  0  0  0  0  0  0  0  0
  139.5003   68.0007  225.7268 H   0  0  0  0  0  0  0  0  0  0  0  0
  140.6312   69.1302  223.8090 H   0  0  0  0  0  0  0  0  0  0  0  0
  140.6422   70.9335  222.2481 H   0  0  0  0  0  0  0  0  0  0  0  0
  139.2688   70.4160  221.1812 H   0  0  0  0  0  0  0  0  0  0  0  0
  142.3433   76.4586  216.9736 H   0  0  0  0  0  0  0  0  0  0  0  0
  141.4338   75.6647  218.2772 H   0  0  0  0  0  0  0  0  0  0  0  0
  140.4541   76.6677  219.3936 H   0  0  0  0  0  0  0  0  0  0  0  0
  140.9330   78.1524  220.2957 H   0  0  0  0  0  0  0  0  0  0  0  0
  139.9977   78.1448  217.3715 H   0  0  0  0  0  0  0  0  0  0  0  0
  138.9229   78.4932  218.7215 H   0  0  0  0  0  0  0  0  0  0  0  0
  138.7243   80.9320  218.9831 H   0  0  0  0  0  0  0  0  0  0  0  0
  139.9035   83.1441  219.0589 H   0  0  0  0  0  0  0  0  0  0  0  0
  142.3389   83.2817  218.5966 H   0  0  0  0  0  0  0  0  0  0  0  0
  143.6510   81.2405  218.0570 H   0  0  0  0  0  0  0  0  0  0  0  0
  142.3523   78.4077  216.8698 H   0  0  0  0  0  0  0  0  0  0  0  0
  143.6672   78.8212  218.0780 H   0  0  0  0  0  0  0  0  0  0  0  0
  1  2  1  0
  2  3  1  0
  3  4  1  0
  4  5  1  0
  5  6  2  0
  6  7  1  0
  7  8  1  0
  8  9  1  0
  9 10  1  0
 10 11  1  0
 11 12  2  0
 12 13  1  0
 13 14  2  0
 14 15  1  0
 15 16  2  0
 16 17  1  0
  7 18  2  0
 18 19  1  0
 19 20  1  0
 20 21  1  0
 21 22  1  0
 22 23  1  0
 23 24  2  0
 24 25  1  0
 25 26  2  0
 26 27  1  0
 27 28  2  0
 28 29  1  0
 19 30  2  0
  2 31  1  0
 31 32  1  0
 32 33  1  0
 33 34  1  0
 34 35  1  0
 35 36  2  0
 36 37  1  0
 37 38  2  0
 38 39  1  0
 39 40  2  0
 40 41  1  0
 30  5  1  0
 41 32  1  0
 17  8  1  0
 29 20  1  0
 40 35  1  0
 16 11  1  0
 28 23  1  0
  1 42  1  0
  1 43  1  0
  2 44  1  6
  3 45  1  0
  3 46  1  0
  4 47  1  0
  9 48  1  0
  9 49  1  0
 10 50  1  0
 10 51  1  0
 12 52  1  0
 13 53  1  0
 14 54  1  0
 15 55  1  0
 17 56  1  0
 17 57  1  0
 21 58  1  0
 21 59  1  0
 22 60  1  0
 22 61  1  0
 24 62  1  0
 25 63  1  0
 26 64  1  0
 27 65  1  0
 29 66  1  0
 29 67  1  0
 31 68  1  0
 31 69  1  0
 33 70  1  0
 33 71  1  0
 34 72  1  0
 34 73  1  0
 36 74  1  0
 37 75  1  0
 38 76  1  0
 39 77  1  0
 41 78  1  0
 41 79  1  0
M  END
>  <smiles>  (96) 
NC(CNc1nc(N2CCc3ccccc3C2)nc(N2CCc3ccccc3C2)n1)CN1CCc2ccccc2C1

>  <score_type>  (96) 
oracle

>  <origin>  (96) 
autodockgpu

>  <m_score__min__energy>  (96) 
-11.49

>  <m_primary>  (96) 
energy

>  <rmsd>  (96) 
11.5487251487263

>  <m_score__min__rmsd>  (96) 
11.5487251487263

>  <meeko>  (96) 
{"free_energy": -7.89, "intermolecular_energy": -10.28, "internal_energy": -4.64, "cluster_size": 3, "cluster_id": 5, "rank_in_cluster": 3}

>  <energy>  (96) 
-8.12

>  <cluster_rmsd>  (96) 
1.02

>  <cluster>  (96) 
8

$$$$

     RDKit          3D

 79 85  0  0  1  0  0  0  0  0999 V2000
  136.3600   75.6740  223.8130 N   0  0  0  0  0  0  0  0  0  0  0  0
  136.7470   75.7570  222.4210 C   0  0  1  0  0  0  0  0  0  0  0  0
  135.7650   75.0620  221.5230 C   0  0  0  0  0  0  0  0  0  0  0  0
  136.3170   73.7830  221.1350 N   0  0  0  0  0  0  0  0  0  0  0  0
  137.6980   73.5410  221.4590 C   0  0  0  0  0  0  0  0  0  0  0  0
  138.6930   74.2620  220.8880 N   0  0  0  0  0  0  0  0  0  0  0  0
  139.9880   74.0480  221.1790 C   0  0  0  0  0  0  0  0  0  0  0  0
  141.0470   74.7970  220.5900 N   0  0  0  0  0  0  0  0  0  0  0  0
  141.4800   76.0530  221.1750 C   0  0  0  0  0  0  0  0  0  0  0  0
  141.1220   77.1100  220.1390 C   0  0  0  0  0  0  0  0  0  0  0  0
  141.9940   76.8060  218.9560 C   0  0  0  0  0  0  0  0  0  0  0  0
  142.5080   77.8700  218.2190 C   0  0  0  0  0  0  0  0  0  0  0  0
  143.3130   77.5600  217.1290 C   0  0  0  0  0  0  0  0  0  0  0  0
  143.5950   76.2530  216.7850 C   0  0  0  0  0  0  0  0  0  0  0  0
  143.0760   75.1940  217.5290 C   0  0  0  0  0  0  0  0  0  0  0  0
  142.2780   75.5000  218.6110 C   0  0  0  0  0  0  0  0  0  0  0  0
  141.7320   74.3440  219.3950 C   0  0  0  0  0  0  0  0  0  0  0  0
  140.2850   73.0830  222.0660 N   0  0  0  0  0  0  0  0  0  0  0  0
  139.3390   72.3250  222.6720 C   0  0  0  0  0  0  0  0  0  0  0  0
  139.7170   71.3160  223.6040 N   0  0  0  0  0  0  0  0  0  0  0  0
  138.9690   70.1030  223.6790 C   0  0  0  0  0  0  0  0  0  0  0  0
  139.2800   69.2270  224.8290 C   0  0  0  0  0  0  0  0  0  0  0  0
  139.7820   69.9620  226.0070 C   0  0  0  0  0  0  0  0  0  0  0  0
  139.5100   69.5650  227.2920 C   0  0  0  0  0  0  0  0  0  0  0  0
  139.9920   70.2680  228.3870 C   0  0  0  0  0  0  0  0  0  0  0  0
  140.7720   71.4050  228.2420 C   0  0  0  0  0  0  0  0  0  0  0  0
  141.0460   71.8040  226.9490 C   0  0  0  0  0  0  0  0  0  0  0  0
  140.5690   71.1090  225.8670 C   0  0  0  0  0  0  0  0  0  0  0  0
  140.8540   71.5260  224.4710 C   0  0  0  0  0  0  0  0  0  0  0  0
  138.0670   72.5880  222.3400 N   0  0  0  0  0  0  0  0  0  0  0  0
  136.8070   77.2160  222.0340 C   0  0  0  0  0  0  0  0  0  0  0  0
  137.7640   77.8580  222.9430 N   0  0  0  0  0  0  0  0  0  0  0  0
  137.3910   79.2290  223.0710 C   0  0  0  0  0  0  0  0  0  0  0  0
  138.2600   80.0990  222.1690 C   0  0  0  0  0  0  0  0  0  0  0  0
  139.6430   79.9760  222.7500 C   0  0  0  0  0  0  0  0  0  0  0  0
  140.4110   81.0700  223.0600 C   0  0  0  0  0  0  0  0  0  0  0  0
  141.6670   80.8200  223.5910 C   0  0  0  0  0  0  0  0  0  0  0  0
  142.1090   79.5090  223.7910 C   0  0  0  0  0  0  0  0  0  0  0  0
  141.3110   78.4270  223.4670 C   0  0  0  0  0  0  0  0  0  0  0  0
  140.0760   78.6660  222.9460 C   0  0  0  0  0  0  0  0  0  0  0  0
  139.1100   77.6020  222.5510 C   0  0  0  0  0  0  0  0  0  0  0  0
  136.6560   74.7890  224.2550 H   0  0  0  0  0  0  0  0  0  0  0  0
  136.5650   76.5260  224.3510 H   0  0  0  0  0  0  0  0  0  0  0  0
  137.7230   75.2639  222.3020 H   0  0  0  0  0  0  0  0  0  0  0  0
  134.8170   74.9087  222.0594 H   0  0  0  0  0  0  0  0  0  0  0  0
  135.5749   75.6749  220.6296 H   0  0  0  0  0  0  0  0  0  0  0  0
  135.8120   73.0310  220.6500 H   0  0  0  0  0  0  0  0  0  0  0  0
  140.9508   76.2426  222.1205 H   0  0  0  0  0  0  0  0  0  0  0  0
  142.5542   76.0516  221.4120 H   0  0  0  0  0  0  0  0  0  0  0  0
  140.0592   77.0379  219.8645 H   0  0  0  0  0  0  0  0  0  0  0  0
  141.2811   78.1303  220.5180 H   0  0  0  0  0  0  0  0  0  0  0  0
  142.2860   78.9131  218.4884 H   0  0  0  0  0  0  0  0  0  0  0  0
  143.7360   78.3765  216.5254 H   0  0  0  0  0  0  0  0  0  0  0  0
  144.2355   76.0450  215.9153 H   0  0  0  0  0  0  0  0  0  0  0  0
  143.2958   74.1498  217.2618 H   0  0  0  0  0  0  0  0  0  0  0  0
  141.0235   73.7861  218.7651 H   0  0  0  0  0  0  0  0  0  0  0  0
  142.5717   73.7011  219.6977 H   0  0  0  0  0  0  0  0  0  0  0  0
  137.9025   70.3667  223.7339 H   0  0  0  0  0  0  0  0  0  0  0  0
  139.2411   69.5274  222.7819 H   0  0  0  0  0  0  0  0  0  0  0  0
  138.3636   68.6910  225.1169 H   0  0  0  0  0  0  0  0  0  0  0  0
  140.0790   68.5421  224.5088 H   0  0  0  0  0  0  0  0  0  0  0  0
  138.8952   68.6681  227.4581 H   0  0  0  0  0  0  0  0  0  0  0  0
  139.7482   69.9130  229.3992 H   0  0  0  0  0  0  0  0  0  0  0  0
  141.1527   71.9603  229.1119 H   0  0  0  0  0  0  0  0  0  0  0  0
  141.6614   72.7004  226.7826 H   0  0  0  0  0  0  0  0  0  0  0  0
  141.1135   72.5949  224.4649 H   0  0  0  0  0  0  0  0  0  0  0  0
  141.6873   70.9140  224.0953 H   0  0  0  0  0  0  0  0  0  0  0  0
  137.1472   77.3177  220.9929 H   0  0  0  0  0  0  0  0  0  0  0  0
  135.8150   77.6852  222.1104 H   0  0  0  0  0  0  0  0  0  0  0  0
  136.3361   79.3468  222.7823 H   0  0  0  0  0  0  0  0  0  0  0  0
  137.5324   79.5428  224.1158 H   0  0  0  0  0  0  0  0  0  0  0  0
  138.2385   79.7290  221.1333 H   0  0  0  0  0  0  0  0  0  0  0  0
  137.9123   81.1419  222.1311 H   0  0  0  0  0  0  0  0  0  0  0  0
  140.0479   82.0952  222.8953 H   0  0  0  0  0  0  0  0  0  0  0  0
  142.3226   81.6621  223.8577 H   0  0  0  0  0  0  0  0  0  0  0  0
  143.1095   79.3349  224.2137 H   0  0  0  0  0  0  0  0  0  0  0  0
  141.6655   77.3980  223.6264 H   0  0  0  0  0  0  0  0  0  0  0  0
  139.1368   77.5014  221.4559 H   0  0  0  0  0  0  0  0  0  0  0  0
  139.4211   76.6845  223.0719 H   0  0  0  0  0  0  0  0  0  0  0  0
  1  2  1  0
  2  3  1  0
  3  4  1  0
  4  5  1  0
  5  6  2  0
  6  7  1  0
  7  8  1  0
  8  9  1  0
  9 10  1  0
 10 11  1  0
 11 12  2  0
 12 13  1  0
 13 14  2  0
 14 15  1  0
 15 16  2  0
 16 17  1  0
  7 18  2  0
 18 19  1  0
 19 20  1  0
 20 21  1  0
 21 22  1  0
 22 23  1  0
 23 24  2  0
 24 25  1  0
 25 26  2  0
 26 27  1  0
 27 28  2  0
 28 29  1  0
 19 30  2  0
  2 31  1  0
 31 32  1  0
 32 33  1  0
 33 34  1  0
 34 35  1  0
 35 36  2  0
 36 37  1  0
 37 38  2  0
 38 39  1  0
 39 40  2  0
 40 41  1  0
 30  5  1  0
 41 32  1  0
 17  8  1  0
 29 20  1  0
 40 35  1  0
 16 11  1  0
 28 23  1  0
  1 42  1  0
  1 43  1  0
  2 44  1  1
  3 45  1  0
  3 46  1  0
  4 47  1  0
  9 48  1  0
  9 49  1  0
 10 50  1  0
 10 51  1  0
 12 52  1  0
 13 53  1  0
 14 54  1  0
 15 55  1  0
 17 56  1  0
 17 57  1  0
 21 58  1  0
 21 59  1  0
 22 60  1  0
 22 61  1  0
 24 62  1  0
 25 63  1  0
 26 64  1  0
 27 65  1  0
 29 66  1  0
 29 67  1  0
 31 68  1  0
 31 69  1  0
 33 70  1  0
 33 71  1  0
 34 72  1  0
 34 73  1  0
 36 74  1  0
 37 75  1  0
 38 76  1  0
 39 77  1  0
 41 78  1  0
 41 79  1  0
M  END
>  <smiles>  (97) 
NC(CNc1nc(N2CCc3ccccc3C2)nc(N2CCc3ccccc3C2)n1)CN1CCc2ccccc2C1

>  <score_type>  (97) 
oracle

>  <origin>  (97) 
autodockgpu

>  <m_score__min__energy>  (97) 
-11.49

>  <m_primary>  (97) 
energy

>  <rmsd>  (97) 
9.536602912083776

>  <m_score__min__rmsd>  (97) 
9.536602912083776

>  <meeko>  (97) 
{"free_energy": -9.76, "intermolecular_energy": -12.15, "internal_energy": -2.68, "cluster_size": 11, "cluster_id": 4, "rank_in_cluster": 1}

>  <energy>  (97) 
-9.06

>  <cluster_rmsd>  (97) 
0.0

>  <cluster>  (97) 
9

$$$$

     RDKit          3D

 79 85  0  0  1  0  0  0  0  0999 V2000
  135.9640   75.6680  224.2200 N   0  0  0  0  0  0  0  0  0  0  0  0
  136.4020   75.1580  222.9390 C   0  0  1  0  0  0  0  0  0  0  0  0
  135.3270   74.3650  222.2530 C   0  0  0  0  0  0  0  0  0  0  0  0
  135.9140   73.1590  221.7120 N   0  0  0  0  0  0  0  0  0  0  0  0
  137.3350   72.9960  221.8670 C   0  0  0  0  0  0  0  0  0  0  0  0
  137.8510   72.1280  222.7720 N   0  0  0  0  0  0  0  0  0  0  0  0
  139.1760   71.9660  222.9310 C   0  0  0  0  0  0  0  0  0  0  0  0
  139.7360   71.0580  223.8750 N   0  0  0  0  0  0  0  0  0  0  0  0
  139.6040   69.6240  223.6910 C   0  0  0  0  0  0  0  0  0  0  0  0
  138.7290   69.1610  224.8490 C   0  0  0  0  0  0  0  0  0  0  0  0
  139.5480   69.4150  226.0810 C   0  0  0  0  0  0  0  0  0  0  0  0
  139.4700   68.5010  227.1290 C   0  0  0  0  0  0  0  0  0  0  0  0
  140.2390   68.7590  228.2570 C   0  0  0  0  0  0  0  0  0  0  0  0
  141.0490   69.8740  228.3420 C   0  0  0  0  0  0  0  0  0  0  0  0
  141.1220   70.7830  227.2870 C   0  0  0  0  0  0  0  0  0  0  0  0
  140.3590   70.5280  226.1670 C   0  0  0  0  0  0  0  0  0  0  0  0
  140.4550   71.5200  225.0470 C   0  0  0  0  0  0  0  0  0  0  0  0
  139.9990   72.6960  222.1580 N   0  0  0  0  0  0  0  0  0  0  0  0
  139.5490   73.5810  221.2350 C   0  0  0  0  0  0  0  0  0  0  0  0
  140.4720   74.3270  220.4470 N   0  0  0  0  0  0  0  0  0  0  0  0
  141.8600   74.3170  220.7800 C   0  0  0  0  0  0  0  0  0  0  0  0
  142.7000   75.3000  220.0640 C   0  0  0  0  0  0  0  0  0  0  0  0
  141.9590   76.5080  219.6450 C   0  0  0  0  0  0  0  0  0  0  0  0
  142.5410   77.7500  219.6040 C   0  0  0  0  0  0  0  0  0  0  0  0
  141.8300   78.8730  219.2070 C   0  0  0  0  0  0  0  0  0  0  0  0
  140.4970   78.8010  218.8320 C   0  0  0  0  0  0  0  0  0  0  0  0
  139.9110   77.5520  218.8720 C   0  0  0  0  0  0  0  0  0  0  0  0
  140.6150   76.4410  219.2660 C   0  0  0  0  0  0  0  0  0  0  0  0
  140.0000   75.0920  219.3160 C   0  0  0  0  0  0  0  0  0  0  0  0
  138.2180   73.6970  221.1260 N   0  0  0  0  0  0  0  0  0  0  0  0
  136.7700   76.3320  222.0630 C   0  0  0  0  0  0  0  0  0  0  0  0
  137.7450   77.1330  222.8130 N   0  0  0  0  0  0  0  0  0  0  0  0
  137.3270   78.4950  222.7550 C   0  0  0  0  0  0  0  0  0  0  0  0
  138.1170   79.2450  221.6880 C   0  0  0  0  0  0  0  0  0  0  0  0
  139.5310   79.2530  222.2050 C   0  0  0  0  0  0  0  0  0  0  0  0
  140.2700   80.4040  222.3070 C   0  0  0  0  0  0  0  0  0  0  0  0
  141.5600   80.2750  222.8010 C   0  0  0  0  0  0  0  0  0  0  0  0
  142.0600   79.0230  223.1690 C   0  0  0  0  0  0  0  0  0  0  0  0
  141.2890   77.8810  223.0540 C   0  0  0  0  0  0  0  0  0  0  0  0
  140.0220   78.0010  222.5710 C   0  0  0  0  0  0  0  0  0  0  0  0
  139.0790   76.8610  222.3910 C   0  0  0  0  0  0  0  0  0  0  0  0
  136.2010   75.0360  225.0010 H   0  0  0  0  0  0  0  0  0  0  0  0
  136.1900   76.6600  224.3690 H   0  0  0  0  0  0  0  0  0  0  0  0
  137.2606   74.4912  223.1067 H   0  0  0  0  0  0  0  0  0  0  0  0
  134.5419   74.1019  222.9772 H   0  0  0  0  0  0  0  0  0  0  0  0
  134.8810   74.9607  221.4429 H   0  0  0  0  0  0  0  0  0  0  0  0
  135.4080   72.4070  221.2290 H   0  0  0  0  0  0  0  0  0  0  0  0
  139.1223   69.3998  222.7278 H   0  0  0  0  0  0  0  0  0  0  0  0
  140.5795   69.1158  223.6791 H   0  0  0  0  0  0  0  0  0  0  0  0
  137.7931   69.7382  224.8812 H   0  0  0  0  0  0  0  0  0  0  0  0
  138.4436   68.1030  224.7537 H   0  0  0  0  0  0  0  0  0  0  0  0
  138.8260   67.6114  227.0662 H   0  0  0  0  0  0  0  0  0  0  0  0
  140.2016   68.0575  229.1035 H   0  0  0  0  0  0  0  0  0  0  0  0
  141.6430   70.0471  229.2515 H   0  0  0  0  0  0  0  0  0  0  0  0
  141.7660   71.6728  227.3462 H   0  0  0  0  0  0  0  0  0  0  0  0
  140.0254   72.4772  225.3775 H   0  0  0  0  0  0  0  0  0  0  0  0
  141.5150   71.6427  224.7798 H   0  0  0  0  0  0  0  0  0  0  0  0
  141.9500   74.5176  221.8578 H   0  0  0  0  0  0  0  0  0  0  0  0
  142.2331   73.3277  220.4765 H   0  0  0  0  0  0  0  0  0  0  0  0
  143.5210   75.6072  220.7285 H   0  0  0  0  0  0  0  0  0  0  0  0
  143.0671   74.8100  219.1501 H   0  0  0  0  0  0  0  0  0  0  0  0
  143.5969   77.8577  219.8929 H   0  0  0  0  0  0  0  0  0  0  0  0
  142.3381   79.8484  219.1892 H   0  0  0  0  0  0  0  0  0  0  0  0
  139.9354   79.6935  218.5187 H   0  0  0  0  0  0  0  0  0  0  0  0
  138.8555   77.4442  218.5815 H   0  0  0  0  0  0  0  0  0  0  0  0
  138.9080   75.2014  219.3913 H   0  0  0  0  0  0  0  0  0  0  0  0
  140.2820   74.5543  218.3988 H   0  0  0  0  0  0  0  0  0  0  0  0
  137.2156   75.9771  221.1220 H   0  0  0  0  0  0  0  0  0  0  0  0
  135.8813   76.9286  221.8095 H   0  0  0  0  0  0  0  0  0  0  0  0
  136.2556   78.5358  222.5092 H   0  0  0  0  0  0  0  0  0  0  0  0
  137.5072   78.9670  223.7321 H   0  0  0  0  0  0  0  0  0  0  0  0
  138.0589   78.7227  220.7217 H   0  0  0  0  0  0  0  0  0  0  0  0
  137.7285   80.2593  221.5143 H   0  0  0  0  0  0  0  0  0  0  0  0
  139.8601   81.3811  222.0117 H   0  0  0  0  0  0  0  0  0  0  0  0
  142.1955   81.1670  222.9040 H   0  0  0  0  0  0  0  0  0  0  0  0
  143.0861   78.9446  223.5574 H   0  0  0  0  0  0  0  0  0  0  0  0
  141.6899   76.8991  223.3458 H   0  0  0  0  0  0  0  0  0  0  0  0
  139.0560   76.5979  221.3232 H   0  0  0  0  0  0  0  0  0  0  0  0
  139.4496   76.0416  223.0244 H   0  0  0  0  0  0  0  0  0  0  0  0
  1  2  1  0
  2  3  1  0
  3  4  1  0
  4  5  1  0
  5  6  2  0
  6  7  1  0
  7  8  1  0
  8  9  1  0
  9 10  1  0
 10 11  1  0
 11 12  2  0
 12 13  1  0
 13 14  2  0
 14 15  1  0
 15 16  2  0
 16 17  1  0
  7 18  2  0
 18 19  1  0
 19 20  1  0
 20 21  1  0
 21 22  1  0
 22 23  1  0
 23 24  2  0
 24 25  1  0
 25 26  2  0
 26 27  1  0
 27 28  2  0
 28 29  1  0
 19 30  2  0
  2 31  1  0
 31 32  1  0
 32 33  1  0
 33 34  1  0
 34 35  1  0
 35 36  2  0
 36 37  1  0
 37 38  2  0
 38 39  1  0
 39 40  2  0
 40 41  1  0
 30  5  1  0
 41 32  1  0
 17  8  1  0
 29 20  1  0
 40 35  1  0
 16 11  1  0
 28 23  1  0
  1 42  1  0
  1 43  1  0
  2 44  1  1
  3 45  1  0
  3 46  1  0
  4 47  1  0
  9 48  1  0
  9 49  1  0
 10 50  1  0
 10 51  1  0
 12 52  1  0
 13 53  1  0
 14 54  1  0
 15 55  1  0
 17 56  1  0
 17 57  1  0
 21 58  1  0
 21 59  1  0
 22 60  1  0
 22 61  1  0
 24 62  1  0
 25 63  1  0
 26 64  1  0
 27 65  1  0
 29 66  1  0
 29 67  1  0
 31 68  1  0
 31 69  1  0
 33 70  1  0
 33 71  1  0
 34 72  1  0
 34 73  1  0
 36 74  1  0
 37 75  1  0
 38 76  1  0
 39 77  1  0
 41 78  1  0
 41 79  1  0
M  END
>  <smiles>  (98) 
NC(CNc1nc(N2CCc3ccccc3C2)nc(N2CCc3ccccc3C2)n1)CN1CCc2ccccc2C1

>  <score_type>  (98) 
oracle

>  <origin>  (98) 
autodockgpu

>  <m_score__min__energy>  (98) 
-11.49

>  <m_primary>  (98) 
energy

>  <rmsd>  (98) 
9.134220437932509

>  <m_score__min__rmsd>  (98) 
9.134220437932509

>  <meeko>  (98) 
{"free_energy": -8.63, "intermolecular_energy": -11.02, "internal_energy": -3.96, "cluster_size": 11, "cluster_id": 4, "rank_in_cluster": 11}

>  <energy>  (98) 
-8.54

>  <cluster_rmsd>  (98) 
1.59

>  <cluster>  (98) 
9

$$$$

     RDKit          3D

 79 85  0  0  1  0  0  0  0  0999 V2000
  137.4310   75.8960  220.2430 N   0  0  0  0  0  0  0  0  0  0  0  0
  136.8230   76.1050  221.5390 C   0  0  1  0  0  0  0  0  0  0  0  0
  135.9670   74.9420  221.9510 C   0  0  0  0  0  0  0  0  0  0  0  0
  136.4760   73.7450  221.3190 N   0  0  0  0  0  0  0  0  0  0  0  0
  137.8600   73.4220  221.5480 C   0  0  0  0  0  0  0  0  0  0  0  0
  138.2300   72.5530  222.5200 N   0  0  0  0  0  0  0  0  0  0  0  0
  139.5170   72.2420  222.7480 C   0  0  0  0  0  0  0  0  0  0  0  0
  139.9250   71.3300  223.7650 N   0  0  0  0  0  0  0  0  0  0  0  0
  139.5920   69.9200  223.6700 C   0  0  0  0  0  0  0  0  0  0  0  0
  138.6390   69.6650  224.8300 C   0  0  0  0  0  0  0  0  0  0  0  0
  139.4630   69.8830  226.0660 C   0  0  0  0  0  0  0  0  0  0  0  0
  139.2360   69.0630  227.1670 C   0  0  0  0  0  0  0  0  0  0  0  0
  140.0130   69.2860  228.2980 C   0  0  0  0  0  0  0  0  0  0  0  0
  140.9710   70.2780  228.3340 C   0  0  0  0  0  0  0  0  0  0  0  0
  141.1920   71.0940  227.2250 C   0  0  0  0  0  0  0  0  0  0  0  0
  140.4220   70.8740  226.1030 C   0  0  0  0  0  0  0  0  0  0  0  0
  140.6790   71.7650  224.9240 C   0  0  0  0  0  0  0  0  0  0  0  0
  140.4530   72.8210  221.9770 N   0  0  0  0  0  0  0  0  0  0  0  0
  140.1520   73.6980  220.9880 C   0  0  0  0  0  0  0  0  0  0  0  0
  141.1890   74.2790  220.2040 N   0  0  0  0  0  0  0  0  0  0  0  0
  142.4940   74.4380  220.7590 C   0  0  0  0  0  0  0  0  0  0  0  0
  143.4330   75.2630  219.9690 C   0  0  0  0  0  0  0  0  0  0  0  0
  142.7600   76.2800  219.1360 C   0  0  0  0  0  0  0  0  0  0  0  0
  143.3200   77.5070  218.8780 C   0  0  0  0  0  0  0  0  0  0  0  0
  142.6730   78.4500  218.0930 C   0  0  0  0  0  0  0  0  0  0  0  0
  141.4310   78.2050  217.5270 C   0  0  0  0  0  0  0  0  0  0  0  0
  140.8680   76.9710  217.7850 C   0  0  0  0  0  0  0  0  0  0  0  0
  141.5070   76.0380  218.5630 C   0  0  0  0  0  0  0  0  0  0  0  0
  140.9150   74.7090  218.8520 C   0  0  0  0  0  0  0  0  0  0  0  0
  138.8500   73.9660  220.8120 N   0  0  0  0  0  0  0  0  0  0  0  0
  137.9260   76.2770  222.5570 C   0  0  0  0  0  0  0  0  0  0  0  0
  138.7620   77.3900  222.0920 N   0  0  0  0  0  0  0  0  0  0  0  0
  140.0020   76.8450  221.6430 C   0  0  0  0  0  0  0  0  0  0  0  0
  141.0700   77.0050  222.7190 C   0  0  0  0  0  0  0  0  0  0  0  0
  141.2710   78.4930  222.8300 C   0  0  0  0  0  0  0  0  0  0  0  0
  142.5120   79.0740  222.7570 C   0  0  0  0  0  0  0  0  0  0  0  0
  142.5600   80.4550  222.8720 C   0  0  0  0  0  0  0  0  0  0  0  0
  141.3900   81.1970  223.0530 C   0  0  0  0  0  0  0  0  0  0  0  0
  140.1540   80.5810  223.1230 C   0  0  0  0  0  0  0  0  0  0  0  0
  140.1000   79.2250  223.0100 C   0  0  0  0  0  0  0  0  0  0  0  0
  138.8430   78.4270  223.0670 C   0  0  0  0  0  0  0  0  0  0  0  0
  138.4400   76.1160  220.2370 H   0  0  0  0  0  0  0  0  0  0  0  0
  137.1720   75.0030  219.8040 H   0  0  0  0  0  0  0  0  0  0  0  0
  136.1807   76.9961  221.4811 H   0  0  0  0  0  0  0  0  0  0  0  0
  136.0009   74.8264  223.0444 H   0  0  0  0  0  0  0  0  0  0  0  0
  134.9255   75.1151  221.6421 H   0  0  0  0  0  0  0  0  0  0  0  0
  135.9390   73.1030  220.7240 H   0  0  0  0  0  0  0  0  0  0  0  0
  139.1009   69.7019  222.7102 H   0  0  0  0  0  0  0  0  0  0  0  0
  140.4846   69.2789  223.7180 H   0  0  0  0  0  0  0  0  0  0  0  0
  137.7950   70.3698  224.7989 H   0  0  0  0  0  0  0  0  0  0  0  0
  138.2070   68.6540  224.7948 H   0  0  0  0  0  0  0  0  0  0  0  0
  138.4731   68.2709  227.1435 H   0  0  0  0  0  0  0  0  0  0  0  0
  139.8601   68.6557  229.1864 H   0  0  0  0  0  0  0  0  0  0  0  0
  141.5666   70.4268  229.2468 H   0  0  0  0  0  0  0  0  0  0  0  0
  141.9548   71.8863  227.2449 H   0  0  0  0  0  0  0  0  0  0  0  0
  140.3829   72.7931  225.1797 H   0  0  0  0  0  0  0  0  0  0  0  0
  141.7506   71.7198  224.6799 H   0  0  0  0  0  0  0  0  0  0  0  0
  142.3851   74.9050  221.7490 H   0  0  0  0  0  0  0  0  0  0  0  0
  142.9322   73.4294  220.7859 H   0  0  0  0  0  0  0  0  0  0  0  0
  144.1154   75.7760  220.6627 H   0  0  0  0  0  0  0  0  0  0  0  0
  143.9670   74.5851  219.2868 H   0  0  0  0  0  0  0  0  0  0  0  0
  144.3052   77.7478  219.3040 H   0  0  0  0  0  0  0  0  0  0  0  0
  143.1593   79.4204  217.9143 H   0  0  0  0  0  0  0  0  0  0  0  0
  140.9208   78.9549  216.9047 H   0  0  0  0  0  0  0  0  0  0  0  0
  139.8839   76.7298  217.3569 H   0  0  0  0  0  0  0  0  0  0  0  0
  139.8256   74.7669  218.7112 H   0  0  0  0  0  0  0  0  0  0  0  0
  141.3657   73.9784  218.1642 H   0  0  0  0  0  0  0  0  0  0  0  0
  137.4982   76.5109  223.5431 H   0  0  0  0  0  0  0  0  0  0  0  0
  138.5170   75.3548  222.6584 H   0  0  0  0  0  0  0  0  0  0  0  0
  139.8691   75.7762  221.4196 H   0  0  0  0  0  0  0  0  0  0  0  0
  140.3223   77.3818  220.7379 H   0  0  0  0  0  0  0  0  0  0  0  0
  140.7242   76.5866  223.6757 H   0  0  0  0  0  0  0  0  0  0  0  0
  142.0002   76.4742  222.4682 H   0  0  0  0  0  0  0  0  0  0  0  0
  143.4230   78.4743  222.6144 H   0  0  0  0  0  0  0  0  0  0  0  0
  143.5296   80.9719  222.8202 H   0  0  0  0  0  0  0  0  0  0  0  0
  141.4533   82.2916  223.1414 H   0  0  0  0  0  0  0  0  0  0  0  0
  139.2372   81.1716  223.2664 H   0  0  0  0  0  0  0  0  0  0  0  0
  138.7708   77.9686  224.0643 H   0  0  0  0  0  0  0  0  0  0  0  0
  138.0179   79.1232  222.8559 H   0  0  0  0  0  0  0  0  0  0  0  0
  1  2  1  0
  2  3  1  0
  3  4  1  0
  4  5  1  0
  5  6  2  0
  6  7  1  0
  7  8  1  0
  8  9  1  0
  9 10  1  0
 10 11  1  0
 11 12  2  0
 12 13  1  0
 13 14  2  0
 14 15  1  0
 15 16  2  0
 16 17  1  0
  7 18  2  0
 18 19  1  0
 19 20  1  0
 20 21  1  0
 21 22  1  0
 22 23  1  0
 23 24  2  0
 24 25  1  0
 25 26  2  0
 26 27  1  0
 27 28  2  0
 28 29  1  0
 19 30  2  0
  2 31  1  0
 31 32  1  0
 32 33  1  0
 33 34  1  0
 34 35  1  0
 35 36  2  0
 36 37  1  0
 37 38  2  0
 38 39  1  0
 39 40  2  0
 40 41  1  0
 30  5  1  0
 41 32  1  0
 17  8  1  0
 29 20  1  0
 40 35  1  0
 16 11  1  0
 28 23  1  0
  1 42  1  0
  1 43  1  0
  2 44  1  6
  3 45  1  0
  3 46  1  0
  4 47  1  0
  9 48  1  0
  9 49  1  0
 10 50  1  0
 10 51  1  0
 12 52  1  0
 13 53  1  0
 14 54  1  0
 15 55  1  0
 17 56  1  0
 17 57  1  0
 21 58  1  0
 21 59  1  0
 22 60  1  0
 22 61  1  0
 24 62  1  0
 25 63  1  0
 26 64  1  0
 27 65  1  0
 29 66  1  0
 29 67  1  0
 31 68  1  0
 31 69  1  0
 33 70  1  0
 33 71  1  0
 34 72  1  0
 34 73  1  0
 36 74  1  0
 37 75  1  0
 38 76  1  0
 39 77  1  0
 41 78  1  0
 41 79  1  0
M  END
>  <smiles>  (99) 
NC(CNc1nc(N2CCc3ccccc3C2)nc(N2CCc3ccccc3C2)n1)CN1CCc2ccccc2C1

>  <score_type>  (99) 
oracle

>  <origin>  (99) 
autodockgpu

>  <m_score__min__energy>  (99) 
-11.49

>  <m_primary>  (99) 
energy

>  <rmsd>  (99) 
9.057900505812132

>  <m_score__min__rmsd>  (99) 
9.057900505812132

>  <meeko>  (99) 
{"free_energy": -8.94, "intermolecular_energy": -11.33, "internal_energy": -3.99, "cluster_size": 11, "cluster_id": 4, "rank_in_cluster": 4}

>  <energy>  (99) 
-8.86

>  <cluster_rmsd>  (99) 
0.0

>  <cluster>  (99) 
10

$$$$

     RDKit          3D

 79 85  0  0  1  0  0  0  0  0999 V2000
  137.1390   71.5060  223.3110 N   0  0  0  0  0  0  0  0  0  0  0  0
  137.9110   70.9950  222.2000 C   0  0  1  0  0  0  0  0  0  0  0  0
  138.7830   72.0540  221.5890 C   0  0  0  0  0  0  0  0  0  0  0  0
  138.6150   73.2810  222.3370 N   0  0  0  0  0  0  0  0  0  0  0  0
  139.5470   74.3450  222.0670 C   0  0  0  0  0  0  0  0  0  0  0  0
  140.6740   74.1290  221.3460 N   0  0  0  0  0  0  0  0  0  0  0  0
  141.5550   75.1110  221.0860 C   0  0  0  0  0  0  0  0  0  0  0  0
  142.7440   74.9030  220.3300 N   0  0  0  0  0  0  0  0  0  0  0  0
  143.3980   76.0130  219.6600 C   0  0  0  0  0  0  0  0  0  0  0  0
  143.2600   75.7070  218.1740 C   0  0  0  0  0  0  0  0  0  0  0  0
  144.0760   74.4650  217.9560 C   0  0  0  0  0  0  0  0  0  0  0  0
  144.7910   74.3420  216.7680 C   0  0  0  0  0  0  0  0  0  0  0  0
  145.5380   73.1830  216.5920 C   0  0  0  0  0  0  0  0  0  0  0  0
  145.5730   72.1910  217.5510 C   0  0  0  0  0  0  0  0  0  0  0  0
  144.8530   72.3230  218.7380 C   0  0  0  0  0  0  0  0  0  0  0  0
  144.1120   73.4730  218.9140 C   0  0  0  0  0  0  0  0  0  0  0  0
  143.3470   73.5920  220.1990 C   0  0  0  0  0  0  0  0  0  0  0  0
  141.2910   76.3390  221.5650 N   0  0  0  0  0  0  0  0  0  0  0  0
  140.1820   76.6230  222.2920 C   0  0  0  0  0  0  0  0  0  0  0  0
  139.9580   77.9450  222.7730 N   0  0  0  0  0  0  0  0  0  0  0  0
  138.6250   78.4320  222.9140 C   0  0  0  0  0  0  0  0  0  0  0  0
  138.4950   79.8800  223.1830 C   0  0  0  0  0  0  0  0  0  0  0  0
  139.6130   80.6790  222.6430 C   0  0  0  0  0  0  0  0  0  0  0  0
  139.4430   81.9540  222.1660 C   0  0  0  0  0  0  0  0  0  0  0  0
  140.5060   82.6900  221.6630 C   0  0  0  0  0  0  0  0  0  0  0  0
  141.7940   82.1790  221.6160 C   0  0  0  0  0  0  0  0  0  0  0  0
  141.9660   80.8960  222.0970 C   0  0  0  0  0  0  0  0  0  0  0  0
  140.9140   80.1680  222.5930 C   0  0  0  0  0  0  0  0  0  0  0  0
  141.0820   78.7880  223.1120 C   0  0  0  0  0  0  0  0  0  0  0  0
  139.3440   75.6000  222.5170 N   0  0  0  0  0  0  0  0  0  0  0  0
  138.7920   69.8780  222.7080 C   0  0  0  0  0  0  0  0  0  0  0  0
  138.7780   69.9610  224.1740 N   0  0  0  0  0  0  0  0  0  0  0  0
  139.5270   71.1140  224.5520 C   0  0  0  0  0  0  0  0  0  0  0  0
  140.9350   70.7120  224.9780 C   0  0  0  0  0  0  0  0  0  0  0  0
  140.7310   69.9030  226.2310 C   0  0  0  0  0  0  0  0  0  0  0  0
  141.4060   70.1690  227.3960 C   0  0  0  0  0  0  0  0  0  0  0  0
  141.1260   69.3510  228.4800 C   0  0  0  0  0  0  0  0  0  0  0  0
  140.1980   68.3110  228.3670 C   0  0  0  0  0  0  0  0  0  0  0  0
  139.5350   68.0690  227.1790 C   0  0  0  0  0  0  0  0  0  0  0  0
  139.8050   68.8690  226.1110 C   0  0  0  0  0  0  0  0  0  0  0  0
  139.1690   68.7270  224.7710 C   0  0  0  0  0  0  0  0  0  0  0  0
  136.7410   70.7540  223.8970 H   0  0  0  0  0  0  0  0  0  0  0  0
  137.6060   72.2650  223.8240 H   0  0  0  0  0  0  0  0  0  0  0  0
  137.2129   70.6414  221.4270 H   0  0  0  0  0  0  0  0  0  0  0  0
  139.8353   71.7363  221.6303 H   0  0  0  0  0  0  0  0  0  0  0  0
  138.4990   72.2134  220.5383 H   0  0  0  0  0  0  0  0  0  0  0  0
  137.8910   73.4630  223.0410 H   0  0  0  0  0  0  0  0  0  0  0  0
  142.9008   76.9624  219.9079 H   0  0  0  0  0  0  0  0  0  0  0  0
  144.4491   76.1212  219.9656 H   0  0  0  0  0  0  0  0  0  0  0  0
  142.2066   75.5286  217.9121 H   0  0  0  0  0  0  0  0  0  0  0  0
  143.6032   76.5426  217.5463 H   0  0  0  0  0  0  0  0  0  0  0  0
  144.7659   75.1294  216.0003 H   0  0  0  0  0  0  0  0  0  0  0  0
  146.1158   73.0532  215.6650 H   0  0  0  0  0  0  0  0  0  0  0  0
  146.1750   71.2869  217.3772 H   0  0  0  0  0  0  0  0  0  0  0  0
  144.8752   71.5371  219.5074 H   0  0  0  0  0  0  0  0  0  0  0  0
  142.5547   72.8292  220.2169 H   0  0  0  0  0  0  0  0  0  0  0  0
  144.0459   73.4448  221.0355 H   0  0  0  0  0  0  0  0  0  0  0  0
  138.0847   78.2119  221.9815 H   0  0  0  0  0  0  0  0  0  0  0  0
  138.2134   77.9251  223.7993 H   0  0  0  0  0  0  0  0  0  0  0  0
  137.5595   80.2367  222.7275 H   0  0  0  0  0  0  0  0  0  0  0  0
  138.5011   80.0094  224.2753 H   0  0  0  0  0  0  0  0  0  0  0  0
  138.4393   82.4038  222.1828 H   0  0  0  0  0  0  0  0  0  0  0  0
  140.3216   83.7085  221.2907 H   0  0  0  0  0  0  0  0  0  0  0  0
  142.6349   82.7649  221.2165 H   0  0  0  0  0  0  0  0  0  0  0  0
  142.9701   80.4470  222.0822 H   0  0  0  0  0  0  0  0  0  0  0  0
  141.9955   78.3540  222.6794 H   0  0  0  0  0  0  0  0  0  0  0  0
  141.1498   78.8417  224.2086 H   0  0  0  0  0  0  0  0  0  0  0  0
  138.3973   68.9051  222.3798 H   0  0  0  0  0  0  0  0  0  0  0  0
  139.8156   69.9732  222.3167 H   0  0  0  0  0  0  0  0  0  0  0  0
  139.5891   71.8032  223.6969 H   0  0  0  0  0  0  0  0  0  0  0  0
  139.0239   71.6073  225.3967 H   0  0  0  0  0  0  0  0  0  0  0  0
  141.4194   70.1061  224.1981 H   0  0  0  0  0  0  0  0  0  0  0  0
  141.5875   71.5821  225.1426 H   0  0  0  0  0  0  0  0  0  0  0  0
  142.1336   70.9910  227.4663 H   0  0  0  0  0  0  0  0  0  0  0  0
  141.6388   69.5218  229.4381 H   0  0  0  0  0  0  0  0  0  0  0  0
  139.9920   67.6739  229.2398 H   0  0  0  0  0  0  0  0  0  0  0  0
  138.8061   67.2491  227.0981 H   0  0  0  0  0  0  0  0  0  0  0  0
  139.8861   68.2315  224.1000 H   0  0  0  0  0  0  0  0  0  0  0  0
  138.2487   68.1429  224.9192 H   0  0  0  0  0  0  0  0  0  0  0  0
  1  2  1  0
  2  3  1  0
  3  4  1  0
  4  5  1  0
  5  6  2  0
  6  7  1  0
  7  8  1  0
  8  9  1  0
  9 10  1  0
 10 11  1  0
 11 12  2  0
 12 13  1  0
 13 14  2  0
 14 15  1  0
 15 16  2  0
 16 17  1  0
  7 18  2  0
 18 19  1  0
 19 20  1  0
 20 21  1  0
 21 22  1  0
 22 23  1  0
 23 24  2  0
 24 25  1  0
 25 26  2  0
 26 27  1  0
 27 28  2  0
 28 29  1  0
 19 30  2  0
  2 31  1  0
 31 32  1  0
 32 33  1  0
 33 34  1  0
 34 35  1  0
 35 36  2  0
 36 37  1  0
 37 38  2  0
 38 39  1  0
 39 40  2  0
 40 41  1  0
 30  5  1  0
 41 32  1  0
 17  8  1  0
 29 20  1  0
 40 35  1  0
 16 11  1  0
 28 23  1  0
  1 42  1  0
  1 43  1  0
  2 44  1  6
  3 45  1  0
  3 46  1  0
  4 47  1  0
  9 48  1  0
  9 49  1  0
 10 50  1  0
 10 51  1  0
 12 52  1  0
 13 53  1  0
 14 54  1  0
 15 55  1  0
 17 56  1  0
 17 57  1  0
 21 58  1  0
 21 59  1  0
 22 60  1  0
 22 61  1  0
 24 62  1  0
 25 63  1  0
 26 64  1  0
 27 65  1  0
 29 66  1  0
 29 67  1  0
 31 68  1  0
 31 69  1  0
 33 70  1  0
 33 71  1  0
 34 72  1  0
 34 73  1  0
 36 74  1  0
 37 75  1  0
 38 76  1  0
 39 77  1  0
 41 78  1  0
 41 79  1  0
M  END
>  <smiles>  (100) 
NC(CNc1nc(N2CCc3ccccc3C2)nc(N2CCc3ccccc3C2)n1)CN1CCc2ccccc2C1

>  <score_type>  (100) 
oracle

>  <origin>  (100) 
autodockgpu

>  <m_score__min__energy>  (100) 
-11.49

>  <m_primary>  (100) 
energy

>  <rmsd>  (100) 
3.988223079750832

>  <m_score__min__rmsd>  (100) 
3.988223079750832

>  <meeko>  (100) 
{"free_energy": -10.31, "intermolecular_energy": -12.7, "internal_energy": -2.56, "cluster_size": 9, "cluster_id": 2, "rank_in_cluster": 3}

>  <energy>  (100) 
-7.97

>  <cluster_rmsd>  (100) 
0.0

>  <cluster>  (100) 
11

$$$$
