
     RDKit          3D

 48 51  0  0  0  0  0  0  0  0999 V2000
  138.8950   70.6210  221.5540 O   0  0  0  0  0  0  0  0  0  0  0  0
  139.2390   71.1620  222.6550 C   0  0  0  0  0  0  0  0  0  0  0  0
  139.4220   72.5880  222.6670 N   0  0  0  0  0  0  0  0  0  0  0  0
  139.2530   73.4520  221.5720 C   0  0  0  0  0  0  0  0  0  0  0  0
  140.1140   74.5680  221.2840 C   0  0  0  0  0  0  0  0  0  0  0  0
  141.0820   74.7120  222.1780 O   0  0  0  0  0  0  0  0  0  0  0  0
  140.1480   75.5310  220.2740 N   0  0  0  0  0  0  0  0  0  0  0  0
  140.8660   75.7680  219.0680 C   0  0  0  0  0  0  0  0  0  0  0  0
  141.1050   77.2680  218.9910 C   0  0  0  0  0  0  0  0  0  0  0  0
  140.0500   77.8640  219.8780 C   0  0  2  0  0  0  0  0  0  0  0  0
  140.7500   78.5550  220.9930 C   0  0  0  0  0  0  0  0  0  0  0  0
  140.8650   78.0320  222.2610 C   0  0  0  0  0  0  0  0  0  0  0  0
  141.5380   78.7510  223.2490 C   0  0  0  0  0  0  0  0  0  0  0  0
  142.1030   79.9780  223.0140 C   0  0  0  0  0  0  0  0  0  0  0  0
  142.9530   80.9070  224.2210 Cl  0  0  0  0  0  0  0  0  0  0  0  0
  141.9870   80.5030  221.7450 C   0  0  0  0  0  0  0  0  0  0  0  0
  141.3220   79.7970  220.7610 C   0  0  0  0  0  0  0  0  0  0  0  0
  139.2270   76.7150  220.3140 C   0  0  0  0  0  0  0  0  0  0  0  0
  139.4430   70.3570  223.8670 C   0  0  0  0  0  0  0  0  0  0  0  0
  139.0170   69.0460  223.8450 C   0  0  0  0  0  0  0  0  0  0  0  0
  139.2090   68.2960  224.9840 C   0  0  0  0  0  0  0  0  0  0  0  0
  139.8070   68.8500  226.1000 C   0  0  0  0  0  0  0  0  0  0  0  0
  140.0150   68.1150  227.2650 C   0  0  0  0  0  0  0  0  0  0  0  0
  140.6110   68.6650  228.3770 C   0  0  0  0  0  0  0  0  0  0  0  0
  141.0080   69.9800  228.3180 C   0  0  0  0  0  0  0  0  0  0  0  0
  140.8250   70.7610  227.1800 C   0  0  0  0  0  0  0  0  0  0  0  0
  140.2230   70.1710  226.0870 C   0  0  0  0  0  0  0  0  0  0  0  0
  140.0240   70.8920  224.9560 N   0  0  0  0  0  0  0  0  0  0  0  0
  139.7100   72.9590  223.6280 H   0  0  0  0  0  0  0  0  0  0  0  0
  139.2882   72.8108  220.6789 H   0  0  0  0  0  0  0  0  0  0  0  0
  138.3274   73.9724  221.8590 H   0  0  0  0  0  0  0  0  0  0  0  0
  141.8260   75.2313  219.0863 H   0  0  0  0  0  0  0  0  0  0  0  0
  140.3013   75.4113  218.1940 H   0  0  0  0  0  0  0  0  0  0  0  0
  142.1103   77.5207  219.3590 H   0  0  0  0  0  0  0  0  0  0  0  0
  141.0477   77.6479  217.9603 H   0  0  0  0  0  0  0  0  0  0  0  0
  139.3998   78.6112  219.3995 H   0  0  0  0  0  0  0  0  0  0  0  0
  140.4276   77.0501  222.4946 H   0  0  0  0  0  0  0  0  0  0  0  0
  141.6186   78.3164  224.2563 H   0  0  0  0  0  0  0  0  0  0  0  0
  142.4246   81.4857  221.5152 H   0  0  0  0  0  0  0  0  0  0  0  0
  141.2433   80.2365  219.7557 H   0  0  0  0  0  0  0  0  0  0  0  0
  138.8505   76.8760  221.3349 H   0  0  0  0  0  0  0  0  0  0  0  0
  138.3472   76.5724  219.6693 H   0  0  0  0  0  0  0  0  0  0  0  0
  138.5417   68.6153  222.9514 H   0  0  0  0  0  0  0  0  0  0  0  0
  138.8832   67.2456  225.0057 H   0  0  0  0  0  0  0  0  0  0  0  0
  139.6933   67.0636  227.2971 H   0  0  0  0  0  0  0  0  0  0  0  0
  140.7655   68.0686  229.2883 H   0  0  0  0  0  0  0  0  0  0  0  0
  141.4866   70.4305  229.2001 H   0  0  0  0  0  0  0  0  0  0  0  0
  141.1490   71.8119  227.1529 H   0  0  0  0  0  0  0  0  0  0  0  0
  1  2  2  0
  2  3  1  0
  3  4  1  0
  4  5  1  0
  5  6  2  0
  5  7  1  0
  7  8  1  0
  8  9  1  0
  9 10  1  0
 10 11  1  0
 11 12  2  0
 12 13  1  0
 13 14  2  0
 14 15  1  0
 14 16  1  0
 16 17  2  0
 10 18  1  0
  2 19  1  0
 19 20  2  0
 20 21  1  0
 21 22  2  0
 22 23  1  0
 23 24  2  0
 24 25  1  0
 25 26  2  0
 26 27  1  0
 27 28  2  0
 18  7  1  0
 28 19  1  0
 17 11  1  0
 27 22  1  0
  3 29  1  0
  4 30  1  0
  4 31  1  0
  8 32  1  0
  8 33  1  0
  9 34  1  0
  9 35  1  0
 10 36  1  6
 12 37  1  0
 13 38  1  0
 16 39  1  0
 17 40  1  0
 18 41  1  0
 18 42  1  0
 20 43  1  0
 21 44  1  0
 23 45  1  0
 24 46  1  0
 25 47  1  0
 26 48  1  0
M  END
