
     RDKit          3D

 44 47  0  0  0  0  0  0  0  0999 V2000
  146.3230   72.6730  219.4180 O   0  0  0  0  0  0  0  0  0  0  0  0
  145.0940   72.4540  219.6720 C   0  0  0  0  0  0  0  0  0  0  0  0
  144.2630   73.5930  220.1300 C   0  0  0  0  0  0  0  0  0  0  0  0
  142.8800   73.1160  220.3660 C   0  0  0  0  0  0  0  0  0  0  0  0
  141.9000   74.1210  220.8310 C   0  0  0  0  0  0  0  0  0  0  0  0
  140.7330   73.7390  221.4800 C   0  0  0  0  0  0  0  0  0  0  0  0
  139.8220   74.7020  221.9100 C   0  0  0  0  0  0  0  0  0  0  0  0
  140.0520   76.0560  221.7060 C   0  0  0  0  0  0  0  0  0  0  0  0
  141.2060   76.4380  221.0640 C   0  0  0  0  0  0  0  0  0  0  0  0
  141.5610   77.8240  220.7910 C   0  0  0  0  0  0  0  0  0  0  0  0
  141.8050   78.1660  219.6050 O   0  0  0  0  0  0  0  0  0  0  0  0
  141.6490   78.8240  221.7930 N   0  0  0  0  0  0  0  0  0  0  0  0
  142.0160   80.1700  221.3740 C   0  0  0  0  0  0  0  0  0  0  0  0
  141.8420   81.1530  222.5270 C   0  0  0  0  0  0  0  0  0  0  0  0
  140.4860   80.8880  223.0320 N   0  0  0  0  0  0  0  0  0  0  0  0
  140.5810   79.6930  223.8440 C   0  0  0  0  0  0  0  0  0  0  0  0
  141.4030   78.6110  223.1900 C   0  0  0  0  0  0  0  0  0  0  0  0
  142.0890   75.4690  220.6490 C   0  0  0  0  0  0  0  0  0  0  0  0
  142.4690   71.9290  220.2030 N   0  0  0  0  0  0  0  0  0  0  0  0
  143.2710   70.8490  219.7650 C   0  0  0  0  0  0  0  0  0  0  0  0
  142.7640   69.5750  219.6060 C   0  0  0  0  0  0  0  0  0  0  0  0
  143.6020   68.5450  219.1700 C   0  0  0  0  0  0  0  0  0  0  0  0
  142.9230   66.9410  218.9800 Cl  0  0  0  0  0  0  0  0  0  0  0  0
  144.9380   68.7740  218.8910 C   0  0  0  0  0  0  0  0  0  0  0  0
  145.9920   67.4870  218.3450 Cl  0  0  0  0  0  0  0  0  0  0  0  0
  145.4080   70.0610  219.0620 C   0  0  0  0  0  0  0  0  0  0  0  0
  144.5920   71.1010  219.4950 C   0  0  0  0  0  0  0  0  0  0  0  0
  144.6774   73.9999  221.0642 H   0  0  0  0  0  0  0  0  0  0  0  0
  144.2586   74.3821  219.3637 H   0  0  0  0  0  0  0  0  0  0  0  0
  140.5271   72.6727  221.6552 H   0  0  0  0  0  0  0  0  0  0  0  0
  138.9019   74.3829  222.4215 H   0  0  0  0  0  0  0  0  0  0  0  0
  139.3261   76.8072  222.0508 H   0  0  0  0  0  0  0  0  0  0  0  0
  143.0671   80.1745  221.0497 H   0  0  0  0  0  0  0  0  0  0  0  0
  141.3623   80.4754  220.5437 H   0  0  0  0  0  0  0  0  0  0  0  0
  142.5919   80.9704  223.3108 H   0  0  0  0  0  0  0  0  0  0  0  0
  141.9749   82.1981  222.2107 H   0  0  0  0  0  0  0  0  0  0  0  0
  139.8650   80.7430  222.1920 H   0  0  0  0  0  0  0  0  0  0  0  0
  141.0463   79.9564  224.8053 H   0  0  0  0  0  0  0  0  0  0  0  0
  139.5623   79.3010  223.9801 H   0  0  0  0  0  0  0  0  0  0  0  0
  142.3726   78.5544  223.7065 H   0  0  0  0  0  0  0  0  0  0  0  0
  140.8226   77.6801  223.2708 H   0  0  0  0  0  0  0  0  0  0  0  0
  143.0068   75.7949  220.1378 H   0  0  0  0  0  0  0  0  0  0  0  0
  141.7048   69.3713  219.8216 H   0  0  0  0  0  0  0  0  0  0  0  0
  146.4662   70.2716  218.8480 H   0  0  0  0  0  0  0  0  0  0  0  0
  1  2  2  0
  2  3  1  0
  3  4  1  0
  4  5  1  0
  5  6  2  0
  6  7  1  0
  7  8  2  0
  8  9  1  0
  9 10  1  0
 10 11  2  0
 10 12  1  0
 12 13  1  0
 13 14  1  0
 14 15  1  0
 15 16  1  0
 16 17  1  0
  9 18  2  0
  4 19  2  0
 19 20  1  0
 20 21  2  0
 21 22  1  0
 22 23  1  0
 22 24  2  0
 24 25  1  0
 24 26  1  0
 26 27  2  0
 27  2  1  0
 18  5  1  0
 27 20  1  0
 17 12  1  0
  3 28  1  0
  3 29  1  0
  6 30  1  0
  7 31  1  0
  8 32  1  0
 13 33  1  0
 13 34  1  0
 14 35  1  0
 14 36  1  0
 15 37  1  0
 16 38  1  0
 16 39  1  0
 17 40  1  0
 17 41  1  0
 18 42  1  0
 21 43  1  0
 26 44  1  0
M  END
>  <smiles>  (1) 
O=C1CC(c2cccc(C(=O)N3CCNCC3)c2)=Nc2cc(Cl)c(Cl)cc21

>  <score_type>  (1) 
oracle

>  <origin>  (1) 
autodockgpu

>  <m_score__min__energy>  (1) 
-8.2200000000000006

>  <m_primary>  (1) 
energy

>  <rmsd>  (1) 
7.99027893734312

>  <m_score__min__rmsd>  (1) 
7.99027893734312

>  <meeko>  (1) 
{"free_energy": -7.61, "intermolecular_energy": -8.21, "internal_energy": -0.64, "cluster_size": 8, "cluster_id": 4, "rank_in_cluster": 1}

>  <energy>  (1) 
-8.22

>  <cluster_rmsd>  (1) 
0.0

>  <cluster>  (1) 
1

$$$$

     RDKit          3D

 44 47  0  0  0  0  0  0  0  0999 V2000
  138.9780   69.4570  221.5340 O   0  0  0  0  0  0  0  0  0  0  0  0
  139.4850   70.4820  222.0960 C   0  0  0  0  0  0  0  0  0  0  0  0
  139.7230   71.6870  221.2670 C   0  0  0  0  0  0  0  0  0  0  0  0
  140.3140   72.7480  222.1150 C   0  0  0  0  0  0  0  0  0  0  0  0
  140.6230   74.0340  221.4550 C   0  0  0  0  0  0  0  0  0  0  0  0
  141.3670   74.0810  220.2840 C   0  0  0  0  0  0  0  0  0  0  0  0
  141.6480   75.3030  219.6770 C   0  0  0  0  0  0  0  0  0  0  0  0
  141.1950   76.4980  220.2200 C   0  0  0  0  0  0  0  0  0  0  0  0
  140.4580   76.4570  221.3800 C   0  0  0  0  0  0  0  0  0  0  0  0
  139.9280   77.6390  222.0460 C   0  0  0  0  0  0  0  0  0  0  0  0
  138.7600   77.6020  222.5110 O   0  0  0  0  0  0  0  0  0  0  0  0
  140.6590   78.8450  222.2040 N   0  0  0  0  0  0  0  0  0  0  0  0
  140.0010   79.9490  222.8910 C   0  0  0  0  0  0  0  0  0  0  0  0
  140.9960   81.0700  223.1710 C   0  0  0  0  0  0  0  0  0  0  0  0
  142.1420   80.3960  223.8000 N   0  0  0  0  0  0  0  0  0  0  0  0
  142.8880   79.7740  222.7250 C   0  0  0  0  0  0  0  0  0  0  0  0
  141.9980   79.0610  221.7380 C   0  0  0  0  0  0  0  0  0  0  0  0
  140.1950   75.2390  221.9590 C   0  0  0  0  0  0  0  0  0  0  0  0
  140.5750   72.6470  223.3520 N   0  0  0  0  0  0  0  0  0  0  0  0
  140.3440   71.4910  224.1340 C   0  0  0  0  0  0  0  0  0  0  0  0
  140.6500   71.4420  225.4790 C   0  0  0  0  0  0  0  0  0  0  0  0
  140.4000   70.2750  226.2050 C   0  0  0  0  0  0  0  0  0  0  0  0
  140.8010   70.2500  227.9100 Cl  0  0  0  0  0  0  0  0  0  0  0  0
  139.8490   69.1580  225.6020 C   0  0  0  0  0  0  0  0  0  0  0  0
  139.5340   67.6920  226.5070 Cl  0  0  0  0  0  0  0  0  0  0  0  0
  139.5560   69.2440  224.2560 C   0  0  0  0  0  0  0  0  0  0  0  0
  139.7970   70.3980  223.5140 C   0  0  0  0  0  0  0  0  0  0  0  0
  140.4157   71.4406  220.4488 H   0  0  0  0  0  0  0  0  0  0  0  0
  138.7715   72.0388  220.8416 H   0  0  0  0  0  0  0  0  0  0  0  0
  141.7367   73.1483  219.8329 H   0  0  0  0  0  0  0  0  0  0  0  0
  142.2399   75.3216  218.7500 H   0  0  0  0  0  0  0  0  0  0  0  0
  141.4211   77.4576  219.7322 H   0  0  0  0  0  0  0  0  0  0  0  0
  139.1877   80.3357  222.2593 H   0  0  0  0  0  0  0  0  0  0  0  0
  139.5967   79.5841  223.8467 H   0  0  0  0  0  0  0  0  0  0  0  0
  141.3000   81.5627  222.2357 H   0  0  0  0  0  0  0  0  0  0  0  0
  140.5705   81.8570  223.8110 H   0  0  0  0  0  0  0  0  0  0  0  0
  141.7510   79.6810  224.4700 H   0  0  0  0  0  0  0  0  0  0  0  0
  143.4527   80.5528  222.1915 H   0  0  0  0  0  0  0  0  0  0  0  0
  143.5559   79.0239  223.1736 H   0  0  0  0  0  0  0  0  0  0  0  0
  141.9505   79.6630  220.8186 H   0  0  0  0  0  0  0  0  0  0  0  0
  142.4400   78.0672  221.5739 H   0  0  0  0  0  0  0  0  0  0  0  0
  139.6034   75.2275  222.8863 H   0  0  0  0  0  0  0  0  0  0  0  0
  141.0891   72.3187  225.9775 H   0  0  0  0  0  0  0  0  0  0  0  0
  139.1168   68.3707  223.7515 H   0  0  0  0  0  0  0  0  0  0  0  0
  1  2  2  0
  2  3  1  0
  3  4  1  0
  4  5  1  0
  5  6  2  0
  6  7  1  0
  7  8  2  0
  8  9  1  0
  9 10  1  0
 10 11  2  0
 10 12  1  0
 12 13  1  0
 13 14  1  0
 14 15  1  0
 15 16  1  0
 16 17  1  0
  9 18  2  0
  4 19  2  0
 19 20  1  0
 20 21  2  0
 21 22  1  0
 22 23  1  0
 22 24  2  0
 24 25  1  0
 24 26  1  0
 26 27  2  0
 27  2  1  0
 18  5  1  0
 27 20  1  0
 17 12  1  0
  3 28  1  0
  3 29  1  0
  6 30  1  0
  7 31  1  0
  8 32  1  0
 13 33  1  0
 13 34  1  0
 14 35  1  0
 14 36  1  0
 15 37  1  0
 16 38  1  0
 16 39  1  0
 17 40  1  0
 17 41  1  0
 18 42  1  0
 21 43  1  0
 26 44  1  0
M  END
>  <smiles>  (2) 
O=C1CC(c2cccc(C(=O)N3CCNCC3)c2)=Nc2cc(Cl)c(Cl)cc21

>  <score_type>  (2) 
oracle

>  <origin>  (2) 
autodockgpu

>  <m_score__min__energy>  (2) 
-8.2200000000000006

>  <m_primary>  (2) 
energy

>  <rmsd>  (2) 
6.303623226827621

>  <m_score__min__rmsd>  (2) 
6.303623226827621

>  <meeko>  (2) 
{"free_energy": -8.19, "intermolecular_energy": -8.79, "internal_energy": -0.56, "cluster_size": 25, "cluster_id": 1, "rank_in_cluster": 19}

>  <energy>  (2) 
-8.21

>  <cluster_rmsd>  (2) 
0.03

>  <cluster>  (2) 
1

$$$$

     RDKit          3D

 44 47  0  0  0  0  0  0  0  0999 V2000
  138.8380   69.5940  221.5270 O   0  0  0  0  0  0  0  0  0  0  0  0
  139.4230   70.5650  222.1090 C   0  0  0  0  0  0  0  0  0  0  0  0
  139.7440   71.7680  221.3050 C   0  0  0  0  0  0  0  0  0  0  0  0
  140.4180   72.7620  222.1740 C   0  0  0  0  0  0  0  0  0  0  0  0
  140.8160   74.0370  221.5410 C   0  0  0  0  0  0  0  0  0  0  0  0
  141.7070   74.0640  220.4750 C   0  0  0  0  0  0  0  0  0  0  0  0
  142.0700   75.2760  219.8930 C   0  0  0  0  0  0  0  0  0  0  0  0
  141.5580   76.4810  220.3560 C   0  0  0  0  0  0  0  0  0  0  0  0
  140.6760   76.4600  221.4100 C   0  0  0  0  0  0  0  0  0  0  0  0
  140.0710   77.6530  221.9850 C   0  0  0  0  0  0  0  0  0  0  0  0
  138.8540   77.6250  222.3010 O   0  0  0  0  0  0  0  0  0  0  0  0
  140.7800   78.8610  222.2130 N   0  0  0  0  0  0  0  0  0  0  0  0
  140.0450   79.9770  222.7940 C   0  0  0  0  0  0  0  0  0  0  0  0
  141.0010   81.1020  223.1770 C   0  0  0  0  0  0  0  0  0  0  0  0
  142.0570   80.4370  223.9550 N   0  0  0  0  0  0  0  0  0  0  0  0
  142.9290   79.7970  222.9920 C   0  0  0  0  0  0  0  0  0  0  0  0
  142.1670   79.0680  221.9140 C   0  0  0  0  0  0  0  0  0  0  0  0
  140.3340   75.2510  221.9670 C   0  0  0  0  0  0  0  0  0  0  0  0
  140.6780   72.6130  223.4050 N   0  0  0  0  0  0  0  0  0  0  0  0
  140.3670   71.4590  224.1630 C   0  0  0  0  0  0  0  0  0  0  0  0
  140.6770   71.3570  225.5040 C   0  0  0  0  0  0  0  0  0  0  0  0
  140.3460   70.1930  226.2050 C   0  0  0  0  0  0  0  0  0  0  0  0
  140.7550   70.0990  227.9050 Cl  0  0  0  0  0  0  0  0  0  0  0  0
  139.7100   69.1350  225.5800 C   0  0  0  0  0  0  0  0  0  0  0  0
  139.2930   67.6760  226.4540 Cl  0  0  0  0  0  0  0  0  0  0  0  0
  139.4160   69.2750  224.2390 C   0  0  0  0  0  0  0  0  0  0  0  0
  139.7360   70.4240  223.5220 C   0  0  0  0  0  0  0  0  0  0  0  0
  140.4112   71.4903  220.4756 H   0  0  0  0  0  0  0  0  0  0  0  0
  138.8189   72.1990  220.8946 H   0  0  0  0  0  0  0  0  0  0  0  0
  142.1275   73.1237  220.0891 H   0  0  0  0  0  0  0  0  0  0  0  0
  142.7764   75.2789  219.0498 H   0  0  0  0  0  0  0  0  0  0  0  0
  141.8522   77.4325  219.8890 H   0  0  0  0  0  0  0  0  0  0  0  0
  139.3179   80.3536  222.0595 H   0  0  0  0  0  0  0  0  0  0  0  0
  139.5237   79.6288  223.6979 H   0  0  0  0  0  0  0  0  0  0  0  0
  141.4209   81.5784  222.2788 H   0  0  0  0  0  0  0  0  0  0  0  0
  140.5018   81.9006  223.7454 H   0  0  0  0  0  0  0  0  0  0  0  0
  141.5830   79.7340  224.5830 H   0  0  0  0  0  0  0  0  0  0  0  0
  143.5576   80.5665  222.5201 H   0  0  0  0  0  0  0  0  0  0  0  0
  143.5340   79.0542  223.5326 H   0  0  0  0  0  0  0  0  0  0  0  0
  142.2362   79.6543  220.9859 H   0  0  0  0  0  0  0  0  0  0  0  0
  142.6232   78.0712  221.8230 H   0  0  0  0  0  0  0  0  0  0  0  0
  139.6273   75.2556  222.8100 H   0  0  0  0  0  0  0  0  0  0  0  0
  141.1821   72.1874  226.0191 H   0  0  0  0  0  0  0  0  0  0  0  0
  138.9105   68.4486  223.7180 H   0  0  0  0  0  0  0  0  0  0  0  0
  1  2  2  0
  2  3  1  0
  3  4  1  0
  4  5  1  0
  5  6  2  0
  6  7  1  0
  7  8  2  0
  8  9  1  0
  9 10  1  0
 10 11  2  0
 10 12  1  0
 12 13  1  0
 13 14  1  0
 14 15  1  0
 15 16  1  0
 16 17  1  0
  9 18  2  0
  4 19  2  0
 19 20  1  0
 20 21  2  0
 21 22  1  0
 22 23  1  0
 22 24  2  0
 24 25  1  0
 24 26  1  0
 26 27  2  0
 27  2  1  0
 18  5  1  0
 27 20  1  0
 17 12  1  0
  3 28  1  0
  3 29  1  0
  6 30  1  0
  7 31  1  0
  8 32  1  0
 13 33  1  0
 13 34  1  0
 14 35  1  0
 14 36  1  0
 15 37  1  0
 16 38  1  0
 16 39  1  0
 17 40  1  0
 17 41  1  0
 18 42  1  0
 21 43  1  0
 26 44  1  0
M  END
>  <smiles>  (3) 
O=C1CC(c2cccc(C(=O)N3CCNCC3)c2)=Nc2cc(Cl)c(Cl)cc21

>  <score_type>  (3) 
oracle

>  <origin>  (3) 
autodockgpu

>  <m_score__min__energy>  (3) 
-8.2200000000000006

>  <m_primary>  (3) 
energy

>  <rmsd>  (3) 
6.363706844157074

>  <m_score__min__rmsd>  (3) 
6.363706844157074

>  <meeko>  (3) 
{"free_energy": -8.19, "intermolecular_energy": -8.79, "internal_energy": -0.56, "cluster_size": 25, "cluster_id": 1, "rank_in_cluster": 18}

>  <energy>  (3) 
-8.21

>  <cluster_rmsd>  (3) 
0.04

>  <cluster>  (3) 
1

$$$$

     RDKit          3D

 44 47  0  0  0  0  0  0  0  0999 V2000
  146.3290   72.6950  219.6110 O   0  0  0  0  0  0  0  0  0  0  0  0
  145.0930   72.4680  219.8170 C   0  0  0  0  0  0  0  0  0  0  0  0
  144.2410   73.5980  220.2590 C   0  0  0  0  0  0  0  0  0  0  0  0
  142.8520   73.1130  220.4400 C   0  0  0  0  0  0  0  0  0  0  0  0
  141.8520   74.1080  220.8820 C   0  0  0  0  0  0  0  0  0  0  0  0
  140.6980   73.7190  221.5490 C   0  0  0  0  0  0  0  0  0  0  0  0
  139.7670   74.6730  221.9570 C   0  0  0  0  0  0  0  0  0  0  0  0
  139.9650   76.0250  221.7110 C   0  0  0  0  0  0  0  0  0  0  0  0
  141.1050   76.4140  221.0510 C   0  0  0  0  0  0  0  0  0  0  0  0
  141.4260   77.7990  220.7340 C   0  0  0  0  0  0  0  0  0  0  0  0
  141.5730   78.1290  219.5290 O   0  0  0  0  0  0  0  0  0  0  0  0
  141.5850   78.8120  221.7140 N   0  0  0  0  0  0  0  0  0  0  0  0
  141.9070   80.1560  221.2520 C   0  0  0  0  0  0  0  0  0  0  0  0
  141.8170   81.1520  222.4040 C   0  0  0  0  0  0  0  0  0  0  0  0
  140.5070   80.8830  223.0180 N   0  0  0  0  0  0  0  0  0  0  0  0
  140.6750   79.6980  223.8340 C   0  0  0  0  0  0  0  0  0  0  0  0
  141.4520   78.6140  223.1290 C   0  0  0  0  0  0  0  0  0  0  0  0
  142.0080   75.4540  220.6580 C   0  0  0  0  0  0  0  0  0  0  0  0
  142.4530   71.9260  220.2470 N   0  0  0  0  0  0  0  0  0  0  0  0
  143.2740   70.8550  219.8250 C   0  0  0  0  0  0  0  0  0  0  0  0
  142.7790   69.5810  219.6330 C   0  0  0  0  0  0  0  0  0  0  0  0
  143.6360   68.5590  219.2140 C   0  0  0  0  0  0  0  0  0  0  0  0
  142.9720   66.9550  218.9810 Cl  0  0  0  0  0  0  0  0  0  0  0  0
  144.9800   68.7980  218.9870 C   0  0  0  0  0  0  0  0  0  0  0  0
  146.0580   67.5210  218.4630 Cl  0  0  0  0  0  0  0  0  0  0  0  0
  145.4390   70.0830  219.1900 C   0  0  0  0  0  0  0  0  0  0  0  0
  144.6030   71.1160  219.6060 C   0  0  0  0  0  0  0  0  0  0  0  0
  144.6202   73.9950  221.2122 H   0  0  0  0  0  0  0  0  0  0  0  0
  144.2603   74.3962  219.5024 H   0  0  0  0  0  0  0  0  0  0  0  0
  140.5177   72.6539  221.7563 H   0  0  0  0  0  0  0  0  0  0  0  0
  138.8578   74.3483  222.4841 H   0  0  0  0  0  0  0  0  0  0  0  0
  139.2241   76.7694  222.0380 H   0  0  0  0  0  0  0  0  0  0  0  0
  142.9291   80.1640  220.8454 H   0  0  0  0  0  0  0  0  0  0  0  0
  141.1870   80.4467  220.4728 H   0  0  0  0  0  0  0  0  0  0  0  0
  142.6281   80.9844  223.1279 H   0  0  0  0  0  0  0  0  0  0  0  0
  141.9160   82.1942  222.0663 H   0  0  0  0  0  0  0  0  0  0  0  0
  139.8230   80.7240  222.2320 H   0  0  0  0  0  0  0  0  0  0  0  0
  141.2123   79.9760  224.7527 H   0  0  0  0  0  0  0  0  0  0  0  0
  139.6734   79.3004  224.0546 H   0  0  0  0  0  0  0  0  0  0  0  0
  142.4598   78.5708  223.5677 H   0  0  0  0  0  0  0  0  0  0  0  0
  140.8875   77.6799  223.2661 H   0  0  0  0  0  0  0  0  0  0  0  0
  142.9141   75.7858  220.1299 H   0  0  0  0  0  0  0  0  0  0  0  0
  141.7138   69.3705  219.8091 H   0  0  0  0  0  0  0  0  0  0  0  0
  146.5035   70.2994  219.0171 H   0  0  0  0  0  0  0  0  0  0  0  0
  1  2  2  0
  2  3  1  0
  3  4  1  0
  4  5  1  0
  5  6  2  0
  6  7  1  0
  7  8  2  0
  8  9  1  0
  9 10  1  0
 10 11  2  0
 10 12  1  0
 12 13  1  0
 13 14  1  0
 14 15  1  0
 15 16  1  0
 16 17  1  0
  9 18  2  0
  4 19  2  0
 19 20  1  0
 20 21  2  0
 21 22  1  0
 22 23  1  0
 22 24  2  0
 24 25  1  0
 24 26  1  0
 26 27  2  0
 27  2  1  0
 18  5  1  0
 27 20  1  0
 17 12  1  0
  3 28  1  0
  3 29  1  0
  6 30  1  0
  7 31  1  0
  8 32  1  0
 13 33  1  0
 13 34  1  0
 14 35  1  0
 14 36  1  0
 15 37  1  0
 16 38  1  0
 16 39  1  0
 17 40  1  0
 17 41  1  0
 18 42  1  0
 21 43  1  0
 26 44  1  0
M  END
>  <smiles>  (4) 
O=C1CC(c2cccc(C(=O)N3CCNCC3)c2)=Nc2cc(Cl)c(Cl)cc21

>  <score_type>  (4) 
oracle

>  <origin>  (4) 
autodockgpu

>  <m_score__min__energy>  (4) 
-8.2200000000000006

>  <m_primary>  (4) 
energy

>  <rmsd>  (4) 
7.926848811273114

>  <m_score__min__rmsd>  (4) 
7.926848811273114

>  <meeko>  (4) 
{"free_energy": -7.59, "intermolecular_energy": -8.19, "internal_energy": -0.65, "cluster_size": 8, "cluster_id": 4, "rank_in_cluster": 7}

>  <energy>  (4) 
-8.21

>  <cluster_rmsd>  (4) 
0.13

>  <cluster>  (4) 
1

$$$$

     RDKit          3D

 44 47  0  0  0  0  0  0  0  0999 V2000
  138.4920   69.6240  221.7520 O   0  0  0  0  0  0  0  0  0  0  0  0
  139.1750   70.5700  222.2640 C   0  0  0  0  0  0  0  0  0  0  0  0
  139.5030   71.7350  221.4080 C   0  0  0  0  0  0  0  0  0  0  0  0
  140.2970   72.7050  222.1980 C   0  0  0  0  0  0  0  0  0  0  0  0
  140.7200   73.9400  221.5050 C   0  0  0  0  0  0  0  0  0  0  0  0
  140.3390   75.1920  221.9710 C   0  0  0  0  0  0  0  0  0  0  0  0
  140.7480   76.3440  221.3020 C   0  0  0  0  0  0  0  0  0  0  0  0
  141.5390   76.2760  220.1630 C   0  0  0  0  0  0  0  0  0  0  0  0
  141.9180   75.0390  219.6990 C   0  0  0  0  0  0  0  0  0  0  0  0
  142.7450   74.8350  218.5170 C   0  0  0  0  0  0  0  0  0  0  0  0
  142.6070   75.6120  217.5370 O   0  0  0  0  0  0  0  0  0  0  0  0
  143.7100   73.8010  218.4030 N   0  0  0  0  0  0  0  0  0  0  0  0
  144.4650   73.7160  217.1600 C   0  0  0  0  0  0  0  0  0  0  0  0
  145.6010   72.7070  217.2950 C   0  0  0  0  0  0  0  0  0  0  0  0
  146.2830   73.0870  218.5420 N   0  0  0  0  0  0  0  0  0  0  0  0
  145.4700   72.5710  219.6240 C   0  0  0  0  0  0  0  0  0  0  0  0
  143.9990   72.8320  219.4200 C   0  0  0  0  0  0  0  0  0  0  0  0
  141.5020   73.9170  220.3760 C   0  0  0  0  0  0  0  0  0  0  0  0
  140.6410   72.5660  223.4100 N   0  0  0  0  0  0  0  0  0  0  0  0
  140.3220   71.4500  224.2180 C   0  0  0  0  0  0  0  0  0  0  0  0
  140.7260   71.3570  225.5340 C   0  0  0  0  0  0  0  0  0  0  0  0
  140.3830   70.2310  226.2880 C   0  0  0  0  0  0  0  0  0  0  0  0
  140.9140   70.1470  227.9550 Cl  0  0  0  0  0  0  0  0  0  0  0  0
  139.6400   69.1990  225.7400 C   0  0  0  0  0  0  0  0  0  0  0  0
  139.2070   67.7860  226.6780 Cl  0  0  0  0  0  0  0  0  0  0  0  0
  139.2550   69.3280  224.4210 C   0  0  0  0  0  0  0  0  0  0  0  0
  139.5850   70.4410  223.6530 C   0  0  0  0  0  0  0  0  0  0  0  0
  140.0880   71.4008  220.5385 H   0  0  0  0  0  0  0  0  0  0  0  0
  138.5757   72.2116  221.0573 H   0  0  0  0  0  0  0  0  0  0  0  0
  139.7123   75.2743  222.8712 H   0  0  0  0  0  0  0  0  0  0  0  0
  140.4377   77.3277  221.6843 H   0  0  0  0  0  0  0  0  0  0  0  0
  141.8555   77.1923  219.6432 H   0  0  0  0  0  0  0  0  0  0  0  0
  143.7931   73.3987  216.3489 H   0  0  0  0  0  0  0  0  0  0  0  0
  144.8911   74.7045  216.9334 H   0  0  0  0  0  0  0  0  0  0  0  0
  145.2056   71.6829  217.3643 H   0  0  0  0  0  0  0  0  0  0  0  0
  146.2771   72.7189  216.4274 H   0  0  0  0  0  0  0  0  0  0  0  0
  146.3340   74.1400  218.5580 H   0  0  0  0  0  0  0  0  0  0  0  0
  145.6283   71.4849  219.6964 H   0  0  0  0  0  0  0  0  0  0  0  0
  145.7752   73.0881  220.5457 H   0  0  0  0  0  0  0  0  0  0  0  0
  143.5158   71.8841  219.1408 H   0  0  0  0  0  0  0  0  0  0  0  0
  143.6163   73.2425  220.3661 H   0  0  0  0  0  0  0  0  0  0  0  0
  141.8160   72.9367  219.9881 H   0  0  0  0  0  0  0  0  0  0  0  0
  141.3162   72.1664  225.9884 H   0  0  0  0  0  0  0  0  0  0  0  0
  138.6658   68.5217  223.9597 H   0  0  0  0  0  0  0  0  0  0  0  0
  1  2  2  0
  2  3  1  0
  3  4  1  0
  4  5  1  0
  5  6  2  0
  6  7  1  0
  7  8  2  0
  8  9  1  0
  9 10  1  0
 10 11  2  0
 10 12  1  0
 12 13  1  0
 13 14  1  0
 14 15  1  0
 15 16  1  0
 16 17  1  0
  9 18  2  0
  4 19  2  0
 19 20  1  0
 20 21  2  0
 21 22  1  0
 22 23  1  0
 22 24  2  0
 24 25  1  0
 24 26  1  0
 26 27  2  0
 27  2  1  0
 18  5  1  0
 27 20  1  0
 17 12  1  0
  3 28  1  0
  3 29  1  0
  6 30  1  0
  7 31  1  0
  8 32  1  0
 13 33  1  0
 13 34  1  0
 14 35  1  0
 14 36  1  0
 15 37  1  0
 16 38  1  0
 16 39  1  0
 17 40  1  0
 17 41  1  0
 18 42  1  0
 21 43  1  0
 26 44  1  0
M  END
>  <smiles>  (5) 
O=C1CC(c2cccc(C(=O)N3CCNCC3)c2)=Nc2cc(Cl)c(Cl)cc21

>  <score_type>  (5) 
oracle

>  <origin>  (5) 
autodockgpu

>  <m_score__min__energy>  (5) 
-8.2200000000000006

>  <m_primary>  (5) 
energy

>  <rmsd>  (5) 
6.211393170885139

>  <m_score__min__rmsd>  (5) 
6.211393170885139

>  <meeko>  (5) 
{"free_energy": -8.02, "intermolecular_energy": -8.62, "internal_energy": -0.48, "cluster_size": 9, "cluster_id": 2, "rank_in_cluster": 7}

>  <energy>  (5) 
-8.21

>  <cluster_rmsd>  (5) 
0.05

>  <cluster>  (5) 
1

$$$$

     RDKit          3D

 44 47  0  0  0  0  0  0  0  0999 V2000
  141.3920   75.1140  218.4500 O   0  0  0  0  0  0  0  0  0  0  0  0
  141.0680   75.0000  219.6770 C   0  0  0  0  0  0  0  0  0  0  0  0
  140.7100   73.6540  220.1820 C   0  0  0  0  0  0  0  0  0  0  0  0
  140.3690   73.7540  221.6210 C   0  0  0  0  0  0  0  0  0  0  0  0
  139.9830   72.5000  222.3020 C   0  0  0  0  0  0  0  0  0  0  0  0
  139.2300   71.5300  221.6520 C   0  0  0  0  0  0  0  0  0  0  0  0
  138.8770   70.3560  222.3120 C   0  0  0  0  0  0  0  0  0  0  0  0
  139.2620   70.1220  223.6250 C   0  0  0  0  0  0  0  0  0  0  0  0
  140.0070   71.0780  224.2730 C   0  0  0  0  0  0  0  0  0  0  0  0
  140.4720   70.9500  225.6470 C   0  0  0  0  0  0  0  0  0  0  0  0
  140.7660   71.9920  226.2880 O   0  0  0  0  0  0  0  0  0  0  0  0
  140.6150   69.7070  226.3160 N   0  0  0  0  0  0  0  0  0  0  0  0
  141.0920   69.7300  227.6920 C   0  0  0  0  0  0  0  0  0  0  0  0
  140.9690   68.3470  228.3220 C   0  0  0  0  0  0  0  0  0  0  0  0
  139.5870   67.9350  228.0330 N   0  0  0  0  0  0  0  0  0  0  0  0
  139.5730   67.4930  226.6540 C   0  0  0  0  0  0  0  0  0  0  0  0
  140.3250   68.4260  225.7390 C   0  0  0  0  0  0  0  0  0  0  0  0
  140.3430   72.2280  223.6000 C   0  0  0  0  0  0  0  0  0  0  0  0
  140.3820   74.8160  222.3120 N   0  0  0  0  0  0  0  0  0  0  0  0
  140.7260   76.0970  221.8190 C   0  0  0  0  0  0  0  0  0  0  0  0
  140.7200   77.2180  222.6240 C   0  0  0  0  0  0  0  0  0  0  0  0
  141.0690   78.4600  222.0850 C   0  0  0  0  0  0  0  0  0  0  0  0
  141.0510   79.8610  223.1360 Cl  0  0  0  0  0  0  0  0  0  0  0  0
  141.4230   78.5910  220.7530 C   0  0  0  0  0  0  0  0  0  0  0  0
  141.8600   80.1440  220.0730 Cl  0  0  0  0  0  0  0  0  0  0  0  0
  141.4160   77.4470  219.9800 C   0  0  0  0  0  0  0  0  0  0  0  0
  141.0720   76.2010  220.4970 C   0  0  0  0  0  0  0  0  0  0  0  0
  139.8441   73.2688  219.6236 H   0  0  0  0  0  0  0  0  0  0  0  0
  141.5597   72.9684  220.0480 H   0  0  0  0  0  0  0  0  0  0  0  0
  138.9113   71.6903  220.6114 H   0  0  0  0  0  0  0  0  0  0  0  0
  138.2809   69.5984  221.7822 H   0  0  0  0  0  0  0  0  0  0  0  0
  138.9767   69.1907  224.1362 H   0  0  0  0  0  0  0  0  0  0  0  0
  142.1470   70.0411  227.7044 H   0  0  0  0  0  0  0  0  0  0  0  0
  140.4810   70.4398  228.2689 H   0  0  0  0  0  0  0  0  0  0  0  0
  141.6866   67.6475  227.8685 H   0  0  0  0  0  0  0  0  0  0  0  0
  141.1869   68.3565  229.4002 H   0  0  0  0  0  0  0  0  0  0  0  0
  138.9740   68.7800  228.1790 H   0  0  0  0  0  0  0  0  0  0  0  0
  140.0355   66.4965  226.5986 H   0  0  0  0  0  0  0  0  0  0  0  0
  138.5248   67.4726  226.3211 H   0  0  0  0  0  0  0  0  0  0  0  0
  141.2768   67.9476  225.4647 H   0  0  0  0  0  0  0  0  0  0  0  0
  139.6751   68.6098  224.8707 H   0  0  0  0  0  0  0  0  0  0  0  0
  140.9398   72.9808  224.1359 H   0  0  0  0  0  0  0  0  0  0  0  0
  140.4419   77.1347  223.6850 H   0  0  0  0  0  0  0  0  0  0  0  0
  141.6920   77.5228  218.9179 H   0  0  0  0  0  0  0  0  0  0  0  0
  1  2  2  0
  2  3  1  0
  3  4  1  0
  4  5  1  0
  5  6  2  0
  6  7  1  0
  7  8  2  0
  8  9  1  0
  9 10  1  0
 10 11  2  0
 10 12  1  0
 12 13  1  0
 13 14  1  0
 14 15  1  0
 15 16  1  0
 16 17  1  0
  9 18  2  0
  4 19  2  0
 19 20  1  0
 20 21  2  0
 21 22  1  0
 22 23  1  0
 22 24  2  0
 24 25  1  0
 24 26  1  0
 26 27  2  0
 27  2  1  0
 18  5  1  0
 27 20  1  0
 17 12  1  0
  3 28  1  0
  3 29  1  0
  6 30  1  0
  7 31  1  0
  8 32  1  0
 13 33  1  0
 13 34  1  0
 14 35  1  0
 14 36  1  0
 15 37  1  0
 16 38  1  0
 16 39  1  0
 17 40  1  0
 17 41  1  0
 18 42  1  0
 21 43  1  0
 26 44  1  0
M  END
>  <smiles>  (6) 
O=C1CC(c2cccc(C(=O)N3CCNCC3)c2)=Nc2cc(Cl)c(Cl)cc21

>  <score_type>  (6) 
oracle

>  <origin>  (6) 
autodockgpu

>  <m_score__min__energy>  (6) 
-8.2200000000000006

>  <m_primary>  (6) 
energy

>  <rmsd>  (6) 
8.583392739879983

>  <m_score__min__rmsd>  (6) 
8.583392739879983

>  <meeko>  (6) 
{"free_energy": -7.99, "intermolecular_energy": -8.58, "internal_energy": -0.43, "cluster_size": 8, "cluster_id": 3, "rank_in_cluster": 3}

>  <energy>  (6) 
-8.21

>  <cluster_rmsd>  (6) 
0.04

>  <cluster>  (6) 
1

$$$$

     RDKit          3D

 44 47  0  0  0  0  0  0  0  0999 V2000
  138.8810   69.5180  221.5300 O   0  0  0  0  0  0  0  0  0  0  0  0
  139.4530   70.5140  222.0820 C   0  0  0  0  0  0  0  0  0  0  0  0
  139.7750   71.6880  221.2370 C   0  0  0  0  0  0  0  0  0  0  0  0
  140.4320   72.7190  222.0750 C   0  0  0  0  0  0  0  0  0  0  0  0
  140.8290   73.9720  221.3990 C   0  0  0  0  0  0  0  0  0  0  0  0
  140.5300   75.2120  221.9480 C   0  0  0  0  0  0  0  0  0  0  0  0
  140.9130   76.3810  221.2940 C   0  0  0  0  0  0  0  0  0  0  0  0
  141.5980   76.3420  220.0880 C   0  0  0  0  0  0  0  0  0  0  0  0
  141.8960   75.1170  219.5400 C   0  0  0  0  0  0  0  0  0  0  0  0
  142.6090   74.9440  218.2820 C   0  0  0  0  0  0  0  0  0  0  0  0
  142.3310   75.7010  217.3160 O   0  0  0  0  0  0  0  0  0  0  0  0
  143.6120   73.9620  218.0760 N   0  0  0  0  0  0  0  0  0  0  0  0
  144.2410   73.9020  216.7640 C   0  0  0  0  0  0  0  0  0  0  0  0
  145.4370   72.9560  216.7890 C   0  0  0  0  0  0  0  0  0  0  0  0
  146.2200   73.3860  217.9570 N   0  0  0  0  0  0  0  0  0  0  0  0
  145.5510   72.8410  219.1190 C   0  0  0  0  0  0  0  0  0  0  0  0
  144.0540   73.0200  219.0640 C   0  0  0  0  0  0  0  0  0  0  0  0
  141.5070   73.9780  220.2040 C   0  0  0  0  0  0  0  0  0  0  0  0
  140.6780   72.6180  223.3140 N   0  0  0  0  0  0  0  0  0  0  0  0
  140.3660   71.4920  224.1110 C   0  0  0  0  0  0  0  0  0  0  0  0
  140.6620   71.4420  225.4580 C   0  0  0  0  0  0  0  0  0  0  0  0
  140.3300   70.3040  226.1990 C   0  0  0  0  0  0  0  0  0  0  0  0
  140.7200   70.2760  227.9060 Cl  0  0  0  0  0  0  0  0  0  0  0  0
  139.7080   69.2180  225.6080 C   0  0  0  0  0  0  0  0  0  0  0  0
  139.2910   67.7900  226.5310 Cl  0  0  0  0  0  0  0  0  0  0  0  0
  139.4290   69.3050  224.2590 C   0  0  0  0  0  0  0  0  0  0  0  0
  139.7500   70.4290  223.5020 C   0  0  0  0  0  0  0  0  0  0  0  0
  140.4535   71.3841  220.4263 H   0  0  0  0  0  0  0  0  0  0  0  0
  138.8517   72.0965  220.8003 H   0  0  0  0  0  0  0  0  0  0  0  0
  139.9883   75.2715  222.9035 H   0  0  0  0  0  0  0  0  0  0  0  0
  140.6673   77.3547  221.7429 H   0  0  0  0  0  0  0  0  0  0  0  0
  141.8963   77.2716  219.5812 H   0  0  0  0  0  0  0  0  0  0  0  0
  143.5085   73.5404  216.0274 H   0  0  0  0  0  0  0  0  0  0  0  0
  144.5888   74.9088  216.4893 H   0  0  0  0  0  0  0  0  0  0  0  0
  145.1061   71.9134  216.9048 H   0  0  0  0  0  0  0  0  0  0  0  0
  146.0201   72.9931  215.8570 H   0  0  0  0  0  0  0  0  0  0  0  0
  146.2160   74.4410  217.9620 H   0  0  0  0  0  0  0  0  0  0  0  0
  145.7751   71.7660  219.1826 H   0  0  0  0  0  0  0  0  0  0  0  0
  145.9193   73.3852  220.0011 H   0  0  0  0  0  0  0  0  0  0  0  0
  143.5976   72.0446  218.8397 H   0  0  0  0  0  0  0  0  0  0  0  0
  143.7463   73.4186  220.0420 H   0  0  0  0  0  0  0  0  0  0  0  0
  141.7548   73.0077  219.7488 H   0  0  0  0  0  0  0  0  0  0  0  0
  141.1572   72.2941  225.9466 H   0  0  0  0  0  0  0  0  0  0  0  0
  138.9353   68.4558  223.7640 H   0  0  0  0  0  0  0  0  0  0  0  0
  1  2  2  0
  2  3  1  0
  3  4  1  0
  4  5  1  0
  5  6  2  0
  6  7  1  0
  7  8  2  0
  8  9  1  0
  9 10  1  0
 10 11  2  0
 10 12  1  0
 12 13  1  0
 13 14  1  0
 14 15  1  0
 15 16  1  0
 16 17  1  0
  9 18  2  0
  4 19  2  0
 19 20  1  0
 20 21  2  0
 21 22  1  0
 22 23  1  0
 22 24  2  0
 24 25  1  0
 24 26  1  0
 26 27  2  0
 27  2  1  0
 18  5  1  0
 27 20  1  0
 17 12  1  0
  3 28  1  0
  3 29  1  0
  6 30  1  0
  7 31  1  0
  8 32  1  0
 13 33  1  0
 13 34  1  0
 14 35  1  0
 14 36  1  0
 15 37  1  0
 16 38  1  0
 16 39  1  0
 17 40  1  0
 17 41  1  0
 18 42  1  0
 21 43  1  0
 26 44  1  0
M  END
>  <smiles>  (7) 
O=C1CC(c2cccc(C(=O)N3CCNCC3)c2)=Nc2cc(Cl)c(Cl)cc21

>  <score_type>  (7) 
oracle

>  <origin>  (7) 
autodockgpu

>  <m_score__min__energy>  (7) 
-8.2200000000000006

>  <m_primary>  (7) 
energy

>  <rmsd>  (7) 
6.24770302024026

>  <m_score__min__rmsd>  (7) 
6.24770302024026

>  <meeko>  (7) 
{"free_energy": -7.71, "intermolecular_energy": -8.3, "internal_energy": -0.54, "cluster_size": 9, "cluster_id": 2, "rank_in_cluster": 8}

>  <energy>  (7) 
-8.21

>  <cluster_rmsd>  (7) 
0.14

>  <cluster>  (7) 
1

$$$$

     RDKit          3D

 44 47  0  0  0  0  0  0  0  0999 V2000
  140.3410   75.4680  218.3530 O   0  0  0  0  0  0  0  0  0  0  0  0
  140.3910   75.2430  219.6060 C   0  0  0  0  0  0  0  0  0  0  0  0
  140.1330   73.8610  220.0780 C   0  0  0  0  0  0  0  0  0  0  0  0
  140.2400   73.8280  221.5560 C   0  0  0  0  0  0  0  0  0  0  0  0
  140.0120   72.5230  222.2100 C   0  0  0  0  0  0  0  0  0  0  0  0
  139.4700   71.4520  221.5110 C   0  0  0  0  0  0  0  0  0  0  0  0
  139.2630   70.2300  222.1470 C   0  0  0  0  0  0  0  0  0  0  0  0
  139.5880   70.0480  223.4840 C   0  0  0  0  0  0  0  0  0  0  0  0
  140.1250   71.1050  224.1810 C   0  0  0  0  0  0  0  0  0  0  0  0
  140.5070   71.0400  225.5850 C   0  0  0  0  0  0  0  0  0  0  0  0
  140.7360   72.1120  226.2020 O   0  0  0  0  0  0  0  0  0  0  0  0
  140.6370   69.8260  226.3070 N   0  0  0  0  0  0  0  0  0  0  0  0
  141.0290   69.9120  227.7080 C   0  0  0  0  0  0  0  0  0  0  0  0
  140.9000   68.5500  228.3820 C   0  0  0  0  0  0  0  0  0  0  0  0
  139.5480   68.0920  228.0260 N   0  0  0  0  0  0  0  0  0  0  0  0
  139.6300   67.5990  226.6670 C   0  0  0  0  0  0  0  0  0  0  0  0
  140.4140   68.5180  225.7630 C   0  0  0  0  0  0  0  0  0  0  0  0
  140.3190   72.3000  223.5310 C   0  0  0  0  0  0  0  0  0  0  0  0
  140.5100   74.8180  222.3000 N   0  0  0  0  0  0  0  0  0  0  0  0
  140.7550   76.1330  221.8390 C   0  0  0  0  0  0  0  0  0  0  0  0
  141.0440   77.1710  222.7020 C   0  0  0  0  0  0  0  0  0  0  0  0
  141.2780   78.4510  222.1920 C   0  0  0  0  0  0  0  0  0  0  0  0
  141.6420   79.7440  223.3170 Cl  0  0  0  0  0  0  0  0  0  0  0  0
  141.2260   78.7040  220.8320 C   0  0  0  0  0  0  0  0  0  0  0  0
  141.5190   80.3050  220.1890 Cl  0  0  0  0  0  0  0  0  0  0  0  0
  140.9340   77.6410  220.0020 C   0  0  0  0  0  0  0  0  0  0  0  0
  140.6980   76.3580  220.4880 C   0  0  0  0  0  0  0  0  0  0  0  0
  139.1224   73.5502  219.7744 H   0  0  0  0  0  0  0  0  0  0  0  0
  140.8699   73.1739  219.6366 H   0  0  0  0  0  0  0  0  0  0  0  0
  139.2030   71.5693  220.4504 H   0  0  0  0  0  0  0  0  0  0  0  0
  138.8333   69.3924  221.5780 H   0  0  0  0  0  0  0  0  0  0  0  0
  139.4196   69.0786  223.9759 H   0  0  0  0  0  0  0  0  0  0  0  0
  142.0738   70.2502  227.7717 H   0  0  0  0  0  0  0  0  0  0  0  0
  140.3679   70.6268  228.2197 H   0  0  0  0  0  0  0  0  0  0  0  0
  141.6603   67.8530  227.9998 H   0  0  0  0  0  0  0  0  0  0  0  0
  141.0511   68.6048  229.4702 H   0  0  0  0  0  0  0  0  0  0  0  0
  138.9080   68.9260  228.1030 H   0  0  0  0  0  0  0  0  0  0  0  0
  140.1196   66.6141  226.6784 H   0  0  0  0  0  0  0  0  0  0  0  0
  138.6051   67.5379  226.2722 H   0  0  0  0  0  0  0  0  0  0  0  0
  141.3920   68.0553  225.5646 H   0  0  0  0  0  0  0  0  0  0  0  0
  139.8141   68.6525  224.8509 H   0  0  0  0  0  0  0  0  0  0  0  0
  140.7485   73.1335  224.1061 H   0  0  0  0  0  0  0  0  0  0  0  0
  141.0899   76.9914  223.7863 H   0  0  0  0  0  0  0  0  0  0  0  0
  140.8860   77.8137  218.9167 H   0  0  0  0  0  0  0  0  0  0  0  0
  1  2  2  0
  2  3  1  0
  3  4  1  0
  4  5  1  0
  5  6  2  0
  6  7  1  0
  7  8  2  0
  8  9  1  0
  9 10  1  0
 10 11  2  0
 10 12  1  0
 12 13  1  0
 13 14  1  0
 14 15  1  0
 15 16  1  0
 16 17  1  0
  9 18  2  0
  4 19  2  0
 19 20  1  0
 20 21  2  0
 21 22  1  0
 22 23  1  0
 22 24  2  0
 24 25  1  0
 24 26  1  0
 26 27  2  0
 27  2  1  0
 18  5  1  0
 27 20  1  0
 17 12  1  0
  3 28  1  0
  3 29  1  0
  6 30  1  0
  7 31  1  0
  8 32  1  0
 13 33  1  0
 13 34  1  0
 14 35  1  0
 14 36  1  0
 15 37  1  0
 16 38  1  0
 16 39  1  0
 17 40  1  0
 17 41  1  0
 18 42  1  0
 21 43  1  0
 26 44  1  0
M  END
>  <smiles>  (8) 
O=C1CC(c2cccc(C(=O)N3CCNCC3)c2)=Nc2cc(Cl)c(Cl)cc21

>  <score_type>  (8) 
oracle

>  <origin>  (8) 
autodockgpu

>  <m_score__min__energy>  (8) 
-8.2200000000000006

>  <m_primary>  (8) 
energy

>  <rmsd>  (8) 
8.589308829283667

>  <m_score__min__rmsd>  (8) 
8.589308829283667

>  <meeko>  (8) 
{"free_energy": -7.91, "intermolecular_energy": -8.51, "internal_energy": -0.38, "cluster_size": 8, "cluster_id": 3, "rank_in_cluster": 8}

>  <energy>  (8) 
-8.21

>  <cluster_rmsd>  (8) 
0.05

>  <cluster>  (8) 
1

$$$$

     RDKit          3D

 44 47  0  0  0  0  0  0  0  0999 V2000
  138.8650   69.5750  221.5340 O   0  0  0  0  0  0  0  0  0  0  0  0
  139.4310   70.5590  222.1120 C   0  0  0  0  0  0  0  0  0  0  0  0
  139.7390   71.7620  221.3020 C   0  0  0  0  0  0  0  0  0  0  0  0
  140.3910   72.7730  222.1680 C   0  0  0  0  0  0  0  0  0  0  0  0
  140.7740   74.0490  221.5280 C   0  0  0  0  0  0  0  0  0  0  0  0
  141.6360   74.0770  220.4390 C   0  0  0  0  0  0  0  0  0  0  0  0
  141.9850   75.2910  219.8510 C   0  0  0  0  0  0  0  0  0  0  0  0
  141.4870   76.4950  220.3300 C   0  0  0  0  0  0  0  0  0  0  0  0
  140.6330   76.4720  221.4070 C   0  0  0  0  0  0  0  0  0  0  0  0
  140.0440   77.6650  222.0000 C   0  0  0  0  0  0  0  0  0  0  0  0
  138.8420   77.6300  222.3690 O   0  0  0  0  0  0  0  0  0  0  0  0
  140.7530   78.8790  222.1900 N   0  0  0  0  0  0  0  0  0  0  0  0
  140.0350   79.9930  222.7960 C   0  0  0  0  0  0  0  0  0  0  0  0
  140.9980   81.1280  223.1310 C   0  0  0  0  0  0  0  0  0  0  0  0
  142.0920   80.4750  223.8660 N   0  0  0  0  0  0  0  0  0  0  0  0
  142.9270   79.8350  222.8700 C   0  0  0  0  0  0  0  0  0  0  0  0
  142.1240   79.0940  221.8300 C   0  0  0  0  0  0  0  0  0  0  0  0
  140.3040   75.2620  221.9700 C   0  0  0  0  0  0  0  0  0  0  0  0
  140.6440   72.6370  223.4020 N   0  0  0  0  0  0  0  0  0  0  0  0
  140.3450   71.4840  224.1660 C   0  0  0  0  0  0  0  0  0  0  0  0
  140.6470   71.3970  225.5100 C   0  0  0  0  0  0  0  0  0  0  0  0
  140.3290   70.2340  226.2180 C   0  0  0  0  0  0  0  0  0  0  0  0
  140.7270   70.1590  227.9220 Cl  0  0  0  0  0  0  0  0  0  0  0  0
  139.7140   69.1610  225.5970 C   0  0  0  0  0  0  0  0  0  0  0  0
  139.3140   67.7020  226.4780 Cl  0  0  0  0  0  0  0  0  0  0  0  0
  139.4280   69.2860  224.2520 C   0  0  0  0  0  0  0  0  0  0  0  0
  139.7360   70.4350  223.5290 C   0  0  0  0  0  0  0  0  0  0  0  0
  140.4163   71.4892  220.4793 H   0  0  0  0  0  0  0  0  0  0  0  0
  138.8099   72.1755  220.8827 H   0  0  0  0  0  0  0  0  0  0  0  0
  142.0446   73.1371  220.0394 H   0  0  0  0  0  0  0  0  0  0  0  0
  142.6691   75.2955  218.9896 H   0  0  0  0  0  0  0  0  0  0  0  0
  141.7698   77.4474  219.8577 H   0  0  0  0  0  0  0  0  0  0  0  0
  139.2739   80.3596  222.0916 H   0  0  0  0  0  0  0  0  0  0  0  0
  139.5561   79.6462  223.7236 H   0  0  0  0  0  0  0  0  0  0  0  0
  141.3748   81.6025  222.2129 H   0  0  0  0  0  0  0  0  0  0  0  0
  140.5178   81.9262  223.7160 H   0  0  0  0  0  0  0  0  0  0  0  0
  141.6520   79.7720  224.5180 H   0  0  0  0  0  0  0  0  0  0  0  0
  143.5292   80.6059  222.3669 H   0  0  0  0  0  0  0  0  0  0  0  0
  143.5603   79.1000  223.3883 H   0  0  0  0  0  0  0  0  0  0  0  0
  142.1485   79.6752  220.8964 H   0  0  0  0  0  0  0  0  0  0  0  0
  142.5831   78.0999  221.7250 H   0  0  0  0  0  0  0  0  0  0  0  0
  139.6194   75.2650  222.8310 H   0  0  0  0  0  0  0  0  0  0  0  0
  141.1358   72.2390  226.0219 H   0  0  0  0  0  0  0  0  0  0  0  0
  138.9394   68.4479  223.7334 H   0  0  0  0  0  0  0  0  0  0  0  0
  1  2  2  0
  2  3  1  0
  3  4  1  0
  4  5  1  0
  5  6  2  0
  6  7  1  0
  7  8  2  0
  8  9  1  0
  9 10  1  0
 10 11  2  0
 10 12  1  0
 12 13  1  0
 13 14  1  0
 14 15  1  0
 15 16  1  0
 16 17  1  0
  9 18  2  0
  4 19  2  0
 19 20  1  0
 20 21  2  0
 21 22  1  0
 22 23  1  0
 22 24  2  0
 24 25  1  0
 24 26  1  0
 26 27  2  0
 27  2  1  0
 18  5  1  0
 27 20  1  0
 17 12  1  0
  3 28  1  0
  3 29  1  0
  6 30  1  0
  7 31  1  0
  8 32  1  0
 13 33  1  0
 13 34  1  0
 14 35  1  0
 14 36  1  0
 15 37  1  0
 16 38  1  0
 16 39  1  0
 17 40  1  0
 17 41  1  0
 18 42  1  0
 21 43  1  0
 26 44  1  0
M  END
>  <smiles>  (9) 
O=C1CC(c2cccc(C(=O)N3CCNCC3)c2)=Nc2cc(Cl)c(Cl)cc21

>  <score_type>  (9) 
oracle

>  <origin>  (9) 
autodockgpu

>  <m_score__min__energy>  (9) 
-8.2200000000000006

>  <m_primary>  (9) 
energy

>  <rmsd>  (9) 
6.353445734473298

>  <m_score__min__rmsd>  (9) 
6.353445734473298

>  <meeko>  (9) 
{"free_energy": -8.21, "intermolecular_energy": -8.81, "internal_energy": -0.55, "cluster_size": 25, "cluster_id": 1, "rank_in_cluster": 5}

>  <energy>  (9) 
-8.21

>  <cluster_rmsd>  (9) 
0.11

>  <cluster>  (9) 
1

$$$$

     RDKit          3D

 44 47  0  0  0  0  0  0  0  0999 V2000
  146.3240   72.7050  219.4660 O   0  0  0  0  0  0  0  0  0  0  0  0
  145.0950   72.4740  219.7090 C   0  0  0  0  0  0  0  0  0  0  0  0
  144.2500   73.6030  220.1670 C   0  0  0  0  0  0  0  0  0  0  0  0
  142.8700   73.1130  220.3900 C   0  0  0  0  0  0  0  0  0  0  0  0
  141.8780   74.1060  220.8540 C   0  0  0  0  0  0  0  0  0  0  0  0
  140.7280   73.7130  221.5270 C   0  0  0  0  0  0  0  0  0  0  0  0
  139.8050   74.6660  221.9550 C   0  0  0  0  0  0  0  0  0  0  0  0
  140.0060   76.0200  221.7250 C   0  0  0  0  0  0  0  0  0  0  0  0
  141.1420   76.4130  221.0590 C   0  0  0  0  0  0  0  0  0  0  0  0
  141.4660   77.8010  220.7580 C   0  0  0  0  0  0  0  0  0  0  0  0
  141.6270   78.1400  219.5570 O   0  0  0  0  0  0  0  0  0  0  0  0
  141.6130   78.8060  221.7480 N   0  0  0  0  0  0  0  0  0  0  0  0
  141.9400   80.1530  221.3010 C   0  0  0  0  0  0  0  0  0  0  0  0
  141.8350   81.1390  222.4600 C   0  0  0  0  0  0  0  0  0  0  0  0
  140.5190   80.8660  223.0560 N   0  0  0  0  0  0  0  0  0  0  0  0
  140.6780   79.6740  223.8640 C   0  0  0  0  0  0  0  0  0  0  0  0
  141.4630   78.5960  223.1590 C   0  0  0  0  0  0  0  0  0  0  0  0
  142.0370   75.4550  220.6470 C   0  0  0  0  0  0  0  0  0  0  0  0
  142.4700   71.9230  220.2160 N   0  0  0  0  0  0  0  0  0  0  0  0
  143.2850   70.8520  219.7780 C   0  0  0  0  0  0  0  0  0  0  0  0
  142.7900   69.5760  219.6080 C   0  0  0  0  0  0  0  0  0  0  0  0
  143.6400   68.5550  219.1720 C   0  0  0  0  0  0  0  0  0  0  0  0
  142.9770   66.9470  218.9670 Cl  0  0  0  0  0  0  0  0  0  0  0  0
  144.9760   68.7980  218.9050 C   0  0  0  0  0  0  0  0  0  0  0  0
  146.0450   67.5230  218.3590 Cl  0  0  0  0  0  0  0  0  0  0  0  0
  145.4340   70.0870  219.0870 C   0  0  0  0  0  0  0  0  0  0  0  0
  144.6050   71.1180  219.5200 C   0  0  0  0  0  0  0  0  0  0  0  0
  144.6537   74.0084  221.1065 H   0  0  0  0  0  0  0  0  0  0  0  0
  144.2442   74.3960  219.4047 H   0  0  0  0  0  0  0  0  0  0  0  0
  140.5451   72.6461  221.7228 H   0  0  0  0  0  0  0  0  0  0  0  0
  138.8990   74.3383  222.4858 H   0  0  0  0  0  0  0  0  0  0  0  0
  139.2713   76.7630  222.0687 H   0  0  0  0  0  0  0  0  0  0  0  0
  142.9671   80.1647  220.9073 H   0  0  0  0  0  0  0  0  0  0  0  0
  141.2300   80.4499  220.5150 H   0  0  0  0  0  0  0  0  0  0  0  0
  142.6373   80.9654  223.1923 H   0  0  0  0  0  0  0  0  0  0  0  0
  141.9373   82.1838  222.1315 H   0  0  0  0  0  0  0  0  0  0  0  0
  139.8440   80.7120  222.2600 H   0  0  0  0  0  0  0  0  0  0  0  0
  141.2048   79.9444  224.7910 H   0  0  0  0  0  0  0  0  0  0  0  0
  139.6740   79.2746  224.0698 H   0  0  0  0  0  0  0  0  0  0  0  0
  142.4655   78.5486  223.6093 H   0  0  0  0  0  0  0  0  0  0  0  0
  140.8966   77.6610  223.2812 H   0  0  0  0  0  0  0  0  0  0  0  0
  142.9404   75.7903  220.1164 H   0  0  0  0  0  0  0  0  0  0  0  0
  141.7309   69.3624  219.8146 H   0  0  0  0  0  0  0  0  0  0  0  0
  146.4921   70.3076  218.8826 H   0  0  0  0  0  0  0  0  0  0  0  0
  1  2  2  0
  2  3  1  0
  3  4  1  0
  4  5  1  0
  5  6  2  0
  6  7  1  0
  7  8  2  0
  8  9  1  0
  9 10  1  0
 10 11  2  0
 10 12  1  0
 12 13  1  0
 13 14  1  0
 14 15  1  0
 15 16  1  0
 16 17  1  0
  9 18  2  0
  4 19  2  0
 19 20  1  0
 20 21  2  0
 21 22  1  0
 22 23  1  0
 22 24  2  0
 24 25  1  0
 24 26  1  0
 26 27  2  0
 27  2  1  0
 18  5  1  0
 27 20  1  0
 17 12  1  0
  3 28  1  0
  3 29  1  0
  6 30  1  0
  7 31  1  0
  8 32  1  0
 13 33  1  0
 13 34  1  0
 14 35  1  0
 14 36  1  0
 15 37  1  0
 16 38  1  0
 16 39  1  0
 17 40  1  0
 17 41  1  0
 18 42  1  0
 21 43  1  0
 26 44  1  0
M  END
>  <smiles>  (10) 
O=C1CC(c2cccc(C(=O)N3CCNCC3)c2)=Nc2cc(Cl)c(Cl)cc21

>  <score_type>  (10) 
oracle

>  <origin>  (10) 
autodockgpu

>  <m_score__min__energy>  (10) 
-8.2200000000000006

>  <m_primary>  (10) 
energy

>  <rmsd>  (10) 
7.964009589931041

>  <m_score__min__rmsd>  (10) 
7.964009589931041

>  <meeko>  (10) 
{"free_energy": -7.6, "intermolecular_energy": -8.2, "internal_energy": -0.65, "cluster_size": 8, "cluster_id": 4, "rank_in_cluster": 4}

>  <energy>  (10) 
-8.21

>  <cluster_rmsd>  (10) 
0.05

>  <cluster>  (10) 
1

$$$$

     RDKit          3D

 44 47  0  0  0  0  0  0  0  0999 V2000
  139.0380   69.4580  221.5100 O   0  0  0  0  0  0  0  0  0  0  0  0
  139.5600   70.4750  222.0710 C   0  0  0  0  0  0  0  0  0  0  0  0
  139.8860   71.6490  221.2260 C   0  0  0  0  0  0  0  0  0  0  0  0
  140.4810   72.7060  222.0770 C   0  0  0  0  0  0  0  0  0  0  0  0
  140.8730   73.9610  221.4020 C   0  0  0  0  0  0  0  0  0  0  0  0
  140.5880   75.1990  221.9640 C   0  0  0  0  0  0  0  0  0  0  0  0
  140.9650   76.3710  221.3110 C   0  0  0  0  0  0  0  0  0  0  0  0
  141.6300   76.3360  220.0930 C   0  0  0  0  0  0  0  0  0  0  0  0
  141.9140   75.1140  219.5330 C   0  0  0  0  0  0  0  0  0  0  0  0
  142.6060   74.9450  218.2620 C   0  0  0  0  0  0  0  0  0  0  0  0
  142.3110   75.7050  217.3050 O   0  0  0  0  0  0  0  0  0  0  0  0
  143.6040   73.9630  218.0360 N   0  0  0  0  0  0  0  0  0  0  0  0
  144.2110   73.9080  216.7130 C   0  0  0  0  0  0  0  0  0  0  0  0
  145.4070   72.9620  216.7140 C   0  0  0  0  0  0  0  0  0  0  0  0
  146.2100   73.3870  217.8700 N   0  0  0  0  0  0  0  0  0  0  0  0
  145.5600   72.8370  219.0410 C   0  0  0  0  0  0  0  0  0  0  0  0
  144.0630   73.0180  219.0120 C   0  0  0  0  0  0  0  0  0  0  0  0
  141.5310   73.9720  220.1970 C   0  0  0  0  0  0  0  0  0  0  0  0
  140.6790   72.6250  223.3260 N   0  0  0  0  0  0  0  0  0  0  0  0
  140.3650   71.5000  224.1240 C   0  0  0  0  0  0  0  0  0  0  0  0
  140.6060   71.4730  225.4820 C   0  0  0  0  0  0  0  0  0  0  0  0
  140.2740   70.3350  226.2230 C   0  0  0  0  0  0  0  0  0  0  0  0
  140.5950   70.3370  227.9450 Cl  0  0  0  0  0  0  0  0  0  0  0  0
  139.7060   69.2270  225.6210 C   0  0  0  0  0  0  0  0  0  0  0  0
  139.2890   67.7980  226.5440 Cl  0  0  0  0  0  0  0  0  0  0  0  0
  139.4800   69.2910  224.2610 C   0  0  0  0  0  0  0  0  0  0  0  0
  139.8020   70.4140  223.5040 C   0  0  0  0  0  0  0  0  0  0  0  0
  140.6048   71.3545  220.4472 H   0  0  0  0  0  0  0  0  0  0  0  0
  138.9708   72.0283  220.7480 H   0  0  0  0  0  0  0  0  0  0  0  0
  140.0624   75.2545  222.9287 H   0  0  0  0  0  0  0  0  0  0  0  0
  140.7310   77.3430  221.7698 H   0  0  0  0  0  0  0  0  0  0  0  0
  141.9235   77.2674  219.5867 H   0  0  0  0  0  0  0  0  0  0  0  0
  143.4661   73.5493  215.9874 H   0  0  0  0  0  0  0  0  0  0  0  0
  144.5543   74.9158  216.4365 H   0  0  0  0  0  0  0  0  0  0  0  0
  145.0779   71.9190  216.8313 H   0  0  0  0  0  0  0  0  0  0  0  0
  145.9741   73.0029  215.7724 H   0  0  0  0  0  0  0  0  0  0  0  0
  146.2070   74.4420  217.8790 H   0  0  0  0  0  0  0  0  0  0  0  0
  145.7838   71.7614  219.0957 H   0  0  0  0  0  0  0  0  0  0  0  0
  145.9439   73.3764  219.9194 H   0  0  0  0  0  0  0  0  0  0  0  0
  143.6019   72.0437  218.7924 H   0  0  0  0  0  0  0  0  0  0  0  0
  143.7734   73.4143  219.9964 H   0  0  0  0  0  0  0  0  0  0  0  0
  141.7675   73.0036  219.7320 H   0  0  0  0  0  0  0  0  0  0  0  0
  141.0577   72.3436  225.9799 H   0  0  0  0  0  0  0  0  0  0  0  0
  139.0292   68.4234  223.7571 H   0  0  0  0  0  0  0  0  0  0  0  0
  1  2  2  0
  2  3  1  0
  3  4  1  0
  4  5  1  0
  5  6  2  0
  6  7  1  0
  7  8  2  0
  8  9  1  0
  9 10  1  0
 10 11  2  0
 10 12  1  0
 12 13  1  0
 13 14  1  0
 14 15  1  0
 15 16  1  0
 16 17  1  0
  9 18  2  0
  4 19  2  0
 19 20  1  0
 20 21  2  0
 21 22  1  0
 22 23  1  0
 22 24  2  0
 24 25  1  0
 24 26  1  0
 26 27  2  0
 27  2  1  0
 18  5  1  0
 27 20  1  0
 17 12  1  0
  3 28  1  0
  3 29  1  0
  6 30  1  0
  7 31  1  0
  8 32  1  0
 13 33  1  0
 13 34  1  0
 14 35  1  0
 14 36  1  0
 15 37  1  0
 16 38  1  0
 16 39  1  0
 17 40  1  0
 17 41  1  0
 18 42  1  0
 21 43  1  0
 26 44  1  0
M  END
>  <smiles>  (11) 
O=C1CC(c2cccc(C(=O)N3CCNCC3)c2)=Nc2cc(Cl)c(Cl)cc21

>  <score_type>  (11) 
oracle

>  <origin>  (11) 
autodockgpu

>  <m_score__min__energy>  (11) 
-8.2200000000000006

>  <m_primary>  (11) 
energy

>  <rmsd>  (11) 
6.248585448497713

>  <m_score__min__rmsd>  (11) 
6.248585448497713

>  <meeko>  (11) 
{"free_energy": -7.69, "intermolecular_energy": -8.29, "internal_energy": -0.54, "cluster_size": 9, "cluster_id": 2, "rank_in_cluster": 9}

>  <energy>  (11) 
-8.21

>  <cluster_rmsd>  (11) 
0.12

>  <cluster>  (11) 
1

$$$$

     RDKit          3D

 44 47  0  0  0  0  0  0  0  0999 V2000
  146.3180   72.7120  219.4740 O   0  0  0  0  0  0  0  0  0  0  0  0
  145.0890   72.4800  219.7190 C   0  0  0  0  0  0  0  0  0  0  0  0
  144.2440   73.6080  220.1760 C   0  0  0  0  0  0  0  0  0  0  0  0
  142.8640   73.1170  220.4010 C   0  0  0  0  0  0  0  0  0  0  0  0
  141.8720   74.1100  220.8640 C   0  0  0  0  0  0  0  0  0  0  0  0
  140.7240   73.7170  221.5400 C   0  0  0  0  0  0  0  0  0  0  0  0
  139.8000   74.6690  221.9680 C   0  0  0  0  0  0  0  0  0  0  0  0
  139.9980   76.0230  221.7330 C   0  0  0  0  0  0  0  0  0  0  0  0
  141.1320   76.4160  221.0630 C   0  0  0  0  0  0  0  0  0  0  0  0
  141.4530   77.8030  220.7570 C   0  0  0  0  0  0  0  0  0  0  0  0
  141.6130   78.1390  219.5550 O   0  0  0  0  0  0  0  0  0  0  0  0
  141.5980   78.8120  221.7430 N   0  0  0  0  0  0  0  0  0  0  0  0
  141.9220   80.1590  221.2910 C   0  0  0  0  0  0  0  0  0  0  0  0
  141.8150   81.1490  222.4470 C   0  0  0  0  0  0  0  0  0  0  0  0
  140.5000   80.8740  223.0440 N   0  0  0  0  0  0  0  0  0  0  0  0
  140.6620   79.6860  223.8560 C   0  0  0  0  0  0  0  0  0  0  0  0
  141.4490   78.6070  223.1550 C   0  0  0  0  0  0  0  0  0  0  0  0
  142.0280   75.4580  220.6520 C   0  0  0  0  0  0  0  0  0  0  0  0
  142.4660   71.9260  220.2300 N   0  0  0  0  0  0  0  0  0  0  0  0
  143.2820   70.8560  219.7930 C   0  0  0  0  0  0  0  0  0  0  0  0
  142.7880   69.5780  219.6260 C   0  0  0  0  0  0  0  0  0  0  0  0
  143.6390   68.5570  219.1910 C   0  0  0  0  0  0  0  0  0  0  0  0
  142.9770   66.9480  218.9910 Cl  0  0  0  0  0  0  0  0  0  0  0  0
  144.9740   68.8010  218.9220 C   0  0  0  0  0  0  0  0  0  0  0  0
  146.0440   67.5270  218.3780 Cl  0  0  0  0  0  0  0  0  0  0  0  0
  145.4310   70.0910  219.1010 C   0  0  0  0  0  0  0  0  0  0  0  0
  144.6010   71.1220  219.5330 C   0  0  0  0  0  0  0  0  0  0  0  0
  144.6483   74.0149  221.1146 H   0  0  0  0  0  0  0  0  0  0  0  0
  144.2368   74.3999  219.4126 H   0  0  0  0  0  0  0  0  0  0  0  0
  140.5432   72.6503  221.7384 H   0  0  0  0  0  0  0  0  0  0  0  0
  138.8962   74.3410  222.5024 H   0  0  0  0  0  0  0  0  0  0  0  0
  139.2626   76.7658  222.0759 H   0  0  0  0  0  0  0  0  0  0  0  0
  142.9489   80.1717  220.8970 H   0  0  0  0  0  0  0  0  0  0  0  0
  141.2111   80.4516  220.5042 H   0  0  0  0  0  0  0  0  0  0  0  0
  142.6180   80.9801  223.1796 H   0  0  0  0  0  0  0  0  0  0  0  0
  141.9146   82.1930  222.1152 H   0  0  0  0  0  0  0  0  0  0  0  0
  139.8250   80.7160  222.2490 H   0  0  0  0  0  0  0  0  0  0  0  0
  141.1886   79.9611  224.7817 H   0  0  0  0  0  0  0  0  0  0  0  0
  139.6589   79.2851  224.0636 H   0  0  0  0  0  0  0  0  0  0  0  0
  142.4517   78.5635  223.6051 H   0  0  0  0  0  0  0  0  0  0  0  0
  140.8847   77.6712  223.2811 H   0  0  0  0  0  0  0  0  0  0  0  0
  142.9295   75.7931  220.1181 H   0  0  0  0  0  0  0  0  0  0  0  0
  141.7294   69.3635  219.8342 H   0  0  0  0  0  0  0  0  0  0  0  0
  146.4886   70.3124  218.8950 H   0  0  0  0  0  0  0  0  0  0  0  0
  1  2  2  0
  2  3  1  0
  3  4  1  0
  4  5  1  0
  5  6  2  0
  6  7  1  0
  7  8  2  0
  8  9  1  0
  9 10  1  0
 10 11  2  0
 10 12  1  0
 12 13  1  0
 13 14  1  0
 14 15  1  0
 15 16  1  0
 16 17  1  0
  9 18  2  0
  4 19  2  0
 19 20  1  0
 20 21  2  0
 21 22  1  0
 22 23  1  0
 22 24  2  0
 24 25  1  0
 24 26  1  0
 26 27  2  0
 27  2  1  0
 18  5  1  0
 27 20  1  0
 17 12  1  0
  3 28  1  0
  3 29  1  0
  6 30  1  0
  7 31  1  0
  8 32  1  0
 13 33  1  0
 13 34  1  0
 14 35  1  0
 14 36  1  0
 15 37  1  0
 16 38  1  0
 16 39  1  0
 17 40  1  0
 17 41  1  0
 18 42  1  0
 21 43  1  0
 26 44  1  0
M  END
>  <smiles>  (12) 
O=C1CC(c2cccc(C(=O)N3CCNCC3)c2)=Nc2cc(Cl)c(Cl)cc21

>  <score_type>  (12) 
oracle

>  <origin>  (12) 
autodockgpu

>  <m_score__min__energy>  (12) 
-8.2200000000000006

>  <m_primary>  (12) 
energy

>  <rmsd>  (12) 
7.958750887834433

>  <m_score__min__rmsd>  (12) 
7.958750887834433

>  <meeko>  (12) 
{"free_energy": -7.6, "intermolecular_energy": -8.19, "internal_energy": -0.65, "cluster_size": 8, "cluster_id": 4, "rank_in_cluster": 5}

>  <energy>  (12) 
-8.21

>  <cluster_rmsd>  (12) 
0.04

>  <cluster>  (12) 
1

$$$$

     RDKit          3D

 44 47  0  0  0  0  0  0  0  0999 V2000
  140.7820   75.2750  218.3490 O   0  0  0  0  0  0  0  0  0  0  0  0
  140.6960   75.1010  219.6080 C   0  0  0  0  0  0  0  0  0  0  0  0
  140.3850   73.7400  220.1050 C   0  0  0  0  0  0  0  0  0  0  0  0
  140.3310   73.7670  221.5850 C   0  0  0  0  0  0  0  0  0  0  0  0
  140.0300   72.4890  222.2640 C   0  0  0  0  0  0  0  0  0  0  0  0
  139.4100   71.4450  221.5890 C   0  0  0  0  0  0  0  0  0  0  0  0
  139.1340   70.2490  222.2480 C   0  0  0  0  0  0  0  0  0  0  0  0
  139.4670   70.0660  223.5830 C   0  0  0  0  0  0  0  0  0  0  0  0
  140.0810   71.0960  224.2550 C   0  0  0  0  0  0  0  0  0  0  0  0
  140.4800   71.0280  225.6540 C   0  0  0  0  0  0  0  0  0  0  0  0
  140.7050   72.0980  226.2740 O   0  0  0  0  0  0  0  0  0  0  0  0
  140.6310   69.8120  226.3690 N   0  0  0  0  0  0  0  0  0  0  0  0
  141.0370   69.8940  227.7650 C   0  0  0  0  0  0  0  0  0  0  0  0
  140.9290   68.5280  228.4340 C   0  0  0  0  0  0  0  0  0  0  0  0
  139.5780   68.0580  228.0910 N   0  0  0  0  0  0  0  0  0  0  0  0
  139.6490   67.5730  226.7280 C   0  0  0  0  0  0  0  0  0  0  0  0
  140.4140   68.5040  225.8200 C   0  0  0  0  0  0  0  0  0  0  0  0
  140.3420   72.2670  223.5830 C   0  0  0  0  0  0  0  0  0  0  0  0
  140.5220   74.7860  222.3130 N   0  0  0  0  0  0  0  0  0  0  0  0
  140.8200   76.0820  221.8290 C   0  0  0  0  0  0  0  0  0  0  0  0
  141.0170   77.1540  222.6750 C   0  0  0  0  0  0  0  0  0  0  0  0
  141.3090   78.4130  222.1420 C   0  0  0  0  0  0  0  0  0  0  0  0
  141.5540   79.7510  223.2460 Cl  0  0  0  0  0  0  0  0  0  0  0  0
  141.4050   78.6100  220.7760 C   0  0  0  0  0  0  0  0  0  0  0  0
  141.7700   80.1850  220.1030 Cl  0  0  0  0  0  0  0  0  0  0  0  0
  141.2010   77.5140  219.9620 C   0  0  0  0  0  0  0  0  0  0  0  0
  140.9100   76.2520  220.4710 C   0  0  0  0  0  0  0  0  0  0  0  0
  139.4125   73.4153  219.7065 H   0  0  0  0  0  0  0  0  0  0  0  0
  141.1639   73.0370  219.7746 H   0  0  0  0  0  0  0  0  0  0  0  0
  139.1360   71.5631  220.5303 H   0  0  0  0  0  0  0  0  0  0  0  0
  138.6419   69.4327  221.6989 H   0  0  0  0  0  0  0  0  0  0  0  0
  139.2443   69.1168  224.0924 H   0  0  0  0  0  0  0  0  0  0  0  0
  142.0791   70.2421  227.8190 H   0  0  0  0  0  0  0  0  0  0  0  0
  140.3739   70.5993  228.2874 H   0  0  0  0  0  0  0  0  0  0  0  0
  141.6919   67.8404  228.0402 H   0  0  0  0  0  0  0  0  0  0  0  0
  141.0915   68.5795  229.5207 H   0  0  0  0  0  0  0  0  0  0  0  0
  138.9300   68.8850  228.1790 H   0  0  0  0  0  0  0  0  0  0  0  0
  140.1478   66.5926  226.7284 H   0  0  0  0  0  0  0  0  0  0  0  0
  138.6202   67.5046  226.3447 H   0  0  0  0  0  0  0  0  0  0  0  0
  141.3940   68.0516  225.6081 H   0  0  0  0  0  0  0  0  0  0  0  0
  139.8026   68.6375  224.9154 H   0  0  0  0  0  0  0  0  0  0  0  0
  140.8331   73.0796  224.1385 H   0  0  0  0  0  0  0  0  0  0  0  0
  140.9446   77.0186  223.7642 H   0  0  0  0  0  0  0  0  0  0  0  0
  141.2710   77.6428  218.8718 H   0  0  0  0  0  0  0  0  0  0  0  0
  1  2  2  0
  2  3  1  0
  3  4  1  0
  4  5  1  0
  5  6  2  0
  6  7  1  0
  7  8  2  0
  8  9  1  0
  9 10  1  0
 10 11  2  0
 10 12  1  0
 12 13  1  0
 13 14  1  0
 14 15  1  0
 15 16  1  0
 16 17  1  0
  9 18  2  0
  4 19  2  0
 19 20  1  0
 20 21  2  0
 21 22  1  0
 22 23  1  0
 22 24  2  0
 24 25  1  0
 24 26  1  0
 26 27  2  0
 27  2  1  0
 18  5  1  0
 27 20  1  0
 17 12  1  0
  3 28  1  0
  3 29  1  0
  6 30  1  0
  7 31  1  0
  8 32  1  0
 13 33  1  0
 13 34  1  0
 14 35  1  0
 14 36  1  0
 15 37  1  0
 16 38  1  0
 16 39  1  0
 17 40  1  0
 17 41  1  0
 18 42  1  0
 21 43  1  0
 26 44  1  0
M  END
>  <smiles>  (13) 
O=C1CC(c2cccc(C(=O)N3CCNCC3)c2)=Nc2cc(Cl)c(Cl)cc21

>  <score_type>  (13) 
oracle

>  <origin>  (13) 
autodockgpu

>  <m_score__min__energy>  (13) 
-8.2200000000000006

>  <m_primary>  (13) 
energy

>  <rmsd>  (13) 
8.599874387430674

>  <m_score__min__rmsd>  (13) 
8.599874387430674

>  <meeko>  (13) 
{"free_energy": -8.01, "intermolecular_energy": -8.61, "internal_energy": -0.4, "cluster_size": 8, "cluster_id": 3, "rank_in_cluster": 1}

>  <energy>  (13) 
-8.2

>  <cluster_rmsd>  (13) 
0.05

>  <cluster>  (13) 
1

$$$$

     RDKit          3D

 44 47  0  0  0  0  0  0  0  0999 V2000
  138.6680   69.6060  221.5560 O   0  0  0  0  0  0  0  0  0  0  0  0
  139.2720   70.5760  222.1200 C   0  0  0  0  0  0  0  0  0  0  0  0
  139.5780   71.7750  221.3040 C   0  0  0  0  0  0  0  0  0  0  0  0
  140.2780   72.7690  222.1520 C   0  0  0  0  0  0  0  0  0  0  0  0
  140.6660   74.0400  221.5050 C   0  0  0  0  0  0  0  0  0  0  0  0
  140.1880   75.2590  221.9700 C   0  0  0  0  0  0  0  0  0  0  0  0
  140.5660   76.4460  221.3450 C   0  0  0  0  0  0  0  0  0  0  0  0
  141.4210   76.4450  220.2510 C   0  0  0  0  0  0  0  0  0  0  0  0
  141.8960   75.2420  219.7880 C   0  0  0  0  0  0  0  0  0  0  0  0
  142.7970   75.1090  218.6510 C   0  0  0  0  0  0  0  0  0  0  0  0
  142.7890   76.0000  217.7620 O   0  0  0  0  0  0  0  0  0  0  0  0
  143.6950   74.0240  218.4830 N   0  0  0  0  0  0  0  0  0  0  0  0
  144.5370   74.0210  217.2950 C   0  0  0  0  0  0  0  0  0  0  0  0
  145.5870   72.9180  217.3880 C   0  0  0  0  0  0  0  0  0  0  0  0
  146.1930   73.1010  218.7150 N   0  0  0  0  0  0  0  0  0  0  0  0
  145.2650   72.5310  219.6700 C   0  0  0  0  0  0  0  0  0  0  0  0
  143.8360   72.9260  219.3950 C   0  0  0  0  0  0  0  0  0  0  0  0
  141.5080   74.0850  220.4210 C   0  0  0  0  0  0  0  0  0  0  0  0
  140.5680   72.6230  223.3770 N   0  0  0  0  0  0  0  0  0  0  0  0
  140.2710   71.4740  224.1460 C   0  0  0  0  0  0  0  0  0  0  0  0
  140.6140   71.3740  225.4790 C   0  0  0  0  0  0  0  0  0  0  0  0
  140.2960   70.2150  226.1930 C   0  0  0  0  0  0  0  0  0  0  0  0
  140.7470   70.1240  227.8830 Cl  0  0  0  0  0  0  0  0  0  0  0  0
  139.6400   69.1570  225.5880 C   0  0  0  0  0  0  0  0  0  0  0  0
  139.2390   67.7020  226.4760 Cl  0  0  0  0  0  0  0  0  0  0  0  0
  139.3130   69.2930  224.2540 C   0  0  0  0  0  0  0  0  0  0  0  0
  139.6200   70.4390  223.5250 C   0  0  0  0  0  0  0  0  0  0  0  0
  140.2228   71.4915  220.4591 H   0  0  0  0  0  0  0  0  0  0  0  0
  138.6447   72.2088  220.9157 H   0  0  0  0  0  0  0  0  0  0  0  0
  139.5087   75.2873  222.8347 H   0  0  0  0  0  0  0  0  0  0  0  0
  140.1792   77.4027  221.7260 H   0  0  0  0  0  0  0  0  0  0  0  0
  141.7120   77.3880  219.7651 H   0  0  0  0  0  0  0  0  0  0  0  0
  143.9102   73.8504  216.4073 H   0  0  0  0  0  0  0  0  0  0  0  0
  145.0470   74.9925  217.2176 H   0  0  0  0  0  0  0  0  0  0  0  0
  145.1179   71.9263  217.3077 H   0  0  0  0  0  0  0  0  0  0  0  0
  146.3281   72.9751  216.5771 H   0  0  0  0  0  0  0  0  0  0  0  0
  146.3160   74.1390  218.8600 H   0  0  0  0  0  0  0  0  0  0  0  0
  145.3425   71.4346  219.6256 H   0  0  0  0  0  0  0  0  0  0  0  0
  145.5320   72.9160  220.6652 H   0  0  0  0  0  0  0  0  0  0  0  0
  143.3130   72.0561  218.9711 H   0  0  0  0  0  0  0  0  0  0  0  0
  143.4085   73.2544  220.3539 H   0  0  0  0  0  0  0  0  0  0  0  0
  141.8978   73.1321  220.0336 H   0  0  0  0  0  0  0  0  0  0  0  0
  141.1360   72.2037  225.9781 H   0  0  0  0  0  0  0  0  0  0  0  0
  138.7914   68.4668  223.7488 H   0  0  0  0  0  0  0  0  0  0  0  0
  1  2  2  0
  2  3  1  0
  3  4  1  0
  4  5  1  0
  5  6  2  0
  6  7  1  0
  7  8  2  0
  8  9  1  0
  9 10  1  0
 10 11  2  0
 10 12  1  0
 12 13  1  0
 13 14  1  0
 14 15  1  0
 15 16  1  0
 16 17  1  0
  9 18  2  0
  4 19  2  0
 19 20  1  0
 20 21  2  0
 21 22  1  0
 22 23  1  0
 22 24  2  0
 24 25  1  0
 24 26  1  0
 26 27  2  0
 27  2  1  0
 18  5  1  0
 27 20  1  0
 17 12  1  0
  3 28  1  0
  3 29  1  0
  6 30  1  0
  7 31  1  0
  8 32  1  0
 13 33  1  0
 13 34  1  0
 14 35  1  0
 14 36  1  0
 15 37  1  0
 16 38  1  0
 16 39  1  0
 17 40  1  0
 17 41  1  0
 18 42  1  0
 21 43  1  0
 26 44  1  0
M  END
>  <smiles>  (14) 
O=C1CC(c2cccc(C(=O)N3CCNCC3)c2)=Nc2cc(Cl)c(Cl)cc21

>  <score_type>  (14) 
oracle

>  <origin>  (14) 
autodockgpu

>  <m_score__min__energy>  (14) 
-8.2200000000000006

>  <m_primary>  (14) 
energy

>  <rmsd>  (14) 
6.221814729046886

>  <m_score__min__rmsd>  (14) 
6.221814729046886

>  <meeko>  (14) 
{"free_energy": -8.22, "intermolecular_energy": -8.81, "internal_energy": -0.32, "cluster_size": 9, "cluster_id": 2, "rank_in_cluster": 2}

>  <energy>  (14) 
-8.2

>  <cluster_rmsd>  (14) 
0.13

>  <cluster>  (14) 
1

$$$$

     RDKit          3D

 44 47  0  0  0  0  0  0  0  0999 V2000
  139.0090   69.4560  221.4950 O   0  0  0  0  0  0  0  0  0  0  0  0
  139.5030   70.4810  222.0690 C   0  0  0  0  0  0  0  0  0  0  0  0
  139.7460   71.6910  221.2480 C   0  0  0  0  0  0  0  0  0  0  0  0
  140.3200   72.7510  222.1090 C   0  0  0  0  0  0  0  0  0  0  0  0
  140.6300   74.0420  221.4590 C   0  0  0  0  0  0  0  0  0  0  0  0
  141.3720   74.0960  220.2860 C   0  0  0  0  0  0  0  0  0  0  0  0
  141.6540   75.3230  219.6890 C   0  0  0  0  0  0  0  0  0  0  0  0
  141.2070   76.5150  220.2430 C   0  0  0  0  0  0  0  0  0  0  0  0
  140.4720   76.4660  221.4040 C   0  0  0  0  0  0  0  0  0  0  0  0
  139.9470   77.6440  222.0810 C   0  0  0  0  0  0  0  0  0  0  0  0
  138.7850   77.6010  222.5620 O   0  0  0  0  0  0  0  0  0  0  0  0
  140.6750   78.8520  222.2330 N   0  0  0  0  0  0  0  0  0  0  0  0
  140.0230   79.9510  222.9330 C   0  0  0  0  0  0  0  0  0  0  0  0
  141.0180   81.0750  223.2040 C   0  0  0  0  0  0  0  0  0  0  0  0
  142.1740   80.4020  223.8150 N   0  0  0  0  0  0  0  0  0  0  0  0
  142.9080   79.7870  222.7280 C   0  0  0  0  0  0  0  0  0  0  0  0
  142.0070   79.0740  221.7500 C   0  0  0  0  0  0  0  0  0  0  0  0
  140.2070   75.2430  221.9730 C   0  0  0  0  0  0  0  0  0  0  0  0
  140.5650   72.6450  223.3480 N   0  0  0  0  0  0  0  0  0  0  0  0
  140.3300   71.4850  224.1230 C   0  0  0  0  0  0  0  0  0  0  0  0
  140.6180   71.4320  225.4710 C   0  0  0  0  0  0  0  0  0  0  0  0
  140.3650   70.2600  226.1890 C   0  0  0  0  0  0  0  0  0  0  0  0
  140.7440   70.2290  227.8990 Cl  0  0  0  0  0  0  0  0  0  0  0  0
  139.8280   69.1430  225.5730 C   0  0  0  0  0  0  0  0  0  0  0  0
  139.5090   67.6710  226.4670 Cl  0  0  0  0  0  0  0  0  0  0  0  0
  139.5530   69.2340  224.2240 C   0  0  0  0  0  0  0  0  0  0  0  0
  139.7960   70.3920  223.4900 C   0  0  0  0  0  0  0  0  0  0  0  0
  140.4509   71.4517  220.4382 H   0  0  0  0  0  0  0  0  0  0  0  0
  138.7988   72.0398  220.8109 H   0  0  0  0  0  0  0  0  0  0  0  0
  141.7385   73.1662  219.8265 H   0  0  0  0  0  0  0  0  0  0  0  0
  142.2426   75.3477  218.7601 H   0  0  0  0  0  0  0  0  0  0  0  0
  141.4360   77.4781  219.7633 H   0  0  0  0  0  0  0  0  0  0  0  0
  139.1999   80.3373  222.3139 H   0  0  0  0  0  0  0  0  0  0  0  0
  139.6332   79.5809  223.8928 H   0  0  0  0  0  0  0  0  0  0  0  0
  141.3080   81.5723  222.2667 H   0  0  0  0  0  0  0  0  0  0  0  0
  140.5986   81.8585  223.8523 H   0  0  0  0  0  0  0  0  0  0  0  0
  141.7950   79.6840  224.4870 H   0  0  0  0  0  0  0  0  0  0  0  0
  143.4625   80.5699  222.1899 H   0  0  0  0  0  0  0  0  0  0  0  0
  143.5848   79.0379  223.1647 H   0  0  0  0  0  0  0  0  0  0  0  0
  141.9454   79.6789  220.8333 H   0  0  0  0  0  0  0  0  0  0  0  0
  142.4501   78.0822  221.5767 H   0  0  0  0  0  0  0  0  0  0  0  0
  139.6172   75.2253  222.9013 H   0  0  0  0  0  0  0  0  0  0  0  0
  141.0453   72.3091  225.9790 H   0  0  0  0  0  0  0  0  0  0  0  0
  139.1264   68.3602  223.7098 H   0  0  0  0  0  0  0  0  0  0  0  0
  1  2  2  0
  2  3  1  0
  3  4  1  0
  4  5  1  0
  5  6  2  0
  6  7  1  0
  7  8  2  0
  8  9  1  0
  9 10  1  0
 10 11  2  0
 10 12  1  0
 12 13  1  0
 13 14  1  0
 14 15  1  0
 15 16  1  0
 16 17  1  0
  9 18  2  0
  4 19  2  0
 19 20  1  0
 20 21  2  0
 21 22  1  0
 22 23  1  0
 22 24  2  0
 24 25  1  0
 24 26  1  0
 26 27  2  0
 27  2  1  0
 18  5  1  0
 27 20  1  0
 17 12  1  0
  3 28  1  0
  3 29  1  0
  6 30  1  0
  7 31  1  0
  8 32  1  0
 13 33  1  0
 13 34  1  0
 14 35  1  0
 14 36  1  0
 15 37  1  0
 16 38  1  0
 16 39  1  0
 17 40  1  0
 17 41  1  0
 18 42  1  0
 21 43  1  0
 26 44  1  0
M  END
>  <smiles>  (15) 
O=C1CC(c2cccc(C(=O)N3CCNCC3)c2)=Nc2cc(Cl)c(Cl)cc21

>  <score_type>  (15) 
oracle

>  <origin>  (15) 
autodockgpu

>  <m_score__min__energy>  (15) 
-8.2200000000000006

>  <m_primary>  (15) 
energy

>  <rmsd>  (15) 
6.319299140262863

>  <m_score__min__rmsd>  (15) 
6.319299140262863

>  <meeko>  (15) 
{"free_energy": -8.21, "intermolecular_energy": -8.81, "internal_energy": -0.56, "cluster_size": 25, "cluster_id": 1, "rank_in_cluster": 7}

>  <energy>  (15) 
-8.2

>  <cluster_rmsd>  (15) 
0.11

>  <cluster>  (15) 
1

$$$$

     RDKit          3D

 44 47  0  0  0  0  0  0  0  0999 V2000
  141.7120   75.1280  218.5320 O   0  0  0  0  0  0  0  0  0  0  0  0
  141.2800   75.0220  219.7260 C   0  0  0  0  0  0  0  0  0  0  0  0
  140.9270   73.6700  220.2230 C   0  0  0  0  0  0  0  0  0  0  0  0
  140.4500   73.7800  221.6210 C   0  0  0  0  0  0  0  0  0  0  0  0
  140.0490   72.5240  222.2880 C   0  0  0  0  0  0  0  0  0  0  0  0
  139.3210   71.5520  221.6140 C   0  0  0  0  0  0  0  0  0  0  0  0
  138.9530   70.3740  222.2620 C   0  0  0  0  0  0  0  0  0  0  0  0
  139.2990   70.1400  223.5850 C   0  0  0  0  0  0  0  0  0  0  0  0
  140.0190   71.0990  224.2570 C   0  0  0  0  0  0  0  0  0  0  0  0
  140.4420   70.9710  225.6450 C   0  0  0  0  0  0  0  0  0  0  0  0
  140.6780   72.0150  226.3060 O   0  0  0  0  0  0  0  0  0  0  0  0
  140.6050   69.7260  226.3050 N   0  0  0  0  0  0  0  0  0  0  0  0
  141.0350   69.7500  227.6960 C   0  0  0  0  0  0  0  0  0  0  0  0
  140.9390   68.3560  228.3080 C   0  0  0  0  0  0  0  0  0  0  0  0
  139.5830   67.9000  227.9690 N   0  0  0  0  0  0  0  0  0  0  0  0
  139.6310   67.4740  226.5850 C   0  0  0  0  0  0  0  0  0  0  0  0
  140.3790   68.4430  225.7050 C   0  0  0  0  0  0  0  0  0  0  0  0
  140.3700   72.2520  223.5960 C   0  0  0  0  0  0  0  0  0  0  0  0
  140.3580   74.8530  222.2890 N   0  0  0  0  0  0  0  0  0  0  0  0
  140.6980   76.1390  221.8060 C   0  0  0  0  0  0  0  0  0  0  0  0
  140.5760   77.2720  222.5830 C   0  0  0  0  0  0  0  0  0  0  0  0
  140.9270   78.5170  222.0550 C   0  0  0  0  0  0  0  0  0  0  0  0
  140.7590   79.9340  223.0720 Cl  0  0  0  0  0  0  0  0  0  0  0  0
  141.3980   78.6400  220.7590 C   0  0  0  0  0  0  0  0  0  0  0  0
  141.8390   80.1980  220.0920 Cl  0  0  0  0  0  0  0  0  0  0  0  0
  141.5060   77.4850  220.0120 C   0  0  0  0  0  0  0  0  0  0  0  0
  141.1620   76.2350  220.5190 C   0  0  0  0  0  0  0  0  0  0  0  0
  140.1321   73.2419  219.5946 H   0  0  0  0  0  0  0  0  0  0  0  0
  141.8107   73.0163  220.1820 H   0  0  0  0  0  0  0  0  0  0  0  0
  139.0336   71.7125  220.5644 H   0  0  0  0  0  0  0  0  0  0  0  0
  138.3766   69.6146  221.7133 H   0  0  0  0  0  0  0  0  0  0  0  0
  139.0033   69.2064  224.0859 H   0  0  0  0  0  0  0  0  0  0  0  0
  142.0777   70.0968  227.7468 H   0  0  0  0  0  0  0  0  0  0  0  0
  140.3811   70.4321  228.2592 H   0  0  0  0  0  0  0  0  0  0  0  0
  141.6951   67.6866  227.8719 H   0  0  0  0  0  0  0  0  0  0  0  0
  141.1205   68.3612  229.3929 H   0  0  0  0  0  0  0  0  0  0  0  0
  138.9360   68.7220  228.1030 H   0  0  0  0  0  0  0  0  0  0  0  0
  140.1304   66.4952  226.5350 H   0  0  0  0  0  0  0  0  0  0  0  0
  138.5958   67.4210  226.2170 H   0  0  0  0  0  0  0  0  0  0  0  0
  141.3553   68.0011  225.4568 H   0  0  0  0  0  0  0  0  0  0  0  0
  139.7517   68.6143  224.8178 H   0  0  0  0  0  0  0  0  0  0  0  0
  140.9461   73.0070  224.1510 H   0  0  0  0  0  0  0  0  0  0  0  0
  140.2035   77.1956  223.6152 H   0  0  0  0  0  0  0  0  0  0  0  0
  141.8772   77.5544  218.9788 H   0  0  0  0  0  0  0  0  0  0  0  0
  1  2  2  0
  2  3  1  0
  3  4  1  0
  4  5  1  0
  5  6  2  0
  6  7  1  0
  7  8  2  0
  8  9  1  0
  9 10  1  0
 10 11  2  0
 10 12  1  0
 12 13  1  0
 13 14  1  0
 14 15  1  0
 15 16  1  0
 16 17  1  0
  9 18  2  0
  4 19  2  0
 19 20  1  0
 20 21  2  0
 21 22  1  0
 22 23  1  0
 22 24  2  0
 24 25  1  0
 24 26  1  0
 26 27  2  0
 27  2  1  0
 18  5  1  0
 27 20  1  0
 17 12  1  0
  3 28  1  0
  3 29  1  0
  6 30  1  0
  7 31  1  0
  8 32  1  0
 13 33  1  0
 13 34  1  0
 14 35  1  0
 14 36  1  0
 15 37  1  0
 16 38  1  0
 16 39  1  0
 17 40  1  0
 17 41  1  0
 18 42  1  0
 21 43  1  0
 26 44  1  0
M  END
>  <smiles>  (16) 
O=C1CC(c2cccc(C(=O)N3CCNCC3)c2)=Nc2cc(Cl)c(Cl)cc21

>  <score_type>  (16) 
oracle

>  <origin>  (16) 
autodockgpu

>  <m_score__min__energy>  (16) 
-8.2200000000000006

>  <m_primary>  (16) 
energy

>  <rmsd>  (16) 
8.572349513628117

>  <m_score__min__rmsd>  (16) 
8.572349513628117

>  <meeko>  (16) 
{"free_energy": -7.99, "intermolecular_energy": -8.58, "internal_energy": -0.44, "cluster_size": 8, "cluster_id": 3, "rank_in_cluster": 4}

>  <energy>  (16) 
-8.2

>  <cluster_rmsd>  (16) 
0.11

>  <cluster>  (16) 
1

$$$$

     RDKit          3D

 44 47  0  0  0  0  0  0  0  0999 V2000
  142.6420   75.1030  218.8720 O   0  0  0  0  0  0  0  0  0  0  0  0
  141.9320   75.0100  219.9260 C   0  0  0  0  0  0  0  0  0  0  0  0
  141.6000   73.6540  220.4250 C   0  0  0  0  0  0  0  0  0  0  0  0
  140.7730   73.7800  221.6490 C   0  0  0  0  0  0  0  0  0  0  0  0
  140.3420   72.5210  222.2930 C   0  0  0  0  0  0  0  0  0  0  0  0
  139.6640   71.5430  221.5770 C   0  0  0  0  0  0  0  0  0  0  0  0
  139.2660   70.3640  222.2040 C   0  0  0  0  0  0  0  0  0  0  0  0
  139.5320   70.1340  223.5470 C   0  0  0  0  0  0  0  0  0  0  0  0
  140.2020   71.1000  224.2590 C   0  0  0  0  0  0  0  0  0  0  0  0
  140.5400   70.9780  225.6710 C   0  0  0  0  0  0  0  0  0  0  0  0
  140.7200   72.0240  226.3450 O   0  0  0  0  0  0  0  0  0  0  0  0
  140.6810   69.7350  226.3400 N   0  0  0  0  0  0  0  0  0  0  0  0
  141.0240   69.7640  227.7550 C   0  0  0  0  0  0  0  0  0  0  0  0
  140.9110   68.3680  228.3600 C   0  0  0  0  0  0  0  0  0  0  0  0
  139.5850   67.8930  227.9380 N   0  0  0  0  0  0  0  0  0  0  0  0
  139.7240   67.4680  226.5600 C   0  0  0  0  0  0  0  0  0  0  0  0
  140.5110   68.4490  225.7280 C   0  0  0  0  0  0  0  0  0  0  0  0
  140.5850   72.2540  223.6180 C   0  0  0  0  0  0  0  0  0  0  0  0
  140.4090   74.8680  222.1860 N   0  0  0  0  0  0  0  0  0  0  0  0
  140.7320   76.1570  221.7020 C   0  0  0  0  0  0  0  0  0  0  0  0
  140.3040   77.3070  222.3330 C   0  0  0  0  0  0  0  0  0  0  0  0
  140.6540   78.5560  221.8110 C   0  0  0  0  0  0  0  0  0  0  0  0
  140.0920   79.9940  222.6400 Cl  0  0  0  0  0  0  0  0  0  0  0  0
  141.4250   78.6660  220.6670 C   0  0  0  0  0  0  0  0  0  0  0  0
  141.8650   80.2280  220.0090 Cl  0  0  0  0  0  0  0  0  0  0  0  0
  141.8330   77.4940  220.0640 C   0  0  0  0  0  0  0  0  0  0  0  0
  141.4970   76.2400  220.5670 C   0  0  0  0  0  0  0  0  0  0  0  0
  141.0382   73.1049  219.6551 H   0  0  0  0  0  0  0  0  0  0  0  0
  142.5253   73.1058  220.6561 H   0  0  0  0  0  0  0  0  0  0  0  0
  139.4405   71.6996  220.5114 H   0  0  0  0  0  0  0  0  0  0  0  0
  138.7298   69.5995  221.6226 H   0  0  0  0  0  0  0  0  0  0  0  0
  139.2134   69.1989  224.0308 H   0  0  0  0  0  0  0  0  0  0  0  0
  142.0563   70.1261  227.8701 H   0  0  0  0  0  0  0  0  0  0  0  0
  140.3266   70.4358  228.2768 H   0  0  0  0  0  0  0  0  0  0  0  0
  141.7021   67.7100  227.9712 H   0  0  0  0  0  0  0  0  0  0  0  0
  141.0255   68.3745  229.4540 H   0  0  0  0  0  0  0  0  0  0  0  0
  138.9190   68.7060  228.0310 H   0  0  0  0  0  0  0  0  0  0  0  0
  140.2396   66.4965  226.5411 H   0  0  0  0  0  0  0  0  0  0  0  0
  138.7144   67.3995  226.1287 H   0  0  0  0  0  0  0  0  0  0  0  0
  141.5071   68.0215  225.5409 H   0  0  0  0  0  0  0  0  0  0  0  0
  139.9369   68.6119  224.8039 H   0  0  0  0  0  0  0  0  0  0  0  0
  141.1216   73.0138  224.2051 H   0  0  0  0  0  0  0  0  0  0  0  0
  139.6898   77.2414  223.2432 H   0  0  0  0  0  0  0  0  0  0  0  0
  142.4461   77.5525  219.1526 H   0  0  0  0  0  0  0  0  0  0  0  0
  1  2  2  0
  2  3  1  0
  3  4  1  0
  4  5  1  0
  5  6  2  0
  6  7  1  0
  7  8  2  0
  8  9  1  0
  9 10  1  0
 10 11  2  0
 10 12  1  0
 12 13  1  0
 13 14  1  0
 14 15  1  0
 15 16  1  0
 16 17  1  0
  9 18  2  0
  4 19  2  0
 19 20  1  0
 20 21  2  0
 21 22  1  0
 22 23  1  0
 22 24  2  0
 24 25  1  0
 24 26  1  0
 26 27  2  0
 27  2  1  0
 18  5  1  0
 27 20  1  0
 17 12  1  0
  3 28  1  0
  3 29  1  0
  6 30  1  0
  7 31  1  0
  8 32  1  0
 13 33  1  0
 13 34  1  0
 14 35  1  0
 14 36  1  0
 15 37  1  0
 16 38  1  0
 16 39  1  0
 17 40  1  0
 17 41  1  0
 18 42  1  0
 21 43  1  0
 26 44  1  0
M  END
>  <smiles>  (17) 
O=C1CC(c2cccc(C(=O)N3CCNCC3)c2)=Nc2cc(Cl)c(Cl)cc21

>  <score_type>  (17) 
oracle

>  <origin>  (17) 
autodockgpu

>  <m_score__min__energy>  (17) 
-8.2200000000000006

>  <m_primary>  (17) 
energy

>  <rmsd>  (17) 
8.581721177471332

>  <m_score__min__rmsd>  (17) 
8.581721177471332

>  <meeko>  (17) 
{"free_energy": -7.95, "intermolecular_energy": -8.55, "internal_energy": -0.45, "cluster_size": 8, "cluster_id": 3, "rank_in_cluster": 6}

>  <energy>  (17) 
-8.2

>  <cluster_rmsd>  (17) 
0.16

>  <cluster>  (17) 
1

$$$$

     RDKit          3D

 44 47  0  0  0  0  0  0  0  0999 V2000
  146.3280   72.6680  219.4690 O   0  0  0  0  0  0  0  0  0  0  0  0
  145.0960   72.4460  219.7070 C   0  0  0  0  0  0  0  0  0  0  0  0
  144.2590   73.5810  220.1640 C   0  0  0  0  0  0  0  0  0  0  0  0
  142.8740   73.1020  220.3810 C   0  0  0  0  0  0  0  0  0  0  0  0
  141.8880   74.1020  220.8430 C   0  0  0  0  0  0  0  0  0  0  0  0
  140.7260   73.7160  221.4990 C   0  0  0  0  0  0  0  0  0  0  0  0
  139.8090   74.6750  221.9250 C   0  0  0  0  0  0  0  0  0  0  0  0
  140.0280   76.0290  221.7100 C   0  0  0  0  0  0  0  0  0  0  0  0
  141.1760   76.4150  221.0610 C   0  0  0  0  0  0  0  0  0  0  0  0
  141.5200   77.8020  220.7760 C   0  0  0  0  0  0  0  0  0  0  0  0
  141.7260   78.1440  219.5830 O   0  0  0  0  0  0  0  0  0  0  0  0
  141.6360   78.8030  221.7740 N   0  0  0  0  0  0  0  0  0  0  0  0
  141.9880   80.1490  221.3430 C   0  0  0  0  0  0  0  0  0  0  0  0
  141.8470   81.1330  222.5010 C   0  0  0  0  0  0  0  0  0  0  0  0
  140.5090   80.8650  223.0480 N   0  0  0  0  0  0  0  0  0  0  0  0
  140.6310   79.6700  223.8570 C   0  0  0  0  0  0  0  0  0  0  0  0
  141.4350   78.5900  223.1780 C   0  0  0  0  0  0  0  0  0  0  0  0
  142.0650   75.4500  220.6500 C   0  0  0  0  0  0  0  0  0  0  0  0
  142.4660   71.9150  220.2040 N   0  0  0  0  0  0  0  0  0  0  0  0
  143.2730   70.8390  219.7670 C   0  0  0  0  0  0  0  0  0  0  0  0
  142.7690   69.5660  219.5930 C   0  0  0  0  0  0  0  0  0  0  0  0
  143.6120   68.5390  219.1580 C   0  0  0  0  0  0  0  0  0  0  0  0
  142.9370   66.9370  218.9490 Cl  0  0  0  0  0  0  0  0  0  0  0  0
  144.9510   68.7720  218.8970 C   0  0  0  0  0  0  0  0  0  0  0  0
  146.0120   67.4900  218.3530 Cl  0  0  0  0  0  0  0  0  0  0  0  0
  145.4190   70.0570  219.0830 C   0  0  0  0  0  0  0  0  0  0  0  0
  144.5970   71.0940  219.5140 C   0  0  0  0  0  0  0  0  0  0  0  0
  144.6627   73.9812  221.1057 H   0  0  0  0  0  0  0  0  0  0  0  0
  144.2626   74.3755  219.4032 H   0  0  0  0  0  0  0  0  0  0  0  0
  140.5289   72.6495  221.6829 H   0  0  0  0  0  0  0  0  0  0  0  0
  138.8932   74.3527  222.4421 H   0  0  0  0  0  0  0  0  0  0  0  0
  139.2978   76.7772  222.0521 H   0  0  0  0  0  0  0  0  0  0  0  0
  143.0288   80.1549  220.9872 H   0  0  0  0  0  0  0  0  0  0  0  0
  141.3093   80.4527  220.5323 H   0  0  0  0  0  0  0  0  0  0  0  0
  142.6215   80.9530  223.2612 H   0  0  0  0  0  0  0  0  0  0  0  0
  141.9669   82.1782  222.1799 H   0  0  0  0  0  0  0  0  0  0  0  0
  139.8620   80.7190  222.2280 H   0  0  0  0  0  0  0  0  0  0  0  0
  141.1248   79.9343  224.8037 H   0  0  0  0  0  0  0  0  0  0  0  0
  139.6177   79.2759  224.0243 H   0  0  0  0  0  0  0  0  0  0  0  0
  142.4206   78.5364  223.6636 H   0  0  0  0  0  0  0  0  0  0  0  0
  140.8602   77.6574  223.2776 H   0  0  0  0  0  0  0  0  0  0  0  0
  142.9781   75.7794  220.1325 H   0  0  0  0  0  0  0  0  0  0  0  0
  141.7076   69.3601  219.7959 H   0  0  0  0  0  0  0  0  0  0  0  0
  146.4797   70.2691  218.8834 H   0  0  0  0  0  0  0  0  0  0  0  0
  1  2  2  0
  2  3  1  0
  3  4  1  0
  4  5  1  0
  5  6  2  0
  6  7  1  0
  7  8  2  0
  8  9  1  0
  9 10  1  0
 10 11  2  0
 10 12  1  0
 12 13  1  0
 13 14  1  0
 14 15  1  0
 15 16  1  0
 16 17  1  0
  9 18  2  0
  4 19  2  0
 19 20  1  0
 20 21  2  0
 21 22  1  0
 22 23  1  0
 22 24  2  0
 24 25  1  0
 24 26  1  0
 26 27  2  0
 27  2  1  0
 18  5  1  0
 27 20  1  0
 17 12  1  0
  3 28  1  0
  3 29  1  0
  6 30  1  0
  7 31  1  0
  8 32  1  0
 13 33  1  0
 13 34  1  0
 14 35  1  0
 14 36  1  0
 15 37  1  0
 16 38  1  0
 16 39  1  0
 17 40  1  0
 17 41  1  0
 18 42  1  0
 21 43  1  0
 26 44  1  0
M  END
>  <smiles>  (18) 
O=C1CC(c2cccc(C(=O)N3CCNCC3)c2)=Nc2cc(Cl)c(Cl)cc21

>  <score_type>  (18) 
oracle

>  <origin>  (18) 
autodockgpu

>  <m_score__min__energy>  (18) 
-8.2200000000000006

>  <m_primary>  (18) 
energy

>  <rmsd>  (18) 
7.968310671792333

>  <m_score__min__rmsd>  (18) 
7.968310671792333

>  <meeko>  (18) 
{"free_energy": -7.6, "intermolecular_energy": -8.2, "internal_energy": -0.64, "cluster_size": 8, "cluster_id": 4, "rank_in_cluster": 3}

>  <energy>  (18) 
-8.19

>  <cluster_rmsd>  (18) 
0.09

>  <cluster>  (18) 
1

$$$$

     RDKit          3D

 44 47  0  0  0  0  0  0  0  0999 V2000
  138.6880   69.5920  221.6010 O   0  0  0  0  0  0  0  0  0  0  0  0
  139.2960   70.5670  222.1520 C   0  0  0  0  0  0  0  0  0  0  0  0
  139.5880   71.7630  221.3270 C   0  0  0  0  0  0  0  0  0  0  0  0
  140.2950   72.7630  222.1610 C   0  0  0  0  0  0  0  0  0  0  0  0
  140.6710   74.0320  221.5030 C   0  0  0  0  0  0  0  0  0  0  0  0
  140.1810   75.2500  221.9560 C   0  0  0  0  0  0  0  0  0  0  0  0
  140.5470   76.4350  221.3210 C   0  0  0  0  0  0  0  0  0  0  0  0
  141.4040   76.4330  220.2280 C   0  0  0  0  0  0  0  0  0  0  0  0
  141.8910   75.2300  219.7760 C   0  0  0  0  0  0  0  0  0  0  0  0
  142.7950   75.0960  218.6410 C   0  0  0  0  0  0  0  0  0  0  0  0
  142.7850   75.9830  217.7490 O   0  0  0  0  0  0  0  0  0  0  0  0
  143.6970   74.0130  218.4790 N   0  0  0  0  0  0  0  0  0  0  0  0
  144.5410   74.0090  217.2930 C   0  0  0  0  0  0  0  0  0  0  0  0
  145.5950   72.9100  217.3930 C   0  0  0  0  0  0  0  0  0  0  0  0
  146.1990   73.1020  218.7200 N   0  0  0  0  0  0  0  0  0  0  0  0
  145.2710   72.5320  219.6750 C   0  0  0  0  0  0  0  0  0  0  0  0
  143.8400   72.9200  219.3970 C   0  0  0  0  0  0  0  0  0  0  0  0
  141.5140   74.0750  220.4190 C   0  0  0  0  0  0  0  0  0  0  0  0
  140.6010   72.6240  223.3830 N   0  0  0  0  0  0  0  0  0  0  0  0
  140.3170   71.4780  224.1620 C   0  0  0  0  0  0  0  0  0  0  0  0
  140.6770   71.3860  225.4910 C   0  0  0  0  0  0  0  0  0  0  0  0
  140.3710   70.2300  226.2140 C   0  0  0  0  0  0  0  0  0  0  0  0
  140.8440   70.1490  227.8990 Cl  0  0  0  0  0  0  0  0  0  0  0  0
  139.7110   69.1670  225.6230 C   0  0  0  0  0  0  0  0  0  0  0  0
  139.3250   67.7160  226.5240 Cl  0  0  0  0  0  0  0  0  0  0  0  0
  139.3670   69.2950  224.2920 C   0  0  0  0  0  0  0  0  0  0  0  0
  139.6620   70.4380  223.5540 C   0  0  0  0  0  0  0  0  0  0  0  0
  140.2231   71.4776  220.4754 H   0  0  0  0  0  0  0  0  0  0  0  0
  138.6485   72.1920  220.9485 H   0  0  0  0  0  0  0  0  0  0  0  0
  139.5009   75.2793  222.8200 H   0  0  0  0  0  0  0  0  0  0  0  0
  140.1494   77.3909  221.6926 H   0  0  0  0  0  0  0  0  0  0  0  0
  141.6870   77.3745  219.7345 H   0  0  0  0  0  0  0  0  0  0  0  0
  143.9167   73.8326  216.4047 H   0  0  0  0  0  0  0  0  0  0  0  0
  145.0473   74.9822  217.2124 H   0  0  0  0  0  0  0  0  0  0  0  0
  145.1295   71.9162  217.3173 H   0  0  0  0  0  0  0  0  0  0  0  0
  146.3368   72.9656  216.5827 H   0  0  0  0  0  0  0  0  0  0  0  0
  146.3160   74.1410  218.8600 H   0  0  0  0  0  0  0  0  0  0  0  0
  145.3529   71.4358  219.6344 H   0  0  0  0  0  0  0  0  0  0  0  0
  145.5346   72.9224  220.6690 H   0  0  0  0  0  0  0  0  0  0  0  0
  143.3205   72.0460  218.9771 H   0  0  0  0  0  0  0  0  0  0  0  0
  143.4097   73.2511  220.3537 H   0  0  0  0  0  0  0  0  0  0  0  0
  141.9136   73.1225  220.0407 H   0  0  0  0  0  0  0  0  0  0  0  0
  141.2029   72.2196  225.9794 H   0  0  0  0  0  0  0  0  0  0  0  0
  138.8415   68.4648  223.7974 H   0  0  0  0  0  0  0  0  0  0  0  0
  1  2  2  0
  2  3  1  0
  3  4  1  0
  4  5  1  0
  5  6  2  0
  6  7  1  0
  7  8  2  0
  8  9  1  0
  9 10  1  0
 10 11  2  0
 10 12  1  0
 12 13  1  0
 13 14  1  0
 14 15  1  0
 15 16  1  0
 16 17  1  0
  9 18  2  0
  4 19  2  0
 19 20  1  0
 20 21  2  0
 21 22  1  0
 22 23  1  0
 22 24  2  0
 24 25  1  0
 24 26  1  0
 26 27  2  0
 27  2  1  0
 18  5  1  0
 27 20  1  0
 17 12  1  0
  3 28  1  0
  3 29  1  0
  6 30  1  0
  7 31  1  0
  8 32  1  0
 13 33  1  0
 13 34  1  0
 14 35  1  0
 14 36  1  0
 15 37  1  0
 16 38  1  0
 16 39  1  0
 17 40  1  0
 17 41  1  0
 18 42  1  0
 21 43  1  0
 26 44  1  0
M  END
>  <smiles>  (19) 
O=C1CC(c2cccc(C(=O)N3CCNCC3)c2)=Nc2cc(Cl)c(Cl)cc21

>  <score_type>  (19) 
oracle

>  <origin>  (19) 
autodockgpu

>  <m_score__min__energy>  (19) 
-8.2200000000000006

>  <m_primary>  (19) 
energy

>  <rmsd>  (19) 
6.215666122292475

>  <m_score__min__rmsd>  (19) 
6.215666122292475

>  <meeko>  (19) 
{"free_energy": -8.21, "intermolecular_energy": -8.81, "internal_energy": -0.32, "cluster_size": 9, "cluster_id": 2, "rank_in_cluster": 3}

>  <energy>  (19) 
-8.19

>  <cluster_rmsd>  (19) 
0.14

>  <cluster>  (19) 
1

$$$$

     RDKit          3D

 44 47  0  0  0  0  0  0  0  0999 V2000
  139.0640   69.4820  221.4970 O   0  0  0  0  0  0  0  0  0  0  0  0
  139.5690   70.4960  222.0800 C   0  0  0  0  0  0  0  0  0  0  0  0
  139.8520   71.7010  221.2640 C   0  0  0  0  0  0  0  0  0  0  0  0
  140.4320   72.7490  222.1360 C   0  0  0  0  0  0  0  0  0  0  0  0
  140.7810   74.0330  221.4920 C   0  0  0  0  0  0  0  0  0  0  0  0
  141.6120   74.0770  220.3800 C   0  0  0  0  0  0  0  0  0  0  0  0
  141.9290   75.2980  219.7880 C   0  0  0  0  0  0  0  0  0  0  0  0
  141.4300   76.4930  220.2870 C   0  0  0  0  0  0  0  0  0  0  0  0
  140.6070   76.4540  221.3880 C   0  0  0  0  0  0  0  0  0  0  0  0
  140.0210   77.6370  222.0040 C   0  0  0  0  0  0  0  0  0  0  0  0
  138.8290   77.5870  222.4020 O   0  0  0  0  0  0  0  0  0  0  0  0
  140.7210   78.8570  222.1850 N   0  0  0  0  0  0  0  0  0  0  0  0
  140.0080   79.9590  222.8160 C   0  0  0  0  0  0  0  0  0  0  0  0
  140.9670   81.1020  223.1350 C   0  0  0  0  0  0  0  0  0  0  0  0
  142.0850   80.4560  223.8380 N   0  0  0  0  0  0  0  0  0  0  0  0
  142.9010   79.8320  222.8180 C   0  0  0  0  0  0  0  0  0  0  0  0
  142.0810   79.0890  221.7930 C   0  0  0  0  0  0  0  0  0  0  0  0
  140.3090   75.2380  221.9540 C   0  0  0  0  0  0  0  0  0  0  0  0
  140.6520   72.6380  223.3790 N   0  0  0  0  0  0  0  0  0  0  0  0
  140.3780   71.4830  224.1490 C   0  0  0  0  0  0  0  0  0  0  0  0
  140.6410   71.4230  225.5020 C   0  0  0  0  0  0  0  0  0  0  0  0
  140.3500   70.2560  226.2150 C   0  0  0  0  0  0  0  0  0  0  0  0
  140.6970   70.2180  227.9310 Cl  0  0  0  0  0  0  0  0  0  0  0  0
  139.8010   69.1510  225.5890 C   0  0  0  0  0  0  0  0  0  0  0  0
  139.4350   67.6870  226.4760 Cl  0  0  0  0  0  0  0  0  0  0  0  0
  139.5530   69.2480  224.2350 C   0  0  0  0  0  0  0  0  0  0  0  0
  139.8340   70.4010  223.5060 C   0  0  0  0  0  0  0  0  0  0  0  0
  140.5666   71.4472  220.4671 H   0  0  0  0  0  0  0  0  0  0  0  0
  138.9203   72.0693  220.8098 H   0  0  0  0  0  0  0  0  0  0  0  0
  142.0216   73.1443  219.9650 H   0  0  0  0  0  0  0  0  0  0  0  0
  142.5880   75.3150  218.9074 H   0  0  0  0  0  0  0  0  0  0  0  0
  141.6874   77.4511  219.8119 H   0  0  0  0  0  0  0  0  0  0  0  0
  139.2258   80.3224  222.1333 H   0  0  0  0  0  0  0  0  0  0  0  0
  139.5565   79.6010  223.7530 H   0  0  0  0  0  0  0  0  0  0  0  0
  141.3160   81.5865  222.2112 H   0  0  0  0  0  0  0  0  0  0  0  0
  140.4931   81.8912  223.7371 H   0  0  0  0  0  0  0  0  0  0  0  0
  141.6680   79.7450  224.4960 H   0  0  0  0  0  0  0  0  0  0  0  0
  143.4822   80.6127  222.3055 H   0  0  0  0  0  0  0  0  0  0  0  0
  143.5545   79.1004  223.3157 H   0  0  0  0  0  0  0  0  0  0  0  0
  142.0767   79.6763  220.8629 H   0  0  0  0  0  0  0  0  0  0  0  0
  142.5479   78.1006  221.6703 H   0  0  0  0  0  0  0  0  0  0  0  0
  139.6496   75.2285  222.8344 H   0  0  0  0  0  0  0  0  0  0  0  0
  141.0782   72.2904  226.0181 H   0  0  0  0  0  0  0  0  0  0  0  0
  139.1176   68.3834  223.7125 H   0  0  0  0  0  0  0  0  0  0  0  0
  1  2  2  0
  2  3  1  0
  3  4  1  0
  4  5  1  0
  5  6  2  0
  6  7  1  0
  7  8  2  0
  8  9  1  0
  9 10  1  0
 10 11  2  0
 10 12  1  0
 12 13  1  0
 13 14  1  0
 14 15  1  0
 15 16  1  0
 16 17  1  0
  9 18  2  0
  4 19  2  0
 19 20  1  0
 20 21  2  0
 21 22  1  0
 22 23  1  0
 22 24  2  0
 24 25  1  0
 24 26  1  0
 26 27  2  0
 27  2  1  0
 18  5  1  0
 27 20  1  0
 17 12  1  0
  3 28  1  0
  3 29  1  0
  6 30  1  0
  7 31  1  0
  8 32  1  0
 13 33  1  0
 13 34  1  0
 14 35  1  0
 14 36  1  0
 15 37  1  0
 16 38  1  0
 16 39  1  0
 17 40  1  0
 17 41  1  0
 18 42  1  0
 21 43  1  0
 26 44  1  0
M  END
>  <smiles>  (20) 
O=C1CC(c2cccc(C(=O)N3CCNCC3)c2)=Nc2cc(Cl)c(Cl)cc21

>  <score_type>  (20) 
oracle

>  <origin>  (20) 
autodockgpu

>  <m_score__min__energy>  (20) 
-8.2200000000000006

>  <m_primary>  (20) 
energy

>  <rmsd>  (20) 
6.329451251319882

>  <m_score__min__rmsd>  (20) 
6.329451251319882

>  <meeko>  (20) 
{"free_energy": -8.21, "intermolecular_energy": -8.81, "internal_energy": -0.55, "cluster_size": 25, "cluster_id": 1, "rank_in_cluster": 3}

>  <energy>  (20) 
-8.18

>  <cluster_rmsd>  (20) 
0.19

>  <cluster>  (20) 
1

$$$$

     RDKit          3D

 44 47  0  0  0  0  0  0  0  0999 V2000
  138.6780   69.6210  221.5930 O   0  0  0  0  0  0  0  0  0  0  0  0
  139.2930   70.5900  222.1470 C   0  0  0  0  0  0  0  0  0  0  0  0
  139.6180   71.7750  221.3170 C   0  0  0  0  0  0  0  0  0  0  0  0
  140.3280   72.7690  222.1550 C   0  0  0  0  0  0  0  0  0  0  0  0
  140.7350   74.0270  221.4930 C   0  0  0  0  0  0  0  0  0  0  0  0
  140.3020   75.2600  221.9640 C   0  0  0  0  0  0  0  0  0  0  0  0
  140.6970   76.4340  221.3250 C   0  0  0  0  0  0  0  0  0  0  0  0
  141.5270   76.4060  220.2120 C   0  0  0  0  0  0  0  0  0  0  0  0
  141.9580   75.1880  219.7430 C   0  0  0  0  0  0  0  0  0  0  0  0
  142.8290   75.0270  218.5870 C   0  0  0  0  0  0  0  0  0  0  0  0
  142.7800   75.8810  217.6650 O   0  0  0  0  0  0  0  0  0  0  0  0
  143.7410   73.9510  218.4350 N   0  0  0  0  0  0  0  0  0  0  0  0
  144.5500   73.9160  217.2240 C   0  0  0  0  0  0  0  0  0  0  0  0
  145.6220   72.8360  217.3300 C   0  0  0  0  0  0  0  0  0  0  0  0
  146.2620   73.0820  218.6310 N   0  0  0  0  0  0  0  0  0  0  0  0
  145.3720   72.5330  219.6330 C   0  0  0  0  0  0  0  0  0  0  0  0
  143.9280   72.8920  219.3850 C   0  0  0  0  0  0  0  0  0  0  0  0
  141.5540   74.0440  220.3900 C   0  0  0  0  0  0  0  0  0  0  0  0
  140.6120   72.6340  223.3830 N   0  0  0  0  0  0  0  0  0  0  0  0
  140.2980   71.4990  224.1650 C   0  0  0  0  0  0  0  0  0  0  0  0
  140.6350   71.4110  225.5000 C   0  0  0  0  0  0  0  0  0  0  0  0
  140.2990   70.2650  226.2270 C   0  0  0  0  0  0  0  0  0  0  0  0
  140.7440   70.1890  227.9200 Cl  0  0  0  0  0  0  0  0  0  0  0  0
  139.6300   69.2090  225.6330 C   0  0  0  0  0  0  0  0  0  0  0  0
  139.2070   67.7710  226.5380 Cl  0  0  0  0  0  0  0  0  0  0  0  0
  139.3100   69.3330  224.2970 C   0  0  0  0  0  0  0  0  0  0  0  0
  139.6350   70.4650  223.5550 C   0  0  0  0  0  0  0  0  0  0  0  0
  140.2618   71.4725  220.4779 H   0  0  0  0  0  0  0  0  0  0  0  0
  138.6921   72.2165  220.9198 H   0  0  0  0  0  0  0  0  0  0  0  0
  139.6448   75.3100  222.8447 H   0  0  0  0  0  0  0  0  0  0  0  0
  140.3442   77.4021  221.7100 H   0  0  0  0  0  0  0  0  0  0  0  0
  141.8331   77.3390  219.7161 H   0  0  0  0  0  0  0  0  0  0  0  0
  143.9021   73.6998  216.3617 H   0  0  0  0  0  0  0  0  0  0  0  0
  145.0397   74.8924  217.0944 H   0  0  0  0  0  0  0  0  0  0  0  0
  145.1690   71.8340  217.3024 H   0  0  0  0  0  0  0  0  0  0  0  0
  146.3388   72.8736  216.4964 H   0  0  0  0  0  0  0  0  0  0  0  0
  146.3690   74.1260  218.7310 H   0  0  0  0  0  0  0  0  0  0  0  0
  145.4686   71.4373  219.6277 H   0  0  0  0  0  0  0  0  0  0  0  0
  145.6597   72.9608  220.6047 H   0  0  0  0  0  0  0  0  0  0  0  0
  143.4092   71.9971  219.0109 H   0  0  0  0  0  0  0  0  0  0  0  0
  143.5219   73.2503  220.3425 H   0  0  0  0  0  0  0  0  0  0  0  0
  141.9098   73.0794  219.9990 H   0  0  0  0  0  0  0  0  0  0  0  0
  141.1663   72.2398  225.9908 H   0  0  0  0  0  0  0  0  0  0  0  0
  138.7789   68.5077  223.8001 H   0  0  0  0  0  0  0  0  0  0  0  0
  1  2  2  0
  2  3  1  0
  3  4  1  0
  4  5  1  0
  5  6  2  0
  6  7  1  0
  7  8  2  0
  8  9  1  0
  9 10  1  0
 10 11  2  0
 10 12  1  0
 12 13  1  0
 13 14  1  0
 14 15  1  0
 15 16  1  0
 16 17  1  0
  9 18  2  0
  4 19  2  0
 19 20  1  0
 20 21  2  0
 21 22  1  0
 22 23  1  0
 22 24  2  0
 24 25  1  0
 24 26  1  0
 26 27  2  0
 27  2  1  0
 18  5  1  0
 27 20  1  0
 17 12  1  0
  3 28  1  0
  3 29  1  0
  6 30  1  0
  7 31  1  0
  8 32  1  0
 13 33  1  0
 13 34  1  0
 14 35  1  0
 14 36  1  0
 15 37  1  0
 16 38  1  0
 16 39  1  0
 17 40  1  0
 17 41  1  0
 18 42  1  0
 21 43  1  0
 26 44  1  0
M  END
>  <smiles>  (21) 
O=C1CC(c2cccc(C(=O)N3CCNCC3)c2)=Nc2cc(Cl)c(Cl)cc21

>  <score_type>  (21) 
oracle

>  <origin>  (21) 
autodockgpu

>  <m_score__min__energy>  (21) 
-8.2200000000000006

>  <m_primary>  (21) 
energy

>  <rmsd>  (21) 
6.247526837688421

>  <m_score__min__rmsd>  (21) 
6.247526837688421

>  <meeko>  (21) 
{"free_energy": -8.17, "intermolecular_energy": -8.76, "internal_energy": -0.38, "cluster_size": 9, "cluster_id": 2, "rank_in_cluster": 5}

>  <energy>  (21) 
-8.15

>  <cluster_rmsd>  (21) 
0.35

>  <cluster>  (21) 
1

$$$$

     RDKit          3D

 44 47  0  0  0  0  0  0  0  0999 V2000
  138.8970   69.5630  221.5170 O   0  0  0  0  0  0  0  0  0  0  0  0
  139.4600   70.5460  222.1000 C   0  0  0  0  0  0  0  0  0  0  0  0
  139.7700   71.7510  221.2940 C   0  0  0  0  0  0  0  0  0  0  0  0
  140.4180   72.7600  222.1640 C   0  0  0  0  0  0  0  0  0  0  0  0
  140.8020   74.0380  221.5290 C   0  0  0  0  0  0  0  0  0  0  0  0
  141.6700   74.0700  220.4450 C   0  0  0  0  0  0  0  0  0  0  0  0
  142.0200   75.2860  219.8610 C   0  0  0  0  0  0  0  0  0  0  0  0
  141.5170   76.4880  220.3400 C   0  0  0  0  0  0  0  0  0  0  0  0
  140.6580   76.4610  221.4120 C   0  0  0  0  0  0  0  0  0  0  0  0
  140.0640   77.6520  222.0050 C   0  0  0  0  0  0  0  0  0  0  0  0
  138.8620   77.6120  222.3720 O   0  0  0  0  0  0  0  0  0  0  0  0
  140.7680   78.8690  222.1950 N   0  0  0  0  0  0  0  0  0  0  0  0
  140.0460   79.9800  222.8000 C   0  0  0  0  0  0  0  0  0  0  0  0
  141.0040   81.1180  223.1360 C   0  0  0  0  0  0  0  0  0  0  0  0
  142.0990   80.4700  223.8730 N   0  0  0  0  0  0  0  0  0  0  0  0
  142.9370   79.8330  222.8780 C   0  0  0  0  0  0  0  0  0  0  0  0
  142.1390   79.0890  221.8370 C   0  0  0  0  0  0  0  0  0  0  0  0
  140.3280   75.2490  221.9710 C   0  0  0  0  0  0  0  0  0  0  0  0
  140.6670   72.6210  223.3990 N   0  0  0  0  0  0  0  0  0  0  0  0
  140.3670   71.4670  224.1590 C   0  0  0  0  0  0  0  0  0  0  0  0
  140.6650   71.3760  225.5040 C   0  0  0  0  0  0  0  0  0  0  0  0
  140.3450   70.2110  226.2070 C   0  0  0  0  0  0  0  0  0  0  0  0
  140.7380   70.1310  227.9130 Cl  0  0  0  0  0  0  0  0  0  0  0  0
  139.7330   69.1390  225.5820 C   0  0  0  0  0  0  0  0  0  0  0  0
  139.3310   67.6770  226.4580 Cl  0  0  0  0  0  0  0  0  0  0  0  0
  139.4520   69.2670  224.2370 C   0  0  0  0  0  0  0  0  0  0  0  0
  139.7610   70.4180  223.5170 C   0  0  0  0  0  0  0  0  0  0  0  0
  140.4503   71.4805  220.4731 H   0  0  0  0  0  0  0  0  0  0  0  0
  138.8421   72.1649  220.8725 H   0  0  0  0  0  0  0  0  0  0  0  0
  142.0828   73.1317  220.0459 H   0  0  0  0  0  0  0  0  0  0  0  0
  142.7087   75.2935  219.0033 H   0  0  0  0  0  0  0  0  0  0  0  0
  141.8002   77.4419  219.8712 H   0  0  0  0  0  0  0  0  0  0  0  0
  139.2843   80.3440  222.0948 H   0  0  0  0  0  0  0  0  0  0  0  0
  139.5676   79.6314  223.7272 H   0  0  0  0  0  0  0  0  0  0  0  0
  141.3805   81.5934  222.2183 H   0  0  0  0  0  0  0  0  0  0  0  0
  140.5198   81.9145  223.7200 H   0  0  0  0  0  0  0  0  0  0  0  0
  141.6610   79.7660  224.5240 H   0  0  0  0  0  0  0  0  0  0  0  0
  143.5370   80.6061  222.3757 H   0  0  0  0  0  0  0  0  0  0  0  0
  143.5718   79.1000  223.3974 H   0  0  0  0  0  0  0  0  0  0  0  0
  142.1630   79.6701  220.9033 H   0  0  0  0  0  0  0  0  0  0  0  0
  142.6021   78.0967  221.7328 H   0  0  0  0  0  0  0  0  0  0  0  0
  139.6391   75.2492  222.8286 H   0  0  0  0  0  0  0  0  0  0  0  0
  141.1520   72.2165  226.0201 H   0  0  0  0  0  0  0  0  0  0  0  0
  138.9663   68.4295  223.7148 H   0  0  0  0  0  0  0  0  0  0  0  0
  1  2  2  0
  2  3  1  0
  3  4  1  0
  4  5  1  0
  5  6  2  0
  6  7  1  0
  7  8  2  0
  8  9  1  0
  9 10  1  0
 10 11  2  0
 10 12  1  0
 12 13  1  0
 13 14  1  0
 14 15  1  0
 15 16  1  0
 16 17  1  0
  9 18  2  0
  4 19  2  0
 19 20  1  0
 20 21  2  0
 21 22  1  0
 22 23  1  0
 22 24  2  0
 24 25  1  0
 24 26  1  0
 26 27  2  0
 27  2  1  0
 18  5  1  0
 27 20  1  0
 17 12  1  0
  3 28  1  0
  3 29  1  0
  6 30  1  0
  7 31  1  0
  8 32  1  0
 13 33  1  0
 13 34  1  0
 14 35  1  0
 14 36  1  0
 15 37  1  0
 16 38  1  0
 16 39  1  0
 17 40  1  0
 17 41  1  0
 18 42  1  0
 21 43  1  0
 26 44  1  0
M  END
>  <smiles>  (22) 
O=C1CC(c2cccc(C(=O)N3CCNCC3)c2)=Nc2cc(Cl)c(Cl)cc21

>  <score_type>  (22) 
oracle

>  <origin>  (22) 
autodockgpu

>  <m_score__min__energy>  (22) 
-8.2200000000000006

>  <m_primary>  (22) 
energy

>  <rmsd>  (22) 
6.352698516574809

>  <m_score__min__rmsd>  (22) 
6.352698516574809

>  <meeko>  (22) 
{"free_energy": -8.21, "intermolecular_energy": -8.81, "internal_energy": -0.55, "cluster_size": 25, "cluster_id": 1, "rank_in_cluster": 8}

>  <energy>  (22) 
-8.15

>  <cluster_rmsd>  (22) 
0.32

>  <cluster>  (22) 
1

$$$$

     RDKit          3D

 44 47  0  0  0  0  0  0  0  0999 V2000
  142.3640   75.0290  218.6980 O   0  0  0  0  0  0  0  0  0  0  0  0
  141.7440   74.9420  219.8070 C   0  0  0  0  0  0  0  0  0  0  0  0
  141.4090   73.5890  220.3140 C   0  0  0  0  0  0  0  0  0  0  0  0
  140.6940   73.7220  221.6050 C   0  0  0  0  0  0  0  0  0  0  0  0
  140.2770   72.4670  222.2670 C   0  0  0  0  0  0  0  0  0  0  0  0
  139.5950   71.4790  221.5690 C   0  0  0  0  0  0  0  0  0  0  0  0
  139.2100   70.3040  222.2110 C   0  0  0  0  0  0  0  0  0  0  0  0
  139.4940   70.0890  223.5530 C   0  0  0  0  0  0  0  0  0  0  0  0
  140.1680   71.0640  224.2480 C   0  0  0  0  0  0  0  0  0  0  0  0
  140.5240   70.9580  225.6560 C   0  0  0  0  0  0  0  0  0  0  0  0
  140.7170   72.0110  226.3160 O   0  0  0  0  0  0  0  0  0  0  0  0
  140.6670   69.7220  226.3390 N   0  0  0  0  0  0  0  0  0  0  0  0
  141.0280   69.7660  227.7490 C   0  0  0  0  0  0  0  0  0  0  0  0
  140.9170   68.3790  228.3720 C   0  0  0  0  0  0  0  0  0  0  0  0
  139.5830   67.9040  227.9730 N   0  0  0  0  0  0  0  0  0  0  0  0
  139.7030   67.4620  226.5980 C   0  0  0  0  0  0  0  0  0  0  0  0
  140.4840   68.4300  225.7440 C   0  0  0  0  0  0  0  0  0  0  0  0
  140.5370   72.2150  223.5920 C   0  0  0  0  0  0  0  0  0  0  0  0
  140.4140   74.8120  222.1870 N   0  0  0  0  0  0  0  0  0  0  0  0
  140.7380   76.0980  221.6940 C   0  0  0  0  0  0  0  0  0  0  0  0
  140.4040   77.2510  222.3750 C   0  0  0  0  0  0  0  0  0  0  0  0
  140.7500   78.4960  221.8430 C   0  0  0  0  0  0  0  0  0  0  0  0
  140.3090   79.9380  222.7350 Cl  0  0  0  0  0  0  0  0  0  0  0  0
  141.4240   78.6000  220.6390 C   0  0  0  0  0  0  0  0  0  0  0  0
  141.8590   80.1570  219.9670 Cl  0  0  0  0  0  0  0  0  0  0  0  0
  141.7410   77.4250  219.9870 C   0  0  0  0  0  0  0  0  0  0  0  0
  141.4060   76.1750  220.5000 C   0  0  0  0  0  0  0  0  0  0  0  0
  140.7654   73.0716  219.5873 H   0  0  0  0  0  0  0  0  0  0  0  0
  142.3311   73.0067  220.4577 H   0  0  0  0  0  0  0  0  0  0  0  0
  139.3578   71.6247  220.5048 H   0  0  0  0  0  0  0  0  0  0  0  0
  138.6704   69.5314  221.6435 H   0  0  0  0  0  0  0  0  0  0  0  0
  139.1857   69.1572  224.0496 H   0  0  0  0  0  0  0  0  0  0  0  0
  142.0632   70.1249  227.8466 H   0  0  0  0  0  0  0  0  0  0  0  0
  140.3398   70.4468  228.2714 H   0  0  0  0  0  0  0  0  0  0  0  0
  141.7003   67.7129  227.9811 H   0  0  0  0  0  0  0  0  0  0  0  0
  141.0456   68.3986  229.4643 H   0  0  0  0  0  0  0  0  0  0  0  0
  138.9230   68.7220  228.0650 H   0  0  0  0  0  0  0  0  0  0  0  0
  140.2143   66.4881  226.5843 H   0  0  0  0  0  0  0  0  0  0  0  0
  138.6878   67.3929  226.1802 H   0  0  0  0  0  0  0  0  0  0  0  0
  141.4758   67.9960  225.5493 H   0  0  0  0  0  0  0  0  0  0  0  0
  139.8993   68.5846  224.8252 H   0  0  0  0  0  0  0  0  0  0  0  0
  141.0754   72.9838  224.1657 H   0  0  0  0  0  0  0  0  0  0  0  0
  139.8673   77.1902  223.3332 H   0  0  0  0  0  0  0  0  0  0  0  0
  142.2773   77.4785  219.0281 H   0  0  0  0  0  0  0  0  0  0  0  0
  1  2  2  0
  2  3  1  0
  3  4  1  0
  4  5  1  0
  5  6  2  0
  6  7  1  0
  7  8  2  0
  8  9  1  0
  9 10  1  0
 10 11  2  0
 10 12  1  0
 12 13  1  0
 13 14  1  0
 14 15  1  0
 15 16  1  0
 16 17  1  0
  9 18  2  0
  4 19  2  0
 19 20  1  0
 20 21  2  0
 21 22  1  0
 22 23  1  0
 22 24  2  0
 24 25  1  0
 24 26  1  0
 26 27  2  0
 27  2  1  0
 18  5  1  0
 27 20  1  0
 17 12  1  0
  3 28  1  0
  3 29  1  0
  6 30  1  0
  7 31  1  0
  8 32  1  0
 13 33  1  0
 13 34  1  0
 14 35  1  0
 14 36  1  0
 15 37  1  0
 16 38  1  0
 16 39  1  0
 17 40  1  0
 17 41  1  0
 18 42  1  0
 21 43  1  0
 26 44  1  0
M  END
>  <smiles>  (23) 
O=C1CC(c2cccc(C(=O)N3CCNCC3)c2)=Nc2cc(Cl)c(Cl)cc21

>  <score_type>  (23) 
oracle

>  <origin>  (23) 
autodockgpu

>  <m_score__min__energy>  (23) 
-8.2200000000000006

>  <m_primary>  (23) 
energy

>  <rmsd>  (23) 
8.584911729647784

>  <m_score__min__rmsd>  (23) 
8.584911729647784

>  <meeko>  (23) 
{"free_energy": -7.96, "intermolecular_energy": -8.55, "internal_energy": -0.44, "cluster_size": 8, "cluster_id": 3, "rank_in_cluster": 5}

>  <energy>  (23) 
-8.12

>  <cluster_rmsd>  (23) 
0.39

>  <cluster>  (23) 
1

$$$$

     RDKit          3D

 44 47  0  0  0  0  0  0  0  0999 V2000
  142.4520   75.0460  218.7410 O   0  0  0  0  0  0  0  0  0  0  0  0
  141.7980   74.9660  219.8310 C   0  0  0  0  0  0  0  0  0  0  0  0
  141.4610   73.6170  220.3450 C   0  0  0  0  0  0  0  0  0  0  0  0
  140.7040   73.7580  221.6110 C   0  0  0  0  0  0  0  0  0  0  0  0
  140.2790   72.5080  222.2760 C   0  0  0  0  0  0  0  0  0  0  0  0
  139.6020   71.5170  221.5770 C   0  0  0  0  0  0  0  0  0  0  0  0
  139.2090   70.3460  222.2220 C   0  0  0  0  0  0  0  0  0  0  0  0
  139.4810   70.1380  223.5670 C   0  0  0  0  0  0  0  0  0  0  0  0
  140.1500   71.1160  224.2630 C   0  0  0  0  0  0  0  0  0  0  0  0
  140.4930   71.0160  225.6750 C   0  0  0  0  0  0  0  0  0  0  0  0
  140.6590   72.0730  226.3360 O   0  0  0  0  0  0  0  0  0  0  0  0
  140.6530   69.7830  226.3590 N   0  0  0  0  0  0  0  0  0  0  0  0
  140.9990   69.8350  227.7730 C   0  0  0  0  0  0  0  0  0  0  0  0
  140.9080   68.4450  228.3950 C   0  0  0  0  0  0  0  0  0  0  0  0
  139.5880   67.9450  227.9820 N   0  0  0  0  0  0  0  0  0  0  0  0
  139.7300   67.5050  226.6090 C   0  0  0  0  0  0  0  0  0  0  0  0
  140.5010   68.4870  225.7630 C   0  0  0  0  0  0  0  0  0  0  0  0
  140.5270   72.2620  223.6040 C   0  0  0  0  0  0  0  0  0  0  0  0
  140.3940   74.8530  222.1690 N   0  0  0  0  0  0  0  0  0  0  0  0
  140.7210   76.1360  221.6700 C   0  0  0  0  0  0  0  0  0  0  0  0
  140.3530   77.2940  222.3250 C   0  0  0  0  0  0  0  0  0  0  0  0
  140.7030   78.5360  221.7880 C   0  0  0  0  0  0  0  0  0  0  0  0
  140.2200   79.9840  222.6470 Cl  0  0  0  0  0  0  0  0  0  0  0  0
  141.4140   78.6310  220.6040 C   0  0  0  0  0  0  0  0  0  0  0  0
  141.8550   80.1840  219.9260 Cl  0  0  0  0  0  0  0  0  0  0  0  0
  141.7630   77.4520  219.9780 C   0  0  0  0  0  0  0  0  0  0  0  0
  141.4260   76.2050  220.4960 C   0  0  0  0  0  0  0  0  0  0  0  0
  140.8461   73.0835  219.6052 H   0  0  0  0  0  0  0  0  0  0  0  0
  142.3843   73.0470  220.5257 H   0  0  0  0  0  0  0  0  0  0  0  0
  139.3751   71.6571  220.5098 H   0  0  0  0  0  0  0  0  0  0  0  0
  138.6728   69.5714  221.6541 H   0  0  0  0  0  0  0  0  0  0  0  0
  139.1674   69.2091  224.0658 H   0  0  0  0  0  0  0  0  0  0  0  0
  142.0261   70.2137  227.8810 H   0  0  0  0  0  0  0  0  0  0  0  0
  140.2932   70.5031  228.2884 H   0  0  0  0  0  0  0  0  0  0  0  0
  141.7080   67.7942  228.0122 H   0  0  0  0  0  0  0  0  0  0  0  0
  141.0248   68.4666  229.4886 H   0  0  0  0  0  0  0  0  0  0  0  0
  138.9110   68.7490  228.0670 H   0  0  0  0  0  0  0  0  0  0  0  0
  140.2595   66.5409  226.6008 H   0  0  0  0  0  0  0  0  0  0  0  0
  138.7205   67.4166  226.1810 H   0  0  0  0  0  0  0  0  0  0  0  0
  141.5030   68.0720  225.5792 H   0  0  0  0  0  0  0  0  0  0  0  0
  139.9231   68.6299  224.8380 H   0  0  0  0  0  0  0  0  0  0  0  0
  141.0624   73.0325  224.1782 H   0  0  0  0  0  0  0  0  0  0  0  0
  139.7863   77.2395  223.2662 H   0  0  0  0  0  0  0  0  0  0  0  0
  142.3280   77.4994  219.0354 H   0  0  0  0  0  0  0  0  0  0  0  0
  1  2  2  0
  2  3  1  0
  3  4  1  0
  4  5  1  0
  5  6  2  0
  6  7  1  0
  7  8  2  0
  8  9  1  0
  9 10  1  0
 10 11  2  0
 10 12  1  0
 12 13  1  0
 13 14  1  0
 14 15  1  0
 15 16  1  0
 16 17  1  0
  9 18  2  0
  4 19  2  0
 19 20  1  0
 20 21  2  0
 21 22  1  0
 22 23  1  0
 22 24  2  0
 24 25  1  0
 24 26  1  0
 26 27  2  0
 27  2  1  0
 18  5  1  0
 27 20  1  0
 17 12  1  0
  3 28  1  0
  3 29  1  0
  6 30  1  0
  7 31  1  0
  8 32  1  0
 13 33  1  0
 13 34  1  0
 14 35  1  0
 14 36  1  0
 15 37  1  0
 16 38  1  0
 16 39  1  0
 17 40  1  0
 17 41  1  0
 18 42  1  0
 21 43  1  0
 26 44  1  0
M  END
>  <smiles>  (24) 
O=C1CC(c2cccc(C(=O)N3CCNCC3)c2)=Nc2cc(Cl)c(Cl)cc21

>  <score_type>  (24) 
oracle

>  <origin>  (24) 
autodockgpu

>  <m_score__min__energy>  (24) 
-8.2200000000000006

>  <m_primary>  (24) 
energy

>  <rmsd>  (24) 
8.582343123395658

>  <m_score__min__rmsd>  (24) 
8.582343123395658

>  <meeko>  (24) 
{"free_energy": -7.95, "intermolecular_energy": -8.55, "internal_energy": -0.45, "cluster_size": 8, "cluster_id": 3, "rank_in_cluster": 7}

>  <energy>  (24) 
-8.12

>  <cluster_rmsd>  (24) 
0.4

>  <cluster>  (24) 
1

$$$$

     RDKit          3D

 44 47  0  0  0  0  0  0  0  0999 V2000
  138.9300   69.3580  221.5290 O   0  0  0  0  0  0  0  0  0  0  0  0
  139.3810   70.4110  222.0870 C   0  0  0  0  0  0  0  0  0  0  0  0
  139.5580   71.6220  221.2510 C   0  0  0  0  0  0  0  0  0  0  0  0
  140.0900   72.7170  222.0960 C   0  0  0  0  0  0  0  0  0  0  0  0
  140.3320   74.0140  221.4290 C   0  0  0  0  0  0  0  0  0  0  0  0
  140.9420   74.0790  220.1830 C   0  0  0  0  0  0  0  0  0  0  0  0
  141.1620   75.3120  219.5720 C   0  0  0  0  0  0  0  0  0  0  0  0
  140.7820   76.4980  220.1840 C   0  0  0  0  0  0  0  0  0  0  0  0
  140.1790   76.4390  221.4170 C   0  0  0  0  0  0  0  0  0  0  0  0
  139.7350   77.6110  222.1600 C   0  0  0  0  0  0  0  0  0  0  0  0
  138.6010   77.5930  222.7040 O   0  0  0  0  0  0  0  0  0  0  0  0
  140.5150   78.7870  222.3100 N   0  0  0  0  0  0  0  0  0  0  0  0
  139.9430   79.8830  223.0800 C   0  0  0  0  0  0  0  0  0  0  0  0
  140.9920   80.9620  223.3310 C   0  0  0  0  0  0  0  0  0  0  0  0
  142.1540   80.2290  223.8540 N   0  0  0  0  0  0  0  0  0  0  0  0
  142.8040   79.6250  222.7090 C   0  0  0  0  0  0  0  0  0  0  0  0
  141.8260   78.9790  221.7610 C   0  0  0  0  0  0  0  0  0  0  0  0
  139.9730   75.2110  221.9990 C   0  0  0  0  0  0  0  0  0  0  0  0
  140.3510   72.6360  223.3330 N   0  0  0  0  0  0  0  0  0  0  0  0
  140.1790   71.4750  224.1220 C   0  0  0  0  0  0  0  0  0  0  0  0
  140.4830   71.4500  225.4680 C   0  0  0  0  0  0  0  0  0  0  0  0
  140.2920   70.2740  226.2000 C   0  0  0  0  0  0  0  0  0  0  0  0
  140.6890   70.2800  227.9060 Cl  0  0  0  0  0  0  0  0  0  0  0  0
  139.8020   69.1270  225.6020 C   0  0  0  0  0  0  0  0  0  0  0  0
  139.5620   67.6520  226.5140 Cl  0  0  0  0  0  0  0  0  0  0  0  0
  139.5100   69.1910  224.2540 C   0  0  0  0  0  0  0  0  0  0  0  0
  139.6920   70.3510  223.5060 C   0  0  0  0  0  0  0  0  0  0  0  0
  140.2653   71.4077  220.4363 H   0  0  0  0  0  0  0  0  0  0  0  0
  138.5912   71.9210  220.8199 H   0  0  0  0  0  0  0  0  0  0  0  0
  141.2528   73.1534  219.6763 H   0  0  0  0  0  0  0  0  0  0  0  0
  141.6465   75.3458  218.5850 H   0  0  0  0  0  0  0  0  0  0  0  0
  140.9599   77.4656  219.6920 H   0  0  0  0  0  0  0  0  0  0  0  0
  139.1019   80.3185  222.5206 H   0  0  0  0  0  0  0  0  0  0  0  0
  139.5929   79.4942  224.0476 H   0  0  0  0  0  0  0  0  0  0  0  0
  141.2481   81.4808  222.3954 H   0  0  0  0  0  0  0  0  0  0  0  0
  140.6377   81.7369  224.0267 H   0  0  0  0  0  0  0  0  0  0  0  0
  141.7860   79.5010  224.5240 H   0  0  0  0  0  0  0  0  0  0  0  0
  143.3578   80.4052  222.1662 H   0  0  0  0  0  0  0  0  0  0  0  0
  143.4745   78.8375  223.0836 H   0  0  0  0  0  0  0  0  0  0  0  0
  141.7367   79.6172  220.8696 H   0  0  0  0  0  0  0  0  0  0  0  0
  142.2221   77.9789  221.5310 H   0  0  0  0  0  0  0  0  0  0  0  0
  139.4887   75.1851  222.9863 H   0  0  0  0  0  0  0  0  0  0  0  0
  140.8739   72.3513  225.9628 H   0  0  0  0  0  0  0  0  0  0  0  0
  139.1194   68.2930  223.7530 H   0  0  0  0  0  0  0  0  0  0  0  0
  1  2  2  0
  2  3  1  0
  3  4  1  0
  4  5  1  0
  5  6  2  0
  6  7  1  0
  7  8  2  0
  8  9  1  0
  9 10  1  0
 10 11  2  0
 10 12  1  0
 12 13  1  0
 13 14  1  0
 14 15  1  0
 15 16  1  0
 16 17  1  0
  9 18  2  0
  4 19  2  0
 19 20  1  0
 20 21  2  0
 21 22  1  0
 22 23  1  0
 22 24  2  0
 24 25  1  0
 24 26  1  0
 26 27  2  0
 27  2  1  0
 18  5  1  0
 27 20  1  0
 17 12  1  0
  3 28  1  0
  3 29  1  0
  6 30  1  0
  7 31  1  0
  8 32  1  0
 13 33  1  0
 13 34  1  0
 14 35  1  0
 14 36  1  0
 15 37  1  0
 16 38  1  0
 16 39  1  0
 17 40  1  0
 17 41  1  0
 18 42  1  0
 21 43  1  0
 26 44  1  0
M  END
>  <smiles>  (25) 
O=C1CC(c2cccc(C(=O)N3CCNCC3)c2)=Nc2cc(Cl)c(Cl)cc21

>  <score_type>  (25) 
oracle

>  <origin>  (25) 
autodockgpu

>  <m_score__min__energy>  (25) 
-8.2200000000000006

>  <m_primary>  (25) 
energy

>  <rmsd>  (25) 
6.256470413760976

>  <m_score__min__rmsd>  (25) 
6.256470413760976

>  <meeko>  (25) 
{"free_energy": -8.15, "intermolecular_energy": -8.75, "internal_energy": -0.58, "cluster_size": 25, "cluster_id": 1, "rank_in_cluster": 21}

>  <energy>  (25) 
-7.56

>  <cluster_rmsd>  (25) 
0.87

>  <cluster>  (25) 
1

$$$$

     RDKit          3D

 44 47  0  0  0  0  0  0  0  0999 V2000
  139.0200   69.4610  221.4790 O   0  0  0  0  0  0  0  0  0  0  0  0
  139.5130   70.4830  222.0570 C   0  0  0  0  0  0  0  0  0  0  0  0
  139.7660   71.6930  221.2390 C   0  0  0  0  0  0  0  0  0  0  0  0
  140.3360   72.7510  222.1060 C   0  0  0  0  0  0  0  0  0  0  0  0
  140.6550   74.0410  221.4580 C   0  0  0  0  0  0  0  0  0  0  0  0
  141.4160   74.0950  220.2980 C   0  0  0  0  0  0  0  0  0  0  0  0
  141.7070   75.3210  219.7040 C   0  0  0  0  0  0  0  0  0  0  0  0
  141.2490   76.5130  220.2490 C   0  0  0  0  0  0  0  0  0  0  0  0
  140.4950   76.4650  221.3970 C   0  0  0  0  0  0  0  0  0  0  0  0
  139.9570   77.6440  222.0640 C   0  0  0  0  0  0  0  0  0  0  0  0
  138.7900   77.5980  222.5300 O   0  0  0  0  0  0  0  0  0  0  0  0
  140.6790   78.8550  222.2210 N   0  0  0  0  0  0  0  0  0  0  0  0
  140.0150   79.9540  222.9090 C   0  0  0  0  0  0  0  0  0  0  0  0
  141.0020   81.0820  223.1880 C   0  0  0  0  0  0  0  0  0  0  0  0
  142.1530   80.4160  223.8150 N   0  0  0  0  0  0  0  0  0  0  0  0
  142.9030   79.7990  222.7400 C   0  0  0  0  0  0  0  0  0  0  0  0
  142.0170   79.0800  221.7530 C   0  0  0  0  0  0  0  0  0  0  0  0
  140.2220   75.2430  221.9640 C   0  0  0  0  0  0  0  0  0  0  0  0
  140.5690   72.6450  223.3470 N   0  0  0  0  0  0  0  0  0  0  0  0
  140.3240   71.4850  224.1190 C   0  0  0  0  0  0  0  0  0  0  0  0
  140.6010   71.4300  225.4700 C   0  0  0  0  0  0  0  0  0  0  0  0
  140.3370   70.2580  226.1850 C   0  0  0  0  0  0  0  0  0  0  0  0
  140.7020   70.2260  227.8980 Cl  0  0  0  0  0  0  0  0  0  0  0  0
  139.8020   69.1430  225.5640 C   0  0  0  0  0  0  0  0  0  0  0  0
  139.4710   67.6720  226.4540 Cl  0  0  0  0  0  0  0  0  0  0  0  0
  139.5390   69.2360  224.2120 C   0  0  0  0  0  0  0  0  0  0  0  0
  139.7930   70.3930  223.4810 C   0  0  0  0  0  0  0  0  0  0  0  0
  140.4769   71.4525  220.4348 H   0  0  0  0  0  0  0  0  0  0  0  0
  138.8234   72.0447  220.7943 H   0  0  0  0  0  0  0  0  0  0  0  0
  141.7910   73.1650  219.8457 H   0  0  0  0  0  0  0  0  0  0  0  0
  142.3114   75.3452  218.7853 H   0  0  0  0  0  0  0  0  0  0  0  0
  141.4847   77.4757  219.7719 H   0  0  0  0  0  0  0  0  0  0  0  0
  139.1981   80.3352  222.2786 H   0  0  0  0  0  0  0  0  0  0  0  0
  139.6151   79.5859  223.8653 H   0  0  0  0  0  0  0  0  0  0  0  0
  141.3013   81.5772  222.2525 H   0  0  0  0  0  0  0  0  0  0  0  0
  140.5718   81.8659  223.8287 H   0  0  0  0  0  0  0  0  0  0  0  0
  141.7680   79.6980  224.4860 H   0  0  0  0  0  0  0  0  0  0  0  0
  143.4625   80.5815  222.2064 H   0  0  0  0  0  0  0  0  0  0  0  0
  143.5761   79.0534  223.1884 H   0  0  0  0  0  0  0  0  0  0  0  0
  141.9646   79.6819  220.8338 H   0  0  0  0  0  0  0  0  0  0  0  0
  142.4656   78.0893  221.5877 H   0  0  0  0  0  0  0  0  0  0  0  0
  139.6174   75.2261  222.8828 H   0  0  0  0  0  0  0  0  0  0  0  0
  141.0278   72.3049  225.9822 H   0  0  0  0  0  0  0  0  0  0  0  0
  139.1133   68.3642  223.6936 H   0  0  0  0  0  0  0  0  0  0  0  0
  1  2  2  0
  2  3  1  0
  3  4  1  0
  4  5  1  0
  5  6  2  0
  6  7  1  0
  7  8  2  0
  8  9  1  0
  9 10  1  0
 10 11  2  0
 10 12  1  0
 12 13  1  0
 13 14  1  0
 14 15  1  0
 15 16  1  0
 16 17  1  0
  9 18  2  0
  4 19  2  0
 19 20  1  0
 20 21  2  0
 21 22  1  0
 22 23  1  0
 22 24  2  0
 24 25  1  0
 24 26  1  0
 26 27  2  0
 27  2  1  0
 18  5  1  0
 27 20  1  0
 17 12  1  0
  3 28  1  0
  3 29  1  0
  6 30  1  0
  7 31  1  0
  8 32  1  0
 13 33  1  0
 13 34  1  0
 14 35  1  0
 14 36  1  0
 15 37  1  0
 16 38  1  0
 16 39  1  0
 17 40  1  0
 17 41  1  0
 18 42  1  0
 21 43  1  0
 26 44  1  0
M  END
>  <smiles>  (26) 
O=C1CC(c2cccc(C(=O)N3CCNCC3)c2)=Nc2cc(Cl)c(Cl)cc21

>  <score_type>  (26) 
oracle

>  <origin>  (26) 
autodockgpu

>  <m_score__min__energy>  (26) 
-8.2200000000000006

>  <m_primary>  (26) 
energy

>  <rmsd>  (26) 
6.323223099178606

>  <m_score__min__rmsd>  (26) 
6.323223099178606

>  <meeko>  (26) 
{"free_energy": -8.21, "intermolecular_energy": -8.8, "internal_energy": -0.55, "cluster_size": 25, "cluster_id": 1, "rank_in_cluster": 11}

>  <energy>  (26) 
-8.22

>  <cluster_rmsd>  (26) 
0.0

>  <cluster>  (26) 
2

$$$$

     RDKit          3D

 44 47  0  0  0  0  0  0  0  0999 V2000
  138.9500   69.5440  221.5070 O   0  0  0  0  0  0  0  0  0  0  0  0
  139.4940   70.5360  222.0920 C   0  0  0  0  0  0  0  0  0  0  0  0
  139.8050   71.7380  221.2830 C   0  0  0  0  0  0  0  0  0  0  0  0
  140.4290   72.7590  222.1570 C   0  0  0  0  0  0  0  0  0  0  0  0
  140.8120   74.0370  221.5190 C   0  0  0  0  0  0  0  0  0  0  0  0
  141.6820   74.0680  220.4370 C   0  0  0  0  0  0  0  0  0  0  0  0
  142.0300   75.2830  219.8510 C   0  0  0  0  0  0  0  0  0  0  0  0
  141.5230   76.4850  220.3260 C   0  0  0  0  0  0  0  0  0  0  0  0
  140.6620   76.4590  221.3970 C   0  0  0  0  0  0  0  0  0  0  0  0
  140.0640   77.6500  221.9860 C   0  0  0  0  0  0  0  0  0  0  0  0
  138.8590   77.6110  222.3440 O   0  0  0  0  0  0  0  0  0  0  0  0
  140.7670   78.8660  222.1820 N   0  0  0  0  0  0  0  0  0  0  0  0
  140.0410   79.9770  222.7820 C   0  0  0  0  0  0  0  0  0  0  0  0
  140.9970   81.1150  223.1260 C   0  0  0  0  0  0  0  0  0  0  0  0
  142.0860   80.4650  223.8710 N   0  0  0  0  0  0  0  0  0  0  0  0
  142.9320   79.8290  222.8820 C   0  0  0  0  0  0  0  0  0  0  0  0
  142.1410   79.0860  221.8350 C   0  0  0  0  0  0  0  0  0  0  0  0
  140.3340   75.2480  221.9580 C   0  0  0  0  0  0  0  0  0  0  0  0
  140.6600   72.6310  223.3970 N   0  0  0  0  0  0  0  0  0  0  0  0
  140.3580   71.4780  224.1600 C   0  0  0  0  0  0  0  0  0  0  0  0
  140.6340   71.3990  225.5090 C   0  0  0  0  0  0  0  0  0  0  0  0
  140.3140   70.2360  226.2160 C   0  0  0  0  0  0  0  0  0  0  0  0
  140.6800   70.1710  227.9280 Cl  0  0  0  0  0  0  0  0  0  0  0  0
  139.7230   69.1540  225.5870 C   0  0  0  0  0  0  0  0  0  0  0  0
  139.3200   67.6950  226.4670 Cl  0  0  0  0  0  0  0  0  0  0  0  0
  139.4620   69.2710  224.2370 C   0  0  0  0  0  0  0  0  0  0  0  0
  139.7720   70.4200  223.5150 C   0  0  0  0  0  0  0  0  0  0  0  0
  140.5012   71.4688  220.4750 H   0  0  0  0  0  0  0  0  0  0  0  0
  138.8802   72.1399  220.8435 H   0  0  0  0  0  0  0  0  0  0  0  0
  142.0979   73.1297  220.0412 H   0  0  0  0  0  0  0  0  0  0  0  0
  142.7204   75.2902  218.9947 H   0  0  0  0  0  0  0  0  0  0  0  0
  141.8045   77.4384  219.8550 H   0  0  0  0  0  0  0  0  0  0  0  0
  139.2848   80.3416  222.0712 H   0  0  0  0  0  0  0  0  0  0  0  0
  139.5556   79.6281  223.7054 H   0  0  0  0  0  0  0  0  0  0  0  0
  141.3808   81.5909  222.2115 H   0  0  0  0  0  0  0  0  0  0  0  0
  140.5089   81.9117  223.7065 H   0  0  0  0  0  0  0  0  0  0  0  0
  141.6420   79.7610  224.5190 H   0  0  0  0  0  0  0  0  0  0  0  0
  143.5356   80.6025  222.3847 H   0  0  0  0  0  0  0  0  0  0  0  0
  143.5637   79.0961  223.4052 H   0  0  0  0  0  0  0  0  0  0  0  0
  142.1722   79.6677  220.9019 H   0  0  0  0  0  0  0  0  0  0  0  0
  142.6043   78.0934  221.7344 H   0  0  0  0  0  0  0  0  0  0  0  0
  139.6437   75.2483  222.8144 H   0  0  0  0  0  0  0  0  0  0  0  0
  141.1042   72.2480  226.0268 H   0  0  0  0  0  0  0  0  0  0  0  0
  138.9921   68.4259  223.7126 H   0  0  0  0  0  0  0  0  0  0  0  0
  1  2  2  0
  2  3  1  0
  3  4  1  0
  4  5  1  0
  5  6  2  0
  6  7  1  0
  7  8  2  0
  8  9  1  0
  9 10  1  0
 10 11  2  0
 10 12  1  0
 12 13  1  0
 13 14  1  0
 14 15  1  0
 15 16  1  0
 16 17  1  0
  9 18  2  0
  4 19  2  0
 19 20  1  0
 20 21  2  0
 21 22  1  0
 22 23  1  0
 22 24  2  0
 24 25  1  0
 24 26  1  0
 26 27  2  0
 27  2  1  0
 18  5  1  0
 27 20  1  0
 17 12  1  0
  3 28  1  0
  3 29  1  0
  6 30  1  0
  7 31  1  0
  8 32  1  0
 13 33  1  0
 13 34  1  0
 14 35  1  0
 14 36  1  0
 15 37  1  0
 16 38  1  0
 16 39  1  0
 17 40  1  0
 17 41  1  0
 18 42  1  0
 21 43  1  0
 26 44  1  0
M  END
>  <smiles>  (27) 
O=C1CC(c2cccc(C(=O)N3CCNCC3)c2)=Nc2cc(Cl)c(Cl)cc21

>  <score_type>  (27) 
oracle

>  <origin>  (27) 
autodockgpu

>  <m_score__min__energy>  (27) 
-8.2200000000000006

>  <m_primary>  (27) 
energy

>  <rmsd>  (27) 
6.349916886590902

>  <m_score__min__rmsd>  (27) 
6.349916886590902

>  <meeko>  (27) 
{"free_energy": -8.21, "intermolecular_energy": -8.8, "internal_energy": -0.55, "cluster_size": 25, "cluster_id": 1, "rank_in_cluster": 12}

>  <energy>  (27) 
-8.22

>  <cluster_rmsd>  (27) 
0.16

>  <cluster>  (27) 
2

$$$$

     RDKit          3D

 44 47  0  0  0  0  0  0  0  0999 V2000
  139.0350   69.4520  221.4950 O   0  0  0  0  0  0  0  0  0  0  0  0
  139.5200   70.4810  222.0690 C   0  0  0  0  0  0  0  0  0  0  0  0
  139.7610   71.6910  221.2480 C   0  0  0  0  0  0  0  0  0  0  0  0
  140.3250   72.7550  222.1100 C   0  0  0  0  0  0  0  0  0  0  0  0
  140.6330   74.0460  221.4590 C   0  0  0  0  0  0  0  0  0  0  0  0
  141.3800   74.1020  220.2900 C   0  0  0  0  0  0  0  0  0  0  0  0
  141.6600   75.3290  219.6930 C   0  0  0  0  0  0  0  0  0  0  0  0
  141.2030   76.5200  220.2420 C   0  0  0  0  0  0  0  0  0  0  0  0
  140.4630   76.4700  221.3990 C   0  0  0  0  0  0  0  0  0  0  0  0
  139.9280   77.6460  222.0710 C   0  0  0  0  0  0  0  0  0  0  0  0
  138.7630   77.5990  222.5430 O   0  0  0  0  0  0  0  0  0  0  0  0
  140.6510   78.8570  222.2280 N   0  0  0  0  0  0  0  0  0  0  0  0
  139.9900   79.9540  222.9220 C   0  0  0  0  0  0  0  0  0  0  0  0
  140.9780   81.0820  223.2000 C   0  0  0  0  0  0  0  0  0  0  0  0
  142.1320   80.4130  223.8200 N   0  0  0  0  0  0  0  0  0  0  0  0
  142.8760   79.8000  222.7400 C   0  0  0  0  0  0  0  0  0  0  0  0
  141.9860   79.0830  221.7550 C   0  0  0  0  0  0  0  0  0  0  0  0
  140.2010   75.2460  221.9690 C   0  0  0  0  0  0  0  0  0  0  0  0
  140.5630   72.6530  223.3510 N   0  0  0  0  0  0  0  0  0  0  0  0
  140.3290   71.4930  224.1260 C   0  0  0  0  0  0  0  0  0  0  0  0
  140.6110   71.4440  225.4760 C   0  0  0  0  0  0  0  0  0  0  0  0
  140.3590   70.2720  226.1950 C   0  0  0  0  0  0  0  0  0  0  0  0
  140.7290   70.2460  227.9070 Cl  0  0  0  0  0  0  0  0  0  0  0  0
  139.8310   69.1510  225.5780 C   0  0  0  0  0  0  0  0  0  0  0  0
  139.5140   67.6800  226.4730 Cl  0  0  0  0  0  0  0  0  0  0  0  0
  139.5630   69.2380  224.2270 C   0  0  0  0  0  0  0  0  0  0  0  0
  139.8060   70.3960  223.4930 C   0  0  0  0  0  0  0  0  0  0  0  0
  140.4713   71.4543  220.4421 H   0  0  0  0  0  0  0  0  0  0  0  0
  138.8141   72.0343  220.8058 H   0  0  0  0  0  0  0  0  0  0  0  0
  141.7524   73.1732  219.8332 H   0  0  0  0  0  0  0  0  0  0  0  0
  142.2550   75.3551  218.7682 H   0  0  0  0  0  0  0  0  0  0  0  0
  141.4286   77.4831  219.7609 H   0  0  0  0  0  0  0  0  0  0  0  0
  139.1702   80.3367  222.2963 H   0  0  0  0  0  0  0  0  0  0  0  0
  139.5948   79.5830  223.8792 H   0  0  0  0  0  0  0  0  0  0  0  0
  141.2731   81.5802  222.2648 H   0  0  0  0  0  0  0  0  0  0  0  0
  140.5507   81.8643  223.8446 H   0  0  0  0  0  0  0  0  0  0  0  0
  141.7500   79.6940  224.4900 H   0  0  0  0  0  0  0  0  0  0  0  0
  143.4322   80.5845  222.2059 H   0  0  0  0  0  0  0  0  0  0  0  0
  143.5514   79.0533  223.1830 H   0  0  0  0  0  0  0  0  0  0  0  0
  141.9296   79.6869  220.8373 H   0  0  0  0  0  0  0  0  0  0  0  0
  142.4341   78.0928  221.5855 H   0  0  0  0  0  0  0  0  0  0  0  0
  139.6064   75.2268  222.8942 H   0  0  0  0  0  0  0  0  0  0  0  0
  141.0324   72.3238  225.9843 H   0  0  0  0  0  0  0  0  0  0  0  0
  139.1426   68.3617  223.7119 H   0  0  0  0  0  0  0  0  0  0  0  0
  1  2  2  0
  2  3  1  0
  3  4  1  0
  4  5  1  0
  5  6  2  0
  6  7  1  0
  7  8  2  0
  8  9  1  0
  9 10  1  0
 10 11  2  0
 10 12  1  0
 12 13  1  0
 13 14  1  0
 14 15  1  0
 15 16  1  0
 16 17  1  0
  9 18  2  0
  4 19  2  0
 19 20  1  0
 20 21  2  0
 21 22  1  0
 22 23  1  0
 22 24  2  0
 24 25  1  0
 24 26  1  0
 26 27  2  0
 27  2  1  0
 18  5  1  0
 27 20  1  0
 17 12  1  0
  3 28  1  0
  3 29  1  0
  6 30  1  0
  7 31  1  0
  8 32  1  0
 13 33  1  0
 13 34  1  0
 14 35  1  0
 14 36  1  0
 15 37  1  0
 16 38  1  0
 16 39  1  0
 17 40  1  0
 17 41  1  0
 18 42  1  0
 21 43  1  0
 26 44  1  0
M  END
>  <smiles>  (28) 
O=C1CC(c2cccc(C(=O)N3CCNCC3)c2)=Nc2cc(Cl)c(Cl)cc21

>  <score_type>  (28) 
oracle

>  <origin>  (28) 
autodockgpu

>  <m_score__min__energy>  (28) 
-8.2200000000000006

>  <m_primary>  (28) 
energy

>  <rmsd>  (28) 
6.317149628061386

>  <m_score__min__rmsd>  (28) 
6.317149628061386

>  <meeko>  (28) 
{"free_energy": -8.2, "intermolecular_energy": -8.8, "internal_energy": -0.56, "cluster_size": 25, "cluster_id": 1, "rank_in_cluster": 14}

>  <energy>  (28) 
-8.21

>  <cluster_rmsd>  (28) 
0.13

>  <cluster>  (28) 
2

$$$$

     RDKit          3D

 44 47  0  0  0  0  0  0  0  0999 V2000
  138.9500   69.4050  221.5720 O   0  0  0  0  0  0  0  0  0  0  0  0
  139.5080   70.4110  222.1180 C   0  0  0  0  0  0  0  0  0  0  0  0
  139.8420   71.5740  221.2610 C   0  0  0  0  0  0  0  0  0  0  0  0
  140.4800   72.6200  222.0940 C   0  0  0  0  0  0  0  0  0  0  0  0
  140.8860   73.8640  221.4060 C   0  0  0  0  0  0  0  0  0  0  0  0
  141.9980   73.8950  220.5740 C   0  0  0  0  0  0  0  0  0  0  0  0
  142.3630   75.0780  219.9350 C   0  0  0  0  0  0  0  0  0  0  0  0
  141.6350   76.2470  220.1090 C   0  0  0  0  0  0  0  0  0  0  0  0
  140.5340   76.2210  220.9320 C   0  0  0  0  0  0  0  0  0  0  0  0
  139.6900   77.3790  221.1940 C   0  0  0  0  0  0  0  0  0  0  0  0
  138.5040   77.3730  220.7770 O   0  0  0  0  0  0  0  0  0  0  0  0
  140.1310   78.5270  221.9010 N   0  0  0  0  0  0  0  0  0  0  0  0
  139.1780   79.6120  222.0890 C   0  0  0  0  0  0  0  0  0  0  0  0
  139.7380   80.6530  223.0530 C   0  0  0  0  0  0  0  0  0  0  0  0
  140.1950   79.8710  224.2120 N   0  0  0  0  0  0  0  0  0  0  0  0
  141.4660   79.2890  223.8350 C   0  0  0  0  0  0  0  0  0  0  0  0
  141.4460   78.7020  222.4460 C   0  0  0  0  0  0  0  0  0  0  0  0
  140.1940   75.0420  221.5510 C   0  0  0  0  0  0  0  0  0  0  0  0
  140.7040   72.5390  223.3390 N   0  0  0  0  0  0  0  0  0  0  0  0
  140.3810   71.4240  224.1480 C   0  0  0  0  0  0  0  0  0  0  0  0
  140.6520   71.3960  225.5010 C   0  0  0  0  0  0  0  0  0  0  0  0
  140.3100   70.2690  226.2530 C   0  0  0  0  0  0  0  0  0  0  0  0
  140.6690   70.2690  227.9680 Cl  0  0  0  0  0  0  0  0  0  0  0  0
  139.7030   69.1720  225.6680 C   0  0  0  0  0  0  0  0  0  0  0  0
  139.2730   67.7570  226.6050 Cl  0  0  0  0  0  0  0  0  0  0  0  0
  139.4490   69.2370  224.3130 C   0  0  0  0  0  0  0  0  0  0  0  0
  139.7800   70.3500  223.5450 C   0  0  0  0  0  0  0  0  0  0  0  0
  140.5363   71.2601  220.4676 H   0  0  0  0  0  0  0  0  0  0  0  0
  138.9253   71.9726  220.8019 H   0  0  0  0  0  0  0  0  0  0  0  0
  142.5924   72.9824  220.4192 H   0  0  0  0  0  0  0  0  0  0  0  0
  143.2461   75.0858  219.2792 H   0  0  0  0  0  0  0  0  0  0  0  0
  141.9328   77.1750  219.5989 H   0  0  0  0  0  0  0  0  0  0  0  0
  138.9760   80.0888  221.1185 H   0  0  0  0  0  0  0  0  0  0  0  0
  138.2486   79.2006  222.5098 H   0  0  0  0  0  0  0  0  0  0  0  0
  140.5776   81.1961  222.5945 H   0  0  0  0  0  0  0  0  0  0  0  0
  138.9922   81.4132  223.3283 H   0  0  0  0  0  0  0  0  0  0  0  0
  139.4650   79.1320  224.3940 H   0  0  0  0  0  0  0  0  0  0  0  0
  142.2378   80.0718  223.8756 H   0  0  0  0  0  0  0  0  0  0  0  0
  141.6799   78.4714  224.5391 H   0  0  0  0  0  0  0  0  0  0  0  0
  142.0091   79.3723  221.7800 H   0  0  0  0  0  0  0  0  0  0  0  0
  141.8938   77.7000  222.5196 H   0  0  0  0  0  0  0  0  0  0  0  0
  139.3098   75.0415  222.2054 H   0  0  0  0  0  0  0  0  0  0  0  0
  141.1352   72.2573  225.9854 H   0  0  0  0  0  0  0  0  0  0  0  0
  138.9676   68.3783  223.8221 H   0  0  0  0  0  0  0  0  0  0  0  0
  1  2  2  0
  2  3  1  0
  3  4  1  0
  4  5  1  0
  5  6  2  0
  6  7  1  0
  7  8  2  0
  8  9  1  0
  9 10  1  0
 10 11  2  0
 10 12  1  0
 12 13  1  0
 13 14  1  0
 14 15  1  0
 15 16  1  0
 16 17  1  0
  9 18  2  0
  4 19  2  0
 19 20  1  0
 20 21  2  0
 21 22  1  0
 22 23  1  0
 22 24  2  0
 24 25  1  0
 24 26  1  0
 26 27  2  0
 27  2  1  0
 18  5  1  0
 27 20  1  0
 17 12  1  0
  3 28  1  0
  3 29  1  0
  6 30  1  0
  7 31  1  0
  8 32  1  0
 13 33  1  0
 13 34  1  0
 14 35  1  0
 14 36  1  0
 15 37  1  0
 16 38  1  0
 16 39  1  0
 17 40  1  0
 17 41  1  0
 18 42  1  0
 21 43  1  0
 26 44  1  0
M  END
>  <smiles>  (29) 
O=C1CC(c2cccc(C(=O)N3CCNCC3)c2)=Nc2cc(Cl)c(Cl)cc21

>  <score_type>  (29) 
oracle

>  <origin>  (29) 
autodockgpu

>  <m_score__min__energy>  (29) 
-8.2200000000000006

>  <m_primary>  (29) 
energy

>  <rmsd>  (29) 
6.105566813501646

>  <m_score__min__rmsd>  (29) 
6.105566813501646

>  <meeko>  (29) 
{"free_energy": -7.56, "intermolecular_energy": -8.16, "internal_energy": -0.64, "cluster_size": 25, "cluster_id": 1, "rank_in_cluster": 25}

>  <energy>  (29) 
-8.19

>  <cluster_rmsd>  (29) 
0.14

>  <cluster>  (29) 
2

$$$$

     RDKit          3D

 44 47  0  0  0  0  0  0  0  0999 V2000
  138.5770   69.5780  221.7560 O   0  0  0  0  0  0  0  0  0  0  0  0
  139.2150   70.5500  222.2770 C   0  0  0  0  0  0  0  0  0  0  0  0
  139.4800   71.7420  221.4360 C   0  0  0  0  0  0  0  0  0  0  0  0
  140.2290   72.7390  222.2350 C   0  0  0  0  0  0  0  0  0  0  0  0
  140.5860   74.0040  221.5570 C   0  0  0  0  0  0  0  0  0  0  0  0
  140.0540   75.2180  221.9730 C   0  0  0  0  0  0  0  0  0  0  0  0
  140.4030   76.3980  221.3200 C   0  0  0  0  0  0  0  0  0  0  0  0
  141.2820   76.3950  220.2450 C   0  0  0  0  0  0  0  0  0  0  0  0
  141.8110   75.1960  219.8300 C   0  0  0  0  0  0  0  0  0  0  0  0
  142.7420   75.0620  218.7180 C   0  0  0  0  0  0  0  0  0  0  0  0
  142.7480   75.9440  217.8210 O   0  0  0  0  0  0  0  0  0  0  0  0
  143.6530   73.9830  218.5820 N   0  0  0  0  0  0  0  0  0  0  0  0
  144.5260   73.9780  217.4160 C   0  0  0  0  0  0  0  0  0  0  0  0
  145.5820   72.8860  217.5460 C   0  0  0  0  0  0  0  0  0  0  0  0
  146.1530   73.0860  218.8870 N   0  0  0  0  0  0  0  0  0  0  0  0
  145.2060   72.5160  219.8220 C   0  0  0  0  0  0  0  0  0  0  0  0
  143.7810   72.8950  219.5080 C   0  0  0  0  0  0  0  0  0  0  0  0
  141.4510   74.0460  220.4910 C   0  0  0  0  0  0  0  0  0  0  0  0
  140.5860   72.6020  223.4440 N   0  0  0  0  0  0  0  0  0  0  0  0
  140.3270   71.4600  224.2380 C   0  0  0  0  0  0  0  0  0  0  0  0
  140.7430   71.3700  225.5510 C   0  0  0  0  0  0  0  0  0  0  0  0
  140.4600   70.2180  226.2900 C   0  0  0  0  0  0  0  0  0  0  0  0
  141.0040   70.1390  227.9540 Cl  0  0  0  0  0  0  0  0  0  0  0  0
  139.7680   69.1580  225.7320 C   0  0  0  0  0  0  0  0  0  0  0  0
  139.4110   67.7130  226.6530 Cl  0  0  0  0  0  0  0  0  0  0  0  0
  139.3680   69.2850  224.4170 C   0  0  0  0  0  0  0  0  0  0  0  0
  139.6390   70.4230  223.6620 C   0  0  0  0  0  0  0  0  0  0  0  0
  140.0759   71.4494  220.5589 H   0  0  0  0  0  0  0  0  0  0  0  0
  138.5281   72.1767  221.0971 H   0  0  0  0  0  0  0  0  0  0  0  0
  139.3544   75.2476  222.8214 H   0  0  0  0  0  0  0  0  0  0  0  0
  139.9738   77.3510  221.6627 H   0  0  0  0  0  0  0  0  0  0  0  0
  141.5495   77.3327  219.7360 H   0  0  0  0  0  0  0  0  0  0  0  0
  143.9242   73.7944  216.5137 H   0  0  0  0  0  0  0  0  0  0  0  0
  145.0292   74.9535  217.3434 H   0  0  0  0  0  0  0  0  0  0  0  0
  145.1236   71.8895  217.4629 H   0  0  0  0  0  0  0  0  0  0  0  0
  146.3431   72.9427  216.7538 H   0  0  0  0  0  0  0  0  0  0  0  0
  146.2620   74.1260  219.0250 H   0  0  0  0  0  0  0  0  0  0  0  0
  145.2945   71.4201  219.7889 H   0  0  0  0  0  0  0  0  0  0  0  0
  145.4438   72.9124  220.8201 H   0  0  0  0  0  0  0  0  0  0  0  0
  143.2765   72.0163  219.0798 H   0  0  0  0  0  0  0  0  0  0  0  0
  143.3268   73.2285  220.4527 H   0  0  0  0  0  0  0  0  0  0  0  0
  141.8843   73.0966  220.1433 H   0  0  0  0  0  0  0  0  0  0  0  0
  141.2949   72.2014  226.0138 H   0  0  0  0  0  0  0  0  0  0  0  0
  138.8152   68.4573  223.9487 H   0  0  0  0  0  0  0  0  0  0  0  0
  1  2  2  0
  2  3  1  0
  3  4  1  0
  4  5  1  0
  5  6  2  0
  6  7  1  0
  7  8  2  0
  8  9  1  0
  9 10  1  0
 10 11  2  0
 10 12  1  0
 12 13  1  0
 13 14  1  0
 14 15  1  0
 15 16  1  0
 16 17  1  0
  9 18  2  0
  4 19  2  0
 19 20  1  0
 20 21  2  0
 21 22  1  0
 22 23  1  0
 22 24  2  0
 24 25  1  0
 24 26  1  0
 26 27  2  0
 27  2  1  0
 18  5  1  0
 27 20  1  0
 17 12  1  0
  3 28  1  0
  3 29  1  0
  6 30  1  0
  7 31  1  0
  8 32  1  0
 13 33  1  0
 13 34  1  0
 14 35  1  0
 14 36  1  0
 15 37  1  0
 16 38  1  0
 16 39  1  0
 17 40  1  0
 17 41  1  0
 18 42  1  0
 21 43  1  0
 26 44  1  0
M  END
>  <smiles>  (30) 
O=C1CC(c2cccc(C(=O)N3CCNCC3)c2)=Nc2cc(Cl)c(Cl)cc21

>  <score_type>  (30) 
oracle

>  <origin>  (30) 
autodockgpu

>  <m_score__min__energy>  (30) 
-8.2200000000000006

>  <m_primary>  (30) 
energy

>  <rmsd>  (30) 
6.152249376638496

>  <m_score__min__rmsd>  (30) 
6.152249376638496

>  <meeko>  (30) 
{"free_energy": -8.22, "intermolecular_energy": -8.81, "internal_energy": -0.3, "cluster_size": 9, "cluster_id": 2, "rank_in_cluster": 1}

>  <energy>  (30) 
-8.17

>  <cluster_rmsd>  (30) 
0.2

>  <cluster>  (30) 
2

$$$$

     RDKit          3D

 44 47  0  0  0  0  0  0  0  0999 V2000
  138.9390   69.4890  221.5640 O   0  0  0  0  0  0  0  0  0  0  0  0
  139.4700   70.5020  222.1250 C   0  0  0  0  0  0  0  0  0  0  0  0
  139.7170   71.7080  221.2980 C   0  0  0  0  0  0  0  0  0  0  0  0
  140.3360   72.7540  222.1440 C   0  0  0  0  0  0  0  0  0  0  0  0
  140.6570   74.0390  221.4860 C   0  0  0  0  0  0  0  0  0  0  0  0
  141.4290   74.0830  220.3330 C   0  0  0  0  0  0  0  0  0  0  0  0
  141.7210   75.3040  219.7290 C   0  0  0  0  0  0  0  0  0  0  0  0
  141.2520   76.5000  220.2550 C   0  0  0  0  0  0  0  0  0  0  0  0
  140.4870   76.4610  221.3970 C   0  0  0  0  0  0  0  0  0  0  0  0
  139.9380   77.6440  222.0450 C   0  0  0  0  0  0  0  0  0  0  0  0
  138.7570   77.6080  222.4760 O   0  0  0  0  0  0  0  0  0  0  0  0
  140.6630   78.8510  222.2220 N   0  0  0  0  0  0  0  0  0  0  0  0
  139.9850   79.9550  222.8870 C   0  0  0  0  0  0  0  0  0  0  0  0
  140.9710   81.0780  223.1940 C   0  0  0  0  0  0  0  0  0  0  0  0
  142.0990   80.4050  223.8560 N   0  0  0  0  0  0  0  0  0  0  0  0
  142.8760   79.7820  222.8050 C   0  0  0  0  0  0  0  0  0  0  0  0
  142.0150   79.0660  221.7940 C   0  0  0  0  0  0  0  0  0  0  0  0
  140.2140   75.2440  221.9740 C   0  0  0  0  0  0  0  0  0  0  0  0
  140.6110   72.6420  223.3760 N   0  0  0  0  0  0  0  0  0  0  0  0
  140.3720   71.4870  224.1560 C   0  0  0  0  0  0  0  0  0  0  0  0
  140.6950   71.4260  225.4970 C   0  0  0  0  0  0  0  0  0  0  0  0
  140.4360   70.2590  226.2200 C   0  0  0  0  0  0  0  0  0  0  0  0
  140.8590   70.2190  227.9200 Cl  0  0  0  0  0  0  0  0  0  0  0  0
  139.8580   69.1540  225.6190 C   0  0  0  0  0  0  0  0  0  0  0  0
  139.5320   67.6890  226.5210 Cl  0  0  0  0  0  0  0  0  0  0  0  0
  139.5500   69.2530  224.2770 C   0  0  0  0  0  0  0  0  0  0  0  0
  139.7990   70.4050  223.5380 C   0  0  0  0  0  0  0  0  0  0  0  0
  140.3949   71.4547  220.4696 H   0  0  0  0  0  0  0  0  0  0  0  0
  138.7662   72.0774  220.8862 H   0  0  0  0  0  0  0  0  0  0  0  0
  141.8118   73.1497  219.8944 H   0  0  0  0  0  0  0  0  0  0  0  0
  142.3356   75.3207  218.8169 H   0  0  0  0  0  0  0  0  0  0  0  0
  141.4872   77.4582  219.7688 H   0  0  0  0  0  0  0  0  0  0  0  0
  139.1902   80.3399  222.2311 H   0  0  0  0  0  0  0  0  0  0  0  0
  139.5534   79.5915  223.8312 H   0  0  0  0  0  0  0  0  0  0  0  0
  141.3011   81.5701  222.2672 H   0  0  0  0  0  0  0  0  0  0  0  0
  140.5270   81.8656  223.8205 H   0  0  0  0  0  0  0  0  0  0  0  0
  141.6890   79.6910  224.5160 H   0  0  0  0  0  0  0  0  0  0  0  0
  143.4551   80.5602  222.2864 H   0  0  0  0  0  0  0  0  0  0  0  0
  143.5315   79.0335  223.2741 H   0  0  0  0  0  0  0  0  0  0  0  0
  141.9940   79.6657  220.8721 H   0  0  0  0  0  0  0  0  0  0  0  0
  142.4618   78.0719  221.6450 H   0  0  0  0  0  0  0  0  0  0  0  0
  139.6003   75.2343  222.8868 H   0  0  0  0  0  0  0  0  0  0  0  0
  141.1545   72.2930  225.9942 H   0  0  0  0  0  0  0  0  0  0  0  0
  139.0909   68.3894  223.7736 H   0  0  0  0  0  0  0  0  0  0  0  0
  1  2  2  0
  2  3  1  0
  3  4  1  0
  4  5  1  0
  5  6  2  0
  6  7  1  0
  7  8  2  0
  8  9  1  0
  9 10  1  0
 10 11  2  0
 10 12  1  0
 12 13  1  0
 13 14  1  0
 14 15  1  0
 15 16  1  0
 16 17  1  0
  9 18  2  0
  4 19  2  0
 19 20  1  0
 20 21  2  0
 21 22  1  0
 22 23  1  0
 22 24  2  0
 24 25  1  0
 24 26  1  0
 26 27  2  0
 27  2  1  0
 18  5  1  0
 27 20  1  0
 17 12  1  0
  3 28  1  0
  3 29  1  0
  6 30  1  0
  7 31  1  0
  8 32  1  0
 13 33  1  0
 13 34  1  0
 14 35  1  0
 14 36  1  0
 15 37  1  0
 16 38  1  0
 16 39  1  0
 17 40  1  0
 17 41  1  0
 18 42  1  0
 21 43  1  0
 26 44  1  0
M  END
>  <smiles>  (31) 
O=C1CC(c2cccc(C(=O)N3CCNCC3)c2)=Nc2cc(Cl)c(Cl)cc21

>  <score_type>  (31) 
oracle

>  <origin>  (31) 
autodockgpu

>  <m_score__min__energy>  (31) 
-8.2200000000000006

>  <m_primary>  (31) 
energy

>  <rmsd>  (31) 
6.3127098657398095

>  <m_score__min__rmsd>  (31) 
6.3127098657398095

>  <meeko>  (31) 
{"free_energy": -8.2, "intermolecular_energy": -8.8, "internal_energy": -0.56, "cluster_size": 25, "cluster_id": 1, "rank_in_cluster": 15}

>  <energy>  (31) 
-8.05

>  <cluster_rmsd>  (31) 
0.22

>  <cluster>  (31) 
2

$$$$

     RDKit          3D

 44 47  0  0  0  0  0  0  0  0999 V2000
  141.7890   75.1620  218.4730 O   0  0  0  0  0  0  0  0  0  0  0  0
  141.3800   75.0390  219.6730 C   0  0  0  0  0  0  0  0  0  0  0  0
  141.0510   73.6790  220.1620 C   0  0  0  0  0  0  0  0  0  0  0  0
  140.5980   73.7700  221.5700 C   0  0  0  0  0  0  0  0  0  0  0  0
  140.2230   72.5020  222.2320 C   0  0  0  0  0  0  0  0  0  0  0  0
  139.5750   71.4910  221.5340 C   0  0  0  0  0  0  0  0  0  0  0  0
  139.2300   70.3040  222.1770 C   0  0  0  0  0  0  0  0  0  0  0  0
  139.5220   70.0980  223.5180 C   0  0  0  0  0  0  0  0  0  0  0  0
  140.1640   71.0950  224.2120 C   0  0  0  0  0  0  0  0  0  0  0  0
  140.5250   71.0000  225.6210 C   0  0  0  0  0  0  0  0  0  0  0  0
  140.7210   72.0600  226.2700 O   0  0  0  0  0  0  0  0  0  0  0  0
  140.6690   69.7710  226.3130 N   0  0  0  0  0  0  0  0  0  0  0  0
  141.0350   69.8270  227.7220 C   0  0  0  0  0  0  0  0  0  0  0  0
  140.9240   68.4450  228.3570 C   0  0  0  0  0  0  0  0  0  0  0  0
  139.5880   67.9690  227.9660 N   0  0  0  0  0  0  0  0  0  0  0  0
  139.7030   67.5150  226.5960 C   0  0  0  0  0  0  0  0  0  0  0  0
  140.4820   68.4730  225.7300 C   0  0  0  0  0  0  0  0  0  0  0  0
  140.4930   72.2580  223.5560 C   0  0  0  0  0  0  0  0  0  0  0  0
  140.5050   74.8350  222.2500 N   0  0  0  0  0  0  0  0  0  0  0  0
  140.8220   76.1290  221.7730 C   0  0  0  0  0  0  0  0  0  0  0  0
  140.7000   77.2530  222.5650 C   0  0  0  0  0  0  0  0  0  0  0  0
  141.0270   78.5070  222.0420 C   0  0  0  0  0  0  0  0  0  0  0  0
  140.8600   79.9120  223.0760 Cl  0  0  0  0  0  0  0  0  0  0  0  0
  141.4730   78.6490  220.7400 C   0  0  0  0  0  0  0  0  0  0  0  0
  141.8840   80.2180  220.0800 Cl  0  0  0  0  0  0  0  0  0  0  0  0
  141.5820   77.5020  219.9800 C   0  0  0  0  0  0  0  0  0  0  0  0
  141.2620   76.2430  220.4800 C   0  0  0  0  0  0  0  0  0  0  0  0
  140.2496   73.2484  219.5437 H   0  0  0  0  0  0  0  0  0  0  0  0
  141.9408   73.0354  220.0983 H   0  0  0  0  0  0  0  0  0  0  0  0
  139.3333   71.6279  220.4697 H   0  0  0  0  0  0  0  0  0  0  0  0
  138.7156   69.5140  221.6101 H   0  0  0  0  0  0  0  0  0  0  0  0
  139.2453   69.1564  224.0148 H   0  0  0  0  0  0  0  0  0  0  0  0
  142.0710   70.1853  227.8131 H   0  0  0  0  0  0  0  0  0  0  0  0
  140.3498   70.5135  228.2409 H   0  0  0  0  0  0  0  0  0  0  0  0
  141.7050   67.7745  227.9691 H   0  0  0  0  0  0  0  0  0  0  0  0
  141.0562   68.4733  229.4487 H   0  0  0  0  0  0  0  0  0  0  0  0
  138.9290   68.7870  228.0540 H   0  0  0  0  0  0  0  0  0  0  0  0
  140.2129   66.5403  226.5897 H   0  0  0  0  0  0  0  0  0  0  0  0
  138.6862   67.4442  226.1825 H   0  0  0  0  0  0  0  0  0  0  0  0
  141.4725   68.0357  225.5357 H   0  0  0  0  0  0  0  0  0  0  0  0
  139.8945   68.6196  224.8116 H   0  0  0  0  0  0  0  0  0  0  0  0
  141.0060   73.0442  224.1294 H   0  0  0  0  0  0  0  0  0  0  0  0
  140.3471   77.1620  223.6029 H   0  0  0  0  0  0  0  0  0  0  0  0
  141.9346   77.5859  218.9414 H   0  0  0  0  0  0  0  0  0  0  0  0
  1  2  2  0
  2  3  1  0
  3  4  1  0
  4  5  1  0
  5  6  2  0
  6  7  1  0
  7  8  2  0
  8  9  1  0
  9 10  1  0
 10 11  2  0
 10 12  1  0
 12 13  1  0
 13 14  1  0
 14 15  1  0
 15 16  1  0
 16 17  1  0
  9 18  2  0
  4 19  2  0
 19 20  1  0
 20 21  2  0
 21 22  1  0
 22 23  1  0
 22 24  2  0
 24 25  1  0
 24 26  1  0
 26 27  2  0
 27  2  1  0
 18  5  1  0
 27 20  1  0
 17 12  1  0
  3 28  1  0
  3 29  1  0
  6 30  1  0
  7 31  1  0
  8 32  1  0
 13 33  1  0
 13 34  1  0
 14 35  1  0
 14 36  1  0
 15 37  1  0
 16 38  1  0
 16 39  1  0
 17 40  1  0
 17 41  1  0
 18 42  1  0
 21 43  1  0
 26 44  1  0
M  END
>  <smiles>  (32) 
O=C1CC(c2cccc(C(=O)N3CCNCC3)c2)=Nc2cc(Cl)c(Cl)cc21

>  <score_type>  (32) 
oracle

>  <origin>  (32) 
autodockgpu

>  <m_score__min__energy>  (32) 
-8.2200000000000006

>  <m_primary>  (32) 
energy

>  <rmsd>  (32) 
8.586854757250366

>  <m_score__min__rmsd>  (32) 
8.586854757250366

>  <meeko>  (32) 
{"free_energy": -8.0, "intermolecular_energy": -8.6, "internal_energy": -0.43, "cluster_size": 8, "cluster_id": 3, "rank_in_cluster": 2}

>  <energy>  (32) 
-8.02

>  <cluster_rmsd>  (32) 
0.24

>  <cluster>  (32) 
2

$$$$

     RDKit          3D

 44 47  0  0  0  0  0  0  0  0999 V2000
  138.9010   69.5360  221.5500 O   0  0  0  0  0  0  0  0  0  0  0  0
  139.4490   70.5340  222.1220 C   0  0  0  0  0  0  0  0  0  0  0  0
  139.7320   71.7370  221.3040 C   0  0  0  0  0  0  0  0  0  0  0  0
  140.3650   72.7660  222.1620 C   0  0  0  0  0  0  0  0  0  0  0  0
  140.7220   74.0450  221.5140 C   0  0  0  0  0  0  0  0  0  0  0  0
  141.5440   74.0800  220.3940 C   0  0  0  0  0  0  0  0  0  0  0  0
  141.8690   75.2970  219.7990 C   0  0  0  0  0  0  0  0  0  0  0  0
  141.3860   76.4980  220.3010 C   0  0  0  0  0  0  0  0  0  0  0  0
  140.5730   76.4690  221.4090 C   0  0  0  0  0  0  0  0  0  0  0  0
  140.0050   77.6580  222.0290 C   0  0  0  0  0  0  0  0  0  0  0  0
  138.8130   77.6230  222.4310 O   0  0  0  0  0  0  0  0  0  0  0  0
  140.7230   78.8680  222.2110 N   0  0  0  0  0  0  0  0  0  0  0  0
  140.0260   79.9780  222.8460 C   0  0  0  0  0  0  0  0  0  0  0  0
  141.0010   81.1070  223.1650 C   0  0  0  0  0  0  0  0  0  0  0  0
  142.1130   80.4440  223.8640 N   0  0  0  0  0  0  0  0  0  0  0  0
  142.9180   79.8110  222.8400 C   0  0  0  0  0  0  0  0  0  0  0  0
  142.0850   79.0820  221.8150 C   0  0  0  0  0  0  0  0  0  0  0  0
  140.2670   75.2550  221.9780 C   0  0  0  0  0  0  0  0  0  0  0  0
  140.6240   72.6420  223.3970 N   0  0  0  0  0  0  0  0  0  0  0  0
  140.3490   71.4880  224.1680 C   0  0  0  0  0  0  0  0  0  0  0  0
  140.6550   71.4140  225.5120 C   0  0  0  0  0  0  0  0  0  0  0  0
  140.3610   70.2500  226.2270 C   0  0  0  0  0  0  0  0  0  0  0  0
  140.7640   70.1920  227.9310 Cl  0  0  0  0  0  0  0  0  0  0  0  0
  139.7660   69.1610  225.6130 C   0  0  0  0  0  0  0  0  0  0  0  0
  139.3960   67.7000  226.5040 Cl  0  0  0  0  0  0  0  0  0  0  0  0
  139.4750   69.2730  224.2690 C   0  0  0  0  0  0  0  0  0  0  0  0
  139.7590   70.4230  223.5380 C   0  0  0  0  0  0  0  0  0  0  0  0
  140.4134   71.4721  220.4821 H   0  0  0  0  0  0  0  0  0  0  0  0
  138.7943   72.1294  220.8835 H   0  0  0  0  0  0  0  0  0  0  0  0
  141.9397   73.1428  219.9755 H   0  0  0  0  0  0  0  0  0  0  0  0
  142.5215   75.3066  218.9135 H   0  0  0  0  0  0  0  0  0  0  0  0
  141.6485   77.4528  219.8220 H   0  0  0  0  0  0  0  0  0  0  0  0
  139.2472   80.3533  222.1659 H   0  0  0  0  0  0  0  0  0  0  0  0
  139.5717   79.6241  223.7832 H   0  0  0  0  0  0  0  0  0  0  0  0
  141.3540   81.5890  222.2414 H   0  0  0  0  0  0  0  0  0  0  0  0
  140.5393   81.9010  223.7703 H   0  0  0  0  0  0  0  0  0  0  0  0
  141.6880   79.7370  224.5210 H   0  0  0  0  0  0  0  0  0  0  0  0
  143.5088   80.5848  222.3280 H   0  0  0  0  0  0  0  0  0  0  0  0
  143.5624   79.0690  223.3342 H   0  0  0  0  0  0  0  0  0  0  0  0
  142.0860   79.6718  220.8865 H   0  0  0  0  0  0  0  0  0  0  0  0
  142.5379   78.0877  221.6877 H   0  0  0  0  0  0  0  0  0  0  0  0
  139.6145   75.2529  222.8636 H   0  0  0  0  0  0  0  0  0  0  0  0
  141.1285   72.2681  226.0182 H   0  0  0  0  0  0  0  0  0  0  0  0
  139.0014   68.4227  223.7566 H   0  0  0  0  0  0  0  0  0  0  0  0
  1  2  2  0
  2  3  1  0
  3  4  1  0
  4  5  1  0
  5  6  2  0
  6  7  1  0
  7  8  2  0
  8  9  1  0
  9 10  1  0
 10 11  2  0
 10 12  1  0
 12 13  1  0
 13 14  1  0
 14 15  1  0
 15 16  1  0
 16 17  1  0
  9 18  2  0
  4 19  2  0
 19 20  1  0
 20 21  2  0
 21 22  1  0
 22 23  1  0
 22 24  2  0
 24 25  1  0
 24 26  1  0
 26 27  2  0
 27  2  1  0
 18  5  1  0
 27 20  1  0
 17 12  1  0
  3 28  1  0
  3 29  1  0
  6 30  1  0
  7 31  1  0
  8 32  1  0
 13 33  1  0
 13 34  1  0
 14 35  1  0
 14 36  1  0
 15 37  1  0
 16 38  1  0
 16 39  1  0
 17 40  1  0
 17 41  1  0
 18 42  1  0
 21 43  1  0
 26 44  1  0
M  END
>  <smiles>  (33) 
O=C1CC(c2cccc(C(=O)N3CCNCC3)c2)=Nc2cc(Cl)c(Cl)cc21

>  <score_type>  (33) 
oracle

>  <origin>  (33) 
autodockgpu

>  <m_score__min__energy>  (33) 
-8.2200000000000006

>  <m_primary>  (33) 
energy

>  <rmsd>  (33) 
6.3377006408591035

>  <m_score__min__rmsd>  (33) 
6.3377006408591035

>  <meeko>  (33) 
{"free_energy": -8.2, "intermolecular_energy": -8.8, "internal_energy": -0.56, "cluster_size": 25, "cluster_id": 1, "rank_in_cluster": 13}

>  <energy>  (33) 
-7.71

>  <cluster_rmsd>  (33) 
0.5

>  <cluster>  (33) 
2

$$$$

     RDKit          3D

 44 47  0  0  0  0  0  0  0  0999 V2000
  146.3190   72.7750  219.4570 O   0  0  0  0  0  0  0  0  0  0  0  0
  145.0930   72.5310  219.7040 C   0  0  0  0  0  0  0  0  0  0  0  0
  144.2370   73.6520  220.1600 C   0  0  0  0  0  0  0  0  0  0  0  0
  142.8620   73.1480  220.3880 C   0  0  0  0  0  0  0  0  0  0  0  0
  141.8600   74.1310  220.8500 C   0  0  0  0  0  0  0  0  0  0  0  0
  140.7270   73.7310  221.5450 C   0  0  0  0  0  0  0  0  0  0  0  0
  139.7940   74.6740  221.9710 C   0  0  0  0  0  0  0  0  0  0  0  0
  139.9680   76.0270  221.7160 C   0  0  0  0  0  0  0  0  0  0  0  0
  141.0890   76.4290  221.0280 C   0  0  0  0  0  0  0  0  0  0  0  0
  141.3850   77.8170  220.7000 C   0  0  0  0  0  0  0  0  0  0  0  0
  141.4740   78.1490  219.4900 O   0  0  0  0  0  0  0  0  0  0  0  0
  141.5800   78.8290  221.6740 N   0  0  0  0  0  0  0  0  0  0  0  0
  141.8720   80.1760  221.2000 C   0  0  0  0  0  0  0  0  0  0  0  0
  141.8260   81.1690  222.3570 C   0  0  0  0  0  0  0  0  0  0  0  0
  140.5490   80.8900  223.0290 N   0  0  0  0  0  0  0  0  0  0  0  0
  140.7620   79.7050  223.8340 C   0  0  0  0  0  0  0  0  0  0  0  0
  141.5140   78.6280  223.0930 C   0  0  0  0  0  0  0  0  0  0  0  0
  141.9940   75.4790  220.6190 C   0  0  0  0  0  0  0  0  0  0  0  0
  142.4760   71.9520  220.2200 N   0  0  0  0  0  0  0  0  0  0  0  0
  143.3020   70.8890  219.7850 C   0  0  0  0  0  0  0  0  0  0  0  0
  142.8210   69.6060  219.6220 C   0  0  0  0  0  0  0  0  0  0  0  0
  143.6820   68.5930  219.1880 C   0  0  0  0  0  0  0  0  0  0  0  0
  143.0370   66.9770  218.9920 Cl  0  0  0  0  0  0  0  0  0  0  0  0
  145.0140   68.8500  218.9170 C   0  0  0  0  0  0  0  0  0  0  0  0
  146.0970   67.5850  218.3740 Cl  0  0  0  0  0  0  0  0  0  0  0  0
  145.4580   70.1450  219.0920 C   0  0  0  0  0  0  0  0  0  0  0  0
  144.6190   71.1690  219.5230 C   0  0  0  0  0  0  0  0  0  0  0  0
  144.6385   74.0649  221.0972 H   0  0  0  0  0  0  0  0  0  0  0  0
  144.2209   74.4421  219.3948 H   0  0  0  0  0  0  0  0  0  0  0  0
  140.5650   72.6645  221.7604 H   0  0  0  0  0  0  0  0  0  0  0  0
  138.9017   74.3394  222.5204 H   0  0  0  0  0  0  0  0  0  0  0  0
  139.2247   76.7627  222.0571 H   0  0  0  0  0  0  0  0  0  0  0  0
  142.8750   80.1918  220.7486 H   0  0  0  0  0  0  0  0  0  0  0  0
  141.1167   80.4629  220.4536 H   0  0  0  0  0  0  0  0  0  0  0  0
  142.6703   81.0064  223.0430 H   0  0  0  0  0  0  0  0  0  0  0  0
  141.9011   82.2124  222.0167 H   0  0  0  0  0  0  0  0  0  0  0  0
  139.8300   80.7270  222.2750 H   0  0  0  0  0  0  0  0  0  0  0  0
  141.3381   79.9854  224.7282 H   0  0  0  0  0  0  0  0  0  0  0  0
  139.7741   79.2998  224.0984 H   0  0  0  0  0  0  0  0  0  0  0  0
  142.5412   78.5922  223.4848 H   0  0  0  0  0  0  0  0  0  0  0  0
  140.9641   77.6891  223.2548 H   0  0  0  0  0  0  0  0  0  0  0  0
  142.8844   75.8202  220.0705 H   0  0  0  0  0  0  0  0  0  0  0  0
  141.7650   69.3810  219.8325 H   0  0  0  0  0  0  0  0  0  0  0  0
  146.5129   70.3764  218.8834 H   0  0  0  0  0  0  0  0  0  0  0  0
  1  2  2  0
  2  3  1  0
  3  4  1  0
  4  5  1  0
  5  6  2  0
  6  7  1  0
  7  8  2  0
  8  9  1  0
  9 10  1  0
 10 11  2  0
 10 12  1  0
 12 13  1  0
 13 14  1  0
 14 15  1  0
 15 16  1  0
 16 17  1  0
  9 18  2  0
  4 19  2  0
 19 20  1  0
 20 21  2  0
 21 22  1  0
 22 23  1  0
 22 24  2  0
 24 25  1  0
 24 26  1  0
 26 27  2  0
 27  2  1  0
 18  5  1  0
 27 20  1  0
 17 12  1  0
  3 28  1  0
  3 29  1  0
  6 30  1  0
  7 31  1  0
  8 32  1  0
 13 33  1  0
 13 34  1  0
 14 35  1  0
 14 36  1  0
 15 37  1  0
 16 38  1  0
 16 39  1  0
 17 40  1  0
 17 41  1  0
 18 42  1  0
 21 43  1  0
 26 44  1  0
M  END
>  <smiles>  (34) 
O=C1CC(c2cccc(C(=O)N3CCNCC3)c2)=Nc2cc(Cl)c(Cl)cc21

>  <score_type>  (34) 
oracle

>  <origin>  (34) 
autodockgpu

>  <m_score__min__energy>  (34) 
-8.2200000000000006

>  <m_primary>  (34) 
energy

>  <rmsd>  (34) 
7.965781504885181

>  <m_score__min__rmsd>  (34) 
7.965781504885181

>  <meeko>  (34) 
{"free_energy": -7.58, "intermolecular_energy": -8.18, "internal_energy": -0.65, "cluster_size": 8, "cluster_id": 4, "rank_in_cluster": 8}

>  <energy>  (34) 
-7.69

>  <cluster_rmsd>  (34) 
0.55

>  <cluster>  (34) 
2

$$$$

     RDKit          3D

 44 47  0  0  0  0  0  0  0  0999 V2000
  139.0390   69.4950  221.4740 O   0  0  0  0  0  0  0  0  0  0  0  0
  139.5480   70.5050  222.0600 C   0  0  0  0  0  0  0  0  0  0  0  0
  139.8320   71.7120  221.2480 C   0  0  0  0  0  0  0  0  0  0  0  0
  140.4180   72.7550  222.1230 C   0  0  0  0  0  0  0  0  0  0  0  0
  140.7690   74.0400  221.4830 C   0  0  0  0  0  0  0  0  0  0  0  0
  141.5940   74.0860  220.3670 C   0  0  0  0  0  0  0  0  0  0  0  0
  141.9130   75.3090  219.7790 C   0  0  0  0  0  0  0  0  0  0  0  0
  141.4200   76.5040  220.2870 C   0  0  0  0  0  0  0  0  0  0  0  0
  140.6040   76.4630  221.3910 C   0  0  0  0  0  0  0  0  0  0  0  0
  140.0250   77.6450  222.0160 C   0  0  0  0  0  0  0  0  0  0  0  0
  138.8360   77.5960  222.4240 O   0  0  0  0  0  0  0  0  0  0  0  0
  140.7300   78.8630  222.1960 N   0  0  0  0  0  0  0  0  0  0  0  0
  140.0250   79.9650  222.8360 C   0  0  0  0  0  0  0  0  0  0  0  0
  140.9890   81.1040  223.1510 C   0  0  0  0  0  0  0  0  0  0  0  0
  142.1110   80.4520  223.8440 N   0  0  0  0  0  0  0  0  0  0  0  0
  142.9180   79.8290  222.8150 C   0  0  0  0  0  0  0  0  0  0  0  0
  142.0880   79.0930  221.7930 C   0  0  0  0  0  0  0  0  0  0  0  0
  140.3040   75.2450  221.9530 C   0  0  0  0  0  0  0  0  0  0  0  0
  140.6410   72.6380  223.3650 N   0  0  0  0  0  0  0  0  0  0  0  0
  140.3660   71.4810  224.1310 C   0  0  0  0  0  0  0  0  0  0  0  0
  140.6330   71.4150  225.4830 C   0  0  0  0  0  0  0  0  0  0  0  0
  140.3410   70.2460  226.1920 C   0  0  0  0  0  0  0  0  0  0  0  0
  140.6930   70.1990  227.9070 Cl  0  0  0  0  0  0  0  0  0  0  0  0
  139.7870   69.1450  225.5630 C   0  0  0  0  0  0  0  0  0  0  0  0
  139.4190   67.6780  226.4450 Cl  0  0  0  0  0  0  0  0  0  0  0  0
  139.5350   69.2480  224.2100 C   0  0  0  0  0  0  0  0  0  0  0  0
  139.8170   70.4030  223.4850 C   0  0  0  0  0  0  0  0  0  0  0  0
  140.5434   71.4593  220.4480 H   0  0  0  0  0  0  0  0  0  0  0  0
  138.9002   72.0849  220.7978 H   0  0  0  0  0  0  0  0  0  0  0  0
  141.9974   73.1536  219.9452 H   0  0  0  0  0  0  0  0  0  0  0  0
  142.5679   75.3280  218.8954 H   0  0  0  0  0  0  0  0  0  0  0  0
  141.6778   77.4635  219.8148 H   0  0  0  0  0  0  0  0  0  0  0  0
  139.2385   80.3326  222.1605 H   0  0  0  0  0  0  0  0  0  0  0  0
  139.5800   79.6052  223.7754 H   0  0  0  0  0  0  0  0  0  0  0  0
  141.3324   81.5904  222.2261 H   0  0  0  0  0  0  0  0  0  0  0  0
  140.5219   81.8929  223.7589 H   0  0  0  0  0  0  0  0  0  0  0  0
  141.6980   79.7400  224.5020 H   0  0  0  0  0  0  0  0  0  0  0  0
  143.4982   80.6098  222.3014 H   0  0  0  0  0  0  0  0  0  0  0  0
  143.5726   79.0932  223.3050 H   0  0  0  0  0  0  0  0  0  0  0  0
  142.0776   79.6847  220.8657 H   0  0  0  0  0  0  0  0  0  0  0  0
  142.5513   78.1041  221.6611 H   0  0  0  0  0  0  0  0  0  0  0  0
  139.6490   75.2339  222.8366 H   0  0  0  0  0  0  0  0  0  0  0  0
  141.0741   72.2792  226.0013 H   0  0  0  0  0  0  0  0  0  0  0  0
  139.0956   68.3868  223.6854 H   0  0  0  0  0  0  0  0  0  0  0  0
  1  2  2  0
  2  3  1  0
  3  4  1  0
  4  5  1  0
  5  6  2  0
  6  7  1  0
  7  8  2  0
  8  9  1  0
  9 10  1  0
 10 11  2  0
 10 12  1  0
 12 13  1  0
 13 14  1  0
 14 15  1  0
 15 16  1  0
 16 17  1  0
  9 18  2  0
  4 19  2  0
 19 20  1  0
 20 21  2  0
 21 22  1  0
 22 23  1  0
 22 24  2  0
 24 25  1  0
 24 26  1  0
 26 27  2  0
 27  2  1  0
 18  5  1  0
 27 20  1  0
 17 12  1  0
  3 28  1  0
  3 29  1  0
  6 30  1  0
  7 31  1  0
  8 32  1  0
 13 33  1  0
 13 34  1  0
 14 35  1  0
 14 36  1  0
 15 37  1  0
 16 38  1  0
 16 39  1  0
 17 40  1  0
 17 41  1  0
 18 42  1  0
 21 43  1  0
 26 44  1  0
M  END
>  <smiles>  (35) 
O=C1CC(c2cccc(C(=O)N3CCNCC3)c2)=Nc2cc(Cl)c(Cl)cc21

>  <score_type>  (35) 
oracle

>  <origin>  (35) 
autodockgpu

>  <m_score__min__energy>  (35) 
-8.2200000000000006

>  <m_primary>  (35) 
energy

>  <rmsd>  (35) 
6.340680702267025

>  <m_score__min__rmsd>  (35) 
6.340680702267025

>  <meeko>  (35) 
{"free_energy": -8.21, "intermolecular_energy": -8.81, "internal_energy": -0.55, "cluster_size": 25, "cluster_id": 1, "rank_in_cluster": 6}

>  <energy>  (35) 
-8.01

>  <cluster_rmsd>  (35) 
0.0

>  <cluster>  (35) 
3

$$$$

     RDKit          3D

 44 47  0  0  0  0  0  0  0  0999 V2000
  139.0350   69.4310  221.5020 O   0  0  0  0  0  0  0  0  0  0  0  0
  139.5060   70.4680  222.0720 C   0  0  0  0  0  0  0  0  0  0  0  0
  139.7280   71.6780  221.2450 C   0  0  0  0  0  0  0  0  0  0  0  0
  140.2770   72.7550  222.1030 C   0  0  0  0  0  0  0  0  0  0  0  0
  140.5640   74.0470  221.4470 C   0  0  0  0  0  0  0  0  0  0  0  0
  141.2710   74.1060  220.2520 C   0  0  0  0  0  0  0  0  0  0  0  0
  141.5320   75.3350  219.6500 C   0  0  0  0  0  0  0  0  0  0  0  0
  141.0980   76.5240  220.2200 C   0  0  0  0  0  0  0  0  0  0  0  0
  140.3990   76.4720  221.4020 C   0  0  0  0  0  0  0  0  0  0  0  0
  139.8910   77.6470  222.0970 C   0  0  0  0  0  0  0  0  0  0  0  0
  138.7380   77.6060  222.5970 O   0  0  0  0  0  0  0  0  0  0  0  0
  140.6280   78.8500  222.2460 N   0  0  0  0  0  0  0  0  0  0  0  0
  139.9940   79.9460  222.9650 C   0  0  0  0  0  0  0  0  0  0  0  0
  140.9990   81.0630  223.2280 C   0  0  0  0  0  0  0  0  0  0  0  0
  142.1610   80.3800  223.8140 N   0  0  0  0  0  0  0  0  0  0  0  0
  142.8740   79.7700  222.7100 C   0  0  0  0  0  0  0  0  0  0  0  0
  141.9530   79.0690  221.7420 C   0  0  0  0  0  0  0  0  0  0  0  0
  140.1540   75.2470  221.9760 C   0  0  0  0  0  0  0  0  0  0  0  0
  140.5170   72.6610  223.3440 N   0  0  0  0  0  0  0  0  0  0  0  0
  140.3010   71.5010  224.1240 C   0  0  0  0  0  0  0  0  0  0  0  0
  140.5840   71.4620  225.4750 C   0  0  0  0  0  0  0  0  0  0  0  0
  140.3500   70.2890  226.1980 C   0  0  0  0  0  0  0  0  0  0  0  0
  140.7210   70.2760  227.9100 Cl  0  0  0  0  0  0  0  0  0  0  0  0
  139.8380   69.1580  225.5860 C   0  0  0  0  0  0  0  0  0  0  0  0
  139.5440   67.6850  226.4870 Cl  0  0  0  0  0  0  0  0  0  0  0  0
  139.5690   69.2350  224.2350 C   0  0  0  0  0  0  0  0  0  0  0  0
  139.7930   70.3930  223.4960 C   0  0  0  0  0  0  0  0  0  0  0  0
  140.4412   71.4485  220.4396 H   0  0  0  0  0  0  0  0  0  0  0  0
  138.7758   72.0050  220.8017 H   0  0  0  0  0  0  0  0  0  0  0  0
  141.6261   73.1783  219.7794 H   0  0  0  0  0  0  0  0  0  0  0  0
  142.0931   75.3637  218.7043 H   0  0  0  0  0  0  0  0  0  0  0  0
  141.3094   77.4885  219.7352 H   0  0  0  0  0  0  0  0  0  0  0  0
  139.1625   80.3412  222.3629 H   0  0  0  0  0  0  0  0  0  0  0  0
  139.6188   79.5703  223.9283 H   0  0  0  0  0  0  0  0  0  0  0  0
  141.2758   81.5662  222.2898 H   0  0  0  0  0  0  0  0  0  0  0  0
  140.5944   81.8434  223.8892 H   0  0  0  0  0  0  0  0  0  0  0  0
  141.7900   79.6580  224.4870 H   0  0  0  0  0  0  0  0  0  0  0  0
  143.4232   80.5544  222.1687 H   0  0  0  0  0  0  0  0  0  0  0  0
  143.5546   79.0145  223.1294 H   0  0  0  0  0  0  0  0  0  0  0  0
  141.8790   79.6812  220.8311 H   0  0  0  0  0  0  0  0  0  0  0  0
  142.3880   78.0764  221.5536 H   0  0  0  0  0  0  0  0  0  0  0  0
  139.5924   75.2262  222.9216 H   0  0  0  0  0  0  0  0  0  0  0  0
  140.9918   72.3501  225.9799 H   0  0  0  0  0  0  0  0  0  0  0  0
  139.1630   68.3497  223.7237 H   0  0  0  0  0  0  0  0  0  0  0  0
  1  2  2  0
  2  3  1  0
  3  4  1  0
  4  5  1  0
  5  6  2  0
  6  7  1  0
  7  8  2  0
  8  9  1  0
  9 10  1  0
 10 11  2  0
 10 12  1  0
 12 13  1  0
 13 14  1  0
 14 15  1  0
 15 16  1  0
 16 17  1  0
  9 18  2  0
  4 19  2  0
 19 20  1  0
 20 21  2  0
 21 22  1  0
 22 23  1  0
 22 24  2  0
 24 25  1  0
 24 26  1  0
 26 27  2  0
 27  2  1  0
 18  5  1  0
 27 20  1  0
 17 12  1  0
  3 28  1  0
  3 29  1  0
  6 30  1  0
  7 31  1  0
  8 32  1  0
 13 33  1  0
 13 34  1  0
 14 35  1  0
 14 36  1  0
 15 37  1  0
 16 38  1  0
 16 39  1  0
 17 40  1  0
 17 41  1  0
 18 42  1  0
 21 43  1  0
 26 44  1  0
M  END
>  <smiles>  (36) 
O=C1CC(c2cccc(C(=O)N3CCNCC3)c2)=Nc2cc(Cl)c(Cl)cc21

>  <score_type>  (36) 
oracle

>  <origin>  (36) 
autodockgpu

>  <m_score__min__energy>  (36) 
-8.2200000000000006

>  <m_primary>  (36) 
energy

>  <rmsd>  (36) 
6.30790082774238

>  <m_score__min__rmsd>  (36) 
6.30790082774238

>  <meeko>  (36) 
{"free_energy": -8.18, "intermolecular_energy": -8.78, "internal_energy": -0.56, "cluster_size": 25, "cluster_id": 1, "rank_in_cluster": 20}

>  <energy>  (36) 
-8.0

>  <cluster_rmsd>  (36) 
0.35

>  <cluster>  (36) 
3

$$$$

     RDKit          3D

 44 47  0  0  0  0  0  0  0  0999 V2000
  138.9580   69.5470  221.5350 O   0  0  0  0  0  0  0  0  0  0  0  0
  139.5080   70.5390  222.1170 C   0  0  0  0  0  0  0  0  0  0  0  0
  139.8120   71.7420  221.3060 C   0  0  0  0  0  0  0  0  0  0  0  0
  140.4450   72.7620  222.1760 C   0  0  0  0  0  0  0  0  0  0  0  0
  140.8220   74.0400  221.5370 C   0  0  0  0  0  0  0  0  0  0  0  0
  141.6930   74.0740  220.4550 C   0  0  0  0  0  0  0  0  0  0  0  0
  142.0360   75.2900  219.8680 C   0  0  0  0  0  0  0  0  0  0  0  0
  141.5220   76.4900  220.3400 C   0  0  0  0  0  0  0  0  0  0  0  0
  140.6600   76.4620  221.4100 C   0  0  0  0  0  0  0  0  0  0  0  0
  140.0550   77.6500  221.9960 C   0  0  0  0  0  0  0  0  0  0  0  0
  138.8470   77.6090  222.3420 O   0  0  0  0  0  0  0  0  0  0  0  0
  140.7560   78.8660  222.2030 N   0  0  0  0  0  0  0  0  0  0  0  0
  140.0230   79.9760  222.7980 C   0  0  0  0  0  0  0  0  0  0  0  0
  140.9750   81.1130  223.1550 C   0  0  0  0  0  0  0  0  0  0  0  0
  142.0570   80.4620  223.9080 N   0  0  0  0  0  0  0  0  0  0  0  0
  142.9130   79.8290  222.9270 C   0  0  0  0  0  0  0  0  0  0  0  0
  142.1330   79.0880  221.8690 C   0  0  0  0  0  0  0  0  0  0  0  0
  140.3370   75.2500  221.9720 C   0  0  0  0  0  0  0  0  0  0  0  0
  140.6860   72.6320  223.4130 N   0  0  0  0  0  0  0  0  0  0  0  0
  140.3910   71.4780  224.1780 C   0  0  0  0  0  0  0  0  0  0  0  0
  140.6800   71.3970  225.5250 C   0  0  0  0  0  0  0  0  0  0  0  0
  140.3660   70.2330  226.2320 C   0  0  0  0  0  0  0  0  0  0  0  0
  140.7480   70.1660  227.9400 Cl  0  0  0  0  0  0  0  0  0  0  0  0
  139.7690   69.1520  225.6080 C   0  0  0  0  0  0  0  0  0  0  0  0
  139.3740   67.6920  226.4890 Cl  0  0  0  0  0  0  0  0  0  0  0  0
  139.4960   69.2710  224.2600 C   0  0  0  0  0  0  0  0  0  0  0  0
  139.7990   70.4210  223.5360 C   0  0  0  0  0  0  0  0  0  0  0  0
  140.5004   71.4734  220.4912 H   0  0  0  0  0  0  0  0  0  0  0  0
  138.8834   72.1448  220.8753 H   0  0  0  0  0  0  0  0  0  0  0  0
  142.1133   73.1372  220.0604 H   0  0  0  0  0  0  0  0  0  0  0  0
  142.7282   75.2994  219.0131 H   0  0  0  0  0  0  0  0  0  0  0  0
  141.7990   77.4438  219.8672 H   0  0  0  0  0  0  0  0  0  0  0  0
  139.2746   80.3422  222.0799 H   0  0  0  0  0  0  0  0  0  0  0  0
  139.5276   79.6249  223.7152 H   0  0  0  0  0  0  0  0  0  0  0  0
  141.3672   81.5921  222.2458 H   0  0  0  0  0  0  0  0  0  0  0  0
  140.4808   81.9073  223.7337 H   0  0  0  0  0  0  0  0  0  0  0  0
  141.6070   79.7560  224.5500 H   0  0  0  0  0  0  0  0  0  0  0  0
  143.5217   80.6039  222.4381 H   0  0  0  0  0  0  0  0  0  0  0  0
  143.5391   79.0948  223.4551 H   0  0  0  0  0  0  0  0  0  0  0  0
  142.1725   79.6726  220.9381 H   0  0  0  0  0  0  0  0  0  0  0  0
  142.5984   78.0964  221.7688 H   0  0  0  0  0  0  0  0  0  0  0  0
  139.6444   75.2484  222.8266 H   0  0  0  0  0  0  0  0  0  0  0  0
  141.1554   72.2448  226.0400 H   0  0  0  0  0  0  0  0  0  0  0  0
  139.0217   68.4263  223.7388 H   0  0  0  0  0  0  0  0  0  0  0  0
  1  2  2  0
  2  3  1  0
  3  4  1  0
  4  5  1  0
  5  6  2  0
  6  7  1  0
  7  8  2  0
  8  9  1  0
  9 10  1  0
 10 11  2  0
 10 12  1  0
 12 13  1  0
 13 14  1  0
 14 15  1  0
 15 16  1  0
 16 17  1  0
  9 18  2  0
  4 19  2  0
 19 20  1  0
 20 21  2  0
 21 22  1  0
 22 23  1  0
 22 24  2  0
 24 25  1  0
 24 26  1  0
 26 27  2  0
 27  2  1  0
 18  5  1  0
 27 20  1  0
 17 12  1  0
  3 28  1  0
  3 29  1  0
  6 30  1  0
  7 31  1  0
  8 32  1  0
 13 33  1  0
 13 34  1  0
 14 35  1  0
 14 36  1  0
 15 37  1  0
 16 38  1  0
 16 39  1  0
 17 40  1  0
 17 41  1  0
 18 42  1  0
 21 43  1  0
 26 44  1  0
M  END
>  <smiles>  (37) 
O=C1CC(c2cccc(C(=O)N3CCNCC3)c2)=Nc2cc(Cl)c(Cl)cc21

>  <score_type>  (37) 
oracle

>  <origin>  (37) 
autodockgpu

>  <m_score__min__energy>  (37) 
-8.2200000000000006

>  <m_primary>  (37) 
energy

>  <rmsd>  (37) 
6.349700215333428

>  <m_score__min__rmsd>  (37) 
6.349700215333428

>  <meeko>  (37) 
{"free_energy": -8.21, "intermolecular_energy": -8.81, "internal_energy": -0.56, "cluster_size": 25, "cluster_id": 1, "rank_in_cluster": 10}

>  <energy>  (37) 
-7.99

>  <cluster_rmsd>  (37) 
0.24

>  <cluster>  (37) 
3

$$$$

     RDKit          3D

 44 47  0  0  0  0  0  0  0  0999 V2000
  138.8980   69.4970  221.5570 O   0  0  0  0  0  0  0  0  0  0  0  0
  139.4370   70.5050  222.1200 C   0  0  0  0  0  0  0  0  0  0  0  0
  139.6920   71.7110  221.2960 C   0  0  0  0  0  0  0  0  0  0  0  0
  140.3190   72.7510  222.1450 C   0  0  0  0  0  0  0  0  0  0  0  0
  140.6490   74.0340  221.4890 C   0  0  0  0  0  0  0  0  0  0  0  0
  141.4310   74.0760  220.3420 C   0  0  0  0  0  0  0  0  0  0  0  0
  141.7310   75.2970  219.7410 C   0  0  0  0  0  0  0  0  0  0  0  0
  141.2620   76.4940  220.2640 C   0  0  0  0  0  0  0  0  0  0  0  0
  140.4880   76.4580  221.3990 C   0  0  0  0  0  0  0  0  0  0  0  0
  139.9370   77.6420  222.0430 C   0  0  0  0  0  0  0  0  0  0  0  0
  138.7540   77.6080  222.4690 O   0  0  0  0  0  0  0  0  0  0  0  0
  140.6630   78.8480  222.2220 N   0  0  0  0  0  0  0  0  0  0  0  0
  139.9840   79.9540  222.8830 C   0  0  0  0  0  0  0  0  0  0  0  0
  140.9700   81.0760  223.1920 C   0  0  0  0  0  0  0  0  0  0  0  0
  142.0930   80.4030  223.8610 N   0  0  0  0  0  0  0  0  0  0  0  0
  142.8740   79.7770  222.8130 C   0  0  0  0  0  0  0  0  0  0  0  0
  142.0170   79.0620  221.7990 C   0  0  0  0  0  0  0  0  0  0  0  0
  140.2060   75.2410  221.9740 C   0  0  0  0  0  0  0  0  0  0  0  0
  140.5940   72.6340  223.3760 N   0  0  0  0  0  0  0  0  0  0  0  0
  140.3460   71.4790  224.1540 C   0  0  0  0  0  0  0  0  0  0  0  0
  140.6690   71.4130  225.4940 C   0  0  0  0  0  0  0  0  0  0  0  0
  140.4010   70.2450  226.2150 C   0  0  0  0  0  0  0  0  0  0  0  0
  140.8250   70.1980  227.9140 Cl  0  0  0  0  0  0  0  0  0  0  0  0
  139.8150   69.1470  225.6110 C   0  0  0  0  0  0  0  0  0  0  0  0
  139.4780   67.6820  226.5090 Cl  0  0  0  0  0  0  0  0  0  0  0  0
  139.5070   69.2500  224.2700 C   0  0  0  0  0  0  0  0  0  0  0  0
  139.7650   70.4030  223.5330 C   0  0  0  0  0  0  0  0  0  0  0  0
  140.3678   71.4550  220.4667 H   0  0  0  0  0  0  0  0  0  0  0  0
  138.7437   72.0881  220.8854 H   0  0  0  0  0  0  0  0  0  0  0  0
  141.8150   73.1419  219.9062 H   0  0  0  0  0  0  0  0  0  0  0  0
  142.3523   75.3124  218.8334 H   0  0  0  0  0  0  0  0  0  0  0  0
  141.5047   77.4516  219.7801 H   0  0  0  0  0  0  0  0  0  0  0  0
  139.1921   80.3390  222.2237 H   0  0  0  0  0  0  0  0  0  0  0  0
  139.5485   79.5924  223.8262 H   0  0  0  0  0  0  0  0  0  0  0  0
  141.3056   81.5652  222.2657 H   0  0  0  0  0  0  0  0  0  0  0  0
  140.5242   81.8660  223.8143 H   0  0  0  0  0  0  0  0  0  0  0  0
  141.6800   79.6900  224.5200 H   0  0  0  0  0  0  0  0  0  0  0  0
  143.4569   80.5537  222.2964 H   0  0  0  0  0  0  0  0  0  0  0  0
  143.5257   79.0275  223.2859 H   0  0  0  0  0  0  0  0  0  0  0  0
  142.0000   79.6617  220.8770 H   0  0  0  0  0  0  0  0  0  0  0  0
  142.4637   78.0677  221.6514 H   0  0  0  0  0  0  0  0  0  0  0  0
  139.5849   75.2332  222.8819 H   0  0  0  0  0  0  0  0  0  0  0  0
  141.1353   72.2754  225.9929 H   0  0  0  0  0  0  0  0  0  0  0  0
  139.0411   68.3909  223.7652 H   0  0  0  0  0  0  0  0  0  0  0  0
  1  2  2  0
  2  3  1  0
  3  4  1  0
  4  5  1  0
  5  6  2  0
  6  7  1  0
  7  8  2  0
  8  9  1  0
  9 10  1  0
 10 11  2  0
 10 12  1  0
 12 13  1  0
 13 14  1  0
 14 15  1  0
 15 16  1  0
 16 17  1  0
  9 18  2  0
  4 19  2  0
 19 20  1  0
 20 21  2  0
 21 22  1  0
 22 23  1  0
 22 24  2  0
 24 25  1  0
 24 26  1  0
 26 27  2  0
 27  2  1  0
 18  5  1  0
 27 20  1  0
 17 12  1  0
  3 28  1  0
  3 29  1  0
  6 30  1  0
  7 31  1  0
  8 32  1  0
 13 33  1  0
 13 34  1  0
 14 35  1  0
 14 36  1  0
 15 37  1  0
 16 38  1  0
 16 39  1  0
 17 40  1  0
 17 41  1  0
 18 42  1  0
 21 43  1  0
 26 44  1  0
M  END
>  <smiles>  (38) 
O=C1CC(c2cccc(C(=O)N3CCNCC3)c2)=Nc2cc(Cl)c(Cl)cc21

>  <score_type>  (38) 
oracle

>  <origin>  (38) 
autodockgpu

>  <m_score__min__energy>  (38) 
-8.2200000000000006

>  <m_primary>  (38) 
energy

>  <rmsd>  (38) 
6.313489244540703

>  <m_score__min__rmsd>  (38) 
6.313489244540703

>  <meeko>  (38) 
{"free_energy": -8.2, "intermolecular_energy": -8.79, "internal_energy": -0.56, "cluster_size": 25, "cluster_id": 1, "rank_in_cluster": 16}

>  <energy>  (38) 
-7.99

>  <cluster_rmsd>  (38) 
0.34

>  <cluster>  (38) 
3

$$$$

     RDKit          3D

 44 47  0  0  0  0  0  0  0  0999 V2000
  138.9360   69.3190  221.5430 O   0  0  0  0  0  0  0  0  0  0  0  0
  139.3740   70.3790  222.0970 C   0  0  0  0  0  0  0  0  0  0  0  0
  139.5330   71.5910  221.2570 C   0  0  0  0  0  0  0  0  0  0  0  0
  140.0530   72.6950  222.0970 C   0  0  0  0  0  0  0  0  0  0  0  0
  140.2770   73.9930  221.4260 C   0  0  0  0  0  0  0  0  0  0  0  0
  140.8430   74.0590  220.1600 C   0  0  0  0  0  0  0  0  0  0  0  0
  141.0470   75.2930  219.5450 C   0  0  0  0  0  0  0  0  0  0  0  0
  140.6930   76.4790  220.1730 C   0  0  0  0  0  0  0  0  0  0  0  0
  140.1330   76.4190  221.4260 C   0  0  0  0  0  0  0  0  0  0  0  0
  139.7200   77.5900  222.1870 C   0  0  0  0  0  0  0  0  0  0  0  0
  138.5910   77.5880  222.7420 O   0  0  0  0  0  0  0  0  0  0  0  0
  140.5240   78.7480  222.3430 N   0  0  0  0  0  0  0  0  0  0  0  0
  139.9820   79.8470  223.1320 C   0  0  0  0  0  0  0  0  0  0  0  0
  141.0540   80.9020  223.3840 C   0  0  0  0  0  0  0  0  0  0  0  0
  142.2070   80.1390  223.8870 N   0  0  0  0  0  0  0  0  0  0  0  0
  142.8330   79.5370  222.7290 C   0  0  0  0  0  0  0  0  0  0  0  0
  141.8330   78.9210  221.7830 C   0  0  0  0  0  0  0  0  0  0  0  0
  139.9420   75.1900  222.0120 C   0  0  0  0  0  0  0  0  0  0  0  0
  140.3180   72.6220  223.3350 N   0  0  0  0  0  0  0  0  0  0  0  0
  140.1620   71.4600  224.1270 C   0  0  0  0  0  0  0  0  0  0  0  0
  140.4690   71.4430  225.4730 C   0  0  0  0  0  0  0  0  0  0  0  0
  140.2950   70.2680  226.2090 C   0  0  0  0  0  0  0  0  0  0  0  0
  140.6950   70.2840  227.9140 Cl  0  0  0  0  0  0  0  0  0  0  0  0
  139.8180   69.1120  225.6150 C   0  0  0  0  0  0  0  0  0  0  0  0
  139.5990   67.6370  226.5320 Cl  0  0  0  0  0  0  0  0  0  0  0  0
  139.5230   69.1680  224.2680 C   0  0  0  0  0  0  0  0  0  0  0  0
  139.6880   70.3280  223.5160 C   0  0  0  0  0  0  0  0  0  0  0  0
  140.2407   71.3838  220.4408 H   0  0  0  0  0  0  0  0  0  0  0  0
  138.5610   71.8762  220.8283 H   0  0  0  0  0  0  0  0  0  0  0  0
  141.1317   73.1336  219.6402 H   0  0  0  0  0  0  0  0  0  0  0  0
  141.4975   75.3276  218.5421 H   0  0  0  0  0  0  0  0  0  0  0  0
  140.8575   77.4472  219.6776 H   0  0  0  0  0  0  0  0  0  0  0  0
  139.1439   80.3054  222.5867 H   0  0  0  0  0  0  0  0  0  0  0  0
  139.6350   79.4539  224.0990 H   0  0  0  0  0  0  0  0  0  0  0  0
  141.3109   81.4263  222.4518 H   0  0  0  0  0  0  0  0  0  0  0  0
  140.7224   81.6761  224.0917 H   0  0  0  0  0  0  0  0  0  0  0  0
  141.8310   79.4110  224.5520 H   0  0  0  0  0  0  0  0  0  0  0  0
  143.3962   80.3130  222.1898 H   0  0  0  0  0  0  0  0  0  0  0  0
  143.4918   78.7323  223.0874 H   0  0  0  0  0  0  0  0  0  0  0  0
  141.7474   79.5713  220.9000 H   0  0  0  0  0  0  0  0  0  0  0  0
  142.2073   77.9162  221.5373 H   0  0  0  0  0  0  0  0  0  0  0  0
  139.4917   75.1631  223.0152 H   0  0  0  0  0  0  0  0  0  0  0  0
  140.8491   72.3509  225.9641 H   0  0  0  0  0  0  0  0  0  0  0  0
  139.1437   68.2633  223.7704 H   0  0  0  0  0  0  0  0  0  0  0  0
  1  2  2  0
  2  3  1  0
  3  4  1  0
  4  5  1  0
  5  6  2  0
  6  7  1  0
  7  8  2  0
  8  9  1  0
  9 10  1  0
 10 11  2  0
 10 12  1  0
 12 13  1  0
 13 14  1  0
 14 15  1  0
 15 16  1  0
 16 17  1  0
  9 18  2  0
  4 19  2  0
 19 20  1  0
 20 21  2  0
 21 22  1  0
 22 23  1  0
 22 24  2  0
 24 25  1  0
 24 26  1  0
 26 27  2  0
 27  2  1  0
 18  5  1  0
 27 20  1  0
 17 12  1  0
  3 28  1  0
  3 29  1  0
  6 30  1  0
  7 31  1  0
  8 32  1  0
 13 33  1  0
 13 34  1  0
 14 35  1  0
 14 36  1  0
 15 37  1  0
 16 38  1  0
 16 39  1  0
 17 40  1  0
 17 41  1  0
 18 42  1  0
 21 43  1  0
 26 44  1  0
M  END
>  <smiles>  (39) 
O=C1CC(c2cccc(C(=O)N3CCNCC3)c2)=Nc2cc(Cl)c(Cl)cc21

>  <score_type>  (39) 
oracle

>  <origin>  (39) 
autodockgpu

>  <m_score__min__energy>  (39) 
-8.2200000000000006

>  <m_primary>  (39) 
energy

>  <rmsd>  (39) 
6.239857803183289

>  <m_score__min__rmsd>  (39) 
6.239857803183289

>  <meeko>  (39) 
{"free_energy": -8.12, "intermolecular_energy": -8.72, "internal_energy": -0.59, "cluster_size": 25, "cluster_id": 1, "rank_in_cluster": 24}

>  <energy>  (39) 
-7.96

>  <cluster_rmsd>  (39) 
0.56

>  <cluster>  (39) 
3

$$$$

     RDKit          3D

 44 47  0  0  0  0  0  0  0  0999 V2000
  146.3270   72.6730  219.4170 O   0  0  0  0  0  0  0  0  0  0  0  0
  145.0990   72.4530  219.6740 C   0  0  0  0  0  0  0  0  0  0  0  0
  144.2670   73.5910  220.1330 C   0  0  0  0  0  0  0  0  0  0  0  0
  142.8850   73.1130  220.3730 C   0  0  0  0  0  0  0  0  0  0  0  0
  141.9060   74.1170  220.8390 C   0  0  0  0  0  0  0  0  0  0  0  0
  140.7440   73.7360  221.4990 C   0  0  0  0  0  0  0  0  0  0  0  0
  139.8330   74.6990  221.9300 C   0  0  0  0  0  0  0  0  0  0  0  0
  140.0570   76.0520  221.7150 C   0  0  0  0  0  0  0  0  0  0  0  0
  141.2050   76.4330  221.0620 C   0  0  0  0  0  0  0  0  0  0  0  0
  141.5530   77.8190  220.7770 C   0  0  0  0  0  0  0  0  0  0  0  0
  141.7800   78.1560  219.5870 O   0  0  0  0  0  0  0  0  0  0  0  0
  141.6520   78.8240  221.7730 N   0  0  0  0  0  0  0  0  0  0  0  0
  142.0100   80.1690  221.3430 C   0  0  0  0  0  0  0  0  0  0  0  0
  141.8490   81.1580  222.4930 C   0  0  0  0  0  0  0  0  0  0  0  0
  140.5010   80.8920  223.0180 N   0  0  0  0  0  0  0  0  0  0  0  0
  140.6090   79.7010  223.8340 C   0  0  0  0  0  0  0  0  0  0  0  0
  141.4250   78.6180  223.1740 C   0  0  0  0  0  0  0  0  0  0  0  0
  142.0880   75.4650  220.6470 C   0  0  0  0  0  0  0  0  0  0  0  0
  142.4750   71.9250  220.2120 N   0  0  0  0  0  0  0  0  0  0  0  0
  143.2770   70.8450  219.7730 C   0  0  0  0  0  0  0  0  0  0  0  0
  142.7710   69.5710  219.6180 C   0  0  0  0  0  0  0  0  0  0  0  0
  143.6090   68.5410  219.1800 C   0  0  0  0  0  0  0  0  0  0  0  0
  142.9320   66.9360  218.9940 Cl  0  0  0  0  0  0  0  0  0  0  0  0
  144.9440   68.7720  218.8990 C   0  0  0  0  0  0  0  0  0  0  0  0
  145.9980   67.4850  218.3510 Cl  0  0  0  0  0  0  0  0  0  0  0  0
  145.4140   70.0590  219.0670 C   0  0  0  0  0  0  0  0  0  0  0  0
  144.5970   71.0990  219.5000 C   0  0  0  0  0  0  0  0  0  0  0  0
  144.6831   73.9993  221.0658 H   0  0  0  0  0  0  0  0  0  0  0  0
  144.2594   74.3789  219.3655 H   0  0  0  0  0  0  0  0  0  0  0  0
  140.5423   72.6703  221.6820 H   0  0  0  0  0  0  0  0  0  0  0  0
  138.9181   74.3804  222.4510 H   0  0  0  0  0  0  0  0  0  0  0  0
  139.3313   76.8033  222.0599 H   0  0  0  0  0  0  0  0  0  0  0  0
  143.0567   80.1744  221.0048 H   0  0  0  0  0  0  0  0  0  0  0  0
  141.3441   80.4686  220.5203 H   0  0  0  0  0  0  0  0  0  0  0  0
  142.6101   80.9818  223.2674 H   0  0  0  0  0  0  0  0  0  0  0  0
  141.9745   82.2017  222.1692 H   0  0  0  0  0  0  0  0  0  0  0  0
  139.8690   80.7420  222.1870 H   0  0  0  0  0  0  0  0  0  0  0  0
  141.0860   79.9696  224.7881 H   0  0  0  0  0  0  0  0  0  0  0  0
  139.5930   79.3074  223.9852 H   0  0  0  0  0  0  0  0  0  0  0  0
  142.4015   78.5665  223.6777 H   0  0  0  0  0  0  0  0  0  0  0  0
  140.8477   77.6863  223.2670 H   0  0  0  0  0  0  0  0  0  0  0  0
  143.0007   75.7912  220.1268 H   0  0  0  0  0  0  0  0  0  0  0  0
  141.7128   69.3664  219.8380 H   0  0  0  0  0  0  0  0  0  0  0  0
  146.4717   70.2700  218.8510 H   0  0  0  0  0  0  0  0  0  0  0  0
  1  2  2  0
  2  3  1  0
  3  4  1  0
  4  5  1  0
  5  6  2  0
  6  7  1  0
  7  8  2  0
  8  9  1  0
  9 10  1  0
 10 11  2  0
 10 12  1  0
 12 13  1  0
 13 14  1  0
 14 15  1  0
 15 16  1  0
 16 17  1  0
  9 18  2  0
  4 19  2  0
 19 20  1  0
 20 21  2  0
 21 22  1  0
 22 23  1  0
 22 24  2  0
 24 25  1  0
 24 26  1  0
 26 27  2  0
 27  2  1  0
 18  5  1  0
 27 20  1  0
 17 12  1  0
  3 28  1  0
  3 29  1  0
  6 30  1  0
  7 31  1  0
  8 32  1  0
 13 33  1  0
 13 34  1  0
 14 35  1  0
 14 36  1  0
 15 37  1  0
 16 38  1  0
 16 39  1  0
 17 40  1  0
 17 41  1  0
 18 42  1  0
 21 43  1  0
 26 44  1  0
M  END
>  <smiles>  (40) 
O=C1CC(c2cccc(C(=O)N3CCNCC3)c2)=Nc2cc(Cl)c(Cl)cc21

>  <score_type>  (40) 
oracle

>  <origin>  (40) 
autodockgpu

>  <m_score__min__energy>  (40) 
-8.2200000000000006

>  <m_primary>  (40) 
energy

>  <rmsd>  (40) 
7.9874927919791885

>  <m_score__min__rmsd>  (40) 
7.9874927919791885

>  <meeko>  (40) 
{"free_energy": -7.61, "intermolecular_energy": -8.21, "internal_energy": -0.64, "cluster_size": 8, "cluster_id": 4, "rank_in_cluster": 2}

>  <energy>  (40) 
-7.95

>  <cluster_rmsd>  (40) 
0.66

>  <cluster>  (40) 
3

$$$$

     RDKit          3D

 44 47  0  0  0  0  0  0  0  0999 V2000
  146.3340   72.6620  219.4520 O   0  0  0  0  0  0  0  0  0  0  0  0
  145.1020   72.4500  219.6950 C   0  0  0  0  0  0  0  0  0  0  0  0
  144.2720   73.5930  220.1440 C   0  0  0  0  0  0  0  0  0  0  0  0
  142.8850   73.1240  220.3690 C   0  0  0  0  0  0  0  0  0  0  0  0
  141.9060   74.1340  220.8230 C   0  0  0  0  0  0  0  0  0  0  0  0
  140.7250   73.7590  221.4510 C   0  0  0  0  0  0  0  0  0  0  0  0
  139.8150   74.7270  221.8710 C   0  0  0  0  0  0  0  0  0  0  0  0
  140.0600   76.0800  221.6780 C   0  0  0  0  0  0  0  0  0  0  0  0
  141.2270   76.4560  221.0570 C   0  0  0  0  0  0  0  0  0  0  0  0
  141.5980   77.8400  220.7970 C   0  0  0  0  0  0  0  0  0  0  0  0
  141.8570   78.1880  219.6170 O   0  0  0  0  0  0  0  0  0  0  0  0
  141.6860   78.8320  221.8070 N   0  0  0  0  0  0  0  0  0  0  0  0
  142.0700   80.1780  221.4020 C   0  0  0  0  0  0  0  0  0  0  0  0
  141.8940   81.1540  222.5600 C   0  0  0  0  0  0  0  0  0  0  0  0
  140.5310   80.8990  223.0500 N   0  0  0  0  0  0  0  0  0  0  0  0
  140.6060   79.6970  223.8540 C   0  0  0  0  0  0  0  0  0  0  0  0
  141.4240   78.6120  223.2000 C   0  0  0  0  0  0  0  0  0  0  0  0
  142.1090   75.4820  220.6520 C   0  0  0  0  0  0  0  0  0  0  0  0
  142.4700   71.9380  220.2040 N   0  0  0  0  0  0  0  0  0  0  0  0
  143.2700   70.8530  219.7750 C   0  0  0  0  0  0  0  0  0  0  0  0
  142.7580   69.5820  219.6140 C   0  0  0  0  0  0  0  0  0  0  0  0
  143.5950   68.5460  219.1870 C   0  0  0  0  0  0  0  0  0  0  0  0
  142.9100   66.9460  218.9940 Cl  0  0  0  0  0  0  0  0  0  0  0  0
  144.9340   68.7690  218.9200 C   0  0  0  0  0  0  0  0  0  0  0  0
  145.9860   67.4760  218.3850 Cl  0  0  0  0  0  0  0  0  0  0  0  0
  145.4100   70.0530  219.0930 C   0  0  0  0  0  0  0  0  0  0  0  0
  144.5940   71.0990  219.5170 C   0  0  0  0  0  0  0  0  0  0  0  0
  144.6803   73.9994  221.0811 H   0  0  0  0  0  0  0  0  0  0  0  0
  144.2777   74.3803  219.3758 H   0  0  0  0  0  0  0  0  0  0  0  0
  140.5074   72.6937  221.6174 H   0  0  0  0  0  0  0  0  0  0  0  0
  138.8839   74.4130  222.3654 H   0  0  0  0  0  0  0  0  0  0  0  0
  139.3350   76.8354  222.0152 H   0  0  0  0  0  0  0  0  0  0  0  0
  143.1243   80.1748  221.0882 H   0  0  0  0  0  0  0  0  0  0  0  0
  141.4273   80.4958  220.5677 H   0  0  0  0  0  0  0  0  0  0  0  0
  142.6344   80.9585  223.3497 H   0  0  0  0  0  0  0  0  0  0  0  0
  142.0399   82.2000  222.2524 H   0  0  0  0  0  0  0  0  0  0  0  0
  139.9170   80.7660  222.2030 H   0  0  0  0  0  0  0  0  0  0  0  0
  141.0641   79.9486  224.8219 H   0  0  0  0  0  0  0  0  0  0  0  0
  139.5822   79.3140  223.9770 H   0  0  0  0  0  0  0  0  0  0  0  0
  142.3878   78.5424  223.7255 H   0  0  0  0  0  0  0  0  0  0  0  0
  140.8336   77.6864  223.2682 H   0  0  0  0  0  0  0  0  0  0  0  0
  143.0382   75.8032  220.1586 H   0  0  0  0  0  0  0  0  0  0  0  0
  141.6958   69.3842  219.8206 H   0  0  0  0  0  0  0  0  0  0  0  0
  146.4714   70.2574  218.8888 H   0  0  0  0  0  0  0  0  0  0  0  0
  1  2  2  0
  2  3  1  0
  3  4  1  0
  4  5  1  0
  5  6  2  0
  6  7  1  0
  7  8  2  0
  8  9  1  0
  9 10  1  0
 10 11  2  0
 10 12  1  0
 12 13  1  0
 13 14  1  0
 14 15  1  0
 15 16  1  0
 16 17  1  0
  9 18  2  0
  4 19  2  0
 19 20  1  0
 20 21  2  0
 21 22  1  0
 22 23  1  0
 22 24  2  0
 24 25  1  0
 24 26  1  0
 26 27  2  0
 27  2  1  0
 18  5  1  0
 27 20  1  0
 17 12  1  0
  3 28  1  0
  3 29  1  0
  6 30  1  0
  7 31  1  0
  8 32  1  0
 13 33  1  0
 13 34  1  0
 14 35  1  0
 14 36  1  0
 15 37  1  0
 16 38  1  0
 16 39  1  0
 17 40  1  0
 17 41  1  0
 18 42  1  0
 21 43  1  0
 26 44  1  0
M  END
>  <smiles>  (41) 
O=C1CC(c2cccc(C(=O)N3CCNCC3)c2)=Nc2cc(Cl)c(Cl)cc21

>  <score_type>  (41) 
oracle

>  <origin>  (41) 
autodockgpu

>  <m_score__min__energy>  (41) 
-8.2200000000000006

>  <m_primary>  (41) 
energy

>  <rmsd>  (41) 
7.999392116895552

>  <m_score__min__rmsd>  (41) 
7.999392116895552

>  <meeko>  (41) 
{"free_energy": -7.6, "intermolecular_energy": -8.19, "internal_energy": -0.64, "cluster_size": 8, "cluster_id": 4, "rank_in_cluster": 6}

>  <energy>  (41) 
-7.95

>  <cluster_rmsd>  (41) 
0.6

>  <cluster>  (41) 
3

$$$$

     RDKit          3D

 44 47  0  0  0  0  0  0  0  0999 V2000
  138.4880   69.7000  221.6140 O   0  0  0  0  0  0  0  0  0  0  0  0
  139.1500   70.6420  222.1590 C   0  0  0  0  0  0  0  0  0  0  0  0
  139.4640   71.8380  221.3420 C   0  0  0  0  0  0  0  0  0  0  0  0
  140.2350   72.7970  222.1670 C   0  0  0  0  0  0  0  0  0  0  0  0
  140.6410   74.0600  221.5150 C   0  0  0  0  0  0  0  0  0  0  0  0
  140.1790   75.2870  221.9740 C   0  0  0  0  0  0  0  0  0  0  0  0
  140.5730   76.4660  221.3450 C   0  0  0  0  0  0  0  0  0  0  0  0
  141.4300   76.4500  220.2530 C   0  0  0  0  0  0  0  0  0  0  0  0
  141.8890   75.2380  219.7950 C   0  0  0  0  0  0  0  0  0  0  0  0
  142.7900   75.0890  218.6600 C   0  0  0  0  0  0  0  0  0  0  0  0
  142.7800   75.9640  217.7570 O   0  0  0  0  0  0  0  0  0  0  0  0
  143.6910   74.0030  218.5100 N   0  0  0  0  0  0  0  0  0  0  0  0
  144.5330   73.9820  217.3220 C   0  0  0  0  0  0  0  0  0  0  0  0
  145.5860   72.8840  217.4330 C   0  0  0  0  0  0  0  0  0  0  0  0
  146.1920   73.0920  218.7570 N   0  0  0  0  0  0  0  0  0  0  0  0
  145.2660   72.5350  219.7210 C   0  0  0  0  0  0  0  0  0  0  0  0
  143.8350   72.9210  219.4410 C   0  0  0  0  0  0  0  0  0  0  0  0
  141.4860   74.0890  220.4320 C   0  0  0  0  0  0  0  0  0  0  0  0
  140.5730   72.6270  223.3770 N   0  0  0  0  0  0  0  0  0  0  0  0
  140.2680   71.4810  224.1480 C   0  0  0  0  0  0  0  0  0  0  0  0
  140.6650   71.3550  225.4640 C   0  0  0  0  0  0  0  0  0  0  0  0
  140.3350   70.2010  226.1800 C   0  0  0  0  0  0  0  0  0  0  0  0
  140.8560   70.0760  227.8480 Cl  0  0  0  0  0  0  0  0  0  0  0  0
  139.6150   69.1740  225.5950 C   0  0  0  0  0  0  0  0  0  0  0  0
  139.2010   67.7250  226.4870 Cl  0  0  0  0  0  0  0  0  0  0  0  0
  139.2370   69.3360  224.2780 C   0  0  0  0  0  0  0  0  0  0  0  0
  139.5540   70.4770  223.5470 C   0  0  0  0  0  0  0  0  0  0  0  0
  140.0611   71.5407  220.4673 H   0  0  0  0  0  0  0  0  0  0  0  0
  138.5310   72.3091  220.9990 H   0  0  0  0  0  0  0  0  0  0  0  0
  139.4992   75.3279  222.8378 H   0  0  0  0  0  0  0  0  0  0  0  0
  140.1974   77.4290  221.7212 H   0  0  0  0  0  0  0  0  0  0  0  0
  141.7352   77.3872  219.7647 H   0  0  0  0  0  0  0  0  0  0  0  0
  143.9065   73.7947  216.4375 H   0  0  0  0  0  0  0  0  0  0  0  0
  145.0404   74.9535  217.2283 H   0  0  0  0  0  0  0  0  0  0  0  0
  145.1199   71.8896  217.3700 H   0  0  0  0  0  0  0  0  0  0  0  0
  146.3265   72.9291  216.6208 H   0  0  0  0  0  0  0  0  0  0  0  0
  146.3120   74.1320  218.8840 H   0  0  0  0  0  0  0  0  0  0  0  0
  145.3468   71.4383  219.6941 H   0  0  0  0  0  0  0  0  0  0  0  0
  145.5322   72.9374  220.7096 H   0  0  0  0  0  0  0  0  0  0  0  0
  143.3139   72.0425  219.0327 H   0  0  0  0  0  0  0  0  0  0  0  0
  143.4070   73.2642  220.3944 H   0  0  0  0  0  0  0  0  0  0  0  0
  141.8647   73.1296  220.0498 H   0  0  0  0  0  0  0  0  0  0  0  0
  141.2387   72.1596  225.9472 H   0  0  0  0  0  0  0  0  0  0  0  0
  138.6645   68.5345  223.7882 H   0  0  0  0  0  0  0  0  0  0  0  0
  1  2  2  0
  2  3  1  0
  3  4  1  0
  4  5  1  0
  5  6  2  0
  6  7  1  0
  7  8  2  0
  8  9  1  0
  9 10  1  0
 10 11  2  0
 10 12  1  0
 12 13  1  0
 13 14  1  0
 14 15  1  0
 15 16  1  0
 16 17  1  0
  9 18  2  0
  4 19  2  0
 19 20  1  0
 20 21  2  0
 21 22  1  0
 22 23  1  0
 22 24  2  0
 24 25  1  0
 24 26  1  0
 26 27  2  0
 27  2  1  0
 18  5  1  0
 27 20  1  0
 17 12  1  0
  3 28  1  0
  3 29  1  0
  6 30  1  0
  7 31  1  0
  8 32  1  0
 13 33  1  0
 13 34  1  0
 14 35  1  0
 14 36  1  0
 15 37  1  0
 16 38  1  0
 16 39  1  0
 17 40  1  0
 17 41  1  0
 18 42  1  0
 21 43  1  0
 26 44  1  0
M  END
>  <smiles>  (42) 
O=C1CC(c2cccc(C(=O)N3CCNCC3)c2)=Nc2cc(Cl)c(Cl)cc21

>  <score_type>  (42) 
oracle

>  <origin>  (42) 
autodockgpu

>  <m_score__min__energy>  (42) 
-8.2200000000000006

>  <m_primary>  (42) 
energy

>  <rmsd>  (42) 
6.217217554381961

>  <m_score__min__rmsd>  (42) 
6.217217554381961

>  <meeko>  (42) 
{"free_energy": -8.19, "intermolecular_energy": -8.79, "internal_energy": -0.34, "cluster_size": 9, "cluster_id": 2, "rank_in_cluster": 4}

>  <energy>  (42) 
-7.91

>  <cluster_rmsd>  (42) 
0.18

>  <cluster>  (42) 
3

$$$$

     RDKit          3D

 44 47  0  0  0  0  0  0  0  0999 V2000
  139.0030   69.4520  221.4940 O   0  0  0  0  0  0  0  0  0  0  0  0
  139.4870   70.4810  222.0700 C   0  0  0  0  0  0  0  0  0  0  0  0
  139.7270   71.6910  221.2480 C   0  0  0  0  0  0  0  0  0  0  0  0
  140.2890   72.7560  222.1120 C   0  0  0  0  0  0  0  0  0  0  0  0
  140.5950   74.0480  221.4620 C   0  0  0  0  0  0  0  0  0  0  0  0
  141.3300   74.1040  220.2840 C   0  0  0  0  0  0  0  0  0  0  0  0
  141.6080   75.3320  219.6880 C   0  0  0  0  0  0  0  0  0  0  0  0
  141.1640   76.5230  220.2460 C   0  0  0  0  0  0  0  0  0  0  0  0
  140.4370   76.4720  221.4120 C   0  0  0  0  0  0  0  0  0  0  0  0
  139.9170   77.6490  222.0940 C   0  0  0  0  0  0  0  0  0  0  0  0
  138.7550   77.6090  222.5740 O   0  0  0  0  0  0  0  0  0  0  0  0
  140.6500   78.8530  222.2530 N   0  0  0  0  0  0  0  0  0  0  0  0
  140.0020   79.9520  222.9570 C   0  0  0  0  0  0  0  0  0  0  0  0
  141.0010   81.0710  223.2330 C   0  0  0  0  0  0  0  0  0  0  0  0
  142.1540   80.3900  223.8420 N   0  0  0  0  0  0  0  0  0  0  0  0
  142.8860   79.7770  222.7530 C   0  0  0  0  0  0  0  0  0  0  0  0
  141.9830   79.0730  221.7710 C   0  0  0  0  0  0  0  0  0  0  0  0
  140.1760   75.2490  221.9810 C   0  0  0  0  0  0  0  0  0  0  0  0
  140.5260   72.6540  223.3530 N   0  0  0  0  0  0  0  0  0  0  0  0
  140.2930   71.4940  224.1270 C   0  0  0  0  0  0  0  0  0  0  0  0
  140.5730   71.4440  225.4780 C   0  0  0  0  0  0  0  0  0  0  0  0
  140.3230   70.2710  226.1960 C   0  0  0  0  0  0  0  0  0  0  0  0
  140.6910   70.2450  227.9080 Cl  0  0  0  0  0  0  0  0  0  0  0  0
  139.7960   69.1500  225.5780 C   0  0  0  0  0  0  0  0  0  0  0  0
  139.4810   67.6780  226.4720 Cl  0  0  0  0  0  0  0  0  0  0  0  0
  139.5300   69.2370  224.2270 C   0  0  0  0  0  0  0  0  0  0  0  0
  139.7710   70.3960  223.4930 C   0  0  0  0  0  0  0  0  0  0  0  0
  140.4385   71.4551  220.4430 H   0  0  0  0  0  0  0  0  0  0  0  0
  138.7806   72.0329  220.8037 H   0  0  0  0  0  0  0  0  0  0  0  0
  141.6937   73.1751  219.8204 H   0  0  0  0  0  0  0  0  0  0  0  0
  142.1915   75.3585  218.7559 H   0  0  0  0  0  0  0  0  0  0  0  0
  141.3889   77.4867  219.7658 H   0  0  0  0  0  0  0  0  0  0  0  0
  139.1808   80.3439  222.3390 H   0  0  0  0  0  0  0  0  0  0  0  0
  139.6104   79.5797  223.9152 H   0  0  0  0  0  0  0  0  0  0  0  0
  141.2936   81.5710  222.2979 H   0  0  0  0  0  0  0  0  0  0  0  0
  140.5845   81.8538  223.8840 H   0  0  0  0  0  0  0  0  0  0  0  0
  141.7720   79.6700  224.5110 H   0  0  0  0  0  0  0  0  0  0  0  0
  143.4446   80.5599  222.2192 H   0  0  0  0  0  0  0  0  0  0  0  0
  143.5589   79.0227  223.1868 H   0  0  0  0  0  0  0  0  0  0  0  0
  141.9235   79.6834  220.8578 H   0  0  0  0  0  0  0  0  0  0  0  0
  142.4227   78.0807  221.5917 H   0  0  0  0  0  0  0  0  0  0  0  0
  139.5931   75.2302  222.9137 H   0  0  0  0  0  0  0  0  0  0  0  0
  140.9915   72.3244  225.9877 H   0  0  0  0  0  0  0  0  0  0  0  0
  139.1127   68.3597  223.7111 H   0  0  0  0  0  0  0  0  0  0  0  0
  1  2  2  0
  2  3  1  0
  3  4  1  0
  4  5  1  0
  5  6  2  0
  6  7  1  0
  7  8  2  0
  8  9  1  0
  9 10  1  0
 10 11  2  0
 10 12  1  0
 12 13  1  0
 13 14  1  0
 14 15  1  0
 15 16  1  0
 16 17  1  0
  9 18  2  0
  4 19  2  0
 19 20  1  0
 20 21  2  0
 21 22  1  0
 22 23  1  0
 22 24  2  0
 24 25  1  0
 24 26  1  0
 26 27  2  0
 27  2  1  0
 18  5  1  0
 27 20  1  0
 17 12  1  0
  3 28  1  0
  3 29  1  0
  6 30  1  0
  7 31  1  0
  8 32  1  0
 13 33  1  0
 13 34  1  0
 14 35  1  0
 14 36  1  0
 15 37  1  0
 16 38  1  0
 16 39  1  0
 17 40  1  0
 17 41  1  0
 18 42  1  0
 21 43  1  0
 26 44  1  0
M  END
>  <smiles>  (43) 
O=C1CC(c2cccc(C(=O)N3CCNCC3)c2)=Nc2cc(Cl)c(Cl)cc21

>  <score_type>  (43) 
oracle

>  <origin>  (43) 
autodockgpu

>  <m_score__min__energy>  (43) 
-8.2200000000000006

>  <m_primary>  (43) 
energy

>  <rmsd>  (43) 
6.320083342098168

>  <m_score__min__rmsd>  (43) 
6.320083342098168

>  <meeko>  (43) 
{"free_energy": -8.2, "intermolecular_energy": -8.79, "internal_energy": -0.56, "cluster_size": 25, "cluster_id": 1, "rank_in_cluster": 17}

>  <energy>  (43) 
-7.61

>  <cluster_rmsd>  (43) 
0.0

>  <cluster>  (43) 
4

$$$$

     RDKit          3D

 44 47  0  0  0  0  0  0  0  0999 V2000
  138.9200   69.4240  221.5300 O   0  0  0  0  0  0  0  0  0  0  0  0
  139.3630   70.4770  222.0940 C   0  0  0  0  0  0  0  0  0  0  0  0
  139.5280   71.6960  221.2650 C   0  0  0  0  0  0  0  0  0  0  0  0
  140.0520   72.7900  222.1160 C   0  0  0  0  0  0  0  0  0  0  0  0
  140.2820   74.0930  221.4570 C   0  0  0  0  0  0  0  0  0  0  0  0
  140.8440   74.1680  220.1890 C   0  0  0  0  0  0  0  0  0  0  0  0
  141.0530   75.4070  219.5860 C   0  0  0  0  0  0  0  0  0  0  0  0
  140.7090   76.5890  220.2270 C   0  0  0  0  0  0  0  0  0  0  0  0
  140.1530   76.5190  221.4820 C   0  0  0  0  0  0  0  0  0  0  0  0
  139.7510   77.6860  222.2570 C   0  0  0  0  0  0  0  0  0  0  0  0
  138.6360   77.6730  222.8390 O   0  0  0  0  0  0  0  0  0  0  0  0
  140.5500   78.8490  222.3960 N   0  0  0  0  0  0  0  0  0  0  0  0
  140.0190   79.9420  223.2010 C   0  0  0  0  0  0  0  0  0  0  0  0
  141.0900   81.0040  223.4300 C   0  0  0  0  0  0  0  0  0  0  0  0
  142.2600   80.2480  223.9020 N   0  0  0  0  0  0  0  0  0  0  0  0
  142.8620   79.6540  222.7260 C   0  0  0  0  0  0  0  0  0  0  0  0
  141.8430   79.0330  221.8040 C   0  0  0  0  0  0  0  0  0  0  0  0
  139.9570   75.2860  222.0560 C   0  0  0  0  0  0  0  0  0  0  0  0
  140.3180   72.7030  223.3520 N   0  0  0  0  0  0  0  0  0  0  0  0
  140.1570   71.5350  224.1340 C   0  0  0  0  0  0  0  0  0  0  0  0
  140.4640   71.5040  225.4790 C   0  0  0  0  0  0  0  0  0  0  0  0
  140.2850   70.3220  226.2040 C   0  0  0  0  0  0  0  0  0  0  0  0
  140.6860   70.3200  227.9090 Cl  0  0  0  0  0  0  0  0  0  0  0  0
  139.8040   69.1750  225.5990 C   0  0  0  0  0  0  0  0  0  0  0  0
  139.5780   67.6920  226.5020 Cl  0  0  0  0  0  0  0  0  0  0  0  0
  139.5080   69.2450  224.2530 C   0  0  0  0  0  0  0  0  0  0  0  0
  139.6780   70.4110  223.5120 C   0  0  0  0  0  0  0  0  0  0  0  0
  140.2356   71.4933  220.4476 H   0  0  0  0  0  0  0  0  0  0  0  0
  138.5578   71.9893  220.8377 H   0  0  0  0  0  0  0  0  0  0  0  0
  141.1251   73.2461  219.6588 H   0  0  0  0  0  0  0  0  0  0  0  0
  141.4997   75.4490  218.5816 H   0  0  0  0  0  0  0  0  0  0  0  0
  140.8778   77.5612  219.7409 H   0  0  0  0  0  0  0  0  0  0  0  0
  139.1648   80.3959  222.6772 H   0  0  0  0  0  0  0  0  0  0  0  0
  139.6977   79.5440  224.1748 H   0  0  0  0  0  0  0  0  0  0  0  0
  141.3203   81.5328  222.4933 H   0  0  0  0  0  0  0  0  0  0  0  0
  140.7705   81.7735  224.1481 H   0  0  0  0  0  0  0  0  0  0  0  0
  141.9060   79.5160  224.5730 H   0  0  0  0  0  0  0  0  0  0  0  0
  143.4053   80.4359  222.1752 H   0  0  0  0  0  0  0  0  0  0  0  0
  143.5363   78.8537  223.0649 H   0  0  0  0  0  0  0  0  0  0  0  0
  141.7305   79.6848  220.9251 H   0  0  0  0  0  0  0  0  0  0  0  0
  142.2183   78.0316  221.5465 H   0  0  0  0  0  0  0  0  0  0  0  0
  139.5107   75.2519  223.0608 H   0  0  0  0  0  0  0  0  0  0  0  0
  140.8480   72.4056  225.9787 H   0  0  0  0  0  0  0  0  0  0  0  0
  139.1238   68.3468  223.7473 H   0  0  0  0  0  0  0  0  0  0  0  0
  1  2  2  0
  2  3  1  0
  3  4  1  0
  4  5  1  0
  5  6  2  0
  6  7  1  0
  7  8  2  0
  8  9  1  0
  9 10  1  0
 10 11  2  0
 10 12  1  0
 12 13  1  0
 13 14  1  0
 14 15  1  0
 15 16  1  0
 16 17  1  0
  9 18  2  0
  4 19  2  0
 19 20  1  0
 20 21  2  0
 21 22  1  0
 22 23  1  0
 22 24  2  0
 24 25  1  0
 24 26  1  0
 26 27  2  0
 27  2  1  0
 18  5  1  0
 27 20  1  0
 17 12  1  0
  3 28  1  0
  3 29  1  0
  6 30  1  0
  7 31  1  0
  8 32  1  0
 13 33  1  0
 13 34  1  0
 14 35  1  0
 14 36  1  0
 15 37  1  0
 16 38  1  0
 16 39  1  0
 17 40  1  0
 17 41  1  0
 18 42  1  0
 21 43  1  0
 26 44  1  0
M  END
>  <smiles>  (44) 
O=C1CC(c2cccc(C(=O)N3CCNCC3)c2)=Nc2cc(Cl)c(Cl)cc21

>  <score_type>  (44) 
oracle

>  <origin>  (44) 
autodockgpu

>  <m_score__min__energy>  (44) 
-8.2200000000000006

>  <m_primary>  (44) 
energy

>  <rmsd>  (44) 
6.315181504752565

>  <m_score__min__rmsd>  (44) 
6.315181504752565

>  <meeko>  (44) 
{"free_energy": -8.12, "intermolecular_energy": -8.72, "internal_energy": -0.58, "cluster_size": 25, "cluster_id": 1, "rank_in_cluster": 23}

>  <energy>  (44) 
-7.61

>  <cluster_rmsd>  (44) 
0.02

>  <cluster>  (44) 
4

$$$$

     RDKit          3D

 44 47  0  0  0  0  0  0  0  0999 V2000
  139.0070   69.5170  221.4900 O   0  0  0  0  0  0  0  0  0  0  0  0
  139.5320   70.5200  222.0740 C   0  0  0  0  0  0  0  0  0  0  0  0
  139.8280   71.7240  221.2620 C   0  0  0  0  0  0  0  0  0  0  0  0
  140.4310   72.7580  222.1350 C   0  0  0  0  0  0  0  0  0  0  0  0
  140.7970   74.0390  221.4950 C   0  0  0  0  0  0  0  0  0  0  0  0
  141.6370   74.0770  220.3900 C   0  0  0  0  0  0  0  0  0  0  0  0
  141.9700   75.2950  219.8020 C   0  0  0  0  0  0  0  0  0  0  0  0
  141.4770   76.4940  220.2970 C   0  0  0  0  0  0  0  0  0  0  0  0
  140.6450   76.4620  221.3910 C   0  0  0  0  0  0  0  0  0  0  0  0
  140.0630   77.6490  222.0020 C   0  0  0  0  0  0  0  0  0  0  0  0
  138.8680   77.6090  222.3920 O   0  0  0  0  0  0  0  0  0  0  0  0
  140.7720   78.8640  222.1880 N   0  0  0  0  0  0  0  0  0  0  0  0
  140.0630   79.9720  222.8130 C   0  0  0  0  0  0  0  0  0  0  0  0
  141.0280   81.1070  223.1390 C   0  0  0  0  0  0  0  0  0  0  0  0
  142.1370   80.4530  223.8500 N   0  0  0  0  0  0  0  0  0  0  0  0
  142.9550   79.8220  222.8350 C   0  0  0  0  0  0  0  0  0  0  0  0
  142.1370   79.0850  221.8050 C   0  0  0  0  0  0  0  0  0  0  0  0
  140.3310   75.2480  221.9530 C   0  0  0  0  0  0  0  0  0  0  0  0
  140.6570   72.6380  223.3770 N   0  0  0  0  0  0  0  0  0  0  0  0
  140.3700   71.4830  224.1430 C   0  0  0  0  0  0  0  0  0  0  0  0
  140.6400   71.4130  225.4940 C   0  0  0  0  0  0  0  0  0  0  0  0
  140.3350   70.2480  226.2030 C   0  0  0  0  0  0  0  0  0  0  0  0
  140.6920   70.1960  227.9170 Cl  0  0  0  0  0  0  0  0  0  0  0  0
  139.7640   69.1550  225.5760 C   0  0  0  0  0  0  0  0  0  0  0  0
  139.3800   67.6920  226.4590 Cl  0  0  0  0  0  0  0  0  0  0  0  0
  139.5090   69.2620  224.2230 C   0  0  0  0  0  0  0  0  0  0  0  0
  139.8040   70.4130  223.4990 C   0  0  0  0  0  0  0  0  0  0  0  0
  140.5326   71.4630  220.4586 H   0  0  0  0  0  0  0  0  0  0  0  0
  138.8991   72.1094  220.8163 H   0  0  0  0  0  0  0  0  0  0  0  0
  142.0413   73.1410  219.9771 H   0  0  0  0  0  0  0  0  0  0  0  0
  142.6373   75.3067  218.9276 H   0  0  0  0  0  0  0  0  0  0  0  0
  141.7462   77.4499  219.8240 H   0  0  0  0  0  0  0  0  0  0  0  0
  139.2891   80.3414  222.1240 H   0  0  0  0  0  0  0  0  0  0  0  0
  139.6015   79.6179  223.7466 H   0  0  0  0  0  0  0  0  0  0  0  0
  141.3870   81.5891  222.2178 H   0  0  0  0  0  0  0  0  0  0  0  0
  140.5556   81.8992  223.7383 H   0  0  0  0  0  0  0  0  0  0  0  0
  141.7100   79.7450  224.5050 H   0  0  0  0  0  0  0  0  0  0  0  0
  143.5455   80.5981  222.3261 H   0  0  0  0  0  0  0  0  0  0  0  0
  143.5992   79.0854  223.3374 H   0  0  0  0  0  0  0  0  0  0  0  0
  142.1438   79.6716  220.8745 H   0  0  0  0  0  0  0  0  0  0  0  0
  142.5971   78.0930  221.6859 H   0  0  0  0  0  0  0  0  0  0  0  0
  139.6628   75.2436  222.8268 H   0  0  0  0  0  0  0  0  0  0  0  0
  141.0938   72.2712  226.0114 H   0  0  0  0  0  0  0  0  0  0  0  0
  139.0567   68.4070  223.6991 H   0  0  0  0  0  0  0  0  0  0  0  0
  1  2  2  0
  2  3  1  0
  3  4  1  0
  4  5  1  0
  5  6  2  0
  6  7  1  0
  7  8  2  0
  8  9  1  0
  9 10  1  0
 10 11  2  0
 10 12  1  0
 12 13  1  0
 13 14  1  0
 14 15  1  0
 15 16  1  0
 16 17  1  0
  9 18  2  0
  4 19  2  0
 19 20  1  0
 20 21  2  0
 21 22  1  0
 22 23  1  0
 22 24  2  0
 24 25  1  0
 24 26  1  0
 26 27  2  0
 27  2  1  0
 18  5  1  0
 27 20  1  0
 17 12  1  0
  3 28  1  0
  3 29  1  0
  6 30  1  0
  7 31  1  0
  8 32  1  0
 13 33  1  0
 13 34  1  0
 14 35  1  0
 14 36  1  0
 15 37  1  0
 16 38  1  0
 16 39  1  0
 17 40  1  0
 17 41  1  0
 18 42  1  0
 21 43  1  0
 26 44  1  0
M  END
>  <smiles>  (45) 
O=C1CC(c2cccc(C(=O)N3CCNCC3)c2)=Nc2cc(Cl)c(Cl)cc21

>  <score_type>  (45) 
oracle

>  <origin>  (45) 
autodockgpu

>  <m_score__min__energy>  (45) 
-8.2200000000000006

>  <m_primary>  (45) 
energy

>  <rmsd>  (45) 
6.34873406229909

>  <m_score__min__rmsd>  (45) 
6.34873406229909

>  <meeko>  (45) 
{"free_energy": -8.21, "intermolecular_energy": -8.81, "internal_energy": -0.55, "cluster_size": 25, "cluster_id": 1, "rank_in_cluster": 2}

>  <energy>  (45) 
-7.6

>  <cluster_rmsd>  (45) 
0.04

>  <cluster>  (45) 
4

$$$$

     RDKit          3D

 44 47  0  0  0  0  0  0  0  0999 V2000
  139.0340   69.4550  221.4850 O   0  0  0  0  0  0  0  0  0  0  0  0
  139.5250   70.4800  222.0620 C   0  0  0  0  0  0  0  0  0  0  0  0
  139.7780   71.6880  221.2410 C   0  0  0  0  0  0  0  0  0  0  0  0
  140.3480   72.7480  222.1060 C   0  0  0  0  0  0  0  0  0  0  0  0
  140.6670   74.0370  221.4560 C   0  0  0  0  0  0  0  0  0  0  0  0
  141.4270   74.0870  220.2940 C   0  0  0  0  0  0  0  0  0  0  0  0
  141.7170   75.3130  219.6980 C   0  0  0  0  0  0  0  0  0  0  0  0
  141.2610   76.5060  220.2420 C   0  0  0  0  0  0  0  0  0  0  0  0
  140.5100   76.4610  221.3920 C   0  0  0  0  0  0  0  0  0  0  0  0
  139.9740   77.6410  222.0570 C   0  0  0  0  0  0  0  0  0  0  0  0
  138.8080   77.5970  222.5250 O   0  0  0  0  0  0  0  0  0  0  0  0
  140.6980   78.8510  222.2120 N   0  0  0  0  0  0  0  0  0  0  0  0
  140.0360   79.9510  222.8990 C   0  0  0  0  0  0  0  0  0  0  0  0
  141.0250   81.0790  223.1760 C   0  0  0  0  0  0  0  0  0  0  0  0
  142.1760   80.4120  223.8030 N   0  0  0  0  0  0  0  0  0  0  0  0
  142.9230   79.7930  222.7270 C   0  0  0  0  0  0  0  0  0  0  0  0
  142.0350   79.0740  221.7430 C   0  0  0  0  0  0  0  0  0  0  0  0
  140.2370   75.2400  221.9610 C   0  0  0  0  0  0  0  0  0  0  0  0
  140.5810   72.6440  223.3470 N   0  0  0  0  0  0  0  0  0  0  0  0
  140.3350   71.4850  224.1220 C   0  0  0  0  0  0  0  0  0  0  0  0
  140.6110   71.4340  225.4730 C   0  0  0  0  0  0  0  0  0  0  0  0
  140.3480   70.2630  226.1900 C   0  0  0  0  0  0  0  0  0  0  0  0
  140.7110   70.2340  227.9030 Cl  0  0  0  0  0  0  0  0  0  0  0  0
  139.8130   69.1470  225.5710 C   0  0  0  0  0  0  0  0  0  0  0  0
  139.4820   67.6780  226.4650 Cl  0  0  0  0  0  0  0  0  0  0  0  0
  139.5510   69.2360  224.2190 C   0  0  0  0  0  0  0  0  0  0  0  0
  139.8050   70.3920  223.4860 C   0  0  0  0  0  0  0  0  0  0  0  0
  140.4890   71.4456  220.4374 H   0  0  0  0  0  0  0  0  0  0  0  0
  138.8355   72.0387  220.7952 H   0  0  0  0  0  0  0  0  0  0  0  0
  141.8010   73.1560  219.8430 H   0  0  0  0  0  0  0  0  0  0  0  0
  142.3194   75.3358  218.7779 H   0  0  0  0  0  0  0  0  0  0  0  0
  141.4960   77.4676  219.7624 H   0  0  0  0  0  0  0  0  0  0  0  0
  139.2189   80.3323  222.2689 H   0  0  0  0  0  0  0  0  0  0  0  0
  139.6366   79.5844  223.8561 H   0  0  0  0  0  0  0  0  0  0  0  0
  141.3241   81.5728  222.2397 H   0  0  0  0  0  0  0  0  0  0  0  0
  140.5962   81.8642  223.8160 H   0  0  0  0  0  0  0  0  0  0  0  0
  141.7910   79.6960  224.4740 H   0  0  0  0  0  0  0  0  0  0  0  0
  143.4821   80.5744  222.1913 H   0  0  0  0  0  0  0  0  0  0  0  0
  143.5961   79.0471  223.1750 H   0  0  0  0  0  0  0  0  0  0  0  0
  141.9822   79.6747  220.8230 H   0  0  0  0  0  0  0  0  0  0  0  0
  142.4822   78.0824  221.5793 H   0  0  0  0  0  0  0  0  0  0  0  0
  139.6346   75.2251  222.8813 H   0  0  0  0  0  0  0  0  0  0  0  0
  141.0360   72.3108  225.9836 H   0  0  0  0  0  0  0  0  0  0  0  0
  139.1264   68.3627  223.7022 H   0  0  0  0  0  0  0  0  0  0  0  0
  1  2  2  0
  2  3  1  0
  3  4  1  0
  4  5  1  0
  5  6  2  0
  6  7  1  0
  7  8  2  0
  8  9  1  0
  9 10  1  0
 10 11  2  0
 10 12  1  0
 12 13  1  0
 13 14  1  0
 14 15  1  0
 15 16  1  0
 16 17  1  0
  9 18  2  0
  4 19  2  0
 19 20  1  0
 20 21  2  0
 21 22  1  0
 22 23  1  0
 22 24  2  0
 24 25  1  0
 24 26  1  0
 26 27  2  0
 27  2  1  0
 18  5  1  0
 27 20  1  0
 17 12  1  0
  3 28  1  0
  3 29  1  0
  6 30  1  0
  7 31  1  0
  8 32  1  0
 13 33  1  0
 13 34  1  0
 14 35  1  0
 14 36  1  0
 15 37  1  0
 16 38  1  0
 16 39  1  0
 17 40  1  0
 17 41  1  0
 18 42  1  0
 21 43  1  0
 26 44  1  0
M  END
>  <smiles>  (46) 
O=C1CC(c2cccc(C(=O)N3CCNCC3)c2)=Nc2cc(Cl)c(Cl)cc21

>  <score_type>  (46) 
oracle

>  <origin>  (46) 
autodockgpu

>  <m_score__min__energy>  (46) 
-8.2200000000000006

>  <m_primary>  (46) 
energy

>  <rmsd>  (46) 
6.3210931146366285

>  <m_score__min__rmsd>  (46) 
6.3210931146366285

>  <meeko>  (46) 
{"free_energy": -8.21, "intermolecular_energy": -8.81, "internal_energy": -0.55, "cluster_size": 25, "cluster_id": 1, "rank_in_cluster": 9}

>  <energy>  (46) 
-7.6

>  <cluster_rmsd>  (46) 
0.07

>  <cluster>  (46) 
4

$$$$

     RDKit          3D

 44 47  0  0  0  0  0  0  0  0999 V2000
  138.9770   69.3970  221.5210 O   0  0  0  0  0  0  0  0  0  0  0  0
  139.4250   70.4490  222.0850 C   0  0  0  0  0  0  0  0  0  0  0  0
  139.6050   71.6630  221.2540 C   0  0  0  0  0  0  0  0  0  0  0  0
  140.1320   72.7560  222.1040 C   0  0  0  0  0  0  0  0  0  0  0  0
  140.3770   74.0550  221.4430 C   0  0  0  0  0  0  0  0  0  0  0  0
  141.0050   74.1250  220.2060 C   0  0  0  0  0  0  0  0  0  0  0  0
  141.2260   75.3600  219.6000 C   0  0  0  0  0  0  0  0  0  0  0  0
  140.8300   76.5440  220.2070 C   0  0  0  0  0  0  0  0  0  0  0  0
  140.2080   76.4790  221.4310 C   0  0  0  0  0  0  0  0  0  0  0  0
  139.7470   77.6470  222.1690 C   0  0  0  0  0  0  0  0  0  0  0  0
  138.6070   77.6190  222.7010 O   0  0  0  0  0  0  0  0  0  0  0  0
  140.5140   78.8300  222.3260 N   0  0  0  0  0  0  0  0  0  0  0  0
  139.9250   79.9220  223.0890 C   0  0  0  0  0  0  0  0  0  0  0  0
  140.9610   81.0110  223.3500 C   0  0  0  0  0  0  0  0  0  0  0  0
  142.1240   80.2880  223.8850 N   0  0  0  0  0  0  0  0  0  0  0  0
  142.7910   79.6900  222.7470 C   0  0  0  0  0  0  0  0  0  0  0  0
  141.8290   79.0340  221.7900 C   0  0  0  0  0  0  0  0  0  0  0  0
  140.0010   75.2490  222.0090 C   0  0  0  0  0  0  0  0  0  0  0  0
  140.3880   72.6710  223.3430 N   0  0  0  0  0  0  0  0  0  0  0  0
  140.2130   71.5070  224.1270 C   0  0  0  0  0  0  0  0  0  0  0  0
  140.5100   71.4780  225.4740 C   0  0  0  0  0  0  0  0  0  0  0  0
  140.3170   70.3000  226.2020 C   0  0  0  0  0  0  0  0  0  0  0  0
  140.7060   70.3010  227.9100 Cl  0  0  0  0  0  0  0  0  0  0  0  0
  139.8310   69.1540  225.5970 C   0  0  0  0  0  0  0  0  0  0  0  0
  139.5870   67.6760  226.5040 Cl  0  0  0  0  0  0  0  0  0  0  0  0
  139.5450   69.2220  224.2490 C   0  0  0  0  0  0  0  0  0  0  0  0
  139.7290   70.3840  223.5050 C   0  0  0  0  0  0  0  0  0  0  0  0
  140.3162   71.4518  220.4419 H   0  0  0  0  0  0  0  0  0  0  0  0
  138.6397   71.9625  220.8199 H   0  0  0  0  0  0  0  0  0  0  0  0
  141.3291   73.2020  219.7030 H   0  0  0  0  0  0  0  0  0  0  0  0
  141.7246   75.3976  218.6202 H   0  0  0  0  0  0  0  0  0  0  0  0
  141.0101   77.5132  219.7190 H   0  0  0  0  0  0  0  0  0  0  0  0
  139.0859   80.3494  222.5206 H   0  0  0  0  0  0  0  0  0  0  0  0
  139.5693   79.5307  224.0536 H   0  0  0  0  0  0  0  0  0  0  0  0
  141.2219   81.5319  222.4169 H   0  0  0  0  0  0  0  0  0  0  0  0
  140.5928   81.7832  224.0414 H   0  0  0  0  0  0  0  0  0  0  0  0
  141.7560   79.5580  224.5520 H   0  0  0  0  0  0  0  0  0  0  0  0
  143.3424   80.4753  222.2092 H   0  0  0  0  0  0  0  0  0  0  0  0
  143.4655   78.9094  223.1286 H   0  0  0  0  0  0  0  0  0  0  0  0
  141.7427   79.6705  220.8970 H   0  0  0  0  0  0  0  0  0  0  0  0
  142.2369   78.0375  221.5650 H   0  0  0  0  0  0  0  0  0  0  0  0
  139.5017   75.2188  222.9887 H   0  0  0  0  0  0  0  0  0  0  0  0
  140.8972   72.3784  225.9734 H   0  0  0  0  0  0  0  0  0  0  0  0
  139.1574   68.3251  223.7437 H   0  0  0  0  0  0  0  0  0  0  0  0
  1  2  2  0
  2  3  1  0
  3  4  1  0
  4  5  1  0
  5  6  2  0
  6  7  1  0
  7  8  2  0
  8  9  1  0
  9 10  1  0
 10 11  2  0
 10 12  1  0
 12 13  1  0
 13 14  1  0
 14 15  1  0
 15 16  1  0
 16 17  1  0
  9 18  2  0
  4 19  2  0
 19 20  1  0
 20 21  2  0
 21 22  1  0
 22 23  1  0
 22 24  2  0
 24 25  1  0
 24 26  1  0
 26 27  2  0
 27  2  1  0
 18  5  1  0
 27 20  1  0
 17 12  1  0
  3 28  1  0
  3 29  1  0
  6 30  1  0
  7 31  1  0
  8 32  1  0
 13 33  1  0
 13 34  1  0
 14 35  1  0
 14 36  1  0
 15 37  1  0
 16 38  1  0
 16 39  1  0
 17 40  1  0
 17 41  1  0
 18 42  1  0
 21 43  1  0
 26 44  1  0
M  END
>  <smiles>  (47) 
O=C1CC(c2cccc(C(=O)N3CCNCC3)c2)=Nc2cc(Cl)c(Cl)cc21

>  <score_type>  (47) 
oracle

>  <origin>  (47) 
autodockgpu

>  <m_score__min__energy>  (47) 
-8.2200000000000006

>  <m_primary>  (47) 
energy

>  <rmsd>  (47) 
6.288101615976192

>  <m_score__min__rmsd>  (47) 
6.288101615976192

>  <meeko>  (47) 
{"free_energy": -8.15, "intermolecular_energy": -8.75, "internal_energy": -0.58, "cluster_size": 25, "cluster_id": 1, "rank_in_cluster": 22}

>  <energy>  (47) 
-7.6

>  <cluster_rmsd>  (47) 
0.07

>  <cluster>  (47) 
4

$$$$

     RDKit          3D

 44 47  0  0  0  0  0  0  0  0999 V2000
  139.0210   69.4550  221.4800 O   0  0  0  0  0  0  0  0  0  0  0  0
  139.5120   70.4790  222.0570 C   0  0  0  0  0  0  0  0  0  0  0  0
  139.7570   71.6900  221.2390 C   0  0  0  0  0  0  0  0  0  0  0  0
  140.3260   72.7500  222.1040 C   0  0  0  0  0  0  0  0  0  0  0  0
  140.6390   74.0410  221.4560 C   0  0  0  0  0  0  0  0  0  0  0  0
  141.3860   74.0970  220.2860 C   0  0  0  0  0  0  0  0  0  0  0  0
  141.6700   75.3250  219.6920 C   0  0  0  0  0  0  0  0  0  0  0  0
  141.2190   76.5160  220.2450 C   0  0  0  0  0  0  0  0  0  0  0  0
  140.4790   76.4660  221.4030 C   0  0  0  0  0  0  0  0  0  0  0  0
  139.9510   77.6430  222.0790 C   0  0  0  0  0  0  0  0  0  0  0  0
  138.7880   77.5970  222.5580 O   0  0  0  0  0  0  0  0  0  0  0  0
  140.6760   78.8520  222.2320 N   0  0  0  0  0  0  0  0  0  0  0  0
  140.0210   79.9500  222.9300 C   0  0  0  0  0  0  0  0  0  0  0  0
  141.0120   81.0770  223.2020 C   0  0  0  0  0  0  0  0  0  0  0  0
  142.1690   80.4060  223.8150 N   0  0  0  0  0  0  0  0  0  0  0  0
  142.9060   79.7930  222.7290 C   0  0  0  0  0  0  0  0  0  0  0  0
  142.0080   79.0780  221.7510 C   0  0  0  0  0  0  0  0  0  0  0  0
  140.2130   75.2420  221.9700 C   0  0  0  0  0  0  0  0  0  0  0  0
  140.5650   72.6440  223.3440 N   0  0  0  0  0  0  0  0  0  0  0  0
  140.3260   71.4830  224.1160 C   0  0  0  0  0  0  0  0  0  0  0  0
  140.6080   71.4280  225.4660 C   0  0  0  0  0  0  0  0  0  0  0  0
  140.3520   70.2550  226.1820 C   0  0  0  0  0  0  0  0  0  0  0  0
  140.7230   70.2230  227.8930 Cl  0  0  0  0  0  0  0  0  0  0  0  0
  139.8190   69.1380  225.5620 C   0  0  0  0  0  0  0  0  0  0  0  0
  139.4970   67.6660  226.4530 Cl  0  0  0  0  0  0  0  0  0  0  0  0
  139.5510   69.2300  224.2110 C   0  0  0  0  0  0  0  0  0  0  0  0
  139.7970   70.3890  223.4800 C   0  0  0  0  0  0  0  0  0  0  0  0
  140.4658   71.4526  220.4320 H   0  0  0  0  0  0  0  0  0  0  0  0
  138.8112   72.0381  220.7983 H   0  0  0  0  0  0  0  0  0  0  0  0
  141.7548   73.1680  219.8266 H   0  0  0  0  0  0  0  0  0  0  0  0
  142.2635   75.3514  218.7662 H   0  0  0  0  0  0  0  0  0  0  0  0
  141.4488   77.4796  219.7668 H   0  0  0  0  0  0  0  0  0  0  0  0
  139.1979   80.3337  222.3093 H   0  0  0  0  0  0  0  0  0  0  0  0
  139.6315   79.5795  223.8897 H   0  0  0  0  0  0  0  0  0  0  0  0
  141.3021   81.5750  222.2650 H   0  0  0  0  0  0  0  0  0  0  0  0
  140.5897   81.8599  223.8491 H   0  0  0  0  0  0  0  0  0  0  0  0
  141.7910   79.6870  224.4870 H   0  0  0  0  0  0  0  0  0  0  0  0
  143.4590   80.5773  222.1914 H   0  0  0  0  0  0  0  0  0  0  0  0
  143.5848   79.0460  223.1663 H   0  0  0  0  0  0  0  0  0  0  0  0
  141.9456   79.6828  220.8343 H   0  0  0  0  0  0  0  0  0  0  0  0
  142.4539   78.0873  221.5788 H   0  0  0  0  0  0  0  0  0  0  0  0
  139.6200   75.2229  222.8963 H   0  0  0  0  0  0  0  0  0  0  0  0
  141.0329   72.3046  225.9770 H   0  0  0  0  0  0  0  0  0  0  0  0
  139.1279   68.3564  223.6935 H   0  0  0  0  0  0  0  0  0  0  0  0
  1  2  2  0
  2  3  1  0
  3  4  1  0
  4  5  1  0
  5  6  2  0
  6  7  1  0
  7  8  2  0
  8  9  1  0
  9 10  1  0
 10 11  2  0
 10 12  1  0
 12 13  1  0
 13 14  1  0
 14 15  1  0
 15 16  1  0
 16 17  1  0
  9 18  2  0
  4 19  2  0
 19 20  1  0
 20 21  2  0
 21 22  1  0
 22 23  1  0
 22 24  2  0
 24 25  1  0
 24 26  1  0
 26 27  2  0
 27  2  1  0
 18  5  1  0
 27 20  1  0
 17 12  1  0
  3 28  1  0
  3 29  1  0
  6 30  1  0
  7 31  1  0
  8 32  1  0
 13 33  1  0
 13 34  1  0
 14 35  1  0
 14 36  1  0
 15 37  1  0
 16 38  1  0
 16 39  1  0
 17 40  1  0
 17 41  1  0
 18 42  1  0
 21 43  1  0
 26 44  1  0
M  END
>  <smiles>  (48) 
O=C1CC(c2cccc(C(=O)N3CCNCC3)c2)=Nc2cc(Cl)c(Cl)cc21

>  <score_type>  (48) 
oracle

>  <origin>  (48) 
autodockgpu

>  <m_score__min__energy>  (48) 
-8.2200000000000006

>  <m_primary>  (48) 
energy

>  <rmsd>  (48) 
6.321688197028075

>  <m_score__min__rmsd>  (48) 
6.321688197028075

>  <meeko>  (48) 
{"free_energy": -8.21, "intermolecular_energy": -8.81, "internal_energy": -0.55, "cluster_size": 25, "cluster_id": 1, "rank_in_cluster": 4}

>  <energy>  (48) 
-7.6

>  <cluster_rmsd>  (48) 
0.04

>  <cluster>  (48) 
4

$$$$

     RDKit          3D

 44 47  0  0  0  0  0  0  0  0999 V2000
  138.2870   69.5730  221.8600 O   0  0  0  0  0  0  0  0  0  0  0  0
  138.9770   70.5200  222.3600 C   0  0  0  0  0  0  0  0  0  0  0  0
  139.2270   71.7180  221.5230 C   0  0  0  0  0  0  0  0  0  0  0  0
  140.0450   72.6830  222.2950 C   0  0  0  0  0  0  0  0  0  0  0  0
  140.3970   73.9480  221.6170 C   0  0  0  0  0  0  0  0  0  0  0  0
  139.8490   75.1580  222.0230 C   0  0  0  0  0  0  0  0  0  0  0  0
  140.1940   76.3400  221.3700 C   0  0  0  0  0  0  0  0  0  0  0  0
  141.0860   76.3430  220.3060 C   0  0  0  0  0  0  0  0  0  0  0  0
  141.6300   75.1480  219.9000 C   0  0  0  0  0  0  0  0  0  0  0  0
  142.5750   75.0190  218.7990 C   0  0  0  0  0  0  0  0  0  0  0  0
  142.5220   75.8470  217.8530 O   0  0  0  0  0  0  0  0  0  0  0  0
  143.5650   74.0050  218.7280 N   0  0  0  0  0  0  0  0  0  0  0  0
  144.4430   73.9970  217.5660 C   0  0  0  0  0  0  0  0  0  0  0  0
  145.5770   72.9960  217.7610 C   0  0  0  0  0  0  0  0  0  0  0  0
  146.1230   73.3160  219.0880 N   0  0  0  0  0  0  0  0  0  0  0  0
  145.2150   72.7310  220.0540 C   0  0  0  0  0  0  0  0  0  0  0  0
  143.7670   72.9850  219.7160 C   0  0  0  0  0  0  0  0  0  0  0  0
  141.2740   73.9960  220.5610 C   0  0  0  0  0  0  0  0  0  0  0  0
  140.4630   72.5170  223.4800 N   0  0  0  0  0  0  0  0  0  0  0  0
  140.2190   71.3690  224.2700 C   0  0  0  0  0  0  0  0  0  0  0  0
  140.7030   71.2470  225.5560 C   0  0  0  0  0  0  0  0  0  0  0  0
  140.4310   70.0910  226.2930 C   0  0  0  0  0  0  0  0  0  0  0  0
  141.0620   69.9710  227.9230 Cl  0  0  0  0  0  0  0  0  0  0  0  0
  139.6810   69.0580  225.7580 C   0  0  0  0  0  0  0  0  0  0  0  0
  139.3370   67.6080  226.6760 Cl  0  0  0  0  0  0  0  0  0  0  0  0
  139.2140   69.2170  224.4690 C   0  0  0  0  0  0  0  0  0  0  0  0
  139.4730   70.3600  223.7170 C   0  0  0  0  0  0  0  0  0  0  0  0
  139.7663   71.4244  220.6103 H   0  0  0  0  0  0  0  0  0  0  0  0
  138.2699   72.1823  221.2428 H   0  0  0  0  0  0  0  0  0  0  0  0
  139.1397   75.1835  222.8634 H   0  0  0  0  0  0  0  0  0  0  0  0
  139.7507   77.2896  221.7043 H   0  0  0  0  0  0  0  0  0  0  0  0
  141.3517   77.2821  219.7986 H   0  0  0  0  0  0  0  0  0  0  0  0
  143.8619   73.7168  216.6750 H   0  0  0  0  0  0  0  0  0  0  0  0
  144.8728   75.0014  217.4376 H   0  0  0  0  0  0  0  0  0  0  0  0
  145.1947   71.9649  217.7357 H   0  0  0  0  0  0  0  0  0  0  0  0
  146.3363   73.0629  216.9679 H   0  0  0  0  0  0  0  0  0  0  0  0
  146.1540   74.3670  219.1660 H   0  0  0  0  0  0  0  0  0  0  0  0
  145.3845   71.6446  220.0841 H   0  0  0  0  0  0  0  0  0  0  0  0
  145.4172   73.2000  221.0283 H   0  0  0  0  0  0  0  0  0  0  0  0
  143.3311   72.0481  219.3389 H   0  0  0  0  0  0  0  0  0  0  0  0
  143.2838   73.3382  220.6389 H   0  0  0  0  0  0  0  0  0  0  0  0
  141.7213   73.0501  220.2216 H   0  0  0  0  0  0  0  0  0  0  0  0
  141.3009   72.0566  225.9999 H   0  0  0  0  0  0  0  0  0  0  0  0
  138.6153   68.4113  224.0192 H   0  0  0  0  0  0  0  0  0  0  0  0
  1  2  2  0
  2  3  1  0
  3  4  1  0
  4  5  1  0
  5  6  2  0
  6  7  1  0
  7  8  2  0
  8  9  1  0
  9 10  1  0
 10 11  2  0
 10 12  1  0
 12 13  1  0
 13 14  1  0
 14 15  1  0
 15 16  1  0
 16 17  1  0
  9 18  2  0
  4 19  2  0
 19 20  1  0
 20 21  2  0
 21 22  1  0
 22 23  1  0
 22 24  2  0
 24 25  1  0
 24 26  1  0
 26 27  2  0
 27  2  1  0
 18  5  1  0
 27 20  1  0
 17 12  1  0
  3 28  1  0
  3 29  1  0
  6 30  1  0
  7 31  1  0
  8 32  1  0
 13 33  1  0
 13 34  1  0
 14 35  1  0
 14 36  1  0
 15 37  1  0
 16 38  1  0
 16 39  1  0
 17 40  1  0
 17 41  1  0
 18 42  1  0
 21 43  1  0
 26 44  1  0
M  END
>  <smiles>  (49) 
O=C1CC(c2cccc(C(=O)N3CCNCC3)c2)=Nc2cc(Cl)c(Cl)cc21

>  <score_type>  (49) 
oracle

>  <origin>  (49) 
autodockgpu

>  <m_score__min__energy>  (49) 
-8.2200000000000006

>  <m_primary>  (49) 
energy

>  <rmsd>  (49) 
6.075082102984751

>  <m_score__min__rmsd>  (49) 
6.075082102984751

>  <meeko>  (49) 
{"free_energy": -8.05, "intermolecular_energy": -8.65, "internal_energy": -0.38, "cluster_size": 9, "cluster_id": 2, "rank_in_cluster": 6}

>  <energy>  (49) 
-7.59

>  <cluster_rmsd>  (49) 
0.11

>  <cluster>  (49) 
4

$$$$

     RDKit          3D

 44 47  0  0  0  0  0  0  0  0999 V2000
  138.9860   69.5190  221.5210 O   0  0  0  0  0  0  0  0  0  0  0  0
  139.5170   70.5210  222.1020 C   0  0  0  0  0  0  0  0  0  0  0  0
  139.8100   71.7250  221.2870 C   0  0  0  0  0  0  0  0  0  0  0  0
  140.4220   72.7580  222.1560 C   0  0  0  0  0  0  0  0  0  0  0  0
  140.7840   74.0380  221.5130 C   0  0  0  0  0  0  0  0  0  0  0  0
  141.6260   74.0750  220.4080 C   0  0  0  0  0  0  0  0  0  0  0  0
  141.9560   75.2930  219.8170 C   0  0  0  0  0  0  0  0  0  0  0  0
  141.4590   76.4920  220.3090 C   0  0  0  0  0  0  0  0  0  0  0  0
  140.6260   76.4600  221.4020 C   0  0  0  0  0  0  0  0  0  0  0  0
  140.0400   77.6480  222.0100 C   0  0  0  0  0  0  0  0  0  0  0  0
  138.8450   77.6040  222.4000 O   0  0  0  0  0  0  0  0  0  0  0  0
  140.7450   78.8650  222.1910 N   0  0  0  0  0  0  0  0  0  0  0  0
  140.0320   79.9730  222.8130 C   0  0  0  0  0  0  0  0  0  0  0  0
  140.9940   81.1120  223.1350 C   0  0  0  0  0  0  0  0  0  0  0  0
  142.1040   80.4640  223.8480 N   0  0  0  0  0  0  0  0  0  0  0  0
  142.9250   79.8320  222.8360 C   0  0  0  0  0  0  0  0  0  0  0  0
  142.1090   79.0900  221.8070 C   0  0  0  0  0  0  0  0  0  0  0  0
  140.3150   75.2470  221.9670 C   0  0  0  0  0  0  0  0  0  0  0  0
  140.6570   72.6370  223.3950 N   0  0  0  0  0  0  0  0  0  0  0  0
  140.3740   71.4830  224.1630 C   0  0  0  0  0  0  0  0  0  0  0  0
  140.6550   71.4130  225.5130 C   0  0  0  0  0  0  0  0  0  0  0  0
  140.3530   70.2480  226.2240 C   0  0  0  0  0  0  0  0  0  0  0  0
  140.7240   70.1950  227.9350 Cl  0  0  0  0  0  0  0  0  0  0  0  0
  139.7750   69.1560  225.6010 C   0  0  0  0  0  0  0  0  0  0  0  0
  139.3960   67.6940  226.4870 Cl  0  0  0  0  0  0  0  0  0  0  0  0
  139.5090   69.2630  224.2510 C   0  0  0  0  0  0  0  0  0  0  0  0
  139.8010   70.4140  223.5240 C   0  0  0  0  0  0  0  0  0  0  0  0
  140.5081   71.4623  220.4785 H   0  0  0  0  0  0  0  0  0  0  0  0
  138.8788   72.1125  220.8479 H   0  0  0  0  0  0  0  0  0  0  0  0
  142.0336   73.1390  219.9983 H   0  0  0  0  0  0  0  0  0  0  0  0
  142.6238   75.3045  218.9430 H   0  0  0  0  0  0  0  0  0  0  0  0
  141.7261   77.4477  219.8343 H   0  0  0  0  0  0  0  0  0  0  0  0
  139.2567   80.3377  222.1231 H   0  0  0  0  0  0  0  0  0  0  0  0
  139.5715   79.6205  223.7477 H   0  0  0  0  0  0  0  0  0  0  0  0
  141.3518   81.5917  222.2120 H   0  0  0  0  0  0  0  0  0  0  0  0
  140.5194   81.9051  223.7314 H   0  0  0  0  0  0  0  0  0  0  0  0
  141.6800   79.7560  224.5060 H   0  0  0  0  0  0  0  0  0  0  0  0
  143.5144   80.6079  222.3255 H   0  0  0  0  0  0  0  0  0  0  0  0
  143.5707   79.0985  223.3411 H   0  0  0  0  0  0  0  0  0  0  0  0
  142.1134   79.6750  220.8755 H   0  0  0  0  0  0  0  0  0  0  0  0
  142.5725   78.0994  221.6893 H   0  0  0  0  0  0  0  0  0  0  0  0
  139.6464   75.2435  222.8405 H   0  0  0  0  0  0  0  0  0  0  0  0
  141.1145   72.2703  226.0268 H   0  0  0  0  0  0  0  0  0  0  0  0
  139.0502   68.4090  223.7311 H   0  0  0  0  0  0  0  0  0  0  0  0
  1  2  2  0
  2  3  1  0
  3  4  1  0
  4  5  1  0
  5  6  2  0
  6  7  1  0
  7  8  2  0
  8  9  1  0
  9 10  1  0
 10 11  2  0
 10 12  1  0
 12 13  1  0
 13 14  1  0
 14 15  1  0
 15 16  1  0
 16 17  1  0
  9 18  2  0
  4 19  2  0
 19 20  1  0
 20 21  2  0
 21 22  1  0
 22 23  1  0
 22 24  2  0
 24 25  1  0
 24 26  1  0
 26 27  2  0
 27  2  1  0
 18  5  1  0
 27 20  1  0
 17 12  1  0
  3 28  1  0
  3 29  1  0
  6 30  1  0
  7 31  1  0
  8 32  1  0
 13 33  1  0
 13 34  1  0
 14 35  1  0
 14 36  1  0
 15 37  1  0
 16 38  1  0
 16 39  1  0
 17 40  1  0
 17 41  1  0
 18 42  1  0
 21 43  1  0
 26 44  1  0
M  END
>  <smiles>  (50) 
O=C1CC(c2cccc(C(=O)N3CCNCC3)c2)=Nc2cc(Cl)c(Cl)cc21

>  <score_type>  (50) 
oracle

>  <origin>  (50) 
autodockgpu

>  <m_score__min__energy>  (50) 
-8.2200000000000006

>  <m_primary>  (50) 
energy

>  <rmsd>  (50) 
6.339224496928912

>  <m_score__min__rmsd>  (50) 
6.339224496928912

>  <meeko>  (50) 
{"free_energy": -8.22, "intermolecular_energy": -8.82, "internal_energy": -0.55, "cluster_size": 25, "cluster_id": 1, "rank_in_cluster": 1}

>  <energy>  (50) 
-7.58

>  <cluster_rmsd>  (50) 
0.13

>  <cluster>  (50) 
4

$$$$
