
 79 85  0  0  0  0  0  0  0  0999 V2000
  140.9690   68.7380  228.7130 C   0  0  0  0  0  0  0  0  0  0  0  0
  139.7600   69.4000  228.4920 C   0  0  0  0  0  0  0  0  0  0  0  0
  139.0940   69.2240  227.2860 C   0  0  0  0  0  0  0  0  0  0  0  0
  139.5760   68.4220  226.2930 C   0  0  0  0  0  0  0  0  0  0  0  0
  138.9250   68.1890  224.9930 C   0  0  0  0  0  0  0  0  0  0  0  0
  138.6200   69.4430  224.3380 N   0  0  0  0  0  0  0  0  0  0  0  0
  139.4060   70.5370  224.8250 C   0  0  0  0  0  0  0  0  0  0  0  0
  140.3980   71.0810  223.8500 C   0  0  0  0  0  0  0  0  0  0  0  0
  139.7670   71.4600  222.5450 C   0  0  0  0  0  0  0  0  0  0  0  0
  138.6020   70.5870  222.1790 C   0  0  0  0  0  0  0  0  0  0  0  0
  138.7460   69.2590  222.9040 C   0  0  0  0  0  0  0  0  0  0  0  0
  140.8340   71.5860  221.4820 C   0  0  0  0  0  0  0  0  0  0  0  0
  140.6700   73.0380  221.4950 N   0  0  0  0  0  0  0  0  0  0  0  0
  141.4100   74.1020  220.9080 C   0  0  0  0  0  0  0  0  0  0  0  0
  142.3890   73.8710  219.9840 N   0  0  0  0  0  0  0  0  0  0  0  0
  143.0850   74.8680  219.4320 C   0  0  0  0  0  0  0  0  0  0  0  0
  144.1020   74.6110  218.4710 N   0  0  0  0  0  0  0  0  0  0  0  0
  144.5220   73.2540  218.1790 C   0  0  0  0  0  0  0  0  0  0  0  0
  145.5090   72.7430  219.2050 C   0  0  0  0  0  0  0  0  0  0  0  0
  145.2480   71.2950  219.4060 C   0  0  0  0  0  0  0  0  0  0  0  0
  144.0710   70.8090  219.9120 C   0  0  0  0  0  0  0  0  0  0  0  0
  143.9460   69.4400  220.0530 C   0  0  0  0  0  0  0  0  0  0  0  0
  144.9320   68.5800  219.7130 N   0  0  0  0  0  0  0  0  0  0  0  0
  146.0760   69.0650  219.2200 C   0  0  0  0  0  0  0  0  0  0  0  0
  146.2660   70.4240  219.0540 C   0  0  0  0  0  0  0  0  0  0  0  0
  142.8180   76.1350  219.7930 N   0  0  0  0  0  0  0  0  0  0  0  0
  141.8560   76.4380  220.7080 C   0  0  0  0  0  0  0  0  0  0  0  0
  141.5740   77.7780  221.0880 N   0  0  0  0  0  0  0  0  0  0  0  0
  141.0460   78.0890  222.4040 C   0  0  0  0  0  0  0  0  0  0  0  0
  141.8910   79.2200  222.9550 C   0  0  0  0  0  0  0  0  0  0  0  0
  141.6740   80.3870  222.0600 C   0  0  0  0  0  0  0  0  0  0  0  0
  141.5010   81.6740  222.5250 C   0  0  0  0  0  0  0  0  0  0  0  0
  141.3030   82.7250  221.6620 C   0  0  0  0  0  0  0  0  0  0  0  0
  141.2780   82.4830  220.3020 C   0  0  0  0  0  0  0  0  0  0  0  0
  141.4480   81.2060  219.7970 C   0  0  0  0  0  0  0  0  0  0  0  0
  141.6450   80.1750  220.6970 C   0  0  0  0  0  0  0  0  0  0  0  0
  141.8250   78.8180  220.1380 C   0  0  0  0  0  0  0  0  0  0  0  0
  141.1800   75.3860  221.2370 N   0  0  0  0  0  0  0  0  0  0  0  0
  139.5040   72.9250  222.3140 C   0  0  0  0  0  0  0  0  0  0  0  0
  140.7870   67.7710  226.5390 C   0  0  0  0  0  0  0  0  0  0  0  0
  141.4780   67.9170  227.7170 C   0  0  0  0  0  0  0  0  0  0  0  0
  141.5099   68.8653  229.6623 H   0  0  0  0  0  0  0  0  0  0  0  0
  139.3379   70.0562  229.2674 H   0  0  0  0  0  0  0  0  0  0  0  0
  138.1420   69.7511  227.1253 H   0  0  0  0  0  0  0  0  0  0  0  0
  139.5995   67.6023  224.3521 H   0  0  0  0  0  0  0  0  0  0  0  0
  137.9855   67.6425  225.1625 H   0  0  0  0  0  0  0  0  0  0  0  0
  138.7217   71.3509  225.1064 H   0  0  0  0  0  0  0  0  0  0  0  0
  139.9884   70.1457  225.6721 H   0  0  0  0  0  0  0  0  0  0  0  0
  140.8697   71.9736  224.2868 H   0  0  0  0  0  0  0  0  0  0  0  0
  141.1377   70.2922  223.6485 H   0  0  0  0  0  0  0  0  0  0  0  0
  137.6637   71.0748  222.4816 H   0  0  0  0  0  0  0  0  0  0  0  0
  138.5826   70.4219  221.0916 H   0  0  0  0  0  0  0  0  0  0  0  0
  137.9607   68.5711  222.5575 H   0  0  0  0  0  0  0  0  0  0  0  0
  139.7405   68.8424  222.6862 H   0  0  0  0  0  0  0  0  0  0  0  0
  141.8293   71.2430  221.8010 H   0  0  0  0  0  0  0  0  0  0  0  0
  140.7526   71.0236  220.5401 H   0  0  0  0  0  0  0  0  0  0  0  0
  144.5590   75.3990  217.9630 H   0  0  0  0  0  0  0  0  0  0  0  0
  143.6380   72.5994  218.1773 H   0  0  0  0  0  0  0  0  0  0  0  0
  145.0155   73.2509  217.1959 H   0  0  0  0  0  0  0  0  0  0  0  0
  146.5366   72.8908  218.8414 H   0  0  0  0  0  0  0  0  0  0  0  0
  145.3941   73.2888  220.1531 H   0  0  0  0  0  0  0  0  0  0  0  0
  143.2524   71.4864  220.1967 H   0  0  0  0  0  0  0  0  0  0  0  0
  143.0072   69.0341  220.4578 H   0  0  0  0  0  0  0  0  0  0  0  0
  146.8813   68.3695  218.9412 H   0  0  0  0  0  0  0  0  0  0  0  0
  147.2131   70.8088  218.6478 H   0  0  0  0  0  0  0  0  0  0  0  0
  139.9949   78.4039  222.3263 H   0  0  0  0  0  0  0  0  0  0  0  0
  141.0828   77.2094  223.0636 H   0  0  0  0  0  0  0  0  0  0  0  0
  141.5763   79.4643  223.9803 H   0  0  0  0  0  0  0  0  0  0  0  0
  142.9541   78.9399  222.9910 H   0  0  0  0  0  0  0  0  0  0  0  0
  141.5220   81.8629  223.6084 H   0  0  0  0  0  0  0  0  0  0  0  0
  141.1662   83.7456  222.0490 H   0  0  0  0  0  0  0  0  0  0  0  0
  141.1200   83.3213  219.6075 H   0  0  0  0  0  0  0  0  0  0  0  0
  141.4271   81.0170  218.7136 H   0  0  0  0  0  0  0  0  0  0  0  0
  141.1322   78.6937  219.2927 H   0  0  0  0  0  0  0  0  0  0  0  0
  142.8766   78.7297  219.8277 H   0  0  0  0  0  0  0  0  0  0  0  0
  139.5440   73.5331  223.2298 H   0  0  0  0  0  0  0  0  0  0  0  0
  138.5286   73.2487  221.9217 H   0  0  0  0  0  0  0  0  0  0  0  0
  141.2033   67.1162  225.7593 H   0  0  0  0  0  0  0  0  0  0  0  0
  142.4293   67.3862  227.8699 H   0  0  0  0  0  0  0  0  0  0  0  0
  1  2  2  0
  2  3  1  0
  3  4  2  0
  4  5  1  0
  5  6  1  0
  6  7  1  0
  7  8  1  0
  8  9  1  0
  9 10  1  0
 10 11  1  0
  9 12  1  0
 12 13  1  0
 13 14  1  0
 14 15  2  0
 15 16  1  0
 16 17  1  0
 17 18  1  0
 18 19  1  0
 19 20  1  0
 20 21  2  0
 21 22  1  0
 22 23  2  0
 23 24  1  0
 24 25  2  0
 16 26  2  0
 26 27  1  0
 27 28  1  0
 28 29  1  0
 29 30  1  0
 30 31  1  0
 31 32  2  0
 32 33  1  0
 33 34  2  0
 34 35  1  0
 35 36  2  0
 36 37  1  0
 27 38  2  0
 13 39  1  0
  4 40  1  0
 40 41  2  0
 41  1  1  0
 11  6  1  0
 38 14  1  0
 39  9  1  0
 25 20  1  0
 37 28  1  0
 36 31  1  0
  1 42  1  0
  2 43  1  0
  3 44  1  0
  5 45  1  0
  5 46  1  0
  7 47  1  0
  7 48  1  0
  8 49  1  0
  8 50  1  0
 10 51  1  0
 10 52  1  0
 11 53  1  0
 11 54  1  0
 12 55  1  0
 12 56  1  0
 17 57  1  0
 18 58  1  0
 18 59  1  0
 19 60  1  0
 19 61  1  0
 21 62  1  0
 22 63  1  0
 24 64  1  0
 25 65  1  0
 29 66  1  0
 29 67  1  0
 30 68  1  0
 30 69  1  0
 32 70  1  0
 33 71  1  0
 34 72  1  0
 35 73  1  0
 37 74  1  0
 37 75  1  0
 39 76  1  0
 39 77  1  0
 40 78  1  0
 41 79  1  0
M  END
