
     RDKit          3D

 49 52  0  0  0  0  0  0  0  0999 V2000
  140.4050   71.8970  225.1480 O   0  0  0  0  0  0  0  0  0  0  0  0
  139.7770   70.8150  225.1650 C   0  0  0  0  0  0  0  0  0  0  0  0
  140.0770   69.9420  226.1840 C   0  0  0  0  0  0  0  0  0  0  0  0
  141.0300   70.2510  227.1300 C   0  0  0  0  0  0  0  0  0  0  0  0
  141.2820   69.3440  228.1110 C   0  0  0  0  0  0  0  0  0  0  0  0
  140.5890   68.1550  228.1330 C   0  0  0  0  0  0  0  0  0  0  0  0
  139.6240   67.8270  227.1870 C   0  0  0  0  0  0  0  0  0  0  0  0
  139.3920   68.7610  226.2100 C   0  0  0  0  0  0  0  0  0  0  0  0
  138.4950   68.5150  225.2820 N   0  0  0  0  0  0  0  0  0  0  0  0
  138.1640   69.3580  224.2480 C   0  0  0  0  0  0  0  0  0  0  0  0
  137.1380   68.8780  223.3830 C   0  0  0  0  0  0  0  0  0  0  0  0
  135.8470   68.8590  223.4700 C   0  0  0  0  0  0  0  0  0  0  0  0
  135.0820   69.4580  224.5840 C   0  0  0  0  0  0  0  0  0  0  0  0
  135.0650   70.8010  224.8490 C   0  0  0  0  0  0  0  0  0  0  0  0
  134.3170   71.2920  225.9220 C   0  0  0  0  0  0  0  0  0  0  0  0
  133.5810   70.4570  226.7400 C   0  0  0  0  0  0  0  0  0  0  0  0
  133.6170   69.1300  226.4530 N   0  0  0  0  0  0  0  0  0  0  0  0
  134.3330   68.6490  225.4230 C   0  0  0  0  0  0  0  0  0  0  0  0
  138.8270   70.5100  224.2130 N   0  0  0  0  0  0  0  0  0  0  0  0
  138.6220   71.5410  223.2290 C   0  0  0  0  0  0  0  0  0  0  0  0
  139.4970   71.4920  222.0250 C   0  0  0  0  0  0  0  0  0  0  0  0
  140.7120   72.3830  222.2420 C   0  0  0  0  0  0  0  0  0  0  0  0
  141.7820   72.1270  221.2280 C   0  0  0  0  0  0  0  0  0  0  0  0
  141.2590   71.3930  220.0130 C   0  0  0  0  0  0  0  0  0  0  0  0
  140.6930   70.0410  220.3800 C   0  0  0  0  0  0  0  0  0  0  0  0
  139.9080   70.0860  221.6810 C   0  0  0  0  0  0  0  0  0  0  0  0
  141.5730   71.2069  227.0925 H   0  0  0  0  0  0  0  0  0  0  0  0
  142.0356   69.5592  228.8829 H   0  0  0  0  0  0  0  0  0  0  0  0
  140.8080   67.4330  228.9335 H   0  0  0  0  0  0  0  0  0  0  0  0
  139.0778   66.8727  227.2204 H   0  0  0  0  0  0  0  0  0  0  0  0
  137.5213   68.4335  222.4527 H   0  0  0  0  0  0  0  0  0  0  0  0
  135.2834   68.3660  222.6642 H   0  0  0  0  0  0  0  0  0  0  0  0
  135.6403   71.4936  224.2171 H   0  0  0  0  0  0  0  0  0  0  0  0
  134.3141   72.3738  226.1210 H   0  0  0  0  0  0  0  0  0  0  0  0
  132.9936   70.8482  227.5838 H   0  0  0  0  0  0  0  0  0  0  0  0
  134.3241   67.5648  225.2376 H   0  0  0  0  0  0  0  0  0  0  0  0
  137.5786   71.4743  222.8871 H   0  0  0  0  0  0  0  0  0  0  0  0
  138.8764   72.4833  223.7364 H   0  0  0  0  0  0  0  0  0  0  0  0
  138.9218   71.8679  221.1660 H   0  0  0  0  0  0  0  0  0  0  0  0
  140.3986   73.4349  222.1700 H   0  0  0  0  0  0  0  0  0  0  0  0
  141.1251   72.1586  223.2365 H   0  0  0  0  0  0  0  0  0  0  0  0
  142.2012   73.0914  220.9052 H   0  0  0  0  0  0  0  0  0  0  0  0
  142.5475   71.4934  221.6998 H   0  0  0  0  0  0  0  0  0  0  0  0
  140.4671   71.9963  219.5451 H   0  0  0  0  0  0  0  0  0  0  0  0
  142.0974   71.2375  219.3181 H   0  0  0  0  0  0  0  0  0  0  0  0
  140.0247   69.7051  219.5735 H   0  0  0  0  0  0  0  0  0  0  0  0
  141.5347   69.3458  220.5151 H   0  0  0  0  0  0  0  0  0  0  0  0
  139.0062   69.4647  221.5767 H   0  0  0  0  0  0  0  0  0  0  0  0
  140.5522   69.7061  222.4877 H   0  0  0  0  0  0  0  0  0  0  0  0
  1  2  2  0
  2  3  1  0
  3  4  2  0
  4  5  1  0
  5  6  2  0
  6  7  1  0
  7  8  2  0
  8  9  1  0
  9 10  2  0
 10 11  1  0
 11 12  2  0
 12 13  1  0
 13 14  2  0
 14 15  1  0
 15 16  2  0
 16 17  1  0
 17 18  2  0
 10 19  1  0
 19 20  1  0
 20 21  1  0
 21 22  1  0
 22 23  1  0
 23 24  1  0
 24 25  1  0
 25 26  1  0
 19  2  1  0
 26 21  1  0
  8  3  1  0
 18 13  1  0
  4 27  1  0
  5 28  1  0
  6 29  1  0
  7 30  1  0
 11 31  1  0
 12 32  1  0
 14 33  1  0
 15 34  1  0
 16 35  1  0
 18 36  1  0
 20 37  1  0
 20 38  1  0
 21 39  1  0
 22 40  1  0
 22 41  1  0
 23 42  1  0
 23 43  1  0
 24 44  1  0
 24 45  1  0
 25 46  1  0
 25 47  1  0
 26 48  1  0
 26 49  1  0
M  END
