@<TRIPOS>MOLECULE
*****
 65 69 0 0 0
SMALL
GASTEIGER

@<TRIPOS>ATOM
      1 O         138.5820   70.7340  221.6540 O.2     1  UNL1       -0.2685
      2 C         139.0570   71.3150  222.6590 C.2     1  UNL1        0.2628
      3 N         139.3440   72.7050  222.7070 N.am    1  UNL1       -0.3015
      4 C         139.0690   73.5040  221.5120 C.3     1  UNL1        0.0887
      5 C         140.2230   74.2490  221.0500 C.2     1  UNL1        0.2330
      6 O         141.0910   74.5710  221.9550 O.2     1  UNL1       -0.2739
      7 N         140.5380   74.6760  219.7520 N.am    1  UNL1       -0.2959
      8 C         139.9050   73.9820  218.5820 C.3     1  UNL1        0.0151
      9 C         139.5200   75.1940  217.7640 C.3     1  UNL1       -0.0354
     10 C         140.3440   76.3610  218.2570 C.3     1  UNL1       -0.0317
     11 C         141.3700   75.6480  219.1610 C.3     1  UNL1        0.0386
     12 C         142.2020   76.5550  219.9190 C.3     1  UNL1        0.0154
     13 N         141.8250   77.0020  221.1960 N.3     1  UNL1       -0.3039
     14 C         140.8600   78.0530  221.2370 C.3     1  UNL1        0.0586
     15 C         141.2750   79.1600  222.1270 C.ar    1  UNL1       -0.0261
     16 C         142.5790   79.3850  222.5150 C.ar    1  UNL1       -0.0568
     17 C         142.9470   80.4280  223.3490 C.ar    1  UNL1       -0.0614
     18 C         141.9920   81.2970  223.8280 C.ar    1  UNL1       -0.0617
     19 C         140.6740   81.1000  223.4580 C.ar    1  UNL1       -0.0614
     20 C         140.3280   80.0590  222.6300 C.ar    1  UNL1       -0.0568
     21 C         139.4910   77.5740  221.5690 C.ar    1  UNL1       -0.0232
     22 C         139.1950   76.8730  222.7210 C.ar    1  UNL1       -0.0386
     23 C         137.8770   76.4760  222.9250 C.ar    1  UNL1        0.0279
     24 N         136.9010   76.7490  222.0520 N.ar    1  UNL1       -0.2632
     25 C         137.1790   77.4350  220.9190 C.ar    1  UNL1        0.0279
     26 C         138.4710   77.8520  220.6690 C.ar    1  UNL1       -0.0386
     27 C         139.3400   70.5270  223.8700 C.ar    1  UNL1        0.1260
     28 C         138.9880   69.1750  223.9190 C.ar    1  UNL1       -0.0306
     29 C         139.2460   68.4260  225.0410 C.ar    1  UNL1       -0.0503
     30 C         139.8550   69.0090  226.1290 C.ar    1  UNL1        0.0031
     31 C         140.1030   68.2350  227.2440 C.ar    1  UNL1       -0.0173
     32 C         140.7150   68.8220  228.3340 C.ar    1  UNL1        0.1241
     33 F         140.9410   68.0290  229.4090 F       1  UNL1       -0.2055
     34 C         141.0690   70.1560  228.3020 C.ar    1  UNL1       -0.0244
     35 C         140.8180   70.9370  227.1730 C.ar    1  UNL1       -0.0330
     36 C         140.1990   70.3570  226.0630 C.ar    1  UNL1        0.0720
     37 N         139.9280   71.0410  224.9510 N.ar    1  UNL1       -0.2421
     38 H         139.7380   73.1170  223.5820 H       1  UNL1        0.1496
     39 H         138.7423   72.8293  220.7070 H       1  UNL1        0.0558
     40 H         138.2907   74.2347  221.7772 H       1  UNL1        0.0558
     41 H         140.6193   73.3362  218.0504 H       1  UNL1        0.0465
     42 H         139.0798   73.2979  218.8291 H       1  UNL1        0.0465
     43 H         139.7298   75.0100  216.7000 H       1  UNL1        0.0281
     44 H         138.4463   75.4071  217.8725 H       1  UNL1        0.0281
     45 H         140.8367   76.8857  217.4252 H       1  UNL1        0.0284
     46 H         139.7596   77.1405  218.7677 H       1  UNL1        0.0284
     47 H         142.2335   75.1399  218.7070 H       1  UNL1        0.0513
     48 H         143.1752   76.0566  220.0393 H       1  UNL1        0.0442
     49 H         142.1527   77.4771  219.3213 H       1  UNL1        0.0442
     50 H         141.5230   76.2370  221.8260 H       1  UNL1        0.1229
     51 H         140.8132   78.4521  220.2130 H       1  UNL1        0.0560
     52 H         143.3618   78.7060  222.1458 H       1  UNL1        0.0621
     53 H         144.0023   80.5622  223.6288 H       1  UNL1        0.0618
     54 H         142.2714   82.1296  224.4904 H       1  UNL1        0.0618
     55 H         139.8956   81.7826  223.8297 H       1  UNL1        0.0618
     56 H         139.2714   79.9282  222.3535 H       1  UNL1        0.0621
     57 H         139.9781   76.6353  223.4560 H       1  UNL1        0.0636
     58 H         137.6283   75.9165  223.8388 H       1  UNL1        0.0829
     59 H         136.3779   77.6596  220.1995 H       1  UNL1        0.0829
     60 H         138.6946   78.4100  219.7478 H       1  UNL1        0.0636
     61 H         138.5001   68.7069  223.0513 H       1  UNL1        0.0641
     62 H         138.9665   67.3625  225.0700 H       1  UNL1        0.0625
     63 H         139.8191   67.1725  227.2643 H       1  UNL1        0.0653
     64 H         141.5555   70.6094  229.1782 H       1  UNL1        0.0647
     65 H         141.1047   71.9989  227.1573 H       1  UNL1        0.0640
@<TRIPOS>BOND
     1     1     2    2
     2     2     3   am
     3     3     4    1
     4     4     5    1
     5     5     6    2
     6     5     7   am
     7     7     8    1
     8     8     9    1
     9     9    10    1
    10    10    11    1
    11    11    12    1
    12    12    13    1
    13    13    14    1
    14    14    15    1
    15    15    16   ar
    16    16    17   ar
    17    17    18   ar
    18    18    19   ar
    19    19    20   ar
    20    14    21    1
    21    21    22   ar
    22    22    23   ar
    23    23    24   ar
    24    24    25   ar
    25    25    26   ar
    26     2    27    1
    27    27    28   ar
    28    28    29   ar
    29    29    30   ar
    30    30    31   ar
    31    31    32   ar
    32    32    33    1
    33    32    34   ar
    34    34    35   ar
    35    35    36   ar
    36    36    37   ar
    37    11     7    1
    38    20    15   ar
    39    26    21   ar
    40    37    27   ar
    41    36    30   ar
    42     3    38    1
    43     4    39    1
    44     4    40    1
    45     8    41    1
    46     8    42    1
    47     9    43    1
    48     9    44    1
    49    10    45    1
    50    10    46    1
    51    11    47    1
    52    12    48    1
    53    12    49    1
    54    13    50    1
    55    14    51    1
    56    16    52    1
    57    17    53    1
    58    18    54    1
    59    19    55    1
    60    20    56    1
    61    22    57    1
    62    23    58    1
    63    25    59    1
    64    26    60    1
    65    28    61    1
    66    29    62    1
    67    31    63    1
    68    34    64    1
    69    35    65    1
