
     RDKit          3D

 46 49  0  0  0  0  0  0  0  0999 V2000
  141.3010   72.1380  222.2490 O   0  0  0  0  0  0  0  0  0  0  0  0
  140.3070   72.0520  223.0370 C   0  0  0  0  0  0  0  0  0  0  0  0
  139.1220   72.7070  222.6420 N   0  0  0  0  0  0  0  0  0  0  0  0
  139.1430   73.4200  221.3700 C   0  0  0  0  0  0  0  0  0  0  0  0
  139.1850   74.8700  221.5660 C   0  0  0  0  0  0  0  0  0  0  0  0
  138.2730   75.5430  222.1310 O   0  0  0  0  0  0  0  0  0  0  0  0
  140.3100   75.5920  221.1020 N   0  0  0  0  0  0  0  0  0  0  0  0
  141.7090   75.1590  221.2180 C   0  0  0  0  0  0  0  0  0  0  0  0
  142.2880   75.5950  219.8990 C   0  0  0  0  0  0  0  0  0  0  0  0
  141.2820   76.5360  219.2560 C   0  0  0  0  0  0  0  0  0  0  0  0
  140.3860   76.8750  220.4280 C   0  0  2  0  0  0  0  0  0  0  0  0
  141.0510   77.8930  221.3040 C   0  0  0  0  0  0  0  0  0  0  0  0
  141.0090   77.6650  222.6280 N   0  0  0  0  0  0  0  0  0  0  0  0
  141.5880   78.5430  223.4720 C   0  0  0  0  0  0  0  0  0  0  0  0
  142.2160   79.6600  222.9880 C   0  0  0  0  0  0  0  0  0  0  0  0
  142.9550   80.7770  224.0960 Cl  0  0  0  0  0  0  0  0  0  0  0  0
  142.2380   79.8610  221.6270 C   0  0  0  0  0  0  0  0  0  0  0  0
  141.6620   78.9890  220.7750 N   0  0  0  0  0  0  0  0  0  0  0  0
  140.4020   71.3080  224.2890 C   0  0  0  0  0  0  0  0  0  0  0  0
  141.0260   71.9040  225.3690 C   0  0  0  0  0  0  0  0  0  0  0  0
  141.1420   71.2440  226.5770 C   0  0  0  0  0  0  0  0  0  0  0  0
  140.6240   69.9530  226.7130 C   0  0  0  0  0  0  0  0  0  0  0  0
  140.7060   69.2420  227.8820 C   0  0  0  0  0  0  0  0  0  0  0  0
  140.1770   67.9590  227.9830 C   0  0  0  0  0  0  0  0  0  0  0  0
  139.5570   67.3840  226.8840 C   0  0  0  0  0  0  0  0  0  0  0  0
  139.4700   68.1040  225.6890 C   0  0  0  0  0  0  0  0  0  0  0  0
  139.9980   69.3750  225.6030 C   0  0  0  0  0  0  0  0  0  0  0  0
  139.9100   70.0640  224.4460 N   0  0  0  0  0  0  0  0  0  0  0  0
  138.2820   72.6620  223.2580 H   0  0  0  0  0  0  0  0  0  0  0  0
  140.0327   73.1106  220.8019 H   0  0  0  0  0  0  0  0  0  0  0  0
  138.2217   73.1733  220.8219 H   0  0  0  0  0  0  0  0  0  0  0  0
  142.2125   75.6583  222.0590 H   0  0  0  0  0  0  0  0  0  0  0  0
  141.8229   74.0829  221.4158 H   0  0  0  0  0  0  0  0  0  0  0  0
  143.2427   76.1170  220.0605 H   0  0  0  0  0  0  0  0  0  0  0  0
  142.4808   74.7272  219.2510 H   0  0  0  0  0  0  0  0  0  0  0  0
  141.7733   77.4343  218.8540 H   0  0  0  0  0  0  0  0  0  0  0  0
  140.7490   76.1010  218.3977 H   0  0  0  0  0  0  0  0  0  0  0  0
  139.4092   77.3009  220.1551 H   0  0  0  0  0  0  0  0  0  0  0  0
  141.5558   78.3610  224.5564 H   0  0  0  0  0  0  0  0  0  0  0  0
  142.7375   80.7545  221.2243 H   0  0  0  0  0  0  0  0  0  0  0  0
  141.4364   72.9192  225.2649 H   0  0  0  0  0  0  0  0  0  0  0  0
  141.6397   71.7322  227.4279 H   0  0  0  0  0  0  0  0  0  0  0  0
  141.1987   69.6936  228.7557 H   0  0  0  0  0  0  0  0  0  0  0  0
  140.2503   67.4037  228.9297 H   0  0  0  0  0  0  0  0  0  0  0  0
  139.1371   66.3696  226.9520 H   0  0  0  0  0  0  0  0  0  0  0  0
  138.9783   67.6548  224.8135 H   0  0  0  0  0  0  0  0  0  0  0  0
  1  2  2  0
  2  3  1  0
  3  4  1  0
  4  5  1  0
  5  6  2  0
  5  7  1  0
  7  8  1  0
  8  9  1  0
  9 10  1  0
 10 11  1  0
 11 12  1  0
 12 13  2  0
 13 14  1  0
 14 15  2  0
 15 16  1  0
 15 17  1  0
 17 18  2  0
  2 19  1  0
 19 20  2  0
 20 21  1  0
 21 22  2  0
 22 23  1  0
 23 24  2  0
 24 25  1  0
 25 26  2  0
 26 27  1  0
 27 28  2  0
 11  7  1  0
 18 12  1  0
 28 19  1  0
 27 22  1  0
  3 29  1  0
  4 30  1  0
  4 31  1  0
  8 32  1  0
  8 33  1  0
  9 34  1  0
  9 35  1  0
 10 36  1  0
 10 37  1  0
 11 38  1  6
 14 39  1  0
 17 40  1  0
 20 41  1  0
 21 42  1  0
 23 43  1  0
 24 44  1  0
 25 45  1  0
 26 46  1  0
M  END
>  <smiles>  (1) 
O=C(NCC(=O)N1CCC[C@@H]1c1ncc(Cl)cn1)c1ccc2ccccc2n1

>  <score_type>  (1) 
oracle

>  <origin>  (1) 
autodockgpu

>  <m_score__min__energy>  (1) 
-8.7699999999999996

>  <m_primary>  (1) 
energy

>  <rmsd>  (1) 
2.914323397017327

>  <m_score__min__rmsd>  (1) 
2.914323397017327

>  <meeko>  (1) 
{"free_energy": -8.29, "intermolecular_energy": -9.79, "internal_energy": -1.42, "cluster_size": 31, "cluster_id": 1, "rank_in_cluster": 22}

>  <energy>  (1) 
-8.77

>  <cluster_rmsd>  (1) 
0.0

>  <cluster>  (1) 
1

$$$$

     RDKit          3D

 46 49  0  0  0  0  0  0  0  0999 V2000
  139.7190   70.8040  221.6020 O   0  0  0  0  0  0  0  0  0  0  0  0
  139.7770   71.5860  222.6030 C   0  0  0  0  0  0  0  0  0  0  0  0
  139.5810   72.9600  222.3490 N   0  0  0  0  0  0  0  0  0  0  0  0
  139.3300   73.3570  220.9680 C   0  0  0  0  0  0  0  0  0  0  0  0
  140.5270   73.2050  220.1380 C   0  0  0  0  0  0  0  0  0  0  0  0
  140.7610   72.2060  219.3950 O   0  0  0  0  0  0  0  0  0  0  0  0
  141.5020   74.2290  220.1480 N   0  0  0  0  0  0  0  0  0  0  0  0
  142.8050   74.1610  220.8230 C   0  0  0  0  0  0  0  0  0  0  0  0
  143.7120   74.8480  219.8370 C   0  0  0  0  0  0  0  0  0  0  0  0
  142.8230   75.5530  218.8260 C   0  0  0  0  0  0  0  0  0  0  0  0
  141.4850   75.5440  219.5340 C   0  0  2  0  0  0  0  0  0  0  0  0
  141.4520   76.6160  220.5810 C   0  0  0  0  0  0  0  0  0  0  0  0
  140.8790   76.2930  221.7530 N   0  0  0  0  0  0  0  0  0  0  0  0
  140.8170   77.2120  222.7370 C   0  0  0  0  0  0  0  0  0  0  0  0
  141.3330   78.4670  222.5490 C   0  0  0  0  0  0  0  0  0  0  0  0
  141.2400   79.6340  223.8340 Cl  0  0  0  0  0  0  0  0  0  0  0  0
  141.9110   78.7620  221.3360 C   0  0  0  0  0  0  0  0  0  0  0  0
  141.9780   77.8500  220.3460 N   0  0  0  0  0  0  0  0  0  0  0  0
  140.0340   71.0740  223.9450 C   0  0  0  0  0  0  0  0  0  0  0  0
  140.7030   71.8820  224.8460 C   0  0  0  0  0  0  0  0  0  0  0  0
  140.9720   71.4470  226.1290 C   0  0  0  0  0  0  0  0  0  0  0  0
  140.5650   70.1710  226.5260 C   0  0  0  0  0  0  0  0  0  0  0  0
  140.8000   69.6770  227.7830 C   0  0  0  0  0  0  0  0  0  0  0  0
  140.3790   68.4000  228.1450 C   0  0  0  0  0  0  0  0  0  0  0  0
  139.7110   67.6100  227.2220 C   0  0  0  0  0  0  0  0  0  0  0  0
  139.4680   68.1090  225.9390 C   0  0  0  0  0  0  0  0  0  0  0  0
  139.8910   69.3750  225.5930 C   0  0  0  0  0  0  0  0  0  0  0  0
  139.6530   69.8490  224.3520 N   0  0  0  0  0  0  0  0  0  0  0  0
  139.6190   73.6370  223.1400 H   0  0  0  0  0  0  0  0  0  0  0  0
  138.5274   72.7278  220.5558 H   0  0  0  0  0  0  0  0  0  0  0  0
  139.0393   74.4179  220.9621 H   0  0  0  0  0  0  0  0  0  0  0  0
  142.7841   74.6950  221.7845 H   0  0  0  0  0  0  0  0  0  0  0  0
  143.1196   73.1368  221.0721 H   0  0  0  0  0  0  0  0  0  0  0  0
  144.3473   75.5807  220.3561 H   0  0  0  0  0  0  0  0  0  0  0  0
  144.3702   74.1209  219.3389 H   0  0  0  0  0  0  0  0  0  0  0  0
  143.1687   76.5797  218.6353 H   0  0  0  0  0  0  0  0  0  0  0  0
  142.8071   75.0746  217.8356 H   0  0  0  0  0  0  0  0  0  0  0  0
  140.6168   75.7277  218.8841 H   0  0  0  0  0  0  0  0  0  0  0  0
  140.3487   76.9524  223.6979 H   0  0  0  0  0  0  0  0  0  0  0  0
  142.3284   79.7661  221.1702 H   0  0  0  0  0  0  0  0  0  0  0  0
  141.0260   72.8868  224.5361 H   0  0  0  0  0  0  0  0  0  0  0  0
  141.5040   72.1020  226.8346 H   0  0  0  0  0  0  0  0  0  0  0  0
  141.3302   70.3001  228.5183 H   0  0  0  0  0  0  0  0  0  0  0  0
  140.5755   68.0199  229.1584 H   0  0  0  0  0  0  0  0  0  0  0  0
  139.3751   66.5993  227.4969 H   0  0  0  0  0  0  0  0  0  0  0  0
  138.9368   67.4888  225.2019 H   0  0  0  0  0  0  0  0  0  0  0  0
  1  2  2  0
  2  3  1  0
  3  4  1  0
  4  5  1  0
  5  6  2  0
  5  7  1  0
  7  8  1  0
  8  9  1  0
  9 10  1  0
 10 11  1  0
 11 12  1  0
 12 13  2  0
 13 14  1  0
 14 15  2  0
 15 16  1  0
 15 17  1  0
 17 18  2  0
  2 19  1  0
 19 20  2  0
 20 21  1  0
 21 22  2  0
 22 23  1  0
 23 24  2  0
 24 25  1  0
 25 26  2  0
 26 27  1  0
 27 28  2  0
 11  7  1  0
 18 12  1  0
 28 19  1  0
 27 22  1  0
  3 29  1  0
  4 30  1  0
  4 31  1  0
  8 32  1  0
  8 33  1  0
  9 34  1  0
  9 35  1  0
 10 36  1  0
 10 37  1  0
 11 38  1  6
 14 39  1  0
 17 40  1  0
 20 41  1  0
 21 42  1  0
 23 43  1  0
 24 44  1  0
 25 45  1  0
 26 46  1  0
M  END
>  <smiles>  (2) 
O=C(NCC(=O)N1CCC[C@@H]1c1ncc(Cl)cn1)c1ccc2ccccc2n1

>  <score_type>  (2) 
oracle

>  <origin>  (2) 
autodockgpu

>  <m_score__min__energy>  (2) 
-8.7699999999999996

>  <m_primary>  (2) 
energy

>  <rmsd>  (2) 
3.116512470197802

>  <m_score__min__rmsd>  (2) 
3.116512470197802

>  <meeko>  (2) 
{"free_energy": -7.84, "intermolecular_energy": -9.33, "internal_energy": -1.44, "cluster_size": 31, "cluster_id": 1, "rank_in_cluster": 30}

>  <energy>  (2) 
-8.76

>  <cluster_rmsd>  (2) 
0.12

>  <cluster>  (2) 
1

$$$$

     RDKit          3D

 46 49  0  0  0  0  0  0  0  0999 V2000
  139.9120   73.7060  222.3840 O   0  0  0  0  0  0  0  0  0  0  0  0
  140.3430   72.5120  222.2970 C   0  0  0  0  0  0  0  0  0  0  0  0
  140.9120   72.1290  221.0650 N   0  0  0  0  0  0  0  0  0  0  0  0
  140.9550   73.1310  220.0060 C   0  0  0  0  0  0  0  0  0  0  0  0
  142.1910   73.9160  220.0580 C   0  0  0  0  0  0  0  0  0  0  0  0
  142.2350   75.1730  220.2060 O   0  0  0  0  0  0  0  0  0  0  0  0
  143.4320   73.2480  219.9360 N   0  0  0  0  0  0  0  0  0  0  0  0
  144.4000   73.4360  218.8470 C   0  0  0  0  0  0  0  0  0  0  0  0
  145.7150   73.3860  219.5780 C   0  0  0  0  0  0  0  0  0  0  0  0
  145.4360   72.8440  220.9700 C   0  0  0  0  0  0  0  0  0  0  0  0
  144.0500   72.2570  220.7990 C   0  0  2  0  0  0  0  0  0  0  0  0
  144.1370   70.9330  220.1040 C   0  0  0  0  0  0  0  0  0  0  0  0
  142.9950   70.2300  220.0070 N   0  0  0  0  0  0  0  0  0  0  0  0
  143.0060   69.0290  219.3940 C   0  0  0  0  0  0  0  0  0  0  0  0
  144.1670   68.5250  218.8710 C   0  0  0  0  0  0  0  0  0  0  0  0
  144.1530   66.9750  218.0860 Cl  0  0  0  0  0  0  0  0  0  0  0  0
  145.3160   69.2730  218.9910 C   0  0  0  0  0  0  0  0  0  0  0  0
  145.3170   70.4740  219.6020 N   0  0  0  0  0  0  0  0  0  0  0  0
  140.2470   71.5940  223.4270 C   0  0  0  0  0  0  0  0  0  0  0  0
  139.6660   70.3550  223.2270 C   0  0  0  0  0  0  0  0  0  0  0  0
  139.5500   69.4470  224.2620 C   0  0  0  0  0  0  0  0  0  0  0  0
  140.0250   69.7830  225.5320 C   0  0  0  0  0  0  0  0  0  0  0  0
  139.9420   68.9310  226.6020 C   0  0  0  0  0  0  0  0  0  0  0  0
  140.4260   69.2970  227.8550 C   0  0  0  0  0  0  0  0  0  0  0  0
  141.0040   70.5460  228.0280 C   0  0  0  0  0  0  0  0  0  0  0  0
  141.0920   71.4200  226.9400 C   0  0  0  0  0  0  0  0  0  0  0  0
  140.6080   71.0440  225.7050 C   0  0  0  0  0  0  0  0  0  0  0  0
  140.6960   71.8930  224.6600 N   0  0  0  0  0  0  0  0  0  0  0  0
  141.2780   71.1600  220.9500 H   0  0  0  0  0  0  0  0  0  0  0  0
  140.8946   72.6239  219.0317 H   0  0  0  0  0  0  0  0  0  0  0  0
  140.1056   73.8160  220.1449 H   0  0  0  0  0  0  0  0  0  0  0  0
  144.3259   72.6285  218.1038 H   0  0  0  0  0  0  0  0  0  0  0  0
  144.2474   74.3636  218.2759 H   0  0  0  0  0  0  0  0  0  0  0  0
  146.4152   72.7229  219.0489 H   0  0  0  0  0  0  0  0  0  0  0  0
  146.1692   74.3863  219.6327 H   0  0  0  0  0  0  0  0  0  0  0  0
  146.1663   72.0718  221.2534 H   0  0  0  0  0  0  0  0  0  0  0  0
  145.5056   73.6002  221.7658 H   0  0  0  0  0  0  0  0  0  0  0  0
  143.5066   72.0724  221.7374 H   0  0  0  0  0  0  0  0  0  0  0  0
  142.0747   68.4493  219.3133 H   0  0  0  0  0  0  0  0  0  0  0  0
  146.2569   68.8807  218.5778 H   0  0  0  0  0  0  0  0  0  0  0  0
  139.2903   70.0882  222.2282 H   0  0  0  0  0  0  0  0  0  0  0  0
  139.0862   68.4650  224.0869 H   0  0  0  0  0  0  0  0  0  0  0  0
  139.4845   67.9396  226.4685 H   0  0  0  0  0  0  0  0  0  0  0  0
  140.3505   68.6000  228.7026 H   0  0  0  0  0  0  0  0  0  0  0  0
  141.3901   70.8466  229.0132 H   0  0  0  0  0  0  0  0  0  0  0  0
  141.5494   72.4119  227.0700 H   0  0  0  0  0  0  0  0  0  0  0  0
  1  2  2  0
  2  3  1  0
  3  4  1  0
  4  5  1  0
  5  6  2  0
  5  7  1  0
  7  8  1  0
  8  9  1  0
  9 10  1  0
 10 11  1  0
 11 12  1  0
 12 13  2  0
 13 14  1  0
 14 15  2  0
 15 16  1  0
 15 17  1  0
 17 18  2  0
  2 19  1  0
 19 20  2  0
 20 21  1  0
 21 22  2  0
 22 23  1  0
 23 24  2  0
 24 25  1  0
 25 26  2  0
 26 27  1  0
 27 28  2  0
 11  7  1  0
 18 12  1  0
 28 19  1  0
 27 22  1  0
  3 29  1  0
  4 30  1  0
  4 31  1  0
  8 32  1  0
  8 33  1  0
  9 34  1  0
  9 35  1  0
 10 36  1  0
 10 37  1  0
 11 38  1  1
 14 39  1  0
 17 40  1  0
 20 41  1  0
 21 42  1  0
 23 43  1  0
 24 44  1  0
 25 45  1  0
 26 46  1  0
M  END
>  <smiles>  (3) 
O=C(NCC(=O)N1CCC[C@@H]1c1ncc(Cl)cn1)c1ccc2ccccc2n1

>  <score_type>  (3) 
oracle

>  <origin>  (3) 
autodockgpu

>  <m_score__min__energy>  (3) 
-8.7699999999999996

>  <m_primary>  (3) 
energy

>  <rmsd>  (3) 
5.759929037896041

>  <m_score__min__rmsd>  (3) 
5.759929037896041

>  <meeko>  (3) 
{"free_energy": -7.42, "intermolecular_energy": -8.91, "internal_energy": -2.18, "cluster_size": 2, "cluster_id": 4, "rank_in_cluster": 1}

>  <energy>  (3) 
-8.76

>  <cluster_rmsd>  (3) 
0.13

>  <cluster>  (3) 
1

$$$$

     RDKit          3D

 46 49  0  0  0  0  0  0  0  0999 V2000
  137.5010   75.8890  222.2740 O   0  0  0  0  0  0  0  0  0  0  0  0
  138.7550   76.0630  222.3920 C   0  0  0  0  0  0  0  0  0  0  0  0
  139.5720   74.9230  222.2420 N   0  0  0  0  0  0  0  0  0  0  0  0
  138.9080   73.6540  221.9640 C   0  0  0  0  0  0  0  0  0  0  0  0
  139.6890   72.5180  222.4580 C   0  0  0  0  0  0  0  0  0  0  0  0
  140.9530   72.4470  222.4200 O   0  0  0  0  0  0  0  0  0  0  0  0
  139.0090   71.4130  223.0210 N   0  0  0  0  0  0  0  0  0  0  0  0
  137.7240   71.4720  223.7310 C   0  0  0  0  0  0  0  0  0  0  0  0
  137.0360   70.2220  223.2490 C   0  0  0  0  0  0  0  0  0  0  0  0
  138.0890   69.3660  222.5640 C   0  0  0  0  0  0  0  0  0  0  0  0
  139.3710   70.0080  223.0510 C   0  0  2  0  0  0  0  0  0  0  0  0
  139.6650   69.5670  224.4530 C   0  0  0  0  0  0  0  0  0  0  0  0
  140.3850   70.4130  225.2100 N   0  0  0  0  0  0  0  0  0  0  0  0
  140.6840   70.0760  226.4800 C   0  0  0  0  0  0  0  0  0  0  0  0
  140.2580   68.8830  227.0010 C   0  0  0  0  0  0  0  0  0  0  0  0
  140.6570   68.4730  228.6430 Cl  0  0  0  0  0  0  0  0  0  0  0  0
  139.5240   68.0430  226.1970 C   0  0  0  0  0  0  0  0  0  0  0  0
  139.2200   68.3700  224.9250 N   0  0  0  0  0  0  0  0  0  0  0  0
  139.3090   77.3830  222.6710 C   0  0  0  0  0  0  0  0  0  0  0  0
  138.4390   78.4360  222.8860 C   0  0  0  0  0  0  0  0  0  0  0  0
  138.9100   79.7060  223.1540 C   0  0  0  0  0  0  0  0  0  0  0  0
  140.2870   79.9360  223.2090 C   0  0  0  0  0  0  0  0  0  0  0  0
  140.8220   81.1710  223.4700 C   0  0  0  0  0  0  0  0  0  0  0  0
  142.2000   81.3640  223.5180 C   0  0  0  0  0  0  0  0  0  0  0  0
  143.0500   80.2910  223.2990 C   0  0  0  0  0  0  0  0  0  0  0  0
  142.5110   79.0290  223.0320 C   0  0  0  0  0  0  0  0  0  0  0  0
  141.1440   78.8520  222.9870 C   0  0  0  0  0  0  0  0  0  0  0  0
  140.6310   77.6310  222.7300 N   0  0  0  0  0  0  0  0  0  0  0  0
  140.6060   75.0190  222.3300 H   0  0  0  0  0  0  0  0  0  0  0  0
  137.9236   73.6510  222.4549 H   0  0  0  0  0  0  0  0  0  0  0  0
  138.8033   73.5518  220.8738 H   0  0  0  0  0  0  0  0  0  0  0  0
  137.8695   71.4520  224.8212 H   0  0  0  0  0  0  0  0  0  0  0  0
  137.1541   72.3925  223.5364 H   0  0  0  0  0  0  0  0  0  0  0  0
  136.6033   69.6773  224.1011 H   0  0  0  0  0  0  0  0  0  0  0  0
  136.2199   70.4684  222.5538 H   0  0  0  0  0  0  0  0  0  0  0  0
  138.0207   68.3153  222.8823 H   0  0  0  0  0  0  0  0  0  0  0  0
  137.9942   69.3331  221.4686 H   0  0  0  0  0  0  0  0  0  0  0  0
  140.2657   69.7595  222.4613 H   0  0  0  0  0  0  0  0  0  0  0  0
  141.2745   70.7640  227.1028 H   0  0  0  0  0  0  0  0  0  0  0  0
  139.1765   67.0809  226.6015 H   0  0  0  0  0  0  0  0  0  0  0  0
  137.3542   78.2591  222.8428 H   0  0  0  0  0  0  0  0  0  0  0  0
  138.2044   80.5327  223.3234 H   0  0  0  0  0  0  0  0  0  0  0  0
  140.1506   82.0246  223.6446 H   0  0  0  0  0  0  0  0  0  0  0  0
  142.6118   82.3620  223.7285 H   0  0  0  0  0  0  0  0  0  0  0  0
  144.1404   80.4315  223.3350 H   0  0  0  0  0  0  0  0  0  0  0  0
  143.1801   78.1736  222.8571 H   0  0  0  0  0  0  0  0  0  0  0  0
  1  2  2  0
  2  3  1  0
  3  4  1  0
  4  5  1  0
  5  6  2  0
  5  7  1  0
  7  8  1  0
  8  9  1  0
  9 10  1  0
 10 11  1  0
 11 12  1  0
 12 13  2  0
 13 14  1  0
 14 15  2  0
 15 16  1  0
 15 17  1  0
 17 18  2  0
  2 19  1  0
 19 20  2  0
 20 21  1  0
 21 22  2  0
 22 23  1  0
 23 24  2  0
 24 25  1  0
 25 26  2  0
 26 27  1  0
 27 28  2  0
 11  7  1  0
 18 12  1  0
 28 19  1  0
 27 22  1  0
  3 29  1  0
  4 30  1  0
  4 31  1  0
  8 32  1  0
  8 33  1  0
  9 34  1  0
  9 35  1  0
 10 36  1  0
 10 37  1  0
 11 38  1  6
 14 39  1  0
 17 40  1  0
 20 41  1  0
 21 42  1  0
 23 43  1  0
 24 44  1  0
 25 45  1  0
 26 46  1  0
M  END
>  <smiles>  (4) 
O=C(NCC(=O)N1CCC[C@@H]1c1ncc(Cl)cn1)c1ccc2ccccc2n1

>  <score_type>  (4) 
oracle

>  <origin>  (4) 
autodockgpu

>  <m_score__min__energy>  (4) 
-8.7699999999999996

>  <m_primary>  (4) 
energy

>  <rmsd>  (4) 
9.096468671669939

>  <m_score__min__rmsd>  (4) 
9.096468671669939

>  <meeko>  (4) 
{"free_energy": -7.82, "intermolecular_energy": -9.31, "internal_energy": -1.63, "cluster_size": 9, "cluster_id": 2, "rank_in_cluster": 9}

>  <energy>  (4) 
-8.74

>  <cluster_rmsd>  (4) 
0.07

>  <cluster>  (4) 
1

$$$$

     RDKit          3D

 46 49  0  0  0  0  0  0  0  0999 V2000
  140.6590   71.6160  221.3110 O   0  0  0  0  0  0  0  0  0  0  0  0
  140.2590   72.1690  222.3840 C   0  0  0  0  0  0  0  0  0  0  0  0
  139.9010   73.5300  222.3020 N   0  0  0  0  0  0  0  0  0  0  0  0
  140.0200   74.1780  221.0010 C   0  0  0  0  0  0  0  0  0  0  0  0
  141.4000   74.5810  220.7240 C   0  0  0  0  0  0  0  0  0  0  0  0
  142.4020   73.8100  220.8080 O   0  0  0  0  0  0  0  0  0  0  0  0
  141.6600   75.9160  220.3340 N   0  0  0  0  0  0  0  0  0  0  0  0
  142.9470   76.4270  219.8440 C   0  0  0  0  0  0  0  0  0  0  0  0
  142.5190   77.3740  218.7540 C   0  0  0  0  0  0  0  0  0  0  0  0
  141.0240   77.5950  218.9120 C   0  0  0  0  0  0  0  0  0  0  0  0
  140.7820   77.0720  220.3130 C   0  0  2  0  0  0  0  0  0  0  0  0
  141.2220   78.0880  221.3220 C   0  0  0  0  0  0  0  0  0  0  0  0
  141.5370   79.3060  220.8500 N   0  0  0  0  0  0  0  0  0  0  0  0
  141.9410   80.2660  221.7060 C   0  0  0  0  0  0  0  0  0  0  0  0
  142.0300   80.0070  223.0480 C   0  0  0  0  0  0  0  0  0  0  0  0
  142.5530   81.2620  224.1310 Cl  0  0  0  0  0  0  0  0  0  0  0  0
  141.7000   78.7480  223.4950 C   0  0  0  0  0  0  0  0  0  0  0  0
  141.2950   77.7820  222.6470 N   0  0  0  0  0  0  0  0  0  0  0  0
  140.1790   71.4190  223.6330 C   0  0  0  0  0  0  0  0  0  0  0  0
  139.6090   70.1590  223.6140 C   0  0  0  0  0  0  0  0  0  0  0  0
  139.5090   69.4060  224.7680 C   0  0  0  0  0  0  0  0  0  0  0  0
  139.9890   69.9220  225.9750 C   0  0  0  0  0  0  0  0  0  0  0  0
  139.9210   69.2280  227.1550 C   0  0  0  0  0  0  0  0  0  0  0  0
  140.4100   69.7730  228.3390 C   0  0  0  0  0  0  0  0  0  0  0  0
  140.9770   71.0380  228.3300 C   0  0  0  0  0  0  0  0  0  0  0  0
  141.0490   71.7500  227.1290 C   0  0  0  0  0  0  0  0  0  0  0  0
  140.5610   71.1990  225.9630 C   0  0  0  0  0  0  0  0  0  0  0  0
  140.6340   71.8930  224.8080 N   0  0  0  0  0  0  0  0  0  0  0  0
  139.5660   74.0240  223.1580 H   0  0  0  0  0  0  0  0  0  0  0  0
  139.6896   73.4762  220.2211 H   0  0  0  0  0  0  0  0  0  0  0  0
  139.3925   75.0814  221.0079 H   0  0  0  0  0  0  0  0  0  0  0  0
  143.4951   76.9548  220.6384 H   0  0  0  0  0  0  0  0  0  0  0  0
  143.6330   75.6389  219.5000 H   0  0  0  0  0  0  0  0  0  0  0  0
  143.0539   78.3300  218.8539 H   0  0  0  0  0  0  0  0  0  0  0  0
  142.7494   76.9576  217.7623 H   0  0  0  0  0  0  0  0  0  0  0  0
  140.7657   78.6612  218.8320 H   0  0  0  0  0  0  0  0  0  0  0  0
  140.4158   77.1010  218.1400 H   0  0  0  0  0  0  0  0  0  0  0  0
  139.7314   76.8464  220.5481 H   0  0  0  0  0  0  0  0  0  0  0  0
  142.2010   81.2642  221.3240 H   0  0  0  0  0  0  0  0  0  0  0  0
  141.7684   78.5248  224.5699 H   0  0  0  0  0  0  0  0  0  0  0  0
  139.2296   69.7503  222.6659 H   0  0  0  0  0  0  0  0  0  0  0  0
  139.0538   68.4051  224.7370 H   0  0  0  0  0  0  0  0  0  0  0  0
  139.4726   68.2236  227.1666 H   0  0  0  0  0  0  0  0  0  0  0  0
  140.3468   69.2025  229.2774 H   0  0  0  0  0  0  0  0  0  0  0  0
  141.3669   71.4778  229.2598 H   0  0  0  0  0  0  0  0  0  0  0  0
  141.4970   72.7545  227.1141 H   0  0  0  0  0  0  0  0  0  0  0  0
  1  2  2  0
  2  3  1  0
  3  4  1  0
  4  5  1  0
  5  6  2  0
  5  7  1  0
  7  8  1  0
  8  9  1  0
  9 10  1  0
 10 11  1  0
 11 12  1  0
 12 13  2  0
 13 14  1  0
 14 15  2  0
 15 16  1  0
 15 17  1  0
 17 18  2  0
  2 19  1  0
 19 20  2  0
 20 21  1  0
 21 22  2  0
 22 23  1  0
 23 24  2  0
 24 25  1  0
 25 26  2  0
 26 27  1  0
 27 28  2  0
 11  7  1  0
 18 12  1  0
 28 19  1  0
 27 22  1  0
  3 29  1  0
  4 30  1  0
  4 31  1  0
  8 32  1  0
  8 33  1  0
  9 34  1  0
  9 35  1  0
 10 36  1  0
 10 37  1  0
 11 38  1  6
 14 39  1  0
 17 40  1  0
 20 41  1  0
 21 42  1  0
 23 43  1  0
 24 44  1  0
 25 45  1  0
 26 46  1  0
M  END
>  <smiles>  (5) 
O=C(NCC(=O)N1CCC[C@@H]1c1ncc(Cl)cn1)c1ccc2ccccc2n1

>  <score_type>  (5) 
oracle

>  <origin>  (5) 
autodockgpu

>  <m_score__min__energy>  (5) 
-8.7699999999999996

>  <m_primary>  (5) 
energy

>  <rmsd>  (5) 
2.306628942635783

>  <m_score__min__rmsd>  (5) 
2.306628942635783

>  <meeko>  (5) 
{"free_energy": -8.74, "intermolecular_energy": -10.24, "internal_energy": -1.32, "cluster_size": 31, "cluster_id": 1, "rank_in_cluster": 4}

>  <energy>  (5) 
-8.58

>  <cluster_rmsd>  (5) 
1.59

>  <cluster>  (5) 
1

$$$$

     RDKit          3D

 46 49  0  0  0  0  0  0  0  0999 V2000
  140.5630   71.5270  221.8070 O   0  0  0  0  0  0  0  0  0  0  0  0
  139.7190   71.6030  222.7550 C   0  0  0  0  0  0  0  0  0  0  0  0
  138.7430   72.6180  222.6580 N   0  0  0  0  0  0  0  0  0  0  0  0
  138.7900   73.4830  221.4850 C   0  0  0  0  0  0  0  0  0  0  0  0
  139.7860   74.5460  221.6390 C   0  0  0  0  0  0  0  0  0  0  0  0
  141.0030   74.3500  221.9290 O   0  0  0  0  0  0  0  0  0  0  0  0
  139.3870   75.8900  221.4560 N   0  0  0  0  0  0  0  0  0  0  0  0
  139.5730   76.6770  220.2290 C   0  0  0  0  0  0  0  0  0  0  0  0
  138.2890   77.4580  220.1530 C   0  0  0  0  0  0  0  0  0  0  0  0
  137.5990   77.3220  221.5010 C   0  0  0  0  0  0  0  0  0  0  0  0
  138.7250   76.8030  222.3710 C   0  0  2  0  0  0  0  0  0  0  0  0
  139.6410   77.9270  222.7490 C   0  0  0  0  0  0  0  0  0  0  0  0
  140.9560   77.6490  222.7690 N   0  0  0  0  0  0  0  0  0  0  0  0
  141.8330   78.6170  223.1020 C   0  0  0  0  0  0  0  0  0  0  0  0
  141.3940   79.8760  223.4170 C   0  0  0  0  0  0  0  0  0  0  0  0
  142.5460   81.1060  223.8430 Cl  0  0  0  0  0  0  0  0  0  0  0  0
  140.0410   80.1230  223.3860 C   0  0  0  0  0  0  0  0  0  0  0  0
  139.1550   79.1620  223.0540 N   0  0  0  0  0  0  0  0  0  0  0  0
  139.7680   70.6790  223.8830 C   0  0  0  0  0  0  0  0  0  0  0  0
  139.1820   69.4350  223.7470 C   0  0  0  0  0  0  0  0  0  0  0  0
  139.2010   68.5210  224.7830 C   0  0  0  0  0  0  0  0  0  0  0  0
  139.8200   68.8570  225.9900 C   0  0  0  0  0  0  0  0  0  0  0  0
  139.8740   67.9990  227.0570 C   0  0  0  0  0  0  0  0  0  0  0  0
  140.5010   68.3670  228.2450 C   0  0  0  0  0  0  0  0  0  0  0  0
  141.0810   69.6210  228.3550 C   0  0  0  0  0  0  0  0  0  0  0  0
  141.0280   70.5010  227.2700 C   0  0  0  0  0  0  0  0  0  0  0  0
  140.4050   70.1240  226.0990 C   0  0  0  0  0  0  0  0  0  0  0  0
  140.3590   70.9780  225.0550 N   0  0  0  0  0  0  0  0  0  0  0  0
  138.0310   72.7170  223.4130 H   0  0  0  0  0  0  0  0  0  0  0  0
  139.0482   72.8766  220.6043 H   0  0  0  0  0  0  0  0  0  0  0  0
  137.8023   73.9517  221.3631 H   0  0  0  0  0  0  0  0  0  0  0  0
  140.4422   77.3460  220.3125 H   0  0  0  0  0  0  0  0  0  0  0  0
  139.7696   76.0637  219.3372 H   0  0  0  0  0  0  0  0  0  0  0  0
  138.5036   78.5166  219.9447 H   0  0  0  0  0  0  0  0  0  0  0  0
  137.6470   77.0759  219.3456 H   0  0  0  0  0  0  0  0  0  0  0  0
  137.2284   78.2929  221.8616 H   0  0  0  0  0  0  0  0  0  0  0  0
  136.7113   76.6726  221.4849 H   0  0  0  0  0  0  0  0  0  0  0  0
  138.4035   76.3421  223.3166 H   0  0  0  0  0  0  0  0  0  0  0  0
  142.9100   78.3942  223.1210 H   0  0  0  0  0  0  0  0  0  0  0  0
  139.6730   81.1285  223.6381 H   0  0  0  0  0  0  0  0  0  0  0  0
  138.6926   69.1681  222.7987 H   0  0  0  0  0  0  0  0  0  0  0  0
  138.7314   67.5341  224.6584 H   0  0  0  0  0  0  0  0  0  0  0  0
  139.4145   67.0030  226.9739 H   0  0  0  0  0  0  0  0  0  0  0  0
  140.5357   67.6658  229.0918 H   0  0  0  0  0  0  0  0  0  0  0  0
  141.5791   69.9214  229.2886 H   0  0  0  0  0  0  0  0  0  0  0  0
  141.4852   71.4982  227.3507 H   0  0  0  0  0  0  0  0  0  0  0  0
  1  2  2  0
  2  3  1  0
  3  4  1  0
  4  5  1  0
  5  6  2  0
  5  7  1  0
  7  8  1  0
  8  9  1  0
  9 10  1  0
 10 11  1  0
 11 12  1  0
 12 13  2  0
 13 14  1  0
 14 15  2  0
 15 16  1  0
 15 17  1  0
 17 18  2  0
  2 19  1  0
 19 20  2  0
 20 21  1  0
 21 22  2  0
 22 23  1  0
 23 24  2  0
 24 25  1  0
 25 26  2  0
 26 27  1  0
 27 28  2  0
 11  7  1  0
 18 12  1  0
 28 19  1  0
 27 22  1  0
  3 29  1  0
  4 30  1  0
  4 31  1  0
  8 32  1  0
  8 33  1  0
  9 34  1  0
  9 35  1  0
 10 36  1  0
 10 37  1  0
 11 38  1  1
 14 39  1  0
 17 40  1  0
 20 41  1  0
 21 42  1  0
 23 43  1  0
 24 44  1  0
 25 45  1  0
 26 46  1  0
M  END
>  <smiles>  (6) 
O=C(NCC(=O)N1CCC[C@@H]1c1ncc(Cl)cn1)c1ccc2ccccc2n1

>  <score_type>  (6) 
oracle

>  <origin>  (6) 
autodockgpu

>  <m_score__min__energy>  (6) 
-8.7699999999999996

>  <m_primary>  (6) 
energy

>  <rmsd>  (6) 
2.362897961805318

>  <m_score__min__rmsd>  (6) 
2.362897961805318

>  <meeko>  (6) 
{"free_energy": -8.57, "intermolecular_energy": -10.06, "internal_energy": -1.25, "cluster_size": 31, "cluster_id": 1, "rank_in_cluster": 6}

>  <energy>  (6) 
-8.57

>  <cluster_rmsd>  (6) 
1.6

>  <cluster>  (6) 
1

$$$$

     RDKit          3D

 46 49  0  0  0  0  0  0  0  0999 V2000
  140.7000   71.4330  221.2360 O   0  0  0  0  0  0  0  0  0  0  0  0
  140.0950   71.9620  222.2220 C   0  0  0  0  0  0  0  0  0  0  0  0
  139.4560   73.1970  221.9880 N   0  0  0  0  0  0  0  0  0  0  0  0
  139.5460   73.7550  220.6430 C   0  0  0  0  0  0  0  0  0  0  0  0
  140.2940   75.0140  220.6310 C   0  0  0  0  0  0  0  0  0  0  0  0
  141.5030   75.1250  220.2710 O   0  0  0  0  0  0  0  0  0  0  0  0
  139.6440   76.2010  221.0430 N   0  0  0  0  0  0  0  0  0  0  0  0
  139.1760   77.2720  220.1530 C   0  0  0  0  0  0  0  0  0  0  0  0
  137.8690   77.6640  220.7870 C   0  0  0  0  0  0  0  0  0  0  0  0
  137.8320   77.0330  222.1690 C   0  0  0  0  0  0  0  0  0  0  0  0
  139.2840   76.6560  222.3740 C   0  0  2  0  0  0  0  0  0  0  0  0
  140.0810   77.8690  222.7500 C   0  0  0  0  0  0  0  0  0  0  0  0
  139.4020   78.8800  223.3200 N   0  0  0  0  0  0  0  0  0  0  0  0
  140.0600   80.0000  223.6820 C   0  0  0  0  0  0  0  0  0  0  0  0
  141.4090   80.1110  223.4740 C   0  0  0  0  0  0  0  0  0  0  0  0
  142.2330   81.5660  223.9490 Cl  0  0  0  0  0  0  0  0  0  0  0  0
  142.0700   79.0560  222.8870 C   0  0  0  0  0  0  0  0  0  0  0  0
  141.4220   77.9320  222.5220 N   0  0  0  0  0  0  0  0  0  0  0  0
  140.0700   71.3100  223.5270 C   0  0  0  0  0  0  0  0  0  0  0  0
  139.5330   70.0390  223.6230 C   0  0  0  0  0  0  0  0  0  0  0  0
  139.4860   69.3760  224.8340 C   0  0  0  0  0  0  0  0  0  0  0  0
  139.9860   69.9970  225.9820 C   0  0  0  0  0  0  0  0  0  0  0  0
  139.9700   69.3960  227.2140 C   0  0  0  0  0  0  0  0  0  0  0  0
  140.4780   70.0430  228.3370 C   0  0  0  0  0  0  0  0  0  0  0  0
  141.0110   71.3180  228.2130 C   0  0  0  0  0  0  0  0  0  0  0  0
  141.0300   71.9350  226.9590 C   0  0  0  0  0  0  0  0  0  0  0  0
  140.5230   71.2820  225.8540 C   0  0  0  0  0  0  0  0  0  0  0  0
  140.5460   71.8850  224.6470 N   0  0  0  0  0  0  0  0  0  0  0  0
  138.9480   73.6660  222.7680 H   0  0  0  0  0  0  0  0  0  0  0  0
  140.0548   73.0311  219.9895 H   0  0  0  0  0  0  0  0  0  0  0  0
  138.5257   73.9574  220.2853 H   0  0  0  0  0  0  0  0  0  0  0  0
  139.8815   78.1159  220.1392 H   0  0  0  0  0  0  0  0  0  0  0  0
  139.0814   76.9626  219.1017 H   0  0  0  0  0  0  0  0  0  0  0  0
  137.8044   78.7589  220.8709 H   0  0  0  0  0  0  0  0  0  0  0  0
  137.0207   77.3189  220.1777 H   0  0  0  0  0  0  0  0  0  0  0  0
  137.4934   77.7524  222.9292 H   0  0  0  0  0  0  0  0  0  0  0  0
  137.1348   76.1865  222.2546 H   0  0  0  0  0  0  0  0  0  0  0  0
  139.4621   75.9171  223.1691 H   0  0  0  0  0  0  0  0  0  0  0  0
  139.5092   80.8305  224.1478 H   0  0  0  0  0  0  0  0  0  0  0  0
  143.1533   79.1321  222.7115 H   0  0  0  0  0  0  0  0  0  0  0  0
  139.1373   69.5487  222.7213 H   0  0  0  0  0  0  0  0  0  0  0  0
  139.0574   68.3648  224.8945 H   0  0  0  0  0  0  0  0  0  0  0  0
  139.5485   68.3852  227.3169 H   0  0  0  0  0  0  0  0  0  0  0  0
  140.4569   69.5458  229.3180 H   0  0  0  0  0  0  0  0  0  0  0  0
  141.4150   71.8386  229.0938 H   0  0  0  0  0  0  0  0  0  0  0  0
  141.4510   72.9456  226.8524 H   0  0  0  0  0  0  0  0  0  0  0  0
  1  2  2  0
  2  3  1  0
  3  4  1  0
  4  5  1  0
  5  6  2  0
  5  7  1  0
  7  8  1  0
  8  9  1  0
  9 10  1  0
 10 11  1  0
 11 12  1  0
 12 13  2  0
 13 14  1  0
 14 15  2  0
 15 16  1  0
 15 17  1  0
 17 18  2  0
  2 19  1  0
 19 20  2  0
 20 21  1  0
 21 22  2  0
 22 23  1  0
 23 24  2  0
 24 25  1  0
 25 26  2  0
 26 27  1  0
 27 28  2  0
 11  7  1  0
 18 12  1  0
 28 19  1  0
 27 22  1  0
  3 29  1  0
  4 30  1  0
  4 31  1  0
  8 32  1  0
  8 33  1  0
  9 34  1  0
  9 35  1  0
 10 36  1  0
 10 37  1  0
 11 38  1  1
 14 39  1  0
 17 40  1  0
 20 41  1  0
 21 42  1  0
 23 43  1  0
 24 44  1  0
 25 45  1  0
 26 46  1  0
M  END
>  <smiles>  (7) 
O=C(NCC(=O)N1CCC[C@@H]1c1ncc(Cl)cn1)c1ccc2ccccc2n1

>  <score_type>  (7) 
oracle

>  <origin>  (7) 
autodockgpu

>  <m_score__min__energy>  (7) 
-8.7699999999999996

>  <m_primary>  (7) 
energy

>  <rmsd>  (7) 
2.5740704569290784

>  <m_score__min__rmsd>  (7) 
2.5740704569290784

>  <meeko>  (7) 
{"free_energy": -8.16, "intermolecular_energy": -9.66, "internal_energy": -1.38, "cluster_size": 31, "cluster_id": 1, "rank_in_cluster": 25}

>  <energy>  (7) 
-8.47

>  <cluster_rmsd>  (7) 
1.19

>  <cluster>  (7) 
1

$$$$

     RDKit          3D

 46 49  0  0  0  0  0  0  0  0999 V2000
  140.9240   71.5120  221.4740 O   0  0  0  0  0  0  0  0  0  0  0  0
  140.2180   71.8970  222.4590 C   0  0  0  0  0  0  0  0  0  0  0  0
  139.5350   73.1220  222.3120 N   0  0  0  0  0  0  0  0  0  0  0  0
  139.6980   73.8330  221.0490 C   0  0  0  0  0  0  0  0  0  0  0  0
  140.7310   74.8670  221.1430 C   0  0  0  0  0  0  0  0  0  0  0  0
  140.7340   75.8020  221.9970 O   0  0  0  0  0  0  0  0  0  0  0  0
  141.8110   74.8410  220.2290 N   0  0  0  0  0  0  0  0  0  0  0  0
  141.6900   74.7970  218.7650 C   0  0  0  0  0  0  0  0  0  0  0  0
  142.8010   75.7130  218.3260 C   0  0  0  0  0  0  0  0  0  0  0  0
  143.6880   75.9570  219.5360 C   0  0  0  0  0  0  0  0  0  0  0  0
  143.2420   74.8520  220.4710 C   0  0  2  0  0  0  0  0  0  0  0  0
  143.8570   73.5500  220.0550 C   0  0  0  0  0  0  0  0  0  0  0  0
  143.2990   72.4350  220.5570 N   0  0  0  0  0  0  0  0  0  0  0  0
  143.8060   71.2310  220.2230 C   0  0  0  0  0  0  0  0  0  0  0  0
  144.8790   71.1390  219.3780 C   0  0  0  0  0  0  0  0  0  0  0  0
  145.5140   69.5750  218.9620 Cl  0  0  0  0  0  0  0  0  0  0  0  0
  145.4250   72.3020  218.8840 C   0  0  0  0  0  0  0  0  0  0  0  0
  144.9260   73.5100  219.2120 N   0  0  0  0  0  0  0  0  0  0  0  0
  140.1280   71.0990  223.6770 C   0  0  0  0  0  0  0  0  0  0  0  0
  139.5230   69.8580  223.6140 C   0  0  0  0  0  0  0  0  0  0  0  0
  139.4120   69.0610  224.7370 C   0  0  0  0  0  0  0  0  0  0  0  0
  139.9160   69.5150  225.9590 C   0  0  0  0  0  0  0  0  0  0  0  0
  139.8390   68.7760  227.1110 C   0  0  0  0  0  0  0  0  0  0  0  0
  140.3530   69.2590  228.3110 C   0  0  0  0  0  0  0  0  0  0  0  0
  140.9550   70.5080  228.3480 C   0  0  0  0  0  0  0  0  0  0  0  0
  141.0360   71.2650  227.1760 C   0  0  0  0  0  0  0  0  0  0  0  0
  140.5230   70.7750  225.9930 C   0  0  0  0  0  0  0  0  0  0  0  0
  140.6060   71.5130  224.8660 N   0  0  0  0  0  0  0  0  0  0  0  0
  138.9440   73.4760  223.0950 H   0  0  0  0  0  0  0  0  0  0  0  0
  139.9835   73.1129  220.2680 H   0  0  0  0  0  0  0  0  0  0  0  0
  138.7434   74.3210  220.8027 H   0  0  0  0  0  0  0  0  0  0  0  0
  141.8402   73.7765  218.3830 H   0  0  0  0  0  0  0  0  0  0  0  0
  140.6985   75.0968  218.3948 H   0  0  0  0  0  0  0  0  0  0  0  0
  143.3832   75.2403  217.5213 H   0  0  0  0  0  0  0  0  0  0  0  0
  142.3962   76.6608  217.9415 H   0  0  0  0  0  0  0  0  0  0  0  0
  144.7530   75.8592  219.2788 H   0  0  0  0  0  0  0  0  0  0  0  0
  143.5950   76.9670  219.9617 H   0  0  0  0  0  0  0  0  0  0  0  0
  143.5212   74.9977  221.5250 H   0  0  0  0  0  0  0  0  0  0  0  0
  143.3539   70.3157  220.6327 H   0  0  0  0  0  0  0  0  0  0  0  0
  146.2889   72.2439  218.2056 H   0  0  0  0  0  0  0  0  0  0  0  0
  139.1233   69.4990  222.6541 H   0  0  0  0  0  0  0  0  0  0  0  0
  138.9297   68.0747  224.6698 H   0  0  0  0  0  0  0  0  0  0  0  0
  139.3630   67.7846  227.0867 H   0  0  0  0  0  0  0  0  0  0  0  0
  140.2821   68.6527  229.2261 H   0  0  0  0  0  0  0  0  0  0  0  0
  141.3648   70.8991  229.2909 H   0  0  0  0  0  0  0  0  0  0  0  0
  141.5113   72.2568  227.1970 H   0  0  0  0  0  0  0  0  0  0  0  0
  1  2  2  0
  2  3  1  0
  3  4  1  0
  4  5  1  0
  5  6  2  0
  5  7  1  0
  7  8  1  0
  8  9  1  0
  9 10  1  0
 10 11  1  0
 11 12  1  0
 12 13  2  0
 13 14  1  0
 14 15  2  0
 15 16  1  0
 15 17  1  0
 17 18  2  0
  2 19  1  0
 19 20  2  0
 20 21  1  0
 21 22  2  0
 22 23  1  0
 23 24  2  0
 24 25  1  0
 25 26  2  0
 26 27  1  0
 27 28  2  0
 11  7  1  0
 18 12  1  0
 28 19  1  0
 27 22  1  0
  3 29  1  0
  4 30  1  0
  4 31  1  0
  8 32  1  0
  8 33  1  0
  9 34  1  0
  9 35  1  0
 10 36  1  0
 10 37  1  0
 11 38  1  1
 14 39  1  0
 17 40  1  0
 20 41  1  0
 21 42  1  0
 23 43  1  0
 24 44  1  0
 25 45  1  0
 26 46  1  0
M  END
>  <smiles>  (8) 
O=C(NCC(=O)N1CCC[C@@H]1c1ncc(Cl)cn1)c1ccc2ccccc2n1

>  <score_type>  (8) 
oracle

>  <origin>  (8) 
autodockgpu

>  <m_score__min__energy>  (8) 
-8.7699999999999996

>  <m_primary>  (8) 
energy

>  <rmsd>  (8) 
4.033508095088967

>  <m_score__min__rmsd>  (8) 
4.033508095088967

>  <meeko>  (8) 
{"free_energy": -7.86, "intermolecular_energy": -9.36, "internal_energy": -1.65, "cluster_size": 3, "cluster_id": 3, "rank_in_cluster": 1}

>  <energy>  (8) 
-8.45

>  <cluster_rmsd>  (8) 
1.08

>  <cluster>  (8) 
1

$$$$

     RDKit          3D

 46 49  0  0  0  0  0  0  0  0999 V2000
  139.9200   73.7880  222.4520 O   0  0  0  0  0  0  0  0  0  0  0  0
  140.3570   72.6000  222.3350 C   0  0  0  0  0  0  0  0  0  0  0  0
  140.9480   72.2580  221.1010 N   0  0  0  0  0  0  0  0  0  0  0  0
  141.0060   73.2930  220.0750 C   0  0  0  0  0  0  0  0  0  0  0  0
  142.2730   74.0260  220.1200 C   0  0  0  0  0  0  0  0  0  0  0  0
  142.3750   75.2680  220.3420 O   0  0  0  0  0  0  0  0  0  0  0  0
  143.4800   73.3200  219.9040 N   0  0  0  0  0  0  0  0  0  0  0  0
  144.3380   73.4380  218.7170 C   0  0  0  0  0  0  0  0  0  0  0  0
  145.7180   73.3820  219.3140 C   0  0  0  0  0  0  0  0  0  0  0  0
  145.5680   72.9050  220.7490 C   0  0  0  0  0  0  0  0  0  0  0  0
  144.1590   72.3490  220.7420 C   0  0  2  0  0  0  0  0  0  0  0  0
  144.1450   70.9950  220.1000 C   0  0  0  0  0  0  0  0  0  0  0  0
  145.3270   70.5250  219.6640 N   0  0  0  0  0  0  0  0  0  0  0  0
  145.3830   69.3140  219.0760 C   0  0  0  0  0  0  0  0  0  0  0  0
  144.2480   68.5620  218.9230 C   0  0  0  0  0  0  0  0  0  0  0  0
  144.3470   67.0030  218.1610 Cl  0  0  0  0  0  0  0  0  0  0  0  0
  143.0570   69.0760  219.3810 C   0  0  0  0  0  0  0  0  0  0  0  0
  142.9900   70.2870  219.9700 N   0  0  0  0  0  0  0  0  0  0  0  0
  140.2450   71.6450  223.4330 C   0  0  0  0  0  0  0  0  0  0  0  0
  139.6480   70.4220  223.1900 C   0  0  0  0  0  0  0  0  0  0  0  0
  139.5170   69.4820  224.1940 C   0  0  0  0  0  0  0  0  0  0  0  0
  139.9930   69.7680  225.4760 C   0  0  0  0  0  0  0  0  0  0  0  0
  139.8950   68.8820  226.5160 C   0  0  0  0  0  0  0  0  0  0  0  0
  140.3820   69.1990  227.7810 C   0  0  0  0  0  0  0  0  0  0  0  0
  140.9760   70.4330  227.9980 C   0  0  0  0  0  0  0  0  0  0  0  0
  141.0790   71.3420  226.9400 C   0  0  0  0  0  0  0  0  0  0  0  0
  140.5930   71.0140  225.6920 C   0  0  0  0  0  0  0  0  0  0  0  0
  140.6960   71.8960  224.6760 N   0  0  0  0  0  0  0  0  0  0  0  0
  141.3200   71.2940  220.9610 H   0  0  0  0  0  0  0  0  0  0  0  0
  140.9009   72.8221  219.0865 H   0  0  0  0  0  0  0  0  0  0  0  0
  140.1891   74.0062  220.2591 H   0  0  0  0  0  0  0  0  0  0  0  0
  144.1711   72.6036  218.0199 H   0  0  0  0  0  0  0  0  0  0  0  0
  144.1499   74.3460  218.1253 H   0  0  0  0  0  0  0  0  0  0  0  0
  146.3457   72.6789  218.7468 H   0  0  0  0  0  0  0  0  0  0  0  0
  146.1987   74.3708  219.2795 H   0  0  0  0  0  0  0  0  0  0  0  0
  146.3054   72.1257  220.9917 H   0  0  0  0  0  0  0  0  0  0  0  0
  145.7342   73.6909  221.5005 H   0  0  0  0  0  0  0  0  0  0  0  0
  143.7088   72.2172  221.7370 H   0  0  0  0  0  0  0  0  0  0  0  0
  146.3474   68.9261  218.7160 H   0  0  0  0  0  0  0  0  0  0  0  0
  142.1369   68.4846  219.2638 H   0  0  0  0  0  0  0  0  0  0  0  0
  139.2715   70.1938  222.1819 H   0  0  0  0  0  0  0  0  0  0  0  0
  139.0402   68.5130  223.9850 H   0  0  0  0  0  0  0  0  0  0  0  0
  139.4231   67.9026  226.3486 H   0  0  0  0  0  0  0  0  0  0  0  0
  140.2961   68.4744  228.6041 H   0  0  0  0  0  0  0  0  0  0  0  0
  141.3630   70.6948  228.9938 H   0  0  0  0  0  0  0  0  0  0  0  0
  141.5496   72.3226  227.1042 H   0  0  0  0  0  0  0  0  0  0  0  0
  1  2  2  0
  2  3  1  0
  3  4  1  0
  4  5  1  0
  5  6  2  0
  5  7  1  0
  7  8  1  0
  8  9  1  0
  9 10  1  0
 10 11  1  0
 11 12  1  0
 12 13  2  0
 13 14  1  0
 14 15  2  0
 15 16  1  0
 15 17  1  0
 17 18  2  0
  2 19  1  0
 19 20  2  0
 20 21  1  0
 21 22  2  0
 22 23  1  0
 23 24  2  0
 24 25  1  0
 25 26  2  0
 26 27  1  0
 27 28  2  0
 11  7  1  0
 18 12  1  0
 28 19  1  0
 27 22  1  0
  3 29  1  0
  4 30  1  0
  4 31  1  0
  8 32  1  0
  8 33  1  0
  9 34  1  0
  9 35  1  0
 10 36  1  0
 10 37  1  0
 11 38  1  1
 14 39  1  0
 17 40  1  0
 20 41  1  0
 21 42  1  0
 23 43  1  0
 24 44  1  0
 25 45  1  0
 26 46  1  0
M  END
>  <smiles>  (9) 
O=C(NCC(=O)N1CCC[C@@H]1c1ncc(Cl)cn1)c1ccc2ccccc2n1

>  <score_type>  (9) 
oracle

>  <origin>  (9) 
autodockgpu

>  <m_score__min__energy>  (9) 
-8.7699999999999996

>  <m_primary>  (9) 
energy

>  <rmsd>  (9) 
5.790431185294507

>  <m_score__min__rmsd>  (9) 
5.790431185294507

>  <meeko>  (9) 
{"free_energy": -7.41, "intermolecular_energy": -8.9, "internal_energy": -2.14, "cluster_size": 3, "cluster_id": 3, "rank_in_cluster": 3}

>  <energy>  (9) 
-8.45

>  <cluster_rmsd>  (9) 
1.13

>  <cluster>  (9) 
1

$$$$

     RDKit          3D

 46 49  0  0  0  0  0  0  0  0999 V2000
  140.8120   71.6080  221.3580 O   0  0  0  0  0  0  0  0  0  0  0  0
  140.3280   72.1570  222.3980 C   0  0  0  0  0  0  0  0  0  0  0  0
  139.9360   73.5060  222.2810 N   0  0  0  0  0  0  0  0  0  0  0  0
  140.1200   74.1480  220.9840 C   0  0  0  0  0  0  0  0  0  0  0  0
  141.5000   74.5990  220.7970 C   0  0  0  0  0  0  0  0  0  0  0  0
  142.5230   73.8860  221.0230 O   0  0  0  0  0  0  0  0  0  0  0  0
  141.7350   75.9150  220.3340 N   0  0  0  0  0  0  0  0  0  0  0  0
  143.0030   76.4140  219.7850 C   0  0  0  0  0  0  0  0  0  0  0  0
  142.5380   77.2990  218.6600 C   0  0  0  0  0  0  0  0  0  0  0  0
  141.0440   77.5120  218.8450 C   0  0  0  0  0  0  0  0  0  0  0  0
  140.8430   77.0590  220.2760 C   0  0  2  0  0  0  0  0  0  0  0  0
  141.2970   78.1300  221.2210 C   0  0  0  0  0  0  0  0  0  0  0  0
  141.2620   77.8280  222.5300 N   0  0  0  0  0  0  0  0  0  0  0  0
  141.6560   78.7490  223.4340 C   0  0  0  0  0  0  0  0  0  0  0  0
  142.0910   79.9810  223.0250 C   0  0  0  0  0  0  0  0  0  0  0  0
  142.5940   81.1500  224.2100 Cl  0  0  0  0  0  0  0  0  0  0  0  0
  142.1120   80.2540  221.6770 C   0  0  0  0  0  0  0  0  0  0  0  0
  141.7200   79.3410  220.7660 N   0  0  0  0  0  0  0  0  0  0  0  0
  140.1900   71.4130  223.6460 C   0  0  0  0  0  0  0  0  0  0  0  0
  139.5290   70.1990  223.6250 C   0  0  0  0  0  0  0  0  0  0  0  0
  139.3710   69.4540  224.7770 C   0  0  0  0  0  0  0  0  0  0  0  0
  139.8840   69.9330  225.9860 C   0  0  0  0  0  0  0  0  0  0  0  0
  139.7630   69.2450  227.1660 C   0  0  0  0  0  0  0  0  0  0  0  0
  140.2870   69.7520  228.3510 C   0  0  0  0  0  0  0  0  0  0  0  0
  140.9440   70.9730  228.3450 C   0  0  0  0  0  0  0  0  0  0  0  0
  141.0720   71.6780  227.1450 C   0  0  0  0  0  0  0  0  0  0  0  0
  140.5470   71.1650  225.9770 C   0  0  0  0  0  0  0  0  0  0  0  0
  140.6750   71.8520  224.8220 N   0  0  0  0  0  0  0  0  0  0  0  0
  139.5330   73.9960  223.1090 H   0  0  0  0  0  0  0  0  0  0  0  0
  139.8690   73.4285  220.1907 H   0  0  0  0  0  0  0  0  0  0  0  0
  139.4614   75.0279  220.9391 H   0  0  0  0  0  0  0  0  0  0  0  0
  143.5647   76.9874  220.5371 H   0  0  0  0  0  0  0  0  0  0  0  0
  143.6887   75.6161  219.4637 H   0  0  0  0  0  0  0  0  0  0  0  0
  143.0640   78.2644  218.6976 H   0  0  0  0  0  0  0  0  0  0  0  0
  142.7490   76.8353  217.6851 H   0  0  0  0  0  0  0  0  0  0  0  0
  140.7712   78.5700  218.7175 H   0  0  0  0  0  0  0  0  0  0  0  0
  140.4227   76.9726  218.1149 H   0  0  0  0  0  0  0  0  0  0  0  0
  139.8011   76.8350  220.5483 H   0  0  0  0  0  0  0  0  0  0  0  0
  141.6275   78.5083  224.5070 H   0  0  0  0  0  0  0  0  0  0  0  0
  142.4568   81.2407  221.3343 H   0  0  0  0  0  0  0  0  0  0  0  0
  139.1225   69.8204  222.6756 H   0  0  0  0  0  0  0  0  0  0  0  0
  138.8443   68.4889  224.7435 H   0  0  0  0  0  0  0  0  0  0  0  0
  139.2428   68.2758  227.1759 H   0  0  0  0  0  0  0  0  0  0  0  0
  140.1805   69.1866  229.2886 H   0  0  0  0  0  0  0  0  0  0  0  0
  141.3609   71.3832  229.2766 H   0  0  0  0  0  0  0  0  0  0  0  0
  141.5937   72.6463  227.1318 H   0  0  0  0  0  0  0  0  0  0  0  0
  1  2  2  0
  2  3  1  0
  3  4  1  0
  4  5  1  0
  5  6  2  0
  5  7  1  0
  7  8  1  0
  8  9  1  0
  9 10  1  0
 10 11  1  0
 11 12  1  0
 12 13  2  0
 13 14  1  0
 14 15  2  0
 15 16  1  0
 15 17  1  0
 17 18  2  0
  2 19  1  0
 19 20  2  0
 20 21  1  0
 21 22  2  0
 22 23  1  0
 23 24  2  0
 24 25  1  0
 25 26  2  0
 26 27  1  0
 27 28  2  0
 11  7  1  0
 18 12  1  0
 28 19  1  0
 27 22  1  0
  3 29  1  0
  4 30  1  0
  4 31  1  0
  8 32  1  0
  8 33  1  0
  9 34  1  0
  9 35  1  0
 10 36  1  0
 10 37  1  0
 11 38  1  6
 14 39  1  0
 17 40  1  0
 20 41  1  0
 21 42  1  0
 23 43  1  0
 24 44  1  0
 25 45  1  0
 26 46  1  0
M  END
>  <smiles>  (10) 
O=C(NCC(=O)N1CCC[C@@H]1c1ncc(Cl)cn1)c1ccc2ccccc2n1

>  <score_type>  (10) 
oracle

>  <origin>  (10) 
autodockgpu

>  <m_score__min__energy>  (10) 
-8.7699999999999996

>  <m_primary>  (10) 
energy

>  <rmsd>  (10) 
2.08876138750071

>  <m_score__min__rmsd>  (10) 
2.08876138750071

>  <meeko>  (10) 
{"free_energy": -8.76, "intermolecular_energy": -10.25, "internal_energy": -1.31, "cluster_size": 31, "cluster_id": 1, "rank_in_cluster": 2}

>  <energy>  (10) 
-8.44

>  <cluster_rmsd>  (10) 
1.17

>  <cluster>  (10) 
1

$$$$

     RDKit          3D

 46 49  0  0  0  0  0  0  0  0999 V2000
  140.5680   71.8490  221.8140 O   0  0  0  0  0  0  0  0  0  0  0  0
  139.6520   71.8090  222.6940 C   0  0  0  0  0  0  0  0  0  0  0  0
  138.5600   72.6840  222.5150 N   0  0  0  0  0  0  0  0  0  0  0  0
  138.5800   73.5500  221.3420 C   0  0  0  0  0  0  0  0  0  0  0  0
  138.8000   74.9500  221.7100 C   0  0  0  0  0  0  0  0  0  0  0  0
  137.9740   75.6600  222.3570 O   0  0  0  0  0  0  0  0  0  0  0  0
  140.0100   75.5760  221.3300 N   0  0  0  0  0  0  0  0  0  0  0  0
  141.3590   75.0490  221.5760 C   0  0  0  0  0  0  0  0  0  0  0  0
  142.0780   75.4040  220.3020 C   0  0  0  0  0  0  0  0  0  0  0  0
  141.2020   76.3940  219.5530 C   0  0  0  0  0  0  0  0  0  0  0  0
  140.2370   76.8310  220.6350 C   0  0  2  0  0  0  0  0  0  0  0  0
  140.8980   77.8240  221.5410 C   0  0  0  0  0  0  0  0  0  0  0  0
  141.5150   78.8610  220.9470 N   0  0  0  0  0  0  0  0  0  0  0  0
  142.1290   79.7900  221.7060 C   0  0  0  0  0  0  0  0  0  0  0  0
  142.1270   79.6850  223.0720 C   0  0  0  0  0  0  0  0  0  0  0  0
  142.9270   80.8970  224.0270 Cl  0  0  0  0  0  0  0  0  0  0  0  0
  141.4870   78.6100  223.6440 C   0  0  0  0  0  0  0  0  0  0  0  0
  140.8690   77.6750  222.8940 N   0  0  0  0  0  0  0  0  0  0  0  0
  139.7380   70.8980  223.8300 C   0  0  0  0  0  0  0  0  0  0  0  0
  139.2590   69.6090  223.6840 C   0  0  0  0  0  0  0  0  0  0  0  0
  139.3180   68.7050  224.7270 C   0  0  0  0  0  0  0  0  0  0  0  0
  139.8670   69.0960  225.9510 C   0  0  0  0  0  0  0  0  0  0  0  0
  139.9550   68.2500  227.0260 C   0  0  0  0  0  0  0  0  0  0  0  0
  140.5090   68.6730  228.2310 C   0  0  0  0  0  0  0  0  0  0  0  0
  140.9820   69.9710  228.3510 C   0  0  0  0  0  0  0  0  0  0  0  0
  140.8950   70.8380  227.2580 C   0  0  0  0  0  0  0  0  0  0  0  0
  140.3430   70.4060  226.0700 C   0  0  0  0  0  0  0  0  0  0  0  0
  140.2630   71.2490  225.0190 N   0  0  0  0  0  0  0  0  0  0  0  0
  137.7850   72.6850  223.2130 H   0  0  0  0  0  0  0  0  0  0  0  0
  139.3899   73.2253  220.6722 H   0  0  0  0  0  0  0  0  0  0  0  0
  137.6032   73.4749  220.8419 H   0  0  0  0  0  0  0  0  0  0  0  0
  141.8247   75.5360  222.4455 H   0  0  0  0  0  0  0  0  0  0  0  0
  141.3769   73.9738  221.8075 H   0  0  0  0  0  0  0  0  0  0  0  0
  143.0512   75.8617  220.5334 H   0  0  0  0  0  0  0  0  0  0  0  0
  142.2610   74.5061  219.6935 H   0  0  0  0  0  0  0  0  0  0  0  0
  141.7901   77.2427  219.1738 H   0  0  0  0  0  0  0  0  0  0  0  0
  140.7128   75.9723  218.6625 H   0  0  0  0  0  0  0  0  0  0  0  0
  139.3209   77.3175  220.2687 H   0  0  0  0  0  0  0  0  0  0  0  0
  142.6359   80.6395  221.2249 H   0  0  0  0  0  0  0  0  0  0  0  0
  141.4791   78.5107  224.7395 H   0  0  0  0  0  0  0  0  0  0  0  0
  138.8242   69.2986  222.7224 H   0  0  0  0  0  0  0  0  0  0  0  0
  138.9347   67.6825  224.5946 H   0  0  0  0  0  0  0  0  0  0  0  0
  139.5815   67.2194  226.9349 H   0  0  0  0  0  0  0  0  0  0  0  0
  140.5713   67.9810  229.0838 H   0  0  0  0  0  0  0  0  0  0  0  0
  141.4220   70.3155  229.2985 H   0  0  0  0  0  0  0  0  0  0  0  0
  141.2683   71.8690  227.3456 H   0  0  0  0  0  0  0  0  0  0  0  0
  1  2  2  0
  2  3  1  0
  3  4  1  0
  4  5  1  0
  5  6  2  0
  5  7  1  0
  7  8  1  0
  8  9  1  0
  9 10  1  0
 10 11  1  0
 11 12  1  0
 12 13  2  0
 13 14  1  0
 14 15  2  0
 15 16  1  0
 15 17  1  0
 17 18  2  0
  2 19  1  0
 19 20  2  0
 20 21  1  0
 21 22  2  0
 22 23  1  0
 23 24  2  0
 24 25  1  0
 25 26  2  0
 26 27  1  0
 27 28  2  0
 11  7  1  0
 18 12  1  0
 28 19  1  0
 27 22  1  0
  3 29  1  0
  4 30  1  0
  4 31  1  0
  8 32  1  0
  8 33  1  0
  9 34  1  0
  9 35  1  0
 10 36  1  0
 10 37  1  0
 11 38  1  6
 14 39  1  0
 17 40  1  0
 20 41  1  0
 21 42  1  0
 23 43  1  0
 24 44  1  0
 25 45  1  0
 26 46  1  0
M  END
>  <smiles>  (11) 
O=C(NCC(=O)N1CCC[C@@H]1c1ncc(Cl)cn1)c1ccc2ccccc2n1

>  <score_type>  (11) 
oracle

>  <origin>  (11) 
autodockgpu

>  <m_score__min__energy>  (11) 
-8.7699999999999996

>  <m_primary>  (11) 
energy

>  <rmsd>  (11) 
2.188368061544875

>  <m_score__min__rmsd>  (11) 
2.188368061544875

>  <meeko>  (11) 
{"free_energy": -8.36, "intermolecular_energy": -9.86, "internal_energy": -1.4, "cluster_size": 31, "cluster_id": 1, "rank_in_cluster": 16}

>  <energy>  (11) 
-8.43

>  <cluster_rmsd>  (11) 
0.91

>  <cluster>  (11) 
1

$$$$

     RDKit          3D

 46 49  0  0  0  0  0  0  0  0999 V2000
  140.7050   71.5900  221.3080 O   0  0  0  0  0  0  0  0  0  0  0  0
  140.2710   72.1540  222.3620 C   0  0  0  0  0  0  0  0  0  0  0  0
  139.9050   73.5120  222.2520 N   0  0  0  0  0  0  0  0  0  0  0  0
  140.0560   74.1430  220.9460 C   0  0  0  0  0  0  0  0  0  0  0  0
  141.4290   74.6020  220.7250 C   0  0  0  0  0  0  0  0  0  0  0  0
  142.4570   73.8740  220.8530 O   0  0  0  0  0  0  0  0  0  0  0  0
  141.6480   75.9460  220.3410 N   0  0  0  0  0  0  0  0  0  0  0  0
  142.9080   76.4890  219.8140 C   0  0  0  0  0  0  0  0  0  0  0  0
  142.4250   77.4380  218.7500 C   0  0  0  0  0  0  0  0  0  0  0  0
  140.9320   77.6270  218.9590 C   0  0  0  0  0  0  0  0  0  0  0  0
  140.7480   77.0840  220.3610 C   0  0  2  0  0  0  0  0  0  0  0  0
  141.2010   78.0990  221.3670 C   0  0  0  0  0  0  0  0  0  0  0  0
  141.5360   79.3100  220.8890 N   0  0  0  0  0  0  0  0  0  0  0  0
  141.9520   80.2670  221.7420 C   0  0  0  0  0  0  0  0  0  0  0  0
  142.0340   80.0140  223.0850 C   0  0  0  0  0  0  0  0  0  0  0  0
  142.5740   81.2660  224.1630 Cl  0  0  0  0  0  0  0  0  0  0  0  0
  141.6840   78.7630  223.5380 C   0  0  0  0  0  0  0  0  0  0  0  0
  141.2660   77.7990  222.6940 N   0  0  0  0  0  0  0  0  0  0  0  0
  140.1620   71.4200  223.6180 C   0  0  0  0  0  0  0  0  0  0  0  0
  139.5560   70.1780  223.6090 C   0  0  0  0  0  0  0  0  0  0  0  0
  139.4270   69.4400  224.7700 C   0  0  0  0  0  0  0  0  0  0  0  0
  139.9140   69.9550  225.9750 C   0  0  0  0  0  0  0  0  0  0  0  0
  139.8190   69.2770  227.1620 C   0  0  0  0  0  0  0  0  0  0  0  0
  140.3160   69.8200  228.3430 C   0  0  0  0  0  0  0  0  0  0  0  0
  140.9190   71.0680  228.3240 C   0  0  0  0  0  0  0  0  0  0  0  0
  141.0190   71.7650  227.1160 C   0  0  0  0  0  0  0  0  0  0  0  0
  140.5220   71.2150  225.9530 C   0  0  0  0  0  0  0  0  0  0  0  0
  140.6230   71.8940  224.7910 N   0  0  0  0  0  0  0  0  0  0  0  0
  139.5440   74.0140  223.0910 H   0  0  0  0  0  0  0  0  0  0  0  0
  139.7930   73.4145  220.1649 H   0  0  0  0  0  0  0  0  0  0  0  0
  139.3902   75.0177  220.9073 H   0  0  0  0  0  0  0  0  0  0  0  0
  143.4715   77.0195  220.5956 H   0  0  0  0  0  0  0  0  0  0  0  0
  143.5979   75.7189  219.4386 H   0  0  0  0  0  0  0  0  0  0  0  0
  142.9436   78.4036  218.8430 H   0  0  0  0  0  0  0  0  0  0  0  0
  142.6306   77.0364  217.7468 H   0  0  0  0  0  0  0  0  0  0  0  0
  140.6499   78.6885  218.8997 H   0  0  0  0  0  0  0  0  0  0  0  0
  140.3082   77.1296  218.2017 H   0  0  0  0  0  0  0  0  0  0  0  0
  139.7104   76.8343  220.6277 H   0  0  0  0  0  0  0  0  0  0  0  0
  142.2279   81.2594  221.3560 H   0  0  0  0  0  0  0  0  0  0  0  0
  141.7468   78.5444  224.6142 H   0  0  0  0  0  0  0  0  0  0  0  0
  139.1703   69.7706  222.6628 H   0  0  0  0  0  0  0  0  0  0  0  0
  138.9435   68.4522  224.7463 H   0  0  0  0  0  0  0  0  0  0  0  0
  139.3416   68.2862  227.1817 H   0  0  0  0  0  0  0  0  0  0  0  0
  140.2307   69.2616  229.2869 H   0  0  0  0  0  0  0  0  0  0  0  0
  141.3156   71.5064  229.2516 H   0  0  0  0  0  0  0  0  0  0  0  0
  141.4960   72.7560  227.0932 H   0  0  0  0  0  0  0  0  0  0  0  0
  1  2  2  0
  2  3  1  0
  3  4  1  0
  4  5  1  0
  5  6  2  0
  5  7  1  0
  7  8  1  0
  8  9  1  0
  9 10  1  0
 10 11  1  0
 11 12  1  0
 12 13  2  0
 13 14  1  0
 14 15  2  0
 15 16  1  0
 15 17  1  0
 17 18  2  0
  2 19  1  0
 19 20  2  0
 20 21  1  0
 21 22  2  0
 22 23  1  0
 23 24  2  0
 24 25  1  0
 25 26  2  0
 26 27  1  0
 27 28  2  0
 11  7  1  0
 18 12  1  0
 28 19  1  0
 27 22  1  0
  3 29  1  0
  4 30  1  0
  4 31  1  0
  8 32  1  0
  8 33  1  0
  9 34  1  0
  9 35  1  0
 10 36  1  0
 10 37  1  0
 11 38  1  1
 14 39  1  0
 17 40  1  0
 20 41  1  0
 21 42  1  0
 23 43  1  0
 24 44  1  0
 25 45  1  0
 26 46  1  0
M  END
>  <smiles>  (12) 
O=C(NCC(=O)N1CCC[C@@H]1c1ncc(Cl)cn1)c1ccc2ccccc2n1

>  <score_type>  (12) 
oracle

>  <origin>  (12) 
autodockgpu

>  <m_score__min__energy>  (12) 
-8.7699999999999996

>  <m_primary>  (12) 
energy

>  <rmsd>  (12) 
2.3086906202007356

>  <m_score__min__rmsd>  (12) 
2.3086906202007356

>  <meeko>  (12) 
{"free_energy": -8.77, "intermolecular_energy": -10.26, "internal_energy": -1.3, "cluster_size": 31, "cluster_id": 1, "rank_in_cluster": 1}

>  <energy>  (12) 
-8.41

>  <cluster_rmsd>  (12) 
0.6

>  <cluster>  (12) 
1

$$$$

     RDKit          3D

 46 49  0  0  0  0  0  0  0  0999 V2000
  140.8140   71.1330  221.6890 O   0  0  0  0  0  0  0  0  0  0  0  0
  140.3860   71.7630  222.7080 C   0  0  0  0  0  0  0  0  0  0  0  0
  139.9290   73.0800  222.4970 N   0  0  0  0  0  0  0  0  0  0  0  0
  139.9880   73.6000  221.1350 C   0  0  0  0  0  0  0  0  0  0  0  0
  141.3470   74.0030  220.7710 C   0  0  0  0  0  0  0  0  0  0  0  0
  142.3590   73.2430  220.8270 O   0  0  0  0  0  0  0  0  0  0  0  0
  141.5720   75.3260  220.3220 N   0  0  0  0  0  0  0  0  0  0  0  0
  142.8420   75.8440  219.7930 C   0  0  0  0  0  0  0  0  0  0  0  0
  142.3800   76.7340  218.6710 C   0  0  0  0  0  0  0  0  0  0  0  0
  140.8820   76.9290  218.8390 C   0  0  0  0  0  0  0  0  0  0  0  0
  140.6690   76.4600  220.2630 C   0  0  2  0  0  0  0  0  0  0  0  0
  141.0990   77.5270  221.2230 C   0  0  0  0  0  0  0  0  0  0  0  0
  141.5020   78.6920  220.6860 N   0  0  0  0  0  0  0  0  0  0  0  0
  141.9020   79.6930  221.4950 C   0  0  0  0  0  0  0  0  0  0  0  0
  141.8980   79.5310  222.8550 C   0  0  0  0  0  0  0  0  0  0  0  0
  142.4190   80.8380  223.8770 Cl  0  0  0  0  0  0  0  0  0  0  0  0
  141.4800   78.3250  223.3690 C   0  0  0  0  0  0  0  0  0  0  0  0
  141.0780   77.3180  222.5680 N   0  0  0  0  0  0  0  0  0  0  0  0
  140.3740   71.1390  224.0270 C   0  0  0  0  0  0  0  0  0  0  0  0
  140.7620   71.8910  225.1200 C   0  0  0  0  0  0  0  0  0  0  0  0
  140.7690   71.3500  226.3910 C   0  0  0  0  0  0  0  0  0  0  0  0
  140.3790   70.0220  226.5790 C   0  0  0  0  0  0  0  0  0  0  0  0
  140.3620   69.4230  227.8120 C   0  0  0  0  0  0  0  0  0  0  0  0
  139.9670   68.0970  227.9630 C   0  0  0  0  0  0  0  0  0  0  0  0
  139.5830   67.3640  226.8500 C   0  0  0  0  0  0  0  0  0  0  0  0
  139.5970   67.9700  225.5900 C   0  0  0  0  0  0  0  0  0  0  0  0
  139.9910   69.2840  225.4550 C   0  0  0  0  0  0  0  0  0  0  0  0
  140.0020   69.8620  224.2350 N   0  0  0  0  0  0  0  0  0  0  0  0
  139.5690   73.6330  223.3040 H   0  0  0  0  0  0  0  0  0  0  0  0
  139.6490   72.8182  220.4393 H   0  0  0  0  0  0  0  0  0  0  0  0
  139.3389   74.4861  221.0764 H   0  0  0  0  0  0  0  0  0  0  0  0
  143.3883   76.4165  220.5570 H   0  0  0  0  0  0  0  0  0  0  0  0
  143.5407   75.0569  219.4730 H   0  0  0  0  0  0  0  0  0  0  0  0
  142.8946   77.7048  218.7238 H   0  0  0  0  0  0  0  0  0  0  0  0
  142.6075   76.2812  217.6947 H   0  0  0  0  0  0  0  0  0  0  0  0
  140.5991   77.9851  218.7181 H   0  0  0  0  0  0  0  0  0  0  0  0
  140.2755   76.3903  218.0961 H   0  0  0  0  0  0  0  0  0  0  0  0
  139.6264   76.2215  220.5201 H   0  0  0  0  0  0  0  0  0  0  0  0
  142.2341   80.6471  221.0598 H   0  0  0  0  0  0  0  0  0  0  0  0
  141.4737   78.1791  224.4593 H   0  0  0  0  0  0  0  0  0  0  0  0
  141.0701   72.9370  224.9754 H   0  0  0  0  0  0  0  0  0  0  0  0
  141.0801   71.9618  227.2506 H   0  0  0  0  0  0  0  0  0  0  0  0
  140.6659   70.0005  228.6975 H   0  0  0  0  0  0  0  0  0  0  0  0
  139.9594   67.6327  228.9602 H   0  0  0  0  0  0  0  0  0  0  0  0
  139.2701   66.3149  226.9576 H   0  0  0  0  0  0  0  0  0  0  0  0
  139.2923   67.3957  224.7027 H   0  0  0  0  0  0  0  0  0  0  0  0
  1  2  2  0
  2  3  1  0
  3  4  1  0
  4  5  1  0
  5  6  2  0
  5  7  1  0
  7  8  1  0
  8  9  1  0
  9 10  1  0
 10 11  1  0
 11 12  1  0
 12 13  2  0
 13 14  1  0
 14 15  2  0
 15 16  1  0
 15 17  1  0
 17 18  2  0
  2 19  1  0
 19 20  2  0
 20 21  1  0
 21 22  2  0
 22 23  1  0
 23 24  2  0
 24 25  1  0
 25 26  2  0
 26 27  1  0
 27 28  2  0
 11  7  1  0
 18 12  1  0
 28 19  1  0
 27 22  1  0
  3 29  1  0
  4 30  1  0
  4 31  1  0
  8 32  1  0
  8 33  1  0
  9 34  1  0
  9 35  1  0
 10 36  1  0
 10 37  1  0
 11 38  1  6
 14 39  1  0
 17 40  1  0
 20 41  1  0
 21 42  1  0
 23 43  1  0
 24 44  1  0
 25 45  1  0
 26 46  1  0
M  END
>  <smiles>  (13) 
O=C(NCC(=O)N1CCC[C@@H]1c1ncc(Cl)cn1)c1ccc2ccccc2n1

>  <score_type>  (13) 
oracle

>  <origin>  (13) 
autodockgpu

>  <m_score__min__energy>  (13) 
-8.7699999999999996

>  <m_primary>  (13) 
energy

>  <rmsd>  (13) 
3.0456930148419135

>  <m_score__min__rmsd>  (13) 
3.0456930148419135

>  <meeko>  (13) 
{"free_energy": -8.43, "intermolecular_energy": -9.92, "internal_energy": -1.21, "cluster_size": 31, "cluster_id": 1, "rank_in_cluster": 11}

>  <energy>  (13) 
-8.41

>  <cluster_rmsd>  (13) 
1.17

>  <cluster>  (13) 
1

$$$$

     RDKit          3D

 46 49  0  0  0  0  0  0  0  0999 V2000
  141.4650   73.5330  220.9920 O   0  0  0  0  0  0  0  0  0  0  0  0
  140.7150   74.3750  221.5810 C   0  0  0  0  0  0  0  0  0  0  0  0
  139.5720   73.8640  222.2300 N   0  0  0  0  0  0  0  0  0  0  0  0
  139.3540   72.4230  222.1690 C   0  0  0  0  0  0  0  0  0  0  0  0
  138.0560   72.0500  222.7340 C   0  0  0  0  0  0  0  0  0  0  0  0
  137.0380   72.8030  222.7470 O   0  0  0  0  0  0  0  0  0  0  0  0
  137.9030   70.7680  223.3110 N   0  0  0  0  0  0  0  0  0  0  0  0
  136.7710   70.3340  224.1420 C   0  0  0  0  0  0  0  0  0  0  0  0
  136.5550   68.9200  223.6740 C   0  0  0  0  0  0  0  0  0  0  0  0
  137.7740   68.5270  222.8560 C   0  0  0  0  0  0  0  0  0  0  0  0
  138.7660   69.6020  223.2450 C   0  0  2  0  0  0  0  0  0  0  0  0
  139.3480   69.2990  224.5920 C   0  0  0  0  0  0  0  0  0  0  0  0
  139.1850   68.0450  225.0490 N   0  0  0  0  0  0  0  0  0  0  0  0
  139.6840   67.7080  226.2540 C   0  0  0  0  0  0  0  0  0  0  0  0
  140.3550   68.6310  227.0120 C   0  0  0  0  0  0  0  0  0  0  0  0
  140.9890   68.1700  228.5640 Cl  0  0  0  0  0  0  0  0  0  0  0  0
  140.5010   69.9050  226.5130 C   0  0  0  0  0  0  0  0  0  0  0  0
  140.0060   70.2520  225.3090 N   0  0  0  0  0  0  0  0  0  0  0  0
  141.0350   75.7980  221.5770 C   0  0  0  0  0  0  0  0  0  0  0  0
  141.4480   76.3820  220.3940 C   0  0  0  0  0  0  0  0  0  0  0  0
  141.7620   77.7260  220.3340 C   0  0  0  0  0  0  0  0  0  0  0  0
  141.6630   78.5110  221.4860 C   0  0  0  0  0  0  0  0  0  0  0  0
  141.9590   79.8490  221.4970 C   0  0  0  0  0  0  0  0  0  0  0  0
  141.8480   80.6020  222.6620 C   0  0  0  0  0  0  0  0  0  0  0  0
  141.4310   79.9920  223.8360 C   0  0  0  0  0  0  0  0  0  0  0  0
  141.1280   78.6270  223.8310 C   0  0  0  0  0  0  0  0  0  0  0  0
  141.2420   77.8930  222.6690 C   0  0  0  0  0  0  0  0  0  0  0  0
  140.9470   76.5760  222.6720 N   0  0  0  0  0  0  0  0  0  0  0  0
  138.9300   74.5180  222.7260 H   0  0  0  0  0  0  0  0  0  0  0  0
  139.3919   72.1004  221.1181 H   0  0  0  0  0  0  0  0  0  0  0  0
  140.1406   71.9307  222.7596 H   0  0  0  0  0  0  0  0  0  0  0  0
  137.0265   70.3653  225.2114 H   0  0  0  0  0  0  0  0  0  0  0  0
  135.8807   70.9723  224.0426 H   0  0  0  0  0  0  0  0  0  0  0  0
  136.4489   68.2487  224.5389 H   0  0  0  0  0  0  0  0  0  0  0  0
  135.6384   68.8438  223.0707 H   0  0  0  0  0  0  0  0  0  0  0  0
  138.1376   67.5267  223.1339 H   0  0  0  0  0  0  0  0  0  0  0  0
  137.5843   68.4656  221.7742 H   0  0  0  0  0  0  0  0  0  0  0  0
  139.6215   69.7108  222.5621 H   0  0  0  0  0  0  0  0  0  0  0  0
  139.5517   66.6836  226.6323 H   0  0  0  0  0  0  0  0  0  0  0  0
  141.0346   70.6581  227.1114 H   0  0  0  0  0  0  0  0  0  0  0  0
  141.5279   75.7666  219.4858 H   0  0  0  0  0  0  0  0  0  0  0  0
  142.0882   78.1758  219.3846 H   0  0  0  0  0  0  0  0  0  0  0  0
  142.2903   80.3365  220.5683 H   0  0  0  0  0  0  0  0  0  0  0  0
  142.0896   81.6751  222.6520 H   0  0  0  0  0  0  0  0  0  0  0  0
  141.3395   80.5771  224.7630 H   0  0  0  0  0  0  0  0  0  0  0  0
  140.7972   78.1363  224.7582 H   0  0  0  0  0  0  0  0  0  0  0  0
  1  2  2  0
  2  3  1  0
  3  4  1  0
  4  5  1  0
  5  6  2  0
  5  7  1  0
  7  8  1  0
  8  9  1  0
  9 10  1  0
 10 11  1  0
 11 12  1  0
 12 13  2  0
 13 14  1  0
 14 15  2  0
 15 16  1  0
 15 17  1  0
 17 18  2  0
  2 19  1  0
 19 20  2  0
 20 21  1  0
 21 22  2  0
 22 23  1  0
 23 24  2  0
 24 25  1  0
 25 26  2  0
 26 27  1  0
 27 28  2  0
 11  7  1  0
 18 12  1  0
 28 19  1  0
 27 22  1  0
  3 29  1  0
  4 30  1  0
  4 31  1  0
  8 32  1  0
  8 33  1  0
  9 34  1  0
  9 35  1  0
 10 36  1  0
 10 37  1  0
 11 38  1  6
 14 39  1  0
 17 40  1  0
 20 41  1  0
 21 42  1  0
 23 43  1  0
 24 44  1  0
 25 45  1  0
 26 46  1  0
M  END
>  <smiles>  (14) 
O=C(NCC(=O)N1CCC[C@@H]1c1ncc(Cl)cn1)c1ccc2ccccc2n1

>  <score_type>  (14) 
oracle

>  <origin>  (14) 
autodockgpu

>  <m_score__min__energy>  (14) 
-8.7699999999999996

>  <m_primary>  (14) 
energy

>  <rmsd>  (14) 
9.096398024794365

>  <m_score__min__rmsd>  (14) 
9.096398024794365

>  <meeko>  (14) 
{"free_energy": -8.04, "intermolecular_energy": -9.54, "internal_energy": -1.53, "cluster_size": 9, "cluster_id": 2, "rank_in_cluster": 6}

>  <energy>  (14) 
-8.39

>  <cluster_rmsd>  (14) 
1.28

>  <cluster>  (14) 
1

$$$$

     RDKit          3D

 46 49  0  0  0  0  0  0  0  0999 V2000
  140.6470   74.8090  221.1640 O   0  0  0  0  0  0  0  0  0  0  0  0
  139.7940   75.3510  221.9370 C   0  0  0  0  0  0  0  0  0  0  0  0
  138.7050   74.5520  222.3410 N   0  0  0  0  0  0  0  0  0  0  0  0
  138.6540   73.1830  221.8400 C   0  0  0  0  0  0  0  0  0  0  0  0
  139.4630   72.2790  222.6610 C   0  0  0  0  0  0  0  0  0  0  0  0
  140.6950   72.4410  222.9030 O   0  0  0  0  0  0  0  0  0  0  0  0
  138.8490   71.1410  223.2340 N   0  0  0  0  0  0  0  0  0  0  0  0
  137.5970   71.1410  224.0030 C   0  0  0  0  0  0  0  0  0  0  0  0
  136.9310   69.8770  223.5300 C   0  0  0  0  0  0  0  0  0  0  0  0
  137.9790   69.0700  222.7810 C   0  0  0  0  0  0  0  0  0  0  0  0
  139.2600   69.7490  223.2200 C   0  0  2  0  0  0  0  0  0  0  0  0
  139.6350   69.2940  224.5980 C   0  0  0  0  0  0  0  0  0  0  0  0
  140.4200   70.1220  225.3100 N   0  0  0  0  0  0  0  0  0  0  0  0
  140.7930   69.7710  226.5570 C   0  0  0  0  0  0  0  0  0  0  0  0
  140.3780   68.5840  227.1000 C   0  0  0  0  0  0  0  0  0  0  0  0
  140.8730   68.1570  228.7100 Cl  0  0  0  0  0  0  0  0  0  0  0  0
  139.5760   67.7630  226.3410 C   0  0  0  0  0  0  0  0  0  0  0  0
  139.1970   68.1040  225.0930 N   0  0  0  0  0  0  0  0  0  0  0  0
  139.9480   76.7330  222.3760 C   0  0  0  0  0  0  0  0  0  0  0  0
  138.8120   77.4730  222.6470 C   0  0  0  0  0  0  0  0  0  0  0  0
  138.9010   78.7860  223.0670 C   0  0  0  0  0  0  0  0  0  0  0  0
  140.1570   79.3800  223.2190 C   0  0  0  0  0  0  0  0  0  0  0  0
  140.3170   80.6780  223.6300 C   0  0  0  0  0  0  0  0  0  0  0  0
  141.5840   81.2380  223.7720 C   0  0  0  0  0  0  0  0  0  0  0  0
  142.7070   80.4730  223.4920 C   0  0  0  0  0  0  0  0  0  0  0  0
  142.5500   79.1490  223.0720 C   0  0  0  0  0  0  0  0  0  0  0  0
  141.2890   78.6070  222.9360 C   0  0  0  0  0  0  0  0  0  0  0  0
  141.1460   77.3280  222.5300 N   0  0  0  0  0  0  0  0  0  0  0  0
  137.9820   74.9550  222.9750 H   0  0  0  0  0  0  0  0  0  0  0  0
  137.6098   72.8373  221.8510 H   0  0  0  0  0  0  0  0  0  0  0  0
  139.0591   73.1751  220.8173 H   0  0  0  0  0  0  0  0  0  0  0  0
  137.7938   71.1070  225.0847 H   0  0  0  0  0  0  0  0  0  0  0  0
  136.9869   72.0438  223.8519 H   0  0  0  0  0  0  0  0  0  0  0  0
  136.5575   69.3029  224.3908 H   0  0  0  0  0  0  0  0  0  0  0  0
  136.0755   70.1068  222.8778 H   0  0  0  0  0  0  0  0  0  0  0  0
  137.9619   68.0123  223.0827 H   0  0  0  0  0  0  0  0  0  0  0  0
  137.8339   69.0518  221.6908 H   0  0  0  0  0  0  0  0  0  0  0  0
  140.1337   69.5429  222.5843 H   0  0  0  0  0  0  0  0  0  0  0  0
  141.4361   70.4436  227.1435 H   0  0  0  0  0  0  0  0  0  0  0  0
  139.2360   66.8056  226.7626 H   0  0  0  0  0  0  0  0  0  0  0  0
  137.8220   77.0090  222.5263 H   0  0  0  0  0  0  0  0  0  0  0  0
  137.9880   79.3611  223.2807 H   0  0  0  0  0  0  0  0  0  0  0  0
  139.4288   81.2879  223.8515 H   0  0  0  0  0  0  0  0  0  0  0  0
  141.6938   82.2809  224.1042 H   0  0  0  0  0  0  0  0  0  0  0  0
  143.7129   80.9049  223.5996 H   0  0  0  0  0  0  0  0  0  0  0  0
  143.4361   78.5366  222.8490 H   0  0  0  0  0  0  0  0  0  0  0  0
  1  2  2  0
  2  3  1  0
  3  4  1  0
  4  5  1  0
  5  6  2  0
  5  7  1  0
  7  8  1  0
  8  9  1  0
  9 10  1  0
 10 11  1  0
 11 12  1  0
 12 13  2  0
 13 14  1  0
 14 15  2  0
 15 16  1  0
 15 17  1  0
 17 18  2  0
  2 19  1  0
 19 20  2  0
 20 21  1  0
 21 22  2  0
 22 23  1  0
 23 24  2  0
 24 25  1  0
 25 26  2  0
 26 27  1  0
 27 28  2  0
 11  7  1  0
 18 12  1  0
 28 19  1  0
 27 22  1  0
  3 29  1  0
  4 30  1  0
  4 31  1  0
  8 32  1  0
  8 33  1  0
  9 34  1  0
  9 35  1  0
 10 36  1  0
 10 37  1  0
 11 38  1  6
 14 39  1  0
 17 40  1  0
 20 41  1  0
 21 42  1  0
 23 43  1  0
 24 44  1  0
 25 45  1  0
 26 46  1  0
M  END
>  <smiles>  (15) 
O=C(NCC(=O)N1CCC[C@@H]1c1ncc(Cl)cn1)c1ccc2ccccc2n1

>  <score_type>  (15) 
oracle

>  <origin>  (15) 
autodockgpu

>  <m_score__min__energy>  (15) 
-8.7699999999999996

>  <m_primary>  (15) 
energy

>  <rmsd>  (15) 
9.033854740248852

>  <m_score__min__rmsd>  (15) 
9.033854740248852

>  <meeko>  (15) 
{"free_energy": -8.69, "intermolecular_energy": -10.18, "internal_energy": -1.25, "cluster_size": 9, "cluster_id": 2, "rank_in_cluster": 1}

>  <energy>  (15) 
-8.37

>  <cluster_rmsd>  (15) 
1.34

>  <cluster>  (15) 
1

$$$$

     RDKit          3D

 46 49  0  0  0  0  0  0  0  0999 V2000
  140.9720   72.8950  222.5870 O   0  0  0  0  0  0  0  0  0  0  0  0
  139.9110   72.2430  222.8460 C   0  0  0  0  0  0  0  0  0  0  0  0
  138.7770   72.5360  222.0590 N   0  0  0  0  0  0  0  0  0  0  0  0
  138.9230   73.5540  221.0250 C   0  0  0  0  0  0  0  0  0  0  0  0
  139.0940   74.8880  221.6040 C   0  0  0  0  0  0  0  0  0  0  0  0
  138.3410   75.3860  222.4920 O   0  0  0  0  0  0  0  0  0  0  0  0
  140.1660   75.6970  221.1570 N   0  0  0  0  0  0  0  0  0  0  0  0
  141.5810   75.3030  221.1360 C   0  0  0  0  0  0  0  0  0  0  0  0
  142.0600   75.9040  219.8420 C   0  0  0  0  0  0  0  0  0  0  0  0
  140.9880   76.8750  219.3730 C   0  0  0  0  0  0  0  0  0  0  0  0
  140.1610   77.0490  220.6300 C   0  0  2  0  0  0  0  0  0  0  0  0
  140.8530   77.9860  221.5730 C   0  0  0  0  0  0  0  0  0  0  0  0
  141.4670   79.0480  221.0230 N   0  0  0  0  0  0  0  0  0  0  0  0
  142.1080   79.9290  221.8160 C   0  0  0  0  0  0  0  0  0  0  0  0
  142.1360   79.7480  223.1740 C   0  0  0  0  0  0  0  0  0  0  0  0
  142.9710   80.8990  224.1750 Cl  0  0  0  0  0  0  0  0  0  0  0  0
  141.4980   78.6500  223.7010 C   0  0  0  0  0  0  0  0  0  0  0  0
  140.8540   77.7630  222.9160 N   0  0  0  0  0  0  0  0  0  0  0  0
  139.8820   71.2430  223.9080 C   0  0  0  0  0  0  0  0  0  0  0  0
  139.2670   70.0300  223.6590 C   0  0  0  0  0  0  0  0  0  0  0  0
  139.2130   69.0480  224.6290 C   0  0  0  0  0  0  0  0  0  0  0  0
  139.7840   69.2810  225.8830 C   0  0  0  0  0  0  0  0  0  0  0  0
  139.7650   68.3510  226.8900 C   0  0  0  0  0  0  0  0  0  0  0  0
  140.3460   68.6170  228.1270 C   0  0  0  0  0  0  0  0  0  0  0  0
  140.9550   69.8420  228.3490 C   0  0  0  0  0  0  0  0  0  0  0  0
  140.9780   70.7940  227.3260 C   0  0  0  0  0  0  0  0  0  0  0  0
  140.3990   70.5180  226.1050 C   0  0  0  0  0  0  0  0  0  0  0  0
  140.4260   71.4430  225.1230 N   0  0  0  0  0  0  0  0  0  0  0  0
  137.8860   72.0250  222.2360 H   0  0  0  0  0  0  0  0  0  0  0  0
  139.8039   73.3156  220.4108 H   0  0  0  0  0  0  0  0  0  0  0  0
  138.0084   73.5582  220.4139 H   0  0  0  0  0  0  0  0  0  0  0  0
  142.1244   75.7223  221.9956 H   0  0  0  0  0  0  0  0  0  0  0  0
  141.7375   74.2162  221.2024 H   0  0  0  0  0  0  0  0  0  0  0  0
  143.0080   76.4382  220.0027 H   0  0  0  0  0  0  0  0  0  0  0  0
  142.2343   75.1213  219.0889 H   0  0  0  0  0  0  0  0  0  0  0  0
  141.4266   77.8294  219.0461 H   0  0  0  0  0  0  0  0  0  0  0  0
  140.4126   76.5202  218.5052 H   0  0  0  0  0  0  0  0  0  0  0  0
  139.1566   77.4675  220.4686 H   0  0  0  0  0  0  0  0  0  0  0  0
  142.6121   80.7992  221.3703 H   0  0  0  0  0  0  0  0  0  0  0  0
  141.5134   78.4914  224.7894 H   0  0  0  0  0  0  0  0  0  0  0  0
  138.8140   69.8442  222.6740 H   0  0  0  0  0  0  0  0  0  0  0  0
  138.7227   68.0868  224.4153 H   0  0  0  0  0  0  0  0  0  0  0  0
  139.2823   67.3777  226.7177 H   0  0  0  0  0  0  0  0  0  0  0  0
  140.3218   67.8590  228.9238 H   0  0  0  0  0  0  0  0  0  0  0  0
  141.4166   70.0633  229.3226 H   0  0  0  0  0  0  0  0  0  0  0  0
  141.4602   71.7681  227.4955 H   0  0  0  0  0  0  0  0  0  0  0  0
  1  2  2  0
  2  3  1  0
  3  4  1  0
  4  5  1  0
  5  6  2  0
  5  7  1  0
  7  8  1  0
  8  9  1  0
  9 10  1  0
 10 11  1  0
 11 12  1  0
 12 13  2  0
 13 14  1  0
 14 15  2  0
 15 16  1  0
 15 17  1  0
 17 18  2  0
  2 19  1  0
 19 20  2  0
 20 21  1  0
 21 22  2  0
 22 23  1  0
 23 24  2  0
 24 25  1  0
 25 26  2  0
 26 27  1  0
 27 28  2  0
 11  7  1  0
 18 12  1  0
 28 19  1  0
 27 22  1  0
  3 29  1  0
  4 30  1  0
  4 31  1  0
  8 32  1  0
  8 33  1  0
  9 34  1  0
  9 35  1  0
 10 36  1  0
 10 37  1  0
 11 38  1  6
 14 39  1  0
 17 40  1  0
 20 41  1  0
 21 42  1  0
 23 43  1  0
 24 44  1  0
 25 45  1  0
 26 46  1  0
M  END
>  <smiles>  (16) 
O=C(NCC(=O)N1CCC[C@@H]1c1ncc(Cl)cn1)c1ccc2ccccc2n1

>  <score_type>  (16) 
oracle

>  <origin>  (16) 
autodockgpu

>  <m_score__min__energy>  (16) 
-8.7699999999999996

>  <m_primary>  (16) 
energy

>  <rmsd>  (16) 
2.1888768142693116

>  <m_score__min__rmsd>  (16) 
2.1888768142693116

>  <meeko>  (16) 
{"free_energy": -8.27, "intermolecular_energy": -9.76, "internal_energy": -1.35, "cluster_size": 31, "cluster_id": 1, "rank_in_cluster": 23}

>  <energy>  (16) 
-8.36

>  <cluster_rmsd>  (16) 
1.38

>  <cluster>  (16) 
1

$$$$

     RDKit          3D

 46 49  0  0  0  0  0  0  0  0999 V2000
  140.4640   74.3200  220.3380 O   0  0  0  0  0  0  0  0  0  0  0  0
  140.1420   75.0690  221.3150 C   0  0  0  0  0  0  0  0  0  0  0  0
  139.2100   74.5460  222.2360 N   0  0  0  0  0  0  0  0  0  0  0  0
  138.7030   73.2020  221.9870 C   0  0  0  0  0  0  0  0  0  0  0  0
  139.5280   72.1850  222.6420 C   0  0  0  0  0  0  0  0  0  0  0  0
  140.7930   72.2120  222.6910 O   0  0  0  0  0  0  0  0  0  0  0  0
  138.8930   71.0890  223.2710 N   0  0  0  0  0  0  0  0  0  0  0  0
  137.6830   71.1640  224.1020 C   0  0  0  0  0  0  0  0  0  0  0  0
  136.9380   69.9220  223.6930 C   0  0  0  0  0  0  0  0  0  0  0  0
  137.9080   69.0530  222.9100 C   0  0  0  0  0  0  0  0  0  0  0  0
  139.2390   69.6790  223.2690 C   0  0  2  0  0  0  0  0  0  0  0  0
  139.6620   69.2360  224.6360 C   0  0  0  0  0  0  0  0  0  0  0  0
  140.4860   70.0610  225.3060 N   0  0  0  0  0  0  0  0  0  0  0  0
  140.9050   69.7210  226.5410 C   0  0  0  0  0  0  0  0  0  0  0  0
  140.4960   68.5460  227.1150 C   0  0  0  0  0  0  0  0  0  0  0  0
  141.0500   68.1310  228.7100 Cl  0  0  0  0  0  0  0  0  0  0  0  0
  139.6530   67.7270  226.3990 C   0  0  0  0  0  0  0  0  0  0  0  0
  139.2290   68.0580  225.1630 N   0  0  0  0  0  0  0  0  0  0  0  0
  140.7170   76.4010  221.4630 C   0  0  0  0  0  0  0  0  0  0  0  0
  141.0860   77.0940  220.3260 C   0  0  0  0  0  0  0  0  0  0  0  0
  141.6340   78.3600  220.4090 C   0  0  0  0  0  0  0  0  0  0  0  0
  141.8210   78.9510  221.6610 C   0  0  0  0  0  0  0  0  0  0  0  0
  142.3590   80.2020  221.8160 C   0  0  0  0  0  0  0  0  0  0  0  0
  142.5300   80.7620  223.0790 C   0  0  0  0  0  0  0  0  0  0  0  0
  142.1510   80.0450  224.2040 C   0  0  0  0  0  0  0  0  0  0  0  0
  141.6020   78.7680  224.0530 C   0  0  0  0  0  0  0  0  0  0  0  0
  141.4380   78.2260  222.7950 C   0  0  0  0  0  0  0  0  0  0  0  0
  140.9060   76.9930  222.6570 N   0  0  0  0  0  0  0  0  0  0  0  0
  138.9170   75.1250  223.0520 H   0  0  0  0  0  0  0  0  0  0  0  0
  137.6754   73.1309  222.3729 H   0  0  0  0  0  0  0  0  0  0  0  0
  138.7288   73.0199  220.9025 H   0  0  0  0  0  0  0  0  0  0  0  0
  137.9330   71.1444  225.1730 H   0  0  0  0  0  0  0  0  0  0  0  0
  137.1073   72.0906  223.9606 H   0  0  0  0  0  0  0  0  0  0  0  0
  136.5851   69.3834  224.5848 H   0  0  0  0  0  0  0  0  0  0  0  0
  136.0606   70.1771  223.0805 H   0  0  0  0  0  0  0  0  0  0  0  0
  137.8580   68.0032  223.2348 H   0  0  0  0  0  0  0  0  0  0  0  0
  137.7065   69.0210  221.8291 H   0  0  0  0  0  0  0  0  0  0  0  0
  140.0692   69.4185  222.5960 H   0  0  0  0  0  0  0  0  0  0  0  0
  141.5804   70.3918  227.0923 H   0  0  0  0  0  0  0  0  0  0  0  0
  139.3172   66.7797  226.8460 H   0  0  0  0  0  0  0  0  0  0  0  0
  140.9413   76.6306  219.3389 H   0  0  0  0  0  0  0  0  0  0  0  0
  141.9213   78.8993  219.4944 H   0  0  0  0  0  0  0  0  0  0  0  0
  142.6611   80.7739  220.9263 H   0  0  0  0  0  0  0  0  0  0  0  0
  142.9633   81.7676  223.1841 H   0  0  0  0  0  0  0  0  0  0  0  0
  142.2813   80.4775  225.2070 H   0  0  0  0  0  0  0  0  0  0  0  0
  141.2997   78.1932  224.9408 H   0  0  0  0  0  0  0  0  0  0  0  0
  1  2  2  0
  2  3  1  0
  3  4  1  0
  4  5  1  0
  5  6  2  0
  5  7  1  0
  7  8  1  0
  8  9  1  0
  9 10  1  0
 10 11  1  0
 11 12  1  0
 12 13  2  0
 13 14  1  0
 14 15  2  0
 15 16  1  0
 15 17  1  0
 17 18  2  0
  2 19  1  0
 19 20  2  0
 20 21  1  0
 21 22  2  0
 22 23  1  0
 23 24  2  0
 24 25  1  0
 25 26  2  0
 26 27  1  0
 27 28  2  0
 11  7  1  0
 18 12  1  0
 28 19  1  0
 27 22  1  0
  3 29  1  0
  4 30  1  0
  4 31  1  0
  8 32  1  0
  8 33  1  0
  9 34  1  0
  9 35  1  0
 10 36  1  0
 10 37  1  0
 11 38  1  6
 14 39  1  0
 17 40  1  0
 20 41  1  0
 21 42  1  0
 23 43  1  0
 24 44  1  0
 25 45  1  0
 26 46  1  0
M  END
>  <smiles>  (17) 
O=C(NCC(=O)N1CCC[C@@H]1c1ncc(Cl)cn1)c1ccc2ccccc2n1

>  <score_type>  (17) 
oracle

>  <origin>  (17) 
autodockgpu

>  <m_score__min__energy>  (17) 
-8.7699999999999996

>  <m_primary>  (17) 
energy

>  <rmsd>  (17) 
9.051571601433968

>  <m_score__min__rmsd>  (17) 
9.051571601433968

>  <meeko>  (17) 
{"free_energy": -8.4, "intermolecular_energy": -9.89, "internal_energy": -1.4, "cluster_size": 9, "cluster_id": 2, "rank_in_cluster": 2}

>  <energy>  (17) 
-8.36

>  <cluster_rmsd>  (17) 
1.17

>  <cluster>  (17) 
1

$$$$

     RDKit          3D

 46 49  0  0  0  0  0  0  0  0999 V2000
  138.8310   75.0690  222.2580 O   0  0  0  0  0  0  0  0  0  0  0  0
  139.9800   75.6120  222.2070 C   0  0  0  0  0  0  0  0  0  0  0  0
  141.0610   74.7790  221.8510 N   0  0  0  0  0  0  0  0  0  0  0  0
  140.7650   73.3780  221.5740 C   0  0  0  0  0  0  0  0  0  0  0  0
  141.8540   72.7340  220.8360 C   0  0  0  0  0  0  0  0  0  0  0  0
  141.9950   71.4810  220.7170 O   0  0  0  0  0  0  0  0  0  0  0  0
  142.8260   73.5440  220.2040 N   0  0  0  0  0  0  0  0  0  0  0  0
  144.0450   74.0670  220.8360 C   0  0  0  0  0  0  0  0  0  0  0  0
  145.0590   73.9340  219.7320 C   0  0  0  0  0  0  0  0  0  0  0  0
  144.2930   73.6600  218.4480 C   0  0  0  0  0  0  0  0  0  0  0  0
  142.8830   74.0470  218.8430 C   0  0  2  0  0  0  0  0  0  0  0  0
  142.7380   75.5390  218.8260 C   0  0  0  0  0  0  0  0  0  0  0  0
  143.0640   76.1600  217.6790 N   0  0  0  0  0  0  0  0  0  0  0  0
  142.9560   77.5020  217.5980 C   0  0  0  0  0  0  0  0  0  0  0  0
  142.5160   78.2300  218.6720 C   0  0  0  0  0  0  0  0  0  0  0  0
  142.3860   79.9580  218.5410 Cl  0  0  0  0  0  0  0  0  0  0  0  0
  142.1930   77.5600  219.8290 C   0  0  0  0  0  0  0  0  0  0  0  0
  142.2970   76.2190  219.9200 N   0  0  0  0  0  0  0  0  0  0  0  0
  140.1570   77.0290  222.5060 C   0  0  0  0  0  0  0  0  0  0  0  0
  139.0330   77.8260  222.6310 C   0  0  0  0  0  0  0  0  0  0  0  0
  139.1440   79.1730  222.9130 C   0  0  0  0  0  0  0  0  0  0  0  0
  140.4090   79.7450  223.0740 C   0  0  0  0  0  0  0  0  0  0  0  0
  140.5900   81.0740  223.3550 C   0  0  0  0  0  0  0  0  0  0  0  0
  141.8660   81.6100  223.5100 C   0  0  0  0  0  0  0  0  0  0  0  0
  142.9760   80.7890  223.3790 C   0  0  0  0  0  0  0  0  0  0  0  0
  142.7970   79.4320  223.0930 C   0  0  0  0  0  0  0  0  0  0  0  0
  141.5280   78.9140  222.9420 C   0  0  0  0  0  0  0  0  0  0  0  0
  141.3640   77.6040  222.6660 N   0  0  0  0  0  0  0  0  0  0  0  0
  142.0210   75.1820  221.7970 H   0  0  0  0  0  0  0  0  0  0  0  0
  140.6174   72.8489  222.5270 H   0  0  0  0  0  0  0  0  0  0  0  0
  139.8562   73.3334  220.9559 H   0  0  0  0  0  0  0  0  0  0  0  0
  143.9188   75.1175  221.1369 H   0  0  0  0  0  0  0  0  0  0  0  0
  144.3254   73.5377  221.7586 H   0  0  0  0  0  0  0  0  0  0  0  0
  145.6352   74.8660  219.6354 H   0  0  0  0  0  0  0  0  0  0  0  0
  145.7651   73.1183  219.9468 H   0  0  0  0  0  0  0  0  0  0  0  0
  144.6626   74.2827  217.6199 H   0  0  0  0  0  0  0  0  0  0  0  0
  144.3869   72.6262  218.0840 H   0  0  0  0  0  0  0  0  0  0  0  0
  142.0942   73.6567  218.1831 H   0  0  0  0  0  0  0  0  0  0  0  0
  143.2231   78.0158  216.6628 H   0  0  0  0  0  0  0  0  0  0  0  0
  141.8416   78.1318  220.7005 H   0  0  0  0  0  0  0  0  0  0  0  0
  138.0357   77.3797  222.5038 H   0  0  0  0  0  0  0  0  0  0  0  0
  138.2408   79.7932  223.0105 H   0  0  0  0  0  0  0  0  0  0  0  0
  139.7123   81.7287  223.4599 H   0  0  0  0  0  0  0  0  0  0  0  0
  141.9928   82.6792  223.7352 H   0  0  0  0  0  0  0  0  0  0  0  0
  143.9885   81.2018  223.4990 H   0  0  0  0  0  0  0  0  0  0  0  0
  143.6727   78.7746  222.9880 H   0  0  0  0  0  0  0  0  0  0  0  0
  1  2  2  0
  2  3  1  0
  3  4  1  0
  4  5  1  0
  5  6  2  0
  5  7  1  0
  7  8  1  0
  8  9  1  0
  9 10  1  0
 10 11  1  0
 11 12  1  0
 12 13  2  0
 13 14  1  0
 14 15  2  0
 15 16  1  0
 15 17  1  0
 17 18  2  0
  2 19  1  0
 19 20  2  0
 20 21  1  0
 21 22  2  0
 22 23  1  0
 23 24  2  0
 24 25  1  0
 25 26  2  0
 26 27  1  0
 27 28  2  0
 11  7  1  0
 18 12  1  0
 28 19  1  0
 27 22  1  0
  3 29  1  0
  4 30  1  0
  4 31  1  0
  8 32  1  0
  8 33  1  0
  9 34  1  0
  9 35  1  0
 10 36  1  0
 10 37  1  0
 11 38  1  6
 14 39  1  0
 17 40  1  0
 20 41  1  0
 21 42  1  0
 23 43  1  0
 24 44  1  0
 25 45  1  0
 26 46  1  0
M  END
>  <smiles>  (18) 
O=C(NCC(=O)N1CCC[C@@H]1c1ncc(Cl)cn1)c1ccc2ccccc2n1

>  <score_type>  (18) 
oracle

>  <origin>  (18) 
autodockgpu

>  <m_score__min__energy>  (18) 
-8.7699999999999996

>  <m_primary>  (18) 
energy

>  <rmsd>  (18) 
7.322272938028377

>  <m_score__min__rmsd>  (18) 
7.322272938028377

>  <meeko>  (18) 
{"free_energy": -6.66, "intermolecular_energy": -8.16, "internal_energy": -2.91, "cluster_size": 5, "cluster_id": 5, "rank_in_cluster": 3}

>  <energy>  (18) 
-8.35

>  <cluster_rmsd>  (18) 
1.39

>  <cluster>  (18) 
1

$$$$

     RDKit          3D

 46 49  0  0  0  0  0  0  0  0999 V2000
  141.1140   72.1770  221.6390 O   0  0  0  0  0  0  0  0  0  0  0  0
  140.2410   72.3890  222.5390 C   0  0  0  0  0  0  0  0  0  0  0  0
  139.3780   73.4870  222.3420 N   0  0  0  0  0  0  0  0  0  0  0  0
  139.5620   74.2750  221.1280 C   0  0  0  0  0  0  0  0  0  0  0  0
  140.7670   75.1030  221.2020 C   0  0  0  0  0  0  0  0  0  0  0  0
  141.0430   75.8820  222.1620 O   0  0  0  0  0  0  0  0  0  0  0  0
  141.7020   75.0480  220.1420 N   0  0  0  0  0  0  0  0  0  0  0  0
  141.3790   74.8060  218.7290 C   0  0  0  0  0  0  0  0  0  0  0  0
  142.3180   75.7450  218.0210 C   0  0  0  0  0  0  0  0  0  0  0  0
  143.3390   76.2150  219.0440 C   0  0  0  0  0  0  0  0  0  0  0  0
  143.1450   75.2070  220.1580 C   0  0  2  0  0  0  0  0  0  0  0  0
  143.8220   73.9170  219.8060 C   0  0  0  0  0  0  0  0  0  0  0  0
  143.5740   72.8700  220.6110 N   0  0  0  0  0  0  0  0  0  0  0  0
  144.1530   71.6800  220.3500 C   0  0  0  0  0  0  0  0  0  0  0  0
  144.9860   71.5350  219.2730 C   0  0  0  0  0  0  0  0  0  0  0  0
  145.7190   69.9900  218.9580 Cl  0  0  0  0  0  0  0  0  0  0  0  0
  145.2160   72.6290  218.4710 C   0  0  0  0  0  0  0  0  0  0  0  0
  144.6430   73.8220  218.7240 N   0  0  0  0  0  0  0  0  0  0  0  0
  140.1490   71.5310  223.7150 C   0  0  0  0  0  0  0  0  0  0  0  0
  139.5370   70.2970  223.5890 C   0  0  0  0  0  0  0  0  0  0  0  0
  139.4230   69.4450  224.6700 C   0  0  0  0  0  0  0  0  0  0  0  0
  139.9330   69.8320  225.9130 C   0  0  0  0  0  0  0  0  0  0  0  0
  139.8530   69.0360  227.0260 C   0  0  0  0  0  0  0  0  0  0  0  0
  140.3730   69.4530  228.2480 C   0  0  0  0  0  0  0  0  0  0  0  0
  140.9810   70.6950  228.3470 C   0  0  0  0  0  0  0  0  0  0  0  0
  141.0650   71.5120  227.2150 C   0  0  0  0  0  0  0  0  0  0  0  0
  140.5470   71.0860  226.0100 C   0  0  0  0  0  0  0  0  0  0  0  0
  140.6320   71.8800  224.9220 N   0  0  0  0  0  0  0  0  0  0  0  0
  138.6460   73.6970  223.0540 H   0  0  0  0  0  0  0  0  0  0  0  0
  139.6493   73.5931  220.2693 H   0  0  0  0  0  0  0  0  0  0  0  0
  138.6933   74.9401  221.0139 H   0  0  0  0  0  0  0  0  0  0  0  0
  141.5747   73.7604  218.4489 H   0  0  0  0  0  0  0  0  0  0  0  0
  140.3199   74.9738  218.4839 H   0  0  0  0  0  0  0  0  0  0  0  0
  142.8240   75.2214  217.1965 H   0  0  0  0  0  0  0  0  0  0  0  0
  141.7698   76.5986  217.5957 H   0  0  0  0  0  0  0  0  0  0  0  0
  144.3609   76.1731  218.6389 H   0  0  0  0  0  0  0  0  0  0  0  0
  143.2058   77.2602  219.3598 H   0  0  0  0  0  0  0  0  0  0  0  0
  143.5562   75.5096  221.1323 H   0  0  0  0  0  0  0  0  0  0  0  0
  143.9546   70.8202  221.0068 H   0  0  0  0  0  0  0  0  0  0  0  0
  145.8835   72.5273  217.6026 H   0  0  0  0  0  0  0  0  0  0  0  0
  139.1348   69.9894  222.6125 H   0  0  0  0  0  0  0  0  0  0  0  0
  138.9334   68.4668  224.5536 H   0  0  0  0  0  0  0  0  0  0  0  0
  139.3695   68.0507  226.9523 H   0  0  0  0  0  0  0  0  0  0  0  0
  140.3019   68.8004  229.1306 H   0  0  0  0  0  0  0  0  0  0  0  0
  141.3940   71.0351  229.3081 H   0  0  0  0  0  0  0  0  0  0  0  0
  141.5463   72.4986  227.2861 H   0  0  0  0  0  0  0  0  0  0  0  0
  1  2  2  0
  2  3  1  0
  3  4  1  0
  4  5  1  0
  5  6  2  0
  5  7  1  0
  7  8  1  0
  8  9  1  0
  9 10  1  0
 10 11  1  0
 11 12  1  0
 12 13  2  0
 13 14  1  0
 14 15  2  0
 15 16  1  0
 15 17  1  0
 17 18  2  0
  2 19  1  0
 19 20  2  0
 20 21  1  0
 21 22  2  0
 22 23  1  0
 23 24  2  0
 24 25  1  0
 25 26  2  0
 26 27  1  0
 27 28  2  0
 11  7  1  0
 18 12  1  0
 28 19  1  0
 27 22  1  0
  3 29  1  0
  4 30  1  0
  4 31  1  0
  8 32  1  0
  8 33  1  0
  9 34  1  0
  9 35  1  0
 10 36  1  0
 10 37  1  0
 11 38  1  1
 14 39  1  0
 17 40  1  0
 20 41  1  0
 21 42  1  0
 23 43  1  0
 24 44  1  0
 25 45  1  0
 26 46  1  0
M  END
>  <smiles>  (19) 
O=C(NCC(=O)N1CCC[C@@H]1c1ncc(Cl)cn1)c1ccc2ccccc2n1

>  <score_type>  (19) 
oracle

>  <origin>  (19) 
autodockgpu

>  <m_score__min__energy>  (19) 
-8.7699999999999996

>  <m_primary>  (19) 
energy

>  <rmsd>  (19) 
3.8689621636196754

>  <m_score__min__rmsd>  (19) 
3.8689621636196754

>  <meeko>  (19) 
{"free_energy": -7.81, "intermolecular_energy": -9.3, "internal_energy": -1.59, "cluster_size": 3, "cluster_id": 3, "rank_in_cluster": 2}

>  <energy>  (19) 
-8.32

>  <cluster_rmsd>  (19) 
1.29

>  <cluster>  (19) 
1

$$$$

     RDKit          3D

 46 49  0  0  0  0  0  0  0  0999 V2000
  141.5240   73.3850  220.8700 O   0  0  0  0  0  0  0  0  0  0  0  0
  140.8410   74.2160  221.5480 C   0  0  0  0  0  0  0  0  0  0  0  0
  139.8040   73.6870  222.3450 N   0  0  0  0  0  0  0  0  0  0  0  0
  139.6100   72.2420  222.3200 C   0  0  0  0  0  0  0  0  0  0  0  0
  138.2220   71.8800  222.6120 C   0  0  0  0  0  0  0  0  0  0  0  0
  137.2160   72.5770  222.2860 O   0  0  0  0  0  0  0  0  0  0  0  0
  137.9590   70.6750  223.3050 N   0  0  0  0  0  0  0  0  0  0  0  0
  136.8330   70.4450  224.2210 C   0  0  0  0  0  0  0  0  0  0  0  0
  136.4370   69.0310  223.8890 C   0  0  0  0  0  0  0  0  0  0  0  0
  137.5570   68.4350  223.0530 C   0  0  0  0  0  0  0  0  0  0  0  0
  138.6820   69.4170  223.3020 C   0  0  2  0  0  0  0  0  0  0  0  0
  139.3010   69.1600  224.6420 C   0  0  0  0  0  0  0  0  0  0  0  0
  139.1980   67.9070  225.1200 N   0  0  0  0  0  0  0  0  0  0  0  0
  139.7320   67.6100  226.3220 C   0  0  0  0  0  0  0  0  0  0  0  0
  140.3780   68.5710  227.0530 C   0  0  0  0  0  0  0  0  0  0  0  0
  141.0590   68.1620  228.5990 Cl  0  0  0  0  0  0  0  0  0  0  0  0
  140.4630   69.8420  226.5320 C   0  0  0  0  0  0  0  0  0  0  0  0
  139.9320   70.1500  225.3310 N   0  0  0  0  0  0  0  0  0  0  0  0
  141.1280   75.6460  221.4960 C   0  0  0  0  0  0  0  0  0  0  0  0
  141.7730   76.1520  220.3830 C   0  0  0  0  0  0  0  0  0  0  0  0
  142.0680   77.4980  220.2810 C   0  0  0  0  0  0  0  0  0  0  0  0
  141.7110   78.3640  221.3180 C   0  0  0  0  0  0  0  0  0  0  0  0
  141.9740   79.7090  221.2820 C   0  0  0  0  0  0  0  0  0  0  0  0
  141.6030   80.5430  222.3330 C   0  0  0  0  0  0  0  0  0  0  0  0
  140.9570   80.0090  223.4380 C   0  0  0  0  0  0  0  0  0  0  0  0
  140.6870   78.6390  223.4800 C   0  0  0  0  0  0  0  0  0  0  0  0
  141.0600   77.8230  222.4320 C   0  0  0  0  0  0  0  0  0  0  0  0
  140.7950   76.5010  222.4800 N   0  0  0  0  0  0  0  0  0  0  0  0
  139.2200   74.3330  222.9180 H   0  0  0  0  0  0  0  0  0  0  0  0
  139.8754   71.8633  221.3219 H   0  0  0  0  0  0  0  0  0  0  0  0
  140.2523   71.7950  223.0931 H   0  0  0  0  0  0  0  0  0  0  0  0
  137.1482   70.5349  225.2710 H   0  0  0  0  0  0  0  0  0  0  0  0
  136.0149   71.1713  224.1062 H   0  0  0  0  0  0  0  0  0  0  0  0
  136.3063   68.4493  224.8135 H   0  0  0  0  0  0  0  0  0  0  0  0
  135.4854   69.0113  223.3376 H   0  0  0  0  0  0  0  0  0  0  0  0
  137.8222   67.4252  223.3994 H   0  0  0  0  0  0  0  0  0  0  0  0
  137.3021   68.3081  221.9905 H   0  0  0  0  0  0  0  0  0  0  0  0
  139.5055   69.3704  222.5742 H   0  0  0  0  0  0  0  0  0  0  0  0
  139.6480   66.5874  226.7186 H   0  0  0  0  0  0  0  0  0  0  0  0
  140.9763   70.6254  227.1089 H   0  0  0  0  0  0  0  0  0  0  0  0
  142.0559   75.4724  219.5656 H   0  0  0  0  0  0  0  0  0  0  0  0
  142.5810   77.8857  219.3885 H   0  0  0  0  0  0  0  0  0  0  0  0
  142.4869   80.1364  220.4078 H   0  0  0  0  0  0  0  0  0  0  0  0
  141.8211   81.6202  222.2873 H   0  0  0  0  0  0  0  0  0  0  0  0
  140.6597   80.6588  224.2743 H   0  0  0  0  0  0  0  0  0  0  0  0
  140.1744   78.2087  224.3530 H   0  0  0  0  0  0  0  0  0  0  0  0
  1  2  2  0
  2  3  1  0
  3  4  1  0
  4  5  1  0
  5  6  2  0
  5  7  1  0
  7  8  1  0
  8  9  1  0
  9 10  1  0
 10 11  1  0
 11 12  1  0
 12 13  2  0
 13 14  1  0
 14 15  2  0
 15 16  1  0
 15 17  1  0
 17 18  2  0
  2 19  1  0
 19 20  2  0
 20 21  1  0
 21 22  2  0
 22 23  1  0
 23 24  2  0
 24 25  1  0
 25 26  2  0
 26 27  1  0
 27 28  2  0
 11  7  1  0
 18 12  1  0
 28 19  1  0
 27 22  1  0
  3 29  1  0
  4 30  1  0
  4 31  1  0
  8 32  1  0
  8 33  1  0
  9 34  1  0
  9 35  1  0
 10 36  1  0
 10 37  1  0
 11 38  1  6
 14 39  1  0
 17 40  1  0
 20 41  1  0
 21 42  1  0
 23 43  1  0
 24 44  1  0
 25 45  1  0
 26 46  1  0
M  END
>  <smiles>  (20) 
O=C(NCC(=O)N1CCC[C@@H]1c1ncc(Cl)cn1)c1ccc2ccccc2n1

>  <score_type>  (20) 
oracle

>  <origin>  (20) 
autodockgpu

>  <m_score__min__energy>  (20) 
-8.7699999999999996

>  <m_primary>  (20) 
energy

>  <rmsd>  (20) 
9.162974847352144

>  <m_score__min__rmsd>  (20) 
9.162974847352144

>  <meeko>  (20) 
{"free_energy": -8.0, "intermolecular_energy": -9.49, "internal_energy": -1.5, "cluster_size": 9, "cluster_id": 2, "rank_in_cluster": 7}

>  <energy>  (20) 
-8.3

>  <cluster_rmsd>  (20) 
1.4

>  <cluster>  (20) 
1

$$$$

     RDKit          3D

 46 49  0  0  0  0  0  0  0  0999 V2000
  139.5490   71.1480  221.2530 O   0  0  0  0  0  0  0  0  0  0  0  0
  139.6180   71.8260  222.3270 C   0  0  0  0  0  0  0  0  0  0  0  0
  139.4630   73.2230  222.2070 N   0  0  0  0  0  0  0  0  0  0  0  0
  139.2380   73.7610  220.8700 C   0  0  0  0  0  0  0  0  0  0  0  0
  139.9670   75.0140  220.6640 C   0  0  0  0  0  0  0  0  0  0  0  0
  141.1260   75.0940  220.1590 O   0  0  0  0  0  0  0  0  0  0  0  0
  139.3570   76.2320  221.0460 N   0  0  0  0  0  0  0  0  0  0  0  0
  138.9650   77.3140  220.1330 C   0  0  0  0  0  0  0  0  0  0  0  0
  137.6570   77.7700  220.7210 C   0  0  0  0  0  0  0  0  0  0  0  0
  137.5480   77.1540  222.1070 C   0  0  0  0  0  0  0  0  0  0  0  0
  138.9760   76.7160  222.3610 C   0  0  2  0  0  0  0  0  0  0  0  0
  139.8120   77.8950  222.7530 C   0  0  0  0  0  0  0  0  0  0  0  0
  141.1450   77.7380  222.6770 N   0  0  0  0  0  0  0  0  0  0  0  0
  141.9540   78.7610  223.0170 C   0  0  0  0  0  0  0  0  0  0  0  0
  141.4280   79.9550  223.4340 C   0  0  0  0  0  0  0  0  0  0  0  0
  142.4930   81.2580  223.8660 Cl  0  0  0  0  0  0  0  0  0  0  0  0
  140.0590   80.0790  223.5000 C   0  0  0  0  0  0  0  0  0  0  0  0
  139.2410   79.0620  223.1630 N   0  0  0  0  0  0  0  0  0  0  0  0
  139.8470   71.1780  223.6130 C   0  0  0  0  0  0  0  0  0  0  0  0
  139.5380   69.8360  223.7440 C   0  0  0  0  0  0  0  0  0  0  0  0
  139.7360   69.1730  224.9400 C   0  0  0  0  0  0  0  0  0  0  0  0
  140.2550   69.8660  226.0370 C   0  0  0  0  0  0  0  0  0  0  0  0
  140.4750   69.2690  227.2510 C   0  0  0  0  0  0  0  0  0  0  0  0
  140.9950   69.9900  228.3230 C   0  0  0  0  0  0  0  0  0  0  0  0
  141.2960   71.3340  228.1650 C   0  0  0  0  0  0  0  0  0  0  0  0
  141.0730   71.9480  226.9290 C   0  0  0  0  0  0  0  0  0  0  0  0
  140.5580   71.2220  225.8750 C   0  0  0  0  0  0  0  0  0  0  0  0
  140.3460   71.8220  224.6850 N   0  0  0  0  0  0  0  0  0  0  0  0
  139.5120   73.8180  223.0620 H   0  0  0  0  0  0  0  0  0  0  0  0
  139.5772   73.0243  220.1269 H   0  0  0  0  0  0  0  0  0  0  0  0
  138.1631   73.9656  220.7576 H   0  0  0  0  0  0  0  0  0  0  0  0
  139.7074   78.1257  220.1349 H   0  0  0  0  0  0  0  0  0  0  0  0
  138.8898   76.9985  219.0819 H   0  0  0  0  0  0  0  0  0  0  0  0
  137.6387   78.8674  220.7938 H   0  0  0  0  0  0  0  0  0  0  0  0
  136.8139   77.4574  220.0873 H   0  0  0  0  0  0  0  0  0  0  0  0
  137.2174   77.8946  222.8502 H   0  0  0  0  0  0  0  0  0  0  0  0
  136.8117   76.3398  222.1774 H   0  0  0  0  0  0  0  0  0  0  0  0
  139.0971   75.9776  223.1673 H   0  0  0  0  0  0  0  0  0  0  0  0
  143.0453   78.6361  222.9591 H   0  0  0  0  0  0  0  0  0  0  0  0
  139.6218   81.0309  223.8358 H   0  0  0  0  0  0  0  0  0  0  0  0
  139.1283   69.2881  222.8826 H   0  0  0  0  0  0  0  0  0  0  0  0
  139.4864   68.1053  225.0282 H   0  0  0  0  0  0  0  0  0  0  0  0
  140.2369   68.2029  227.3807 H   0  0  0  0  0  0  0  0  0  0  0  0
  141.1661   69.4954  229.2905 H   0  0  0  0  0  0  0  0  0  0  0  0
  141.7070   71.9126  229.0054 H   0  0  0  0  0  0  0  0  0  0  0  0
  141.3091   73.0141  226.7964 H   0  0  0  0  0  0  0  0  0  0  0  0
  1  2  2  0
  2  3  1  0
  3  4  1  0
  4  5  1  0
  5  6  2  0
  5  7  1  0
  7  8  1  0
  8  9  1  0
  9 10  1  0
 10 11  1  0
 11 12  1  0
 12 13  2  0
 13 14  1  0
 14 15  2  0
 15 16  1  0
 15 17  1  0
 17 18  2  0
  2 19  1  0
 19 20  2  0
 20 21  1  0
 21 22  2  0
 22 23  1  0
 23 24  2  0
 24 25  1  0
 25 26  2  0
 26 27  1  0
 27 28  2  0
 11  7  1  0
 18 12  1  0
 28 19  1  0
 27 22  1  0
  3 29  1  0
  4 30  1  0
  4 31  1  0
  8 32  1  0
  8 33  1  0
  9 34  1  0
  9 35  1  0
 10 36  1  0
 10 37  1  0
 11 38  1  1
 14 39  1  0
 17 40  1  0
 20 41  1  0
 21 42  1  0
 23 43  1  0
 24 44  1  0
 25 45  1  0
 26 46  1  0
M  END
>  <smiles>  (21) 
O=C(NCC(=O)N1CCC[C@@H]1c1ncc(Cl)cn1)c1ccc2ccccc2n1

>  <score_type>  (21) 
oracle

>  <origin>  (21) 
autodockgpu

>  <m_score__min__energy>  (21) 
-8.7699999999999996

>  <m_primary>  (21) 
energy

>  <rmsd>  (21) 
2.58075931723802

>  <m_score__min__rmsd>  (21) 
2.58075931723802

>  <meeko>  (21) 
{"free_energy": -8.01, "intermolecular_energy": -9.5, "internal_energy": -1.45, "cluster_size": 31, "cluster_id": 1, "rank_in_cluster": 29}

>  <energy>  (21) 
-8.3

>  <cluster_rmsd>  (21) 
1.35

>  <cluster>  (21) 
1

$$$$

     RDKit          3D

 46 49  0  0  0  0  0  0  0  0999 V2000
  139.9260   73.7830  222.4570 O   0  0  0  0  0  0  0  0  0  0  0  0
  140.4180   72.6110  222.4160 C   0  0  0  0  0  0  0  0  0  0  0  0
  141.1510   72.2680  221.2610 N   0  0  0  0  0  0  0  0  0  0  0  0
  141.2800   73.2840  220.2230 C   0  0  0  0  0  0  0  0  0  0  0  0
  142.3810   74.2070  220.5050 C   0  0  0  0  0  0  0  0  0  0  0  0
  143.4560   73.8820  221.0910 O   0  0  0  0  0  0  0  0  0  0  0  0
  142.2610   75.5590  220.1070 N   0  0  0  0  0  0  0  0  0  0  0  0
  143.3290   76.3710  219.5080 C   0  0  0  0  0  0  0  0  0  0  0  0
  142.5810   77.1660  218.4710 C   0  0  0  0  0  0  0  0  0  0  0  0
  141.0990   77.0060  218.7650 C   0  0  0  0  0  0  0  0  0  0  0  0
  141.1230   76.4580  220.1760 C   0  0  2  0  0  0  0  0  0  0  0  0
  141.3820   77.5650  221.1520 C   0  0  0  0  0  0  0  0  0  0  0  0
  141.7150   78.7590  220.6310 N   0  0  0  0  0  0  0  0  0  0  0  0
  141.9620   79.7960  221.4560 C   0  0  0  0  0  0  0  0  0  0  0  0
  141.8740   79.6420  222.8130 C   0  0  0  0  0  0  0  0  0  0  0  0
  142.1980   80.9960  223.8540 Cl  0  0  0  0  0  0  0  0  0  0  0  0
  141.5320   78.4050  223.3100 C   0  0  0  0  0  0  0  0  0  0  0  0
  141.2830   77.3610  222.4950 N   0  0  0  0  0  0  0  0  0  0  0  0
  140.2250   71.6760  223.5190 C   0  0  0  0  0  0  0  0  0  0  0  0
  139.5340   70.5030  223.2800 C   0  0  0  0  0  0  0  0  0  0  0  0
  139.3230   69.5820  224.2890 C   0  0  0  0  0  0  0  0  0  0  0  0
  139.8140   69.8380  225.5720 C   0  0  0  0  0  0  0  0  0  0  0  0
  139.6400   68.9690  226.6180 C   0  0  0  0  0  0  0  0  0  0  0  0
  140.1430   69.2550  227.8840 C   0  0  0  0  0  0  0  0  0  0  0  0
  140.8330   70.4390  228.0960 C   0  0  0  0  0  0  0  0  0  0  0  0
  141.0130   71.3300  227.0340 C   0  0  0  0  0  0  0  0  0  0  0  0
  140.5090   71.0340  225.7840 C   0  0  0  0  0  0  0  0  0  0  0  0
  140.6880   71.8980  224.7640 N   0  0  0  0  0  0  0  0  0  0  0  0
  141.5730   71.3180  221.1860 H   0  0  0  0  0  0  0  0  0  0  0  0
  141.4682   72.7878  219.2595 H   0  0  0  0  0  0  0  0  0  0  0  0
  140.3455   73.8633  220.1911 H   0  0  0  0  0  0  0  0  0  0  0  0
  143.7959   77.0296  220.2551 H   0  0  0  0  0  0  0  0  0  0  0  0
  144.1572   75.7761  219.0954 H   0  0  0  0  0  0  0  0  0  0  0  0
  142.8650   78.2269  218.5323 H   0  0  0  0  0  0  0  0  0  0  0  0
  142.8190   76.8085  217.4583 H   0  0  0  0  0  0  0  0  0  0  0  0
  140.5746   77.9718  218.7189 H   0  0  0  0  0  0  0  0  0  0  0  0
  140.5680   76.3647  218.0461 H   0  0  0  0  0  0  0  0  0  0  0  0
  140.1879   75.9793  220.5022 H   0  0  0  0  0  0  0  0  0  0  0  0
  142.2367   80.7744  221.0349 H   0  0  0  0  0  0  0  0  0  0  0  0
  141.4602   78.2651  224.3987 H   0  0  0  0  0  0  0  0  0  0  0  0
  139.1459   70.2992  222.2711 H   0  0  0  0  0  0  0  0  0  0  0  0
  138.7716   68.6527  224.0831 H   0  0  0  0  0  0  0  0  0  0  0  0
  139.0931   68.0288  226.4538 H   0  0  0  0  0  0  0  0  0  0  0  0
  139.9940   68.5458  228.7116 H   0  0  0  0  0  0  0  0  0  0  0  0
  141.2355   70.6753  229.0921 H   0  0  0  0  0  0  0  0  0  0  0  0
  141.5588   72.2713  227.1955 H   0  0  0  0  0  0  0  0  0  0  0  0
  1  2  2  0
  2  3  1  0
  3  4  1  0
  4  5  1  0
  5  6  2  0
  5  7  1  0
  7  8  1  0
  8  9  1  0
  9 10  1  0
 10 11  1  0
 11 12  1  0
 12 13  2  0
 13 14  1  0
 14 15  2  0
 15 16  1  0
 15 17  1  0
 17 18  2  0
  2 19  1  0
 19 20  2  0
 20 21  1  0
 21 22  2  0
 22 23  1  0
 23 24  2  0
 24 25  1  0
 25 26  2  0
 26 27  1  0
 27 28  2  0
 11  7  1  0
 18 12  1  0
 28 19  1  0
 27 22  1  0
  3 29  1  0
  4 30  1  0
  4 31  1  0
  8 32  1  0
  8 33  1  0
  9 34  1  0
  9 35  1  0
 10 36  1  0
 10 37  1  0
 11 38  1  1
 14 39  1  0
 17 40  1  0
 20 41  1  0
 21 42  1  0
 23 43  1  0
 24 44  1  0
 25 45  1  0
 26 46  1  0
M  END
>  <smiles>  (22) 
O=C(NCC(=O)N1CCC[C@@H]1c1ncc(Cl)cn1)c1ccc2ccccc2n1

>  <score_type>  (22) 
oracle

>  <origin>  (22) 
autodockgpu

>  <m_score__min__energy>  (22) 
-8.7699999999999996

>  <m_primary>  (22) 
energy

>  <rmsd>  (22) 
2.595559836027742

>  <m_score__min__rmsd>  (22) 
2.595559836027742

>  <meeko>  (22) 
{"free_energy": -8.45, "intermolecular_energy": -9.94, "internal_energy": -1.29, "cluster_size": 31, "cluster_id": 1, "rank_in_cluster": 9}

>  <energy>  (22) 
-8.29

>  <cluster_rmsd>  (22) 
1.39

>  <cluster>  (22) 
1

$$$$

     RDKit          3D

 46 49  0  0  0  0  0  0  0  0999 V2000
  141.5330   73.4820  221.0330 O   0  0  0  0  0  0  0  0  0  0  0  0
  140.7720   74.3290  221.5990 C   0  0  0  0  0  0  0  0  0  0  0  0
  139.6300   73.8210  222.2520 N   0  0  0  0  0  0  0  0  0  0  0  0
  139.4260   72.3770  222.2200 C   0  0  0  0  0  0  0  0  0  0  0  0
  138.0990   72.0090  222.7180 C   0  0  0  0  0  0  0  0  0  0  0  0
  137.0890   72.7740  222.6980 O   0  0  0  0  0  0  0  0  0  0  0  0
  137.9050   70.7180  223.2630 N   0  0  0  0  0  0  0  0  0  0  0  0
  136.7500   70.2950  224.0670 C   0  0  0  0  0  0  0  0  0  0  0  0
  136.5060   68.8980  223.5640 C   0  0  0  0  0  0  0  0  0  0  0  0
  137.7260   68.4920  222.7540 C   0  0  0  0  0  0  0  0  0  0  0  0
  138.7390   69.5330  223.1820 C   0  0  2  0  0  0  0  0  0  0  0  0
  139.2940   69.1850  224.5300 C   0  0  0  0  0  0  0  0  0  0  0  0
  139.8840   70.1810  225.2120 N   0  0  0  0  0  0  0  0  0  0  0  0
  140.4040   69.9340  226.4310 C   0  0  0  0  0  0  0  0  0  0  0  0
  140.3330   68.6790  226.9750 C   0  0  0  0  0  0  0  0  0  0  0  0
  141.0110   68.3860  228.5490 Cl  0  0  0  0  0  0  0  0  0  0  0  0
  139.7220   67.6840  226.2470 C   0  0  0  0  0  0  0  0  0  0  0  0
  139.1990   67.9210  225.0280 N   0  0  0  0  0  0  0  0  0  0  0  0
  141.0780   75.7550  221.5670 C   0  0  0  0  0  0  0  0  0  0  0  0
  141.4920   76.3170  220.3740 C   0  0  0  0  0  0  0  0  0  0  0  0
  141.7940   77.6630  220.2880 C   0  0  0  0  0  0  0  0  0  0  0  0
  141.6810   78.4710  221.4230 C   0  0  0  0  0  0  0  0  0  0  0  0
  141.9650   79.8120  221.4070 C   0  0  0  0  0  0  0  0  0  0  0  0
  141.8410   80.5870  222.5560 C   0  0  0  0  0  0  0  0  0  0  0  0
  141.4240   79.9980  223.7400 C   0  0  0  0  0  0  0  0  0  0  0  0
  141.1330   78.6310  223.7620 C   0  0  0  0  0  0  0  0  0  0  0  0
  141.2600   77.8740  222.6160 C   0  0  0  0  0  0  0  0  0  0  0  0
  140.9770   76.5550  222.6450 N   0  0  0  0  0  0  0  0  0  0  0  0
  138.9780   74.4790  222.7300 H   0  0  0  0  0  0  0  0  0  0  0  0
  139.5284   72.0249  221.1829 H   0  0  0  0  0  0  0  0  0  0  0  0
  140.1796   71.9085  222.8701 H   0  0  0  0  0  0  0  0  0  0  0  0
  136.9897   70.2960  225.1406 H   0  0  0  0  0  0  0  0  0  0  0  0
  135.8777   70.9579  223.9690 H   0  0  0  0  0  0  0  0  0  0  0  0
  136.3708   68.2105  224.4119 H   0  0  0  0  0  0  0  0  0  0  0  0
  135.5967   68.8589  222.9462 H   0  0  0  0  0  0  0  0  0  0  0  0
  138.0601   67.4767  223.0139 H   0  0  0  0  0  0  0  0  0  0  0  0
  137.5507   68.4593  221.6686 H   0  0  0  0  0  0  0  0  0  0  0  0
  139.6067   69.6355  222.5137 H   0  0  0  0  0  0  0  0  0  0  0  0
  140.8888   70.7461  226.9927 H   0  0  0  0  0  0  0  0  0  0  0  0
  139.6590   66.6707  226.6703 H   0  0  0  0  0  0  0  0  0  0  0  0
  141.5825   75.6834  219.4794 H   0  0  0  0  0  0  0  0  0  0  0  0
  142.1216   78.0961  219.3314 H   0  0  0  0  0  0  0  0  0  0  0  0
  142.2965   80.2834  220.4700 H   0  0  0  0  0  0  0  0  0  0  0  0
  142.0727   81.6619  222.5252 H   0  0  0  0  0  0  0  0  0  0  0  0
  141.3230   80.6014  224.6542 H   0  0  0  0  0  0  0  0  0  0  0  0
  140.8012   78.1568  224.6974 H   0  0  0  0  0  0  0  0  0  0  0  0
  1  2  2  0
  2  3  1  0
  3  4  1  0
  4  5  1  0
  5  6  2  0
  5  7  1  0
  7  8  1  0
  8  9  1  0
  9 10  1  0
 10 11  1  0
 11 12  1  0
 12 13  2  0
 13 14  1  0
 14 15  2  0
 15 16  1  0
 15 17  1  0
 17 18  2  0
  2 19  1  0
 19 20  2  0
 20 21  1  0
 21 22  2  0
 22 23  1  0
 23 24  2  0
 24 25  1  0
 25 26  2  0
 26 27  1  0
 27 28  2  0
 11  7  1  0
 18 12  1  0
 28 19  1  0
 27 22  1  0
  3 29  1  0
  4 30  1  0
  4 31  1  0
  8 32  1  0
  8 33  1  0
  9 34  1  0
  9 35  1  0
 10 36  1  0
 10 37  1  0
 11 38  1  6
 14 39  1  0
 17 40  1  0
 20 41  1  0
 21 42  1  0
 23 43  1  0
 24 44  1  0
 25 45  1  0
 26 46  1  0
M  END
>  <smiles>  (23) 
O=C(NCC(=O)N1CCC[C@@H]1c1ncc(Cl)cn1)c1ccc2ccccc2n1

>  <score_type>  (23) 
oracle

>  <origin>  (23) 
autodockgpu

>  <m_score__min__energy>  (23) 
-8.7699999999999996

>  <m_primary>  (23) 
energy

>  <rmsd>  (23) 
9.067800610477738

>  <m_score__min__rmsd>  (23) 
9.067800610477738

>  <meeko>  (23) 
{"free_energy": -8.09, "intermolecular_energy": -9.59, "internal_energy": -1.55, "cluster_size": 9, "cluster_id": 2, "rank_in_cluster": 5}

>  <energy>  (23) 
-8.27

>  <cluster_rmsd>  (23) 
1.33

>  <cluster>  (23) 
1

$$$$

     RDKit          3D

 46 49  0  0  0  0  0  0  0  0999 V2000
  141.0990   72.5600  222.3250 O   0  0  0  0  0  0  0  0  0  0  0  0
  140.0930   72.2530  223.0410 C   0  0  0  0  0  0  0  0  0  0  0  0
  138.8410   72.7540  222.6280 N   0  0  0  0  0  0  0  0  0  0  0  0
  138.8130   73.5760  221.4230 C   0  0  0  0  0  0  0  0  0  0  0  0
  138.8860   75.0030  221.7420 C   0  0  0  0  0  0  0  0  0  0  0  0
  137.9840   75.6460  222.3570 O   0  0  0  0  0  0  0  0  0  0  0  0
  140.0300   75.7350  221.3480 N   0  0  0  0  0  0  0  0  0  0  0  0
  141.4240   75.3260  221.5670 C   0  0  0  0  0  0  0  0  0  0  0  0
  142.0870   75.7530  220.2860 C   0  0  0  0  0  0  0  0  0  0  0  0
  141.1150   76.6690  219.5600 C   0  0  0  0  0  0  0  0  0  0  0  0
  140.1340   77.0110  220.6630 C   0  0  2  0  0  0  0  0  0  0  0  0
  140.7220   78.0500  221.5680 C   0  0  0  0  0  0  0  0  0  0  0  0
  141.5700   78.9280  221.0040 N   0  0  0  0  0  0  0  0  0  0  0  0
  142.1330   79.8880  221.7640 C   0  0  0  0  0  0  0  0  0  0  0  0
  141.8460   79.9750  223.1000 C   0  0  0  0  0  0  0  0  0  0  0  0
  142.5860   81.2220  224.0580 Cl  0  0  0  0  0  0  0  0  0  0  0  0
  140.9750   79.0590  223.6430 C   0  0  0  0  0  0  0  0  0  0  0  0
  140.4060   78.0950  222.8920 N   0  0  0  0  0  0  0  0  0  0  0  0
  140.2420   71.4200  224.2300 C   0  0  0  0  0  0  0  0  0  0  0  0
  140.9870   71.9040  225.2890 C   0  0  0  0  0  0  0  0  0  0  0  0
  141.1590   71.1570  226.4390 C   0  0  0  0  0  0  0  0  0  0  0  0
  140.5740   69.8920  226.5350 C   0  0  0  0  0  0  0  0  0  0  0  0
  140.7060   69.0990  227.6460 C   0  0  0  0  0  0  0  0  0  0  0  0
  140.1080   67.8430  227.7090 C   0  0  0  0  0  0  0  0  0  0  0  0
  139.3660   67.3820  226.6320 C   0  0  0  0  0  0  0  0  0  0  0  0
  139.2290   68.1860  225.4970 C   0  0  0  0  0  0  0  0  0  0  0  0
  139.8260   69.4280  225.4470 C   0  0  0  0  0  0  0  0  0  0  0  0
  139.6890   70.1990  224.3480 N   0  0  0  0  0  0  0  0  0  0  0  0
  137.9900   72.5270  223.1850 H   0  0  0  0  0  0  0  0  0  0  0  0
  139.6703   73.3079  220.7880 H   0  0  0  0  0  0  0  0  0  0  0  0
  137.8633   73.3884  220.9007 H   0  0  0  0  0  0  0  0  0  0  0  0
  141.8601   75.8445  222.4336 H   0  0  0  0  0  0  0  0  0  0  0  0
  141.5397   74.2546  221.7876 H   0  0  0  0  0  0  0  0  0  0  0  0
  143.0201   76.2923  220.5062 H   0  0  0  0  0  0  0  0  0  0  0  0
  142.3374   74.8795  219.6660 H   0  0  0  0  0  0  0  0  0  0  0  0
  141.6202   77.5689  219.1793 H   0  0  0  0  0  0  0  0  0  0  0  0
  140.6495   76.2138  218.6734 H   0  0  0  0  0  0  0  0  0  0  0  0
  139.1727   77.4190  220.3175 H   0  0  0  0  0  0  0  0  0  0  0  0
  142.8286   80.6074  221.3074 H   0  0  0  0  0  0  0  0  0  0  0  0
  140.7372   79.1145  224.7156 H   0  0  0  0  0  0  0  0  0  0  0  0
  141.4501   72.8990  225.2153 H   0  0  0  0  0  0  0  0  0  0  0  0
  141.7532   71.5563  227.2741 H   0  0  0  0  0  0  0  0  0  0  0  0
  141.2943   69.4612  228.5020 H   0  0  0  0  0  0  0  0  0  0  0  0
  140.2236   67.2199  228.6081 H   0  0  0  0  0  0  0  0  0  0  0  0
  138.8891   66.3915  226.6707 H   0  0  0  0  0  0  0  0  0  0  0  0
  138.6419   67.8262  224.6392 H   0  0  0  0  0  0  0  0  0  0  0  0
  1  2  2  0
  2  3  1  0
  3  4  1  0
  4  5  1  0
  5  6  2  0
  5  7  1  0
  7  8  1  0
  8  9  1  0
  9 10  1  0
 10 11  1  0
 11 12  1  0
 12 13  2  0
 13 14  1  0
 14 15  2  0
 15 16  1  0
 15 17  1  0
 17 18  2  0
  2 19  1  0
 19 20  2  0
 20 21  1  0
 21 22  2  0
 22 23  1  0
 23 24  2  0
 24 25  1  0
 25 26  2  0
 26 27  1  0
 27 28  2  0
 11  7  1  0
 18 12  1  0
 28 19  1  0
 27 22  1  0
  3 29  1  0
  4 30  1  0
  4 31  1  0
  8 32  1  0
  8 33  1  0
  9 34  1  0
  9 35  1  0
 10 36  1  0
 10 37  1  0
 11 38  1  6
 14 39  1  0
 17 40  1  0
 20 41  1  0
 21 42  1  0
 23 43  1  0
 24 44  1  0
 25 45  1  0
 26 46  1  0
M  END
>  <smiles>  (24) 
O=C(NCC(=O)N1CCC[C@@H]1c1ncc(Cl)cn1)c1ccc2ccccc2n1

>  <score_type>  (24) 
oracle

>  <origin>  (24) 
autodockgpu

>  <m_score__min__energy>  (24) 
-8.7699999999999996

>  <m_primary>  (24) 
energy

>  <rmsd>  (24) 
3.0817579504259576

>  <m_score__min__rmsd>  (24) 
3.0817579504259576

>  <meeko>  (24) 
{"free_energy": -8.16, "intermolecular_energy": -9.65, "internal_energy": -1.46, "cluster_size": 31, "cluster_id": 1, "rank_in_cluster": 26}

>  <energy>  (24) 
-8.21

>  <cluster_rmsd>  (24) 
1.2

>  <cluster>  (24) 
1

$$$$

     RDKit          3D

 46 49  0  0  0  0  0  0  0  0999 V2000
  138.4100   72.1360  222.3840 O   0  0  0  0  0  0  0  0  0  0  0  0
  139.5420   71.7020  222.7680 C   0  0  0  0  0  0  0  0  0  0  0  0
  140.6720   72.1520  222.0540 N   0  0  0  0  0  0  0  0  0  0  0  0
  140.4420   73.0720  220.9460 C   0  0  0  0  0  0  0  0  0  0  0  0
  140.2140   74.4390  221.4190 C   0  0  0  0  0  0  0  0  0  0  0  0
  139.4060   74.7520  222.3440 O   0  0  0  0  0  0  0  0  0  0  0  0
  140.9320   75.5010  220.8200 N   0  0  0  0  0  0  0  0  0  0  0  0
  142.3620   75.4820  220.4840 C   0  0  0  0  0  0  0  0  0  0  0  0
  142.3890   76.2040  219.1640 C   0  0  0  0  0  0  0  0  0  0  0  0
  141.0370   76.8760  218.9910 C   0  0  0  0  0  0  0  0  0  0  0  0
  140.4820   76.8150  220.3990 C   0  0  2  0  0  0  0  0  0  0  0  0
  141.1070   77.8830  221.2440 C   0  0  0  0  0  0  0  0  0  0  0  0
  141.1220   77.6680  222.5710 N   0  0  0  0  0  0  0  0  0  0  0  0
  141.6700   78.5900  223.3860 C   0  0  0  0  0  0  0  0  0  0  0  0
  142.2100   79.7390  222.8720 C   0  0  0  0  0  0  0  0  0  0  0  0
  142.9110   80.9130  223.9460 Cl  0  0  0  0  0  0  0  0  0  0  0  0
  142.1770   79.9250  221.5100 C   0  0  0  0  0  0  0  0  0  0  0  0
  141.6310   79.0090  220.6850 N   0  0  0  0  0  0  0  0  0  0  0  0
  139.6520   70.7810  223.8950 C   0  0  0  0  0  0  0  0  0  0  0  0
  139.1240   69.5100  223.7660 C   0  0  0  0  0  0  0  0  0  0  0  0
  139.2020   68.5980  224.8010 C   0  0  0  0  0  0  0  0  0  0  0  0
  139.8210   68.9640  226.0000 C   0  0  0  0  0  0  0  0  0  0  0  0
  139.9310   68.1100  227.0660 C   0  0  0  0  0  0  0  0  0  0  0  0
  140.5560   68.5070  228.2450 C   0  0  0  0  0  0  0  0  0  0  0  0
  141.0760   69.7880  228.3480 C   0  0  0  0  0  0  0  0  0  0  0  0
  140.9660   70.6640  227.2630 C   0  0  0  0  0  0  0  0  0  0  0  0
  140.3450   70.2570  226.1010 C   0  0  0  0  0  0  0  0  0  0  0  0
  140.2440   71.1080  225.0590 N   0  0  0  0  0  0  0  0  0  0  0  0
  141.6200   71.8220  222.3350 H   0  0  0  0  0  0  0  0  0  0  0  0
  141.3227   73.0645  220.2870 H   0  0  0  0  0  0  0  0  0  0  0  0
  139.5435   72.7409  220.4046 H   0  0  0  0  0  0  0  0  0  0  0  0
  142.9566   76.0137  221.2415 H   0  0  0  0  0  0  0  0  0  0  0  0
  142.7920   74.4704  220.4424 H   0  0  0  0  0  0  0  0  0  0  0  0
  143.1882   76.9599  219.1643 H   0  0  0  0  0  0  0  0  0  0  0  0
  142.5846   75.5026  218.3395 H   0  0  0  0  0  0  0  0  0  0  0  0
  141.1467   77.9153  218.6478 H   0  0  0  0  0  0  0  0  0  0  0  0
  140.3943   76.3990  218.2364 H   0  0  0  0  0  0  0  0  0  0  0  0
  139.3951   76.9664  220.4741 H   0  0  0  0  0  0  0  0  0  0  0  0
  141.6839   78.4188  224.4725 H   0  0  0  0  0  0  0  0  0  0  0  0
  142.6065   80.8434  221.0832 H   0  0  0  0  0  0  0  0  0  0  0  0
  138.6341   69.2202  222.8247 H   0  0  0  0  0  0  0  0  0  0  0  0
  138.7794   67.5894  224.6823 H   0  0  0  0  0  0  0  0  0  0  0  0
  139.5184   67.0933  226.9888 H   0  0  0  0  0  0  0  0  0  0  0  0
  140.6368   67.8079  229.0904 H   0  0  0  0  0  0  0  0  0  0  0  0
  141.5709   70.1128  229.2751 H   0  0  0  0  0  0  0  0  0  0  0  0
  141.3766   71.6818  227.3370 H   0  0  0  0  0  0  0  0  0  0  0  0
  1  2  2  0
  2  3  1  0
  3  4  1  0
  4  5  1  0
  5  6  2  0
  5  7  1  0
  7  8  1  0
  8  9  1  0
  9 10  1  0
 10 11  1  0
 11 12  1  0
 12 13  2  0
 13 14  1  0
 14 15  2  0
 15 16  1  0
 15 17  1  0
 17 18  2  0
  2 19  1  0
 19 20  2  0
 20 21  1  0
 21 22  2  0
 22 23  1  0
 23 24  2  0
 24 25  1  0
 25 26  2  0
 26 27  1  0
 27 28  2  0
 11  7  1  0
 18 12  1  0
 28 19  1  0
 27 22  1  0
  3 29  1  0
  4 30  1  0
  4 31  1  0
  8 32  1  0
  8 33  1  0
  9 34  1  0
  9 35  1  0
 10 36  1  0
 10 37  1  0
 11 38  1  6
 14 39  1  0
 17 40  1  0
 20 41  1  0
 21 42  1  0
 23 43  1  0
 24 44  1  0
 25 45  1  0
 26 46  1  0
M  END
>  <smiles>  (25) 
O=C(NCC(=O)N1CCC[C@@H]1c1ncc(Cl)cn1)c1ccc2ccccc2n1

>  <score_type>  (25) 
oracle

>  <origin>  (25) 
autodockgpu

>  <m_score__min__energy>  (25) 
-8.7699999999999996

>  <m_primary>  (25) 
energy

>  <rmsd>  (25) 
2.0217000413567168

>  <m_score__min__rmsd>  (25) 
2.0217000413567168

>  <meeko>  (25) 
{"free_energy": -8.39, "intermolecular_energy": -9.88, "internal_energy": -1.29, "cluster_size": 31, "cluster_id": 1, "rank_in_cluster": 14}

>  <energy>  (25) 
-8.16

>  <cluster_rmsd>  (25) 
1.36

>  <cluster>  (25) 
1

$$$$

     RDKit          3D

 46 49  0  0  0  0  0  0  0  0999 V2000
  138.5150   71.8590  222.3530 O   0  0  0  0  0  0  0  0  0  0  0  0
  139.6420   71.4760  222.8020 C   0  0  0  0  0  0  0  0  0  0  0  0
  140.7890   71.9730  222.1490 N   0  0  0  0  0  0  0  0  0  0  0  0
  140.5810   72.8760  221.0230 C   0  0  0  0  0  0  0  0  0  0  0  0
  140.2300   74.2240  221.4720 C   0  0  0  0  0  0  0  0  0  0  0  0
  139.3500   74.4820  222.3460 O   0  0  0  0  0  0  0  0  0  0  0  0
  140.9040   75.3320  220.9070 N   0  0  0  0  0  0  0  0  0  0  0  0
  142.3220   75.3640  220.5220 C   0  0  0  0  0  0  0  0  0  0  0  0
  142.2880   76.1560  219.2430 C   0  0  0  0  0  0  0  0  0  0  0  0
  140.9170   76.8050  219.1530 C   0  0  0  0  0  0  0  0  0  0  0  0
  140.4130   76.6570  220.5740 C   0  0  2  0  0  0  0  0  0  0  0  0
  141.0450   77.6920  221.4530 C   0  0  0  0  0  0  0  0  0  0  0  0
  141.5300   78.7860  220.8400 N   0  0  0  0  0  0  0  0  0  0  0  0
  142.1120   79.7550  221.5740 C   0  0  0  0  0  0  0  0  0  0  0  0
  142.2110   79.6320  222.9350 C   0  0  0  0  0  0  0  0  0  0  0  0
  142.9660   80.8960  223.8580 Cl  0  0  0  0  0  0  0  0  0  0  0  0
  141.7050   78.4980  223.5270 C   0  0  0  0  0  0  0  0  0  0  0  0
  141.1200   77.5230  222.8020 N   0  0  0  0  0  0  0  0  0  0  0  0
  139.7290   70.5670  223.9400 C   0  0  0  0  0  0  0  0  0  0  0  0
  139.1720   69.3070  223.8260 C   0  0  0  0  0  0  0  0  0  0  0  0
  139.2270   68.4070  224.8720 C   0  0  0  0  0  0  0  0  0  0  0  0
  139.8520   68.7720  226.0670 C   0  0  0  0  0  0  0  0  0  0  0  0
  139.9410   67.9290  227.1440 C   0  0  0  0  0  0  0  0  0  0  0  0
  140.5730   68.3260  228.3190 C   0  0  0  0  0  0  0  0  0  0  0  0
  141.1230   69.5960  228.4070 C   0  0  0  0  0  0  0  0  0  0  0  0
  141.0350   70.4610  227.3130 C   0  0  0  0  0  0  0  0  0  0  0  0
  140.4060   70.0540  226.1540 C   0  0  0  0  0  0  0  0  0  0  0  0
  140.3260   70.8950  225.1010 N   0  0  0  0  0  0  0  0  0  0  0  0
  141.7340   71.6850  222.4840 H   0  0  0  0  0  0  0  0  0  0  0  0
  141.5062   72.9267  220.4302 H   0  0  0  0  0  0  0  0  0  0  0  0
  139.7484   72.4867  220.4186 H   0  0  0  0  0  0  0  0  0  0  0  0
  142.9314   75.8679  221.2867 H   0  0  0  0  0  0  0  0  0  0  0  0
  142.7714   74.3661  220.4109 H   0  0  0  0  0  0  0  0  0  0  0  0
  143.0706   76.9288  219.2573 H   0  0  0  0  0  0  0  0  0  0  0  0
  142.4695   75.5047  218.3753 H   0  0  0  0  0  0  0  0  0  0  0  0
  140.9927   77.8633  218.8626 H   0  0  0  0  0  0  0  0  0  0  0  0
  140.2583   76.3538  218.3964 H   0  0  0  0  0  0  0  0  0  0  0  0
  139.3266   76.7802  220.6950 H   0  0  0  0  0  0  0  0  0  0  0  0
  142.5106   80.6515  221.0766 H   0  0  0  0  0  0  0  0  0  0  0  0
  141.7794   78.3838  224.6185 H   0  0  0  0  0  0  0  0  0  0  0  0
  138.6772   69.0167  222.8874 H   0  0  0  0  0  0  0  0  0  0  0  0
  138.7808   67.4073  224.7648 H   0  0  0  0  0  0  0  0  0  0  0  0
  139.5054   66.9211  227.0787 H   0  0  0  0  0  0  0  0  0  0  0  0
  140.6358   67.6359  229.1733 H   0  0  0  0  0  0  0  0  0  0  0  0
  141.6246   69.9200  229.3308 H   0  0  0  0  0  0  0  0  0  0  0  0
  141.4687   71.4700  227.3759 H   0  0  0  0  0  0  0  0  0  0  0  0
  1  2  2  0
  2  3  1  0
  3  4  1  0
  4  5  1  0
  5  6  2  0
  5  7  1  0
  7  8  1  0
  8  9  1  0
  9 10  1  0
 10 11  1  0
 11 12  1  0
 12 13  2  0
 13 14  1  0
 14 15  2  0
 15 16  1  0
 15 17  1  0
 17 18  2  0
  2 19  1  0
 19 20  2  0
 20 21  1  0
 21 22  2  0
 22 23  1  0
 23 24  2  0
 24 25  1  0
 25 26  2  0
 26 27  1  0
 27 28  2  0
 11  7  1  0
 18 12  1  0
 28 19  1  0
 27 22  1  0
  3 29  1  0
  4 30  1  0
  4 31  1  0
  8 32  1  0
  8 33  1  0
  9 34  1  0
  9 35  1  0
 10 36  1  0
 10 37  1  0
 11 38  1  6
 14 39  1  0
 17 40  1  0
 20 41  1  0
 21 42  1  0
 23 43  1  0
 24 44  1  0
 25 45  1  0
 26 46  1  0
M  END
>  <smiles>  (26) 
O=C(NCC(=O)N1CCC[C@@H]1c1ncc(Cl)cn1)c1ccc2ccccc2n1

>  <score_type>  (26) 
oracle

>  <origin>  (26) 
autodockgpu

>  <m_score__min__energy>  (26) 
-8.7699999999999996

>  <m_primary>  (26) 
energy

>  <rmsd>  (26) 
2.3053314202359116

>  <m_score__min__rmsd>  (26) 
2.3053314202359116

>  <meeko>  (26) 
{"free_energy": -8.37, "intermolecular_energy": -9.86, "internal_energy": -1.28, "cluster_size": 31, "cluster_id": 1, "rank_in_cluster": 15}

>  <energy>  (26) 
-8.16

>  <cluster_rmsd>  (26) 
1.51

>  <cluster>  (26) 
1

$$$$

     RDKit          3D

 46 49  0  0  0  0  0  0  0  0999 V2000
  139.9360   70.7740  221.4170 O   0  0  0  0  0  0  0  0  0  0  0  0
  139.9330   71.3050  222.5740 C   0  0  0  0  0  0  0  0  0  0  0  0
  139.9530   72.7140  222.6270 N   0  0  0  0  0  0  0  0  0  0  0  0
  139.9740   73.4320  221.3580 C   0  0  0  0  0  0  0  0  0  0  0  0
  139.6140   74.8410  221.5310 C   0  0  0  0  0  0  0  0  0  0  0  0
  138.6040   75.2480  222.1790 O   0  0  0  0  0  0  0  0  0  0  0  0
  140.4320   75.8350  220.9440 N   0  0  0  0  0  0  0  0  0  0  0  0
  141.8480   75.6730  220.5860 C   0  0  0  0  0  0  0  0  0  0  0  0
  141.9340   76.4200  219.2810 C   0  0  0  0  0  0  0  0  0  0  0  0
  140.6580   77.2350  219.1450 C   0  0  0  0  0  0  0  0  0  0  0  0
  140.1180   77.1990  220.5600 C   0  0  2  0  0  0  0  0  0  0  0  0
  140.8650   78.1740  221.4180 C   0  0  0  0  0  0  0  0  0  0  0  0
  140.9450   77.8830  222.7280 N   0  0  0  0  0  0  0  0  0  0  0  0
  141.6030   78.7200  223.5550 C   0  0  0  0  0  0  0  0  0  0  0  0
  142.1870   79.8600  223.0690 C   0  0  0  0  0  0  0  0  0  0  0  0
  143.0290   80.9230  224.1570 Cl  0  0  0  0  0  0  0  0  0  0  0  0
  142.0830   80.1260  221.7230 C   0  0  0  0  0  0  0  0  0  0  0  0
  141.4280   79.2950  220.8880 N   0  0  0  0  0  0  0  0  0  0  0  0
  139.9110   70.4820  223.7790 C   0  0  0  0  0  0  0  0  0  0  0  0
  139.2710   69.2580  223.7340 C   0  0  0  0  0  0  0  0  0  0  0  0
  139.2210   68.4400  224.8460 C   0  0  0  0  0  0  0  0  0  0  0  0
  139.8230   68.8530  226.0370 C   0  0  0  0  0  0  0  0  0  0  0  0
  139.8100   68.0910  227.1760 C   0  0  0  0  0  0  0  0  0  0  0  0
  140.4220   68.5340  228.3450 C   0  0  0  0  0  0  0  0  0  0  0  0
  141.0570   69.7670  228.3630 C   0  0  0  0  0  0  0  0  0  0  0  0
  141.0740   70.5480  227.2040 C   0  0  0  0  0  0  0  0  0  0  0  0
  140.4640   70.0970  226.0520 C   0  0  0  0  0  0  0  0  0  0  0  0
  140.4840   70.8570  224.9370 N   0  0  0  0  0  0  0  0  0  0  0  0
  139.9510   73.1910  223.5540 H   0  0  0  0  0  0  0  0  0  0  0  0
  140.9856   73.3717  220.9302 H   0  0  0  0  0  0  0  0  0  0  0  0
  139.2361   72.9677  220.6872 H   0  0  0  0  0  0  0  0  0  0  0  0
  142.5052   76.1209  221.3459 H   0  0  0  0  0  0  0  0  0  0  0  0
  142.1682   74.6230  220.5155 H   0  0  0  0  0  0  0  0  0  0  0  0
  142.8087   77.0871  219.2855 H   0  0  0  0  0  0  0  0  0  0  0  0
  142.0434   75.7220  218.4379 H   0  0  0  0  0  0  0  0  0  0  0  0
  140.8724   78.2650  218.8238 H   0  0  0  0  0  0  0  0  0  0  0  0
  139.9585   76.8465  218.3902 H   0  0  0  0  0  0  0  0  0  0  0  0
  139.0543   77.4624  220.6561 H   0  0  0  0  0  0  0  0  0  0  0  0
  141.6715   78.4859  224.6276 H   0  0  0  0  0  0  0  0  0  0  0  0
  142.5454   81.0386  221.3188 H   0  0  0  0  0  0  0  0  0  0  0  0
  138.7942   68.9302  222.7985 H   0  0  0  0  0  0  0  0  0  0  0  0
  138.7094   67.4676  224.7939 H   0  0  0  0  0  0  0  0  0  0  0  0
  139.3073   67.1126  227.1662 H   0  0  0  0  0  0  0  0  0  0  0  0
  140.4022   67.9093  229.2502 H   0  0  0  0  0  0  0  0  0  0  0  0
  141.5431   70.1272  229.2817 H   0  0  0  0  0  0  0  0  0  0  0  0
  141.5761   71.5267  227.2106 H   0  0  0  0  0  0  0  0  0  0  0  0
  1  2  2  0
  2  3  1  0
  3  4  1  0
  4  5  1  0
  5  6  2  0
  5  7  1  0
  7  8  1  0
  8  9  1  0
  9 10  1  0
 10 11  1  0
 11 12  1  0
 12 13  2  0
 13 14  1  0
 14 15  2  0
 15 16  1  0
 15 17  1  0
 17 18  2  0
  2 19  1  0
 19 20  2  0
 20 21  1  0
 21 22  2  0
 22 23  1  0
 23 24  2  0
 24 25  1  0
 25 26  2  0
 26 27  1  0
 27 28  2  0
 11  7  1  0
 18 12  1  0
 28 19  1  0
 27 22  1  0
  3 29  1  0
  4 30  1  0
  4 31  1  0
  8 32  1  0
  8 33  1  0
  9 34  1  0
  9 35  1  0
 10 36  1  0
 10 37  1  0
 11 38  1  6
 14 39  1  0
 17 40  1  0
 20 41  1  0
 21 42  1  0
 23 43  1  0
 24 44  1  0
 25 45  1  0
 26 46  1  0
M  END
>  <smiles>  (27) 
O=C(NCC(=O)N1CCC[C@@H]1c1ncc(Cl)cn1)c1ccc2ccccc2n1

>  <score_type>  (27) 
oracle

>  <origin>  (27) 
autodockgpu

>  <m_score__min__energy>  (27) 
-8.7699999999999996

>  <m_primary>  (27) 
energy

>  <rmsd>  (27) 
1.88122053288839

>  <m_score__min__rmsd>  (27) 
1.88122053288839

>  <meeko>  (27) 
{"free_energy": -8.12, "intermolecular_energy": -9.62, "internal_energy": -1.43, "cluster_size": 31, "cluster_id": 1, "rank_in_cluster": 27}

>  <energy>  (27) 
-8.12

>  <cluster_rmsd>  (27) 
1.17

>  <cluster>  (27) 
1

$$$$

     RDKit          3D

 46 49  0  0  0  0  0  0  0  0999 V2000
  141.2490   72.1010  221.6440 O   0  0  0  0  0  0  0  0  0  0  0  0
  140.2850   72.2810  222.4540 C   0  0  0  0  0  0  0  0  0  0  0  0
  139.3410   73.2700  222.1090 N   0  0  0  0  0  0  0  0  0  0  0  0
  139.5530   73.9930  220.8600 C   0  0  0  0  0  0  0  0  0  0  0  0
  140.3630   75.1960  221.0650 C   0  0  0  0  0  0  0  0  0  0  0  0
  141.6270   75.2280  220.9950 O   0  0  0  0  0  0  0  0  0  0  0  0
  139.7130   76.4170  221.3620 N   0  0  0  0  0  0  0  0  0  0  0  0
  139.3780   77.4650  220.3880 C   0  0  0  0  0  0  0  0  0  0  0  0
  138.0240   77.9210  220.8630 C   0  0  0  0  0  0  0  0  0  0  0  0
  137.8210   77.3470  222.2560 C   0  0  0  0  0  0  0  0  0  0  0  0
  139.2300   76.9360  222.6280 C   0  0  2  0  0  0  0  0  0  0  0  0
  140.0220   78.1390  223.0420 C   0  0  0  0  0  0  0  0  0  0  0  0
  141.3610   78.0230  222.9920 N   0  0  0  0  0  0  0  0  0  0  0  0
  142.1310   79.0680  223.3520 C   0  0  0  0  0  0  0  0  0  0  0  0
  141.5610   80.2430  223.7660 C   0  0  0  0  0  0  0  0  0  0  0  0
  142.5770   81.5760  224.2250 Cl  0  0  0  0  0  0  0  0  0  0  0  0
  140.1880   80.3240  223.8050 C   0  0  0  0  0  0  0  0  0  0  0  0
  139.4080   79.2850  223.4470 N   0  0  0  0  0  0  0  0  0  0  0  0
  140.1740   71.4950  223.6780 C   0  0  0  0  0  0  0  0  0  0  0  0
  139.5250   70.2760  223.6260 C   0  0  0  0  0  0  0  0  0  0  0  0
  139.3920   69.4910  224.7560 C   0  0  0  0  0  0  0  0  0  0  0  0
  139.9210   69.9340  225.9720 C   0  0  0  0  0  0  0  0  0  0  0  0
  139.8240   69.2060  227.1290 C   0  0  0  0  0  0  0  0  0  0  0  0
  140.3630   69.6770  228.3230 C   0  0  0  0  0  0  0  0  0  0  0  0
  141.0090   70.9040  228.3470 C   0  0  0  0  0  0  0  0  0  0  0  0
  141.1110   71.6510  227.1690 C   0  0  0  0  0  0  0  0  0  0  0  0
  140.5720   71.1720  225.9930 C   0  0  0  0  0  0  0  0  0  0  0  0
  140.6750   71.8990  224.8610 N   0  0  0  0  0  0  0  0  0  0  0  0
  138.5340   73.4510  222.7440 H   0  0  0  0  0  0  0  0  0  0  0  0
  140.0690   73.3321  220.1480 H   0  0  0  0  0  0  0  0  0  0  0  0
  138.5718   74.3009  220.4695 H   0  0  0  0  0  0  0  0  0  0  0  0
  140.1089   78.2865  220.4191 H   0  0  0  0  0  0  0  0  0  0  0  0
  139.3851   77.1163  219.3448 H   0  0  0  0  0  0  0  0  0  0  0  0
  137.9873   79.0198  220.8989 H   0  0  0  0  0  0  0  0  0  0  0  0
  137.2336   77.5773  220.1795 H   0  0  0  0  0  0  0  0  0  0  0  0
  137.4287   78.1059  222.9490 H   0  0  0  0  0  0  0  0  0  0  0  0
  137.0908   76.5254  222.2979 H   0  0  0  0  0  0  0  0  0  0  0  0
  139.2987   76.2245  223.4641 H   0  0  0  0  0  0  0  0  0  0  0  0
  143.2266   78.9772  223.3133 H   0  0  0  0  0  0  0  0  0  0  0  0
  139.7152   81.2602  224.1366 H   0  0  0  0  0  0  0  0  0  0  0  0
  139.1078   69.9250  222.6706 H   0  0  0  0  0  0  0  0  0  0  0  0
  138.8727   68.5230  224.6988 H   0  0  0  0  0  0  0  0  0  0  0  0
  139.3115   68.2328  227.1140 H   0  0  0  0  0  0  0  0  0  0  0  0
  140.2770   69.0792  229.2424 H   0  0  0  0  0  0  0  0  0  0  0  0
  141.4377   71.2866  229.2850 H   0  0  0  0  0  0  0  0  0  0  0  0
  141.6231   72.6245  227.1803 H   0  0  0  0  0  0  0  0  0  0  0  0
  1  2  2  0
  2  3  1  0
  3  4  1  0
  4  5  1  0
  5  6  2  0
  5  7  1  0
  7  8  1  0
  8  9  1  0
  9 10  1  0
 10 11  1  0
 11 12  1  0
 12 13  2  0
 13 14  1  0
 14 15  2  0
 15 16  1  0
 15 17  1  0
 17 18  2  0
  2 19  1  0
 19 20  2  0
 20 21  1  0
 21 22  2  0
 22 23  1  0
 23 24  2  0
 24 25  1  0
 25 26  2  0
 26 27  1  0
 27 28  2  0
 11  7  1  0
 18 12  1  0
 28 19  1  0
 27 22  1  0
  3 29  1  0
  4 30  1  0
  4 31  1  0
  8 32  1  0
  8 33  1  0
  9 34  1  0
  9 35  1  0
 10 36  1  0
 10 37  1  0
 11 38  1  1
 14 39  1  0
 17 40  1  0
 20 41  1  0
 21 42  1  0
 23 43  1  0
 24 44  1  0
 25 45  1  0
 26 46  1  0
M  END
>  <smiles>  (28) 
O=C(NCC(=O)N1CCC[C@@H]1c1ncc(Cl)cn1)c1ccc2ccccc2n1

>  <score_type>  (28) 
oracle

>  <origin>  (28) 
autodockgpu

>  <m_score__min__energy>  (28) 
-8.7699999999999996

>  <m_primary>  (28) 
energy

>  <rmsd>  (28) 
2.6860567369843555

>  <m_score__min__rmsd>  (28) 
2.6860567369843555

>  <meeko>  (28) 
{"free_energy": -8.3, "intermolecular_energy": -9.79, "internal_energy": -1.35, "cluster_size": 31, "cluster_id": 1, "rank_in_cluster": 20}

>  <energy>  (28) 
-8.06

>  <cluster_rmsd>  (28) 
1.56

>  <cluster>  (28) 
1

$$$$

     RDKit          3D

 46 49  0  0  0  0  0  0  0  0999 V2000
  140.0070   71.4860  221.2400 O   0  0  0  0  0  0  0  0  0  0  0  0
  139.8690   72.0900  222.3500 C   0  0  0  0  0  0  0  0  0  0  0  0
  139.6910   73.4880  222.2960 N   0  0  0  0  0  0  0  0  0  0  0  0
  139.6800   74.1120  220.9770 C   0  0  0  0  0  0  0  0  0  0  0  0
  141.0170   74.1310  220.3800 C   0  0  0  0  0  0  0  0  0  0  0  0
  141.7010   73.0960  220.1240 O   0  0  0  0  0  0  0  0  0  0  0  0
  141.6050   75.3760  220.0560 N   0  0  0  0  0  0  0  0  0  0  0  0
  143.0470   75.6390  219.9580 C   0  0  0  0  0  0  0  0  0  0  0  0
  143.1230   76.5620  218.7710 C   0  0  0  0  0  0  0  0  0  0  0  0
  141.7070   77.0300  218.4750 C   0  0  0  0  0  0  0  0  0  0  0  0
  140.9860   76.6530  219.7520 C   0  0  2  0  0  0  0  0  0  0  0  0
  141.2860   77.6550  220.8250 C   0  0  0  0  0  0  0  0  0  0  0  0
  141.7560   78.8470  220.4190 N   0  0  0  0  0  0  0  0  0  0  0  0
  142.0470   79.7920  221.3350 C   0  0  0  0  0  0  0  0  0  0  0  0
  141.8640   79.5460  222.6700 C   0  0  0  0  0  0  0  0  0  0  0  0
  142.2470   80.7820  223.8310 Cl  0  0  0  0  0  0  0  0  0  0  0  0
  141.3820   78.3140  223.0480 C   0  0  0  0  0  0  0  0  0  0  0  0
  141.0890   77.3620  222.1400 N   0  0  0  0  0  0  0  0  0  0  0  0
  139.8960   71.3600  223.6130 C   0  0  0  0  0  0  0  0  0  0  0  0
  139.3630   70.0850  223.6530 C   0  0  0  0  0  0  0  0  0  0  0  0
  139.3640   69.3490  224.8220 C   0  0  0  0  0  0  0  0  0  0  0  0
  139.9080   69.8990  225.9850 C   0  0  0  0  0  0  0  0  0  0  0  0
  139.9400   69.2250  227.1780 C   0  0  0  0  0  0  0  0  0  0  0  0
  140.4920   69.8030  228.3180 C   0  0  0  0  0  0  0  0  0  0  0  0
  141.0190   71.0840  228.2510 C   0  0  0  0  0  0  0  0  0  0  0  0
  140.9890   71.7770  227.0370 C   0  0  0  0  0  0  0  0  0  0  0  0
  140.4390   71.1920  225.9150 C   0  0  0  0  0  0  0  0  0  0  0  0
  140.4150   71.8670  224.7470 N   0  0  0  0  0  0  0  0  0  0  0  0
  139.5740   74.0250  223.1820 H   0  0  0  0  0  0  0  0  0  0  0  0
  139.0033   73.5462  220.3198 H   0  0  0  0  0  0  0  0  0  0  0  0
  139.3383   75.1514  221.0903 H   0  0  0  0  0  0  0  0  0  0  0  0
  143.4259   76.1276  220.8678 H   0  0  0  0  0  0  0  0  0  0  0  0
  143.6550   74.7288  219.8488 H   0  0  0  0  0  0  0  0  0  0  0  0
  143.7641   77.4248  219.0047 H   0  0  0  0  0  0  0  0  0  0  0  0
  143.5536   76.0449  217.9008 H   0  0  0  0  0  0  0  0  0  0  0  0
  141.6717   78.1154  218.3001 H   0  0  0  0  0  0  0  0  0  0  0  0
  141.2704   76.5864  217.5680 H   0  0  0  0  0  0  0  0  0  0  0  0
  139.8897   76.6154  219.6703 H   0  0  0  0  0  0  0  0  0  0  0  0
  142.4344   80.7682  221.0080 H   0  0  0  0  0  0  0  0  0  0  0  0
  141.2322   78.1009  224.1167 H   0  0  0  0  0  0  0  0  0  0  0  0
  138.9314   69.6498  222.7396 H   0  0  0  0  0  0  0  0  0  0  0  0
  138.9385   68.3348  224.8369 H   0  0  0  0  0  0  0  0  0  0  0  0
  139.5220   68.2091  227.2358 H   0  0  0  0  0  0  0  0  0  0  0  0
  140.5100   69.2466  229.2667 H   0  0  0  0  0  0  0  0  0  0  0  0
  141.4570   71.5510  229.1455 H   0  0  0  0  0  0  0  0  0  0  0  0
  141.4058   72.7932  226.9762 H   0  0  0  0  0  0  0  0  0  0  0  0
  1  2  2  0
  2  3  1  0
  3  4  1  0
  4  5  1  0
  5  6  2  0
  5  7  1  0
  7  8  1  0
  8  9  1  0
  9 10  1  0
 10 11  1  0
 11 12  1  0
 12 13  2  0
 13 14  1  0
 14 15  2  0
 15 16  1  0
 15 17  1  0
 17 18  2  0
  2 19  1  0
 19 20  2  0
 20 21  1  0
 21 22  2  0
 22 23  1  0
 23 24  2  0
 24 25  1  0
 25 26  2  0
 26 27  1  0
 27 28  2  0
 11  7  1  0
 18 12  1  0
 28 19  1  0
 27 22  1  0
  3 29  1  0
  4 30  1  0
  4 31  1  0
  8 32  1  0
  8 33  1  0
  9 34  1  0
  9 35  1  0
 10 36  1  0
 10 37  1  0
 11 38  1  6
 14 39  1  0
 17 40  1  0
 20 41  1  0
 21 42  1  0
 23 43  1  0
 24 44  1  0
 25 45  1  0
 26 46  1  0
M  END
>  <smiles>  (29) 
O=C(NCC(=O)N1CCC[C@@H]1c1ncc(Cl)cn1)c1ccc2ccccc2n1

>  <score_type>  (29) 
oracle

>  <origin>  (29) 
autodockgpu

>  <m_score__min__energy>  (29) 
-8.7699999999999996

>  <m_primary>  (29) 
energy

>  <rmsd>  (29) 
2.253141348943261

>  <m_score__min__rmsd>  (29) 
2.253141348943261

>  <meeko>  (29) 
{"free_energy": -8.41, "intermolecular_energy": -9.91, "internal_energy": -1.36, "cluster_size": 31, "cluster_id": 1, "rank_in_cluster": 12}

>  <energy>  (29) 
-8.01

>  <cluster_rmsd>  (29) 
1.49

>  <cluster>  (29) 
1

$$$$

     RDKit          3D

 46 49  0  0  0  0  0  0  0  0999 V2000
  137.5380   75.7890  222.4740 O   0  0  0  0  0  0  0  0  0  0  0  0
  138.7890   76.0130  222.4300 C   0  0  0  0  0  0  0  0  0  0  0  0
  139.6230   74.9110  222.1490 N   0  0  0  0  0  0  0  0  0  0  0  0
  138.9800   73.6200  221.9350 C   0  0  0  0  0  0  0  0  0  0  0  0
  139.7470   72.5290  222.5390 C   0  0  0  0  0  0  0  0  0  0  0  0
  141.0120   72.4880  222.5950 O   0  0  0  0  0  0  0  0  0  0  0  0
  139.0520   71.4350  223.1060 N   0  0  0  0  0  0  0  0  0  0  0  0
  137.7740   71.5160  223.8270 C   0  0  0  0  0  0  0  0  0  0  0  0
  137.0610   70.2800  223.3490 C   0  0  0  0  0  0  0  0  0  0  0  0
  138.0910   69.4060  222.6530 C   0  0  0  0  0  0  0  0  0  0  0  0
  139.3890   70.0230  223.1300 C   0  0  2  0  0  0  0  0  0  0  0  0
  139.6870   69.5750  224.5280 C   0  0  0  0  0  0  0  0  0  0  0  0
  140.3940   70.4250  225.2940 N   0  0  0  0  0  0  0  0  0  0  0  0
  140.6960   70.0810  226.5620 C   0  0  0  0  0  0  0  0  0  0  0  0
  140.2870   68.8770  227.0720 C   0  0  0  0  0  0  0  0  0  0  0  0
  140.6900   68.4580  228.7100 Cl  0  0  0  0  0  0  0  0  0  0  0  0
  139.5670   68.0330  226.2590 C   0  0  0  0  0  0  0  0  0  0  0  0
  139.2590   68.3670  224.9900 N   0  0  0  0  0  0  0  0  0  0  0  0
  139.3210   77.3520  222.6600 C   0  0  0  0  0  0  0  0  0  0  0  0
  138.4340   78.4010  222.8160 C   0  0  0  0  0  0  0  0  0  0  0  0
  138.8850   79.6880  223.0370 C   0  0  0  0  0  0  0  0  0  0  0  0
  140.2580   79.9380  223.1040 C   0  0  0  0  0  0  0  0  0  0  0  0
  140.7730   81.1900  223.3200 C   0  0  0  0  0  0  0  0  0  0  0  0
  142.1470   81.4030  223.3820 C   0  0  0  0  0  0  0  0  0  0  0  0
  143.0150   80.3330  223.2220 C   0  0  0  0  0  0  0  0  0  0  0  0
  142.4960   79.0540  223.0010 C   0  0  0  0  0  0  0  0  0  0  0  0
  141.1320   78.8570  222.9420 C   0  0  0  0  0  0  0  0  0  0  0  0
  140.6390   77.6190  222.7290 N   0  0  0  0  0  0  0  0  0  0  0  0
  140.6560   75.0500  222.1030 H   0  0  0  0  0  0  0  0  0  0  0  0
  137.9763   73.6423  222.3846 H   0  0  0  0  0  0  0  0  0  0  0  0
  138.9213   73.4404  220.8514 H   0  0  0  0  0  0  0  0  0  0  0  0
  137.9281   71.4917  224.9159 H   0  0  0  0  0  0  0  0  0  0  0  0
  137.2189   72.4468  223.6388 H   0  0  0  0  0  0  0  0  0  0  0  0
  136.6263   69.7416  224.2041 H   0  0  0  0  0  0  0  0  0  0  0  0
  136.2439   70.5428  222.6610 H   0  0  0  0  0  0  0  0  0  0  0  0
  138.0058   68.3560  222.9697 H   0  0  0  0  0  0  0  0  0  0  0  0
  137.9859   69.3770  221.5584 H   0  0  0  0  0  0  0  0  0  0  0  0
  140.2737   69.7587  222.5321 H   0  0  0  0  0  0  0  0  0  0  0  0
  141.2752   70.7722  227.1919 H   0  0  0  0  0  0  0  0  0  0  0  0
  139.2344   67.0617  226.6540 H   0  0  0  0  0  0  0  0  0  0  0  0
  137.3524   78.2079  222.7633 H   0  0  0  0  0  0  0  0  0  0  0  0
  138.1666   80.5119  223.1596 H   0  0  0  0  0  0  0  0  0  0  0  0
  140.0881   82.0414  223.4466 H   0  0  0  0  0  0  0  0  0  0  0  0
  142.5424   82.4144  223.5569 H   0  0  0  0  0  0  0  0  0  0  0  0
  144.1028   80.4896  223.2686 H   0  0  0  0  0  0  0  0  0  0  0  0
  143.1784   78.2007  222.8736 H   0  0  0  0  0  0  0  0  0  0  0  0
  1  2  2  0
  2  3  1  0
  3  4  1  0
  4  5  1  0
  5  6  2  0
  5  7  1  0
  7  8  1  0
  8  9  1  0
  9 10  1  0
 10 11  1  0
 11 12  1  0
 12 13  2  0
 13 14  1  0
 14 15  2  0
 15 16  1  0
 15 17  1  0
 17 18  2  0
  2 19  1  0
 19 20  2  0
 20 21  1  0
 21 22  2  0
 22 23  1  0
 23 24  2  0
 24 25  1  0
 25 26  2  0
 26 27  1  0
 27 28  2  0
 11  7  1  0
 18 12  1  0
 28 19  1  0
 27 22  1  0
  3 29  1  0
  4 30  1  0
  4 31  1  0
  8 32  1  0
  8 33  1  0
  9 34  1  0
  9 35  1  0
 10 36  1  0
 10 37  1  0
 11 38  1  6
 14 39  1  0
 17 40  1  0
 20 41  1  0
 21 42  1  0
 23 43  1  0
 24 44  1  0
 25 45  1  0
 26 46  1  0
M  END
>  <smiles>  (30) 
O=C(NCC(=O)N1CCC[C@@H]1c1ncc(Cl)cn1)c1ccc2ccccc2n1

>  <score_type>  (30) 
oracle

>  <origin>  (30) 
autodockgpu

>  <m_score__min__energy>  (30) 
-8.7699999999999996

>  <m_primary>  (30) 
energy

>  <rmsd>  (30) 
9.117284099952363

>  <m_score__min__rmsd>  (30) 
9.117284099952363

>  <meeko>  (30) 
{"free_energy": -7.82, "intermolecular_energy": -9.31, "internal_energy": -1.62, "cluster_size": 9, "cluster_id": 2, "rank_in_cluster": 8}

>  <energy>  (30) 
-7.84

>  <cluster_rmsd>  (30) 
1.41

>  <cluster>  (30) 
1

$$$$

     RDKit          3D

 46 49  0  0  0  0  0  0  0  0999 V2000
  140.1780   71.3050  221.2240 O   0  0  0  0  0  0  0  0  0  0  0  0
  139.7620   71.8650  222.2880 C   0  0  0  0  0  0  0  0  0  0  0  0
  139.1770   73.1410  222.1490 N   0  0  0  0  0  0  0  0  0  0  0  0
  139.1020   73.7000  220.8040 C   0  0  0  0  0  0  0  0  0  0  0  0
  139.1430   75.1640  220.8260 C   0  0  0  0  0  0  0  0  0  0  0  0
  138.1250   75.9080  220.9480 O   0  0  0  0  0  0  0  0  0  0  0  0
  140.3930   75.8160  220.7060 N   0  0  0  0  0  0  0  0  0  0  0  0
  141.6820   75.2840  221.1710 C   0  0  0  0  0  0  0  0  0  0  0  0
  142.6170   75.7080  220.0700 C   0  0  0  0  0  0  0  0  0  0  0  0
  141.8780   76.7300  219.2220 C   0  0  0  0  0  0  0  0  0  0  0  0
  140.7240   77.1050  220.1280 C   0  0  2  0  0  0  0  0  0  0  0  0
  141.1920   78.0550  221.1880 C   0  0  0  0  0  0  0  0  0  0  0  0
  141.7430   79.2050  220.7620 N   0  0  0  0  0  0  0  0  0  0  0  0
  142.1850   80.1030  221.6660 C   0  0  0  0  0  0  0  0  0  0  0  0
  142.0750   79.8510  223.0070 C   0  0  0  0  0  0  0  0  0  0  0  0
  142.6530   81.0250  224.1520 Cl  0  0  0  0  0  0  0  0  0  0  0  0
  141.5070   78.6630  223.4050 C   0  0  0  0  0  0  0  0  0  0  0  0
  141.0620   77.7580  222.5100 N   0  0  0  0  0  0  0  0  0  0  0  0
  139.8900   71.2070  223.5840 C   0  0  0  0  0  0  0  0  0  0  0  0
  139.4750   69.8940  223.7050 C   0  0  0  0  0  0  0  0  0  0  0  0
  139.5750   69.2240  224.9090 C   0  0  0  0  0  0  0  0  0  0  0  0
  140.1020   69.8800  226.0240 C   0  0  0  0  0  0  0  0  0  0  0  0
  140.2280   69.2750  227.2470 C   0  0  0  0  0  0  0  0  0  0  0  0
  140.7590   69.9580  228.3380 C   0  0  0  0  0  0  0  0  0  0  0  0
  141.1680   71.2750  228.1890 C   0  0  0  0  0  0  0  0  0  0  0  0
  141.0410   71.8980  226.9440 C   0  0  0  0  0  0  0  0  0  0  0  0
  140.5140   71.2090  225.8720 C   0  0  0  0  0  0  0  0  0  0  0  0
  140.3950   71.8170  224.6730 N   0  0  0  0  0  0  0  0  0  0  0  0
  138.8220   73.6360  222.9940 H   0  0  0  0  0  0  0  0  0  0  0  0
  139.9530   73.3278  220.2147 H   0  0  0  0  0  0  0  0  0  0  0  0
  138.1473   73.3890  220.3547 H   0  0  0  0  0  0  0  0  0  0  0  0
  141.9727   75.7284  222.1343 H   0  0  0  0  0  0  0  0  0  0  0  0
  141.6732   74.1986  221.3492 H   0  0  0  0  0  0  0  0  0  0  0  0
  143.5241   76.1591  220.4987 H   0  0  0  0  0  0  0  0  0  0  0  0
  142.9222   74.8435  219.4622 H   0  0  0  0  0  0  0  0  0  0  0  0
  142.5126   77.6006  218.9999 H   0  0  0  0  0  0  0  0  0  0  0  0
  141.5673   76.3516  218.2370 H   0  0  0  0  0  0  0  0  0  0  0  0
  139.8832   77.6038  219.6238 H   0  0  0  0  0  0  0  0  0  0  0  0
  142.6374   81.0452  221.3231 H   0  0  0  0  0  0  0  0  0  0  0  0
  141.4136   78.4461  224.4793 H   0  0  0  0  0  0  0  0  0  0  0  0
  139.0588   69.3747  222.8292 H   0  0  0  0  0  0  0  0  0  0  0  0
  139.2412   68.1789  224.9893 H   0  0  0  0  0  0  0  0  0  0  0  0
  139.9038   68.2310  227.3691 H   0  0  0  0  0  0  0  0  0  0  0  0
  140.8536   69.4561  229.3123 H   0  0  0  0  0  0  0  0  0  0  0  0
  141.5889   71.8248  229.0437 H   0  0  0  0  0  0  0  0  0  0  0  0
  141.3629   72.9424  226.8189 H   0  0  0  0  0  0  0  0  0  0  0  0
  1  2  2  0
  2  3  1  0
  3  4  1  0
  4  5  1  0
  5  6  2  0
  5  7  1  0
  7  8  1  0
  8  9  1  0
  9 10  1  0
 10 11  1  0
 11 12  1  0
 12 13  2  0
 13 14  1  0
 14 15  2  0
 15 16  1  0
 15 17  1  0
 17 18  2  0
  2 19  1  0
 19 20  2  0
 20 21  1  0
 21 22  2  0
 22 23  1  0
 23 24  2  0
 24 25  1  0
 25 26  2  0
 26 27  1  0
 27 28  2  0
 11  7  1  0
 18 12  1  0
 28 19  1  0
 27 22  1  0
  3 29  1  0
  4 30  1  0
  4 31  1  0
  8 32  1  0
  8 33  1  0
  9 34  1  0
  9 35  1  0
 10 36  1  0
 10 37  1  0
 11 38  1  6
 14 39  1  0
 17 40  1  0
 20 41  1  0
 21 42  1  0
 23 43  1  0
 24 44  1  0
 25 45  1  0
 26 46  1  0
M  END
>  <smiles>  (31) 
O=C(NCC(=O)N1CCC[C@@H]1c1ncc(Cl)cn1)c1ccc2ccccc2n1

>  <score_type>  (31) 
oracle

>  <origin>  (31) 
autodockgpu

>  <m_score__min__energy>  (31) 
-8.7699999999999996

>  <m_primary>  (31) 
energy

>  <rmsd>  (31) 
2.20230578874661

>  <m_score__min__rmsd>  (31) 
2.20230578874661

>  <meeko>  (31) 
{"free_energy": -8.45, "intermolecular_energy": -9.94, "internal_energy": -1.35, "cluster_size": 31, "cluster_id": 1, "rank_in_cluster": 8}

>  <energy>  (31) 
-7.82

>  <cluster_rmsd>  (31) 
1.97

>  <cluster>  (31) 
1

$$$$

     RDKit          3D

 46 49  0  0  0  0  0  0  0  0999 V2000
  138.9010   75.0760  222.2720 O   0  0  0  0  0  0  0  0  0  0  0  0
  140.0380   75.6430  222.2160 C   0  0  0  0  0  0  0  0  0  0  0  0
  141.1300   74.8390  221.8280 N   0  0  0  0  0  0  0  0  0  0  0  0
  140.8590   73.4380  221.5280 C   0  0  0  0  0  0  0  0  0  0  0  0
  142.0460   72.7600  221.0050 C   0  0  0  0  0  0  0  0  0  0  0  0
  142.3270   71.5430  221.2160 O   0  0  0  0  0  0  0  0  0  0  0  0
  142.9580   73.4900  220.2070 N   0  0  0  0  0  0  0  0  0  0  0  0
  144.2660   73.9930  220.6470 C   0  0  0  0  0  0  0  0  0  0  0  0
  145.1240   73.7560  219.4340 C   0  0  0  0  0  0  0  0  0  0  0  0
  144.1890   73.4470  218.2760 C   0  0  0  0  0  0  0  0  0  0  0  0
  142.8570   73.9160  218.8230 C   0  0  2  0  0  0  0  0  0  0  0  0
  142.7650   75.4090  218.7350 C   0  0  0  0  0  0  0  0  0  0  0  0
  143.0220   75.9570  217.5350 N   0  0  0  0  0  0  0  0  0  0  0  0
  142.9570   77.2960  217.3890 C   0  0  0  0  0  0  0  0  0  0  0  0
  142.6300   78.0960  218.4510 C   0  0  0  0  0  0  0  0  0  0  0  0
  142.5520   79.8190  218.2360 Cl  0  0  0  0  0  0  0  0  0  0  0  0
  142.3730   77.5000  219.6640 C   0  0  0  0  0  0  0  0  0  0  0  0
  142.4360   76.1620  219.8210 N   0  0  0  0  0  0  0  0  0  0  0  0
  140.1910   77.0570  222.5390 C   0  0  0  0  0  0  0  0  0  0  0  0
  139.0540   77.8280  222.6970 C   0  0  0  0  0  0  0  0  0  0  0  0
  139.1410   79.1720  223.0040 C   0  0  0  0  0  0  0  0  0  0  0  0
  140.3970   79.7660  223.1580 C   0  0  0  0  0  0  0  0  0  0  0  0
  140.5560   81.0930  223.4620 C   0  0  0  0  0  0  0  0  0  0  0  0
  141.8220   81.6520  223.6090 C   0  0  0  0  0  0  0  0  0  0  0  0
  142.9460   80.8560  223.4450 C   0  0  0  0  0  0  0  0  0  0  0  0
  142.7910   79.5020  223.1350 C   0  0  0  0  0  0  0  0  0  0  0  0
  141.5300   78.9610  222.9920 C   0  0  0  0  0  0  0  0  0  0  0  0
  141.3880   77.6530  222.6930 N   0  0  0  0  0  0  0  0  0  0  0  0
  142.0810   75.2630  221.7680 H   0  0  0  0  0  0  0  0  0  0  0  0
  140.5355   72.9317  222.4494 H   0  0  0  0  0  0  0  0  0  0  0  0
  140.0724   73.3963  220.7602 H   0  0  0  0  0  0  0  0  0  0  0  0
  144.2177   75.0629  220.8981 H   0  0  0  0  0  0  0  0  0  0  0  0
  144.6435   73.5030  221.5566 H   0  0  0  0  0  0  0  0  0  0  0  0
  145.7169   74.6551  219.2102 H   0  0  0  0  0  0  0  0  0  0  0  0
  145.8217   72.9231  219.6057 H   0  0  0  0  0  0  0  0  0  0  0  0
  144.4711   74.0073  217.3724 H   0  0  0  0  0  0  0  0  0  0  0  0
  144.1973   72.3920  217.9648 H   0  0  0  0  0  0  0  0  0  0  0  0
  141.9755   73.5256  218.2933 H   0  0  0  0  0  0  0  0  0  0  0  0
  143.1683   77.7490  216.4092 H   0  0  0  0  0  0  0  0  0  0  0  0
  142.1098   78.1299  220.5265 H   0  0  0  0  0  0  0  0  0  0  0  0
  138.0642   77.3635  222.5763 H   0  0  0  0  0  0  0  0  0  0  0  0
  138.2269   79.7715  223.1266 H   0  0  0  0  0  0  0  0  0  0  0  0
  139.6670   81.7276  223.5921 H   0  0  0  0  0  0  0  0  0  0  0  0
  141.9306   82.7189  223.8538 H   0  0  0  0  0  0  0  0  0  0  0  0
  143.9517   81.2871  223.5581 H   0  0  0  0  0  0  0  0  0  0  0  0
  143.6782   78.8650  223.0045 H   0  0  0  0  0  0  0  0  0  0  0  0
  1  2  2  0
  2  3  1  0
  3  4  1  0
  4  5  1  0
  5  6  2  0
  5  7  1  0
  7  8  1  0
  8  9  1  0
  9 10  1  0
 10 11  1  0
 11 12  1  0
 12 13  2  0
 13 14  1  0
 14 15  2  0
 15 16  1  0
 15 17  1  0
 17 18  2  0
  2 19  1  0
 19 20  2  0
 20 21  1  0
 21 22  2  0
 22 23  1  0
 23 24  2  0
 24 25  1  0
 25 26  2  0
 26 27  1  0
 27 28  2  0
 11  7  1  0
 18 12  1  0
 28 19  1  0
 27 22  1  0
  3 29  1  0
  4 30  1  0
  4 31  1  0
  8 32  1  0
  8 33  1  0
  9 34  1  0
  9 35  1  0
 10 36  1  0
 10 37  1  0
 11 38  1  6
 14 39  1  0
 17 40  1  0
 20 41  1  0
 21 42  1  0
 23 43  1  0
 24 44  1  0
 25 45  1  0
 26 46  1  0
M  END
>  <smiles>  (32) 
O=C(NCC(=O)N1CCC[C@@H]1c1ncc(Cl)cn1)c1ccc2ccccc2n1

>  <score_type>  (32) 
oracle

>  <origin>  (32) 
autodockgpu

>  <m_score__min__energy>  (32) 
-8.7699999999999996

>  <m_primary>  (32) 
energy

>  <rmsd>  (32) 
7.36834968949728

>  <m_score__min__rmsd>  (32) 
7.36834968949728

>  <meeko>  (32) 
{"free_energy": -6.81, "intermolecular_energy": -8.3, "internal_energy": -2.83, "cluster_size": 5, "cluster_id": 5, "rank_in_cluster": 1}

>  <energy>  (32) 
-8.69

>  <cluster_rmsd>  (32) 
0.0

>  <cluster>  (32) 
2

$$$$

     RDKit          3D

 46 49  0  0  0  0  0  0  0  0999 V2000
  140.0180   74.4600  220.0890 O   0  0  0  0  0  0  0  0  0  0  0  0
  139.9860   75.0580  221.2110 C   0  0  0  0  0  0  0  0  0  0  0  0
  139.3110   74.4020  222.2620 N   0  0  0  0  0  0  0  0  0  0  0  0
  138.7150   73.1040  221.9700 C   0  0  0  0  0  0  0  0  0  0  0  0
  139.5150   72.0070  222.5180 C   0  0  0  0  0  0  0  0  0  0  0  0
  140.7750   71.9210  222.4190 O   0  0  0  0  0  0  0  0  0  0  0  0
  138.8610   70.9620  223.2110 N   0  0  0  0  0  0  0  0  0  0  0  0
  137.6820   71.1150  224.0740 C   0  0  0  0  0  0  0  0  0  0  0  0
  136.8790   69.8870  223.7380 C   0  0  0  0  0  0  0  0  0  0  0  0
  137.7920   68.9510  222.9640 C   0  0  0  0  0  0  0  0  0  0  0  0
  139.1560   69.5410  223.2560 C   0  0  2  0  0  0  0  0  0  0  0  0
  139.6060   69.1380  224.6270 C   0  0  0  0  0  0  0  0  0  0  0  0
  140.3890   70.0120  225.2830 N   0  0  0  0  0  0  0  0  0  0  0  0
  140.8290   69.7100  226.5210 C   0  0  0  0  0  0  0  0  0  0  0  0
  140.4820   68.5240  227.1120 C   0  0  0  0  0  0  0  0  0  0  0  0
  141.0610   68.1580  228.7090 Cl  0  0  0  0  0  0  0  0  0  0  0  0
  139.6790   67.6540  226.4100 C   0  0  0  0  0  0  0  0  0  0  0  0
  139.2340   67.9470  225.1720 N   0  0  0  0  0  0  0  0  0  0  0  0
  140.6210   76.3590  221.3890 C   0  0  0  0  0  0  0  0  0  0  0  0
  141.0640   77.0390  220.2690 C   0  0  0  0  0  0  0  0  0  0  0  0
  141.6710   78.2750  220.3810 C   0  0  0  0  0  0  0  0  0  0  0  0
  141.8440   78.8500  221.6430 C   0  0  0  0  0  0  0  0  0  0  0  0
  142.4380   80.0710  221.8240 C   0  0  0  0  0  0  0  0  0  0  0  0
  142.5930   80.6150  223.0960 C   0  0  0  0  0  0  0  0  0  0  0  0
  142.1400   79.9120  224.2030 C   0  0  0  0  0  0  0  0  0  0  0  0
  141.5330   78.6650  224.0230 C   0  0  0  0  0  0  0  0  0  0  0  0
  141.3860   78.1380  222.7570 C   0  0  0  0  0  0  0  0  0  0  0  0
  140.7980   76.9350  222.5930 N   0  0  0  0  0  0  0  0  0  0  0  0
  139.2610   74.8560  223.2000 H   0  0  0  0  0  0  0  0  0  0  0  0
  137.7081   73.0663  222.4113 H   0  0  0  0  0  0  0  0  0  0  0  0
  138.6704   72.9843  220.8774 H   0  0  0  0  0  0  0  0  0  0  0  0
  137.9650   71.1278  225.1369 H   0  0  0  0  0  0  0  0  0  0  0  0
  137.1365   72.0565  223.9127 H   0  0  0  0  0  0  0  0  0  0  0  0
  136.5334   69.3985  224.6610 H   0  0  0  0  0  0  0  0  0  0  0  0
  135.9935   70.1507  223.1411 H   0  0  0  0  0  0  0  0  0  0  0  0
  137.7143   67.9181  223.3344 H   0  0  0  0  0  0  0  0  0  0  0  0
  137.5556   68.8823  221.8919 H   0  0  0  0  0  0  0  0  0  0  0  0
  139.9542   69.2230  222.5692 H   0  0  0  0  0  0  0  0  0  0  0  0
  141.4715   70.4214  227.0606 H   0  0  0  0  0  0  0  0  0  0  0  0
  139.3936   66.6966  226.8704 H   0  0  0  0  0  0  0  0  0  0  0  0
  140.9310   76.5889  219.2741 H   0  0  0  0  0  0  0  0  0  0  0  0
  142.0167   78.8043  219.4808 H   0  0  0  0  0  0  0  0  0  0  0  0
  142.7988   80.6314  220.9489 H   0  0  0  0  0  0  0  0  0  0  0  0
  143.0721   81.5970  223.2227 H   0  0  0  0  0  0  0  0  0  0  0  0
  142.2572   80.3316  225.2130 H   0  0  0  0  0  0  0  0  0  0  0  0
  141.1710   78.1016  224.8956 H   0  0  0  0  0  0  0  0  0  0  0  0
  1  2  2  0
  2  3  1  0
  3  4  1  0
  4  5  1  0
  5  6  2  0
  5  7  1  0
  7  8  1  0
  8  9  1  0
  9 10  1  0
 10 11  1  0
 11 12  1  0
 12 13  2  0
 13 14  1  0
 14 15  2  0
 15 16  1  0
 15 17  1  0
 17 18  2  0
  2 19  1  0
 19 20  2  0
 20 21  1  0
 21 22  2  0
 22 23  1  0
 23 24  2  0
 24 25  1  0
 25 26  2  0
 26 27  1  0
 27 28  2  0
 11  7  1  0
 18 12  1  0
 28 19  1  0
 27 22  1  0
  3 29  1  0
  4 30  1  0
  4 31  1  0
  8 32  1  0
  8 33  1  0
  9 34  1  0
  9 35  1  0
 10 36  1  0
 10 37  1  0
 11 38  1  6
 14 39  1  0
 17 40  1  0
 20 41  1  0
 21 42  1  0
 23 43  1  0
 24 44  1  0
 25 45  1  0
 26 46  1  0
M  END
>  <smiles>  (33) 
O=C(NCC(=O)N1CCC[C@@H]1c1ncc(Cl)cn1)c1ccc2ccccc2n1

>  <score_type>  (33) 
oracle

>  <origin>  (33) 
autodockgpu

>  <m_score__min__energy>  (33) 
-8.7699999999999996

>  <m_primary>  (33) 
energy

>  <rmsd>  (33) 
9.052045210265003

>  <m_score__min__rmsd>  (33) 
9.052045210265003

>  <meeko>  (33) 
{"free_energy": -8.32, "intermolecular_energy": -9.81, "internal_energy": -1.44, "cluster_size": 9, "cluster_id": 2, "rank_in_cluster": 4}

>  <energy>  (33) 
-8.4

>  <cluster_rmsd>  (33) 
0.92

>  <cluster>  (33) 
2

$$$$

     RDKit          3D

 46 49  0  0  0  0  0  0  0  0999 V2000
  138.6880   71.8640  222.0370 O   0  0  0  0  0  0  0  0  0  0  0  0
  139.7730   71.6590  222.6690 C   0  0  0  0  0  0  0  0  0  0  0  0
  140.9250   72.3100  222.1820 N   0  0  0  0  0  0  0  0  0  0  0  0
  140.7700   73.1560  221.0040 C   0  0  0  0  0  0  0  0  0  0  0  0
  140.3170   74.5020  221.3640 C   0  0  0  0  0  0  0  0  0  0  0  0
  139.3520   74.7470  222.1460 O   0  0  0  0  0  0  0  0  0  0  0  0
  140.9870   75.6200  220.8140 N   0  0  0  0  0  0  0  0  0  0  0  0
  142.4070   75.6650  220.4380 C   0  0  0  0  0  0  0  0  0  0  0  0
  142.3750   76.4690  219.1660 C   0  0  0  0  0  0  0  0  0  0  0  0
  140.9990   77.1090  219.0740 C   0  0  0  0  0  0  0  0  0  0  0  0
  140.4870   76.9430  220.4890 C   0  0  2  0  0  0  0  0  0  0  0  0
  141.1070   77.9750  221.3820 C   0  0  0  0  0  0  0  0  0  0  0  0
  141.1160   77.7020  222.6990 N   0  0  0  0  0  0  0  0  0  0  0  0
  141.6580   78.5900  223.5570 C   0  0  0  0  0  0  0  0  0  0  0  0
  142.1980   79.7610  223.0960 C   0  0  0  0  0  0  0  0  0  0  0  0
  142.8910   80.8890  224.2230 Cl  0  0  0  0  0  0  0  0  0  0  0  0
  142.1690   80.0070  221.7420 C   0  0  0  0  0  0  0  0  0  0  0  0
  141.6300   79.1260  220.8760 N   0  0  0  0  0  0  0  0  0  0  0  0
  139.8080   70.7890  223.8400 C   0  0  0  0  0  0  0  0  0  0  0  0
  139.2080   69.5460  223.7610 C   0  0  0  0  0  0  0  0  0  0  0  0
  139.2130   68.6830  224.8390 C   0  0  0  0  0  0  0  0  0  0  0  0
  139.8330   69.0690  226.0310 C   0  0  0  0  0  0  0  0  0  0  0  0
  139.8750   68.2620  227.1380 C   0  0  0  0  0  0  0  0  0  0  0  0
  140.5020   68.6790  228.3090 C   0  0  0  0  0  0  0  0  0  0  0  0
  141.0960   69.9300  228.3610 C   0  0  0  0  0  0  0  0  0  0  0  0
  141.0570   70.7570  227.2350 C   0  0  0  0  0  0  0  0  0  0  0  0
  140.4320   70.3320  226.0810 C   0  0  0  0  0  0  0  0  0  0  0  0
  140.3990   71.1370  224.9980 N   0  0  0  0  0  0  0  0  0  0  0  0
  141.8360   72.1710  222.6690 H   0  0  0  0  0  0  0  0  0  0  0  0
  141.7387   73.2311  220.4882 H   0  0  0  0  0  0  0  0  0  0  0  0
  140.0117   72.7006  220.3500 H   0  0  0  0  0  0  0  0  0  0  0  0
  143.0084   76.1657  221.2111 H   0  0  0  0  0  0  0  0  0  0  0  0
  142.8638   74.6713  220.3204 H   0  0  0  0  0  0  0  0  0  0  0  0
  143.1518   77.2474  219.1924 H   0  0  0  0  0  0  0  0  0  0  0  0
  142.5667   75.8274  218.2933 H   0  0  0  0  0  0  0  0  0  0  0  0
  141.0686   78.1707  218.7949 H   0  0  0  0  0  0  0  0  0  0  0  0
  140.3486   76.6604  218.3087 H   0  0  0  0  0  0  0  0  0  0  0  0
  139.3988   77.0557  220.6031 H   0  0  0  0  0  0  0  0  0  0  0  0
  141.6664   78.3721  224.6352 H   0  0  0  0  0  0  0  0  0  0  0  0
  142.5959   80.9450  221.3575 H   0  0  0  0  0  0  0  0  0  0  0  0
  138.7189   69.2396  222.8246 H   0  0  0  0  0  0  0  0  0  0  0  0
  138.7317   67.6970  224.7602 H   0  0  0  0  0  0  0  0  0  0  0  0
  139.4054   67.2680  227.1006 H   0  0  0  0  0  0  0  0  0  0  0  0
  140.5258   68.0188  229.1885 H   0  0  0  0  0  0  0  0  0  0  0  0
  141.5942   70.2694  229.2811 H   0  0  0  0  0  0  0  0  0  0  0  0
  141.5267   71.7511  227.2691 H   0  0  0  0  0  0  0  0  0  0  0  0
  1  2  2  0
  2  3  1  0
  3  4  1  0
  4  5  1  0
  5  6  2  0
  5  7  1  0
  7  8  1  0
  8  9  1  0
  9 10  1  0
 10 11  1  0
 11 12  1  0
 12 13  2  0
 13 14  1  0
 14 15  2  0
 15 16  1  0
 15 17  1  0
 17 18  2  0
  2 19  1  0
 19 20  2  0
 20 21  1  0
 21 22  2  0
 22 23  1  0
 23 24  2  0
 24 25  1  0
 25 26  2  0
 26 27  1  0
 27 28  2  0
 11  7  1  0
 18 12  1  0
 28 19  1  0
 27 22  1  0
  3 29  1  0
  4 30  1  0
  4 31  1  0
  8 32  1  0
  8 33  1  0
  9 34  1  0
  9 35  1  0
 10 36  1  0
 10 37  1  0
 11 38  1  6
 14 39  1  0
 17 40  1  0
 20 41  1  0
 21 42  1  0
 23 43  1  0
 24 44  1  0
 25 45  1  0
 26 46  1  0
M  END
>  <smiles>  (34) 
O=C(NCC(=O)N1CCC[C@@H]1c1ncc(Cl)cn1)c1ccc2ccccc2n1

>  <score_type>  (34) 
oracle

>  <origin>  (34) 
autodockgpu

>  <m_score__min__energy>  (34) 
-8.7699999999999996

>  <m_primary>  (34) 
energy

>  <rmsd>  (34) 
2.083685796092847

>  <m_score__min__rmsd>  (34) 
2.083685796092847

>  <meeko>  (34) 
{"free_energy": -8.21, "intermolecular_energy": -9.71, "internal_energy": -1.34, "cluster_size": 31, "cluster_id": 1, "rank_in_cluster": 24}

>  <energy>  (34) 
-8.37

>  <cluster_rmsd>  (34) 
0.95

>  <cluster>  (34) 
2

$$$$

     RDKit          3D

 46 49  0  0  0  0  0  0  0  0999 V2000
  141.2120   71.9190  221.5740 O   0  0  0  0  0  0  0  0  0  0  0  0
  140.3100   72.2070  222.4230 C   0  0  0  0  0  0  0  0  0  0  0  0
  139.4510   73.2770  222.0990 N   0  0  0  0  0  0  0  0  0  0  0  0
  139.6720   73.9520  220.8250 C   0  0  0  0  0  0  0  0  0  0  0  0
  140.4610   75.1740  220.9930 C   0  0  0  0  0  0  0  0  0  0  0  0
  141.7230   75.2310  220.8930 O   0  0  0  0  0  0  0  0  0  0  0  0
  139.7940   76.3860  221.2870 N   0  0  0  0  0  0  0  0  0  0  0  0
  139.4490   77.4300  220.3120 C   0  0  0  0  0  0  0  0  0  0  0  0
  138.0870   77.8670  220.7800 C   0  0  0  0  0  0  0  0  0  0  0  0
  137.8840   77.2910  222.1710 C   0  0  0  0  0  0  0  0  0  0  0  0
  139.2970   76.8980  222.5510 C   0  0  2  0  0  0  0  0  0  0  0  0
  140.0700   78.1110  222.9700 C   0  0  0  0  0  0  0  0  0  0  0  0
  141.4090   77.9920  222.9900 N   0  0  0  0  0  0  0  0  0  0  0  0
  142.1640   79.0470  223.3590 C   0  0  0  0  0  0  0  0  0  0  0  0
  141.5760   80.2330  223.7090 C   0  0  0  0  0  0  0  0  0  0  0  0
  142.5710   81.5780  224.1810 Cl  0  0  0  0  0  0  0  0  0  0  0  0
  140.2030   80.3180  223.6780 C   0  0  0  0  0  0  0  0  0  0  0  0
  139.4390   79.2690  223.3110 N   0  0  0  0  0  0  0  0  0  0  0  0
  140.1820   71.4590  223.6690 C   0  0  0  0  0  0  0  0  0  0  0  0
  139.5010   70.2560  223.6530 C   0  0  0  0  0  0  0  0  0  0  0  0
  139.3510   69.5070  224.8040 C   0  0  0  0  0  0  0  0  0  0  0  0
  139.8940   69.9700  226.0060 C   0  0  0  0  0  0  0  0  0  0  0  0
  139.7810   69.2770  227.1830 C   0  0  0  0  0  0  0  0  0  0  0  0
  140.3360   69.7670  228.3620 C   0  0  0  0  0  0  0  0  0  0  0  0
  141.0140   70.9770  228.3510 C   0  0  0  0  0  0  0  0  0  0  0  0
  141.1320   71.6870  227.1530 C   0  0  0  0  0  0  0  0  0  0  0  0
  140.5780   71.1900  225.9920 C   0  0  0  0  0  0  0  0  0  0  0  0
  140.6960   71.8820  224.8390 N   0  0  0  0  0  0  0  0  0  0  0  0
  138.6960   73.5480  222.7650 H   0  0  0  0  0  0  0  0  0  0  0  0
  140.2085   73.2707  220.1482 H   0  0  0  0  0  0  0  0  0  0  0  0
  138.6927   74.2291  220.4076 H   0  0  0  0  0  0  0  0  0  0  0  0
  140.1683   78.2615  220.3472 H   0  0  0  0  0  0  0  0  0  0  0  0
  139.4659   77.0818  219.2687 H   0  0  0  0  0  0  0  0  0  0  0  0
  138.0351   78.9652  220.8155 H   0  0  0  0  0  0  0  0  0  0  0  0
  137.3053   77.5120  220.0924 H   0  0  0  0  0  0  0  0  0  0  0  0
  137.4782   78.0448  222.8617 H   0  0  0  0  0  0  0  0  0  0  0  0
  137.1642   76.4600  222.2091 H   0  0  0  0  0  0  0  0  0  0  0  0
  139.3707   76.1868  223.3869 H   0  0  0  0  0  0  0  0  0  0  0  0
  143.2599   78.9540  223.3789 H   0  0  0  0  0  0  0  0  0  0  0  0
  139.7171   81.2639  223.9592 H   0  0  0  0  0  0  0  0  0  0  0  0
  139.0718   69.8894  222.7088 H   0  0  0  0  0  0  0  0  0  0  0  0
  138.8071   68.5513  224.7748 H   0  0  0  0  0  0  0  0  0  0  0  0
  139.2429   68.3177  227.1963 H   0  0  0  0  0  0  0  0  0  0  0  0
  140.2373   69.1973  229.2978 H   0  0  0  0  0  0  0  0  0  0  0  0
  141.4550   71.3743  229.2771 H   0  0  0  0  0  0  0  0  0  0  0  0
  141.6693   72.6467  227.1361 H   0  0  0  0  0  0  0  0  0  0  0  0
  1  2  2  0
  2  3  1  0
  3  4  1  0
  4  5  1  0
  5  6  2  0
  5  7  1  0
  7  8  1  0
  8  9  1  0
  9 10  1  0
 10 11  1  0
 11 12  1  0
 12 13  2  0
 13 14  1  0
 14 15  2  0
 15 16  1  0
 15 17  1  0
 17 18  2  0
  2 19  1  0
 19 20  2  0
 20 21  1  0
 21 22  2  0
 22 23  1  0
 23 24  2  0
 24 25  1  0
 25 26  2  0
 26 27  1  0
 27 28  2  0
 11  7  1  0
 18 12  1  0
 28 19  1  0
 27 22  1  0
  3 29  1  0
  4 30  1  0
  4 31  1  0
  8 32  1  0
  8 33  1  0
  9 34  1  0
  9 35  1  0
 10 36  1  0
 10 37  1  0
 11 38  1  1
 14 39  1  0
 17 40  1  0
 20 41  1  0
 21 42  1  0
 23 43  1  0
 24 44  1  0
 25 45  1  0
 26 46  1  0
M  END
>  <smiles>  (35) 
O=C(NCC(=O)N1CCC[C@@H]1c1ncc(Cl)cn1)c1ccc2ccccc2n1

>  <score_type>  (35) 
oracle

>  <origin>  (35) 
autodockgpu

>  <m_score__min__energy>  (35) 
-8.7699999999999996

>  <m_primary>  (35) 
energy

>  <rmsd>  (35) 
2.646860290492027

>  <m_score__min__rmsd>  (35) 
2.646860290492027

>  <meeko>  (35) 
{"free_energy": -8.3, "intermolecular_energy": -9.79, "internal_energy": -1.35, "cluster_size": 31, "cluster_id": 1, "rank_in_cluster": 21}

>  <energy>  (35) 
-8.32

>  <cluster_rmsd>  (35) 
0.97

>  <cluster>  (35) 
2

$$$$

     RDKit          3D

 46 49  0  0  0  0  0  0  0  0999 V2000
  138.8380   75.0980  222.2730 O   0  0  0  0  0  0  0  0  0  0  0  0
  139.9870   75.6380  222.2080 C   0  0  0  0  0  0  0  0  0  0  0  0
  141.0610   74.8050  221.8320 N   0  0  0  0  0  0  0  0  0  0  0  0
  140.7580   73.4060  221.5520 C   0  0  0  0  0  0  0  0  0  0  0  0
  141.8370   72.7600  220.8020 C   0  0  0  0  0  0  0  0  0  0  0  0
  141.9600   71.5080  220.6590 O   0  0  0  0  0  0  0  0  0  0  0  0
  142.8220   73.5680  220.1870 N   0  0  0  0  0  0  0  0  0  0  0  0
  144.0280   74.0920  220.8420 C   0  0  0  0  0  0  0  0  0  0  0  0
  145.0640   73.9560  219.7580 C   0  0  0  0  0  0  0  0  0  0  0  0
  144.3240   73.6780  218.4600 C   0  0  0  0  0  0  0  0  0  0  0  0
  142.9070   74.0670  218.8260 C   0  0  2  0  0  0  0  0  0  0  0  0
  142.7620   75.5580  218.8010 C   0  0  0  0  0  0  0  0  0  0  0  0
  143.0880   76.1740  217.6520 N   0  0  0  0  0  0  0  0  0  0  0  0
  142.9810   77.5150  217.5640 C   0  0  0  0  0  0  0  0  0  0  0  0
  142.5420   78.2490  218.6340 C   0  0  0  0  0  0  0  0  0  0  0  0
  142.4120   79.9770  218.4940 Cl  0  0  0  0  0  0  0  0  0  0  0  0
  142.2170   77.5850  219.7940 C   0  0  0  0  0  0  0  0  0  0  0  0
  142.3210   76.2440  219.8920 N   0  0  0  0  0  0  0  0  0  0  0  0
  140.1720   77.0530  222.5110 C   0  0  0  0  0  0  0  0  0  0  0  0
  139.0530   77.8550  222.6420 C   0  0  0  0  0  0  0  0  0  0  0  0
  139.1720   79.2010  222.9290 C   0  0  0  0  0  0  0  0  0  0  0  0
  140.4400   79.7660  223.0880 C   0  0  0  0  0  0  0  0  0  0  0  0
  140.6290   81.0930  223.3730 C   0  0  0  0  0  0  0  0  0  0  0  0
  141.9070   81.6220  223.5260 C   0  0  0  0  0  0  0  0  0  0  0  0
  143.0130   80.7960  223.3880 C   0  0  0  0  0  0  0  0  0  0  0  0
  142.8260   79.4410  223.0980 C   0  0  0  0  0  0  0  0  0  0  0  0
  141.5540   78.9300  222.9490 C   0  0  0  0  0  0  0  0  0  0  0  0
  141.3830   77.6210  222.6690 N   0  0  0  0  0  0  0  0  0  0  0  0
  142.0210   75.2050  221.7650 H   0  0  0  0  0  0  0  0  0  0  0  0
  140.6170   72.8738  222.5043 H   0  0  0  0  0  0  0  0  0  0  0  0
  139.8439   73.3677  220.9413 H   0  0  0  0  0  0  0  0  0  0  0  0
  143.8962   75.1432  221.1380 H   0  0  0  0  0  0  0  0  0  0  0  0
  144.2898   73.5649  221.7713 H   0  0  0  0  0  0  0  0  0  0  0  0
  145.6418   74.8879  219.6701 H   0  0  0  0  0  0  0  0  0  0  0  0
  145.7657   73.1411  219.9892 H   0  0  0  0  0  0  0  0  0  0  0  0
  144.7103   74.2977  217.6374 H   0  0  0  0  0  0  0  0  0  0  0  0
  144.4247   72.6431  218.1011 H   0  0  0  0  0  0  0  0  0  0  0  0
  142.1316   73.6749  218.1515 H   0  0  0  0  0  0  0  0  0  0  0  0
  143.2482   78.0236  216.6259 H   0  0  0  0  0  0  0  0  0  0  0  0
  141.8640   78.1613  220.6620 H   0  0  0  0  0  0  0  0  0  0  0  0
  138.0530   77.4144  222.5157 H   0  0  0  0  0  0  0  0  0  0  0  0
  138.2723   79.8254  223.0319 H   0  0  0  0  0  0  0  0  0  0  0  0
  139.7549   81.7518  223.4828 H   0  0  0  0  0  0  0  0  0  0  0  0
  142.0396   82.6897  223.7552 H   0  0  0  0  0  0  0  0  0  0  0  0
  144.0280   81.2034  223.5057 H   0  0  0  0  0  0  0  0  0  0  0  0
  143.6979   78.7794  222.9882 H   0  0  0  0  0  0  0  0  0  0  0  0
  1  2  2  0
  2  3  1  0
  3  4  1  0
  4  5  1  0
  5  6  2  0
  5  7  1  0
  7  8  1  0
  8  9  1  0
  9 10  1  0
 10 11  1  0
 11 12  1  0
 12 13  2  0
 13 14  1  0
 14 15  2  0
 15 16  1  0
 15 17  1  0
 17 18  2  0
  2 19  1  0
 19 20  2  0
 20 21  1  0
 21 22  2  0
 22 23  1  0
 23 24  2  0
 24 25  1  0
 25 26  2  0
 26 27  1  0
 27 28  2  0
 11  7  1  0
 18 12  1  0
 28 19  1  0
 27 22  1  0
  3 29  1  0
  4 30  1  0
  4 31  1  0
  8 32  1  0
  8 33  1  0
  9 34  1  0
  9 35  1  0
 10 36  1  0
 10 37  1  0
 11 38  1  6
 14 39  1  0
 17 40  1  0
 20 41  1  0
 21 42  1  0
 23 43  1  0
 24 44  1  0
 25 45  1  0
 26 46  1  0
M  END
>  <smiles>  (36) 
O=C(NCC(=O)N1CCC[C@@H]1c1ncc(Cl)cn1)c1ccc2ccccc2n1

>  <score_type>  (36) 
oracle

>  <origin>  (36) 
autodockgpu

>  <m_score__min__energy>  (36) 
-8.7699999999999996

>  <m_primary>  (36) 
energy

>  <rmsd>  (36) 
7.333979756975155

>  <m_score__min__rmsd>  (36) 
7.333979756975155

>  <meeko>  (36) 
{"free_energy": -6.66, "intermolecular_energy": -8.15, "internal_energy": -2.9, "cluster_size": 5, "cluster_id": 5, "rank_in_cluster": 4}

>  <energy>  (36) 
-8.09

>  <cluster_rmsd>  (36) 
1.39

>  <cluster>  (36) 
2

$$$$

     RDKit          3D

 46 49  0  0  0  0  0  0  0  0999 V2000
  140.7480   71.6690  221.8740 O   0  0  0  0  0  0  0  0  0  0  0  0
  139.8290   71.6900  222.7530 C   0  0  0  0  0  0  0  0  0  0  0  0
  138.8060   72.6450  222.5810 N   0  0  0  0  0  0  0  0  0  0  0  0
  138.8920   73.5170  221.4150 C   0  0  0  0  0  0  0  0  0  0  0  0
  139.8500   74.6050  221.6270 C   0  0  0  0  0  0  0  0  0  0  0  0
  141.0650   74.4380  221.9400 O   0  0  0  0  0  0  0  0  0  0  0  0
  139.4120   75.9420  221.4770 N   0  0  0  0  0  0  0  0  0  0  0  0
  139.5470   76.7530  220.2590 C   0  0  0  0  0  0  0  0  0  0  0  0
  138.2420   77.5020  220.2290 C   0  0  0  0  0  0  0  0  0  0  0  0
  137.5910   77.3260  221.5910 C   0  0  0  0  0  0  0  0  0  0  0  0
  138.7520   76.8220  222.4230 C   0  0  2  0  0  0  0  0  0  0  0  0
  139.6480   77.9630  222.7970 C   0  0  0  0  0  0  0  0  0  0  0  0
  140.9660   77.7030  222.8370 N   0  0  0  0  0  0  0  0  0  0  0  0
  141.8270   78.6860  223.1680 C   0  0  0  0  0  0  0  0  0  0  0  0
  141.3680   79.9430  223.4600 C   0  0  0  0  0  0  0  0  0  0  0  0
  142.4990   81.1940  223.8830 Cl  0  0  0  0  0  0  0  0  0  0  0  0
  140.0120   80.1720  223.4090 C   0  0  0  0  0  0  0  0  0  0  0  0
  139.1430   79.1950  223.0800 N   0  0  0  0  0  0  0  0  0  0  0  0
  139.8450   70.7640  223.8810 C   0  0  0  0  0  0  0  0  0  0  0  0
  139.2310   69.5340  223.7380 C   0  0  0  0  0  0  0  0  0  0  0  0
  139.2180   68.6200  224.7740 C   0  0  0  0  0  0  0  0  0  0  0  0
  139.8330   68.9410  225.9870 C   0  0  0  0  0  0  0  0  0  0  0  0
  139.8560   68.0810  227.0550 C   0  0  0  0  0  0  0  0  0  0  0  0
  140.4790   68.4330  228.2490 C   0  0  0  0  0  0  0  0  0  0  0  0
  141.0870   69.6740  228.3660 C   0  0  0  0  0  0  0  0  0  0  0  0
  141.0660   70.5540  227.2800 C   0  0  0  0  0  0  0  0  0  0  0  0
  140.4460   70.1930  226.1030 C   0  0  0  0  0  0  0  0  0  0  0  0
  140.4310   71.0490  225.0590 N   0  0  0  0  0  0  0  0  0  0  0  0
  138.0310   72.6970  223.2770 H   0  0  0  0  0  0  0  0  0  0  0  0
  139.2129   72.9224  220.5470 H   0  0  0  0  0  0  0  0  0  0  0  0
  137.9001   73.9598  221.2416 H   0  0  0  0  0  0  0  0  0  0  0  0
  140.4010   77.4425  220.3317 H   0  0  0  0  0  0  0  0  0  0  0  0
  139.7363   76.1596  219.3523 H   0  0  0  0  0  0  0  0  0  0  0  0
  138.4244   78.5690  220.0336 H   0  0  0  0  0  0  0  0  0  0  0  0
  137.5892   77.1170  219.4317 H   0  0  0  0  0  0  0  0  0  0  0  0
  137.2053   78.2809  221.9776 H   0  0  0  0  0  0  0  0  0  0  0  0
  136.7200   76.6542  221.5863 H   0  0  0  0  0  0  0  0  0  0  0  0
  138.4674   76.3374  223.3686 H   0  0  0  0  0  0  0  0  0  0  0  0
  142.9064   78.4770  223.2039 H   0  0  0  0  0  0  0  0  0  0  0  0
  139.6279   81.1760  223.6422 H   0  0  0  0  0  0  0  0  0  0  0  0
  138.7452   69.2788  222.7847 H   0  0  0  0  0  0  0  0  0  0  0  0
  138.7261   67.6447  224.6446 H   0  0  0  0  0  0  0  0  0  0  0  0
  139.3739   67.0962  226.9666 H   0  0  0  0  0  0  0  0  0  0  0  0
  140.4890   67.7305  229.0954 H   0  0  0  0  0  0  0  0  0  0  0  0
  141.5814   69.9633  229.3051 H   0  0  0  0  0  0  0  0  0  0  0  0
  141.5468   71.5397  227.3652 H   0  0  0  0  0  0  0  0  0  0  0  0
  1  2  2  0
  2  3  1  0
  3  4  1  0
  4  5  1  0
  5  6  2  0
  5  7  1  0
  7  8  1  0
  8  9  1  0
  9 10  1  0
 10 11  1  0
 11 12  1  0
 12 13  2  0
 13 14  1  0
 14 15  2  0
 15 16  1  0
 15 17  1  0
 17 18  2  0
  2 19  1  0
 19 20  2  0
 20 21  1  0
 21 22  2  0
 22 23  1  0
 23 24  2  0
 24 25  1  0
 25 26  2  0
 26 27  1  0
 27 28  2  0
 11  7  1  0
 18 12  1  0
 28 19  1  0
 27 22  1  0
  3 29  1  0
  4 30  1  0
  4 31  1  0
  8 32  1  0
  8 33  1  0
  9 34  1  0
  9 35  1  0
 10 36  1  0
 10 37  1  0
 11 38  1  1
 14 39  1  0
 17 40  1  0
 20 41  1  0
 21 42  1  0
 23 43  1  0
 24 44  1  0
 25 45  1  0
 26 46  1  0
M  END
>  <smiles>  (37) 
O=C(NCC(=O)N1CCC[C@@H]1c1ncc(Cl)cn1)c1ccc2ccccc2n1

>  <score_type>  (37) 
oracle

>  <origin>  (37) 
autodockgpu

>  <m_score__min__energy>  (37) 
-8.7699999999999996

>  <m_primary>  (37) 
energy

>  <rmsd>  (37) 
2.3978375900510036

>  <m_score__min__rmsd>  (37) 
2.3978375900510036

>  <meeko>  (37) 
{"free_energy": -8.58, "intermolecular_energy": -10.07, "internal_energy": -1.25, "cluster_size": 31, "cluster_id": 1, "rank_in_cluster": 5}

>  <energy>  (37) 
-8.04

>  <cluster_rmsd>  (37) 
1.36

>  <cluster>  (37) 
2

$$$$

     RDKit          3D

 46 49  0  0  0  0  0  0  0  0999 V2000
  139.8460   73.6930  222.3960 O   0  0  0  0  0  0  0  0  0  0  0  0
  140.4100   72.5530  222.4100 C   0  0  0  0  0  0  0  0  0  0  0  0
  141.2060   72.2240  221.2930 N   0  0  0  0  0  0  0  0  0  0  0  0
  141.3100   73.2150  220.2280 C   0  0  0  0  0  0  0  0  0  0  0  0
  142.4170   74.1450  220.4650 C   0  0  0  0  0  0  0  0  0  0  0  0
  143.4870   73.8440  221.0720 O   0  0  0  0  0  0  0  0  0  0  0  0
  142.3080   75.4740  219.9930 N   0  0  0  0  0  0  0  0  0  0  0  0
  143.3960   76.2590  219.3930 C   0  0  0  0  0  0  0  0  0  0  0  0
  142.6860   76.9950  218.2890 C   0  0  0  0  0  0  0  0  0  0  0  0
  141.1940   76.8440  218.5340 C   0  0  0  0  0  0  0  0  0  0  0  0
  141.1660   76.3690  219.9720 C   0  0  2  0  0  0  0  0  0  0  0  0
  141.3840   77.5260  220.8980 C   0  0  0  0  0  0  0  0  0  0  0  0
  141.2270   77.2820  222.2110 N   0  0  0  0  0  0  0  0  0  0  0  0
  141.4080   78.2820  223.0980 C   0  0  0  0  0  0  0  0  0  0  0  0
  141.7530   79.5360  222.6700 C   0  0  0  0  0  0  0  0  0  0  0  0
  141.9820   80.8070  223.8340 Cl  0  0  0  0  0  0  0  0  0  0  0  0
  141.9050   79.7480  221.3190 C   0  0  0  0  0  0  0  0  0  0  0  0
  141.7250   78.7560  220.4240 N   0  0  0  0  0  0  0  0  0  0  0  0
  140.2330   71.6400  223.5340 C   0  0  0  0  0  0  0  0  0  0  0  0
  139.5600   70.4510  223.3230 C   0  0  0  0  0  0  0  0  0  0  0  0
  139.3650   69.5500  224.3520 C   0  0  0  0  0  0  0  0  0  0  0  0
  139.8550   69.8420  225.6280 C   0  0  0  0  0  0  0  0  0  0  0  0
  139.6970   68.9940  226.6930 C   0  0  0  0  0  0  0  0  0  0  0  0
  140.1980   69.3160  227.9510 C   0  0  0  0  0  0  0  0  0  0  0  0
  140.8700   70.5160  228.1350 C   0  0  0  0  0  0  0  0  0  0  0  0
  141.0340   71.3850  227.0530 C   0  0  0  0  0  0  0  0  0  0  0  0
  140.5320   71.0530  225.8120 C   0  0  0  0  0  0  0  0  0  0  0  0
  140.6950   71.8970  224.7720 N   0  0  0  0  0  0  0  0  0  0  0  0
  141.6880   71.3000  221.2620 H   0  0  0  0  0  0  0  0  0  0  0  0
  141.4774   72.6964  219.2725 H   0  0  0  0  0  0  0  0  0  0  0  0
  140.3742   73.7925  220.2019 H   0  0  0  0  0  0  0  0  0  0  0  0
  143.8324   76.9578  220.1218 H   0  0  0  0  0  0  0  0  0  0  0  0
  144.2409   75.6474  219.0436 H   0  0  0  0  0  0  0  0  0  0  0  0
  142.9647   78.0590  218.3056 H   0  0  0  0  0  0  0  0  0  0  0  0
  142.9633   76.5859  217.3063 H   0  0  0  0  0  0  0  0  0  0  0  0
  140.6694   77.8039  218.4184 H   0  0  0  0  0  0  0  0  0  0  0  0
  140.6921   76.1647  217.8293 H   0  0  0  0  0  0  0  0  0  0  0  0
  140.2208   75.9026  220.2868 H   0  0  0  0  0  0  0  0  0  0  0  0
  141.2775   78.0886  224.1730 H   0  0  0  0  0  0  0  0  0  0  0  0
  142.1800   80.7510  220.9606 H   0  0  0  0  0  0  0  0  0  0  0  0
  139.1735   70.2186  222.3197 H   0  0  0  0  0  0  0  0  0  0  0  0
  138.8272   68.6082  224.1681 H   0  0  0  0  0  0  0  0  0  0  0  0
  139.1647   68.0419  226.5510 H   0  0  0  0  0  0  0  0  0  0  0  0
  140.0620   68.6232  228.7945 H   0  0  0  0  0  0  0  0  0  0  0  0
  141.2704   70.7811  229.1246 H   0  0  0  0  0  0  0  0  0  0  0  0
  141.5657   72.3379  227.1916 H   0  0  0  0  0  0  0  0  0  0  0  0
  1  2  2  0
  2  3  1  0
  3  4  1  0
  4  5  1  0
  5  6  2  0
  5  7  1  0
  7  8  1  0
  8  9  1  0
  9 10  1  0
 10 11  1  0
 11 12  1  0
 12 13  2  0
 13 14  1  0
 14 15  2  0
 15 16  1  0
 15 17  1  0
 17 18  2  0
  2 19  1  0
 19 20  2  0
 20 21  1  0
 21 22  2  0
 22 23  1  0
 23 24  2  0
 24 25  1  0
 25 26  2  0
 26 27  1  0
 27 28  2  0
 11  7  1  0
 18 12  1  0
 28 19  1  0
 27 22  1  0
  3 29  1  0
  4 30  1  0
  4 31  1  0
  8 32  1  0
  8 33  1  0
  9 34  1  0
  9 35  1  0
 10 36  1  0
 10 37  1  0
 11 38  1  1
 14 39  1  0
 17 40  1  0
 20 41  1  0
 21 42  1  0
 23 43  1  0
 24 44  1  0
 25 45  1  0
 26 46  1  0
M  END
>  <smiles>  (38) 
O=C(NCC(=O)N1CCC[C@@H]1c1ncc(Cl)cn1)c1ccc2ccccc2n1

>  <score_type>  (38) 
oracle

>  <origin>  (38) 
autodockgpu

>  <m_score__min__energy>  (38) 
-8.7699999999999996

>  <m_primary>  (38) 
energy

>  <rmsd>  (38) 
2.3864114827566256

>  <m_score__min__rmsd>  (38) 
2.3864114827566256

>  <meeko>  (38) 
{"free_energy": -8.36, "intermolecular_energy": -9.85, "internal_energy": -1.36, "cluster_size": 31, "cluster_id": 1, "rank_in_cluster": 17}

>  <energy>  (38) 
-8.0

>  <cluster_rmsd>  (38) 
1.45

>  <cluster>  (38) 
2

$$$$

     RDKit          3D

 46 49  0  0  0  0  0  0  0  0999 V2000
  141.0380   72.9410  222.6720 O   0  0  0  0  0  0  0  0  0  0  0  0
  140.0150   72.2020  222.8260 C   0  0  0  0  0  0  0  0  0  0  0  0
  138.9540   72.3870  221.9170 N   0  0  0  0  0  0  0  0  0  0  0  0
  139.1240   73.4050  220.8860 C   0  0  0  0  0  0  0  0  0  0  0  0
  139.2800   74.7400  221.4670 C   0  0  0  0  0  0  0  0  0  0  0  0
  138.5190   75.2280  222.3530 O   0  0  0  0  0  0  0  0  0  0  0  0
  140.3460   75.5590  221.0250 N   0  0  0  0  0  0  0  0  0  0  0  0
  141.7690   75.1940  221.0470 C   0  0  0  0  0  0  0  0  0  0  0  0
  142.2660   75.7740  219.7500 C   0  0  0  0  0  0  0  0  0  0  0  0
  141.1870   76.7100  219.2330 C   0  0  0  0  0  0  0  0  0  0  0  0
  140.3270   76.8980  220.4650 C   0  0  2  0  0  0  0  0  0  0  0  0
  140.9770   77.8710  221.4010 C   0  0  0  0  0  0  0  0  0  0  0  0
  141.5450   78.9540  220.8420 N   0  0  0  0  0  0  0  0  0  0  0  0
  142.1470   79.8680  221.6290 C   0  0  0  0  0  0  0  0  0  0  0  0
  142.1830   79.7000  222.9870 C   0  0  0  0  0  0  0  0  0  0  0  0
  142.9660   80.8930  223.9800 Cl  0  0  0  0  0  0  0  0  0  0  0  0
  141.5920   78.5790  223.5240 C   0  0  0  0  0  0  0  0  0  0  0  0
  140.9870   77.6590  222.7460 N   0  0  0  0  0  0  0  0  0  0  0  0
  139.9560   71.2130  223.8980 C   0  0  0  0  0  0  0  0  0  0  0  0
  139.2920   70.0230  223.6650 C   0  0  0  0  0  0  0  0  0  0  0  0
  139.2070   69.0520  224.6440 C   0  0  0  0  0  0  0  0  0  0  0  0
  139.7980   69.2730  225.8910 C   0  0  0  0  0  0  0  0  0  0  0  0
  139.7500   68.3540  226.9060 C   0  0  0  0  0  0  0  0  0  0  0  0
  140.3510   68.6070  228.1360 C   0  0  0  0  0  0  0  0  0  0  0  0
  141.0100   69.8090  228.3430 C   0  0  0  0  0  0  0  0  0  0  0  0
  141.0620   70.7510  227.3110 C   0  0  0  0  0  0  0  0  0  0  0  0
  140.4620   70.4870  226.0970 C   0  0  0  0  0  0  0  0  0  0  0  0
  140.5170   71.4020  225.1070 N   0  0  0  0  0  0  0  0  0  0  0  0
  138.0950   71.8020  222.0050 H   0  0  0  0  0  0  0  0  0  0  0  0
  140.0195   73.1668  220.2934 H   0  0  0  0  0  0  0  0  0  0  0  0
  138.2238   73.4080  220.2538 H   0  0  0  0  0  0  0  0  0  0  0  0
  142.2832   75.6450  221.9086 H   0  0  0  0  0  0  0  0  0  0  0  0
  141.9461   74.1127  221.1438 H   0  0  0  0  0  0  0  0  0  0  0  0
  143.1989   76.3316  219.9196 H   0  0  0  0  0  0  0  0  0  0  0  0
  142.4738   74.9773  219.0205 H   0  0  0  0  0  0  0  0  0  0  0  0
  141.6140   77.6649  218.8926 H   0  0  0  0  0  0  0  0  0  0  0  0
  140.6395   76.3219  218.3614 H   0  0  0  0  0  0  0  0  0  0  0  0
  139.3190   77.2926  220.2695 H   0  0  0  0  0  0  0  0  0  0  0  0
  142.6129   80.7557  221.1764 H   0  0  0  0  0  0  0  0  0  0  0  0
  141.6138   78.4302  224.6137 H   0  0  0  0  0  0  0  0  0  0  0  0
  138.8243   69.8466  222.6851 H   0  0  0  0  0  0  0  0  0  0  0  0
  138.6767   68.1095  224.4430 H   0  0  0  0  0  0  0  0  0  0  0  0
  139.2274   67.3994  226.7462 H   0  0  0  0  0  0  0  0  0  0  0  0
  140.3032   67.8571  228.9394 H   0  0  0  0  0  0  0  0  0  0  0  0
  141.4880   70.0199  229.3110 H   0  0  0  0  0  0  0  0  0  0  0  0
  141.5836   71.7067  227.4677 H   0  0  0  0  0  0  0  0  0  0  0  0
  1  2  2  0
  2  3  1  0
  3  4  1  0
  4  5  1  0
  5  6  2  0
  5  7  1  0
  7  8  1  0
  8  9  1  0
  9 10  1  0
 10 11  1  0
 11 12  1  0
 12 13  2  0
 13 14  1  0
 14 15  2  0
 15 16  1  0
 15 17  1  0
 17 18  2  0
  2 19  1  0
 19 20  2  0
 20 21  1  0
 21 22  2  0
 22 23  1  0
 23 24  2  0
 24 25  1  0
 25 26  2  0
 26 27  1  0
 27 28  2  0
 11  7  1  0
 18 12  1  0
 28 19  1  0
 27 22  1  0
  3 29  1  0
  4 30  1  0
  4 31  1  0
  8 32  1  0
  8 33  1  0
  9 34  1  0
  9 35  1  0
 10 36  1  0
 10 37  1  0
 11 38  1  6
 14 39  1  0
 17 40  1  0
 20 41  1  0
 21 42  1  0
 23 43  1  0
 24 44  1  0
 25 45  1  0
 26 46  1  0
M  END
>  <smiles>  (39) 
O=C(NCC(=O)N1CCC[C@@H]1c1ncc(Cl)cn1)c1ccc2ccccc2n1

>  <score_type>  (39) 
oracle

>  <origin>  (39) 
autodockgpu

>  <m_score__min__energy>  (39) 
-8.7699999999999996

>  <m_primary>  (39) 
energy

>  <rmsd>  (39) 
2.1999896362248705

>  <m_score__min__rmsd>  (39) 
2.1999896362248705

>  <meeko>  (39) 
{"free_energy": -8.32, "intermolecular_energy": -9.81, "internal_energy": -1.3, "cluster_size": 31, "cluster_id": 1, "rank_in_cluster": 19}

>  <energy>  (39) 
-7.82

>  <cluster_rmsd>  (39) 
0.99

>  <cluster>  (39) 
2

$$$$

     RDKit          3D

 46 49  0  0  0  0  0  0  0  0999 V2000
  139.8160   73.6770  222.6360 O   0  0  0  0  0  0  0  0  0  0  0  0
  140.3650   72.5300  222.6100 C   0  0  0  0  0  0  0  0  0  0  0  0
  141.0970   72.2020  221.4500 N   0  0  0  0  0  0  0  0  0  0  0  0
  141.1580   73.2020  220.3900 C   0  0  0  0  0  0  0  0  0  0  0  0
  142.3950   73.9830  220.4580 C   0  0  0  0  0  0  0  0  0  0  0  0
  143.5050   73.5330  220.8690 O   0  0  0  0  0  0  0  0  0  0  0  0
  142.3740   75.3350  220.0430 N   0  0  0  0  0  0  0  0  0  0  0  0
  143.5440   76.1160  219.6170 C   0  0  0  0  0  0  0  0  0  0  0  0
  142.9900   76.9230  218.4740 C   0  0  0  0  0  0  0  0  0  0  0  0
  141.4750   76.8030  218.5320 C   0  0  0  0  0  0  0  0  0  0  0  0
  141.2630   76.2630  219.9300 C   0  0  2  0  0  0  0  0  0  0  0  0
  141.3950   77.3690  220.9330 C   0  0  0  0  0  0  0  0  0  0  0  0
  141.7470   78.5750  220.4530 N   0  0  0  0  0  0  0  0  0  0  0  0
  141.8830   79.6130  221.3030 C   0  0  0  0  0  0  0  0  0  0  0  0
  141.6650   79.4460  222.6450 C   0  0  0  0  0  0  0  0  0  0  0  0
  141.8480   80.8000  223.7190 Cl  0  0  0  0  0  0  0  0  0  0  0  0
  141.3080   78.1970  223.0990 C   0  0  0  0  0  0  0  0  0  0  0  0
  141.1680   77.1530  222.2580 N   0  0  0  0  0  0  0  0  0  0  0  0
  140.2360   71.6090  223.7340 C   0  0  0  0  0  0  0  0  0  0  0  0
  139.6170   70.3900  223.5240 C   0  0  0  0  0  0  0  0  0  0  0  0
  139.4690   69.4800  224.5530 C   0  0  0  0  0  0  0  0  0  0  0  0
  139.9500   69.7930  225.8270 C   0  0  0  0  0  0  0  0  0  0  0  0
  139.8360   68.9370  226.8920 C   0  0  0  0  0  0  0  0  0  0  0  0
  140.3280   69.2810  228.1480 C   0  0  0  0  0  0  0  0  0  0  0  0
  140.9450   70.5100  228.3310 C   0  0  0  0  0  0  0  0  0  0  0  0
  141.0640   71.3870  227.2490 C   0  0  0  0  0  0  0  0  0  0  0  0
  140.5720   71.0330  226.0090 C   0  0  0  0  0  0  0  0  0  0  0  0
  140.6910   71.8850  224.9700 N   0  0  0  0  0  0  0  0  0  0  0  0
  141.5640   71.2720  221.3860 H   0  0  0  0  0  0  0  0  0  0  0  0
  141.1098   72.6934  219.4158 H   0  0  0  0  0  0  0  0  0  0  0  0
  140.3088   73.8898  220.5158 H   0  0  0  0  0  0  0  0  0  0  0  0
  143.9049   76.7672  220.4267 H   0  0  0  0  0  0  0  0  0  0  0  0
  144.4106   75.4973  219.3409 H   0  0  0  0  0  0  0  0  0  0  0  0
  143.2889   77.9766  218.5767 H   0  0  0  0  0  0  0  0  0  0  0  0
  143.3746   76.5531  217.5121 H   0  0  0  0  0  0  0  0  0  0  0  0
  140.9900   77.7818  218.4024 H   0  0  0  0  0  0  0  0  0  0  0  0
  141.0465   76.1715  217.7398 H   0  0  0  0  0  0  0  0  0  0  0  0
  140.2759   75.8103  220.1055 H   0  0  0  0  0  0  0  0  0  0  0  0
  142.1712   80.6014  220.9157 H   0  0  0  0  0  0  0  0  0  0  0  0
  141.1326   78.0469  224.1745 H   0  0  0  0  0  0  0  0  0  0  0  0
  139.2367   70.1412  222.5223 H   0  0  0  0  0  0  0  0  0  0  0  0
  138.9751   68.5142  224.3703 H   0  0  0  0  0  0  0  0  0  0  0  0
  139.3473   67.9616  226.7515 H   0  0  0  0  0  0  0  0  0  0  0  0
  140.2280   68.5818  228.9912 H   0  0  0  0  0  0  0  0  0  0  0  0
  141.3373   70.7920  229.3192 H   0  0  0  0  0  0  0  0  0  0  0  0
  141.5518   72.3633  227.3864 H   0  0  0  0  0  0  0  0  0  0  0  0
  1  2  2  0
  2  3  1  0
  3  4  1  0
  4  5  1  0
  5  6  2  0
  5  7  1  0
  7  8  1  0
  8  9  1  0
  9 10  1  0
 10 11  1  0
 11 12  1  0
 12 13  2  0
 13 14  1  0
 14 15  2  0
 15 16  1  0
 15 17  1  0
 17 18  2  0
  2 19  1  0
 19 20  2  0
 20 21  1  0
 21 22  2  0
 22 23  1  0
 23 24  2  0
 24 25  1  0
 25 26  2  0
 26 27  1  0
 27 28  2  0
 11  7  1  0
 18 12  1  0
 28 19  1  0
 27 22  1  0
  3 29  1  0
  4 30  1  0
  4 31  1  0
  8 32  1  0
  8 33  1  0
  9 34  1  0
  9 35  1  0
 10 36  1  0
 10 37  1  0
 11 38  1  6
 14 39  1  0
 17 40  1  0
 20 41  1  0
 21 42  1  0
 23 43  1  0
 24 44  1  0
 25 45  1  0
 26 46  1  0
M  END
>  <smiles>  (40) 
O=C(NCC(=O)N1CCC[C@@H]1c1ncc(Cl)cn1)c1ccc2ccccc2n1

>  <score_type>  (40) 
oracle

>  <origin>  (40) 
autodockgpu

>  <m_score__min__energy>  (40) 
-8.7699999999999996

>  <m_primary>  (40) 
energy

>  <rmsd>  (40) 
2.616810562131178

>  <m_score__min__rmsd>  (40) 
2.616810562131178

>  <meeko>  (40) 
{"free_energy": -8.47, "intermolecular_energy": -9.96, "internal_energy": -1.32, "cluster_size": 31, "cluster_id": 1, "rank_in_cluster": 7}

>  <energy>  (40) 
-7.82

>  <cluster_rmsd>  (40) 
0.98

>  <cluster>  (40) 
2

$$$$

     RDKit          3D

 46 49  0  0  0  0  0  0  0  0999 V2000
  138.9720   74.9890  222.0650 O   0  0  0  0  0  0  0  0  0  0  0  0
  140.1160   75.5410  222.0110 C   0  0  0  0  0  0  0  0  0  0  0  0
  141.2220   74.6920  221.7990 N   0  0  0  0  0  0  0  0  0  0  0  0
  140.9550   73.2650  221.6610 C   0  0  0  0  0  0  0  0  0  0  0  0
  141.9930   72.5960  220.8730 C   0  0  0  0  0  0  0  0  0  0  0  0
  142.0870   71.3410  220.7310 O   0  0  0  0  0  0  0  0  0  0  0  0
  142.9680   73.3830  220.2160 N   0  0  0  0  0  0  0  0  0  0  0  0
  144.1840   73.9280  220.8340 C   0  0  0  0  0  0  0  0  0  0  0  0
  145.2030   73.7560  219.7400 C   0  0  0  0  0  0  0  0  0  0  0  0
  144.4420   73.4370  218.4630 C   0  0  0  0  0  0  0  0  0  0  0  0
  143.0300   73.8390  218.8390 C   0  0  2  0  0  0  0  0  0  0  0  0
  142.8850   75.3280  218.7690 C   0  0  0  0  0  0  0  0  0  0  0  0
  143.0920   75.8960  217.5680 N   0  0  0  0  0  0  0  0  0  0  0  0
  142.9780   77.2330  217.4370 C   0  0  0  0  0  0  0  0  0  0  0  0
  142.6520   78.0110  218.5150 C   0  0  0  0  0  0  0  0  0  0  0  0
  142.5100   79.7330  218.3200 Cl  0  0  0  0  0  0  0  0  0  0  0  0
  142.4480   77.3960  219.7290 C   0  0  0  0  0  0  0  0  0  0  0  0
  142.5600   76.0600  219.8700 N   0  0  0  0  0  0  0  0  0  0  0  0
  140.2640   76.9850  222.1620 C   0  0  0  0  0  0  0  0  0  0  0  0
  139.2470   77.8060  221.7110 C   0  0  0  0  0  0  0  0  0  0  0  0
  139.3350   79.1790  221.8300 C   0  0  0  0  0  0  0  0  0  0  0  0
  140.4680   79.7510  222.4150 C   0  0  0  0  0  0  0  0  0  0  0  0
  140.6200   81.1060  222.5640 C   0  0  0  0  0  0  0  0  0  0  0  0
  141.7620   81.6420  223.1520 C   0  0  0  0  0  0  0  0  0  0  0  0
  142.7670   80.7950  223.5960 C   0  0  0  0  0  0  0  0  0  0  0  0
  142.6170   79.4140  223.4470 C   0  0  0  0  0  0  0  0  0  0  0  0
  141.4810   78.8960  222.8620 C   0  0  0  0  0  0  0  0  0  0  0  0
  141.3440   77.5600  222.7220 N   0  0  0  0  0  0  0  0  0  0  0  0
  142.1800   75.1010  221.7470 H   0  0  0  0  0  0  0  0  0  0  0  0
  140.9180   72.8103  222.6619 H   0  0  0  0  0  0  0  0  0  0  0  0
  139.9946   73.1436  221.1386 H   0  0  0  0  0  0  0  0  0  0  0  0
  144.0566   74.9885  221.0968 H   0  0  0  0  0  0  0  0  0  0  0  0
  144.4603   73.4317  221.7760 H   0  0  0  0  0  0  0  0  0  0  0  0
  145.7800   74.6839  219.6131 H   0  0  0  0  0  0  0  0  0  0  0  0
  145.9081   72.9485  219.9865 H   0  0  0  0  0  0  0  0  0  0  0  0
  144.8154   74.0297  217.6149 H   0  0  0  0  0  0  0  0  0  0  0  0
  144.5366   72.3910  218.1359 H   0  0  0  0  0  0  0  0  0  0  0  0
  142.2433   73.4270  218.1899 H   0  0  0  0  0  0  0  0  0  0  0  0
  143.1482   77.7020  216.4567 H   0  0  0  0  0  0  0  0  0  0  0  0
  142.1875   78.0087  220.6046 H   0  0  0  0  0  0  0  0  0  0  0  0
  138.3540   77.3586  221.2503 H   0  0  0  0  0  0  0  0  0  0  0  0
  138.5177   79.8190  221.4663 H   0  0  0  0  0  0  0  0  0  0  0  0
  139.8255   81.7808  222.2127 H   0  0  0  0  0  0  0  0  0  0  0  0
  141.8671   82.7312  223.2640 H   0  0  0  0  0  0  0  0  0  0  0  0
  143.6744   81.2073  224.0615 H   0  0  0  0  0  0  0  0  0  0  0  0
  143.4092   78.7365  223.7982 H   0  0  0  0  0  0  0  0  0  0  0  0
  1  2  2  0
  2  3  1  0
  3  4  1  0
  4  5  1  0
  5  6  2  0
  5  7  1  0
  7  8  1  0
  8  9  1  0
  9 10  1  0
 10 11  1  0
 11 12  1  0
 12 13  2  0
 13 14  1  0
 14 15  2  0
 15 16  1  0
 15 17  1  0
 17 18  2  0
  2 19  1  0
 19 20  2  0
 20 21  1  0
 21 22  2  0
 22 23  1  0
 23 24  2  0
 24 25  1  0
 25 26  2  0
 26 27  1  0
 27 28  2  0
 11  7  1  0
 18 12  1  0
 28 19  1  0
 27 22  1  0
  3 29  1  0
  4 30  1  0
  4 31  1  0
  8 32  1  0
  8 33  1  0
  9 34  1  0
  9 35  1  0
 10 36  1  0
 10 37  1  0
 11 38  1  6
 14 39  1  0
 17 40  1  0
 20 41  1  0
 21 42  1  0
 23 43  1  0
 24 44  1  0
 25 45  1  0
 26 46  1  0
M  END
>  <smiles>  (41) 
O=C(NCC(=O)N1CCC[C@@H]1c1ncc(Cl)cn1)c1ccc2ccccc2n1

>  <score_type>  (41) 
oracle

>  <origin>  (41) 
autodockgpu

>  <m_score__min__energy>  (41) 
-8.7699999999999996

>  <m_primary>  (41) 
energy

>  <rmsd>  (41) 
7.4251309893900945

>  <m_score__min__rmsd>  (41) 
7.4251309893900945

>  <meeko>  (41) 
{"free_energy": -6.58, "intermolecular_energy": -8.07, "internal_energy": -2.9, "cluster_size": 5, "cluster_id": 5, "rank_in_cluster": 5}

>  <energy>  (41) 
-7.86

>  <cluster_rmsd>  (41) 
0.0

>  <cluster>  (41) 
3

$$$$

     RDKit          3D

 46 49  0  0  0  0  0  0  0  0999 V2000
  140.2120   74.3890  220.1630 O   0  0  0  0  0  0  0  0  0  0  0  0
  140.0660   75.0440  221.2430 C   0  0  0  0  0  0  0  0  0  0  0  0
  139.3000   74.4340  222.2580 N   0  0  0  0  0  0  0  0  0  0  0  0
  138.7470   73.1140  221.9780 C   0  0  0  0  0  0  0  0  0  0  0  0
  139.5520   72.0530  222.5860 C   0  0  0  0  0  0  0  0  0  0  0  0
  140.8180   72.0120  222.5640 O   0  0  0  0  0  0  0  0  0  0  0  0
  138.8960   70.9890  223.2500 N   0  0  0  0  0  0  0  0  0  0  0  0
  137.6950   71.1160  224.0860 C   0  0  0  0  0  0  0  0  0  0  0  0
  136.9170   69.8820  223.7170 C   0  0  0  0  0  0  0  0  0  0  0  0
  137.8620   68.9680  222.9530 C   0  0  0  0  0  0  0  0  0  0  0  0
  139.2100   69.5730  223.2850 C   0  0  2  0  0  0  0  0  0  0  0  0
  139.6320   69.1590  224.6620 C   0  0  0  0  0  0  0  0  0  0  0  0
  140.4350   70.0090  225.3250 N   0  0  0  0  0  0  0  0  0  0  0  0
  140.8520   69.6960  226.5680 C   0  0  0  0  0  0  0  0  0  0  0  0
  140.4620   68.5220  227.1560 C   0  0  0  0  0  0  0  0  0  0  0  0
  141.0130   68.1420  228.7600 Cl  0  0  0  0  0  0  0  0  0  0  0  0
  139.6400   67.6760  226.4470 C   0  0  0  0  0  0  0  0  0  0  0  0
  139.2180   67.9800  225.2040 N   0  0  0  0  0  0  0  0  0  0  0  0
  140.6680   76.3620  221.4120 C   0  0  0  0  0  0  0  0  0  0  0  0
  141.0720   77.0550  220.2860 C   0  0  0  0  0  0  0  0  0  0  0  0
  141.6480   78.3070  220.3880 C   0  0  0  0  0  0  0  0  0  0  0  0
  141.8270   78.8850  221.6480 C   0  0  0  0  0  0  0  0  0  0  0  0
  142.3910   80.1220  221.8210 C   0  0  0  0  0  0  0  0  0  0  0  0
  142.5540   80.6680  223.0920 C   0  0  0  0  0  0  0  0  0  0  0  0
  142.1400   79.9510  224.2040 C   0  0  0  0  0  0  0  0  0  0  0  0
  141.5640   78.6890  224.0340 C   0  0  0  0  0  0  0  0  0  0  0  0
  141.4090   78.1600  222.7700 C   0  0  0  0  0  0  0  0  0  0  0  0
  140.8510   76.9410  222.6130 N   0  0  0  0  0  0  0  0  0  0  0  0
  139.1540   74.9340  223.1610 H   0  0  0  0  0  0  0  0  0  0  0  0
  137.7248   73.0622  222.3811 H   0  0  0  0  0  0  0  0  0  0  0  0
  138.7472   72.9647  220.8882 H   0  0  0  0  0  0  0  0  0  0  0  0
  137.9524   71.1199  225.1555 H   0  0  0  0  0  0  0  0  0  0  0  0
  137.1408   72.0520  223.9224 H   0  0  0  0  0  0  0  0  0  0  0  0
  136.5569   69.3775  224.6257 H   0  0  0  0  0  0  0  0  0  0  0  0
  136.0417   70.1407  223.1031 H   0  0  0  0  0  0  0  0  0  0  0  0
  137.7901   67.9295  223.3085 H   0  0  0  0  0  0  0  0  0  0  0  0
  137.6522   68.9097  221.8748 H   0  0  0  0  0  0  0  0  0  0  0  0
  140.0292   69.2749  222.6142 H   0  0  0  0  0  0  0  0  0  0  0  0
  141.5100   70.3881  227.1139 H   0  0  0  0  0  0  0  0  0  0  0  0
  139.3199   66.7290  226.9060 H   0  0  0  0  0  0  0  0  0  0  0  0
  140.9327   76.6026  219.2931 H   0  0  0  0  0  0  0  0  0  0  0  0
  141.9639   78.8458  219.4825 H   0  0  0  0  0  0  0  0  0  0  0  0
  142.7207   80.6936  220.9409 H   0  0  0  0  0  0  0  0  0  0  0  0
  143.0086   81.6624  223.2127 H   0  0  0  0  0  0  0  0  0  0  0  0
  142.2639   80.3722  225.2126 H   0  0  0  0  0  0  0  0  0  0  0  0
  141.2329   78.1153  224.9122 H   0  0  0  0  0  0  0  0  0  0  0  0
  1  2  2  0
  2  3  1  0
  3  4  1  0
  4  5  1  0
  5  6  2  0
  5  7  1  0
  7  8  1  0
  8  9  1  0
  9 10  1  0
 10 11  1  0
 11 12  1  0
 12 13  2  0
 13 14  1  0
 14 15  2  0
 15 16  1  0
 15 17  1  0
 17 18  2  0
  2 19  1  0
 19 20  2  0
 20 21  1  0
 21 22  2  0
 22 23  1  0
 23 24  2  0
 24 25  1  0
 25 26  2  0
 26 27  1  0
 27 28  2  0
 11  7  1  0
 18 12  1  0
 28 19  1  0
 27 22  1  0
  3 29  1  0
  4 30  1  0
  4 31  1  0
  8 32  1  0
  8 33  1  0
  9 34  1  0
  9 35  1  0
 10 36  1  0
 10 37  1  0
 11 38  1  6
 14 39  1  0
 17 40  1  0
 20 41  1  0
 21 42  1  0
 23 43  1  0
 24 44  1  0
 25 45  1  0
 26 46  1  0
M  END
>  <smiles>  (42) 
O=C(NCC(=O)N1CCC[C@@H]1c1ncc(Cl)cn1)c1ccc2ccccc2n1

>  <score_type>  (42) 
oracle

>  <origin>  (42) 
autodockgpu

>  <m_score__min__energy>  (42) 
-8.7699999999999996

>  <m_primary>  (42) 
energy

>  <rmsd>  (42) 
9.058829710092352

>  <m_score__min__rmsd>  (42) 
9.058829710092352

>  <meeko>  (42) 
{"free_energy": -8.37, "intermolecular_energy": -9.86, "internal_energy": -1.44, "cluster_size": 9, "cluster_id": 2, "rank_in_cluster": 3}

>  <energy>  (42) 
-7.81

>  <cluster_rmsd>  (42) 
0.44

>  <cluster>  (42) 
3

$$$$

     RDKit          3D

 46 49  0  0  0  0  0  0  0  0999 V2000
  140.8910   72.8250  222.4120 O   0  0  0  0  0  0  0  0  0  0  0  0
  139.8210   72.3260  222.8850 C   0  0  0  0  0  0  0  0  0  0  0  0
  138.6060   72.8030  222.3510 N   0  0  0  0  0  0  0  0  0  0  0  0
  138.6860   73.8200  221.3090 C   0  0  0  0  0  0  0  0  0  0  0  0
  138.9360   75.1480  221.8710 C   0  0  0  0  0  0  0  0  0  0  0  0
  138.2030   75.7080  222.7390 O   0  0  0  0  0  0  0  0  0  0  0  0
  140.0660   75.8770  221.4310 N   0  0  0  0  0  0  0  0  0  0  0  0
  141.4620   75.4310  221.5340 C   0  0  0  0  0  0  0  0  0  0  0  0
  142.0450   75.9050  220.2290 C   0  0  0  0  0  0  0  0  0  0  0  0
  141.0460   76.8710  219.6150 C   0  0  0  0  0  0  0  0  0  0  0  0
  140.1510   77.1800  220.7970 C   0  0  2  0  0  0  0  0  0  0  0  0
  140.8210   78.1660  221.7040 C   0  0  0  0  0  0  0  0  0  0  0  0
  141.5630   79.1180  221.1120 N   0  0  0  0  0  0  0  0  0  0  0  0
  142.1940   80.0360  221.8730 C   0  0  0  0  0  0  0  0  0  0  0  0
  142.0810   80.0040  223.2370 C   0  0  0  0  0  0  0  0  0  0  0  0
  142.9040   81.1990  224.1940 Cl  0  0  0  0  0  0  0  0  0  0  0  0
  141.3140   79.0140  223.8070 C   0  0  0  0  0  0  0  0  0  0  0  0
  140.6800   78.0920  223.0560 N   0  0  0  0  0  0  0  0  0  0  0  0
  139.8640   71.3090  223.9310 C   0  0  0  0  0  0  0  0  0  0  0  0
  139.3270   70.0620  223.6650 C   0  0  0  0  0  0  0  0  0  0  0  0
  139.3420   69.0630  224.6190 C   0  0  0  0  0  0  0  0  0  0  0  0
  139.9050   69.3120  225.8730 C   0  0  0  0  0  0  0  0  0  0  0  0
  139.9520   68.3670  226.8650 C   0  0  0  0  0  0  0  0  0  0  0  0
  140.5220   68.6490  228.1030 C   0  0  0  0  0  0  0  0  0  0  0  0
  141.0530   69.9080  228.3430 C   0  0  0  0  0  0  0  0  0  0  0  0
  141.0080   70.8760  227.3360 C   0  0  0  0  0  0  0  0  0  0  0  0
  140.4400   70.5830  226.1130 C   0  0  0  0  0  0  0  0  0  0  0  0
  140.4010   71.5230  225.1460 N   0  0  0  0  0  0  0  0  0  0  0  0
  137.7050   72.4210  222.7090 H   0  0  0  0  0  0  0  0  0  0  0  0
  139.5054   73.5632  220.6216 H   0  0  0  0  0  0  0  0  0  0  0  0
  137.7225   73.8463  220.7789 H   0  0  0  0  0  0  0  0  0  0  0  0
  141.9683   75.8999  222.3906 H   0  0  0  0  0  0  0  0  0  0  0  0
  141.5686   74.3485  221.6977 H   0  0  0  0  0  0  0  0  0  0  0  0
  143.0026   76.4161  220.4076 H   0  0  0  0  0  0  0  0  0  0  0  0
  142.2331   75.0567  219.5544 H   0  0  0  0  0  0  0  0  0  0  0  0
  141.5433   77.7780  219.2408 H   0  0  0  0  0  0  0  0  0  0  0  0
  140.5107   76.4657  218.7437 H   0  0  0  0  0  0  0  0  0  0  0  0
  139.1773   77.6207  220.5368 H   0  0  0  0  0  0  0  0  0  0  0  0
  142.8039   80.8161  221.3940 H   0  0  0  0  0  0  0  0  0  0  0  0
  141.2160   78.9742  224.9019 H   0  0  0  0  0  0  0  0  0  0  0  0
  138.8815   69.8631  222.6791 H   0  0  0  0  0  0  0  0  0  0  0  0
  138.9126   68.0760  224.3923 H   0  0  0  0  0  0  0  0  0  0  0  0
  139.5315   67.3677  226.6792 H   0  0  0  0  0  0  0  0  0  0  0  0
  140.5513   67.8778  228.8869 H   0  0  0  0  0  0  0  0  0  0  0  0
  141.5057   70.1424  229.3178 H   0  0  0  0  0  0  0  0  0  0  0  0
  141.4274   71.8763  227.5192 H   0  0  0  0  0  0  0  0  0  0  0  0
  1  2  2  0
  2  3  1  0
  3  4  1  0
  4  5  1  0
  5  6  2  0
  5  7  1  0
  7  8  1  0
  8  9  1  0
  9 10  1  0
 10 11  1  0
 11 12  1  0
 12 13  2  0
 13 14  1  0
 14 15  2  0
 15 16  1  0
 15 17  1  0
 17 18  2  0
  2 19  1  0
 19 20  2  0
 20 21  1  0
 21 22  2  0
 22 23  1  0
 23 24  2  0
 24 25  1  0
 25 26  2  0
 26 27  1  0
 27 28  2  0
 11  7  1  0
 18 12  1  0
 28 19  1  0
 27 22  1  0
  3 29  1  0
  4 30  1  0
  4 31  1  0
  8 32  1  0
  8 33  1  0
  9 34  1  0
  9 35  1  0
 10 36  1  0
 10 37  1  0
 11 38  1  6
 14 39  1  0
 17 40  1  0
 20 41  1  0
 21 42  1  0
 23 43  1  0
 24 44  1  0
 25 45  1  0
 26 46  1  0
M  END
>  <smiles>  (43) 
O=C(NCC(=O)N1CCC[C@@H]1c1ncc(Cl)cn1)c1ccc2ccccc2n1

>  <score_type>  (43) 
oracle

>  <origin>  (43) 
autodockgpu

>  <m_score__min__energy>  (43) 
-8.7699999999999996

>  <m_primary>  (43) 
energy

>  <rmsd>  (43) 
2.249181172051857

>  <m_score__min__rmsd>  (43) 
2.249181172051857

>  <meeko>  (43) 
{"free_energy": -8.35, "intermolecular_energy": -9.84, "internal_energy": -1.36, "cluster_size": 31, "cluster_id": 1, "rank_in_cluster": 18}

>  <energy>  (43) 
-7.41

>  <cluster_rmsd>  (43) 
1.99

>  <cluster>  (43) 
3

$$$$

     RDKit          3D

 46 49  0  0  0  0  0  0  0  0999 V2000
  140.6520   71.5930  221.2980 O   0  0  0  0  0  0  0  0  0  0  0  0
  140.2450   72.1510  222.3660 C   0  0  0  0  0  0  0  0  0  0  0  0
  139.8780   73.5100  222.2740 N   0  0  0  0  0  0  0  0  0  0  0  0
  139.9970   74.1490  220.9680 C   0  0  0  0  0  0  0  0  0  0  0  0
  141.3850   74.5060  220.6680 C   0  0  0  0  0  0  0  0  0  0  0  0
  142.3590   73.6990  220.7190 O   0  0  0  0  0  0  0  0  0  0  0  0
  141.6840   75.8370  220.2930 N   0  0  0  0  0  0  0  0  0  0  0  0
  142.9970   76.3250  219.8490 C   0  0  0  0  0  0  0  0  0  0  0  0
  142.6260   77.2840  218.7500 C   0  0  0  0  0  0  0  0  0  0  0  0
  141.1310   77.5340  218.8580 C   0  0  0  0  0  0  0  0  0  0  0  0
  140.8310   77.0110  220.2470 C   0  0  2  0  0  0  0  0  0  0  0  0
  141.2560   78.0140  221.2760 C   0  0  0  0  0  0  0  0  0  0  0  0
  141.6820   79.2030  220.8150 N   0  0  0  0  0  0  0  0  0  0  0  0
  142.0790   80.1500  221.6880 C   0  0  0  0  0  0  0  0  0  0  0  0
  142.0500   79.9080  223.0360 C   0  0  0  0  0  0  0  0  0  0  0  0
  142.5680   81.1450  224.1420 Cl  0  0  0  0  0  0  0  0  0  0  0  0
  141.6090   78.6790  223.4710 C   0  0  0  0  0  0  0  0  0  0  0  0
  141.2100   77.7260  222.6060 N   0  0  0  0  0  0  0  0  0  0  0  0
  140.1660   71.4090  223.6200 C   0  0  0  0  0  0  0  0  0  0  0  0
  139.5780   70.1580  223.6140 C   0  0  0  0  0  0  0  0  0  0  0  0
  139.4780   69.4130  224.7730 C   0  0  0  0  0  0  0  0  0  0  0  0
  139.9770   69.9290  225.9730 C   0  0  0  0  0  0  0  0  0  0  0  0
  139.9100   69.2430  227.1580 C   0  0  0  0  0  0  0  0  0  0  0  0
  140.4180   69.7870  228.3340 C   0  0  0  0  0  0  0  0  0  0  0  0
  141.0030   71.0450  228.3120 C   0  0  0  0  0  0  0  0  0  0  0  0
  141.0740   71.7490  227.1060 C   0  0  0  0  0  0  0  0  0  0  0  0
  140.5670   71.1980  225.9480 C   0  0  0  0  0  0  0  0  0  0  0  0
  140.6390   71.8840  224.7880 N   0  0  0  0  0  0  0  0  0  0  0  0
  139.5380   74.0070  223.1250 H   0  0  0  0  0  0  0  0  0  0  0  0
  139.6319   73.4552  220.1964 H   0  0  0  0  0  0  0  0  0  0  0  0
  139.3989   75.0721  220.9804 H   0  0  0  0  0  0  0  0  0  0  0  0
  143.5278   76.8388  220.6640 H   0  0  0  0  0  0  0  0  0  0  0  0
  143.6784   75.5247  219.5247 H   0  0  0  0  0  0  0  0  0  0  0  0
  143.1760   78.2287  218.8725 H   0  0  0  0  0  0  0  0  0  0  0  0
  142.8822   76.8671  217.7648 H   0  0  0  0  0  0  0  0  0  0  0  0
  140.8967   78.6054  218.7738 H   0  0  0  0  0  0  0  0  0  0  0  0
  140.5399   77.0549  218.0635 H   0  0  0  0  0  0  0  0  0  0  0  0
  139.7685   76.8062  220.4447 H   0  0  0  0  0  0  0  0  0  0  0  0
  142.4287   81.1241  221.3154 H   0  0  0  0  0  0  0  0  0  0  0  0
  141.5816   78.4697  224.5506 H   0  0  0  0  0  0  0  0  0  0  0  0
  139.1837   69.7495  222.6719 H   0  0  0  0  0  0  0  0  0  0  0  0
  139.0081   68.4186  224.7520 H   0  0  0  0  0  0  0  0  0  0  0  0
  139.4468   68.2455  227.1798 H   0  0  0  0  0  0  0  0  0  0  0  0
  140.3560   69.2226  229.2761 H   0  0  0  0  0  0  0  0  0  0  0  0
  141.4075   71.4848  229.2356 H   0  0  0  0  0  0  0  0  0  0  0  0
  141.5363   72.7468  227.0809 H   0  0  0  0  0  0  0  0  0  0  0  0
  1  2  2  0
  2  3  1  0
  3  4  1  0
  4  5  1  0
  5  6  2  0
  5  7  1  0
  7  8  1  0
  8  9  1  0
  9 10  1  0
 10 11  1  0
 11 12  1  0
 12 13  2  0
 13 14  1  0
 14 15  2  0
 15 16  1  0
 15 17  1  0
 17 18  2  0
  2 19  1  0
 19 20  2  0
 20 21  1  0
 21 22  2  0
 22 23  1  0
 23 24  2  0
 24 25  1  0
 25 26  2  0
 26 27  1  0
 27 28  2  0
 11  7  1  0
 18 12  1  0
 28 19  1  0
 27 22  1  0
  3 29  1  0
  4 30  1  0
  4 31  1  0
  8 32  1  0
  8 33  1  0
  9 34  1  0
  9 35  1  0
 10 36  1  0
 10 37  1  0
 11 38  1  6
 14 39  1  0
 17 40  1  0
 20 41  1  0
 21 42  1  0
 23 43  1  0
 24 44  1  0
 25 45  1  0
 26 46  1  0
M  END
>  <smiles>  (44) 
O=C(NCC(=O)N1CCC[C@@H]1c1ncc(Cl)cn1)c1ccc2ccccc2n1

>  <score_type>  (44) 
oracle

>  <origin>  (44) 
autodockgpu

>  <m_score__min__energy>  (44) 
-8.7699999999999996

>  <m_primary>  (44) 
energy

>  <rmsd>  (44) 
2.3082625845422458

>  <m_score__min__rmsd>  (44) 
2.3082625845422458

>  <meeko>  (44) 
{"free_energy": -8.76, "intermolecular_energy": -10.25, "internal_energy": -1.29, "cluster_size": 31, "cluster_id": 1, "rank_in_cluster": 3}

>  <energy>  (44) 
-7.42

>  <cluster_rmsd>  (44) 
0.0

>  <cluster>  (44) 
4

$$$$

     RDKit          3D

 46 49  0  0  0  0  0  0  0  0999 V2000
  139.7160   73.7100  222.3650 O   0  0  0  0  0  0  0  0  0  0  0  0
  140.3350   72.6000  222.3230 C   0  0  0  0  0  0  0  0  0  0  0  0
  141.1010   72.3430  221.1670 N   0  0  0  0  0  0  0  0  0  0  0  0
  141.1150   73.3680  220.1300 C   0  0  0  0  0  0  0  0  0  0  0  0
  142.3890   74.0900  220.1030 C   0  0  0  0  0  0  0  0  0  0  0  0
  142.5000   75.3490  220.1920 O   0  0  0  0  0  0  0  0  0  0  0  0
  143.5900   73.3560  219.9700 N   0  0  0  0  0  0  0  0  0  0  0  0
  144.5640   73.5020  218.8800 C   0  0  0  0  0  0  0  0  0  0  0  0
  145.8770   73.3700  219.6050 C   0  0  0  0  0  0  0  0  0  0  0  0
  145.5710   72.8290  220.9930 C   0  0  0  0  0  0  0  0  0  0  0  0
  144.1540   72.3230  220.8190 C   0  0  2  0  0  0  0  0  0  0  0  0
  144.1650   71.0030  220.1100 C   0  0  0  0  0  0  0  0  0  0  0  0
  142.9860   70.3650  220.0090 N   0  0  0  0  0  0  0  0  0  0  0  0
  142.9280   69.1730  219.3830 C   0  0  0  0  0  0  0  0  0  0  0  0
  144.0570   68.6120  218.8500 C   0  0  0  0  0  0  0  0  0  0  0  0
  143.9550   67.0740  218.0470 Cl  0  0  0  0  0  0  0  0  0  0  0  0
  145.2470   69.2930  218.9720 C   0  0  0  0  0  0  0  0  0  0  0  0
  145.3160   70.4860  219.5970 N   0  0  0  0  0  0  0  0  0  0  0  0
  140.2480   71.6480  223.4250 C   0  0  0  0  0  0  0  0  0  0  0  0
  139.6840   70.4080  223.1870 C   0  0  0  0  0  0  0  0  0  0  0  0
  139.5780   69.4690  224.1940 C   0  0  0  0  0  0  0  0  0  0  0  0
  140.0460   69.7730  225.4760 C   0  0  0  0  0  0  0  0  0  0  0  0
  139.9710   68.8890  226.5200 C   0  0  0  0  0  0  0  0  0  0  0  0
  140.4480   69.2250  227.7840 C   0  0  0  0  0  0  0  0  0  0  0  0
  141.0090   70.4750  227.9950 C   0  0  0  0  0  0  0  0  0  0  0  0
  141.0880   71.3810  226.9340 C   0  0  0  0  0  0  0  0  0  0  0  0
  140.6110   71.0360  225.6870 C   0  0  0  0  0  0  0  0  0  0  0  0
  140.6920   71.9160  224.6680 N   0  0  0  0  0  0  0  0  0  0  0  0
  141.6260   71.4450  221.0900 H   0  0  0  0  0  0  0  0  0  0  0  0
  140.9552   72.8892  219.1526 H   0  0  0  0  0  0  0  0  0  0  0  0
  140.3147   74.0902  220.3491 H   0  0  0  0  0  0  0  0  0  0  0  0
  144.4424   72.7085  218.1279 H   0  0  0  0  0  0  0  0  0  0  0  0
  144.4619   74.4436  218.3205 H   0  0  0  0  0  0  0  0  0  0  0  0
  146.5369   72.6742  219.0662 H   0  0  0  0  0  0  0  0  0  0  0  0
  146.3879   74.3421  219.6683 H   0  0  0  0  0  0  0  0  0  0  0  0
  146.2573   72.0139  221.2661 H   0  0  0  0  0  0  0  0  0  0  0  0
  145.6849   73.5711  221.7969 H   0  0  0  0  0  0  0  0  0  0  0  0
  143.6030   72.1590  221.7568 H   0  0  0  0  0  0  0  0  0  0  0  0
  141.9657   68.6467  219.2997 H   0  0  0  0  0  0  0  0  0  0  0  0
  146.1630   68.8539  218.5499 H   0  0  0  0  0  0  0  0  0  0  0  0
  139.3140   70.1658  222.1798 H   0  0  0  0  0  0  0  0  0  0  0  0
  139.1276   68.4867  223.9886 H   0  0  0  0  0  0  0  0  0  0  0  0
  139.5261   67.8964  226.3566 H   0  0  0  0  0  0  0  0  0  0  0  0
  140.3801   68.5026  228.6107 H   0  0  0  0  0  0  0  0  0  0  0  0
  141.3889   70.7515  228.9896 H   0  0  0  0  0  0  0  0  0  0  0  0
  141.5328   72.3742  227.0943 H   0  0  0  0  0  0  0  0  0  0  0  0
  1  2  2  0
  2  3  1  0
  3  4  1  0
  4  5  1  0
  5  6  2  0
  5  7  1  0
  7  8  1  0
  8  9  1  0
  9 10  1  0
 10 11  1  0
 11 12  1  0
 12 13  2  0
 13 14  1  0
 14 15  2  0
 15 16  1  0
 15 17  1  0
 17 18  2  0
  2 19  1  0
 19 20  2  0
 20 21  1  0
 21 22  2  0
 22 23  1  0
 23 24  2  0
 24 25  1  0
 25 26  2  0
 26 27  1  0
 27 28  2  0
 11  7  1  0
 18 12  1  0
 28 19  1  0
 27 22  1  0
  3 29  1  0
  4 30  1  0
  4 31  1  0
  8 32  1  0
  8 33  1  0
  9 34  1  0
  9 35  1  0
 10 36  1  0
 10 37  1  0
 11 38  1  1
 14 39  1  0
 17 40  1  0
 20 41  1  0
 21 42  1  0
 23 43  1  0
 24 44  1  0
 25 45  1  0
 26 46  1  0
M  END
>  <smiles>  (45) 
O=C(NCC(=O)N1CCC[C@@H]1c1ncc(Cl)cn1)c1ccc2ccccc2n1

>  <score_type>  (45) 
oracle

>  <origin>  (45) 
autodockgpu

>  <m_score__min__energy>  (45) 
-8.7699999999999996

>  <m_primary>  (45) 
energy

>  <rmsd>  (45) 
5.76956545242781

>  <m_score__min__rmsd>  (45) 
5.76956545242781

>  <meeko>  (45) 
{"free_energy": -7.38, "intermolecular_energy": -8.87, "internal_energy": -2.16, "cluster_size": 2, "cluster_id": 4, "rank_in_cluster": 2}

>  <energy>  (45) 
-7.38

>  <cluster_rmsd>  (45) 
0.18

>  <cluster>  (45) 
4

$$$$

     RDKit          3D

 46 49  0  0  0  0  0  0  0  0999 V2000
  138.7980   75.0870  222.1950 O   0  0  0  0  0  0  0  0  0  0  0  0
  139.9500   75.6240  222.1610 C   0  0  0  0  0  0  0  0  0  0  0  0
  141.0320   74.7880  221.8160 N   0  0  0  0  0  0  0  0  0  0  0  0
  140.7340   73.3890  221.5320 C   0  0  0  0  0  0  0  0  0  0  0  0
  141.8640   72.7170  220.8880 C   0  0  0  0  0  0  0  0  0  0  0  0
  142.0400   71.4630  220.8760 O   0  0  0  0  0  0  0  0  0  0  0  0
  142.8410   73.4990  220.2280 N   0  0  0  0  0  0  0  0  0  0  0  0
  144.0710   74.0230  220.8370 C   0  0  0  0  0  0  0  0  0  0  0  0
  145.0740   73.8510  219.7270 C   0  0  0  0  0  0  0  0  0  0  0  0
  144.2930   73.5560  218.4570 C   0  0  0  0  0  0  0  0  0  0  0  0
  142.8920   73.9700  218.8550 C   0  0  2  0  0  0  0  0  0  0  0  0
  142.7640   75.4610  218.8030 C   0  0  0  0  0  0  0  0  0  0  0  0
  143.0600   76.0490  217.6300 N   0  0  0  0  0  0  0  0  0  0  0  0
  142.9660   77.3890  217.5170 C   0  0  0  0  0  0  0  0  0  0  0  0
  142.5700   78.1500  218.5840 C   0  0  0  0  0  0  0  0  0  0  0  0
  142.4560   79.8770  218.4120 Cl  0  0  0  0  0  0  0  0  0  0  0  0
  142.2760   77.5150  219.7690 C   0  0  0  0  0  0  0  0  0  0  0  0
  142.3670   76.1750  219.8920 N   0  0  0  0  0  0  0  0  0  0  0  0
  140.1300   77.0400  222.4650 C   0  0  0  0  0  0  0  0  0  0  0  0
  139.0080   77.8390  222.5880 C   0  0  0  0  0  0  0  0  0  0  0  0
  139.1210   79.1860  222.8760 C   0  0  0  0  0  0  0  0  0  0  0  0
  140.3870   79.7530  223.0450 C   0  0  0  0  0  0  0  0  0  0  0  0
  140.5710   81.0810  223.3310 C   0  0  0  0  0  0  0  0  0  0  0  0
  141.8470   81.6120  223.4940 C   0  0  0  0  0  0  0  0  0  0  0  0
  142.9550   80.7880  223.3650 C   0  0  0  0  0  0  0  0  0  0  0  0
  142.7740   79.4330  223.0740 C   0  0  0  0  0  0  0  0  0  0  0  0
  141.5040   78.9200  222.9140 C   0  0  0  0  0  0  0  0  0  0  0  0
  141.3370   77.6100  222.6330 N   0  0  0  0  0  0  0  0  0  0  0  0
  141.9950   75.1860  221.7750 H   0  0  0  0  0  0  0  0  0  0  0  0
  140.5037   72.8743  222.4765 H   0  0  0  0  0  0  0  0  0  0  0  0
  139.8755   73.3528  220.8452 H   0  0  0  0  0  0  0  0  0  0  0  0
  143.9595   75.0819  221.1132 H   0  0  0  0  0  0  0  0  0  0  0  0
  144.3534   73.5135  221.7701 H   0  0  0  0  0  0  0  0  0  0  0  0
  145.6607   74.7732  219.6030 H   0  0  0  0  0  0  0  0  0  0  0  0
  145.7721   73.0321  219.9551 H   0  0  0  0  0  0  0  0  0  0  0  0
  144.6627   74.1539  217.6109 H   0  0  0  0  0  0  0  0  0  0  0  0
  144.3707   72.5127  218.1172 H   0  0  0  0  0  0  0  0  0  0  0  0
  142.0924   73.5745  218.2114 H   0  0  0  0  0  0  0  0  0  0  0  0
  143.2093   77.8746  216.5604 H   0  0  0  0  0  0  0  0  0  0  0  0
  141.9596   78.1140  220.6356 H   0  0  0  0  0  0  0  0  0  0  0  0
  138.0102   77.3956  222.4546 H   0  0  0  0  0  0  0  0  0  0  0  0
  138.2191   79.8085  222.9717 H   0  0  0  0  0  0  0  0  0  0  0  0
  139.6949   81.7383  223.4334 H   0  0  0  0  0  0  0  0  0  0  0  0
  141.9761   82.6799  223.7240 H   0  0  0  0  0  0  0  0  0  0  0  0
  143.9681   81.1976  223.4907 H   0  0  0  0  0  0  0  0  0  0  0  0
  143.6482   78.7731  222.9722 H   0  0  0  0  0  0  0  0  0  0  0  0
  1  2  2  0
  2  3  1  0
  3  4  1  0
  4  5  1  0
  5  6  2  0
  5  7  1  0
  7  8  1  0
  8  9  1  0
  9 10  1  0
 10 11  1  0
 11 12  1  0
 12 13  2  0
 13 14  1  0
 14 15  2  0
 15 16  1  0
 15 17  1  0
 17 18  2  0
  2 19  1  0
 19 20  2  0
 20 21  1  0
 21 22  2  0
 22 23  1  0
 23 24  2  0
 24 25  1  0
 25 26  2  0
 26 27  1  0
 27 28  2  0
 11  7  1  0
 18 12  1  0
 28 19  1  0
 27 22  1  0
  3 29  1  0
  4 30  1  0
  4 31  1  0
  8 32  1  0
  8 33  1  0
  9 34  1  0
  9 35  1  0
 10 36  1  0
 10 37  1  0
 11 38  1  6
 14 39  1  0
 17 40  1  0
 20 41  1  0
 21 42  1  0
 23 43  1  0
 24 44  1  0
 25 45  1  0
 26 46  1  0
M  END
>  <smiles>  (46) 
O=C(NCC(=O)N1CCC[C@@H]1c1ncc(Cl)cn1)c1ccc2ccccc2n1

>  <score_type>  (46) 
oracle

>  <origin>  (46) 
autodockgpu

>  <m_score__min__energy>  (46) 
-8.7699999999999996

>  <m_primary>  (46) 
energy

>  <rmsd>  (46) 
7.344108301105706

>  <m_score__min__rmsd>  (46) 
7.344108301105706

>  <meeko>  (46) 
{"free_energy": -6.72, "intermolecular_energy": -8.21, "internal_energy": -2.89, "cluster_size": 5, "cluster_id": 5, "rank_in_cluster": 2}

>  <energy>  (46) 
-6.81

>  <cluster_rmsd>  (46) 
0.0

>  <cluster>  (46) 
5

$$$$

     RDKit          3D

 46 49  0  0  0  0  0  0  0  0999 V2000
  139.9850   73.7350  222.3630 O   0  0  0  0  0  0  0  0  0  0  0  0
  140.4560   72.5540  222.3720 C   0  0  0  0  0  0  0  0  0  0  0  0
  141.1990   72.1570  221.2410 N   0  0  0  0  0  0  0  0  0  0  0  0
  141.3600   73.1320  220.1690 C   0  0  0  0  0  0  0  0  0  0  0  0
  142.4220   74.0940  220.4700 C   0  0  0  0  0  0  0  0  0  0  0  0
  143.4990   73.8060  221.0710 O   0  0  0  0  0  0  0  0  0  0  0  0
  142.2590   75.4420  220.0740 N   0  0  0  0  0  0  0  0  0  0  0  0
  143.2960   76.2840  219.4620 C   0  0  0  0  0  0  0  0  0  0  0  0
  142.5130   77.0570  218.4340 C   0  0  0  0  0  0  0  0  0  0  0  0
  141.0400   76.8550  218.7460 C   0  0  0  0  0  0  0  0  0  0  0  0
  141.0960   76.3080  220.1570 C   0  0  2  0  0  0  0  0  0  0  0  0
  141.3360   77.4220  221.1300 C   0  0  0  0  0  0  0  0  0  0  0  0
  141.6780   78.6120  220.6070 N   0  0  0  0  0  0  0  0  0  0  0  0
  141.9080   79.6560  221.4290 C   0  0  0  0  0  0  0  0  0  0  0  0
  141.7940   79.5110  222.7860 C   0  0  0  0  0  0  0  0  0  0  0  0
  142.0960   80.8720  223.8230 Cl  0  0  0  0  0  0  0  0  0  0  0  0
  141.4430   78.2770  223.2840 C   0  0  0  0  0  0  0  0  0  0  0  0
  141.2100   77.2270  222.4720 N   0  0  0  0  0  0  0  0  0  0  0  0
  140.2310   71.6630  223.5050 C   0  0  0  0  0  0  0  0  0  0  0  0
  139.4720   70.5230  223.3120 C   0  0  0  0  0  0  0  0  0  0  0  0
  139.2290   69.6450  224.3500 C   0  0  0  0  0  0  0  0  0  0  0  0
  139.7550   69.9100  225.6180 C   0  0  0  0  0  0  0  0  0  0  0  0
  139.5520   69.0810  226.6910 C   0  0  0  0  0  0  0  0  0  0  0  0
  140.0920   69.3760  227.9400 C   0  0  0  0  0  0  0  0  0  0  0  0
  140.8480   70.5260  228.1060 C   0  0  0  0  0  0  0  0  0  0  0  0
  141.0590   71.3740  227.0150 C   0  0  0  0  0  0  0  0  0  0  0  0
  140.5180   71.0710  225.7830 C   0  0  0  0  0  0  0  0  0  0  0  0
  140.7260   71.8950  224.7350 N   0  0  0  0  0  0  0  0  0  0  0  0
  141.6040   71.1970  221.2060 H   0  0  0  0  0  0  0  0  0  0  0  0
  141.6121   72.6015  219.2389 H   0  0  0  0  0  0  0  0  0  0  0  0
  140.4151   73.6850  220.0623 H   0  0  0  0  0  0  0  0  0  0  0  0
  143.7529   76.9560  220.2034 H   0  0  0  0  0  0  0  0  0  0  0  0
  144.1358   75.7128  219.0394 H   0  0  0  0  0  0  0  0  0  0  0  0
  142.7674   78.1256  218.4918 H   0  0  0  0  0  0  0  0  0  0  0  0
  142.7488   76.7060  217.4185 H   0  0  0  0  0  0  0  0  0  0  0  0
  140.4879   77.8056  218.7063 H   0  0  0  0  0  0  0  0  0  0  0  0
  140.5190   76.1986  218.0335 H   0  0  0  0  0  0  0  0  0  0  0  0
  140.1786   75.8032  220.4941 H   0  0  0  0  0  0  0  0  0  0  0  0
  142.1894   80.6317  221.0062 H   0  0  0  0  0  0  0  0  0  0  0  0
  141.3503   78.1444  224.3720 H   0  0  0  0  0  0  0  0  0  0  0  0
  139.0553   70.3123  222.3160 H   0  0  0  0  0  0  0  0  0  0  0  0
  138.6247   68.7417  224.1800 H   0  0  0  0  0  0  0  0  0  0  0  0
  138.9525   68.1676  226.5630 H   0  0  0  0  0  0  0  0  0  0  0  0
  139.9196   68.7001  228.7905 H   0  0  0  0  0  0  0  0  0  0  0  0
  141.2785   70.7693  229.0886 H   0  0  0  0  0  0  0  0  0  0  0  0
  141.6593   72.2873  227.1396 H   0  0  0  0  0  0  0  0  0  0  0  0
  1  2  2  0
  2  3  1  0
  3  4  1  0
  4  5  1  0
  5  6  2  0
  5  7  1  0
  7  8  1  0
  8  9  1  0
  9 10  1  0
 10 11  1  0
 11 12  1  0
 12 13  2  0
 13 14  1  0
 14 15  2  0
 15 16  1  0
 15 17  1  0
 17 18  2  0
  2 19  1  0
 19 20  2  0
 20 21  1  0
 21 22  2  0
 22 23  1  0
 23 24  2  0
 24 25  1  0
 25 26  2  0
 26 27  1  0
 27 28  2  0
 11  7  1  0
 18 12  1  0
 28 19  1  0
 27 22  1  0
  3 29  1  0
  4 30  1  0
  4 31  1  0
  8 32  1  0
  8 33  1  0
  9 34  1  0
  9 35  1  0
 10 36  1  0
 10 37  1  0
 11 38  1  1
 14 39  1  0
 17 40  1  0
 20 41  1  0
 21 42  1  0
 23 43  1  0
 24 44  1  0
 25 45  1  0
 26 46  1  0
M  END
>  <smiles>  (47) 
O=C(NCC(=O)N1CCC[C@@H]1c1ncc(Cl)cn1)c1ccc2ccccc2n1

>  <score_type>  (47) 
oracle

>  <origin>  (47) 
autodockgpu

>  <m_score__min__energy>  (47) 
-8.7699999999999996

>  <m_primary>  (47) 
energy

>  <rmsd>  (47) 
2.603722427815256

>  <m_score__min__rmsd>  (47) 
2.603722427815256

>  <meeko>  (47) 
{"free_energy": -8.44, "intermolecular_energy": -9.93, "internal_energy": -1.28, "cluster_size": 31, "cluster_id": 1, "rank_in_cluster": 10}

>  <energy>  (47) 
-6.72

>  <cluster_rmsd>  (47) 
0.17

>  <cluster>  (47) 
5

$$$$

     RDKit          3D

 46 49  0  0  0  0  0  0  0  0999 V2000
  140.5480   73.5420  222.3550 O   0  0  0  0  0  0  0  0  0  0  0  0
  140.5050   72.2710  222.3300 C   0  0  0  0  0  0  0  0  0  0  0  0
  140.6860   71.6530  221.0760 N   0  0  0  0  0  0  0  0  0  0  0  0
  140.9070   72.5220  219.9260 C   0  0  0  0  0  0  0  0  0  0  0  0
  142.2500   73.1050  219.9400 C   0  0  0  0  0  0  0  0  0  0  0  0
  143.3100   72.4550  220.1850 O   0  0  0  0  0  0  0  0  0  0  0  0
  142.4020   74.4840  219.6660 N   0  0  0  0  0  0  0  0  0  0  0  0
  143.6820   75.1990  219.5600 C   0  0  0  0  0  0  0  0  0  0  0  0
  143.4270   76.1420  218.4160 C   0  0  0  0  0  0  0  0  0  0  0  0
  141.9280   76.1440  218.1600 C   0  0  0  0  0  0  0  0  0  0  0  0
  141.4000   75.5070  219.4280 C   0  0  2  0  0  0  0  0  0  0  0  0
  141.3940   76.5100  220.5420 C   0  0  0  0  0  0  0  0  0  0  0  0
  141.7740   77.7600  220.2260 N   0  0  0  0  0  0  0  0  0  0  0  0
  141.7920   78.7100  221.1820 C   0  0  0  0  0  0  0  0  0  0  0  0
  141.4240   78.4090  222.4670 C   0  0  0  0  0  0  0  0  0  0  0  0
  141.4550   79.6520  223.6820 Cl  0  0  0  0  0  0  0  0  0  0  0  0
  141.0410   77.1190  222.7530 C   0  0  0  0  0  0  0  0  0  0  0  0
  141.0200   76.1620  221.8040 N   0  0  0  0  0  0  0  0  0  0  0  0
  140.2770   71.5020  223.5490 C   0  0  0  0  0  0  0  0  0  0  0  0
  139.5900   70.3060  223.4600 C   0  0  0  0  0  0  0  0  0  0  0  0
  139.3480   69.5380  224.5820 C   0  0  0  0  0  0  0  0  0  0  0  0
  139.8020   69.9750  225.8300 C   0  0  0  0  0  0  0  0  0  0  0  0
  139.5960   69.2620  226.9830 C   0  0  0  0  0  0  0  0  0  0  0  0
  140.0640   69.7270  228.2090 C   0  0  0  0  0  0  0  0  0  0  0  0
  140.7500   70.9300  228.2710 C   0  0  0  0  0  0  0  0  0  0  0  0
  140.9630   71.6610  227.0980 C   0  0  0  0  0  0  0  0  0  0  0  0
  140.4940   71.1890  225.8900 C   0  0  0  0  0  0  0  0  0  0  0  0
  140.7050   71.9000  224.7620 N   0  0  0  0  0  0  0  0  0  0  0  0
  140.6590   70.6130  221.0090 H   0  0  0  0  0  0  0  0  0  0  0  0
  140.7831   71.9334  219.0050 H   0  0  0  0  0  0  0  0  0  0  0  0
  140.1757   73.3425  219.9698 H   0  0  0  0  0  0  0  0  0  0  0  0
  143.9099   75.7478  220.4857 H   0  0  0  0  0  0  0  0  0  0  0  0
  144.5455   74.5363  219.4012 H   0  0  0  0  0  0  0  0  0  0  0  0
  143.7656   77.1548  218.6799 H   0  0  0  0  0  0  0  0  0  0  0  0
  143.9760   75.8233  217.5176 H   0  0  0  0  0  0  0  0  0  0  0  0
  141.5438   77.1671  218.0351 H   0  0  0  0  0  0  0  0  0  0  0  0
  141.6312   75.6199  217.2396 H   0  0  0  0  0  0  0  0  0  0  0  0
  140.3711   75.1242  219.3588 H   0  0  0  0  0  0  0  0  0  0  0  0
  142.1043   79.7339  220.9288 H   0  0  0  0  0  0  0  0  0  0  0  0
  140.7448   76.8624  223.7808 H   0  0  0  0  0  0  0  0  0  0  0  0
  139.2302   69.9603  222.4797 H   0  0  0  0  0  0  0  0  0  0  0  0
  138.8011   68.5877  224.4942 H   0  0  0  0  0  0  0  0  0  0  0  0
  139.0520   68.3069  226.9386 H   0  0  0  0  0  0  0  0  0  0  0  0
  139.8902   69.1424  229.1244 H   0  0  0  0  0  0  0  0  0  0  0  0
  141.1236   71.3064  229.2347 H   0  0  0  0  0  0  0  0  0  0  0  0
  141.5068   72.6163  227.1390 H   0  0  0  0  0  0  0  0  0  0  0  0
  1  2  2  0
  2  3  1  0
  3  4  1  0
  4  5  1  0
  5  6  2  0
  5  7  1  0
  7  8  1  0
  8  9  1  0
  9 10  1  0
 10 11  1  0
 11 12  1  0
 12 13  2  0
 13 14  1  0
 14 15  2  0
 15 16  1  0
 15 17  1  0
 17 18  2  0
  2 19  1  0
 19 20  2  0
 20 21  1  0
 21 22  2  0
 22 23  1  0
 23 24  2  0
 24 25  1  0
 25 26  2  0
 26 27  1  0
 27 28  2  0
 11  7  1  0
 18 12  1  0
 28 19  1  0
 27 22  1  0
  3 29  1  0
  4 30  1  0
  4 31  1  0
  8 32  1  0
  8 33  1  0
  9 34  1  0
  9 35  1  0
 10 36  1  0
 10 37  1  0
 11 38  1  6
 14 39  1  0
 17 40  1  0
 20 41  1  0
 21 42  1  0
 23 43  1  0
 24 44  1  0
 25 45  1  0
 26 46  1  0
M  END
>  <smiles>  (48) 
O=C(NCC(=O)N1CCC[C@@H]1c1ncc(Cl)cn1)c1ccc2ccccc2n1

>  <score_type>  (48) 
oracle

>  <origin>  (48) 
autodockgpu

>  <m_score__min__energy>  (48) 
-8.7699999999999996

>  <m_primary>  (48) 
energy

>  <rmsd>  (48) 
2.7596424449810133

>  <m_score__min__rmsd>  (48) 
2.7596424449810133

>  <meeko>  (48) 
{"free_energy": -8.06, "intermolecular_energy": -9.55, "internal_energy": -1.44, "cluster_size": 31, "cluster_id": 1, "rank_in_cluster": 28}

>  <energy>  (48) 
-6.66

>  <cluster_rmsd>  (48) 
0.22

>  <cluster>  (48) 
5

$$$$

     RDKit          3D

 46 49  0  0  0  0  0  0  0  0999 V2000
  139.9430   73.7170  222.3570 O   0  0  0  0  0  0  0  0  0  0  0  0
  140.4230   72.5390  222.3550 C   0  0  0  0  0  0  0  0  0  0  0  0
  141.1700   72.1580  221.2210 N   0  0  0  0  0  0  0  0  0  0  0  0
  141.3260   73.1440  220.1580 C   0  0  0  0  0  0  0  0  0  0  0  0
  142.3880   74.1040  220.4660 C   0  0  0  0  0  0  0  0  0  0  0  0
  143.4620   73.8140  221.0700 O   0  0  0  0  0  0  0  0  0  0  0  0
  142.2270   75.4530  220.0720 N   0  0  0  0  0  0  0  0  0  0  0  0
  143.2660   76.2950  219.4640 C   0  0  0  0  0  0  0  0  0  0  0  0
  142.4870   77.0710  218.4360 C   0  0  0  0  0  0  0  0  0  0  0  0
  141.0130   76.8700  218.7430 C   0  0  0  0  0  0  0  0  0  0  0  0
  141.0650   76.3200  220.1530 C   0  0  2  0  0  0  0  0  0  0  0  0
  141.3030   77.4320  221.1290 C   0  0  0  0  0  0  0  0  0  0  0  0
  141.6260   78.6280  220.6080 N   0  0  0  0  0  0  0  0  0  0  0  0
  141.8540   79.6710  221.4320 C   0  0  0  0  0  0  0  0  0  0  0  0
  141.7560   79.5180  222.7900 C   0  0  0  0  0  0  0  0  0  0  0  0
  142.0550   80.8780  223.8310 Cl  0  0  0  0  0  0  0  0  0  0  0  0
  141.4240   78.2780  223.2860 C   0  0  0  0  0  0  0  0  0  0  0  0
  141.1940   77.2290  222.4710 N   0  0  0  0  0  0  0  0  0  0  0  0
  140.2030   71.6350  223.4790 C   0  0  0  0  0  0  0  0  0  0  0  0
  139.5140   70.4570  223.2580 C   0  0  0  0  0  0  0  0  0  0  0  0
  139.2780   69.5660  224.2870 C   0  0  0  0  0  0  0  0  0  0  0  0
  139.7410   69.8570  225.5730 C   0  0  0  0  0  0  0  0  0  0  0  0
  139.5410   69.0170  226.6390 C   0  0  0  0  0  0  0  0  0  0  0  0
  140.0170   69.3380  227.9070 C   0  0  0  0  0  0  0  0  0  0  0  0
  140.7040   70.5270  228.1020 C   0  0  0  0  0  0  0  0  0  0  0  0
  140.9100   71.3870  227.0190 C   0  0  0  0  0  0  0  0  0  0  0  0
  140.4340   71.0560  225.7670 C   0  0  0  0  0  0  0  0  0  0  0  0
  140.6380   71.8920  224.7270 N   0  0  0  0  0  0  0  0  0  0  0  0
  141.5830   71.2010  221.1780 H   0  0  0  0  0  0  0  0  0  0  0  0
  141.5757   72.6233  219.2218 H   0  0  0  0  0  0  0  0  0  0  0  0
  140.3801   73.6967  220.0593 H   0  0  0  0  0  0  0  0  0  0  0  0
  143.7220   76.9649  220.2078 H   0  0  0  0  0  0  0  0  0  0  0  0
  144.1058   75.7235  219.0420 H   0  0  0  0  0  0  0  0  0  0  0  0
  142.7424   78.1392  218.4971 H   0  0  0  0  0  0  0  0  0  0  0  0
  142.7253   76.7220  217.4204 H   0  0  0  0  0  0  0  0  0  0  0  0
  140.4619   77.8212  218.7038 H   0  0  0  0  0  0  0  0  0  0  0  0
  140.4931   76.2159  218.0275 H   0  0  0  0  0  0  0  0  0  0  0  0
  140.1463   75.8152  220.4864 H   0  0  0  0  0  0  0  0  0  0  0  0
  142.1206   80.6516  221.0108 H   0  0  0  0  0  0  0  0  0  0  0  0
  141.3443   78.1393  224.3743 H   0  0  0  0  0  0  0  0  0  0  0  0
  139.1479   70.2255  222.2469 H   0  0  0  0  0  0  0  0  0  0  0  0
  138.7286   68.6325  224.0951 H   0  0  0  0  0  0  0  0  0  0  0  0
  138.9952   68.0738  226.4892 H   0  0  0  0  0  0  0  0  0  0  0  0
  139.8491   68.6520  228.7503 H   0  0  0  0  0  0  0  0  0  0  0  0
  141.0835   70.7911  229.1001 H   0  0  0  0  0  0  0  0  0  0  0  0
  141.4540   72.3317  227.1658 H   0  0  0  0  0  0  0  0  0  0  0  0
  1  2  2  0
  2  3  1  0
  3  4  1  0
  4  5  1  0
  5  6  2  0
  5  7  1  0
  7  8  1  0
  8  9  1  0
  9 10  1  0
 10 11  1  0
 11 12  1  0
 12 13  2  0
 13 14  1  0
 14 15  2  0
 15 16  1  0
 15 17  1  0
 17 18  2  0
  2 19  1  0
 19 20  2  0
 20 21  1  0
 21 22  2  0
 22 23  1  0
 23 24  2  0
 24 25  1  0
 25 26  2  0
 26 27  1  0
 27 28  2  0
 11  7  1  0
 18 12  1  0
 28 19  1  0
 27 22  1  0
  3 29  1  0
  4 30  1  0
  4 31  1  0
  8 32  1  0
  8 33  1  0
  9 34  1  0
  9 35  1  0
 10 36  1  0
 10 37  1  0
 11 38  1  1
 14 39  1  0
 17 40  1  0
 20 41  1  0
 21 42  1  0
 23 43  1  0
 24 44  1  0
 25 45  1  0
 26 46  1  0
M  END
>  <smiles>  (49) 
O=C(NCC(=O)N1CCC[C@@H]1c1ncc(Cl)cn1)c1ccc2ccccc2n1

>  <score_type>  (49) 
oracle

>  <origin>  (49) 
autodockgpu

>  <m_score__min__energy>  (49) 
-8.7699999999999996

>  <m_primary>  (49) 
energy

>  <rmsd>  (49) 
2.582875742930851

>  <m_score__min__rmsd>  (49) 
2.582875742930851

>  <meeko>  (49) 
{"free_energy": -8.41, "intermolecular_energy": -9.9, "internal_energy": -1.29, "cluster_size": 31, "cluster_id": 1, "rank_in_cluster": 13}

>  <energy>  (49) 
-6.66

>  <cluster_rmsd>  (49) 
0.22

>  <cluster>  (49) 
5

$$$$

     RDKit          3D

 46 49  0  0  0  0  0  0  0  0999 V2000
  140.3250   71.4760  221.2210 O   0  0  0  0  0  0  0  0  0  0  0  0
  140.0630   72.0890  222.3040 C   0  0  0  0  0  0  0  0  0  0  0  0
  139.7780   73.4670  222.2030 N   0  0  0  0  0  0  0  0  0  0  0  0
  139.8090   74.0610  220.8720 C   0  0  0  0  0  0  0  0  0  0  0  0
  138.5400   74.7140  220.5440 C   0  0  0  0  0  0  0  0  0  0  0  0
  137.7080   74.2770  219.6950 O   0  0  0  0  0  0  0  0  0  0  0  0
  138.1970   75.9160  221.2060 N   0  0  0  0  0  0  0  0  0  0  0  0
  137.5820   77.0930  220.5770 C   0  0  0  0  0  0  0  0  0  0  0  0
  136.6070   77.5450  221.6310 C   0  0  0  0  0  0  0  0  0  0  0  0
  136.9590   76.8100  222.9140 C   0  0  0  0  0  0  0  0  0  0  0  0
  138.3470   76.2920  222.6000 C   0  0  2  0  0  0  0  0  0  0  0  0
  139.3510   77.3960  222.7440 C   0  0  0  0  0  0  0  0  0  0  0  0
  138.9120   78.5370  223.3040 N   0  0  0  0  0  0  0  0  0  0  0  0
  139.7650   79.5690  223.4620 C   0  0  0  0  0  0  0  0  0  0  0  0
  141.0690   79.4610  223.0580 C   0  0  0  0  0  0  0  0  0  0  0  0
  142.1490   80.8060  223.2730 Cl  0  0  0  0  0  0  0  0  0  0  0  0
  141.4820   78.2780  222.4880 C   0  0  0  0  0  0  0  0  0  0  0  0
  140.6370   77.2400  222.3260 N   0  0  0  0  0  0  0  0  0  0  0  0
  140.0600   71.3880  223.5840 C   0  0  0  0  0  0  0  0  0  0  0  0
  139.5350   70.1100  223.6390 C   0  0  0  0  0  0  0  0  0  0  0  0
  139.5090   69.4010  224.8240 C   0  0  0  0  0  0  0  0  0  0  0  0
  140.0180   69.9820  225.9890 C   0  0  0  0  0  0  0  0  0  0  0  0
  140.0220   69.3350  227.1970 C   0  0  0  0  0  0  0  0  0  0  0  0
  140.5390   69.9440  228.3380 C   0  0  0  0  0  0  0  0  0  0  0  0
  141.0590   71.2270  228.2550 C   0  0  0  0  0  0  0  0  0  0  0  0
  141.0570   71.8910  227.0250 C   0  0  0  0  0  0  0  0  0  0  0  0
  140.5420   71.2770  225.9030 C   0  0  0  0  0  0  0  0  0  0  0  0
  140.5450   71.9250  224.7190 N   0  0  0  0  0  0  0  0  0  0  0  0
  139.5570   74.0090  223.0660 H   0  0  0  0  0  0  0  0  0  0  0  0
  140.6155   74.8080  220.8330 H   0  0  0  0  0  0  0  0  0  0  0  0
  139.9821   73.2579  220.1405 H   0  0  0  0  0  0  0  0  0  0  0  0
  138.3315   77.8704  220.3676 H   0  0  0  0  0  0  0  0  0  0  0  0
  137.1134   76.8795  219.6050 H   0  0  0  0  0  0  0  0  0  0  0  0
  136.6931   78.6310  221.7831 H   0  0  0  0  0  0  0  0  0  0  0  0
  135.5731   77.3253  221.3263 H   0  0  0  0  0  0  0  0  0  0  0  0
  136.9713   77.4924  223.7766 H   0  0  0  0  0  0  0  0  0  0  0  0
  136.2407   76.0238  223.1897 H   0  0  0  0  0  0  0  0  0  0  0  0
  138.6949   75.4778  223.2527 H   0  0  0  0  0  0  0  0  0  0  0  0
  139.4108   80.5049  223.9189 H   0  0  0  0  0  0  0  0  0  0  0  0
  142.5261   78.1772  222.1569 H   0  0  0  0  0  0  0  0  0  0  0  0
  139.1317   69.6507  222.7245 H   0  0  0  0  0  0  0  0  0  0  0  0
  139.0899   68.3843  224.8509 H   0  0  0  0  0  0  0  0  0  0  0  0
  139.6099   68.3175  227.2668 H   0  0  0  0  0  0  0  0  0  0  0  0
  140.5349   69.4102  229.2998 H   0  0  0  0  0  0  0  0  0  0  0  0
  141.4696   71.7180  229.1496 H   0  0  0  0  0  0  0  0  0  0  0  0
  141.4684   72.9085  226.9518 H   0  0  0  0  0  0  0  0  0  0  0  0
  1  2  2  0
  2  3  1  0
  3  4  1  0
  4  5  1  0
  5  6  2  0
  5  7  1  0
  7  8  1  0
  8  9  1  0
  9 10  1  0
 10 11  1  0
 11 12  1  0
 12 13  2  0
 13 14  1  0
 14 15  2  0
 15 16  1  0
 15 17  1  0
 17 18  2  0
  2 19  1  0
 19 20  2  0
 20 21  1  0
 21 22  2  0
 22 23  1  0
 23 24  2  0
 24 25  1  0
 25 26  2  0
 26 27  1  0
 27 28  2  0
 11  7  1  0
 18 12  1  0
 28 19  1  0
 27 22  1  0
  3 29  1  0
  4 30  1  0
  4 31  1  0
  8 32  1  0
  8 33  1  0
  9 34  1  0
  9 35  1  0
 10 36  1  0
 10 37  1  0
 11 38  1  1
 14 39  1  0
 17 40  1  0
 20 41  1  0
 21 42  1  0
 23 43  1  0
 24 44  1  0
 25 45  1  0
 26 46  1  0
M  END
>  <smiles>  (50) 
O=C(NCC(=O)N1CCC[C@@H]1c1ncc(Cl)cn1)c1ccc2ccccc2n1

>  <score_type>  (50) 
oracle

>  <origin>  (50) 
autodockgpu

>  <m_score__min__energy>  (50) 
-8.7699999999999996

>  <m_primary>  (50) 
energy

>  <rmsd>  (50) 
3.046273770926353

>  <m_score__min__rmsd>  (50) 
3.046273770926353

>  <meeko>  (50) 
{"free_energy": -7.82, "intermolecular_energy": -9.31, "internal_energy": -1.47, "cluster_size": 31, "cluster_id": 1, "rank_in_cluster": 31}

>  <energy>  (50) 
-6.58

>  <cluster_rmsd>  (50) 
0.43

>  <cluster>  (50) 
5

$$$$
