@<TRIPOS>MOLECULE
*****
 69 75 0 0 0
SMALL
GASTEIGER

@<TRIPOS>ATOM
      1 O         134.9180   70.9720  222.6170 O.2     1  UNL1       -0.2680
      2 C         135.8610   71.8140  222.9380 C.2     1  UNL1        0.2672
      3 C         135.3670   73.0340  223.5360 C.ar    1  UNL1        0.1033
      4 C         134.5740   73.0450  224.6680 C.ar    1  UNL1       -0.0241
      5 C         134.2840   74.3530  225.0400 C.ar    1  UNL1        0.0010
      6 C         133.5700   74.9140  226.0640 C.ar    1  UNL1       -0.0447
      7 C         133.4880   76.2810  226.1610 C.ar    1  UNL1       -0.0143
      8 C         132.7590   76.9560  227.2410 C.ar    1  UNL1        0.0193
      9 C         131.6740   76.5210  227.9650 C.ar    1  UNL1        0.0568
     10 N         131.3460   77.4840  228.8440 N.ar    1  UNL1       -0.1817
     11 N         132.1700   78.5130  228.7140 N.ar    1  UNL1       -0.2841
     12 C         133.0540   78.2270  227.7380 C.ar    1  UNL1        0.0300
     13 C         134.1140   77.1260  225.2380 C.ar    1  UNL1       -0.0520
     14 C         134.8180   76.5080  224.2240 C.ar    1  UNL1       -0.0372
     15 C         134.9130   75.1350  224.1140 C.ar    1  UNL1        0.0471
     16 N         135.5550   74.3220  223.2240 N.ar    1  UNL1       -0.3506
     17 N         137.1440   71.4030  222.6660 N.am    1  UNL1       -0.2651
     18 C         137.5300   69.9500  222.6400 C.3     1  UNL1        0.0310
     19 C         138.7270   70.0900  223.5740 C.3     1  UNL1        0.0275
     20 C         138.1940   70.3540  224.9450 C.3     1  UNL1       -0.0278
     21 C         138.0090   68.8990  225.4660 C.3     1  UNL1       -0.0002
     22 N         139.2080   68.3020  225.0430 N.3     1  UNL1       -0.3011
     23 C         140.3250   68.1660  225.8610 C.3     1  UNL1        0.0017
     24 C         140.7710   69.2860  226.7460 C.3     1  UNL1       -0.0282
     25 C         139.7970   69.6700  227.7560 C.3     1  UNL1       -0.0490
     26 C         139.9680   71.0570  228.3410 C.3     1  UNL1       -0.0528
     27 C         141.1290   71.8200  227.7810 C.3     1  UNL1       -0.0530
     28 C         140.9170   71.7670  226.2610 C.3     1  UNL1       -0.0528
     29 C         141.2870   70.3750  225.8520 C.3     1  UNL1       -0.0490
     30 C         139.5480   68.8720  223.7340 C.3     1  UNL1        0.0101
     31 C         139.4100   71.2570  222.9600 C.ar    1  UNL1       -0.0170
     32 C         140.6970   71.7100  222.8060 C.ar    1  UNL1       -0.0562
     33 C         140.9630   72.8830  222.1480 C.ar    1  UNL1       -0.0614
     34 C         139.9370   73.6620  221.6100 C.ar    1  UNL1       -0.0600
     35 C         138.6410   73.2250  221.7550 C.ar    1  UNL1       -0.0400
     36 C         138.3850   72.0450  222.4180 C.ar    1  UNL1        0.0404
     37 H         134.2227   72.1477  225.1985 H       1  UNL1        0.0646
     38 H         133.0658   74.2746  226.8035 H       1  UNL1        0.0630
     39 H         131.1635   75.5540  227.8458 H       1  UNL1        0.0854
     40 H         132.1130   79.3900  229.2920 H       1  UNL1        0.1882
     41 H         133.8676   78.8818  227.3925 H       1  UNL1        0.0830
     42 H         134.0488   78.2213  225.3160 H       1  UNL1        0.0624
     43 H         135.3233   77.1342  223.4740 H       1  UNL1        0.0638
     44 H         136.0990   74.7150  222.4490 H       1  UNL1        0.1660
     45 H         136.7466   69.2942  223.0477 H       1  UNL1        0.0478
     46 H         137.7110   69.4951  221.6550 H       1  UNL1        0.0478
     47 H         138.9134   70.9161  225.5586 H       1  UNL1        0.0287
     48 H         137.2818   70.9682  224.9705 H       1  UNL1        0.0287
     49 H         137.9103   68.8727  226.5613 H       1  UNL1        0.0427
     50 H         137.1014   68.3995  225.0961 H       1  UNL1        0.0427
     51 H         140.1285   67.3065  226.5188 H       1  UNL1        0.0429
     52 H         141.1484   68.0873  225.1359 H       1  UNL1        0.0429
     53 H         141.5968   68.9672  227.3990 H       1  UNL1        0.0313
     54 H         138.7978   69.6169  227.2991 H       1  UNL1        0.0268
     55 H         139.9428   68.9717  228.5934 H       1  UNL1        0.0268
     56 H         139.0504   71.6305  228.1432 H       1  UNL1        0.0265
     57 H         140.1645   70.9253  229.4153 H       1  UNL1        0.0265
     58 H         141.1220   72.8598  228.1398 H       1  UNL1        0.0265
     59 H         142.0975   71.3972  228.0862 H       1  UNL1        0.0265
     60 H         139.8656   71.9738  226.0124 H       1  UNL1        0.0265
     61 H         141.5248   72.5203  225.7384 H       1  UNL1        0.0265
     62 H         140.8905   70.2011  224.8408 H       1  UNL1        0.0268
     63 H         142.3842   70.3222  225.9100 H       1  UNL1        0.0268
     64 H         140.6171   69.1283  223.6985 H       1  UNL1        0.0436
     65 H         139.3494   68.1525  222.9260 H       1  UNL1        0.0436
     66 H         141.5297   71.1211  223.2180 H       1  UNL1        0.0621
     67 H         142.0057   73.2170  222.0418 H       1  UNL1        0.0618
     68 H         140.1595   74.6017  221.0833 H       1  UNL1        0.0618
     69 H         137.8105   73.8166  221.3423 H       1  UNL1        0.0636
@<TRIPOS>BOND
     1     1     2    2
     2     2     3    1
     3     3     4   ar
     4     4     5   ar
     5     5     6   ar
     6     6     7   ar
     7     7     8    1
     8     8     9   ar
     9     9    10   ar
    10    10    11   ar
    11    11    12   ar
    12     7    13   ar
    13    13    14   ar
    14    14    15   ar
    15    15    16   ar
    16     2    17   am
    17    17    18    1
    18    19    18    1
    19    19    20    1
    20    20    21    1
    21    21    22    1
    22    22    23    1
    23    23    24    1
    24    24    25    1
    25    25    26    1
    26    26    27    1
    27    27    28    1
    28    28    29    1
    29    22    30    1
    30    19    31    1
    31    31    32   ar
    32    32    33   ar
    33    33    34   ar
    34    34    35   ar
    35    35    36   ar
    36    16     3   ar
    37    36    17    1
    38    15     5   ar
    39    30    19    1
    40    36    31   ar
    41    12     8   ar
    42    29    24    1
    43     4    37    1
    44     6    38    1
    45     9    39    1
    46    11    40    1
    47    12    41    1
    48    13    42    1
    49    14    43    1
    50    16    44    1
    51    18    45    1
    52    18    46    1
    53    20    47    1
    54    20    48    1
    55    21    49    1
    56    21    50    1
    57    23    51    1
    58    23    52    1
    59    24    53    1
    60    25    54    1
    61    25    55    1
    62    26    56    1
    63    26    57    1
    64    27    58    1
    65    27    59    1
    66    28    60    1
    67    28    61    1
    68    29    62    1
    69    29    63    1
    70    30    64    1
    71    30    65    1
    72    32    66    1
    73    33    67    1
    74    34    68    1
    75    35    69    1
