
     RDKit          3D

 61 64  0  0  0  0  0  0  0  0999 V2000
  140.4630   70.9930  221.6940 O   0  0  0  0  0  0  0  0  0  0  0  0
  140.0770   71.6620  222.7140 C   0  0  0  0  0  0  0  0  0  0  0  0
  139.4950   72.9720  222.5230 N   0  0  0  0  0  0  0  0  0  0  0  0
  139.3110   73.5830  221.2740 C   0  0  0  0  0  0  0  0  0  0  0  0
  140.2100   74.5550  220.7080 C   0  0  0  0  0  0  0  0  0  0  0  0
  139.6040   75.6210  220.2540 O   0  0  0  0  0  0  0  0  0  0  0  0
  141.6130   74.5830  220.5450 N   0  0  0  0  0  0  0  0  0  0  0  0
  142.4130   73.4030  220.8410 C   0  0  0  0  0  0  0  0  0  0  0  0
  143.6520   73.2010  220.0420 C   0  0  0  0  0  0  0  0  0  0  0  0
  144.2330   74.4400  219.4840 C   0  0  0  0  0  0  0  0  0  0  0  0
  143.1510   75.3520  218.8930 C   0  0  0  0  0  0  0  0  0  0  0  0
  142.3390   75.7710  220.1370 C   0  0  1  0  0  0  0  0  0  0  0  0
  141.5690   76.9980  219.8660 C   0  0  0  0  0  0  0  0  0  0  0  0
  141.8480   77.9610  220.9630 N   0  0  0  0  0  0  0  0  0  0  0  0
  141.0970   78.0060  222.1420 C   0  0  0  0  0  0  0  0  0  0  0  0
  140.1230   77.2530  222.3940 O   0  0  0  0  0  0  0  0  0  0  0  0
  141.4600   79.0030  223.1780 C   0  0  0  0  0  0  0  0  0  0  0  0
  140.6510   80.2740  223.0480 C   0  0  0  0  0  0  0  0  0  0  0  0
  141.4680   81.2750  223.8710 C   0  0  0  0  0  0  0  0  0  0  0  0
  142.9040   80.8380  223.7190 C   0  0  0  0  0  0  0  0  0  0  0  0
  142.8740   79.5120  223.0090 C   0  0  0  0  0  0  0  0  0  0  0  0
  140.2250   71.1020  224.0540 C   0  0  0  0  0  0  0  0  0  0  0  0
  140.7390   71.8940  225.0570 C   0  0  0  0  0  0  0  0  0  0  0  0
  140.9170   71.4570  226.3530 C   0  0  0  0  0  0  0  0  0  0  0  0
  140.5410   70.1340  226.6080 C   0  0  0  0  0  0  0  0  0  0  0  0
  140.7200   69.6940  227.9120 C   0  0  0  0  0  0  0  0  0  0  0  0
  140.3590   68.4000  228.1870 C   0  0  0  0  0  0  0  0  0  0  0  0
  140.5330   67.9640  229.4670 F   0  0  0  0  0  0  0  0  0  0  0  0
  139.8430   67.5870  227.2080 C   0  0  0  0  0  0  0  0  0  0  0  0
  139.6670   68.0390  225.8970 C   0  0  0  0  0  0  0  0  0  0  0  0
  140.0280   69.3400  225.6120 C   0  0  0  0  0  0  0  0  0  0  0  0
  139.8770   69.8300  224.3550 N   0  0  0  0  0  0  0  0  0  0  0  0
  139.2140   73.4390  223.4290 H   0  0  0  0  0  0  0  0  0  0  0  0
  139.2651   72.7607  220.5448 H   0  0  0  0  0  0  0  0  0  0  0  0
  138.4305   74.2099  221.4781 H   0  0  0  0  0  0  0  0  0  0  0  0
  142.7078   73.4605  221.8992 H   0  0  0  0  0  0  0  0  0  0  0  0
  141.7672   72.5513  220.5812 H   0  0  0  0  0  0  0  0  0  0  0  0
  144.4056   72.7305  220.6906 H   0  0  0  0  0  0  0  0  0  0  0  0
  143.3703   72.5743  219.1830 H   0  0  0  0  0  0  0  0  0  0  0  0
  144.7579   74.9810  220.2852 H   0  0  0  0  0  0  0  0  0  0  0  0
  144.9282   74.1625  218.6780 H   0  0  0  0  0  0  0  0  0  0  0  0
  143.5975   76.2271  218.3982 H   0  0  0  0  0  0  0  0  0  0  0  0
  142.5414   74.8601  218.1208 H   0  0  0  0  0  0  0  0  0  0  0  0
  142.9442   76.0850  221.0002 H   0  0  0  0  0  0  0  0  0  0  0  0
  141.8784   77.4287  218.9023 H   0  0  0  0  0  0  0  0  0  0  0  0
  140.4933   76.7734  219.8162 H   0  0  0  0  0  0  0  0  0  0  0  0
  142.6470   78.6400  220.8460 H   0  0  0  0  0  0  0  0  0  0  0  0
  141.2959   78.4693  224.1257 H   0  0  0  0  0  0  0  0  0  0  0  0
  140.5758   80.5913  221.9974 H   0  0  0  0  0  0  0  0  0  0  0  0
  139.6118   80.1687  223.3929 H   0  0  0  0  0  0  0  0  0  0  0  0
  141.3325   82.2950  223.4820 H   0  0  0  0  0  0  0  0  0  0  0  0
  141.1541   81.2918  224.9251 H   0  0  0  0  0  0  0  0  0  0  0  0
  143.4645   81.5747  223.1247 H   0  0  0  0  0  0  0  0  0  0  0  0
  143.4001   80.7543  224.6972 H   0  0  0  0  0  0  0  0  0  0  0  0
  143.1130   79.6399  221.9429 H   0  0  0  0  0  0  0  0  0  0  0  0
  143.6151   78.8098  223.4184 H   0  0  0  0  0  0  0  0  0  0  0  0
  141.0221   72.9283  224.8117 H   0  0  0  0  0  0  0  0  0  0  0  0
  141.3292   72.1086  227.1376 H   0  0  0  0  0  0  0  0  0  0  0  0
  141.1328   70.3534  228.6897 H   0  0  0  0  0  0  0  0  0  0  0  0
  139.5612   66.5544  227.4617 H   0  0  0  0  0  0  0  0  0  0  0  0
  139.2547   67.3799  225.1188 H   0  0  0  0  0  0  0  0  0  0  0  0
  1  2  2  0
  2  3  1  0
  3  4  1  0
  4  5  1  0
  5  6  2  0
  5  7  1  0
  7  8  1  0
  8  9  1  0
  9 10  1  0
 10 11  1  0
 11 12  1  0
 12 13  1  0
 13 14  1  0
 14 15  1  0
 15 16  2  0
 15 17  1  0
 17 18  1  0
 18 19  1  0
 19 20  1  0
 20 21  1  0
  2 22  1  0
 22 23  2  0
 23 24  1  0
 24 25  2  0
 25 26  1  0
 26 27  2  0
 27 28  1  0
 27 29  1  0
 29 30  2  0
 30 31  1  0
 31 32  2  0
 12  7  1  0
 21 17  1  0
 32 22  1  0
 31 25  1  0
  3 33  1  0
  4 34  1  0
  4 35  1  0
  8 36  1  0
  8 37  1  0
  9 38  1  0
  9 39  1  0
 10 40  1  0
 10 41  1  0
 11 42  1  0
 11 43  1  0
 12 44  1  1
 13 45  1  0
 13 46  1  0
 14 47  1  0
 17 48  1  0
 18 49  1  0
 18 50  1  0
 19 51  1  0
 19 52  1  0
 20 53  1  0
 20 54  1  0
 21 55  1  0
 21 56  1  0
 23 57  1  0
 24 58  1  0
 26 59  1  0
 29 60  1  0
 30 61  1  0
M  END
>  <smiles>  (1) 
O=C(NCC(=O)N1CCCC[C@H]1CNC(=O)C1CCCC1)c1ccc2cc(F)ccc2n1

>  <score_type>  (1) 
oracle

>  <origin>  (1) 
autodockgpu

>  <m_score__min__energy>  (1) 
-9.3599999999999994

>  <m_primary>  (1) 
energy

>  <rmsd>  (1) 
3.2323514232195634

>  <m_score__min__rmsd>  (1) 
3.2323514232195634

>  <meeko>  (1) 
{"free_energy": -9.36, "intermolecular_energy": -11.45, "internal_energy": -0.99, "cluster_size": 37, "cluster_id": 1, "rank_in_cluster": 2}

>  <energy>  (1) 
-9.36

>  <cluster_rmsd>  (1) 
0.0

>  <cluster>  (1) 
1

$$$$

     RDKit          3D

 61 64  0  0  0  0  0  0  0  0999 V2000
  140.3020   74.2230  220.1540 O   0  0  0  0  0  0  0  0  0  0  0  0
  139.9970   74.8480  221.2280 C   0  0  0  0  0  0  0  0  0  0  0  0
  139.1450   74.2060  222.2040 N   0  0  0  0  0  0  0  0  0  0  0  0
  138.6130   72.9160  222.0650 C   0  0  0  0  0  0  0  0  0  0  0  0
  139.4060   71.7150  222.0190 C   0  0  0  0  0  0  0  0  0  0  0  0
  140.4750   71.7680  222.7710 O   0  0  0  0  0  0  0  0  0  0  0  0
  139.2590   70.4950  221.3210 N   0  0  0  0  0  0  0  0  0  0  0  0
  139.8550   70.3220  220.0040 C   0  0  0  0  0  0  0  0  0  0  0  0
  140.3040   68.9530  219.6330 C   0  0  0  0  0  0  0  0  0  0  0  0
  139.6020   67.8620  220.3410 C   0  0  0  0  0  0  0  0  0  0  0  0
  139.4410   68.1730  221.8330 C   0  0  0  0  0  0  0  0  0  0  0  0
  138.4810   69.3820  221.8300 C   0  0  1  0  0  0  0  0  0  0  0  0
  137.8280   69.5300  223.1430 C   0  0  0  0  0  0  0  0  0  0  0  0
  138.8850   69.8340  224.1440 N   0  0  0  0  0  0  0  0  0  0  0  0
  139.3220   68.9030  225.0910 C   0  0  0  0  0  0  0  0  0  0  0  0
  138.8750   67.7330  225.1980 O   0  0  0  0  0  0  0  0  0  0  0  0
  140.3850   69.3040  226.0440 C   0  0  0  0  0  0  0  0  0  0  0  0
  140.1990   68.6650  227.4010 C   0  0  0  0  0  0  0  0  0  0  0  0
  141.0830   69.5330  228.3030 C   0  0  0  0  0  0  0  0  0  0  0  0
  141.0370   70.9130  227.6960 C   0  0  0  0  0  0  0  0  0  0  0  0
  140.3230   70.7780  226.3790 C   0  0  0  0  0  0  0  0  0  0  0  0
  140.5100   76.1960  221.4590 C   0  0  0  0  0  0  0  0  0  0  0  0
  141.4970   76.6870  220.6330 C   0  0  0  0  0  0  0  0  0  0  0  0
  142.0440   77.9450  220.7690 C   0  0  0  0  0  0  0  0  0  0  0  0
  141.5360   78.7210  221.8160 C   0  0  0  0  0  0  0  0  0  0  0  0
  142.0870   79.9870  221.9540 C   0  0  0  0  0  0  0  0  0  0  0  0
  141.6050   80.7680  222.9730 C   0  0  0  0  0  0  0  0  0  0  0  0
  142.1440   82.0130  223.1130 F   0  0  0  0  0  0  0  0  0  0  0  0
  140.6220   80.3060  223.8130 C   0  0  0  0  0  0  0  0  0  0  0  0
  140.0720   79.0290  223.6670 C   0  0  0  0  0  0  0  0  0  0  0  0
  140.5520   78.2370  222.6430 C   0  0  0  0  0  0  0  0  0  0  0  0
  140.0540   76.9890  222.4550 N   0  0  0  0  0  0  0  0  0  0  0  0
  138.9530   74.8100  223.0500 H   0  0  0  0  0  0  0  0  0  0  0  0
  137.9244   72.7854  222.9128 H   0  0  0  0  0  0  0  0  0  0  0  0
  138.2380   72.9566  221.0317 H   0  0  0  0  0  0  0  0  0  0  0  0
  139.1094   70.6383  219.2597 H   0  0  0  0  0  0  0  0  0  0  0  0
  140.7753   70.9240  220.0291 H   0  0  0  0  0  0  0  0  0  0  0  0
  140.1433   68.8202  218.5529 H   0  0  0  0  0  0  0  0  0  0  0  0
  141.3626   68.8827  219.9237 H   0  0  0  0  0  0  0  0  0  0  0  0
  138.6057   67.7288  219.8941 H   0  0  0  0  0  0  0  0  0  0  0  0
  140.2012   66.9448  220.2423 H   0  0  0  0  0  0  0  0  0  0  0  0
  139.0015   67.3196  222.3702 H   0  0  0  0  0  0  0  0  0  0  0  0
  140.3955   68.3767  222.3404 H   0  0  0  0  0  0  0  0  0  0  0  0
  137.6081   69.2786  221.1687 H   0  0  0  0  0  0  0  0  0  0  0  0
  137.0984   70.3524  223.1076 H   0  0  0  0  0  0  0  0  0  0  0  0
  137.2960   68.6062  223.4141 H   0  0  0  0  0  0  0  0  0  0  0  0
  139.3220   70.7940  224.1380 H   0  0  0  0  0  0  0  0  0  0  0  0
  141.3165   69.0067  225.5400 H   0  0  0  0  0  0  0  0  0  0  0  0
  139.1466   68.7059  227.7183 H   0  0  0  0  0  0  0  0  0  0  0  0
  140.4660   67.5981  227.4226 H   0  0  0  0  0  0  0  0  0  0  0  0
  140.6872   69.5500  229.3292 H   0  0  0  0  0  0  0  0  0  0  0  0
  142.1109   69.1461  228.3648 H   0  0  0  0  0  0  0  0  0  0  0  0
  140.4885   71.6004  228.3567 H   0  0  0  0  0  0  0  0  0  0  0  0
  142.0494   71.3208  227.5591 H   0  0  0  0  0  0  0  0  0  0  0  0
  139.2781   71.1092  226.4709 H   0  0  0  0  0  0  0  0  0  0  0  0
  140.7841   71.3976  225.5957 H   0  0  0  0  0  0  0  0  0  0  0  0
  141.8679   76.0418  219.8229 H   0  0  0  0  0  0  0  0  0  0  0  0
  142.8312   78.3156  220.0959 H   0  0  0  0  0  0  0  0  0  0  0  0
  142.8749   80.3479  221.2766 H   0  0  0  0  0  0  0  0  0  0  0  0
  140.2580   80.9572  224.6214 H   0  0  0  0  0  0  0  0  0  0  0  0
  139.2842   78.6678  224.3444 H   0  0  0  0  0  0  0  0  0  0  0  0
  1  2  2  0
  2  3  1  0
  3  4  1  0
  4  5  1  0
  5  6  2  0
  5  7  1  0
  7  8  1  0
  8  9  1  0
  9 10  1  0
 10 11  1  0
 11 12  1  0
 12 13  1  0
 13 14  1  0
 14 15  1  0
 15 16  2  0
 15 17  1  0
 17 18  1  0
 18 19  1  0
 19 20  1  0
 20 21  1  0
  2 22  1  0
 22 23  2  0
 23 24  1  0
 24 25  2  0
 25 26  1  0
 26 27  2  0
 27 28  1  0
 27 29  1  0
 29 30  2  0
 30 31  1  0
 31 32  2  0
 12  7  1  0
 21 17  1  0
 32 22  1  0
 31 25  1  0
  3 33  1  0
  4 34  1  0
  4 35  1  0
  8 36  1  0
  8 37  1  0
  9 38  1  0
  9 39  1  0
 10 40  1  0
 10 41  1  0
 11 42  1  0
 11 43  1  0
 12 44  1  6
 13 45  1  0
 13 46  1  0
 14 47  1  0
 17 48  1  0
 18 49  1  0
 18 50  1  0
 19 51  1  0
 19 52  1  0
 20 53  1  0
 20 54  1  0
 21 55  1  0
 21 56  1  0
 23 57  1  0
 24 58  1  0
 26 59  1  0
 29 60  1  0
 30 61  1  0
M  END
>  <smiles>  (2) 
O=C(NCC(=O)N1CCCC[C@H]1CNC(=O)C1CCCC1)c1ccc2cc(F)ccc2n1

>  <score_type>  (2) 
oracle

>  <origin>  (2) 
autodockgpu

>  <m_score__min__energy>  (2) 
-9.3599999999999994

>  <m_primary>  (2) 
energy

>  <rmsd>  (2) 
9.402415226183354

>  <m_score__min__rmsd>  (2) 
9.402415226183354

>  <meeko>  (2) 
{"free_energy": -7.87, "intermolecular_energy": -9.95, "internal_energy": -2.52, "cluster_size": 5, "cluster_id": 2, "rank_in_cluster": 2}

>  <energy>  (2) 
-9.36

>  <cluster_rmsd>  (2) 
1.48

>  <cluster>  (2) 
1

$$$$

     RDKit          3D

 61 64  0  0  0  0  0  0  0  0999 V2000
  140.7610   73.4180  222.3890 O   0  0  0  0  0  0  0  0  0  0  0  0
  140.1010   72.3210  222.3830 C   0  0  0  0  0  0  0  0  0  0  0  0
  139.3700   71.9400  221.1960 N   0  0  0  0  0  0  0  0  0  0  0  0
  139.3280   72.6940  220.0140 C   0  0  0  0  0  0  0  0  0  0  0  0
  138.7990   74.0300  219.9250 C   0  0  0  0  0  0  0  0  0  0  0  0
  137.6630   74.0980  219.2820 O   0  0  0  0  0  0  0  0  0  0  0  0
  139.2660   75.2790  220.3930 N   0  0  0  0  0  0  0  0  0  0  0  0
  138.6710   75.8960  221.5700 C   0  0  0  0  0  0  0  0  0  0  0  0
  139.5540   76.7380  222.4200 C   0  0  0  0  0  0  0  0  0  0  0  0
  140.7130   77.3230  221.7120 C   0  0  0  0  0  0  0  0  0  0  0  0
  141.3850   76.2980  220.7920 C   0  0  0  0  0  0  0  0  0  0  0  0
  140.3040   76.0380  219.7210 C   0  0  1  0  0  0  0  0  0  0  0  0
  140.9060   75.4680  218.5020 C   0  0  0  0  0  0  0  0  0  0  0  0
  142.3360   75.1860  218.7920 N   0  0  0  0  0  0  0  0  0  0  0  0
  142.8300   73.8920  218.9860 C   0  0  0  0  0  0  0  0  0  0  0  0
  142.1300   72.8490  218.9400 O   0  0  0  0  0  0  0  0  0  0  0  0
  144.2760   73.7170  219.2670 C   0  0  0  0  0  0  0  0  0  0  0  0
  144.6030   72.3040  219.6920 C   0  0  0  0  0  0  0  0  0  0  0  0
  145.9810   72.4620  220.3420 C   0  0  0  0  0  0  0  0  0  0  0  0
  145.9800   73.8440  220.9470 C   0  0  0  0  0  0  0  0  0  0  0  0
  144.7230   74.5190  220.4690 C   0  0  0  0  0  0  0  0  0  0  0  0
  140.0930   71.4690  223.5690 C   0  0  0  0  0  0  0  0  0  0  0  0
  139.5490   70.2060  223.4800 C   0  0  0  0  0  0  0  0  0  0  0  0
  139.4950   69.3270  224.5410 C   0  0  0  0  0  0  0  0  0  0  0  0
  140.0320   69.7920  225.7460 C   0  0  0  0  0  0  0  0  0  0  0  0
  139.9770   68.9080  226.8150 C   0  0  0  0  0  0  0  0  0  0  0  0
  140.4980   69.3400  228.0070 C   0  0  0  0  0  0  0  0  0  0  0  0
  140.4460   68.4750  229.0600 F   0  0  0  0  0  0  0  0  0  0  0  0
  141.0470   70.5940  228.1260 C   0  0  0  0  0  0  0  0  0  0  0  0
  141.0980   71.4780  227.0440 C   0  0  0  0  0  0  0  0  0  0  0  0
  140.5750   71.0500  225.8410 C   0  0  0  0  0  0  0  0  0  0  0  0
  140.5990   71.8670  224.7570 N   0  0  0  0  0  0  0  0  0  0  0  0
  138.8590   71.0200  221.2990 H   0  0  0  0  0  0  0  0  0  0  0  0
  140.3700   72.7633  219.6685 H   0  0  0  0  0  0  0  0  0  0  0  0
  138.5759   72.1347  219.4383 H   0  0  0  0  0  0  0  0  0  0  0  0
  137.8408   76.5305  221.2262 H   0  0  0  0  0  0  0  0  0  0  0  0
  138.3806   75.0528  222.2139 H   0  0  0  0  0  0  0  0  0  0  0  0
  138.9514   77.5614  222.8308 H   0  0  0  0  0  0  0  0  0  0  0  0
  139.9644   76.0753  223.1962 H   0  0  0  0  0  0  0  0  0  0  0  0
  140.3694   78.1751  221.1071 H   0  0  0  0  0  0  0  0  0  0  0  0
  141.4485   77.6471  222.4630 H   0  0  0  0  0  0  0  0  0  0  0  0
  142.2991   76.7106  220.3402 H   0  0  0  0  0  0  0  0  0  0  0  0
  141.7055   75.3861  221.3171 H   0  0  0  0  0  0  0  0  0  0  0  0
  139.8244   76.9424  219.3184 H   0  0  0  0  0  0  0  0  0  0  0  0
  140.3885   74.5364  218.2293 H   0  0  0  0  0  0  0  0  0  0  0  0
  140.8155   76.1730  217.6624 H   0  0  0  0  0  0  0  0  0  0  0  0
  143.0060   75.9980  218.8540 H   0  0  0  0  0  0  0  0  0  0  0  0
  144.7654   74.0202  218.3297 H   0  0  0  0  0  0  0  0  0  0  0  0
  143.8644   71.9253  220.4138 H   0  0  0  0  0  0  0  0  0  0  0  0
  144.5908   71.5830  218.8613 H   0  0  0  0  0  0  0  0  0  0  0  0
  146.1288   71.7002  221.1217 H   0  0  0  0  0  0  0  0  0  0  0  0
  146.7951   72.3340  219.6134 H   0  0  0  0  0  0  0  0  0  0  0  0
  145.9819   73.7781  222.0450 H   0  0  0  0  0  0  0  0  0  0  0  0
  146.8741   74.4101  220.6470 H   0  0  0  0  0  0  0  0  0  0  0  0
  143.9525   74.5001  221.2538 H   0  0  0  0  0  0  0  0  0  0  0  0
  144.8936   75.5763  220.2180 H   0  0  0  0  0  0  0  0  0  0  0  0
  139.1367   69.8825  222.5129 H   0  0  0  0  0  0  0  0  0  0  0  0
  139.0569   68.3225  224.4457 H   0  0  0  0  0  0  0  0  0  0  0  0
  139.5353   67.9061  226.7102 H   0  0  0  0  0  0  0  0  0  0  0  0
  141.4565   70.9103  229.0967 H   0  0  0  0  0  0  0  0  0  0  0  0
  141.5398   72.4800  227.1482 H   0  0  0  0  0  0  0  0  0  0  0  0
  1  2  2  0
  2  3  1  0
  3  4  1  0
  4  5  1  0
  5  6  2  0
  5  7  1  0
  7  8  1  0
  8  9  1  0
  9 10  1  0
 10 11  1  0
 11 12  1  0
 12 13  1  0
 13 14  1  0
 14 15  1  0
 15 16  2  0
 15 17  1  0
 17 18  1  0
 18 19  1  0
 19 20  1  0
 20 21  1  0
  2 22  1  0
 22 23  2  0
 23 24  1  0
 24 25  2  0
 25 26  1  0
 26 27  2  0
 27 28  1  0
 27 29  1  0
 29 30  2  0
 30 31  1  0
 31 32  2  0
 12  7  1  0
 21 17  1  0
 32 22  1  0
 31 25  1  0
  3 33  1  0
  4 34  1  0
  4 35  1  0
  8 36  1  0
  8 37  1  0
  9 38  1  0
  9 39  1  0
 10 40  1  0
 10 41  1  0
 11 42  1  0
 11 43  1  0
 12 44  1  6
 13 45  1  0
 13 46  1  0
 14 47  1  0
 17 48  1  0
 18 49  1  0
 18 50  1  0
 19 51  1  0
 19 52  1  0
 20 53  1  0
 20 54  1  0
 21 55  1  0
 21 56  1  0
 23 57  1  0
 24 58  1  0
 26 59  1  0
 29 60  1  0
 30 61  1  0
M  END
>  <smiles>  (3) 
O=C(NCC(=O)N1CCCC[C@H]1CNC(=O)C1CCCC1)c1ccc2cc(F)ccc2n1

>  <score_type>  (3) 
oracle

>  <origin>  (3) 
autodockgpu

>  <m_score__min__energy>  (3) 
-9.3599999999999994

>  <m_primary>  (3) 
energy

>  <rmsd>  (3) 
4.916245832148814

>  <m_score__min__rmsd>  (3) 
4.916245832148814

>  <meeko>  (3) 
{"free_energy": -7.35, "intermolecular_energy": -9.43, "internal_energy": -2.22, "cluster_size": 37, "cluster_id": 1, "rank_in_cluster": 36}

>  <energy>  (3) 
-9.35

>  <cluster_rmsd>  (3) 
1.38

>  <cluster>  (3) 
1

$$$$

     RDKit          3D

 61 64  0  0  0  0  0  0  0  0999 V2000
  140.3740   73.3880  222.5730 O   0  0  0  0  0  0  0  0  0  0  0  0
  140.1320   72.1330  222.4980 C   0  0  0  0  0  0  0  0  0  0  0  0
  139.9490   71.5230  221.2000 N   0  0  0  0  0  0  0  0  0  0  0  0
  140.0210   72.2150  219.9820 C   0  0  0  0  0  0  0  0  0  0  0  0
  141.1980   72.8920  219.5040 C   0  0  0  0  0  0  0  0  0  0  0  0
  141.1370   73.2100  218.2370 O   0  0  0  0  0  0  0  0  0  0  0  0
  142.4040   73.2770  220.1320 N   0  0  0  0  0  0  0  0  0  0  0  0
  143.3810   72.2740  220.5320 C   0  0  0  0  0  0  0  0  0  0  0  0
  144.8150   72.6680  220.5020 C   0  0  0  0  0  0  0  0  0  0  0  0
  145.0570   74.1190  220.6430 C   0  0  0  0  0  0  0  0  0  0  0  0
  144.0810   74.9380  219.7900 C   0  0  0  0  0  0  0  0  0  0  0  0
  142.7200   74.6540  220.4610 C   0  0  1  0  0  0  0  0  0  0  0  0
  141.7390   75.6970  220.1080 C   0  0  0  0  0  0  0  0  0  0  0  0
  140.5250   75.4790  220.9370 N   0  0  0  0  0  0  0  0  0  0  0  0
  140.0650   76.4160  221.8680 C   0  0  0  0  0  0  0  0  0  0  0  0
  140.6190   77.5190  222.1010 O   0  0  0  0  0  0  0  0  0  0  0  0
  138.8410   76.1030  222.6440 C   0  0  0  0  0  0  0  0  0  0  0  0
  137.9910   75.0550  221.9620 C   0  0  0  0  0  0  0  0  0  0  0  0
  136.6360   75.2200  222.6570 C   0  0  0  0  0  0  0  0  0  0  0  0
  136.5450   76.6840  223.0080 C   0  0  0  0  0  0  0  0  0  0  0  0
  137.8930   77.2810  222.7120 C   0  0  0  0  0  0  0  0  0  0  0  0
  140.0450   71.3330  223.7160 C   0  0  0  0  0  0  0  0  0  0  0  0
  139.3910   70.1210  223.6740 C   0  0  0  0  0  0  0  0  0  0  0  0
  139.2550   69.2940  224.7690 C   0  0  0  0  0  0  0  0  0  0  0  0
  139.8300   69.7550  225.9580 C   0  0  0  0  0  0  0  0  0  0  0  0
  139.6930   68.9230  227.0600 C   0  0  0  0  0  0  0  0  0  0  0  0
  140.2490   69.3540  228.2370 C   0  0  0  0  0  0  0  0  0  0  0  0
  140.1170   68.5400  229.3230 F   0  0  0  0  0  0  0  0  0  0  0  0
  140.9070   70.5570  228.3100 C   0  0  0  0  0  0  0  0  0  0  0  0
  141.0390   71.3900  227.1940 C   0  0  0  0  0  0  0  0  0  0  0  0
  140.4830   70.9630  226.0050 C   0  0  0  0  0  0  0  0  0  0  0  0
  140.5820   71.7310  224.8910 N   0  0  0  0  0  0  0  0  0  0  0  0
  139.7510   70.4860  221.2520 H   0  0  0  0  0  0  0  0  0  0  0  0
  139.7664   71.4780  219.2061 H   0  0  0  0  0  0  0  0  0  0  0  0
  139.3611   73.0700  220.1906 H   0  0  0  0  0  0  0  0  0  0  0  0
  143.1425   71.9732  221.5628 H   0  0  0  0  0  0  0  0  0  0  0  0
  143.2915   71.4769  219.7793 H   0  0  0  0  0  0  0  0  0  0  0  0
  145.3298   72.1525  221.3262 H   0  0  0  0  0  0  0  0  0  0  0  0
  145.1961   72.3831  219.5102 H   0  0  0  0  0  0  0  0  0  0  0  0
  144.9321   74.4011  221.6989 H   0  0  0  0  0  0  0  0  0  0  0  0
  146.0794   74.3330  220.2983 H   0  0  0  0  0  0  0  0  0  0  0  0
  144.3252   76.0099  219.8273 H   0  0  0  0  0  0  0  0  0  0  0  0
  144.1049   74.6712  218.7231 H   0  0  0  0  0  0  0  0  0  0  0  0
  142.7218   74.7247  221.5587 H   0  0  0  0  0  0  0  0  0  0  0  0
  142.1599   76.6919  220.3154 H   0  0  0  0  0  0  0  0  0  0  0  0
  141.4884   75.6422  219.0383 H   0  0  0  0  0  0  0  0  0  0  0  0
  139.9900   74.5790  220.8170 H   0  0  0  0  0  0  0  0  0  0  0  0
  139.2246   75.7900  223.6263 H   0  0  0  0  0  0  0  0  0  0  0  0
  137.9100   75.2503  220.8825 H   0  0  0  0  0  0  0  0  0  0  0  0
  138.4026   74.0380  222.0416 H   0  0  0  0  0  0  0  0  0  0  0  0
  135.8180   74.9346  221.9792 H   0  0  0  0  0  0  0  0  0  0  0  0
  136.5504   74.5787  223.5466 H   0  0  0  0  0  0  0  0  0  0  0  0
  135.7710   77.1731  222.3983 H   0  0  0  0  0  0  0  0  0  0  0  0
  136.2730   76.8225  224.0648 H   0  0  0  0  0  0  0  0  0  0  0  0
  137.8750   77.8179  221.7521 H   0  0  0  0  0  0  0  0  0  0  0  0
  138.1971   78.0105  223.4771 H   0  0  0  0  0  0  0  0  0  0  0  0
  138.9549   69.7964  222.7177 H   0  0  0  0  0  0  0  0  0  0  0  0
  138.7268   68.3309  224.7111 H   0  0  0  0  0  0  0  0  0  0  0  0
  139.1626   67.9617  226.9925 H   0  0  0  0  0  0  0  0  0  0  0  0
  141.3411   70.8735  229.2699 H   0  0  0  0  0  0  0  0  0  0  0  0
  141.5677   72.3522  227.2616 H   0  0  0  0  0  0  0  0  0  0  0  0
  1  2  2  0
  2  3  1  0
  3  4  1  0
  4  5  1  0
  5  6  2  0
  5  7  1  0
  7  8  1  0
  8  9  1  0
  9 10  1  0
 10 11  1  0
 11 12  1  0
 12 13  1  0
 13 14  1  0
 14 15  1  0
 15 16  2  0
 15 17  1  0
 17 18  1  0
 18 19  1  0
 19 20  1  0
 20 21  1  0
  2 22  1  0
 22 23  2  0
 23 24  1  0
 24 25  2  0
 25 26  1  0
 26 27  2  0
 27 28  1  0
 27 29  1  0
 29 30  2  0
 30 31  1  0
 31 32  2  0
 12  7  1  0
 21 17  1  0
 32 22  1  0
 31 25  1  0
  3 33  1  0
  4 34  1  0
  4 35  1  0
  8 36  1  0
  8 37  1  0
  9 38  1  0
  9 39  1  0
 10 40  1  0
 10 41  1  0
 11 42  1  0
 11 43  1  0
 12 44  1  1
 13 45  1  0
 13 46  1  0
 14 47  1  0
 17 48  1  0
 18 49  1  0
 18 50  1  0
 19 51  1  0
 19 52  1  0
 20 53  1  0
 20 54  1  0
 21 55  1  0
 21 56  1  0
 23 57  1  0
 24 58  1  0
 26 59  1  0
 29 60  1  0
 30 61  1  0
M  END
>  <smiles>  (4) 
O=C(NCC(=O)N1CCCC[C@H]1CNC(=O)C1CCCC1)c1ccc2cc(F)ccc2n1

>  <score_type>  (4) 
oracle

>  <origin>  (4) 
autodockgpu

>  <m_score__min__energy>  (4) 
-9.3599999999999994

>  <m_primary>  (4) 
energy

>  <rmsd>  (4) 
4.011598109183327

>  <m_score__min__rmsd>  (4) 
4.011598109183327

>  <meeko>  (4) 
{"free_energy": -7.59, "intermolecular_energy": -9.68, "internal_energy": -2.78, "cluster_size": 37, "cluster_id": 1, "rank_in_cluster": 31}

>  <energy>  (4) 
-9.34

>  <cluster_rmsd>  (4) 
0.82

>  <cluster>  (4) 
1

$$$$

     RDKit          3D

 61 64  0  0  0  0  0  0  0  0999 V2000
  140.5580   73.4560  222.3620 O   0  0  0  0  0  0  0  0  0  0  0  0
  140.2730   72.2100  222.3080 C   0  0  0  0  0  0  0  0  0  0  0  0
  140.1120   71.5760  221.0180 N   0  0  0  0  0  0  0  0  0  0  0  0
  140.2510   72.2350  219.7880 C   0  0  0  0  0  0  0  0  0  0  0  0
  141.4100   72.9990  219.4050 C   0  0  0  0  0  0  0  0  0  0  0  0
  141.3970   73.3710  218.1520 O   0  0  0  0  0  0  0  0  0  0  0  0
  142.5570   73.4220  220.1150 N   0  0  0  0  0  0  0  0  0  0  0  0
  143.3920   72.4540  220.8100 C   0  0  0  0  0  0  0  0  0  0  0  0
  144.8460   72.7530  220.9070 C   0  0  0  0  0  0  0  0  0  0  0  0
  145.1860   74.1890  220.8280 C   0  0  0  0  0  0  0  0  0  0  0  0
  144.3920   74.8940  219.7230 C   0  0  0  0  0  0  0  0  0  0  0  0
  142.9390   74.8150  220.2410 C   0  0  1  0  0  0  0  0  0  0  0  0
  142.0970   75.8310  219.5840 C   0  0  0  0  0  0  0  0  0  0  0  0
  142.0780   77.0370  220.4530 N   0  0  0  0  0  0  0  0  0  0  0  0
  141.0210   77.3280  221.3220 C   0  0  0  0  0  0  0  0  0  0  0  0
  139.9940   76.6170  221.4570 O   0  0  0  0  0  0  0  0  0  0  0  0
  141.1010   78.5560  222.1500 C   0  0  0  0  0  0  0  0  0  0  0  0
  142.0930   79.5510  221.5930 C   0  0  0  0  0  0  0  0  0  0  0  0
  142.3410   80.4790  222.7860 C   0  0  0  0  0  0  0  0  0  0  0  0
  142.1930   79.6060  224.0070 C   0  0  0  0  0  0  0  0  0  0  0  0
  141.6700   78.2800  223.5240 C   0  0  0  0  0  0  0  0  0  0  0  0
  140.1140   71.4430  223.5390 C   0  0  0  0  0  0  0  0  0  0  0  0
  139.3860   70.2740  223.5100 C   0  0  0  0  0  0  0  0  0  0  0  0
  139.1790   69.4800  224.6180 C   0  0  0  0  0  0  0  0  0  0  0  0
  139.7620   69.9300  225.8080 C   0  0  0  0  0  0  0  0  0  0  0  0
  139.5540   69.1310  226.9230 C   0  0  0  0  0  0  0  0  0  0  0  0
  140.1150   69.5510  228.1020 C   0  0  0  0  0  0  0  0  0  0  0  0
  139.9140   68.7700  229.2010 F   0  0  0  0  0  0  0  0  0  0  0  0
  140.8470   70.7110  228.1630 C   0  0  0  0  0  0  0  0  0  0  0  0
  141.0510   71.5100  227.0330 C   0  0  0  0  0  0  0  0  0  0  0  0
  140.4890   71.0940  225.8430 C   0  0  0  0  0  0  0  0  0  0  0  0
  140.6560   71.8310  224.7160 N   0  0  0  0  0  0  0  0  0  0  0  0
  139.8740   70.5480  221.0860 H   0  0  0  0  0  0  0  0  0  0  0  0
  140.1416   71.4557  219.0194 H   0  0  0  0  0  0  0  0  0  0  0  0
  139.5030   73.0343  219.8960 H   0  0  0  0  0  0  0  0  0  0  0  0
  143.0049   72.3594  221.8353 H   0  0  0  0  0  0  0  0  0  0  0  0
  143.3315   71.5399  220.2012 H   0  0  0  0  0  0  0  0  0  0  0  0
  145.2122   72.3663  221.8695 H   0  0  0  0  0  0  0  0  0  0  0  0
  145.3214   72.2722  220.0394 H   0  0  0  0  0  0  0  0  0  0  0  0
  144.9555   74.6645  221.7928 H   0  0  0  0  0  0  0  0  0  0  0  0
  146.2571   74.2778  220.5938 H   0  0  0  0  0  0  0  0  0  0  0  0
  144.7153   75.9391  219.6082 H   0  0  0  0  0  0  0  0  0  0  0  0
  144.5260   74.4369  218.7315 H   0  0  0  0  0  0  0  0  0  0  0  0
  142.8096   75.0838  221.2998 H   0  0  0  0  0  0  0  0  0  0  0  0
  142.5172   76.0856  218.5998 H   0  0  0  0  0  0  0  0  0  0  0  0
  141.0766   75.4475  219.4369 H   0  0  0  0  0  0  0  0  0  0  0  0
  142.8960   77.7000  220.4110 H   0  0  0  0  0  0  0  0  0  0  0  0
  140.0661   78.9283  222.1694 H   0  0  0  0  0  0  0  0  0  0  0  0
  143.0215   79.0522  221.2781 H   0  0  0  0  0  0  0  0  0  0  0  0
  141.7295   80.0768  220.6978 H   0  0  0  0  0  0  0  0  0  0  0  0
  143.3537   80.9059  222.7381 H   0  0  0  0  0  0  0  0  0  0  0  0
  141.6389   81.3257  222.7998 H   0  0  0  0  0  0  0  0  0  0  0  0
  143.1675   79.4734  224.4996 H   0  0  0  0  0  0  0  0  0  0  0  0
  141.5096   80.0599  224.7398 H   0  0  0  0  0  0  0  0  0  0  0  0
  142.4842   77.5428  223.4636 H   0  0  0  0  0  0  0  0  0  0  0  0
  140.9147   77.8624  224.2060 H   0  0  0  0  0  0  0  0  0  0  0  0
  138.9467   69.9573  222.5525 H   0  0  0  0  0  0  0  0  0  0  0  0
  138.5922   68.5508  224.5696 H   0  0  0  0  0  0  0  0  0  0  0  0
  138.9661   68.2032  226.8642 H   0  0  0  0  0  0  0  0  0  0  0  0
  141.2838   71.0197  229.1242 H   0  0  0  0  0  0  0  0  0  0  0  0
  141.6390   72.4378  227.0909 H   0  0  0  0  0  0  0  0  0  0  0  0
  1  2  2  0
  2  3  1  0
  3  4  1  0
  4  5  1  0
  5  6  2  0
  5  7  1  0
  7  8  1  0
  8  9  1  0
  9 10  1  0
 10 11  1  0
 11 12  1  0
 12 13  1  0
 13 14  1  0
 14 15  1  0
 15 16  2  0
 15 17  1  0
 17 18  1  0
 18 19  1  0
 19 20  1  0
 20 21  1  0
  2 22  1  0
 22 23  2  0
 23 24  1  0
 24 25  2  0
 25 26  1  0
 26 27  2  0
 27 28  1  0
 27 29  1  0
 29 30  2  0
 30 31  1  0
 31 32  2  0
 12  7  1  0
 21 17  1  0
 32 22  1  0
 31 25  1  0
  3 33  1  0
  4 34  1  0
  4 35  1  0
  8 36  1  0
  8 37  1  0
  9 38  1  0
  9 39  1  0
 10 40  1  0
 10 41  1  0
 11 42  1  0
 11 43  1  0
 12 44  1  1
 13 45  1  0
 13 46  1  0
 14 47  1  0
 17 48  1  0
 18 49  1  0
 18 50  1  0
 19 51  1  0
 19 52  1  0
 20 53  1  0
 20 54  1  0
 21 55  1  0
 21 56  1  0
 23 57  1  0
 24 58  1  0
 26 59  1  0
 29 60  1  0
 30 61  1  0
M  END
>  <smiles>  (5) 
O=C(NCC(=O)N1CCCC[C@H]1CNC(=O)C1CCCC1)c1ccc2cc(F)ccc2n1

>  <score_type>  (5) 
oracle

>  <origin>  (5) 
autodockgpu

>  <m_score__min__energy>  (5) 
-9.3599999999999994

>  <m_primary>  (5) 
energy

>  <rmsd>  (5) 
3.555329703442164

>  <m_score__min__rmsd>  (5) 
3.555329703442164

>  <meeko>  (5) 
{"free_energy": -8.97, "intermolecular_energy": -11.06, "internal_energy": -1.77, "cluster_size": 37, "cluster_id": 1, "rank_in_cluster": 16}

>  <energy>  (5) 
-9.34

>  <cluster_rmsd>  (5) 
1.37

>  <cluster>  (5) 
1

$$$$

     RDKit          3D

 61 64  0  0  0  0  0  0  0  0999 V2000
  140.2310   73.2870  222.7140 O   0  0  0  0  0  0  0  0  0  0  0  0
  140.1030   72.0190  222.5920 C   0  0  0  0  0  0  0  0  0  0  0  0
  139.9940   71.4430  221.2700 N   0  0  0  0  0  0  0  0  0  0  0  0
  140.0220   72.1810  220.0780 C   0  0  0  0  0  0  0  0  0  0  0  0
  141.2150   72.7460  219.5040 C   0  0  0  0  0  0  0  0  0  0  0  0
  141.2240   72.7230  218.1960 O   0  0  0  0  0  0  0  0  0  0  0  0
  142.3750   73.3170  220.0730 N   0  0  0  0  0  0  0  0  0  0  0  0
  143.6210   72.5650  220.1200 C   0  0  0  0  0  0  0  0  0  0  0  0
  144.8890   73.3380  220.0310 C   0  0  0  0  0  0  0  0  0  0  0  0
  144.7870   74.7410  220.4840 C   0  0  0  0  0  0  0  0  0  0  0  0
  143.5120   75.4110  219.9570 C   0  0  0  0  0  0  0  0  0  0  0  0
  142.3920   74.6340  220.6820 C   0  0  1  0  0  0  0  0  0  0  0  0
  141.1410   75.4130  220.6910 C   0  0  0  0  0  0  0  0  0  0  0  0
  141.4250   76.7210  221.3390 N   0  0  0  0  0  0  0  0  0  0  0  0
  140.4410   77.4760  221.9840 C   0  0  0  0  0  0  0  0  0  0  0  0
  139.2350   77.1390  222.0820 O   0  0  0  0  0  0  0  0  0  0  0  0
  140.8290   78.7670  222.6020 C   0  0  0  0  0  0  0  0  0  0  0  0
  141.5740   79.6570  221.6340 C   0  0  0  0  0  0  0  0  0  0  0  0
  142.2450   80.6740  222.5630 C   0  0  0  0  0  0  0  0  0  0  0  0
  142.5250   79.9220  223.8400 C   0  0  0  0  0  0  0  0  0  0  0  0
  141.8440   78.5870  223.7090 C   0  0  0  0  0  0  0  0  0  0  0  0
  140.0700   71.1710  223.7790 C   0  0  0  0  0  0  0  0  0  0  0  0
  139.4840   69.9270  223.6970 C   0  0  0  0  0  0  0  0  0  0  0  0
  139.4030   69.0540  224.7600 C   0  0  0  0  0  0  0  0  0  0  0  0
  139.9600   69.5030  225.9620 C   0  0  0  0  0  0  0  0  0  0  0  0
  139.8790   68.6240  227.0330 C   0  0  0  0  0  0  0  0  0  0  0  0
  140.4180   69.0420  228.2230 C   0  0  0  0  0  0  0  0  0  0  0  0
  140.3400   68.1820  229.2780 F   0  0  0  0  0  0  0  0  0  0  0  0
  141.0090   70.2770  228.3370 C   0  0  0  0  0  0  0  0  0  0  0  0
  141.0860   71.1560  227.2510 C   0  0  0  0  0  0  0  0  0  0  0  0
  140.5450   70.7420  226.0510 C   0  0  0  0  0  0  0  0  0  0  0  0
  140.5940   71.5550  224.9650 N   0  0  0  0  0  0  0  0  0  0  0  0
  139.8890   70.3910  221.2830 H   0  0  0  0  0  0  0  0  0  0  0  0
  139.6075   71.5153  219.3066 H   0  0  0  0  0  0  0  0  0  0  0  0
  139.4891   73.0925  220.3864 H   0  0  0  0  0  0  0  0  0  0  0  0
  143.6373   72.0120  221.0707 H   0  0  0  0  0  0  0  0  0  0  0  0
  143.6076   71.9400  219.2149 H   0  0  0  0  0  0  0  0  0  0  0  0
  145.6439   72.8315  220.6504 H   0  0  0  0  0  0  0  0  0  0  0  0
  145.1586   73.3732  218.9651 H   0  0  0  0  0  0  0  0  0  0  0  0
  144.7730   74.7613  221.5837 H   0  0  0  0  0  0  0  0  0  0  0  0
  145.6540   75.2936  220.0929 H   0  0  0  0  0  0  0  0  0  0  0  0
  143.4878   76.4788  220.2203 H   0  0  0  0  0  0  0  0  0  0  0  0
  143.4247   75.3792  218.8609 H   0  0  0  0  0  0  0  0  0  0  0  0
  142.5568   74.4825  221.7590 H   0  0  0  0  0  0  0  0  0  0  0  0
  140.7929   75.5739  219.6600 H   0  0  0  0  0  0  0  0  0  0  0  0
  140.3563   74.8736  221.2417 H   0  0  0  0  0  0  0  0  0  0  0  0
  142.4110   77.0930  221.3080 H   0  0  0  0  0  0  0  0  0  0  0  0
  139.8742   79.1910  222.9463 H   0  0  0  0  0  0  0  0  0  0  0  0
  142.3218   79.0857  221.0645 H   0  0  0  0  0  0  0  0  0  0  0  0
  140.9244   80.1191  220.8761 H   0  0  0  0  0  0  0  0  0  0  0  0
  143.1818   81.0419  222.1191 H   0  0  0  0  0  0  0  0  0  0  0  0
  141.6080   81.5539  222.7364 H   0  0  0  0  0  0  0  0  0  0  0  0
  143.6086   79.7845  223.9700 H   0  0  0  0  0  0  0  0  0  0  0  0
  142.1527   80.4737  224.7158 H   0  0  0  0  0  0  0  0  0  0  0  0
  142.5721   77.8070  223.4417 H   0  0  0  0  0  0  0  0  0  0  0  0
  141.3730   78.2713  224.6516 H   0  0  0  0  0  0  0  0  0  0  0  0
  139.0583   69.6141  222.7322 H   0  0  0  0  0  0  0  0  0  0  0  0
  138.9296   68.0652  224.6690 H   0  0  0  0  0  0  0  0  0  0  0  0
  139.4041   67.6369  226.9321 H   0  0  0  0  0  0  0  0  0  0  0  0
  141.4319   70.5822  229.3055 H   0  0  0  0  0  0  0  0  0  0  0  0
  141.5614   72.1430  227.3505 H   0  0  0  0  0  0  0  0  0  0  0  0
  1  2  2  0
  2  3  1  0
  3  4  1  0
  4  5  1  0
  5  6  2  0
  5  7  1  0
  7  8  1  0
  8  9  1  0
  9 10  1  0
 10 11  1  0
 11 12  1  0
 12 13  1  0
 13 14  1  0
 14 15  1  0
 15 16  2  0
 15 17  1  0
 17 18  1  0
 18 19  1  0
 19 20  1  0
 20 21  1  0
  2 22  1  0
 22 23  2  0
 23 24  1  0
 24 25  2  0
 25 26  1  0
 26 27  2  0
 27 28  1  0
 27 29  1  0
 29 30  2  0
 30 31  1  0
 31 32  2  0
 12  7  1  0
 21 17  1  0
 32 22  1  0
 31 25  1  0
  3 33  1  0
  4 34  1  0
  4 35  1  0
  8 36  1  0
  8 37  1  0
  9 38  1  0
  9 39  1  0
 10 40  1  0
 10 41  1  0
 11 42  1  0
 11 43  1  0
 12 44  1  1
 13 45  1  0
 13 46  1  0
 14 47  1  0
 17 48  1  0
 18 49  1  0
 18 50  1  0
 19 51  1  0
 19 52  1  0
 20 53  1  0
 20 54  1  0
 21 55  1  0
 21 56  1  0
 23 57  1  0
 24 58  1  0
 26 59  1  0
 29 60  1  0
 30 61  1  0
M  END
>  <smiles>  (6) 
O=C(NCC(=O)N1CCCC[C@H]1CNC(=O)C1CCCC1)c1ccc2cc(F)ccc2n1

>  <score_type>  (6) 
oracle

>  <origin>  (6) 
autodockgpu

>  <m_score__min__energy>  (6) 
-9.3599999999999994

>  <m_primary>  (6) 
energy

>  <rmsd>  (6) 
3.3197759544424987

>  <m_score__min__rmsd>  (6) 
3.3197759544424987

>  <meeko>  (6) 
{"free_energy": -9.36, "intermolecular_energy": -11.45, "internal_energy": -1.63, "cluster_size": 37, "cluster_id": 1, "rank_in_cluster": 1}

>  <energy>  (6) 
-9.32

>  <cluster_rmsd>  (6) 
0.86

>  <cluster>  (6) 
1

$$$$

     RDKit          3D

 61 64  0  0  0  0  0  0  0  0999 V2000
  139.4970   73.1170  222.7160 O   0  0  0  0  0  0  0  0  0  0  0  0
  139.7670   71.8670  222.7400 C   0  0  0  0  0  0  0  0  0  0  0  0
  139.7880   71.1220  221.5010 N   0  0  0  0  0  0  0  0  0  0  0  0
  139.5340   71.6780  220.2380 C   0  0  0  0  0  0  0  0  0  0  0  0
  139.9210   73.0080  219.8460 C   0  0  0  0  0  0  0  0  0  0  0  0
  138.9080   73.8210  219.6970 O   0  0  0  0  0  0  0  0  0  0  0  0
  141.1750   73.6060  219.5910 N   0  0  0  0  0  0  0  0  0  0  0  0
  141.9970   73.1500  218.4780 C   0  0  0  0  0  0  0  0  0  0  0  0
  142.8650   74.1580  217.8140 C   0  0  0  0  0  0  0  0  0  0  0  0
  143.2430   75.3040  218.6680 C   0  0  0  0  0  0  0  0  0  0  0  0
  142.0470   75.8230  219.4740 C   0  0  0  0  0  0  0  0  0  0  0  0
  141.7410   74.6470  220.4270 C   0  0  1  0  0  0  0  0  0  0  0  0
  140.9580   75.1100  221.5880 C   0  0  0  0  0  0  0  0  0  0  0  0
  141.2740   76.5460  221.8050 N   0  0  0  0  0  0  0  0  0  0  0  0
  140.3590   77.4490  222.3560 C   0  0  0  0  0  0  0  0  0  0  0  0
  139.1930   77.1500  222.7170 O   0  0  0  0  0  0  0  0  0  0  0  0
  140.7740   78.8610  222.5340 C   0  0  0  0  0  0  0  0  0  0  0  0
  141.7100   79.3190  221.4390 C   0  0  0  0  0  0  0  0  0  0  0  0
  142.3420   80.5770  222.0430 C   0  0  0  0  0  0  0  0  0  0  0  0
  142.3930   80.3220  223.5290 C   0  0  0  0  0  0  0  0  0  0  0  0
  141.6220   79.0540  223.7730 C   0  0  0  0  0  0  0  0  0  0  0  0
  140.0500   71.2050  224.0110 C   0  0  0  0  0  0  0  0  0  0  0  0
  140.6370   71.9290  225.0260 C   0  0  0  0  0  0  0  0  0  0  0  0
  140.9430   71.3950  226.2590 C   0  0  0  0  0  0  0  0  0  0  0  0
  140.6200   70.0460  226.4380 C   0  0  0  0  0  0  0  0  0  0  0  0
  140.9280   69.5080  227.6800 C   0  0  0  0  0  0  0  0  0  0  0  0
  140.6210   68.1870  227.8790 C   0  0  0  0  0  0  0  0  0  0  0  0
  140.9220   67.6540  229.0970 F   0  0  0  0  0  0  0  0  0  0  0  0
  140.0350   67.4400  226.8870 C   0  0  0  0  0  0  0  0  0  0  0  0
  139.7280   67.9900  225.6380 C   0  0  0  0  0  0  0  0  0  0  0  0
  140.0350   69.3190  225.4300 C   0  0  0  0  0  0  0  0  0  0  0  0
  139.7580   69.9050  224.2370 N   0  0  0  0  0  0  0  0  0  0  0  0
  140.0180   70.0990  221.6340 H   0  0  0  0  0  0  0  0  0  0  0  0
  140.0147   71.0033  219.5143 H   0  0  0  0  0  0  0  0  0  0  0  0
  138.4397   71.7837  220.2751 H   0  0  0  0  0  0  0  0  0  0  0  0
  142.6498   72.3492  218.8556 H   0  0  0  0  0  0  0  0  0  0  0  0
  141.2787   72.8419  217.7039 H   0  0  0  0  0  0  0  0  0  0  0  0
  143.7871   73.6548  217.4875 H   0  0  0  0  0  0  0  0  0  0  0  0
  142.2798   74.5714  216.9793 H   0  0  0  0  0  0  0  0  0  0  0  0
  144.0323   74.9854  219.3648 H   0  0  0  0  0  0  0  0  0  0  0  0
  143.5992   76.1163  218.0174 H   0  0  0  0  0  0  0  0  0  0  0  0
  142.3120   76.7303  220.0366 H   0  0  0  0  0  0  0  0  0  0  0  0
  141.1902   76.1096  218.8465 H   0  0  0  0  0  0  0  0  0  0  0  0
  142.6215   74.2115  220.9220 H   0  0  0  0  0  0  0  0  0  0  0  0
  139.8833   74.9895  221.3867 H   0  0  0  0  0  0  0  0  0  0  0  0
  141.2113   74.5213  222.4820 H   0  0  0  0  0  0  0  0  0  0  0  0
  142.2300   76.8980  221.5310 H   0  0  0  0  0  0  0  0  0  0  0  0
  139.8229   79.4130  222.5615 H   0  0  0  0  0  0  0  0  0  0  0  0
  142.4725   78.5560  221.2236 H   0  0  0  0  0  0  0  0  0  0  0  0
  141.2042   79.5015  220.4794 H   0  0  0  0  0  0  0  0  0  0  0  0
  143.3554   80.7292  221.6431 H   0  0  0  0  0  0  0  0  0  0  0  0
  141.7655   81.4822  221.8016 H   0  0  0  0  0  0  0  0  0  0  0  0
  143.4357   80.2017  223.8581 H   0  0  0  0  0  0  0  0  0  0  0  0
  141.9619   81.1634  224.0914 H   0  0  0  0  0  0  0  0  0  0  0  0
  142.3083   78.2049  223.9069 H   0  0  0  0  0  0  0  0  0  0  0  0
  141.0100   79.1138  224.6851 H   0  0  0  0  0  0  0  0  0  0  0  0
  140.8734   72.9875  224.8426 H   0  0  0  0  0  0  0  0  0  0  0  0
  141.4126   71.9931  227.0538 H   0  0  0  0  0  0  0  0  0  0  0  0
  141.3972   70.1143  228.4688 H   0  0  0  0  0  0  0  0  0  0  0  0
  139.8011   66.3825  227.0793 H   0  0  0  0  0  0  0  0  0  0  0  0
  139.2582   67.3841  224.8492 H   0  0  0  0  0  0  0  0  0  0  0  0
  1  2  2  0
  2  3  1  0
  3  4  1  0
  4  5  1  0
  5  6  2  0
  5  7  1  0
  7  8  1  0
  8  9  1  0
  9 10  1  0
 10 11  1  0
 11 12  1  0
 12 13  1  0
 13 14  1  0
 14 15  1  0
 15 16  2  0
 15 17  1  0
 17 18  1  0
 18 19  1  0
 19 20  1  0
 20 21  1  0
  2 22  1  0
 22 23  2  0
 23 24  1  0
 24 25  2  0
 25 26  1  0
 26 27  2  0
 27 28  1  0
 27 29  1  0
 29 30  2  0
 30 31  1  0
 31 32  2  0
 12  7  1  0
 21 17  1  0
 32 22  1  0
 31 25  1  0
  3 33  1  0
  4 34  1  0
  4 35  1  0
  8 36  1  0
  8 37  1  0
  9 38  1  0
  9 39  1  0
 10 40  1  0
 10 41  1  0
 11 42  1  0
 11 43  1  0
 12 44  1  1
 13 45  1  0
 13 46  1  0
 14 47  1  0
 17 48  1  0
 18 49  1  0
 18 50  1  0
 19 51  1  0
 19 52  1  0
 20 53  1  0
 20 54  1  0
 21 55  1  0
 21 56  1  0
 23 57  1  0
 24 58  1  0
 26 59  1  0
 29 60  1  0
 30 61  1  0
M  END
>  <smiles>  (7) 
O=C(NCC(=O)N1CCCC[C@H]1CNC(=O)C1CCCC1)c1ccc2cc(F)ccc2n1

>  <score_type>  (7) 
oracle

>  <origin>  (7) 
autodockgpu

>  <m_score__min__energy>  (7) 
-9.3599999999999994

>  <m_primary>  (7) 
energy

>  <rmsd>  (7) 
3.3292389312119446

>  <m_score__min__rmsd>  (7) 
3.3292389312119446

>  <meeko>  (7) 
{"free_energy": -8.42, "intermolecular_energy": -10.51, "internal_energy": -1.74, "cluster_size": 37, "cluster_id": 1, "rank_in_cluster": 26}

>  <energy>  (7) 
-9.26

>  <cluster_rmsd>  (7) 
0.54

>  <cluster>  (7) 
1

$$$$

     RDKit          3D

 61 64  0  0  0  0  0  0  0  0999 V2000
  138.8920   72.2460  221.3550 O   0  0  0  0  0  0  0  0  0  0  0  0
  139.8910   72.2070  222.1540 C   0  0  0  0  0  0  0  0  0  0  0  0
  141.1050   72.9090  221.8030 N   0  0  0  0  0  0  0  0  0  0  0  0
  141.2800   73.6540  220.6280 C   0  0  0  0  0  0  0  0  0  0  0  0
  140.6720   74.9370  220.3850 C   0  0  0  0  0  0  0  0  0  0  0  0
  141.5390   75.9090  220.2680 O   0  0  0  0  0  0  0  0  0  0  0  0
  139.3280   75.3510  220.2510 N   0  0  0  0  0  0  0  0  0  0  0  0
  138.6630   75.2910  218.9570 C   0  0  0  0  0  0  0  0  0  0  0  0
  137.1980   75.0320  218.9550 C   0  0  0  0  0  0  0  0  0  0  0  0
  136.5000   75.4370  220.1930 C   0  0  0  0  0  0  0  0  0  0  0  0
  137.2880   75.0270  221.4420 C   0  0  0  0  0  0  0  0  0  0  0  0
  138.5570   75.9020  221.3490 C   0  0  1  0  0  0  0  0  0  0  0  0
  139.2060   76.0170  222.6680 C   0  0  0  0  0  0  0  0  0  0  0  0
  140.2780   77.0410  222.5590 N   0  0  0  0  0  0  0  0  0  0  0  0
  140.0600   78.3970  222.8210 C   0  0  0  0  0  0  0  0  0  0  0  0
  138.9560   78.8870  223.1680 O   0  0  0  0  0  0  0  0  0  0  0  0
  141.1980   79.3380  222.6860 C   0  0  0  0  0  0  0  0  0  0  0  0
  142.1760   79.2110  223.8320 C   0  0  0  0  0  0  0  0  0  0  0  0
  142.9720   80.5170  223.7390 C   0  0  0  0  0  0  0  0  0  0  0  0
  142.0000   81.5370  223.1990 C   0  0  0  0  0  0  0  0  0  0  0  0
  140.7610   80.7810  222.8040 C   0  0  0  0  0  0  0  0  0  0  0  0
  139.7980   71.4590  223.4040 C   0  0  0  0  0  0  0  0  0  0  0  0
  138.9960   70.3400  223.4560 C   0  0  0  0  0  0  0  0  0  0  0  0
  138.8430   69.5680  224.5880 C   0  0  0  0  0  0  0  0  0  0  0  0
  139.5600   69.9870  225.7140 C   0  0  0  0  0  0  0  0  0  0  0  0
  139.4050   69.2100  226.8530 C   0  0  0  0  0  0  0  0  0  0  0  0
  140.0980   69.6010  227.9710 C   0  0  0  0  0  0  0  0  0  0  0  0
  139.9500   68.8410  229.0930 F   0  0  0  0  0  0  0  0  0  0  0  0
  140.9050   70.7120  227.9500 C   0  0  0  0  0  0  0  0  0  0  0  0
  141.0540   71.4890  226.7960 C   0  0  0  0  0  0  0  0  0  0  0  0
  140.3600   71.1020  225.6680 C   0  0  0  0  0  0  0  0  0  0  0  0
  140.4690   71.8190  224.5210 N   0  0  0  0  0  0  0  0  0  0  0  0
  141.8680   72.8090  222.5290 H   0  0  0  0  0  0  0  0  0  0  0  0
  142.3641   73.8170  220.5381 H   0  0  0  0  0  0  0  0  0  0  0  0
  140.7389   73.0279  219.9033 H   0  0  0  0  0  0  0  0  0  0  0  0
  138.8288   76.2556  218.4550 H   0  0  0  0  0  0  0  0  0  0  0  0
  139.1049   74.4194  218.4521 H   0  0  0  0  0  0  0  0  0  0  0  0
  136.7531   75.5841  218.1140 H   0  0  0  0  0  0  0  0  0  0  0  0
  137.0742   73.9423  218.8695 H   0  0  0  0  0  0  0  0  0  0  0  0
  136.3753   76.5299  220.1918 H   0  0  0  0  0  0  0  0  0  0  0  0
  135.5234   74.9314  220.2197 H   0  0  0  0  0  0  0  0  0  0  0  0
  136.7209   75.2477  222.3583 H   0  0  0  0  0  0  0  0  0  0  0  0
  137.5045   73.9494  221.4859 H   0  0  0  0  0  0  0  0  0  0  0  0
  138.3744   76.9597  221.1082 H   0  0  0  0  0  0  0  0  0  0  0  0
  138.4679   76.3267  223.4225 H   0  0  0  0  0  0  0  0  0  0  0  0
  139.6291   75.0488  222.9739 H   0  0  0  0  0  0  0  0  0  0  0  0
  141.2430   76.7290  222.2700 H   0  0  0  0  0  0  0  0  0  0  0  0
  141.6310   79.0890  221.7059 H   0  0  0  0  0  0  0  0  0  0  0  0
  141.6508   79.1339  224.7954 H   0  0  0  0  0  0  0  0  0  0  0  0
  142.8048   78.3104  223.7725 H   0  0  0  0  0  0  0  0  0  0  0  0
  143.3350   80.8187  224.7326 H   0  0  0  0  0  0  0  0  0  0  0  0
  143.8577   80.4129  223.0951 H   0  0  0  0  0  0  0  0  0  0  0  0
  141.7605   82.2805  223.9735 H   0  0  0  0  0  0  0  0  0  0  0  0
  142.4266   82.0767  222.3407 H   0  0  0  0  0  0  0  0  0  0  0  0
  139.9827   80.8866  223.5741 H   0  0  0  0  0  0  0  0  0  0  0  0
  140.3309   81.1585  221.8646 H   0  0  0  0  0  0  0  0  0  0  0  0
  138.4495   70.0474  222.5473 H   0  0  0  0  0  0  0  0  0  0  0  0
  138.1972   68.6777  224.6048 H   0  0  0  0  0  0  0  0  0  0  0  0
  138.7565   68.3215  226.8595 H   0  0  0  0  0  0  0  0  0  0  0  0
  141.4477   70.9981  228.8630 H   0  0  0  0  0  0  0  0  0  0  0  0
  141.7021   72.3778  226.7883 H   0  0  0  0  0  0  0  0  0  0  0  0
  1  2  2  0
  2  3  1  0
  3  4  1  0
  4  5  1  0
  5  6  2  0
  5  7  1  0
  7  8  1  0
  8  9  1  0
  9 10  1  0
 10 11  1  0
 11 12  1  0
 12 13  1  0
 13 14  1  0
 14 15  1  0
 15 16  2  0
 15 17  1  0
 17 18  1  0
 18 19  1  0
 19 20  1  0
 20 21  1  0
  2 22  1  0
 22 23  2  0
 23 24  1  0
 24 25  2  0
 25 26  1  0
 26 27  2  0
 27 28  1  0
 27 29  1  0
 29 30  2  0
 30 31  1  0
 31 32  2  0
 12  7  1  0
 21 17  1  0
 32 22  1  0
 31 25  1  0
  3 33  1  0
  4 34  1  0
  4 35  1  0
  8 36  1  0
  8 37  1  0
  9 38  1  0
  9 39  1  0
 10 40  1  0
 10 41  1  0
 11 42  1  0
 11 43  1  0
 12 44  1  6
 13 45  1  0
 13 46  1  0
 14 47  1  0
 17 48  1  0
 18 49  1  0
 18 50  1  0
 19 51  1  0
 19 52  1  0
 20 53  1  0
 20 54  1  0
 21 55  1  0
 21 56  1  0
 23 57  1  0
 24 58  1  0
 26 59  1  0
 29 60  1  0
 30 61  1  0
M  END
>  <smiles>  (8) 
O=C(NCC(=O)N1CCCC[C@H]1CNC(=O)C1CCCC1)c1ccc2cc(F)ccc2n1

>  <score_type>  (8) 
oracle

>  <origin>  (8) 
autodockgpu

>  <m_score__min__energy>  (8) 
-9.3599999999999994

>  <m_primary>  (8) 
energy

>  <rmsd>  (8) 
2.9873513246338033

>  <m_score__min__rmsd>  (8) 
2.9873513246338033

>  <meeko>  (8) 
{"free_energy": -7.26, "intermolecular_energy": -9.35, "internal_energy": -2.7, "cluster_size": 37, "cluster_id": 1, "rank_in_cluster": 37}

>  <energy>  (8) 
-9.22

>  <cluster_rmsd>  (8) 
0.73

>  <cluster>  (8) 
1

$$$$

     RDKit          3D

 61 64  0  0  0  0  0  0  0  0999 V2000
  141.2650   72.6820  221.7380 O   0  0  0  0  0  0  0  0  0  0  0  0
  140.2580   72.6770  222.5270 C   0  0  0  0  0  0  0  0  0  0  0  0
  139.2050   73.6490  222.3370 N   0  0  0  0  0  0  0  0  0  0  0  0
  139.1960   74.6220  221.3270 C   0  0  0  0  0  0  0  0  0  0  0  0
  140.2480   75.5840  221.1200 C   0  0  0  0  0  0  0  0  0  0  0  0
  141.2180   75.4880  221.9920 O   0  0  0  0  0  0  0  0  0  0  0  0
  140.4370   76.6080  220.1660 N   0  0  0  0  0  0  0  0  0  0  0  0
  140.2380   78.0030  220.5310 C   0  0  0  0  0  0  0  0  0  0  0  0
  141.0740   79.0170  219.8340 C   0  0  0  0  0  0  0  0  0  0  0  0
  141.5590   78.6030  218.5010 C   0  0  0  0  0  0  0  0  0  0  0  0
  142.0650   77.1560  218.5110 C   0  0  0  0  0  0  0  0  0  0  0  0
  140.7790   76.3450  218.7810 C   0  0  1  0  0  0  0  0  0  0  0  0
  140.9510   74.9430  218.3590 C   0  0  0  0  0  0  0  0  0  0  0  0
  141.9390   74.3120  219.2740 N   0  0  0  0  0  0  0  0  0  0  0  0
  143.1980   73.8780  218.8470 C   0  0  0  0  0  0  0  0  0  0  0  0
  143.6200   73.9700  217.6670 O   0  0  0  0  0  0  0  0  0  0  0  0
  144.1120   73.2630  219.8400 C   0  0  0  0  0  0  0  0  0  0  0  0
  144.8860   74.3040  220.6160 C   0  0  0  0  0  0  0  0  0  0  0  0
  146.0360   73.4880  221.2140 C   0  0  0  0  0  0  0  0  0  0  0  0
  146.3160   72.3980  220.2090 C   0  0  0  0  0  0  0  0  0  0  0  0
  145.2210   72.4730  219.1810 C   0  0  0  0  0  0  0  0  0  0  0  0
  140.1790   71.6950  223.6050 C   0  0  0  0  0  0  0  0  0  0  0  0
  139.5710   70.4830  223.3630 C   0  0  0  0  0  0  0  0  0  0  0  0
  139.4480   69.4930  224.3140 C   0  0  0  0  0  0  0  0  0  0  0  0
  139.9850   69.7840  225.5720 C   0  0  0  0  0  0  0  0  0  0  0  0
  139.8610   68.7880  226.5290 C   0  0  0  0  0  0  0  0  0  0  0  0
  140.3810   69.0500  227.7710 C   0  0  0  0  0  0  0  0  0  0  0  0
  140.2620   68.0740  228.7150 F   0  0  0  0  0  0  0  0  0  0  0  0
  140.9940   70.2490  228.0420 C   0  0  0  0  0  0  0  0  0  0  0  0
  141.1140   71.2470  227.0710 C   0  0  0  0  0  0  0  0  0  0  0  0
  140.5930   70.9910  225.8190 C   0  0  0  0  0  0  0  0  0  0  0  0
  140.6830   71.9250  224.8380 N   0  0  0  0  0  0  0  0  0  0  0  0
  138.4230   73.5600  223.0430 H   0  0  0  0  0  0  0  0  0  0  0  0
  139.1100   74.0675  220.3809 H   0  0  0  0  0  0  0  0  0  0  0  0
  138.3836   75.2759  221.6769 H   0  0  0  0  0  0  0  0  0  0  0  0
  139.1847   78.2496  220.3315 H   0  0  0  0  0  0  0  0  0  0  0  0
  140.5413   78.0645  221.5866 H   0  0  0  0  0  0  0  0  0  0  0  0
  140.4744   79.9311  219.7123 H   0  0  0  0  0  0  0  0  0  0  0  0
  141.9673   79.1670  220.4581 H   0  0  0  0  0  0  0  0  0  0  0  0
  140.7341   78.6881  217.7783 H   0  0  0  0  0  0  0  0  0  0  0  0
  142.3959   79.2590  218.2195 H   0  0  0  0  0  0  0  0  0  0  0  0
  142.5082   76.8846  217.5415 H   0  0  0  0  0  0  0  0  0  0  0  0
  142.8565   76.9768  219.2536 H   0  0  0  0  0  0  0  0  0  0  0  0
  139.9082   76.6433  218.1787 H   0  0  0  0  0  0  0  0  0  0  0  0
  139.9896   74.4122  218.4225 H   0  0  0  0  0  0  0  0  0  0  0  0
  141.3049   74.8951  217.3186 H   0  0  0  0  0  0  0  0  0  0  0  0
  141.6770   74.1860  220.2870 H   0  0  0  0  0  0  0  0  0  0  0  0
  143.4474   72.6489  220.4654 H   0  0  0  0  0  0  0  0  0  0  0  0
  145.2639   75.0950  219.9515 H   0  0  0  0  0  0  0  0  0  0  0  0
  144.2807   74.8261  221.3717 H   0  0  0  0  0  0  0  0  0  0  0  0
  146.9250   74.1205  221.3541 H   0  0  0  0  0  0  0  0  0  0  0  0
  145.7777   73.0784  222.2017 H   0  0  0  0  0  0  0  0  0  0  0  0
  147.2947   72.5613  219.7342 H   0  0  0  0  0  0  0  0  0  0  0  0
  146.3417   71.4096  220.6912 H   0  0  0  0  0  0  0  0  0  0  0  0
  145.5761   72.9877  218.2760 H   0  0  0  0  0  0  0  0  0  0  0  0
  144.8835   71.4745  218.8661 H   0  0  0  0  0  0  0  0  0  0  0  0
  139.1625   70.2955  222.3590 H   0  0  0  0  0  0  0  0  0  0  0  0
  138.9574   68.5327  224.0967 H   0  0  0  0  0  0  0  0  0  0  0  0
  139.3679   67.8312  226.3024 H   0  0  0  0  0  0  0  0  0  0  0  0
  141.4006   70.4281  229.0483 H   0  0  0  0  0  0  0  0  0  0  0  0
  141.6070   72.2040  227.2970 H   0  0  0  0  0  0  0  0  0  0  0  0
  1  2  2  0
  2  3  1  0
  3  4  1  0
  4  5  1  0
  5  6  2  0
  5  7  1  0
  7  8  1  0
  8  9  1  0
  9 10  1  0
 10 11  1  0
 11 12  1  0
 12 13  1  0
 13 14  1  0
 14 15  1  0
 15 16  2  0
 15 17  1  0
 17 18  1  0
 18 19  1  0
 19 20  1  0
 20 21  1  0
  2 22  1  0
 22 23  2  0
 23 24  1  0
 24 25  2  0
 25 26  1  0
 26 27  2  0
 27 28  1  0
 27 29  1  0
 29 30  2  0
 30 31  1  0
 31 32  2  0
 12  7  1  0
 21 17  1  0
 32 22  1  0
 31 25  1  0
  3 33  1  0
  4 34  1  0
  4 35  1  0
  8 36  1  0
  8 37  1  0
  9 38  1  0
  9 39  1  0
 10 40  1  0
 10 41  1  0
 11 42  1  0
 11 43  1  0
 12 44  1  6
 13 45  1  0
 13 46  1  0
 14 47  1  0
 17 48  1  0
 18 49  1  0
 18 50  1  0
 19 51  1  0
 19 52  1  0
 20 53  1  0
 20 54  1  0
 21 55  1  0
 21 56  1  0
 23 57  1  0
 24 58  1  0
 26 59  1  0
 29 60  1  0
 30 61  1  0
M  END
>  <smiles>  (9) 
O=C(NCC(=O)N1CCCC[C@H]1CNC(=O)C1CCCC1)c1ccc2cc(F)ccc2n1

>  <score_type>  (9) 
oracle

>  <origin>  (9) 
autodockgpu

>  <m_score__min__energy>  (9) 
-9.3599999999999994

>  <m_primary>  (9) 
energy

>  <rmsd>  (9) 
4.912656387857942

>  <m_score__min__rmsd>  (9) 
4.912656387857942

>  <meeko>  (9) 
{"free_energy": -7.62, "intermolecular_energy": -9.71, "internal_energy": -3.06, "cluster_size": 37, "cluster_id": 1, "rank_in_cluster": 30}

>  <energy>  (9) 
-9.2

>  <cluster_rmsd>  (9) 
1.33

>  <cluster>  (9) 
1

$$$$

     RDKit          3D

 61 64  0  0  0  0  0  0  0  0999 V2000
  140.5790   73.3930  222.3920 O   0  0  0  0  0  0  0  0  0  0  0  0
  140.3520   72.1350  222.3320 C   0  0  0  0  0  0  0  0  0  0  0  0
  140.2530   71.4950  221.0390 N   0  0  0  0  0  0  0  0  0  0  0  0
  140.3950   72.1600  219.8120 C   0  0  0  0  0  0  0  0  0  0  0  0
  141.5580   72.9180  219.4320 C   0  0  0  0  0  0  0  0  0  0  0  0
  141.5220   73.3400  218.1940 O   0  0  0  0  0  0  0  0  0  0  0  0
  142.7280   73.2920  220.1290 N   0  0  0  0  0  0  0  0  0  0  0  0
  143.6710   72.2810  220.5850 C   0  0  0  0  0  0  0  0  0  0  0  0
  145.1080   72.6630  220.6390 C   0  0  0  0  0  0  0  0  0  0  0  0
  145.3540   74.1120  220.7950 C   0  0  0  0  0  0  0  0  0  0  0  0
  144.4370   74.9390  219.8870 C   0  0  0  0  0  0  0  0  0  0  0  0
  143.0360   74.6670  220.4770 C   0  0  1  0  0  0  0  0  0  0  0  0
  142.0870   75.7180  220.0680 C   0  0  0  0  0  0  0  0  0  0  0  0
  140.8280   75.5160  220.8310 N   0  0  0  0  0  0  0  0  0  0  0  0
  140.3620   76.4290  221.7820 C   0  0  0  0  0  0  0  0  0  0  0  0
  140.9480   77.4970  222.0890 O   0  0  0  0  0  0  0  0  0  0  0  0
  139.0910   76.1350  222.4860 C   0  0  0  0  0  0  0  0  0  0  0  0
  138.2500   75.1250  221.7390 C   0  0  0  0  0  0  0  0  0  0  0  0
  136.8650   75.3130  222.3660 C   0  0  0  0  0  0  0  0  0  0  0  0
  136.7950   76.7720  222.7450 C   0  0  0  0  0  0  0  0  0  0  0  0
  138.1730   77.3360  222.5310 C   0  0  0  0  0  0  0  0  0  0  0  0
  140.1960   71.3610  223.5600 C   0  0  0  0  0  0  0  0  0  0  0  0
  139.5260   70.1580  223.5120 C   0  0  0  0  0  0  0  0  0  0  0  0
  139.3280   69.3550  224.6150 C   0  0  0  0  0  0  0  0  0  0  0  0
  139.8540   69.8330  225.8190 C   0  0  0  0  0  0  0  0  0  0  0  0
  139.6540   69.0260  226.9300 C   0  0  0  0  0  0  0  0  0  0  0  0
  140.1600   69.4730  228.1240 C   0  0  0  0  0  0  0  0  0  0  0  0
  139.9660   68.6830  229.2180 F   0  0  0  0  0  0  0  0  0  0  0  0
  140.8330   70.6670  228.2030 C   0  0  0  0  0  0  0  0  0  0  0  0
  141.0290   71.4750  227.0780 C   0  0  0  0  0  0  0  0  0  0  0  0
  140.5220   71.0320  225.8740 C   0  0  0  0  0  0  0  0  0  0  0  0
  140.6850   71.7750  224.7500 N   0  0  0  0  0  0  0  0  0  0  0  0
  140.0610   70.4570  221.1020 H   0  0  0  0  0  0  0  0  0  0  0  0
  140.2796   71.3856  219.0393 H   0  0  0  0  0  0  0  0  0  0  0  0
  139.6524   72.9636  219.9252 H   0  0  0  0  0  0  0  0  0  0  0  0
  143.3701   71.9824  221.6001 H   0  0  0  0  0  0  0  0  0  0  0  0
  143.6188   71.4844  219.8282 H   0  0  0  0  0  0  0  0  0  0  0  0
  145.5695   72.1429  221.4914 H   0  0  0  0  0  0  0  0  0  0  0  0
  145.5437   72.3753  219.6708 H   0  0  0  0  0  0  0  0  0  0  0  0
  145.1699   74.3950  221.8419 H   0  0  0  0  0  0  0  0  0  0  0  0
  146.3967   74.3173  220.5111 H   0  0  0  0  0  0  0  0  0  0  0  0
  144.6880   76.0087  219.9389 H   0  0  0  0  0  0  0  0  0  0  0  0
  144.5211   74.6717  218.8233 H   0  0  0  0  0  0  0  0  0  0  0  0
  142.9737   74.7379  221.5729 H   0  0  0  0  0  0  0  0  0  0  0  0
  142.5065   76.7094  220.2941 H   0  0  0  0  0  0  0  0  0  0  0  0
  141.8939   75.6613  218.9866 H   0  0  0  0  0  0  0  0  0  0  0  0
  140.2630   74.6440  220.6460 H   0  0  0  0  0  0  0  0  0  0  0  0
  139.4147   75.7918  223.4797 H   0  0  0  0  0  0  0  0  0  0  0  0
  138.2308   75.3440  220.6612 H   0  0  0  0  0  0  0  0  0  0  0  0
  138.6298   74.0957  221.8184 H   0  0  0  0  0  0  0  0  0  0  0  0
  136.0765   75.0651  221.6402 H   0  0  0  0  0  0  0  0  0  0  0  0
  136.7153   74.6556  223.2351 H   0  0  0  0  0  0  0  0  0  0  0  0
  136.0670   77.2955  222.1078 H   0  0  0  0  0  0  0  0  0  0  0  0
  136.4722   76.8965  223.7892 H   0  0  0  0  0  0  0  0  0  0  0  0
  138.2191   77.8924  221.5832 H   0  0  0  0  0  0  0  0  0  0  0  0
  138.4568   78.0405  223.3267 H   0  0  0  0  0  0  0  0  0  0  0  0
  139.1285   69.8208  222.5434 H   0  0  0  0  0  0  0  0  0  0  0  0
  138.7897   68.3978  224.5518 H   0  0  0  0  0  0  0  0  0  0  0  0
  139.1139   68.0706  226.8565 H   0  0  0  0  0  0  0  0  0  0  0  0
  141.2280   70.9966  229.1753 H   0  0  0  0  0  0  0  0  0  0  0  0
  141.5688   72.4307  227.1509 H   0  0  0  0  0  0  0  0  0  0  0  0
  1  2  2  0
  2  3  1  0
  3  4  1  0
  4  5  1  0
  5  6  2  0
  5  7  1  0
  7  8  1  0
  8  9  1  0
  9 10  1  0
 10 11  1  0
 11 12  1  0
 12 13  1  0
 13 14  1  0
 14 15  1  0
 15 16  2  0
 15 17  1  0
 17 18  1  0
 18 19  1  0
 19 20  1  0
 20 21  1  0
  2 22  1  0
 22 23  2  0
 23 24  1  0
 24 25  2  0
 25 26  1  0
 26 27  2  0
 27 28  1  0
 27 29  1  0
 29 30  2  0
 30 31  1  0
 31 32  2  0
 12  7  1  0
 21 17  1  0
 32 22  1  0
 31 25  1  0
  3 33  1  0
  4 34  1  0
  4 35  1  0
  8 36  1  0
  8 37  1  0
  9 38  1  0
  9 39  1  0
 10 40  1  0
 10 41  1  0
 11 42  1  0
 11 43  1  0
 12 44  1  1
 13 45  1  0
 13 46  1  0
 14 47  1  0
 17 48  1  0
 18 49  1  0
 18 50  1  0
 19 51  1  0
 19 52  1  0
 20 53  1  0
 20 54  1  0
 21 55  1  0
 21 56  1  0
 23 57  1  0
 24 58  1  0
 26 59  1  0
 29 60  1  0
 30 61  1  0
M  END
>  <smiles>  (10) 
O=C(NCC(=O)N1CCCC[C@H]1CNC(=O)C1CCCC1)c1ccc2cc(F)ccc2n1

>  <score_type>  (10) 
oracle

>  <origin>  (10) 
autodockgpu

>  <m_score__min__energy>  (10) 
-9.3599999999999994

>  <m_primary>  (10) 
energy

>  <rmsd>  (10) 
4.056230777680498

>  <m_score__min__rmsd>  (10) 
4.056230777680498

>  <meeko>  (10) 
{"free_energy": -7.57, "intermolecular_energy": -9.66, "internal_energy": -2.8, "cluster_size": 37, "cluster_id": 1, "rank_in_cluster": 32}

>  <energy>  (10) 
-9.19

>  <cluster_rmsd>  (10) 
1.31

>  <cluster>  (10) 
1

$$$$

     RDKit          3D

 61 64  0  0  0  0  0  0  0  0999 V2000
  138.5090   71.3480  221.5980 O   0  0  0  0  0  0  0  0  0  0  0  0
  139.3090   71.7480  222.5140 C   0  0  0  0  0  0  0  0  0  0  0  0
  139.9930   73.0110  222.3550 N   0  0  0  0  0  0  0  0  0  0  0  0
  139.8440   73.8600  221.2480 C   0  0  0  0  0  0  0  0  0  0  0  0
  140.8490   74.0550  220.2360 C   0  0  0  0  0  0  0  0  0  0  0  0
  140.3530   74.2930  219.0500 O   0  0  0  0  0  0  0  0  0  0  0  0
  142.2620   74.0360  220.2710 N   0  0  0  0  0  0  0  0  0  0  0  0
  142.9710   72.8980  220.8380 C   0  0  0  0  0  0  0  0  0  0  0  0
  144.2990   72.5640  220.2580 C   0  0  0  0  0  0  0  0  0  0  0  0
  144.9960   73.7020  219.6210 C   0  0  0  0  0  0  0  0  0  0  0  0
  144.0390   74.5370  218.7620 C   0  0  0  0  0  0  0  0  0  0  0  0
  143.0790   75.1420  219.8090 C   0  0  1  0  0  0  0  0  0  0  0  0
  142.3990   76.3310  219.2640 C   0  0  0  0  0  0  0  0  0  0  0  0
  142.2800   77.3280  220.3590 N   0  0  0  0  0  0  0  0  0  0  0  0
  141.0660   77.9270  220.7100 C   0  0  0  0  0  0  0  0  0  0  0  0
  139.9670   77.6930  220.1470 O   0  0  0  0  0  0  0  0  0  0  0  0
  141.0530   78.9090  221.8210 C   0  0  0  0  0  0  0  0  0  0  0  0
  142.1450   79.9450  221.6740 C   0  0  0  0  0  0  0  0  0  0  0  0
  142.2360   80.5370  223.0840 C   0  0  0  0  0  0  0  0  0  0  0  0
  141.8820   79.4040  224.0150 C   0  0  0  0  0  0  0  0  0  0  0  0
  141.4010   78.2720  223.1480 C   0  0  0  0  0  0  0  0  0  0  0  0
  139.5210   70.9310  223.7050 C   0  0  0  0  0  0  0  0  0  0  0  0
  139.1010   69.6180  223.6990 C   0  0  0  0  0  0  0  0  0  0  0  0
  139.2570   68.7670  224.7720 C   0  0  0  0  0  0  0  0  0  0  0  0
  139.8790   69.3140  225.9000 C   0  0  0  0  0  0  0  0  0  0  0  0
  140.0360   68.4580  226.9800 C   0  0  0  0  0  0  0  0  0  0  0  0
  140.6430   68.9710  228.0980 C   0  0  0  0  0  0  0  0  0  0  0  0
  140.7990   68.1340  229.1620 F   0  0  0  0  0  0  0  0  0  0  0  0
  141.0730   70.2750  228.1330 C   0  0  0  0  0  0  0  0  0  0  0  0
  140.9110   71.1310  227.0390 C   0  0  0  0  0  0  0  0  0  0  0  0
  140.3000   70.6220  225.9110 C   0  0  0  0  0  0  0  0  0  0  0  0
  140.1180   71.4080  224.8200 N   0  0  0  0  0  0  0  0  0  0  0  0
  140.6310   73.2450  223.1660 H   0  0  0  0  0  0  0  0  0  0  0  0
  138.9519   73.4994  220.7151 H   0  0  0  0  0  0  0  0  0  0  0  0
  139.8522   74.8440  221.7397 H   0  0  0  0  0  0  0  0  0  0  0  0
  143.1198   73.1015  221.9087 H   0  0  0  0  0  0  0  0  0  0  0  0
  142.3368   72.0284  220.6108 H   0  0  0  0  0  0  0  0  0  0  0  0
  144.9388   72.1781  221.0653 H   0  0  0  0  0  0  0  0  0  0  0  0
  144.1155   71.8262  219.4631 H   0  0  0  0  0  0  0  0  0  0  0  0
  145.4243   74.3433  220.4054 H   0  0  0  0  0  0  0  0  0  0  0  0
  145.7857   73.3016  218.9683 H   0  0  0  0  0  0  0  0  0  0  0  0
  144.5801   75.3254  218.2183 H   0  0  0  0  0  0  0  0  0  0  0  0
  143.5243   73.9498  217.9872 H   0  0  0  0  0  0  0  0  0  0  0  0
  143.5697   75.5657  220.6977 H   0  0  0  0  0  0  0  0  0  0  0  0
  142.9884   76.7527  218.4365 H   0  0  0  0  0  0  0  0  0  0  0  0
  141.4041   76.0621  218.8795 H   0  0  0  0  0  0  0  0  0  0  0  0
  143.1490   77.5950  220.8920 H   0  0  0  0  0  0  0  0  0  0  0  0
  140.0373   79.3301  221.7883 H   0  0  0  0  0  0  0  0  0  0  0  0
  143.0963   79.4797  221.3765 H   0  0  0  0  0  0  0  0  0  0  0  0
  141.9348   80.6950  220.8973 H   0  0  0  0  0  0  0  0  0  0  0  0
  143.2556   80.8971  223.2856 H   0  0  0  0  0  0  0  0  0  0  0  0
  141.5633   81.3980  223.2115 H   0  0  0  0  0  0  0  0  0  0  0  0
  142.7674   79.0932  224.5889 H   0  0  0  0  0  0  0  0  0  0  0  0
  141.1091   79.7087  224.7359 H   0  0  0  0  0  0  0  0  0  0  0  0
  142.1942   77.5209  223.0191 H   0  0  0  0  0  0  0  0  0  0  0  0
  140.5401   77.7510  223.5923 H   0  0  0  0  0  0  0  0  0  0  0  0
  138.6164   69.2294  222.7912 H   0  0  0  0  0  0  0  0  0  0  0  0
  138.9138   67.7223  224.7434 H   0  0  0  0  0  0  0  0  0  0  0  0
  139.6894   67.4148  226.9417 H   0  0  0  0  0  0  0  0  0  0  0  0
  141.5570   70.6556  229.0445 H   0  0  0  0  0  0  0  0  0  0  0  0
  141.2586   72.1740  227.0763 H   0  0  0  0  0  0  0  0  0  0  0  0
  1  2  2  0
  2  3  1  0
  3  4  1  0
  4  5  1  0
  5  6  2  0
  5  7  1  0
  7  8  1  0
  8  9  1  0
  9 10  1  0
 10 11  1  0
 11 12  1  0
 12 13  1  0
 13 14  1  0
 14 15  1  0
 15 16  2  0
 15 17  1  0
 17 18  1  0
 18 19  1  0
 19 20  1  0
 20 21  1  0
  2 22  1  0
 22 23  2  0
 23 24  1  0
 24 25  2  0
 25 26  1  0
 26 27  2  0
 27 28  1  0
 27 29  1  0
 29 30  2  0
 30 31  1  0
 31 32  2  0
 12  7  1  0
 21 17  1  0
 32 22  1  0
 31 25  1  0
  3 33  1  0
  4 34  1  0
  4 35  1  0
  8 36  1  0
  8 37  1  0
  9 38  1  0
  9 39  1  0
 10 40  1  0
 10 41  1  0
 11 42  1  0
 11 43  1  0
 12 44  1  1
 13 45  1  0
 13 46  1  0
 14 47  1  0
 17 48  1  0
 18 49  1  0
 18 50  1  0
 19 51  1  0
 19 52  1  0
 20 53  1  0
 20 54  1  0
 21 55  1  0
 21 56  1  0
 23 57  1  0
 24 58  1  0
 26 59  1  0
 29 60  1  0
 30 61  1  0
M  END
>  <smiles>  (11) 
O=C(NCC(=O)N1CCCC[C@H]1CNC(=O)C1CCCC1)c1ccc2cc(F)ccc2n1

>  <score_type>  (11) 
oracle

>  <origin>  (11) 
autodockgpu

>  <m_score__min__energy>  (11) 
-9.3599999999999994

>  <m_primary>  (11) 
energy

>  <rmsd>  (11) 
3.2056730743563024

>  <m_score__min__rmsd>  (11) 
3.2056730743563024

>  <meeko>  (11) 
{"free_energy": -8.51, "intermolecular_energy": -10.6, "internal_energy": -1.86, "cluster_size": 37, "cluster_id": 1, "rank_in_cluster": 23}

>  <energy>  (11) 
-9.14

>  <cluster_rmsd>  (11) 
0.83

>  <cluster>  (11) 
1

$$$$

     RDKit          3D

 61 64  0  0  0  0  0  0  0  0999 V2000
  140.1850   73.0090  222.7490 O   0  0  0  0  0  0  0  0  0  0  0  0
  140.1380   71.7360  222.8680 C   0  0  0  0  0  0  0  0  0  0  0  0
  139.9280   70.9220  221.6910 N   0  0  0  0  0  0  0  0  0  0  0  0
  139.7710   71.4300  220.3930 C   0  0  0  0  0  0  0  0  0  0  0  0
  140.1180   72.7720  220.0020 C   0  0  0  0  0  0  0  0  0  0  0  0
  139.0990   73.5910  219.9960 O   0  0  0  0  0  0  0  0  0  0  0  0
  141.3380   73.3750  219.6230 N   0  0  0  0  0  0  0  0  0  0  0  0
  142.2820   72.6620  218.7750 C   0  0  0  0  0  0  0  0  0  0  0  0
  143.1200   73.4750  217.8530 C   0  0  0  0  0  0  0  0  0  0  0  0
  143.3340   74.8710  218.2860 C   0  0  0  0  0  0  0  0  0  0  0  0
  142.0380   75.5040  218.8060 C   0  0  0  0  0  0  0  0  0  0  0  0
  141.7480   74.6880  220.0840 C   0  0  1  0  0  0  0  0  0  0  0  0
  140.8380   75.4280  220.9780 C   0  0  0  0  0  0  0  0  0  0  0  0
  141.4640   76.7430  221.2750 N   0  0  0  0  0  0  0  0  0  0  0  0
  140.8170   77.7410  222.0100 C   0  0  0  0  0  0  0  0  0  0  0  0
  139.6590   77.6370  222.4880 O   0  0  0  0  0  0  0  0  0  0  0  0
  141.5300   79.0180  222.2550 C   0  0  0  0  0  0  0  0  0  0  0  0
  142.1740   79.0540  223.6230 C   0  0  0  0  0  0  0  0  0  0  0  0
  142.4370   80.5490  223.8300 C   0  0  0  0  0  0  0  0  0  0  0  0
  141.3240   81.2540  223.0940 C   0  0  0  0  0  0  0  0  0  0  0  0
  140.5830   80.1960  222.3230 C   0  0  0  0  0  0  0  0  0  0  0  0
  140.2960   71.1180  224.1810 C   0  0  0  0  0  0  0  0  0  0  0  0
  140.7340   71.8910  225.2350 C   0  0  0  0  0  0  0  0  0  0  0  0
  140.9140   71.4010  226.5110 C   0  0  0  0  0  0  0  0  0  0  0  0
  140.6220   70.0450  226.6910 C   0  0  0  0  0  0  0  0  0  0  0  0
  140.8040   69.5520  227.9750 C   0  0  0  0  0  0  0  0  0  0  0  0
  140.5250   68.2240  228.1770 C   0  0  0  0  0  0  0  0  0  0  0  0
  140.7020   67.7350  229.4380 F   0  0  0  0  0  0  0  0  0  0  0  0
  140.0860   67.4290  227.1470 C   0  0  0  0  0  0  0  0  0  0  0  0
  139.9070   67.9350  225.8550 C   0  0  0  0  0  0  0  0  0  0  0  0
  140.1860   69.2700  225.6440 C   0  0  0  0  0  0  0  0  0  0  0  0
  140.0280   69.8130  224.4110 N   0  0  0  0  0  0  0  0  0  0  0  0
  139.9020   69.8860  221.9010 H   0  0  0  0  0  0  0  0  0  0  0  0
  140.3610   70.7686  219.7415 H   0  0  0  0  0  0  0  0  0  0  0  0
  138.6743   71.4691  220.3170 H   0  0  0  0  0  0  0  0  0  0  0  0
  142.9627   72.1040  219.4348 H   0  0  0  0  0  0  0  0  0  0  0  0
  141.6568   72.0420  218.1156 H   0  0  0  0  0  0  0  0  0  0  0  0
  144.1028   72.9889  217.7640 H   0  0  0  0  0  0  0  0  0  0  0  0
  142.5752   73.5247  216.8987 H   0  0  0  0  0  0  0  0  0  0  0  0
  144.0856   74.8847  219.0891 H   0  0  0  0  0  0  0  0  0  0  0  0
  143.6774   75.4525  217.4177 H   0  0  0  0  0  0  0  0  0  0  0  0
  142.1833   76.5689  219.0402 H   0  0  0  0  0  0  0  0  0  0  0  0
  141.2160   75.4762  218.0755 H   0  0  0  0  0  0  0  0  0  0  0  0
  142.6162   74.5352  220.7419 H   0  0  0  0  0  0  0  0  0  0  0  0
  139.8674   75.5788  220.4828 H   0  0  0  0  0  0  0  0  0  0  0  0
  140.6689   74.8640  221.9071 H   0  0  0  0  0  0  0  0  0  0  0  0
  142.4370   76.9300  220.9140 H   0  0  0  0  0  0  0  0  0  0  0  0
  142.2500   79.0801  221.4257 H   0  0  0  0  0  0  0  0  0  0  0  0
  141.4937   78.6603  224.3925 H   0  0  0  0  0  0  0  0  0  0  0  0
  143.0813   78.4363  223.6956 H   0  0  0  0  0  0  0  0  0  0  0  0
  142.4108   80.8003  224.9006 H   0  0  0  0  0  0  0  0  0  0  0  0
  143.4283   80.8467  223.4576 H   0  0  0  0  0  0  0  0  0  0  0  0
  140.6483   81.7464  223.8088 H   0  0  0  0  0  0  0  0  0  0  0  0
  141.7207   82.0301  222.4229 H   0  0  0  0  0  0  0  0  0  0  0  0
  139.6562   79.9162  222.8452 H   0  0  0  0  0  0  0  0  0  0  0  0
  140.2899   80.5461  221.3222 H   0  0  0  0  0  0  0  0  0  0  0  0
  140.9510   72.9531  225.0484 H   0  0  0  0  0  0  0  0  0  0  0  0
  141.2656   72.0372  227.3366 H   0  0  0  0  0  0  0  0  0  0  0  0
  141.1560   70.1966  228.7939 H   0  0  0  0  0  0  0  0  0  0  0  0
  139.8698   66.3683  227.3425 H   0  0  0  0  0  0  0  0  0  0  0  0
  139.5559   67.2908  225.0354 H   0  0  0  0  0  0  0  0  0  0  0  0
  1  2  2  0
  2  3  1  0
  3  4  1  0
  4  5  1  0
  5  6  2  0
  5  7  1  0
  7  8  1  0
  8  9  1  0
  9 10  1  0
 10 11  1  0
 11 12  1  0
 12 13  1  0
 13 14  1  0
 14 15  1  0
 15 16  2  0
 15 17  1  0
 17 18  1  0
 18 19  1  0
 19 20  1  0
 20 21  1  0
  2 22  1  0
 22 23  2  0
 23 24  1  0
 24 25  2  0
 25 26  1  0
 26 27  2  0
 27 28  1  0
 27 29  1  0
 29 30  2  0
 30 31  1  0
 31 32  2  0
 12  7  1  0
 21 17  1  0
 32 22  1  0
 31 25  1  0
  3 33  1  0
  4 34  1  0
  4 35  1  0
  8 36  1  0
  8 37  1  0
  9 38  1  0
  9 39  1  0
 10 40  1  0
 10 41  1  0
 11 42  1  0
 11 43  1  0
 12 44  1  1
 13 45  1  0
 13 46  1  0
 14 47  1  0
 17 48  1  0
 18 49  1  0
 18 50  1  0
 19 51  1  0
 19 52  1  0
 20 53  1  0
 20 54  1  0
 21 55  1  0
 21 56  1  0
 23 57  1  0
 24 58  1  0
 26 59  1  0
 29 60  1  0
 30 61  1  0
M  END
>  <smiles>  (12) 
O=C(NCC(=O)N1CCCC[C@H]1CNC(=O)C1CCCC1)c1ccc2cc(F)ccc2n1

>  <score_type>  (12) 
oracle

>  <origin>  (12) 
autodockgpu

>  <m_score__min__energy>  (12) 
-9.3599999999999994

>  <m_primary>  (12) 
energy

>  <rmsd>  (12) 
3.3104717835754798

>  <m_score__min__rmsd>  (12) 
3.3104717835754798

>  <meeko>  (12) 
{"free_energy": -8.34, "intermolecular_energy": -10.42, "internal_energy": -1.54, "cluster_size": 37, "cluster_id": 1, "rank_in_cluster": 28}

>  <energy>  (12) 
-9.12

>  <cluster_rmsd>  (12) 
0.93

>  <cluster>  (12) 
1

$$$$

     RDKit          3D

 61 64  0  0  0  0  0  0  0  0999 V2000
  140.4070   71.1490  221.5500 O   0  0  0  0  0  0  0  0  0  0  0  0
  139.7480   71.5950  222.5520 C   0  0  0  0  0  0  0  0  0  0  0  0
  138.7430   72.6130  222.3420 N   0  0  0  0  0  0  0  0  0  0  0  0
  138.4200   73.1640  221.0930 C   0  0  0  0  0  0  0  0  0  0  0  0
  139.3860   73.7090  220.1760 C   0  0  0  0  0  0  0  0  0  0  0  0
  138.8710   74.0610  219.0260 O   0  0  0  0  0  0  0  0  0  0  0  0
  140.7770   73.9380  220.2720 N   0  0  0  0  0  0  0  0  0  0  0  0
  141.7180   73.0580  219.5920 C   0  0  0  0  0  0  0  0  0  0  0  0
  142.9910   73.6610  219.1130 C   0  0  0  0  0  0  0  0  0  0  0  0
  143.4180   74.8670  219.8520 C   0  0  0  0  0  0  0  0  0  0  0  0
  142.2410   75.8140  220.1100 C   0  0  0  0  0  0  0  0  0  0  0  0
  141.3510   75.0010  221.0750 C   0  0  1  0  0  0  0  0  0  0  0  0
  140.4340   75.8900  221.8110 C   0  0  0  0  0  0  0  0  0  0  0  0
  141.1150   77.2000  221.9860 N   0  0  0  0  0  0  0  0  0  0  0  0
  140.4210   78.3870  222.2420 C   0  0  0  0  0  0  0  0  0  0  0  0
  139.1720   78.4720  222.3470 O   0  0  0  0  0  0  0  0  0  0  0  0
  141.1950   79.6410  222.4040 C   0  0  0  0  0  0  0  0  0  0  0  0
  142.5950   79.3810  222.9120 C   0  0  0  0  0  0  0  0  0  0  0  0
  143.0270   80.7600  223.4210 C   0  0  0  0  0  0  0  0  0  0  0  0
  141.7610   81.4200  223.9070 C   0  0  0  0  0  0  0  0  0  0  0  0
  140.6250   80.5260  223.4910 C   0  0  0  0  0  0  0  0  0  0  0  0
  140.0130   71.0760  223.8910 C   0  0  0  0  0  0  0  0  0  0  0  0
  140.6860   71.8690  224.7950 C   0  0  0  0  0  0  0  0  0  0  0  0
  140.9830   71.4690  226.0800 C   0  0  0  0  0  0  0  0  0  0  0  0
  140.5570   70.1840  226.4340 C   0  0  0  0  0  0  0  0  0  0  0  0
  140.8570   69.7820  227.7280 C   0  0  0  0  0  0  0  0  0  0  0  0
  140.4500   68.5260  228.0980 C   0  0  0  0  0  0  0  0  0  0  0  0
  140.7410   68.1260  229.3690 F   0  0  0  0  0  0  0  0  0  0  0  0
  139.7770   67.7120  227.2200 C   0  0  0  0  0  0  0  0  0  0  0  0
  139.4800   68.1270  225.9170 C   0  0  0  0  0  0  0  0  0  0  0  0
  139.8860   69.3890  225.5370 C   0  0  0  0  0  0  0  0  0  0  0  0
  139.6240   69.8430  224.2850 N   0  0  0  0  0  0  0  0  0  0  0  0
  138.2610   72.9130  223.2350 H   0  0  0  0  0  0  0  0  0  0  0  0
  137.9029   72.3656  220.5405 H   0  0  0  0  0  0  0  0  0  0  0  0
  137.8879   74.0764  221.4002 H   0  0  0  0  0  0  0  0  0  0  0  0
  141.9777   72.2488  220.2904 H   0  0  0  0  0  0  0  0  0  0  0  0
  141.1957   72.7373  218.6785 H   0  0  0  0  0  0  0  0  0  0  0  0
  143.7843   72.9044  219.2039 H   0  0  0  0  0  0  0  0  0  0  0  0
  142.8136   73.9787  218.0749 H   0  0  0  0  0  0  0  0  0  0  0  0
  143.8487   74.5611  220.8168 H   0  0  0  0  0  0  0  0  0  0  0  0
  144.1623   75.3999  219.2421 H   0  0  0  0  0  0  0  0  0  0  0  0
  142.5808   76.7496  220.5781 H   0  0  0  0  0  0  0  0  0  0  0  0
  141.7196   76.1201  219.1911 H   0  0  0  0  0  0  0  0  0  0  0  0
  141.8893   74.5171  221.9033 H   0  0  0  0  0  0  0  0  0  0  0  0
  139.5041   76.0250  221.2391 H   0  0  0  0  0  0  0  0  0  0  0  0
  140.1794   75.4553  222.7889 H   0  0  0  0  0  0  0  0  0  0  0  0
  142.1660   77.2340  221.9120 H   0  0  0  0  0  0  0  0  0  0  0  0
  141.1662   80.0990  221.4043 H   0  0  0  0  0  0  0  0  0  0  0  0
  142.5912   78.6407  223.7256 H   0  0  0  0  0  0  0  0  0  0  0  0
  143.2681   78.9662  222.1472 H   0  0  0  0  0  0  0  0  0  0  0  0
  143.7488   80.6578  224.2447 H   0  0  0  0  0  0  0  0  0  0  0  0
  143.5215   81.3504  222.6356 H   0  0  0  0  0  0  0  0  0  0  0  0
  141.7823   81.5224  225.0020 H   0  0  0  0  0  0  0  0  0  0  0  0
  141.6497   82.4281  223.4811 H   0  0  0  0  0  0  0  0  0  0  0  0
  140.2802   79.9193  224.3413 H   0  0  0  0  0  0  0  0  0  0  0  0
  139.7561   81.1016  223.1394 H   0  0  0  0  0  0  0  0  0  0  0  0
  141.0024   72.8726  224.4746 H   0  0  0  0  0  0  0  0  0  0  0  0
  141.5219   72.1200  226.7842 H   0  0  0  0  0  0  0  0  0  0  0  0
  141.3964   70.4406  228.4246 H   0  0  0  0  0  0  0  0  0  0  0  0
  139.4640   66.7101  227.5489 H   0  0  0  0  0  0  0  0  0  0  0  0
  138.9410   67.4690  225.2195 H   0  0  0  0  0  0  0  0  0  0  0  0
  1  2  2  0
  2  3  1  0
  3  4  1  0
  4  5  1  0
  5  6  2  0
  5  7  1  0
  7  8  1  0
  8  9  1  0
  9 10  1  0
 10 11  1  0
 11 12  1  0
 12 13  1  0
 13 14  1  0
 14 15  1  0
 15 16  2  0
 15 17  1  0
 17 18  1  0
 18 19  1  0
 19 20  1  0
 20 21  1  0
  2 22  1  0
 22 23  2  0
 23 24  1  0
 24 25  2  0
 25 26  1  0
 26 27  2  0
 27 28  1  0
 27 29  1  0
 29 30  2  0
 30 31  1  0
 31 32  2  0
 12  7  1  0
 21 17  1  0
 32 22  1  0
 31 25  1  0
  3 33  1  0
  4 34  1  0
  4 35  1  0
  8 36  1  0
  8 37  1  0
  9 38  1  0
  9 39  1  0
 10 40  1  0
 10 41  1  0
 11 42  1  0
 11 43  1  0
 12 44  1  1
 13 45  1  0
 13 46  1  0
 14 47  1  0
 17 48  1  0
 18 49  1  0
 18 50  1  0
 19 51  1  0
 19 52  1  0
 20 53  1  0
 20 54  1  0
 21 55  1  0
 21 56  1  0
 23 57  1  0
 24 58  1  0
 26 59  1  0
 29 60  1  0
 30 61  1  0
M  END
>  <smiles>  (13) 
O=C(NCC(=O)N1CCCC[C@H]1CNC(=O)C1CCCC1)c1ccc2cc(F)ccc2n1

>  <score_type>  (13) 
oracle

>  <origin>  (13) 
autodockgpu

>  <m_score__min__energy>  (13) 
-9.3599999999999994

>  <m_primary>  (13) 
energy

>  <rmsd>  (13) 
3.258145082379916

>  <m_score__min__rmsd>  (13) 
3.258145082379916

>  <meeko>  (13) 
{"free_energy": -9.02, "intermolecular_energy": -11.11, "internal_energy": -1.58, "cluster_size": 37, "cluster_id": 1, "rank_in_cluster": 14}

>  <energy>  (13) 
-9.1

>  <cluster_rmsd>  (13) 
1.43

>  <cluster>  (13) 
1

$$$$

     RDKit          3D

 61 64  0  0  0  0  0  0  0  0999 V2000
  138.4140   72.3600  221.5890 O   0  0  0  0  0  0  0  0  0  0  0  0
  139.4340   72.4200  222.3600 C   0  0  0  0  0  0  0  0  0  0  0  0
  140.5280   73.3020  222.0200 N   0  0  0  0  0  0  0  0  0  0  0  0
  140.5610   74.1240  220.8840 C   0  0  0  0  0  0  0  0  0  0  0  0
  140.1350   75.4990  220.8670 C   0  0  0  0  0  0  0  0  0  0  0  0
  139.8920   75.9540  219.6650 O   0  0  0  0  0  0  0  0  0  0  0  0
  139.9300   76.4520  221.8900 N   0  0  0  0  0  0  0  0  0  0  0  0
  141.0630   77.1160  222.5180 C   0  0  0  0  0  0  0  0  0  0  0  0
  140.8560   78.5080  223.0000 C   0  0  0  0  0  0  0  0  0  0  0  0
  139.4550   78.8450  223.3250 C   0  0  0  0  0  0  0  0  0  0  0  0
  138.4880   78.3160  222.2590 C   0  0  0  0  0  0  0  0  0  0  0  0
  138.6170   76.7840  222.4100 C   0  0  1  0  0  0  0  0  0  0  0  0
  137.4450   76.1050  221.8290 C   0  0  0  0  0  0  0  0  0  0  0  0
  137.1510   74.9110  222.6640 N   0  0  0  0  0  0  0  0  0  0  0  0
  135.9590   74.7600  223.3790 C   0  0  0  0  0  0  0  0  0  0  0  0
  135.0260   75.6030  223.3930 O   0  0  0  0  0  0  0  0  0  0  0  0
  135.7620   73.5280  224.1810 C   0  0  0  0  0  0  0  0  0  0  0  0
  135.6570   72.2970  223.3100 C   0  0  0  0  0  0  0  0  0  0  0  0
  135.0260   71.2710  224.2560 C   0  0  0  0  0  0  0  0  0  0  0  0
  134.1410   72.0720  225.1790 C   0  0  0  0  0  0  0  0  0  0  0  0
  134.4290   73.5220  224.8960 C   0  0  0  0  0  0  0  0  0  0  0  0
  139.4850   71.6030  223.5690 C   0  0  0  0  0  0  0  0  0  0  0  0
  138.7190   70.4590  223.6360 C   0  0  0  0  0  0  0  0  0  0  0  0
  138.6980   69.6230  224.7320 C   0  0  0  0  0  0  0  0  0  0  0  0
  139.5150   70.0010  225.8030 C   0  0  0  0  0  0  0  0  0  0  0  0
  139.4940   69.1590  226.9060 C   0  0  0  0  0  0  0  0  0  0  0  0
  140.2860   69.5080  227.9700 C   0  0  0  0  0  0  0  0  0  0  0  0
  140.2690   68.6850  229.0560 F   0  0  0  0  0  0  0  0  0  0  0  0
  141.0610   70.6420  227.9330 C   0  0  0  0  0  0  0  0  0  0  0  0
  141.0750   71.4840  226.8160 C   0  0  0  0  0  0  0  0  0  0  0  0
  140.2800   71.1390  225.7420 C   0  0  0  0  0  0  0  0  0  0  0  0
  140.2560   71.9210  224.6330 N   0  0  0  0  0  0  0  0  0  0  0  0
  141.3200   73.2720  222.7210 H   0  0  0  0  0  0  0  0  0  0  0  0
  141.6106   74.1341  220.5550 H   0  0  0  0  0  0  0  0  0  0  0  0
  139.7779   73.6573  220.2683 H   0  0  0  0  0  0  0  0  0  0  0  0
  141.3642   76.5078  223.3837 H   0  0  0  0  0  0  0  0  0  0  0  0
  141.8171   77.2018  221.7218 H   0  0  0  0  0  0  0  0  0  0  0  0
  141.4623   78.6507  223.9067 H   0  0  0  0  0  0  0  0  0  0  0  0
  141.1522   79.1710  222.1737 H   0  0  0  0  0  0  0  0  0  0  0  0
  139.1959   78.3980  224.2961 H   0  0  0  0  0  0  0  0  0  0  0  0
  139.3630   79.9405  223.3612 H   0  0  0  0  0  0  0  0  0  0  0  0
  137.4585   78.6485  222.4580 H   0  0  0  0  0  0  0  0  0  0  0  0
  138.7189   78.6747  221.2451 H   0  0  0  0  0  0  0  0  0  0  0  0
  138.5849   76.4159  223.4461 H   0  0  0  0  0  0  0  0  0  0  0  0
  136.5801   76.7847  221.8303 H   0  0  0  0  0  0  0  0  0  0  0  0
  137.6500   75.8063  220.7904 H   0  0  0  0  0  0  0  0  0  0  0  0
  137.8750   74.1460  222.7200 H   0  0  0  0  0  0  0  0  0  0  0  0
  136.6260   73.5150  224.8616 H   0  0  0  0  0  0  0  0  0  0  0  0
  135.0128   72.4816  222.4377 H   0  0  0  0  0  0  0  0  0  0  0  0
  136.6219   71.9724  222.8933 H   0  0  0  0  0  0  0  0  0  0  0  0
  134.4305   70.5399  223.6896 H   0  0  0  0  0  0  0  0  0  0  0  0
  135.7869   70.7013  224.8096 H   0  0  0  0  0  0  0  0  0  0  0  0
  133.0826   71.8488  224.9790 H   0  0  0  0  0  0  0  0  0  0  0  0
  134.3389   71.8256  226.2326 H   0  0  0  0  0  0  0  0  0  0  0  0
  133.6455   73.9533  224.2555 H   0  0  0  0  0  0  0  0  0  0  0  0
  134.4527   74.1242  225.8162 H   0  0  0  0  0  0  0  0  0  0  0  0
  138.0920   70.1997  222.7702 H   0  0  0  0  0  0  0  0  0  0  0  0
  138.0775   68.7152  224.7625 H   0  0  0  0  0  0  0  0  0  0  0  0
  138.8706   68.2530  226.9260 H   0  0  0  0  0  0  0  0  0  0  0  0
  141.6856   70.8938  228.8028 H   0  0  0  0  0  0  0  0  0  0  0  0
  141.6983   72.3901  226.7944 H   0  0  0  0  0  0  0  0  0  0  0  0
  1  2  2  0
  2  3  1  0
  3  4  1  0
  4  5  1  0
  5  6  2  0
  5  7  1  0
  7  8  1  0
  8  9  1  0
  9 10  1  0
 10 11  1  0
 11 12  1  0
 12 13  1  0
 13 14  1  0
 14 15  1  0
 15 16  2  0
 15 17  1  0
 17 18  1  0
 18 19  1  0
 19 20  1  0
 20 21  1  0
  2 22  1  0
 22 23  2  0
 23 24  1  0
 24 25  2  0
 25 26  1  0
 26 27  2  0
 27 28  1  0
 27 29  1  0
 29 30  2  0
 30 31  1  0
 31 32  2  0
 12  7  1  0
 21 17  1  0
 32 22  1  0
 31 25  1  0
  3 33  1  0
  4 34  1  0
  4 35  1  0
  8 36  1  0
  8 37  1  0
  9 38  1  0
  9 39  1  0
 10 40  1  0
 10 41  1  0
 11 42  1  0
 11 43  1  0
 12 44  1  1
 13 45  1  0
 13 46  1  0
 14 47  1  0
 17 48  1  0
 18 49  1  0
 18 50  1  0
 19 51  1  0
 19 52  1  0
 20 53  1  0
 20 54  1  0
 21 55  1  0
 21 56  1  0
 23 57  1  0
 24 58  1  0
 26 59  1  0
 29 60  1  0
 30 61  1  0
M  END
>  <smiles>  (14) 
O=C(NCC(=O)N1CCCC[C@H]1CNC(=O)C1CCCC1)c1ccc2cc(F)ccc2n1

>  <score_type>  (14) 
oracle

>  <origin>  (14) 
autodockgpu

>  <m_score__min__energy>  (14) 
-9.3599999999999994

>  <m_primary>  (14) 
energy

>  <rmsd>  (14) 
5.777275523077909

>  <m_score__min__rmsd>  (14) 
5.777275523077909

>  <meeko>  (14) 
{"free_energy": -6.88, "intermolecular_energy": -8.97, "internal_energy": -3.22, "cluster_size": 1, "cluster_id": 7, "rank_in_cluster": 1}

>  <energy>  (14) 
-9.02

>  <cluster_rmsd>  (14) 
1.46

>  <cluster>  (14) 
1

$$$$

     RDKit          3D

 61 64  0  0  0  0  0  0  0  0999 V2000
  141.5320   73.4470  220.4160 O   0  0  0  0  0  0  0  0  0  0  0  0
  140.9230   74.1650  221.2830 C   0  0  0  0  0  0  0  0  0  0  0  0
  140.0220   73.5320  222.2200 N   0  0  0  0  0  0  0  0  0  0  0  0
  139.7570   72.1550  222.2580 C   0  0  0  0  0  0  0  0  0  0  0  0
  139.0840   71.4900  223.3430 C   0  0  0  0  0  0  0  0  0  0  0  0
  137.8530   71.8960  223.5180 O   0  0  0  0  0  0  0  0  0  0  0  0
  139.4910   70.4910  224.2550 N   0  0  0  0  0  0  0  0  0  0  0  0
  140.7320   70.6350  225.0030 C   0  0  0  0  0  0  0  0  0  0  0  0
  140.7830   70.0330  226.3630 C   0  0  0  0  0  0  0  0  0  0  0  0
  139.8530   68.9040  226.5710 C   0  0  0  0  0  0  0  0  0  0  0  0
  138.4690   69.1990  225.9810 C   0  0  0  0  0  0  0  0  0  0  0  0
  138.7510   69.2610  224.4640 C   0  0  1  0  0  0  0  0  0  0  0  0
  137.5080   69.0570  223.6960 C   0  0  0  0  0  0  0  0  0  0  0  0
  136.4510   69.9030  224.3110 N   0  0  0  0  0  0  0  0  0  0  0  0
  135.2150   69.3930  224.7190 C   0  0  0  0  0  0  0  0  0  0  0  0
  134.8700   68.1890  224.6100 O   0  0  0  0  0  0  0  0  0  0  0  0
  134.2290   70.3200  225.3240 C   0  0  0  0  0  0  0  0  0  0  0  0
  134.5410   71.7650  225.0060 C   0  0  0  0  0  0  0  0  0  0  0  0
  133.7200   72.5230  226.0540 C   0  0  0  0  0  0  0  0  0  0  0  0
  133.6890   71.6210  227.2630 C   0  0  0  0  0  0  0  0  0  0  0  0
  134.2910   70.3100  226.8360 C   0  0  0  0  0  0  0  0  0  0  0  0
  141.1420   75.6080  221.3200 C   0  0  0  0  0  0  0  0  0  0  0  0
  141.7530   76.2200  220.2470 C   0  0  0  0  0  0  0  0  0  0  0  0
  142.0030   77.5740  220.1870 C   0  0  0  0  0  0  0  0  0  0  0  0
  141.5960   78.3200  221.2980 C   0  0  0  0  0  0  0  0  0  0  0  0
  141.8480   79.6830  221.2390 C   0  0  0  0  0  0  0  0  0  0  0  0
  141.4580   80.4350  222.3170 C   0  0  0  0  0  0  0  0  0  0  0  0
  141.7030   81.7760  222.2620 F   0  0  0  0  0  0  0  0  0  0  0  0
  140.8460   79.8550  223.4010 C   0  0  0  0  0  0  0  0  0  0  0  0
  140.5970   78.4790  223.4520 C   0  0  0  0  0  0  0  0  0  0  0  0
  140.9870   77.7160  222.3710 C   0  0  0  0  0  0  0  0  0  0  0  0
  140.7680   76.3760  222.3680 N   0  0  0  0  0  0  0  0  0  0  0  0
  139.5700   74.2140  222.8890 H   0  0  0  0  0  0  0  0  0  0  0  0
  139.1562   71.9432  221.3612 H   0  0  0  0  0  0  0  0  0  0  0  0
  140.7745   71.7515  222.3673 H   0  0  0  0  0  0  0  0  0  0  0  0
  141.5326   70.1729  224.4069 H   0  0  0  0  0  0  0  0  0  0  0  0
  140.8376   71.7172  225.1691 H   0  0  0  0  0  0  0  0  0  0  0  0
  141.8067   69.6714  226.5400 H   0  0  0  0  0  0  0  0  0  0  0  0
  140.4769   70.8225  227.0651 H   0  0  0  0  0  0  0  0  0  0  0  0
  140.2650   68.0075  226.0847 H   0  0  0  0  0  0  0  0  0  0  0  0
  139.7397   68.7456  227.6536 H   0  0  0  0  0  0  0  0  0  0  0  0
  137.7570   68.3951  226.2193 H   0  0  0  0  0  0  0  0  0  0  0  0
  138.0130   70.1182  226.3775 H   0  0  0  0  0  0  0  0  0  0  0  0
  139.3788   68.4449  224.0768 H   0  0  0  0  0  0  0  0  0  0  0  0
  137.6624   69.3537  222.6481 H   0  0  0  0  0  0  0  0  0  0  0  0
  137.2129   67.9975  223.7161 H   0  0  0  0  0  0  0  0  0  0  0  0
  136.6430   70.9310  224.4430 H   0  0  0  0  0  0  0  0  0  0  0  0
  133.2642   69.9778  224.9215 H   0  0  0  0  0  0  0  0  0  0  0  0
  135.6155   71.9729  225.1170 H   0  0  0  0  0  0  0  0  0  0  0  0
  134.2972   72.0476  223.9713 H   0  0  0  0  0  0  0  0  0  0  0  0
  134.2003   73.4815  226.3004 H   0  0  0  0  0  0  0  0  0  0  0  0
  132.7085   72.7582  225.6914 H   0  0  0  0  0  0  0  0  0  0  0  0
  134.2789   72.0613  228.0804 H   0  0  0  0  0  0  0  0  0  0  0  0
  132.6611   71.4849  227.6304 H   0  0  0  0  0  0  0  0  0  0  0  0
  135.3334   70.2340  227.1790 H   0  0  0  0  0  0  0  0  0  0  0  0
  133.7533   69.4513  227.2643 H   0  0  0  0  0  0  0  0  0  0  0  0
  142.0570   75.5953  219.3941 H   0  0  0  0  0  0  0  0  0  0  0  0
  142.4925   78.0394  219.3188 H   0  0  0  0  0  0  0  0  0  0  0  0
  142.3386   80.1397  220.3668 H   0  0  0  0  0  0  0  0  0  0  0  0
  140.5444   80.4871  224.2492 H   0  0  0  0  0  0  0  0  0  0  0  0
  140.1071   78.0215  224.3241 H   0  0  0  0  0  0  0  0  0  0  0  0
  1  2  2  0
  2  3  1  0
  3  4  1  0
  4  5  1  0
  5  6  2  0
  5  7  1  0
  7  8  1  0
  8  9  1  0
  9 10  1  0
 10 11  1  0
 11 12  1  0
 12 13  1  0
 13 14  1  0
 14 15  1  0
 15 16  2  0
 15 17  1  0
 17 18  1  0
 18 19  1  0
 19 20  1  0
 20 21  1  0
  2 22  1  0
 22 23  2  0
 23 24  1  0
 24 25  2  0
 25 26  1  0
 26 27  2  0
 27 28  1  0
 27 29  1  0
 29 30  2  0
 30 31  1  0
 31 32  2  0
 12  7  1  0
 21 17  1  0
 32 22  1  0
 31 25  1  0
  3 33  1  0
  4 34  1  0
  4 35  1  0
  8 36  1  0
  8 37  1  0
  9 38  1  0
  9 39  1  0
 10 40  1  0
 10 41  1  0
 11 42  1  0
 11 43  1  0
 12 44  1  6
 13 45  1  0
 13 46  1  0
 14 47  1  0
 17 48  1  0
 18 49  1  0
 18 50  1  0
 19 51  1  0
 19 52  1  0
 20 53  1  0
 20 54  1  0
 21 55  1  0
 21 56  1  0
 23 57  1  0
 24 58  1  0
 26 59  1  0
 29 60  1  0
 30 61  1  0
M  END
>  <smiles>  (15) 
O=C(NCC(=O)N1CCCC[C@H]1CNC(=O)C1CCCC1)c1ccc2cc(F)ccc2n1

>  <score_type>  (15) 
oracle

>  <origin>  (15) 
autodockgpu

>  <m_score__min__energy>  (15) 
-9.3599999999999994

>  <m_primary>  (15) 
energy

>  <rmsd>  (15) 
9.859112952986603

>  <m_score__min__rmsd>  (15) 
9.859112952986603

>  <meeko>  (15) 
{"free_energy": -7.84, "intermolecular_energy": -9.93, "internal_energy": -2.39, "cluster_size": 1, "cluster_id": 5, "rank_in_cluster": 1}

>  <energy>  (15) 
-9.01

>  <cluster_rmsd>  (15) 
1.15

>  <cluster>  (15) 
1

$$$$

     RDKit          3D

 61 64  0  0  0  0  0  0  0  0999 V2000
  139.9600   73.0990  222.9470 O   0  0  0  0  0  0  0  0  0  0  0  0
  140.1000   71.8280  222.9980 C   0  0  0  0  0  0  0  0  0  0  0  0
  140.0280   71.0580  221.7760 N   0  0  0  0  0  0  0  0  0  0  0  0
  139.8160   71.6080  220.5030 C   0  0  0  0  0  0  0  0  0  0  0  0
  140.2410   72.9260  220.1100 C   0  0  0  0  0  0  0  0  0  0  0  0
  139.2760   73.6570  219.6150 O   0  0  0  0  0  0  0  0  0  0  0  0
  141.4910   73.5820  220.1520 N   0  0  0  0  0  0  0  0  0  0  0  0
  142.6560   72.9920  219.5080 C   0  0  0  0  0  0  0  0  0  0  0  0
  143.6750   73.9240  218.9530 C   0  0  0  0  0  0  0  0  0  0  0  0
  143.7070   75.2540  219.5970 C   0  0  0  0  0  0  0  0  0  0  0  0
  142.2940   75.8040  219.8220 C   0  0  0  0  0  0  0  0  0  0  0  0
  141.7080   74.8270  220.8650 C   0  0  1  0  0  0  0  0  0  0  0  0
  140.5630   75.4380  221.5630 C   0  0  0  0  0  0  0  0  0  0  0  0
  141.0810   76.5570  222.3940 N   0  0  0  0  0  0  0  0  0  0  0  0
  140.4880   77.8230  222.4150 C   0  0  0  0  0  0  0  0  0  0  0  0
  139.4750   78.1460  221.7470 O   0  0  0  0  0  0  0  0  0  0  0  0
  141.0820   78.8710  223.2810 C   0  0  0  0  0  0  0  0  0  0  0  0
  140.4340   80.2190  223.0620 C   0  0  0  0  0  0  0  0  0  0  0  0
  141.4540   81.1830  223.6770 C   0  0  0  0  0  0  0  0  0  0  0  0
  142.7980   80.5340  223.4570 C   0  0  0  0  0  0  0  0  0  0  0  0
  142.5250   79.1530  222.9260 C   0  0  0  0  0  0  0  0  0  0  0  0
  140.3300   71.1700  224.2810 C   0  0  0  0  0  0  0  0  0  0  0  0
  140.8200   71.9100  225.3340 C   0  0  0  0  0  0  0  0  0  0  0  0
  141.0700   71.3810  226.5820 C   0  0  0  0  0  0  0  0  0  0  0  0
  140.7930   70.0180  226.7340 C   0  0  0  0  0  0  0  0  0  0  0  0
  141.0440   69.4850  227.9900 C   0  0  0  0  0  0  0  0  0  0  0  0
  140.7810   68.1500  228.1630 C   0  0  0  0  0  0  0  0  0  0  0  0
  141.0260   67.6220  229.3960 F   0  0  0  0  0  0  0  0  0  0  0  0
  140.2910   67.3870  227.1330 C   0  0  0  0  0  0  0  0  0  0  0  0
  140.0410   67.9330  225.8700 C   0  0  0  0  0  0  0  0  0  0  0  0
  140.3040   69.2750  225.6870 C   0  0  0  0  0  0  0  0  0  0  0  0
  140.0790   69.8570  224.4820 N   0  0  0  0  0  0  0  0  0  0  0  0
  140.1530   70.0190  221.9310 H   0  0  0  0  0  0  0  0  0  0  0  0
  140.2991   70.9170  219.7965 H   0  0  0  0  0  0  0  0  0  0  0  0
  138.7236   71.7371  220.5127 H   0  0  0  0  0  0  0  0  0  0  0  0
  143.1592   72.3577  220.2526 H   0  0  0  0  0  0  0  0  0  0  0  0
  142.2551   72.4589  218.6333 H   0  0  0  0  0  0  0  0  0  0  0  0
  144.6654   73.4607  219.0729 H   0  0  0  0  0  0  0  0  0  0  0  0
  143.4028   74.0933  217.9007 H   0  0  0  0  0  0  0  0  0  0  0  0
  144.2160   75.1685  220.5684 H   0  0  0  0  0  0  0  0  0  0  0  0
  144.2447   75.9462  218.9323 H   0  0  0  0  0  0  0  0  0  0  0  0
  142.3266   76.8307  220.2154 H   0  0  0  0  0  0  0  0  0  0  0  0
  141.6983   75.8643  218.8992 H   0  0  0  0  0  0  0  0  0  0  0  0
  142.3745   74.5966  221.7092 H   0  0  0  0  0  0  0  0  0  0  0  0
  139.8387   75.8212  220.8292 H   0  0  0  0  0  0  0  0  0  0  0  0
  140.0564   74.6933  222.1945 H   0  0  0  0  0  0  0  0  0  0  0  0
  141.9340   76.3860  222.9900 H   0  0  0  0  0  0  0  0  0  0  0  0
  140.9498   78.4778  224.2998 H   0  0  0  0  0  0  0  0  0  0  0  0
  140.2917   80.4219  221.9903 H   0  0  0  0  0  0  0  0  0  0  0  0
  139.4312   80.3002  223.5068 H   0  0  0  0  0  0  0  0  0  0  0  0
  141.4115   82.1608  223.1749 H   0  0  0  0  0  0  0  0  0  0  0  0
  141.2557   81.3641  224.7437 H   0  0  0  0  0  0  0  0  0  0  0  0
  143.3842   81.1123  222.7277 H   0  0  0  0  0  0  0  0  0  0  0  0
  143.3772   80.4931  224.3913 H   0  0  0  0  0  0  0  0  0  0  0  0
  142.6670   79.1237  221.8356 H   0  0  0  0  0  0  0  0  0  0  0  0
  143.2081   78.4048  223.3545 H   0  0  0  0  0  0  0  0  0  0  0  0
  141.0224   72.9788  225.1706 H   0  0  0  0  0  0  0  0  0  0  0  0
  141.4630   71.9926  227.4075 H   0  0  0  0  0  0  0  0  0  0  0  0
  141.4361   70.1048  228.8098 H   0  0  0  0  0  0  0  0  0  0  0  0
  140.0898   66.3193  227.3051 H   0  0  0  0  0  0  0  0  0  0  0  0
  139.6480   67.3136  225.0503 H   0  0  0  0  0  0  0  0  0  0  0  0
  1  2  2  0
  2  3  1  0
  3  4  1  0
  4  5  1  0
  5  6  2  0
  5  7  1  0
  7  8  1  0
  8  9  1  0
  9 10  1  0
 10 11  1  0
 11 12  1  0
 12 13  1  0
 13 14  1  0
 14 15  1  0
 15 16  2  0
 15 17  1  0
 17 18  1  0
 18 19  1  0
 19 20  1  0
 20 21  1  0
  2 22  1  0
 22 23  2  0
 23 24  1  0
 24 25  2  0
 25 26  1  0
 26 27  2  0
 27 28  1  0
 27 29  1  0
 29 30  2  0
 30 31  1  0
 31 32  2  0
 12  7  1  0
 21 17  1  0
 32 22  1  0
 31 25  1  0
  3 33  1  0
  4 34  1  0
  4 35  1  0
  8 36  1  0
  8 37  1  0
  9 38  1  0
  9 39  1  0
 10 40  1  0
 10 41  1  0
 11 42  1  0
 11 43  1  0
 12 44  1  1
 13 45  1  0
 13 46  1  0
 14 47  1  0
 17 48  1  0
 18 49  1  0
 18 50  1  0
 19 51  1  0
 19 52  1  0
 20 53  1  0
 20 54  1  0
 21 55  1  0
 21 56  1  0
 23 57  1  0
 24 58  1  0
 26 59  1  0
 29 60  1  0
 30 61  1  0
M  END
>  <smiles>  (16) 
O=C(NCC(=O)N1CCCC[C@H]1CNC(=O)C1CCCC1)c1ccc2cc(F)ccc2n1

>  <score_type>  (16) 
oracle

>  <origin>  (16) 
autodockgpu

>  <m_score__min__energy>  (16) 
-9.3599999999999994

>  <m_primary>  (16) 
energy

>  <rmsd>  (16) 
3.3523814248478363

>  <m_score__min__rmsd>  (16) 
3.3523814248478363

>  <meeko>  (16) 
{"free_energy": -9.01, "intermolecular_energy": -11.1, "internal_energy": -1.75, "cluster_size": 37, "cluster_id": 1, "rank_in_cluster": 15}

>  <energy>  (16) 
-8.97

>  <cluster_rmsd>  (16) 
0.68

>  <cluster>  (16) 
1

$$$$

     RDKit          3D

 61 64  0  0  0  0  0  0  0  0999 V2000
  139.7830   71.2600  221.1280 O   0  0  0  0  0  0  0  0  0  0  0  0
  139.6320   71.8310  222.2630 C   0  0  0  0  0  0  0  0  0  0  0  0
  139.3470   73.2480  222.3110 N   0  0  0  0  0  0  0  0  0  0  0  0
  139.2150   74.0690  221.1810 C   0  0  0  0  0  0  0  0  0  0  0  0
  140.2860   74.3650  220.2670 C   0  0  0  0  0  0  0  0  0  0  0  0
  139.8760   74.6270  219.0530 O   0  0  0  0  0  0  0  0  0  0  0  0
  141.6890   74.4260  220.4210 N   0  0  0  0  0  0  0  0  0  0  0  0
  142.4360   73.2530  220.8520 C   0  0  0  0  0  0  0  0  0  0  0  0
  143.8260   73.1040  220.3420 C   0  0  0  0  0  0  0  0  0  0  0  0
  144.4820   74.3730  219.9640 C   0  0  0  0  0  0  0  0  0  0  0  0
  143.5340   75.2830  219.1740 C   0  0  0  0  0  0  0  0  0  0  0  0
  142.4550   75.6420  220.2190 C   0  0  1  0  0  0  0  0  0  0  0  0
  141.7310   76.8630  219.8200 C   0  0  0  0  0  0  0  0  0  0  0  0
  141.8640   77.8510  220.9220 N   0  0  0  0  0  0  0  0  0  0  0  0
  141.0980   77.7910  222.0900 C   0  0  0  0  0  0  0  0  0  0  0  0
  140.2300   76.9140  222.3280 O   0  0  0  0  0  0  0  0  0  0  0  0
  141.3100   78.8250  223.1320 C   0  0  0  0  0  0  0  0  0  0  0  0
  140.4440   80.0430  222.9050 C   0  0  0  0  0  0  0  0  0  0  0  0
  141.1260   81.1040  223.7740 C   0  0  0  0  0  0  0  0  0  0  0  0
  142.5930   80.7500  223.7570 C   0  0  0  0  0  0  0  0  0  0  0  0
  142.7020   79.4130  223.0760 C   0  0  0  0  0  0  0  0  0  0  0  0
  139.7470   71.0530  223.4930 C   0  0  0  0  0  0  0  0  0  0  0  0
  139.2770   69.7580  223.5110 C   0  0  0  0  0  0  0  0  0  0  0  0
  139.3410   68.9430  224.6220 C   0  0  0  0  0  0  0  0  0  0  0  0
  139.9210   69.5090  225.7610 C   0  0  0  0  0  0  0  0  0  0  0  0
  139.9850   68.6900  226.8800 C   0  0  0  0  0  0  0  0  0  0  0  0
  140.5500   69.2230  228.0100 C   0  0  0  0  0  0  0  0  0  0  0  0
  140.6150   68.4210  229.1110 F   0  0  0  0  0  0  0  0  0  0  0  0
  141.0280   70.5100  228.0220 C   0  0  0  0  0  0  0  0  0  0  0  0
  140.9590   71.3290  226.8900 C   0  0  0  0  0  0  0  0  0  0  0  0
  140.3920   70.8000  225.7490 C   0  0  0  0  0  0  0  0  0  0  0  0
  140.3000   71.5500  224.6220 N   0  0  0  0  0  0  0  0  0  0  0  0
  139.2440   73.6190  223.2960 H   0  0  0  0  0  0  0  0  0  0  0  0
  138.4223   73.6106  220.5715 H   0  0  0  0  0  0  0  0  0  0  0  0
  139.0696   75.0511  221.6546 H   0  0  0  0  0  0  0  0  0  0  0  0
  142.4881   73.2796  221.9504 H   0  0  0  0  0  0  0  0  0  0  0  0
  141.8872   72.3980  220.4304 H   0  0  0  0  0  0  0  0  0  0  0  0
  144.4302   72.6261  221.1272 H   0  0  0  0  0  0  0  0  0  0  0  0
  143.7582   72.5025  219.4235 H   0  0  0  0  0  0  0  0  0  0  0  0
  144.8009   74.8963  220.8775 H   0  0  0  0  0  0  0  0  0  0  0  0
  145.3460   74.1376  219.3252 H   0  0  0  0  0  0  0  0  0  0  0  0
  144.0551   76.1836  218.8170 H   0  0  0  0  0  0  0  0  0  0  0  0
  143.1245   74.8065  218.2710 H   0  0  0  0  0  0  0  0  0  0  0  0
  142.8453   75.9374  221.2041 H   0  0  0  0  0  0  0  0  0  0  0  0
  142.1671   77.2716  218.8965 H   0  0  0  0  0  0  0  0  0  0  0  0
  140.6709   76.6370  219.6327 H   0  0  0  0  0  0  0  0  0  0  0  0
  142.5670   78.6300  220.8160 H   0  0  0  0  0  0  0  0  0  0  0  0
  141.0934   78.2987  224.0733 H   0  0  0  0  0  0  0  0  0  0  0  0
  140.4434   80.3380  221.8453 H   0  0  0  0  0  0  0  0  0  0  0  0
  139.3863   79.8818  223.1605 H   0  0  0  0  0  0  0  0  0  0  0  0
  140.9669   82.1076  223.3526 H   0  0  0  0  0  0  0  0  0  0  0  0
  140.7198   81.1199  224.7961 H   0  0  0  0  0  0  0  0  0  0  0  0
  143.1605   81.5086  223.1980 H   0  0  0  0  0  0  0  0  0  0  0  0
  143.0048   80.7120  224.7763 H   0  0  0  0  0  0  0  0  0  0  0  0
  143.0267   79.5370  222.0324 H   0  0  0  0  0  0  0  0  0  0  0  0
  143.4430   78.7625  223.5635 H   0  0  0  0  0  0  0  0  0  0  0  0
  138.8276   69.3532  222.5922 H   0  0  0  0  0  0  0  0  0  0  0  0
  138.9592   67.9114  224.6123 H   0  0  0  0  0  0  0  0  0  0  0  0
  139.5998   67.6598  226.8611 H   0  0  0  0  0  0  0  0  0  0  0  0
  141.4764   70.9070  228.9447 H   0  0  0  0  0  0  0  0  0  0  0  0
  141.3436   72.3594  226.9090 H   0  0  0  0  0  0  0  0  0  0  0  0
  1  2  2  0
  2  3  1  0
  3  4  1  0
  4  5  1  0
  5  6  2  0
  5  7  1  0
  7  8  1  0
  8  9  1  0
  9 10  1  0
 10 11  1  0
 11 12  1  0
 12 13  1  0
 13 14  1  0
 14 15  1  0
 15 16  2  0
 15 17  1  0
 17 18  1  0
 18 19  1  0
 19 20  1  0
 20 21  1  0
  2 22  1  0
 22 23  2  0
 23 24  1  0
 24 25  2  0
 25 26  1  0
 26 27  2  0
 27 28  1  0
 27 29  1  0
 29 30  2  0
 30 31  1  0
 31 32  2  0
 12  7  1  0
 21 17  1  0
 32 22  1  0
 31 25  1  0
  3 33  1  0
  4 34  1  0
  4 35  1  0
  8 36  1  0
  8 37  1  0
  9 38  1  0
  9 39  1  0
 10 40  1  0
 10 41  1  0
 11 42  1  0
 11 43  1  0
 12 44  1  1
 13 45  1  0
 13 46  1  0
 14 47  1  0
 17 48  1  0
 18 49  1  0
 18 50  1  0
 19 51  1  0
 19 52  1  0
 20 53  1  0
 20 54  1  0
 21 55  1  0
 21 56  1  0
 23 57  1  0
 24 58  1  0
 26 59  1  0
 29 60  1  0
 30 61  1  0
M  END
>  <smiles>  (17) 
O=C(NCC(=O)N1CCCC[C@H]1CNC(=O)C1CCCC1)c1ccc2cc(F)ccc2n1

>  <score_type>  (17) 
oracle

>  <origin>  (17) 
autodockgpu

>  <m_score__min__energy>  (17) 
-9.3599999999999994

>  <m_primary>  (17) 
energy

>  <rmsd>  (17) 
2.649660629775371

>  <m_score__min__rmsd>  (17) 
2.649660629775371

>  <meeko>  (17) 
{"free_energy": -9.34, "intermolecular_energy": -11.43, "internal_energy": -1.95, "cluster_size": 37, "cluster_id": 1, "rank_in_cluster": 5}

>  <energy>  (17) 
-8.94

>  <cluster_rmsd>  (17) 
1.32

>  <cluster>  (17) 
1

$$$$

     RDKit          3D

 61 64  0  0  0  0  0  0  0  0999 V2000
  139.2080   70.6720  221.5400 O   0  0  0  0  0  0  0  0  0  0  0  0
  139.4240   71.2610  222.6550 C   0  0  0  0  0  0  0  0  0  0  0  0
  139.4870   72.7050  222.6940 N   0  0  0  0  0  0  0  0  0  0  0  0
  139.3210   73.5360  221.5760 C   0  0  0  0  0  0  0  0  0  0  0  0
  140.2180   73.5660  220.4500 C   0  0  0  0  0  0  0  0  0  0  0  0
  139.6740   73.1400  219.3400 O   0  0  0  0  0  0  0  0  0  0  0  0
  141.5670   73.9630  220.3090 N   0  0  0  0  0  0  0  0  0  0  0  0
  142.6200   72.9650  220.1850 C   0  0  0  0  0  0  0  0  0  0  0  0
  143.8090   73.3270  219.3680 C   0  0  0  0  0  0  0  0  0  0  0  0
  144.0690   74.7780  219.2680 C   0  0  0  0  0  0  0  0  0  0  0  0
  142.7760   75.5650  219.0220 C   0  0  0  0  0  0  0  0  0  0  0  0
  141.9900   75.3500  220.3330 C   0  0  1  0  0  0  0  0  0  0  0  0
  140.9580   76.3910  220.4970 C   0  0  0  0  0  0  0  0  0  0  0  0
  141.4580   77.3730  221.4940 N   0  0  0  0  0  0  0  0  0  0  0  0
  140.6060   78.1190  222.3150 C   0  0  0  0  0  0  0  0  0  0  0  0
  139.3520   78.0420  222.2970 O   0  0  0  0  0  0  0  0  0  0  0  0
  141.2060   79.0710  223.2810 C   0  0  0  0  0  0  0  0  0  0  0  0
  140.6030   80.4530  223.1610 C   0  0  0  0  0  0  0  0  0  0  0  0
  141.6330   81.3300  223.8800 C   0  0  0  0  0  0  0  0  0  0  0  0
  142.9630   80.6600  223.6390 C   0  0  0  0  0  0  0  0  0  0  0  0
  142.6650   79.3380  222.9870 C   0  0  0  0  0  0  0  0  0  0  0  0
  139.6040   70.4750  223.8730 C   0  0  0  0  0  0  0  0  0  0  0  0
  139.1490   69.1750  223.9030 C   0  0  0  0  0  0  0  0  0  0  0  0
  139.2710   68.3540  225.0040 C   0  0  0  0  0  0  0  0  0  0  0  0
  139.8980   68.9180  226.1200 C   0  0  0  0  0  0  0  0  0  0  0  0
  140.0210   68.0920  227.2280 C   0  0  0  0  0  0  0  0  0  0  0  0
  140.6330   68.6230  228.3350 C   0  0  0  0  0  0  0  0  0  0  0  0
  140.7560   67.8150  229.4260 F   0  0  0  0  0  0  0  0  0  0  0  0
  141.0970   69.9150  228.3340 C   0  0  0  0  0  0  0  0  0  0  0  0
  140.9680   70.7410  227.2130 C   0  0  0  0  0  0  0  0  0  0  0  0
  140.3540   70.2140  226.0950 C   0  0  0  0  0  0  0  0  0  0  0  0
  140.2030   70.9710  224.9790 N   0  0  0  0  0  0  0  0  0  0  0  0
  139.6730   73.0880  223.6610 H   0  0  0  0  0  0  0  0  0  0  0  0
  138.3332   73.2843  221.1626 H   0  0  0  0  0  0  0  0  0  0  0  0
  139.5143   74.5232  222.0211 H   0  0  0  0  0  0  0  0  0  0  0  0
  142.9748   72.7310  221.1996 H   0  0  0  0  0  0  0  0  0  0  0  0
  142.1528   72.1262  219.6482 H   0  0  0  0  0  0  0  0  0  0  0  0
  144.6924   72.8506  219.8182 H   0  0  0  0  0  0  0  0  0  0  0  0
  143.6029   72.9765  218.3459 H   0  0  0  0  0  0  0  0  0  0  0  0
  144.5254   75.1249  220.2068 H   0  0  0  0  0  0  0  0  0  0  0  0
  144.7447   74.9497  218.4172 H   0  0  0  0  0  0  0  0  0  0  0  0
  142.9869   76.6319  218.8569 H   0  0  0  0  0  0  0  0  0  0  0  0
  142.2287   75.2345  218.1269 H   0  0  0  0  0  0  0  0  0  0  0  0
  142.5777   75.4857  221.2529 H   0  0  0  0  0  0  0  0  0  0  0  0
  140.7770   76.8933  219.5353 H   0  0  0  0  0  0  0  0  0  0  0  0
  140.0124   75.9444  220.8383 H   0  0  0  0  0  0  0  0  0  0  0  0
  142.4990   77.5130  221.5830 H   0  0  0  0  0  0  0  0  0  0  0  0
  141.0351   78.5971  224.2589 H   0  0  0  0  0  0  0  0  0  0  0  0
  140.4956   80.7493  222.1071 H   0  0  0  0  0  0  0  0  0  0  0  0
  139.5914   80.5276  223.5865 H   0  0  0  0  0  0  0  0  0  0  0  0
  141.6324   82.3472  223.4613 H   0  0  0  0  0  0  0  0  0  0  0  0
  141.4112   81.4276  224.9530 H   0  0  0  0  0  0  0  0  0  0  0  0
  143.5853   81.2788  222.9758 H   0  0  0  0  0  0  0  0  0  0  0  0
  143.5151   80.5230  224.5805 H   0  0  0  0  0  0  0  0  0  0  0  0
  142.8355   79.3959  221.9018 H   0  0  0  0  0  0  0  0  0  0  0  0
  143.3146   78.5361  223.3677 H   0  0  0  0  0  0  0  0  0  0  0  0
  138.6634   68.7713  223.0023 H   0  0  0  0  0  0  0  0  0  0  0  0
  138.8982   67.3191  225.0047 H   0  0  0  0  0  0  0  0  0  0  0  0
  139.6449   67.0583  227.2192 H   0  0  0  0  0  0  0  0  0  0  0  0
  141.5827   70.3107  229.2382 H   0  0  0  0  0  0  0  0  0  0  0  0
  141.3430   71.7751  227.2220 H   0  0  0  0  0  0  0  0  0  0  0  0
  1  2  2  0
  2  3  1  0
  3  4  1  0
  4  5  1  0
  5  6  2  0
  5  7  1  0
  7  8  1  0
  8  9  1  0
  9 10  1  0
 10 11  1  0
 11 12  1  0
 12 13  1  0
 13 14  1  0
 14 15  1  0
 15 16  2  0
 15 17  1  0
 17 18  1  0
 18 19  1  0
 19 20  1  0
 20 21  1  0
  2 22  1  0
 22 23  2  0
 23 24  1  0
 24 25  2  0
 25 26  1  0
 26 27  2  0
 27 28  1  0
 27 29  1  0
 29 30  2  0
 30 31  1  0
 31 32  2  0
 12  7  1  0
 21 17  1  0
 32 22  1  0
 31 25  1  0
  3 33  1  0
  4 34  1  0
  4 35  1  0
  8 36  1  0
  8 37  1  0
  9 38  1  0
  9 39  1  0
 10 40  1  0
 10 41  1  0
 11 42  1  0
 11 43  1  0
 12 44  1  1
 13 45  1  0
 13 46  1  0
 14 47  1  0
 17 48  1  0
 18 49  1  0
 18 50  1  0
 19 51  1  0
 19 52  1  0
 20 53  1  0
 20 54  1  0
 21 55  1  0
 21 56  1  0
 23 57  1  0
 24 58  1  0
 26 59  1  0
 29 60  1  0
 30 61  1  0
M  END
>  <smiles>  (18) 
O=C(NCC(=O)N1CCCC[C@H]1CNC(=O)C1CCCC1)c1ccc2cc(F)ccc2n1

>  <score_type>  (18) 
oracle

>  <origin>  (18) 
autodockgpu

>  <m_score__min__energy>  (18) 
-9.3599999999999994

>  <m_primary>  (18) 
energy

>  <rmsd>  (18) 
2.5736790153081177

>  <m_score__min__rmsd>  (18) 
2.5736790153081177

>  <meeko>  (18) 
{"free_energy": -8.94, "intermolecular_energy": -11.03, "internal_energy": -1.61, "cluster_size": 37, "cluster_id": 1, "rank_in_cluster": 17}

>  <energy>  (18) 
-8.94

>  <cluster_rmsd>  (18) 
1.33

>  <cluster>  (18) 
1

$$$$

     RDKit          3D

 61 64  0  0  0  0  0  0  0  0999 V2000
  138.9680   71.3060  220.7690 O   0  0  0  0  0  0  0  0  0  0  0  0
  138.9520   71.9550  221.8720 C   0  0  0  0  0  0  0  0  0  0  0  0
  138.6150   73.3610  221.8620 N   0  0  0  0  0  0  0  0  0  0  0  0
  138.2920   74.0910  220.7080 C   0  0  0  0  0  0  0  0  0  0  0  0
  139.2450   74.4790  219.7020 C   0  0  0  0  0  0  0  0  0  0  0  0
  138.8940   75.5490  219.0370 O   0  0  0  0  0  0  0  0  0  0  0  0
  140.4810   73.9310  219.2910 N   0  0  0  0  0  0  0  0  0  0  0  0
  140.6790   73.5090  217.9120 C   0  0  0  0  0  0  0  0  0  0  0  0
  142.0520   73.6270  217.3520 C   0  0  0  0  0  0  0  0  0  0  0  0
  143.1330   73.5930  218.3590 C   0  0  0  0  0  0  0  0  0  0  0  0
  142.7900   74.4550  219.5800 C   0  0  0  0  0  0  0  0  0  0  0  0
  141.5900   73.7080  220.2000 C   0  0  1  0  0  0  0  0  0  0  0  0
  141.4170   74.0860  221.6150 C   0  0  0  0  0  0  0  0  0  0  0  0
  141.4650   75.5690  221.6980 N   0  0  0  0  0  0  0  0  0  0  0  0
  140.4360   76.3310  222.2610 C   0  0  0  0  0  0  0  0  0  0  0  0
  139.3790   75.8520  222.7450 O   0  0  0  0  0  0  0  0  0  0  0  0
  140.5820   77.8060  222.2980 C   0  0  0  0  0  0  0  0  0  0  0  0
  141.3630   78.3270  221.1130 C   0  0  0  0  0  0  0  0  0  0  0  0
  141.7710   79.7300  221.5720 C   0  0  0  0  0  0  0  0  0  0  0  0
  141.9370   79.6260  223.0690 C   0  0  0  0  0  0  0  0  0  0  0  0
  141.4330   78.2640  223.4620 C   0  0  0  0  0  0  0  0  0  0  0  0
  139.2700   71.2750  223.1240 C   0  0  0  0  0  0  0  0  0  0  0  0
  138.9340   69.9470  223.2680 C   0  0  0  0  0  0  0  0  0  0  0  0
  139.1930   69.2180  224.4090 C   0  0  0  0  0  0  0  0  0  0  0  0
  139.8310   69.9100  225.4440 C   0  0  0  0  0  0  0  0  0  0  0  0
  140.0910   69.1770  226.5930 C   0  0  0  0  0  0  0  0  0  0  0  0
  140.7170   69.8340  227.6220 C   0  0  0  0  0  0  0  0  0  0  0  0
  140.9750   69.1170  228.7530 F   0  0  0  0  0  0  0  0  0  0  0  0
  141.0650   71.1570  227.5080 C   0  0  0  0  0  0  0  0  0  0  0  0
  140.7980   71.8880  226.3460 C   0  0  0  0  0  0  0  0  0  0  0  0
  140.1690   71.2340  225.3060 C   0  0  0  0  0  0  0  0  0  0  0  0
  139.8870   71.8960  224.1550 N   0  0  0  0  0  0  0  0  0  0  0  0
  138.6350   73.8010  222.8230 H   0  0  0  0  0  0  0  0  0  0  0  0
  137.5317   73.4946  220.1825 H   0  0  0  0  0  0  0  0  0  0  0  0
  138.0437   75.0693  221.1453 H   0  0  0  0  0  0  0  0  0  0  0  0
  140.3847   72.4512  217.8448 H   0  0  0  0  0  0  0  0  0  0  0  0
  140.0701   74.2034  217.3144 H   0  0  0  0  0  0  0  0  0  0  0  0
  142.2095   72.7936  216.6516 H   0  0  0  0  0  0  0  0  0  0  0  0
  142.1075   74.6136  216.8688 H   0  0  0  0  0  0  0  0  0  0  0  0
  143.2844   72.5537  218.6861 H   0  0  0  0  0  0  0  0  0  0  0  0
  144.0472   73.9952  217.8981 H   0  0  0  0  0  0  0  0  0  0  0  0
  143.6348   74.5001  220.2831 H   0  0  0  0  0  0  0  0  0  0  0  0
  142.5669   75.5016  219.3253 H   0  0  0  0  0  0  0  0  0  0  0  0
  141.7168   72.6185  220.2836 H   0  0  0  0  0  0  0  0  0  0  0  0
  140.4468   73.7218  221.9837 H   0  0  0  0  0  0  0  0  0  0  0  0
  142.2116   73.6407  222.2317 H   0  0  0  0  0  0  0  0  0  0  0  0
  142.3110   76.0670  221.3140 H   0  0  0  0  0  0  0  0  0  0  0  0
  139.5459   78.1731  222.3396 H   0  0  0  0  0  0  0  0  0  0  0  0
  142.2460   77.7020  220.9137 H   0  0  0  0  0  0  0  0  0  0  0  0
  140.7886   78.3235  220.1749 H   0  0  0  0  0  0  0  0  0  0  0  0
  142.7177   80.0301  221.0992 H   0  0  0  0  0  0  0  0  0  0  0  0
  141.0227   80.4867  221.2936 H   0  0  0  0  0  0  0  0  0  0  0  0
  142.9973   79.7320  223.3419 H   0  0  0  0  0  0  0  0  0  0  0  0
  141.3798   80.4206  223.5868 H   0  0  0  0  0  0  0  0  0  0  0  0
  142.2736   77.5726  223.6211 H   0  0  0  0  0  0  0  0  0  0  0  0
  140.8633   78.2916  224.4026 H   0  0  0  0  0  0  0  0  0  0  0  0
  138.4330   69.4419  222.4290 H   0  0  0  0  0  0  0  0  0  0  0  0
  138.9151   68.1576  224.5000 H   0  0  0  0  0  0  0  0  0  0  0  0
  139.8081   68.1172  226.6752 H   0  0  0  0  0  0  0  0  0  0  0  0
  141.5662   71.6544  228.3514 H   0  0  0  0  0  0  0  0  0  0  0  0
  141.0797   72.9481  226.2637 H   0  0  0  0  0  0  0  0  0  0  0  0
  1  2  2  0
  2  3  1  0
  3  4  1  0
  4  5  1  0
  5  6  2  0
  5  7  1  0
  7  8  1  0
  8  9  1  0
  9 10  1  0
 10 11  1  0
 11 12  1  0
 12 13  1  0
 13 14  1  0
 14 15  1  0
 15 16  2  0
 15 17  1  0
 17 18  1  0
 18 19  1  0
 19 20  1  0
 20 21  1  0
  2 22  1  0
 22 23  2  0
 23 24  1  0
 24 25  2  0
 25 26  1  0
 26 27  2  0
 27 28  1  0
 27 29  1  0
 29 30  2  0
 30 31  1  0
 31 32  2  0
 12  7  1  0
 21 17  1  0
 32 22  1  0
 31 25  1  0
  3 33  1  0
  4 34  1  0
  4 35  1  0
  8 36  1  0
  8 37  1  0
  9 38  1  0
  9 39  1  0
 10 40  1  0
 10 41  1  0
 11 42  1  0
 11 43  1  0
 12 44  1  1
 13 45  1  0
 13 46  1  0
 14 47  1  0
 17 48  1  0
 18 49  1  0
 18 50  1  0
 19 51  1  0
 19 52  1  0
 20 53  1  0
 20 54  1  0
 21 55  1  0
 21 56  1  0
 23 57  1  0
 24 58  1  0
 26 59  1  0
 29 60  1  0
 30 61  1  0
M  END
>  <smiles>  (19) 
O=C(NCC(=O)N1CCCC[C@H]1CNC(=O)C1CCCC1)c1ccc2cc(F)ccc2n1

>  <score_type>  (19) 
oracle

>  <origin>  (19) 
autodockgpu

>  <m_score__min__energy>  (19) 
-9.3599999999999994

>  <m_primary>  (19) 
energy

>  <rmsd>  (19) 
2.650793381281998

>  <m_score__min__rmsd>  (19) 
2.650793381281998

>  <meeko>  (19) 
{"free_energy": -7.51, "intermolecular_energy": -9.59, "internal_energy": -2.95, "cluster_size": 37, "cluster_id": 1, "rank_in_cluster": 34}

>  <energy>  (19) 
-8.92

>  <cluster_rmsd>  (19) 
1.53

>  <cluster>  (19) 
1

$$$$

     RDKit          3D

 61 64  0  0  0  0  0  0  0  0999 V2000
  139.4810   74.9480  222.3760 O   0  0  0  0  0  0  0  0  0  0  0  0
  140.3140   75.2830  221.4640 C   0  0  0  0  0  0  0  0  0  0  0  0
  140.1410   76.5410  220.7740 N   0  0  0  0  0  0  0  0  0  0  0  0
  139.1070   77.4530  221.0350 C   0  0  0  0  0  0  0  0  0  0  0  0
  139.3130   78.8500  221.3190 C   0  0  0  0  0  0  0  0  0  0  0  0
  138.4640   79.6350  220.7070 O   0  0  0  0  0  0  0  0  0  0  0  0
  140.2480   79.5370  222.1240 N   0  0  0  0  0  0  0  0  0  0  0  0
  140.3190   79.2800  223.5550 C   0  0  0  0  0  0  0  0  0  0  0  0
  141.6500   79.4150  224.2070 C   0  0  0  0  0  0  0  0  0  0  0  0
  142.5870   80.3210  223.5120 C   0  0  0  0  0  0  0  0  0  0  0  0
  142.5630   80.0980  221.9950 C   0  0  0  0  0  0  0  0  0  0  0  0
  141.1410   80.5560  221.6050 C   0  0  1  0  0  0  0  0  0  0  0  0
  141.0740   80.8740  220.1670 C   0  0  0  0  0  0  0  0  0  0  0  0
  142.0880   80.0410  219.4690 N   0  0  0  0  0  0  0  0  0  0  0  0
  141.7630   78.8640  218.7880 C   0  0  0  0  0  0  0  0  0  0  0  0
  140.6020   78.3920  218.6960 O   0  0  0  0  0  0  0  0  0  0  0  0
  142.8490   78.1060  218.1220 C   0  0  0  0  0  0  0  0  0  0  0  0
  142.5490   77.8520  216.6620 C   0  0  0  0  0  0  0  0  0  0  0  0
  143.5220   76.7220  216.3120 C   0  0  0  0  0  0  0  0  0  0  0  0
  143.6760   75.9220  217.5820 C   0  0  0  0  0  0  0  0  0  0  0  0
  142.9800   76.7000  218.6650 C   0  0  0  0  0  0  0  0  0  0  0  0
  141.4250   74.3970  221.1290 C   0  0  0  0  0  0  0  0  0  0  0  0
  141.1830   73.0490  220.9750 C   0  0  0  0  0  0  0  0  0  0  0  0
  142.1630   72.1330  220.6590 C   0  0  0  0  0  0  0  0  0  0  0  0
  143.4520   72.6510  220.4970 C   0  0  0  0  0  0  0  0  0  0  0  0
  144.4400   71.7290  220.1790 C   0  0  0  0  0  0  0  0  0  0  0  0
  145.7130   72.2130  220.0150 C   0  0  0  0  0  0  0  0  0  0  0  0
  146.6860   71.3110  219.7030 F   0  0  0  0  0  0  0  0  0  0  0  0
  145.9850   73.5510  220.1620 C   0  0  0  0  0  0  0  0  0  0  0  0
  144.9830   74.4720  220.4820 C   0  0  0  0  0  0  0  0  0  0  0  0
  143.7000   73.9930  220.6490 C   0  0  0  0  0  0  0  0  0  0  0  0
  142.6890   74.8440  220.9600 N   0  0  0  0  0  0  0  0  0  0  0  0
  140.8790   76.7180  220.0380 H   0  0  0  0  0  0  0  0  0  0  0  0
  138.4535   77.4226  220.1507 H   0  0  0  0  0  0  0  0  0  0  0  0
  138.7545   77.0925  222.0127 H   0  0  0  0  0  0  0  0  0  0  0  0
  139.6348   79.9838  224.0515 H   0  0  0  0  0  0  0  0  0  0  0  0
  140.0571   78.2173  223.6646 H   0  0  0  0  0  0  0  0  0  0  0  0
  141.4952   79.7980  225.2265 H   0  0  0  0  0  0  0  0  0  0  0  0
  142.1097   78.4159  224.1862 H   0  0  0  0  0  0  0  0  0  0  0  0
  142.3020   81.3619  223.7249 H   0  0  0  0  0  0  0  0  0  0  0  0
  143.6037   80.1113  223.8757 H   0  0  0  0  0  0  0  0  0  0  0  0
  143.3278   80.7085  221.4925 H   0  0  0  0  0  0  0  0  0  0  0  0
  142.7817   79.0601  221.7036 H   0  0  0  0  0  0  0  0  0  0  0  0
  140.8240   81.5107  222.0500 H   0  0  0  0  0  0  0  0  0  0  0  0
  140.0704   80.6445  219.7795 H   0  0  0  0  0  0  0  0  0  0  0  0
  141.2745   81.9427  220.0004 H   0  0  0  0  0  0  0  0  0  0  0  0
  143.0950   80.3520  219.4910 H   0  0  0  0  0  0  0  0  0  0  0  0
  143.7423   78.7259  218.2885 H   0  0  0  0  0  0  0  0  0  0  0  0
  141.5052   77.5351  216.5205 H   0  0  0  0  0  0  0  0  0  0  0  0
  142.6688   78.7439  216.0294 H   0  0  0  0  0  0  0  0  0  0  0  0
  143.1101   76.0938  215.5084 H   0  0  0  0  0  0  0  0  0  0  0  0
  144.4866   77.1083  215.9510 H   0  0  0  0  0  0  0  0  0  0  0  0
  143.2103   74.9322  217.4662 H   0  0  0  0  0  0  0  0  0  0  0  0
  144.7369   75.7635  217.8257 H   0  0  0  0  0  0  0  0  0  0  0  0
  141.9878   76.2719  218.8706 H   0  0  0  0  0  0  0  0  0  0  0  0
  143.5385   76.6756  219.6123 H   0  0  0  0  0  0  0  0  0  0  0  0
  140.1539   72.6852  221.1115 H   0  0  0  0  0  0  0  0  0  0  0  0
  141.9450   71.0612  220.5415 H   0  0  0  0  0  0  0  0  0  0  0  0
  144.2124   70.6590  220.0638 H   0  0  0  0  0  0  0  0  0  0  0  0
  147.0167   73.9069  220.0246 H   0  0  0  0  0  0  0  0  0  0  0  0
  145.2099   75.5422  220.5967 H   0  0  0  0  0  0  0  0  0  0  0  0
  1  2  2  0
  2  3  1  0
  3  4  1  0
  4  5  1  0
  5  6  2  0
  5  7  1  0
  7  8  1  0
  8  9  1  0
  9 10  1  0
 10 11  1  0
 11 12  1  0
 12 13  1  0
 13 14  1  0
 14 15  1  0
 15 16  2  0
 15 17  1  0
 17 18  1  0
 18 19  1  0
 19 20  1  0
 20 21  1  0
  2 22  1  0
 22 23  2  0
 23 24  1  0
 24 25  2  0
 25 26  1  0
 26 27  2  0
 27 28  1  0
 27 29  1  0
 29 30  2  0
 30 31  1  0
 31 32  2  0
 12  7  1  0
 21 17  1  0
 32 22  1  0
 31 25  1  0
  3 33  1  0
  4 34  1  0
  4 35  1  0
  8 36  1  0
  8 37  1  0
  9 38  1  0
  9 39  1  0
 10 40  1  0
 10 41  1  0
 11 42  1  0
 11 43  1  0
 12 44  1  1
 13 45  1  0
 13 46  1  0
 14 47  1  0
 17 48  1  0
 18 49  1  0
 18 50  1  0
 19 51  1  0
 19 52  1  0
 20 53  1  0
 20 54  1  0
 21 55  1  0
 21 56  1  0
 23 57  1  0
 24 58  1  0
 26 59  1  0
 29 60  1  0
 30 61  1  0
M  END
>  <smiles>  (20) 
O=C(NCC(=O)N1CCCC[C@H]1CNC(=O)C1CCCC1)c1ccc2cc(F)ccc2n1

>  <score_type>  (20) 
oracle

>  <origin>  (20) 
autodockgpu

>  <m_score__min__energy>  (20) 
-9.3599999999999994

>  <m_primary>  (20) 
energy

>  <rmsd>  (20) 
6.656771658356641

>  <m_score__min__rmsd>  (20) 
6.656771658356641

>  <meeko>  (20) 
{"free_energy": -6.48, "intermolecular_energy": -8.57, "internal_energy": -3.4, "cluster_size": 1, "cluster_id": 8, "rank_in_cluster": 1}

>  <energy>  (20) 
-8.91

>  <cluster_rmsd>  (20) 
1.58

>  <cluster>  (20) 
1

$$$$

     RDKit          3D

 61 64  0  0  0  0  0  0  0  0999 V2000
  141.5000   72.3290  222.0000 O   0  0  0  0  0  0  0  0  0  0  0  0
  140.4240   72.3810  222.6910 C   0  0  0  0  0  0  0  0  0  0  0  0
  139.3940   73.3280  222.3280 N   0  0  0  0  0  0  0  0  0  0  0  0
  139.4790   74.2160  221.2460 C   0  0  0  0  0  0  0  0  0  0  0  0
  140.5400   75.1730  221.0650 C   0  0  0  0  0  0  0  0  0  0  0  0
  140.5920   76.0760  222.0100 O   0  0  0  0  0  0  0  0  0  0  0  0
  141.5310   75.3290  220.0710 N   0  0  0  0  0  0  0  0  0  0  0  0
  142.4720   74.2540  219.7920 C   0  0  0  0  0  0  0  0  0  0  0  0
  142.9700   74.1280  218.3950 C   0  0  0  0  0  0  0  0  0  0  0  0
  142.9370   75.3830  217.6150 C   0  0  0  0  0  0  0  0  0  0  0  0
  141.6260   76.1460  217.8320 C   0  0  0  0  0  0  0  0  0  0  0  0
  141.7100   76.5560  219.3180 C   0  0  1  0  0  0  0  0  0  0  0  0
  140.8020   77.6840  219.5970 C   0  0  0  0  0  0  0  0  0  0  0  0
  141.5650   78.7020  220.3660 N   0  0  0  0  0  0  0  0  0  0  0  0
  141.0670   79.3070  221.5240 C   0  0  0  0  0  0  0  0  0  0  0  0
  139.9420   79.0630  222.0280 O   0  0  0  0  0  0  0  0  0  0  0  0
  141.9100   80.3100  222.2200 C   0  0  0  0  0  0  0  0  0  0  0  0
  142.9470   79.6600  223.1070 C   0  0  0  0  0  0  0  0  0  0  0  0
  143.3660   80.8090  224.0290 C   0  0  0  0  0  0  0  0  0  0  0  0
  142.1330   81.6650  224.1840 C   0  0  0  0  0  0  0  0  0  0  0  0
  141.1160   81.1300  223.2130 C   0  0  0  0  0  0  0  0  0  0  0  0
  140.2470   71.4900  223.8330 C   0  0  0  0  0  0  0  0  0  0  0  0
  139.5580   70.3090  223.6600 C   0  0  0  0  0  0  0  0  0  0  0  0
  139.3380   69.4020  224.6750 C   0  0  0  0  0  0  0  0  0  0  0  0
  139.8630   69.7470  225.9250 C   0  0  0  0  0  0  0  0  0  0  0  0
  139.6420   68.8340  226.9470 C   0  0  0  0  0  0  0  0  0  0  0  0
  140.1460   69.1500  228.1820 C   0  0  0  0  0  0  0  0  0  0  0  0
  139.9310   68.2560  229.1900 F   0  0  0  0  0  0  0  0  0  0  0  0
  140.8370   70.3190  228.3870 C   0  0  0  0  0  0  0  0  0  0  0  0
  141.0550   71.2330  227.3500 C   0  0  0  0  0  0  0  0  0  0  0  0
  140.5500   70.9220  226.1040 C   0  0  0  0  0  0  0  0  0  0  0  0
  140.7330   71.7730  225.0630 N   0  0  0  0  0  0  0  0  0  0  0  0
  138.5510   73.2910  222.9650 H   0  0  0  0  0  0  0  0  0  0  0  0
  139.4905   73.5857  220.3446 H   0  0  0  0  0  0  0  0  0  0  0  0
  138.6320   74.8844  221.4601 H   0  0  0  0  0  0  0  0  0  0  0  0
  143.3465   74.4033  220.4423 H   0  0  0  0  0  0  0  0  0  0  0  0
  141.9058   73.3287  219.9745 H   0  0  0  0  0  0  0  0  0  0  0  0
  144.0109   73.7744  218.4323 H   0  0  0  0  0  0  0  0  0  0  0  0
  142.2941   73.4258  217.8850 H   0  0  0  0  0  0  0  0  0  0  0  0
  143.7772   76.0203  217.9279 H   0  0  0  0  0  0  0  0  0  0  0  0
  143.0146   75.1277  216.5479 H   0  0  0  0  0  0  0  0  0  0  0  0
  141.5696   77.0300  217.1798 H   0  0  0  0  0  0  0  0  0  0  0  0
  140.7318   75.5511  217.5945 H   0  0  0  0  0  0  0  0  0  0  0  0
  142.6773   76.9783  219.6280 H   0  0  0  0  0  0  0  0  0  0  0  0
  140.4446   78.1192  218.6521 H   0  0  0  0  0  0  0  0  0  0  0  0
  139.9296   77.3416  220.1730 H   0  0  0  0  0  0  0  0  0  0  0  0
  142.5220   78.9790  220.0210 H   0  0  0  0  0  0  0  0  0  0  0  0
  142.3402   80.9063  221.4018 H   0  0  0  0  0  0  0  0  0  0  0  0
  142.5131   78.8282  223.6813 H   0  0  0  0  0  0  0  0  0  0  0  0
  143.7859   79.2192  222.5485 H   0  0  0  0  0  0  0  0  0  0  0  0
  143.6906   80.4206  225.0056 H   0  0  0  0  0  0  0  0  0  0  0  0
  144.2115   81.3787  223.6161 H   0  0  0  0  0  0  0  0  0  0  0  0
  141.7493   81.5958  225.2126 H   0  0  0  0  0  0  0  0  0  0  0  0
  142.3560   82.7233  223.9833 H   0  0  0  0  0  0  0  0  0  0  0  0
  140.3801   80.4993  223.7333 H   0  0  0  0  0  0  0  0  0  0  0  0
  140.5514   81.9366  222.7224 H   0  0  0  0  0  0  0  0  0  0  0  0
  139.1629   70.0778  222.6598 H   0  0  0  0  0  0  0  0  0  0  0  0
  138.7843   68.4656  224.5120 H   0  0  0  0  0  0  0  0  0  0  0  0
  139.0878   67.8997  226.7738 H   0  0  0  0  0  0  0  0  0  0  0  0
  141.2285   70.5422  229.3904 H   0  0  0  0  0  0  0  0  0  0  0  0
  141.6097   72.1671  227.5222 H   0  0  0  0  0  0  0  0  0  0  0  0
  1  2  2  0
  2  3  1  0
  3  4  1  0
  4  5  1  0
  5  6  2  0
  5  7  1  0
  7  8  1  0
  8  9  1  0
  9 10  1  0
 10 11  1  0
 11 12  1  0
 12 13  1  0
 13 14  1  0
 14 15  1  0
 15 16  2  0
 15 17  1  0
 17 18  1  0
 18 19  1  0
 19 20  1  0
 20 21  1  0
  2 22  1  0
 22 23  2  0
 23 24  1  0
 24 25  2  0
 25 26  1  0
 26 27  2  0
 27 28  1  0
 27 29  1  0
 29 30  2  0
 30 31  1  0
 31 32  2  0
 12  7  1  0
 21 17  1  0
 32 22  1  0
 31 25  1  0
  3 33  1  0
  4 34  1  0
  4 35  1  0
  8 36  1  0
  8 37  1  0
  9 38  1  0
  9 39  1  0
 10 40  1  0
 10 41  1  0
 11 42  1  0
 11 43  1  0
 12 44  1  6
 13 45  1  0
 13 46  1  0
 14 47  1  0
 17 48  1  0
 18 49  1  0
 18 50  1  0
 19 51  1  0
 19 52  1  0
 20 53  1  0
 20 54  1  0
 21 55  1  0
 21 56  1  0
 23 57  1  0
 24 58  1  0
 26 59  1  0
 29 60  1  0
 30 61  1  0
M  END
>  <smiles>  (21) 
O=C(NCC(=O)N1CCCC[C@H]1CNC(=O)C1CCCC1)c1ccc2cc(F)ccc2n1

>  <score_type>  (21) 
oracle

>  <origin>  (21) 
autodockgpu

>  <m_score__min__energy>  (21) 
-9.3599999999999994

>  <m_primary>  (21) 
energy

>  <rmsd>  (21) 
2.611328917668961

>  <m_score__min__rmsd>  (21) 
2.611328917668961

>  <meeko>  (21) 
{"free_energy": -8.46, "intermolecular_energy": -10.55, "internal_energy": -1.5, "cluster_size": 37, "cluster_id": 1, "rank_in_cluster": 24}

>  <energy>  (21) 
-8.87

>  <cluster_rmsd>  (21) 
1.1

>  <cluster>  (21) 
1

$$$$

     RDKit          3D

 61 64  0  0  0  0  0  0  0  0999 V2000
  140.3250   73.0430  222.6900 O   0  0  0  0  0  0  0  0  0  0  0  0
  140.3390   71.7680  222.8030 C   0  0  0  0  0  0  0  0  0  0  0  0
  140.2890   70.9500  221.6120 N   0  0  0  0  0  0  0  0  0  0  0  0
  140.2300   71.4560  220.3050 C   0  0  0  0  0  0  0  0  0  0  0  0
  141.2880   72.2030  219.6770 C   0  0  0  0  0  0  0  0  0  0  0  0
  141.2460   72.1680  218.3710 O   0  0  0  0  0  0  0  0  0  0  0  0
  142.3610   72.9630  220.1940 N   0  0  0  0  0  0  0  0  0  0  0  0
  143.5010   72.3040  220.8140 C   0  0  0  0  0  0  0  0  0  0  0  0
  144.8260   72.9690  220.6880 C   0  0  0  0  0  0  0  0  0  0  0  0
  144.7630   74.4320  220.4850 C   0  0  0  0  0  0  0  0  0  0  0  0
  143.6820   74.8120  219.4680 C   0  0  0  0  0  0  0  0  0  0  0  0
  142.3770   74.4140  220.1900 C   0  0  1  0  0  0  0  0  0  0  0  0
  141.2230   75.1220  219.6060 C   0  0  0  0  0  0  0  0  0  0  0  0
  141.1690   76.4790  220.2100 N   0  0  0  0  0  0  0  0  0  0  0  0
  140.8260   76.7000  221.5470 C   0  0  0  0  0  0  0  0  0  0  0  0
  140.5290   75.7940  222.3660 O   0  0  0  0  0  0  0  0  0  0  0  0
  140.8040   78.0940  222.0540 C   0  0  0  0  0  0  0  0  0  0  0  0
  141.7330   78.2820  223.2320 C   0  0  0  0  0  0  0  0  0  0  0  0
  141.2300   79.5910  223.8490 C   0  0  0  0  0  0  0  0  0  0  0  0
  139.7470   79.6150  223.5740 C   0  0  0  0  0  0  0  0  0  0  0  0
  139.4630   78.4630  222.6500 C   0  0  0  0  0  0  0  0  0  0  0  0
  140.4050   71.1530  224.1260 C   0  0  0  0  0  0  0  0  0  0  0  0
  140.8710   71.8980  225.1870 C   0  0  0  0  0  0  0  0  0  0  0  0
  140.9710   71.4090  226.4720 C   0  0  0  0  0  0  0  0  0  0  0  0
  140.5650   70.0830  226.6530 C   0  0  0  0  0  0  0  0  0  0  0  0
  140.6650   69.5900  227.9470 C   0  0  0  0  0  0  0  0  0  0  0  0
  140.2730   68.2920  228.1500 C   0  0  0  0  0  0  0  0  0  0  0  0
  140.3700   67.8030  229.4190 F   0  0  0  0  0  0  0  0  0  0  0  0
  139.8030   67.5240  227.1120 C   0  0  0  0  0  0  0  0  0  0  0  0
  139.7060   68.0300  225.8120 C   0  0  0  0  0  0  0  0  0  0  0  0
  140.0990   69.3350  225.5990 C   0  0  0  0  0  0  0  0  0  0  0  0
  140.0250   69.8770  224.3570 N   0  0  0  0  0  0  0  0  0  0  0  0
  140.3030   69.9130  221.8180 H   0  0  0  0  0  0  0  0  0  0  0  0
  140.0566   70.5844  219.6567 H   0  0  0  0  0  0  0  0  0  0  0  0
  139.4656   72.2384  220.4209 H   0  0  0  0  0  0  0  0  0  0  0  0
  143.2818   72.2052  221.8874 H   0  0  0  0  0  0  0  0  0  0  0  0
  143.6089   71.3547  220.2688 H   0  0  0  0  0  0  0  0  0  0  0  0
  145.3965   72.7745  221.6082 H   0  0  0  0  0  0  0  0  0  0  0  0
  145.3014   72.5495  219.7891 H   0  0  0  0  0  0  0  0  0  0  0  0
  144.5358   74.9167  221.4460 H   0  0  0  0  0  0  0  0  0  0  0  0
  145.7356   74.7686  220.0967 H   0  0  0  0  0  0  0  0  0  0  0  0
  143.7024   75.8905  219.2526 H   0  0  0  0  0  0  0  0  0  0  0  0
  143.8083   74.3177  218.4935 H   0  0  0  0  0  0  0  0  0  0  0  0
  142.3139   74.7336  221.2407 H   0  0  0  0  0  0  0  0  0  0  0  0
  141.3459   75.2023  218.5158 H   0  0  0  0  0  0  0  0  0  0  0  0
  140.2919   74.5732  219.8106 H   0  0  0  0  0  0  0  0  0  0  0  0
  141.3980   77.3090  219.6020 H   0  0  0  0  0  0  0  0  0  0  0  0
  141.0755   78.6979  221.1756 H   0  0  0  0  0  0  0  0  0  0  0  0
  141.6453   77.4480  223.9439 H   0  0  0  0  0  0  0  0  0  0  0  0
  142.7960   78.3112  222.9505 H   0  0  0  0  0  0  0  0  0  0  0  0
  141.4215   79.6053  224.9321 H   0  0  0  0  0  0  0  0  0  0  0  0
  141.7406   80.4680  223.4245 H   0  0  0  0  0  0  0  0  0  0  0  0
  139.1850   79.4966  224.5122 H   0  0  0  0  0  0  0  0  0  0  0  0
  139.4426   80.5706  223.1221 H   0  0  0  0  0  0  0  0  0  0  0  0
  139.0425   77.6142  223.2093 H   0  0  0  0  0  0  0  0  0  0  0  0
  138.7275   78.7278  221.8761 H   0  0  0  0  0  0  0  0  0  0  0  0
  141.1793   72.9370  224.9990 H   0  0  0  0  0  0  0  0  0  0  0  0
  141.3468   72.0236  227.3033 H   0  0  0  0  0  0  0  0  0  0  0  0
  141.0416   70.2126  228.7720 H   0  0  0  0  0  0  0  0  0  0  0  0
  139.4957   66.4862  227.3084 H   0  0  0  0  0  0  0  0  0  0  0  0
  139.3289   67.4081  224.9867 H   0  0  0  0  0  0  0  0  0  0  0  0
  1  2  2  0
  2  3  1  0
  3  4  1  0
  4  5  1  0
  5  6  2  0
  5  7  1  0
  7  8  1  0
  8  9  1  0
  9 10  1  0
 10 11  1  0
 11 12  1  0
 12 13  1  0
 13 14  1  0
 14 15  1  0
 15 16  2  0
 15 17  1  0
 17 18  1  0
 18 19  1  0
 19 20  1  0
 20 21  1  0
  2 22  1  0
 22 23  2  0
 23 24  1  0
 24 25  2  0
 25 26  1  0
 26 27  2  0
 27 28  1  0
 27 29  1  0
 29 30  2  0
 30 31  1  0
 31 32  2  0
 12  7  1  0
 21 17  1  0
 32 22  1  0
 31 25  1  0
  3 33  1  0
  4 34  1  0
  4 35  1  0
  8 36  1  0
  8 37  1  0
  9 38  1  0
  9 39  1  0
 10 40  1  0
 10 41  1  0
 11 42  1  0
 11 43  1  0
 12 44  1  1
 13 45  1  0
 13 46  1  0
 14 47  1  0
 17 48  1  0
 18 49  1  0
 18 50  1  0
 19 51  1  0
 19 52  1  0
 20 53  1  0
 20 54  1  0
 21 55  1  0
 21 56  1  0
 23 57  1  0
 24 58  1  0
 26 59  1  0
 29 60  1  0
 30 61  1  0
M  END
>  <smiles>  (22) 
O=C(NCC(=O)N1CCCC[C@H]1CNC(=O)C1CCCC1)c1ccc2cc(F)ccc2n1

>  <score_type>  (22) 
oracle

>  <origin>  (22) 
autodockgpu

>  <m_score__min__energy>  (22) 
-9.3599999999999994

>  <m_primary>  (22) 
energy

>  <rmsd>  (22) 
4.028314053713431

>  <m_score__min__rmsd>  (22) 
4.028314053713431

>  <meeko>  (22) 
{"free_energy": -8.53, "intermolecular_energy": -10.62, "internal_energy": -2.09, "cluster_size": 37, "cluster_id": 1, "rank_in_cluster": 22}

>  <energy>  (22) 
-8.53

>  <cluster_rmsd>  (22) 
1.02

>  <cluster>  (22) 
1

$$$$

     RDKit          3D

 61 64  0  0  0  0  0  0  0  0999 V2000
  140.1210   73.3780  222.5400 O   0  0  0  0  0  0  0  0  0  0  0  0
  140.0150   72.1060  222.4440 C   0  0  0  0  0  0  0  0  0  0  0  0
  139.8950   71.5020  221.1360 N   0  0  0  0  0  0  0  0  0  0  0  0
  139.8910   72.2170  219.9300 C   0  0  0  0  0  0  0  0  0  0  0  0
  140.7710   73.3180  219.6390 C   0  0  0  0  0  0  0  0  0  0  0  0
  140.3260   74.1050  218.6930 O   0  0  0  0  0  0  0  0  0  0  0  0
  142.0190   73.7150  220.1700 N   0  0  0  0  0  0  0  0  0  0  0  0
  143.0030   72.7170  220.5640 C   0  0  0  0  0  0  0  0  0  0  0  0
  144.4390   73.0840  220.4260 C   0  0  0  0  0  0  0  0  0  0  0  0
  144.7110   74.5350  220.4730 C   0  0  0  0  0  0  0  0  0  0  0  0
  143.6960   75.3250  219.6370 C   0  0  0  0  0  0  0  0  0  0  0  0
  142.3750   75.1020  220.4040 C   0  0  1  0  0  0  0  0  0  0  0  0
  141.3900   76.1420  220.0540 C   0  0  0  0  0  0  0  0  0  0  0  0
  141.5940   77.2890  220.9770 N   0  0  0  0  0  0  0  0  0  0  0  0
  140.5360   77.9610  221.5970 C   0  0  0  0  0  0  0  0  0  0  0  0
  139.3230   77.6750  221.4420 O   0  0  0  0  0  0  0  0  0  0  0  0
  140.8480   79.0930  222.5030 C   0  0  0  0  0  0  0  0  0  0  0  0
  141.4390   80.2680  221.7590 C   0  0  0  0  0  0  0  0  0  0  0  0
  142.0780   81.0890  222.8830 C   0  0  0  0  0  0  0  0  0  0  0  0
  142.5150   80.0780  223.9140 C   0  0  0  0  0  0  0  0  0  0  0  0
  141.9510   78.7530  223.4810 C   0  0  0  0  0  0  0  0  0  0  0  0
  140.0150   71.2810  223.6490 C   0  0  0  0  0  0  0  0  0  0  0  0
  139.4840   70.0110  223.5900 C   0  0  0  0  0  0  0  0  0  0  0  0
  139.4390   69.1570  224.6700 C   0  0  0  0  0  0  0  0  0  0  0  0
  139.9730   69.6540  225.8640 C   0  0  0  0  0  0  0  0  0  0  0  0
  139.9270   68.7940  226.9520 C   0  0  0  0  0  0  0  0  0  0  0  0
  140.4450   69.2590  228.1340 C   0  0  0  0  0  0  0  0  0  0  0  0
  140.4020   68.4170  229.2070 F   0  0  0  0  0  0  0  0  0  0  0  0
  140.9810   70.5190  228.2240 C   0  0  0  0  0  0  0  0  0  0  0  0
  141.0220   71.3790  227.1220 C   0  0  0  0  0  0  0  0  0  0  0  0
  140.5030   70.9190  225.9290 C   0  0  0  0  0  0  0  0  0  0  0  0
  140.5190   71.7110  224.8280 N   0  0  0  0  0  0  0  0  0  0  0  0
  139.8100   70.4490  221.1710 H   0  0  0  0  0  0  0  0  0  0  0  0
  140.0768   71.4720  219.1423 H   0  0  0  0  0  0  0  0  0  0  0  0
  138.9248   72.7379  220.0017 H   0  0  0  0  0  0  0  0  0  0  0  0
  142.8237   72.4756  221.6221 H   0  0  0  0  0  0  0  0  0  0  0  0
  142.8557   71.8823  219.8629 H   0  0  0  0  0  0  0  0  0  0  0  0
  144.9958   72.6040  221.2443 H   0  0  0  0  0  0  0  0  0  0  0  0
  144.7538   72.7404  219.4296 H   0  0  0  0  0  0  0  0  0  0  0  0
  144.6556   74.8753  221.5176 H   0  0  0  0  0  0  0  0  0  0  0  0
  145.7134   74.7118  220.0560 H   0  0  0  0  0  0  0  0  0  0  0  0
  143.9579   76.3928  219.6007 H   0  0  0  0  0  0  0  0  0  0  0  0
  143.6502   75.0010  218.5868 H   0  0  0  0  0  0  0  0  0  0  0  0
  142.4452   75.2312  221.4941 H   0  0  0  0  0  0  0  0  0  0  0  0
  141.5420   76.4667  219.0141 H   0  0  0  0  0  0  0  0  0  0  0  0
  140.3667   75.7497  220.1484 H   0  0  0  0  0  0  0  0  0  0  0  0
  142.5800   77.6100  221.1690 H   0  0  0  0  0  0  0  0  0  0  0  0
  139.8853   79.3157  222.9863 H   0  0  0  0  0  0  0  0  0  0  0  0
  142.1939   79.9375  221.0304 H   0  0  0  0  0  0  0  0  0  0  0  0
  140.6983   80.8316  221.1727 H   0  0  0  0  0  0  0  0  0  0  0  0
  142.9436   81.6525  222.5046 H   0  0  0  0  0  0  0  0  0  0  0  0
  141.3775   81.8263  223.3021 H   0  0  0  0  0  0  0  0  0  0  0  0
  143.6131   80.0281  223.9552 H   0  0  0  0  0  0  0  0  0  0  0  0
  142.1568   80.3534  224.9169 H   0  0  0  0  0  0  0  0  0  0  0  0
  142.7263   78.1448  222.9921 H   0  0  0  0  0  0  0  0  0  0  0  0
  141.5786   78.1659  224.3335 H   0  0  0  0  0  0  0  0  0  0  0  0
  139.0748   69.6609  222.6309 H   0  0  0  0  0  0  0  0  0  0  0  0
  139.0098   68.1468  224.5981 H   0  0  0  0  0  0  0  0  0  0  0  0
  139.4950   67.7857  226.8704 H   0  0  0  0  0  0  0  0  0  0  0  0
  141.3885   70.8610  229.1868 H   0  0  0  0  0  0  0  0  0  0  0  0
  141.4532   72.3877  227.2034 H   0  0  0  0  0  0  0  0  0  0  0  0
  1  2  2  0
  2  3  1  0
  3  4  1  0
  4  5  1  0
  5  6  2  0
  5  7  1  0
  7  8  1  0
  8  9  1  0
  9 10  1  0
 10 11  1  0
 11 12  1  0
 12 13  1  0
 13 14  1  0
 14 15  1  0
 15 16  2  0
 15 17  1  0
 17 18  1  0
 18 19  1  0
 19 20  1  0
 20 21  1  0
  2 22  1  0
 22 23  2  0
 23 24  1  0
 24 25  2  0
 25 26  1  0
 26 27  2  0
 27 28  1  0
 27 29  1  0
 29 30  2  0
 30 31  1  0
 31 32  2  0
 12  7  1  0
 21 17  1  0
 32 22  1  0
 31 25  1  0
  3 33  1  0
  4 34  1  0
  4 35  1  0
  8 36  1  0
  8 37  1  0
  9 38  1  0
  9 39  1  0
 10 40  1  0
 10 41  1  0
 11 42  1  0
 11 43  1  0
 12 44  1  1
 13 45  1  0
 13 46  1  0
 14 47  1  0
 17 48  1  0
 18 49  1  0
 18 50  1  0
 19 51  1  0
 19 52  1  0
 20 53  1  0
 20 54  1  0
 21 55  1  0
 21 56  1  0
 23 57  1  0
 24 58  1  0
 26 59  1  0
 29 60  1  0
 30 61  1  0
M  END
>  <smiles>  (23) 
O=C(NCC(=O)N1CCCC[C@H]1CNC(=O)C1CCCC1)c1ccc2cc(F)ccc2n1

>  <score_type>  (23) 
oracle

>  <origin>  (23) 
autodockgpu

>  <m_score__min__energy>  (23) 
-9.3599999999999994

>  <m_primary>  (23) 
energy

>  <rmsd>  (23) 
3.1473483250786884

>  <m_score__min__rmsd>  (23) 
3.1473483250786884

>  <meeko>  (23) 
{"free_energy": -9.26, "intermolecular_energy": -11.35, "internal_energy": -1.46, "cluster_size": 37, "cluster_id": 1, "rank_in_cluster": 7}

>  <energy>  (23) 
-8.51

>  <cluster_rmsd>  (23) 
1.29

>  <cluster>  (23) 
1

$$$$

     RDKit          3D

 61 64  0  0  0  0  0  0  0  0999 V2000
  139.5660   70.9920  221.4760 O   0  0  0  0  0  0  0  0  0  0  0  0
  139.6070   71.5610  222.6220 C   0  0  0  0  0  0  0  0  0  0  0  0
  139.5340   73.0030  222.7000 N   0  0  0  0  0  0  0  0  0  0  0  0
  139.4140   73.8520  221.5890 C   0  0  0  0  0  0  0  0  0  0  0  0
  140.3920   73.9520  220.5380 C   0  0  0  0  0  0  0  0  0  0  0  0
  139.8850   73.8050  219.3410 O   0  0  0  0  0  0  0  0  0  0  0  0
  141.7870   74.1750  220.5430 N   0  0  0  0  0  0  0  0  0  0  0  0
  142.7070   73.0850  220.8360 C   0  0  0  0  0  0  0  0  0  0  0  0
  144.0390   73.1210  220.1740 C   0  0  0  0  0  0  0  0  0  0  0  0
  144.4990   74.4720  219.7880 C   0  0  0  0  0  0  0  0  0  0  0  0
  143.3700   75.2880  219.1490 C   0  0  0  0  0  0  0  0  0  0  0  0
  142.3810   75.4800  220.3190 C   0  0  1  0  0  0  0  0  0  0  0  0
  141.4820   76.6190  220.0590 C   0  0  0  0  0  0  0  0  0  0  0  0
  141.7660   77.6640  221.0760 N   0  0  0  0  0  0  0  0  0  0  0  0
  141.0670   77.7560  222.2840 C   0  0  0  0  0  0  0  0  0  0  0  0
  140.1400   76.9820  222.6300 O   0  0  0  0  0  0  0  0  0  0  0  0
  141.4300   78.8350  223.2340 C   0  0  0  0  0  0  0  0  0  0  0  0
  140.5200   80.0360  223.1020 C   0  0  0  0  0  0  0  0  0  0  0  0
  141.3190   81.1390  223.8040 C   0  0  0  0  0  0  0  0  0  0  0  0
  142.7680   80.7960  223.5620 C   0  0  0  0  0  0  0  0  0  0  0  0
  142.7850   79.4320  222.9270 C   0  0  0  0  0  0  0  0  0  0  0  0
  139.7260   70.7550  223.8330 C   0  0  0  0  0  0  0  0  0  0  0  0
  139.2450   69.4640  223.8280 C   0  0  0  0  0  0  0  0  0  0  0  0
  139.3110   68.6250  224.9200 C   0  0  0  0  0  0  0  0  0  0  0  0
  139.9060   69.1620  226.0660 C   0  0  0  0  0  0  0  0  0  0  0  0
  139.9720   68.3180  227.1660 C   0  0  0  0  0  0  0  0  0  0  0  0
  140.5520   68.8210  228.3020 C   0  0  0  0  0  0  0  0  0  0  0  0
  140.6190   67.9950  229.3850 F   0  0  0  0  0  0  0  0  0  0  0  0
  141.0410   70.1040  228.3380 C   0  0  0  0  0  0  0  0  0  0  0  0
  140.9690   70.9470  227.2250 C   0  0  0  0  0  0  0  0  0  0  0  0
  140.3870   70.4480  226.0780 C   0  0  0  0  0  0  0  0  0  0  0  0
  140.2930   71.2240  224.9680 N   0  0  0  0  0  0  0  0  0  0  0  0
  139.5800   73.3700  223.6900 H   0  0  0  0  0  0  0  0  0  0  0  0
  138.4748   73.5634  221.0945 H   0  0  0  0  0  0  0  0  0  0  0  0
  139.5235   74.8362  222.0679 H   0  0  0  0  0  0  0  0  0  0  0  0
  142.8779   73.0797  221.9226 H   0  0  0  0  0  0  0  0  0  0  0  0
  142.2164   72.1855  220.4357 H   0  0  0  0  0  0  0  0  0  0  0  0
  144.7780   72.6920  220.8668 H   0  0  0  0  0  0  0  0  0  0  0  0
  143.9384   72.5478  219.2406 H   0  0  0  0  0  0  0  0  0  0  0  0
  144.8565   74.9980  220.6855 H   0  0  0  0  0  0  0  0  0  0  0  0
  145.3073   74.3638  219.0498 H   0  0  0  0  0  0  0  0  0  0  0  0
  143.7405   76.2560  218.7806 H   0  0  0  0  0  0  0  0  0  0  0  0
  142.9191   74.7965  218.2743 H   0  0  0  0  0  0  0  0  0  0  0  0
  142.8425   75.7859  221.2695 H   0  0  0  0  0  0  0  0  0  0  0  0
  141.6662   77.0184  219.0508 H   0  0  0  0  0  0  0  0  0  0  0  0
  140.4310   76.3001  220.1194 H   0  0  0  0  0  0  0  0  0  0  0  0
  142.5270   78.3660  220.8770 H   0  0  0  0  0  0  0  0  0  0  0  0
  141.3775   78.3474  224.2186 H   0  0  0  0  0  0  0  0  0  0  0  0
  140.3423   80.2854  222.0455 H   0  0  0  0  0  0  0  0  0  0  0  0
  139.5206   79.8774  223.5334 H   0  0  0  0  0  0  0  0  0  0  0  0
  141.0787   82.1223  223.3735 H   0  0  0  0  0  0  0  0  0  0  0  0
  141.0846   81.1956  224.8772 H   0  0  0  0  0  0  0  0  0  0  0  0
  143.2257   81.5347  222.8875 H   0  0  0  0  0  0  0  0  0  0  0  0
  143.3405   80.8042  224.5013 H   0  0  0  0  0  0  0  0  0  0  0  0
  142.9330   79.5143  221.8401 H   0  0  0  0  0  0  0  0  0  0  0  0
  143.6056   78.8092  223.3125 H   0  0  0  0  0  0  0  0  0  0  0  0
  138.7843   69.0828  222.9047 H   0  0  0  0  0  0  0  0  0  0  0  0
  138.9200   67.5972  224.8916 H   0  0  0  0  0  0  0  0  0  0  0  0
  139.5769   67.2921  227.1281 H   0  0  0  0  0  0  0  0  0  0  0  0
  141.5005   70.4773  229.2651 H   0  0  0  0  0  0  0  0  0  0  0  0
  141.3630   71.9733  227.2626 H   0  0  0  0  0  0  0  0  0  0  0  0
  1  2  2  0
  2  3  1  0
  3  4  1  0
  4  5  1  0
  5  6  2  0
  5  7  1  0
  7  8  1  0
  8  9  1  0
  9 10  1  0
 10 11  1  0
 11 12  1  0
 12 13  1  0
 13 14  1  0
 14 15  1  0
 15 16  2  0
 15 17  1  0
 17 18  1  0
 18 19  1  0
 19 20  1  0
 20 21  1  0
  2 22  1  0
 22 23  2  0
 23 24  1  0
 24 25  2  0
 25 26  1  0
 26 27  2  0
 27 28  1  0
 27 29  1  0
 29 30  2  0
 30 31  1  0
 31 32  2  0
 12  7  1  0
 21 17  1  0
 32 22  1  0
 31 25  1  0
  3 33  1  0
  4 34  1  0
  4 35  1  0
  8 36  1  0
  8 37  1  0
  9 38  1  0
  9 39  1  0
 10 40  1  0
 10 41  1  0
 11 42  1  0
 11 43  1  0
 12 44  1  1
 13 45  1  0
 13 46  1  0
 14 47  1  0
 17 48  1  0
 18 49  1  0
 18 50  1  0
 19 51  1  0
 19 52  1  0
 20 53  1  0
 20 54  1  0
 21 55  1  0
 21 56  1  0
 23 57  1  0
 24 58  1  0
 26 59  1  0
 29 60  1  0
 30 61  1  0
M  END
>  <smiles>  (24) 
O=C(NCC(=O)N1CCCC[C@H]1CNC(=O)C1CCCC1)c1ccc2cc(F)ccc2n1

>  <score_type>  (24) 
oracle

>  <origin>  (24) 
autodockgpu

>  <m_score__min__energy>  (24) 
-9.3599999999999994

>  <m_primary>  (24) 
energy

>  <rmsd>  (24) 
2.6940021564695167

>  <m_score__min__rmsd>  (24) 
2.6940021564695167

>  <meeko>  (24) 
{"free_energy": -9.2, "intermolecular_energy": -11.29, "internal_energy": -1.86, "cluster_size": 37, "cluster_id": 1, "rank_in_cluster": 9}

>  <energy>  (24) 
-8.46

>  <cluster_rmsd>  (24) 
1.59

>  <cluster>  (24) 
1

$$$$

     RDKit          3D

 61 64  0  0  0  0  0  0  0  0999 V2000
  138.0700   70.3400  221.8620 O   0  0  0  0  0  0  0  0  0  0  0  0
  138.6880   70.9820  222.7810 C   0  0  0  0  0  0  0  0  0  0  0  0
  138.9350   72.3970  222.6130 N   0  0  0  0  0  0  0  0  0  0  0  0
  138.5350   73.1440  221.4960 C   0  0  0  0  0  0  0  0  0  0  0  0
  139.4360   73.6260  220.4810 C   0  0  0  0  0  0  0  0  0  0  0  0
  138.8820   73.7290  219.3010 O   0  0  0  0  0  0  0  0  0  0  0  0
  140.7960   74.0070  220.5080 N   0  0  0  0  0  0  0  0  0  0  0  0
  141.8030   73.1950  219.8390 C   0  0  0  0  0  0  0  0  0  0  0  0
  142.9850   73.9020  219.2770 C   0  0  0  0  0  0  0  0  0  0  0  0
  143.3030   75.1870  219.9330 C   0  0  0  0  0  0  0  0  0  0  0  0
  142.0400   76.0170  220.1870 C   0  0  0  0  0  0  0  0  0  0  0  0
  141.2780   75.1700  221.2290 C   0  0  1  0  0  0  0  0  0  0  0  0
  140.2950   75.9970  221.9530 C   0  0  0  0  0  0  0  0  0  0  0  0
  141.0330   77.1030  222.6170 N   0  0  0  0  0  0  0  0  0  0  0  0
  140.4160   78.2900  223.0230 C   0  0  0  0  0  0  0  0  0  0  0  0
  139.1950   78.5460  222.8710 O   0  0  0  0  0  0  0  0  0  0  0  0
  141.2420   79.3320  223.6800 C   0  0  0  0  0  0  0  0  0  0  0  0
  140.7120   80.7230  223.4180 C   0  0  0  0  0  0  0  0  0  0  0  0
  141.9100   81.6100  223.7750 C   0  0  0  0  0  0  0  0  0  0  0  0
  143.1290   80.7890  223.4330 C   0  0  0  0  0  0  0  0  0  0  0  0
  142.6340   79.4090  223.0930 C   0  0  0  0  0  0  0  0  0  0  0  0
  139.1370   70.2850  223.9830 C   0  0  0  0  0  0  0  0  0  0  0  0
  138.9810   68.9180  224.0610 C   0  0  0  0  0  0  0  0  0  0  0  0
  139.3720   68.1710  225.1520 C   0  0  0  0  0  0  0  0  0  0  0  0
  139.9510   68.8870  226.2050 C   0  0  0  0  0  0  0  0  0  0  0  0
  140.3450   68.1350  227.3040 C   0  0  0  0  0  0  0  0  0  0  0  0
  140.9150   68.8140  228.3500 C   0  0  0  0  0  0  0  0  0  0  0  0
  141.3040   68.0800  229.4310 F   0  0  0  0  0  0  0  0  0  0  0  0
  141.0840   70.1760  228.3010 C   0  0  0  0  0  0  0  0  0  0  0  0
  140.6840   70.9250  227.1900 C   0  0  0  0  0  0  0  0  0  0  0  0
  140.1090   70.2490  226.1330 C   0  0  0  0  0  0  0  0  0  0  0  0
  139.7030   70.9270  225.0290 N   0  0  0  0  0  0  0  0  0  0  0  0
  139.4540   72.8280  223.4270 H   0  0  0  0  0  0  0  0  0  0  0  0
  137.7993   72.5193  220.9683 H   0  0  0  0  0  0  0  0  0  0  0  0
  138.2365   74.0886  221.9741 H   0  0  0  0  0  0  0  0  0  0  0  0
  142.1735   72.4602  220.5689 H   0  0  0  0  0  0  0  0  0  0  0  0
  141.2876   72.7677  218.9662 H   0  0  0  0  0  0  0  0  0  0  0  0
  143.8588   73.2411  219.3755 H   0  0  0  0  0  0  0  0  0  0  0  0
  142.7383   74.1387  218.2315 H   0  0  0  0  0  0  0  0  0  0  0  0
  143.7968   74.9845  220.8949 H   0  0  0  0  0  0  0  0  0  0  0  0
  143.9637   75.7602  219.2660 H   0  0  0  0  0  0  0  0  0  0  0  0
  142.2921   77.0088  220.5904 H   0  0  0  0  0  0  0  0  0  0  0  0
  141.4571   76.2133  219.2750 H   0  0  0  0  0  0  0  0  0  0  0  0
  141.8942   74.7947  222.0593 H   0  0  0  0  0  0  0  0  0  0  0  0
  139.5598   76.4091  221.2462 H   0  0  0  0  0  0  0  0  0  0  0  0
  139.7581   75.3916  222.6981 H   0  0  0  0  0  0  0  0  0  0  0  0
  142.0670   76.9860  222.7870 H   0  0  0  0  0  0  0  0  0  0  0  0
  141.2286   79.0478  224.7426 H   0  0  0  0  0  0  0  0  0  0  0  0
  140.4266   80.8470  222.3629 H   0  0  0  0  0  0  0  0  0  0  0  0
  139.8048   80.9610  223.9927 H   0  0  0  0  0  0  0  0  0  0  0  0
  141.8921   82.5378  223.1843 H   0  0  0  0  0  0  0  0  0  0  0  0
  141.8994   81.9069  224.8341 H   0  0  0  0  0  0  0  0  0  0  0  0
  143.6529   81.2277  222.5710 H   0  0  0  0  0  0  0  0  0  0  0  0
  143.8381   80.7611  224.2735 H   0  0  0  0  0  0  0  0  0  0  0  0
  142.6012   79.2686  222.0025 H   0  0  0  0  0  0  0  0  0  0  0  0
  143.2934   78.6250  223.4937 H   0  0  0  0  0  0  0  0  0  0  0  0
  138.5209   68.3959  223.2091 H   0  0  0  0  0  0  0  0  0  0  0  0
  139.2370   67.0800  225.1918 H   0  0  0  0  0  0  0  0  0  0  0  0
  140.2061   67.0442  227.3340 H   0  0  0  0  0  0  0  0  0  0  0  0
  141.5454   70.6904  229.1568 H   0  0  0  0  0  0  0  0  0  0  0  0
  140.8229   72.0158  227.1595 H   0  0  0  0  0  0  0  0  0  0  0  0
  1  2  2  0
  2  3  1  0
  3  4  1  0
  4  5  1  0
  5  6  2  0
  5  7  1  0
  7  8  1  0
  8  9  1  0
  9 10  1  0
 10 11  1  0
 11 12  1  0
 12 13  1  0
 13 14  1  0
 14 15  1  0
 15 16  2  0
 15 17  1  0
 17 18  1  0
 18 19  1  0
 19 20  1  0
 20 21  1  0
  2 22  1  0
 22 23  2  0
 23 24  1  0
 24 25  2  0
 25 26  1  0
 26 27  2  0
 27 28  1  0
 27 29  1  0
 29 30  2  0
 30 31  1  0
 31 32  2  0
 12  7  1  0
 21 17  1  0
 32 22  1  0
 31 25  1  0
  3 33  1  0
  4 34  1  0
  4 35  1  0
  8 36  1  0
  8 37  1  0
  9 38  1  0
  9 39  1  0
 10 40  1  0
 10 41  1  0
 11 42  1  0
 11 43  1  0
 12 44  1  1
 13 45  1  0
 13 46  1  0
 14 47  1  0
 17 48  1  0
 18 49  1  0
 18 50  1  0
 19 51  1  0
 19 52  1  0
 20 53  1  0
 20 54  1  0
 21 55  1  0
 21 56  1  0
 23 57  1  0
 24 58  1  0
 26 59  1  0
 29 60  1  0
 30 61  1  0
M  END
>  <smiles>  (25) 
O=C(NCC(=O)N1CCCC[C@H]1CNC(=O)C1CCCC1)c1ccc2cc(F)ccc2n1

>  <score_type>  (25) 
oracle

>  <origin>  (25) 
autodockgpu

>  <m_score__min__energy>  (25) 
-9.3599999999999994

>  <m_primary>  (25) 
energy

>  <rmsd>  (25) 
2.415029515918058

>  <m_score__min__rmsd>  (25) 
2.415029515918058

>  <meeko>  (25) 
{"free_energy": -8.92, "intermolecular_energy": -11.01, "internal_energy": -1.63, "cluster_size": 37, "cluster_id": 1, "rank_in_cluster": 19}

>  <energy>  (25) 
-8.42

>  <cluster_rmsd>  (25) 
1.75

>  <cluster>  (25) 
1

$$$$

     RDKit          3D

 61 64  0  0  0  0  0  0  0  0999 V2000
  138.2260   70.4170  221.8660 O   0  0  0  0  0  0  0  0  0  0  0  0
  138.8300   71.0150  222.8230 C   0  0  0  0  0  0  0  0  0  0  0  0
  139.1180   72.4270  222.7060 N   0  0  0  0  0  0  0  0  0  0  0  0
  138.7750   73.2170  221.5990 C   0  0  0  0  0  0  0  0  0  0  0  0
  139.3070   74.5310  221.3460 C   0  0  0  0  0  0  0  0  0  0  0  0
  140.2050   74.9050  222.2200 O   0  0  0  0  0  0  0  0  0  0  0  0
  139.0490   75.4930  220.3440 N   0  0  0  0  0  0  0  0  0  0  0  0
  139.3350   75.1990  218.9480 C   0  0  0  0  0  0  0  0  0  0  0  0
  138.4630   75.8350  217.9240 C   0  0  0  0  0  0  0  0  0  0  0  0
  137.8190   77.0920  218.3590 C   0  0  0  0  0  0  0  0  0  0  0  0
  137.2670   76.9770  219.7840 C   0  0  0  0  0  0  0  0  0  0  0  0
  138.5470   76.8230  220.6350 C   0  0  1  0  0  0  0  0  0  0  0  0
  138.2800   77.1750  222.0420 C   0  0  0  0  0  0  0  0  0  0  0  0
  139.5450   77.6880  222.6290 N   0  0  0  0  0  0  0  0  0  0  0  0
  139.7180   79.0220  223.0110 C   0  0  0  0  0  0  0  0  0  0  0  0
  138.8390   79.9140  222.8990 O   0  0  0  0  0  0  0  0  0  0  0  0
  141.0190   79.4320  223.5910 C   0  0  0  0  0  0  0  0  0  0  0  0
  141.0880   80.9240  223.8300 C   0  0  0  0  0  0  0  0  0  0  0  0
  142.5920   81.1690  223.9810 C   0  0  0  0  0  0  0  0  0  0  0  0
  143.2540   80.1420  223.0960 C   0  0  0  0  0  0  0  0  0  0  0  0
  142.1660   79.2150  222.6290 C   0  0  0  0  0  0  0  0  0  0  0  0
  139.2200   70.2720  224.0180 C   0  0  0  0  0  0  0  0  0  0  0  0
  138.9660   68.9200  224.0770 C   0  0  0  0  0  0  0  0  0  0  0  0
  139.2960   68.1320  225.1600 C   0  0  0  0  0  0  0  0  0  0  0  0
  139.9200   68.7900  226.2250 C   0  0  0  0  0  0  0  0  0  0  0  0
  140.2520   67.9980  227.3150 C   0  0  0  0  0  0  0  0  0  0  0  0
  140.8650   68.6200  228.3720 C   0  0  0  0  0  0  0  0  0  0  0  0
  141.1940   67.8450  229.4450 F   0  0  0  0  0  0  0  0  0  0  0  0
  141.1330   69.9660  228.3420 C   0  0  0  0  0  0  0  0  0  0  0  0
  140.7940   70.7570  227.2390 C   0  0  0  0  0  0  0  0  0  0  0  0
  140.1760   70.1380  226.1710 C   0  0  0  0  0  0  0  0  0  0  0  0
  139.8260   70.8580  225.0750 N   0  0  0  0  0  0  0  0  0  0  0  0
  139.6210   72.8210  223.5490 H   0  0  0  0  0  0  0  0  0  0  0  0
  139.0329   72.6166  220.7142 H   0  0  0  0  0  0  0  0  0  0  0  0
  137.7282   73.4595  221.8344 H   0  0  0  0  0  0  0  0  0  0  0  0
  140.3679   75.5199  218.7477 H   0  0  0  0  0  0  0  0  0  0  0  0
  139.1518   74.1194  218.8436 H   0  0  0  0  0  0  0  0  0  0  0  0
  139.0772   76.0530  217.0379 H   0  0  0  0  0  0  0  0  0  0  0  0
  137.6500   75.1224  217.7209 H   0  0  0  0  0  0  0  0  0  0  0  0
  138.5613   77.9032  218.3277 H   0  0  0  0  0  0  0  0  0  0  0  0
  136.9796   77.3025  217.6799 H   0  0  0  0  0  0  0  0  0  0  0  0
  136.7093   77.8819  220.0672 H   0  0  0  0  0  0  0  0  0  0  0  0
  136.5572   76.1463  219.9105 H   0  0  0  0  0  0  0  0  0  0  0  0
  139.3553   77.5271  220.3882 H   0  0  0  0  0  0  0  0  0  0  0  0
  137.5021   77.9511  222.0926 H   0  0  0  0  0  0  0  0  0  0  0  0
  137.9273   76.2942  222.5985 H   0  0  0  0  0  0  0  0  0  0  0  0
  140.3470   77.0160  222.7620 H   0  0  0  0  0  0  0  0  0  0  0  0
  141.0971   78.8331  224.5103 H   0  0  0  0  0  0  0  0  0  0  0  0
  140.6786   81.4824  222.9753 H   0  0  0  0  0  0  0  0  0  0  0  0
  140.5013   81.2554  224.6995 H   0  0  0  0  0  0  0  0  0  0  0  0
  142.8516   82.1860  223.6517 H   0  0  0  0  0  0  0  0  0  0  0  0
  142.9188   81.0799  225.0276 H   0  0  0  0  0  0  0  0  0  0  0  0
  143.7303   80.6332  222.2347 H   0  0  0  0  0  0  0  0  0  0  0  0
  144.0370   79.5937  223.6403 H   0  0  0  0  0  0  0  0  0  0  0  0
  141.8607   79.4651  221.6022 H   0  0  0  0  0  0  0  0  0  0  0  0
  142.4977   78.1663  222.6151 H   0  0  0  0  0  0  0  0  0  0  0  0
  138.4745   68.4436  223.2159 H   0  0  0  0  0  0  0  0  0  0  0  0
  139.0818   67.0533  225.1846 H   0  0  0  0  0  0  0  0  0  0  0  0
  140.0333   66.9201  227.3303 H   0  0  0  0  0  0  0  0  0  0  0  0
  141.6264   70.4341  229.2065 H   0  0  0  0  0  0  0  0  0  0  0  0
  141.0124   71.8350  227.2233 H   0  0  0  0  0  0  0  0  0  0  0  0
  1  2  2  0
  2  3  1  0
  3  4  1  0
  4  5  1  0
  5  6  2  0
  5  7  1  0
  7  8  1  0
  8  9  1  0
  9 10  1  0
 10 11  1  0
 11 12  1  0
 12 13  1  0
 13 14  1  0
 14 15  1  0
 15 16  2  0
 15 17  1  0
 17 18  1  0
 18 19  1  0
 19 20  1  0
 20 21  1  0
  2 22  1  0
 22 23  2  0
 23 24  1  0
 24 25  2  0
 25 26  1  0
 26 27  2  0
 27 28  1  0
 27 29  1  0
 29 30  2  0
 30 31  1  0
 31 32  2  0
 12  7  1  0
 21 17  1  0
 32 22  1  0
 31 25  1  0
  3 33  1  0
  4 34  1  0
  4 35  1  0
  8 36  1  0
  8 37  1  0
  9 38  1  0
  9 39  1  0
 10 40  1  0
 10 41  1  0
 11 42  1  0
 11 43  1  0
 12 44  1  6
 13 45  1  0
 13 46  1  0
 14 47  1  0
 17 48  1  0
 18 49  1  0
 18 50  1  0
 19 51  1  0
 19 52  1  0
 20 53  1  0
 20 54  1  0
 21 55  1  0
 21 56  1  0
 23 57  1  0
 24 58  1  0
 26 59  1  0
 29 60  1  0
 30 61  1  0
M  END
>  <smiles>  (26) 
O=C(NCC(=O)N1CCCC[C@H]1CNC(=O)C1CCCC1)c1ccc2cc(F)ccc2n1

>  <score_type>  (26) 
oracle

>  <origin>  (26) 
autodockgpu

>  <m_score__min__energy>  (26) 
-9.3599999999999994

>  <m_primary>  (26) 
energy

>  <rmsd>  (26) 
2.3567614797939496

>  <m_score__min__rmsd>  (26) 
2.3567614797939496

>  <meeko>  (26) 
{"free_energy": -7.99, "intermolecular_energy": -10.08, "internal_energy": -2.46, "cluster_size": 2, "cluster_id": 3, "rank_in_cluster": 1}

>  <energy>  (26) 
-8.42

>  <cluster_rmsd>  (26) 
1.12

>  <cluster>  (26) 
1

$$$$

     RDKit          3D

 61 64  0  0  0  0  0  0  0  0999 V2000
  138.5160   71.6720  222.2070 O   0  0  0  0  0  0  0  0  0  0  0  0
  139.7020   71.7200  222.6860 C   0  0  0  0  0  0  0  0  0  0  0  0
  140.7530   72.3440  221.9130 N   0  0  0  0  0  0  0  0  0  0  0  0
  140.5710   72.9210  220.6480 C   0  0  0  0  0  0  0  0  0  0  0  0
  139.4270   73.7110  220.2750 C   0  0  0  0  0  0  0  0  0  0  0  0
  138.8720   73.3270  219.1550 O   0  0  0  0  0  0  0  0  0  0  0  0
  138.7900   74.8180  220.8780 N   0  0  0  0  0  0  0  0  0  0  0  0
  137.4480   74.6880  221.4280 C   0  0  0  0  0  0  0  0  0  0  0  0
  137.1070   75.5330  222.6040 C   0  0  0  0  0  0  0  0  0  0  0  0
  137.8990   76.7750  222.7190 C   0  0  0  0  0  0  0  0  0  0  0  0
  139.3840   76.5230  222.4370 C   0  0  0  0  0  0  0  0  0  0  0  0
  139.3880   76.1380  220.9420 C   0  0  1  0  0  0  0  0  0  0  0  0
  140.7310   76.3230  220.3610 C   0  0  0  0  0  0  0  0  0  0  0  0
  141.4660   77.2920  221.2160 N   0  0  0  0  0  0  0  0  0  0  0  0
  141.3880   78.6760  221.0310 C   0  0  0  0  0  0  0  0  0  0  0  0
  140.7040   79.2380  220.1400 O   0  0  0  0  0  0  0  0  0  0  0  0
  142.1590   79.5580  221.9410 C   0  0  0  0  0  0  0  0  0  0  0  0
  142.0960   79.0850  223.3760 C   0  0  0  0  0  0  0  0  0  0  0  0
  142.5400   80.3260  224.1570 C   0  0  0  0  0  0  0  0  0  0  0  0
  142.0630   81.5010  223.3400 C   0  0  0  0  0  0  0  0  0  0  0  0
  141.5550   80.9420  222.0400 C   0  0  0  0  0  0  0  0  0  0  0  0
  139.9830   71.1490  224.0000 C   0  0  0  0  0  0  0  0  0  0  0  0
  140.7100   71.8870  224.9080 C   0  0  0  0  0  0  0  0  0  0  0  0
  141.0260   71.4370  226.1720 C   0  0  0  0  0  0  0  0  0  0  0  0
  140.5600   70.1580  226.4990 C   0  0  0  0  0  0  0  0  0  0  0  0
  140.8780   69.7040  227.7710 C   0  0  0  0  0  0  0  0  0  0  0  0
  140.4320   68.4540  228.1140 C   0  0  0  0  0  0  0  0  0  0  0  0
  140.7420   68.0030  229.3640 F   0  0  0  0  0  0  0  0  0  0  0  0
  139.7050   67.6950  227.2310 C   0  0  0  0  0  0  0  0  0  0  0  0
  139.3890   68.1610  225.9510 C   0  0  0  0  0  0  0  0  0  0  0  0
  139.8350   69.4180  225.5970 C   0  0  0  0  0  0  0  0  0  0  0  0
  139.5560   69.9200  224.3670 N   0  0  0  0  0  0  0  0  0  0  0  0
  141.6930   72.3270  222.3980 H   0  0  0  0  0  0  0  0  0  0  0  0
  141.4447   73.5702  220.4892 H   0  0  0  0  0  0  0  0  0  0  0  0
  140.4114   72.0233  220.0327 H   0  0  0  0  0  0  0  0  0  0  0  0
  136.7370   74.9357  220.6260 H   0  0  0  0  0  0  0  0  0  0  0  0
  137.3941   73.6537  221.7987 H   0  0  0  0  0  0  0  0  0  0  0  0
  136.0446   75.8089  222.5318 H   0  0  0  0  0  0  0  0  0  0  0  0
  137.3370   74.9327  223.4966 H   0  0  0  0  0  0  0  0  0  0  0  0
  137.5176   77.5103  221.9952 H   0  0  0  0  0  0  0  0  0  0  0  0
  137.8024   77.1515  223.7480 H   0  0  0  0  0  0  0  0  0  0  0  0
  139.9804   77.4302  222.6141 H   0  0  0  0  0  0  0  0  0  0  0  0
  139.8258   75.7527  223.0861 H   0  0  0  0  0  0  0  0  0  0  0  0
  138.7834   76.7907  220.2951 H   0  0  0  0  0  0  0  0  0  0  0  0
  141.2654   75.3618  220.3401 H   0  0  0  0  0  0  0  0  0  0  0  0
  140.6554   76.6999  219.3304 H   0  0  0  0  0  0  0  0  0  0  0  0
  142.0720   76.9180  221.9930 H   0  0  0  0  0  0  0  0  0  0  0  0
  143.1741   79.5504  221.5173 H   0  0  0  0  0  0  0  0  0  0  0  0
  141.0735   78.7873  223.6514 H   0  0  0  0  0  0  0  0  0  0  0  0
  142.7178   78.1991  223.5722 H   0  0  0  0  0  0  0  0  0  0  0  0
  142.0790   80.3383  225.1556 H   0  0  0  0  0  0  0  0  0  0  0  0
  143.6292   80.3471  224.3095 H   0  0  0  0  0  0  0  0  0  0  0  0
  141.2547   82.0276  223.8684 H   0  0  0  0  0  0  0  0  0  0  0  0
  142.8757   82.2228  223.1710 H   0  0  0  0  0  0  0  0  0  0  0  0
  140.4566   80.8840  222.0479 H   0  0  0  0  0  0  0  0  0  0  0  0
  141.8327   81.5743  221.1838 H   0  0  0  0  0  0  0  0  0  0  0  0
  141.0563   72.8873  224.6089 H   0  0  0  0  0  0  0  0  0  0  0  0
  141.6083   72.0452  226.8799 H   0  0  0  0  0  0  0  0  0  0  0  0
  141.4613   70.3190  228.4721 H   0  0  0  0  0  0  0  0  0  0  0  0
  139.3626   66.6957  227.5378 H   0  0  0  0  0  0  0  0  0  0  0  0
  138.8048   67.5465  225.2502 H   0  0  0  0  0  0  0  0  0  0  0  0
  1  2  2  0
  2  3  1  0
  3  4  1  0
  4  5  1  0
  5  6  2  0
  5  7  1  0
  7  8  1  0
  8  9  1  0
  9 10  1  0
 10 11  1  0
 11 12  1  0
 12 13  1  0
 13 14  1  0
 14 15  1  0
 15 16  2  0
 15 17  1  0
 17 18  1  0
 18 19  1  0
 19 20  1  0
 20 21  1  0
  2 22  1  0
 22 23  2  0
 23 24  1  0
 24 25  2  0
 25 26  1  0
 26 27  2  0
 27 28  1  0
 27 29  1  0
 29 30  2  0
 30 31  1  0
 31 32  2  0
 12  7  1  0
 21 17  1  0
 32 22  1  0
 31 25  1  0
  3 33  1  0
  4 34  1  0
  4 35  1  0
  8 36  1  0
  8 37  1  0
  9 38  1  0
  9 39  1  0
 10 40  1  0
 10 41  1  0
 11 42  1  0
 11 43  1  0
 12 44  1  6
 13 45  1  0
 13 46  1  0
 14 47  1  0
 17 48  1  0
 18 49  1  0
 18 50  1  0
 19 51  1  0
 19 52  1  0
 20 53  1  0
 20 54  1  0
 21 55  1  0
 21 56  1  0
 23 57  1  0
 24 58  1  0
 26 59  1  0
 29 60  1  0
 30 61  1  0
M  END
>  <smiles>  (27) 
O=C(NCC(=O)N1CCCC[C@H]1CNC(=O)C1CCCC1)c1ccc2cc(F)ccc2n1

>  <score_type>  (27) 
oracle

>  <origin>  (27) 
autodockgpu

>  <m_score__min__energy>  (27) 
-9.3599999999999994

>  <m_primary>  (27) 
energy

>  <rmsd>  (27) 
3.6167001637405836

>  <m_score__min__rmsd>  (27) 
3.6167001637405836

>  <meeko>  (27) 
{"free_energy": -8.07, "intermolecular_energy": -10.16, "internal_energy": -1.7, "cluster_size": 37, "cluster_id": 1, "rank_in_cluster": 29}

>  <energy>  (27) 
-8.4

>  <cluster_rmsd>  (27) 
1.78

>  <cluster>  (27) 
1

$$$$

     RDKit          3D

 61 64  0  0  0  0  0  0  0  0999 V2000
  139.9070   71.0280  221.2810 O   0  0  0  0  0  0  0  0  0  0  0  0
  139.8160   71.6120  222.4160 C   0  0  0  0  0  0  0  0  0  0  0  0
  139.6580   73.0480  222.4630 N   0  0  0  0  0  0  0  0  0  0  0  0
  139.5890   73.8760  221.3320 C   0  0  0  0  0  0  0  0  0  0  0  0
  140.5960   73.9260  220.3040 C   0  0  0  0  0  0  0  0  0  0  0  0
  140.1040   74.0740  219.1020 O   0  0  0  0  0  0  0  0  0  0  0  0
  142.0060   73.8440  220.3380 N   0  0  0  0  0  0  0  0  0  0  0  0
  142.6640   72.6670  220.8860 C   0  0  0  0  0  0  0  0  0  0  0  0
  143.9760   72.2840  220.3000 C   0  0  0  0  0  0  0  0  0  0  0  0
  144.7220   73.3980  219.6800 C   0  0  0  0  0  0  0  0  0  0  0  0
  143.8040   74.2880  218.8350 C   0  0  0  0  0  0  0  0  0  0  0  0
  142.8720   74.9190  219.8920 C   0  0  1  0  0  0  0  0  0  0  0  0
  142.2450   76.1460  219.3650 C   0  0  0  0  0  0  0  0  0  0  0  0
  142.6290   77.2710  220.2570 N   0  0  0  0  0  0  0  0  0  0  0  0
  141.6950   78.0070  220.9930 C   0  0  0  0  0  0  0  0  0  0  0  0
  140.4550   77.8030  220.9780 O   0  0  0  0  0  0  0  0  0  0  0  0
  142.1820   79.1100  221.8570 C   0  0  0  0  0  0  0  0  0  0  0  0
  141.6680   78.9880  223.2740 C   0  0  0  0  0  0  0  0  0  0  0  0
  141.8960   80.3950  223.8340 C   0  0  0  0  0  0  0  0  0  0  0  0
  141.7320   81.3240  222.6570 C   0  0  0  0  0  0  0  0  0  0  0  0
  141.6250   80.4520  221.4350 C   0  0  0  0  0  0  0  0  0  0  0  0
  139.8720   70.8290  223.6470 C   0  0  0  0  0  0  0  0  0  0  0  0
  139.3470   69.5550  223.6540 C   0  0  0  0  0  0  0  0  0  0  0  0
  139.3520   68.7380  224.7650 C   0  0  0  0  0  0  0  0  0  0  0  0
  139.9330   69.2780  225.9170 C   0  0  0  0  0  0  0  0  0  0  0  0
  139.9380   68.4570  227.0350 C   0  0  0  0  0  0  0  0  0  0  0  0
  140.5010   68.9640  228.1780 C   0  0  0  0  0  0  0  0  0  0  0  0
  140.5090   68.1600  229.2790 F   0  0  0  0  0  0  0  0  0  0  0  0
  141.0330   70.2300  228.2020 C   0  0  0  0  0  0  0  0  0  0  0  0
  141.0230   71.0510  227.0700 C   0  0  0  0  0  0  0  0  0  0  0  0
  140.4570   70.5480  225.9160 C   0  0  0  0  0  0  0  0  0  0  0  0
  140.4220   71.3020  224.7880 N   0  0  0  0  0  0  0  0  0  0  0  0
  139.5960   73.4290  223.4480 H   0  0  0  0  0  0  0  0  0  0  0  0
  138.6546   73.6027  220.8199 H   0  0  0  0  0  0  0  0  0  0  0  0
  139.7135   74.8671  221.7927 H   0  0  0  0  0  0  0  0  0  0  0  0
  142.8215   72.8464  221.9598 H   0  0  0  0  0  0  0  0  0  0  0  0
  141.9921   71.8301  220.6451 H   0  0  0  0  0  0  0  0  0  0  0  0
  144.5982   71.8584  221.1010 H   0  0  0  0  0  0  0  0  0  0  0  0
  143.7598   71.5673  219.4941 H   0  0  0  0  0  0  0  0  0  0  0  0
  145.1790   74.0075  220.4736 H   0  0  0  0  0  0  0  0  0  0  0  0
  145.4923   72.9722  219.0202 H   0  0  0  0  0  0  0  0  0  0  0  0
  144.3800   75.0597  218.3034 H   0  0  0  0  0  0  0  0  0  0  0  0
  143.2636   73.7367  218.0514 H   0  0  0  0  0  0  0  0  0  0  0  0
  143.3816   75.3063  220.7866 H   0  0  0  0  0  0  0  0  0  0  0  0
  142.6027   76.3398  218.3430 H   0  0  0  0  0  0  0  0  0  0  0  0
  141.1509   76.0360  219.3343 H   0  0  0  0  0  0  0  0  0  0  0  0
  143.6490   77.5240  220.3360 H   0  0  0  0  0  0  0  0  0  0  0  0
  143.2771   79.0438  221.7771 H   0  0  0  0  0  0  0  0  0  0  0  0
  140.6004   78.7232  223.2878 H   0  0  0  0  0  0  0  0  0  0  0  0
  142.1687   78.1994  223.8548 H   0  0  0  0  0  0  0  0  0  0  0  0
  141.1535   80.6247  224.6124 H   0  0  0  0  0  0  0  0  0  0  0  0
  142.8874   80.4949  224.3000 H   0  0  0  0  0  0  0  0  0  0  0  0
  140.8200   81.9278  222.7738 H   0  0  0  0  0  0  0  0  0  0  0  0
  142.5817   82.0179  222.5769 H   0  0  0  0  0  0  0  0  0  0  0  0
  140.5751   80.3530  221.1222 H   0  0  0  0  0  0  0  0  0  0  0  0
  142.1719   80.8740  220.5790 H   0  0  0  0  0  0  0  0  0  0  0  0
  138.9008   69.1697  222.7253 H   0  0  0  0  0  0  0  0  0  0  0  0
  138.9254   67.7243  224.7463 H   0  0  0  0  0  0  0  0  0  0  0  0
  139.5094   67.4443  227.0060 H   0  0  0  0  0  0  0  0  0  0  0  0
  141.4779   70.6074  229.1345 H   0  0  0  0  0  0  0  0  0  0  0  0
  141.4518   72.0636  227.0983 H   0  0  0  0  0  0  0  0  0  0  0  0
  1  2  2  0
  2  3  1  0
  3  4  1  0
  4  5  1  0
  5  6  2  0
  5  7  1  0
  7  8  1  0
  8  9  1  0
  9 10  1  0
 10 11  1  0
 11 12  1  0
 12 13  1  0
 13 14  1  0
 14 15  1  0
 15 16  2  0
 15 17  1  0
 17 18  1  0
 18 19  1  0
 19 20  1  0
 20 21  1  0
  2 22  1  0
 22 23  2  0
 23 24  1  0
 24 25  2  0
 25 26  1  0
 26 27  2  0
 27 28  1  0
 27 29  1  0
 29 30  2  0
 30 31  1  0
 31 32  2  0
 12  7  1  0
 21 17  1  0
 32 22  1  0
 31 25  1  0
  3 33  1  0
  4 34  1  0
  4 35  1  0
  8 36  1  0
  8 37  1  0
  9 38  1  0
  9 39  1  0
 10 40  1  0
 10 41  1  0
 11 42  1  0
 11 43  1  0
 12 44  1  1
 13 45  1  0
 13 46  1  0
 14 47  1  0
 17 48  1  0
 18 49  1  0
 18 50  1  0
 19 51  1  0
 19 52  1  0
 20 53  1  0
 20 54  1  0
 21 55  1  0
 21 56  1  0
 23 57  1  0
 24 58  1  0
 26 59  1  0
 29 60  1  0
 30 61  1  0
M  END
>  <smiles>  (28) 
O=C(NCC(=O)N1CCCC[C@H]1CNC(=O)C1CCCC1)c1ccc2cc(F)ccc2n1

>  <score_type>  (28) 
oracle

>  <origin>  (28) 
autodockgpu

>  <m_score__min__energy>  (28) 
-9.3599999999999994

>  <m_primary>  (28) 
energy

>  <rmsd>  (28) 
2.8725632311694524

>  <m_score__min__rmsd>  (28) 
2.8725632311694524

>  <meeko>  (28) 
{"free_energy": -8.94, "intermolecular_energy": -11.03, "internal_energy": -1.77, "cluster_size": 37, "cluster_id": 1, "rank_in_cluster": 18}

>  <energy>  (28) 
-8.34

>  <cluster_rmsd>  (28) 
1.16

>  <cluster>  (28) 
1

$$$$

     RDKit          3D

 61 64  0  0  0  0  0  0  0  0999 V2000
  140.2070   70.8410  221.3880 O   0  0  0  0  0  0  0  0  0  0  0  0
  139.6790   71.4270  222.3960 C   0  0  0  0  0  0  0  0  0  0  0  0
  138.7790   72.5380  222.1770 N   0  0  0  0  0  0  0  0  0  0  0  0
  138.4250   73.0360  220.9140 C   0  0  0  0  0  0  0  0  0  0  0  0
  139.1940   74.0090  220.1840 C   0  0  0  0  0  0  0  0  0  0  0  0
  138.4890   74.6800  219.3100 O   0  0  0  0  0  0  0  0  0  0  0  0
  140.5570   74.3800  220.2240 N   0  0  0  0  0  0  0  0  0  0  0  0
  141.5370   73.6790  219.4060 C   0  0  0  0  0  0  0  0  0  0  0  0
  142.7040   74.4620  218.9190 C   0  0  0  0  0  0  0  0  0  0  0  0
  143.0510   75.6330  219.7520 C   0  0  0  0  0  0  0  0  0  0  0  0
  141.8010   76.4150  220.1710 C   0  0  0  0  0  0  0  0  0  0  0  0
  141.0690   75.4200  221.0970 C   0  0  1  0  0  0  0  0  0  0  0  0
  140.1150   76.1280  221.9700 C   0  0  0  0  0  0  0  0  0  0  0  0
  140.8480   77.2320  222.6430 N   0  0  0  0  0  0  0  0  0  0  0  0
  140.2230   78.4070  223.0720 C   0  0  0  0  0  0  0  0  0  0  0  0
  138.9980   78.6520  222.9350 O   0  0  0  0  0  0  0  0  0  0  0  0
  141.0440   79.4480  223.7360 C   0  0  0  0  0  0  0  0  0  0  0  0
  140.7060   80.8360  223.2430 C   0  0  0  0  0  0  0  0  0  0  0  0
  141.9210   81.6550  223.6890 C   0  0  0  0  0  0  0  0  0  0  0  0
  143.0860   80.6980  223.6360 C   0  0  0  0  0  0  0  0  0  0  0  0
  142.5090   79.3340  223.3740 C   0  0  0  0  0  0  0  0  0  0  0  0
  139.9860   70.9730  223.7480 C   0  0  0  0  0  0  0  0  0  0  0  0
  140.6360   71.8290  224.6100 C   0  0  0  0  0  0  0  0  0  0  0  0
  140.9690   71.4930  225.9050 C   0  0  0  0  0  0  0  0  0  0  0  0
  140.6050   70.2060  226.3150 C   0  0  0  0  0  0  0  0  0  0  0  0
  140.9410   69.8680  227.6180 C   0  0  0  0  0  0  0  0  0  0  0  0
  140.5950   68.6110  228.0440 C   0  0  0  0  0  0  0  0  0  0  0  0
  140.9220   68.2740  229.3240 F   0  0  0  0  0  0  0  0  0  0  0  0
  139.9460   67.7350  227.2080 C   0  0  0  0  0  0  0  0  0  0  0  0
  139.6130   68.0850  225.8960 C   0  0  0  0  0  0  0  0  0  0  0  0
  139.9580   69.3480  225.4600 C   0  0  0  0  0  0  0  0  0  0  0  0
  139.6570   69.7400  224.1960 N   0  0  0  0  0  0  0  0  0  0  0  0
  138.4020   72.9510  223.0750 H   0  0  0  0  0  0  0  0  0  0  0  0
  138.3566   72.1569  220.2563 H   0  0  0  0  0  0  0  0  0  0  0  0
  137.5314   73.6255  221.1668 H   0  0  0  0  0  0  0  0  0  0  0  0
  141.9270   72.8413  220.0028 H   0  0  0  0  0  0  0  0  0  0  0  0
  140.9907   73.3905  218.4959 H   0  0  0  0  0  0  0  0  0  0  0  0
  143.5766   73.7931  218.8871 H   0  0  0  0  0  0  0  0  0  0  0  0
  142.4248   74.8549  217.9302 H   0  0  0  0  0  0  0  0  0  0  0  0
  143.5752   75.2866  220.6549 H   0  0  0  0  0  0  0  0  0  0  0  0
  143.6927   76.3007  219.1583 H   0  0  0  0  0  0  0  0  0  0  0  0
  142.0714   77.3340  220.7117 H   0  0  0  0  0  0  0  0  0  0  0  0
  141.1896   76.7475  219.3191 H   0  0  0  0  0  0  0  0  0  0  0  0
  141.7100   74.9225  221.8397 H   0  0  0  0  0  0  0  0  0  0  0  0
  139.2907   76.5384  221.3683 H   0  0  0  0  0  0  0  0  0  0  0  0
  139.6909   75.4384  222.7147 H   0  0  0  0  0  0  0  0  0  0  0  0
  141.8850   77.1240  222.8010 H   0  0  0  0  0  0  0  0  0  0  0  0
  140.8424   79.2989  224.8070 H   0  0  0  0  0  0  0  0  0  0  0  0
  140.5961   80.8527  222.1486 H   0  0  0  0  0  0  0  0  0  0  0  0
  139.7525   81.2192  223.6355 H   0  0  0  0  0  0  0  0  0  0  0  0
  142.0865   82.5019  223.0068 H   0  0  0  0  0  0  0  0  0  0  0  0
  141.7835   82.0791  224.6946 H   0  0  0  0  0  0  0  0  0  0  0  0
  143.7736   80.9814  222.8256 H   0  0  0  0  0  0  0  0  0  0  0  0
  143.6560   80.7140  224.5767 H   0  0  0  0  0  0  0  0  0  0  0  0
  142.6247   79.0631  222.3142 H   0  0  0  0  0  0  0  0  0  0  0  0
  143.0177   78.5528  223.9579 H   0  0  0  0  0  0  0  0  0  0  0  0
  140.9030   72.8322  224.2462 H   0  0  0  0  0  0  0  0  0  0  0  0
  141.4889   72.1938  226.5747 H   0  0  0  0  0  0  0  0  0  0  0  0
  141.4614   70.5762  228.2796 H   0  0  0  0  0  0  0  0  0  0  0  0
  139.6820   66.7340  227.5799 H   0  0  0  0  0  0  0  0  0  0  0  0
  139.0934   67.3772  225.2334 H   0  0  0  0  0  0  0  0  0  0  0  0
  1  2  2  0
  2  3  1  0
  3  4  1  0
  4  5  1  0
  5  6  2  0
  5  7  1  0
  7  8  1  0
  8  9  1  0
  9 10  1  0
 10 11  1  0
 11 12  1  0
 12 13  1  0
 13 14  1  0
 14 15  1  0
 15 16  2  0
 15 17  1  0
 17 18  1  0
 18 19  1  0
 19 20  1  0
 20 21  1  0
  2 22  1  0
 22 23  2  0
 23 24  1  0
 24 25  2  0
 25 26  1  0
 26 27  2  0
 27 28  1  0
 27 29  1  0
 29 30  2  0
 30 31  1  0
 31 32  2  0
 12  7  1  0
 21 17  1  0
 32 22  1  0
 31 25  1  0
  3 33  1  0
  4 34  1  0
  4 35  1  0
  8 36  1  0
  8 37  1  0
  9 38  1  0
  9 39  1  0
 10 40  1  0
 10 41  1  0
 11 42  1  0
 11 43  1  0
 12 44  1  1
 13 45  1  0
 13 46  1  0
 14 47  1  0
 17 48  1  0
 18 49  1  0
 18 50  1  0
 19 51  1  0
 19 52  1  0
 20 53  1  0
 20 54  1  0
 21 55  1  0
 21 56  1  0
 23 57  1  0
 24 58  1  0
 26 59  1  0
 29 60  1  0
 30 61  1  0
M  END
>  <smiles>  (29) 
O=C(NCC(=O)N1CCCC[C@H]1CNC(=O)C1CCCC1)c1ccc2cc(F)ccc2n1

>  <score_type>  (29) 
oracle

>  <origin>  (29) 
autodockgpu

>  <m_score__min__energy>  (29) 
-9.3599999999999994

>  <m_primary>  (29) 
energy

>  <rmsd>  (29) 
2.959552966400575

>  <m_score__min__rmsd>  (29) 
2.959552966400575

>  <meeko>  (29) 
{"free_energy": -8.91, "intermolecular_energy": -10.99, "internal_energy": -1.55, "cluster_size": 37, "cluster_id": 1, "rank_in_cluster": 20}

>  <energy>  (29) 
-8.07

>  <cluster_rmsd>  (29) 
1.8

>  <cluster>  (29) 
1

$$$$

     RDKit          3D

 61 64  0  0  0  0  0  0  0  0999 V2000
  135.5320   70.7010  222.6780 O   0  0  0  0  0  0  0  0  0  0  0  0
  135.9080   71.7750  223.2650 C   0  0  0  0  0  0  0  0  0  0  0  0
  137.1840   72.3610  222.9200 N   0  0  0  0  0  0  0  0  0  0  0  0
  138.0640   71.8370  221.9620 C   0  0  0  0  0  0  0  0  0  0  0  0
  138.8490   70.6450  222.1520 C   0  0  0  0  0  0  0  0  0  0  0  0
  139.9810   70.8610  222.7720 O   0  0  0  0  0  0  0  0  0  0  0  0
  138.6400   69.2930  221.8000 N   0  0  0  0  0  0  0  0  0  0  0  0
  139.1290   68.7770  220.5290 C   0  0  0  0  0  0  0  0  0  0  0  0
  139.5390   67.3480  220.4850 C   0  0  0  0  0  0  0  0  0  0  0  0
  138.8890   66.4900  221.4970 C   0  0  0  0  0  0  0  0  0  0  0  0
  138.8480   67.1710  222.8700 C   0  0  0  0  0  0  0  0  0  0  0  0
  137.8980   68.3640  222.6310 C   0  0  1  0  0  0  0  0  0  0  0  0
  137.3520   68.8570  223.9090 C   0  0  0  0  0  0  0  0  0  0  0  0
  138.4690   69.4710  224.6740 N   0  0  0  0  0  0  0  0  0  0  0  0
  139.1720   68.7850  225.6700 C   0  0  0  0  0  0  0  0  0  0  0  0
  138.9390   67.6010  226.0200 O   0  0  0  0  0  0  0  0  0  0  0  0
  140.2740   69.4870  226.3720 C   0  0  0  0  0  0  0  0  0  0  0  0
  140.0950   69.4610  227.8730 C   0  0  0  0  0  0  0  0  0  0  0  0
  141.0350   70.5760  228.3410 C   0  0  0  0  0  0  0  0  0  0  0  0
  141.0300   71.5940  227.2280 C   0  0  0  0  0  0  0  0  0  0  0  0
  140.2790   70.9720  226.0820 C   0  0  0  0  0  0  0  0  0  0  0  0
  135.0520   72.3940  224.2730 C   0  0  0  0  0  0  0  0  0  0  0  0
  134.1380   71.6130  224.9460 C   0  0  0  0  0  0  0  0  0  0  0  0
  133.2870   72.1040  225.9130 C   0  0  0  0  0  0  0  0  0  0  0  0
  133.3990   73.4710  226.1870 C   0  0  0  0  0  0  0  0  0  0  0  0
  132.5420   73.9660  227.1600 C   0  0  0  0  0  0  0  0  0  0  0  0
  132.6320   75.3040  227.4460 C   0  0  0  0  0  0  0  0  0  0  0  0
  131.7920   75.7940  228.4020 F   0  0  0  0  0  0  0  0  0  0  0  0
  133.5330   76.1080  226.7930 C   0  0  0  0  0  0  0  0  0  0  0  0
  134.3920   75.6000  225.8130 C   0  0  0  0  0  0  0  0  0  0  0  0
  134.3070   74.2550  225.5190 C   0  0  0  0  0  0  0  0  0  0  0  0
  135.1180   73.7100  224.5770 N   0  0  0  0  0  0  0  0  0  0  0  0
  137.3980   73.2420  223.4650 H   0  0  0  0  0  0  0  0  0  0  0  0
  137.4526   71.6509  221.0667 H   0  0  0  0  0  0  0  0  0  0  0  0
  138.8509   72.6057  221.9606 H   0  0  0  0  0  0  0  0  0  0  0  0
  138.3287   68.9141  219.7869 H   0  0  0  0  0  0  0  0  0  0  0  0
  140.0521   69.3417  220.3315 H   0  0  0  0  0  0  0  0  0  0  0  0
  139.2926   66.9509  219.4892 H   0  0  0  0  0  0  0  0  0  0  0  0
  140.6168   67.3261  220.7037 H   0  0  0  0  0  0  0  0  0  0  0  0
  137.8598   66.2741  221.1744 H   0  0  0  0  0  0  0  0  0  0  0  0
  139.4736   65.5628  221.5895 H   0  0  0  0  0  0  0  0  0  0  0  0
  138.4468   66.4924  223.6372 H   0  0  0  0  0  0  0  0  0  0  0  0
  139.8405   67.4711  223.2374 H   0  0  0  0  0  0  0  0  0  0  0  0
  136.9758   68.1179  222.0842 H   0  0  0  0  0  0  0  0  0  0  0  0
  136.5720   69.6087  223.7175 H   0  0  0  0  0  0  0  0  0  0  0  0
  136.9043   68.0302  224.4799 H   0  0  0  0  0  0  0  0  0  0  0  0
  138.7400   70.4660  224.4560 H   0  0  0  0  0  0  0  0  0  0  0  0
  141.1802   68.9685  226.0257 H   0  0  0  0  0  0  0  0  0  0  0  0
  139.0532   69.6766  228.1524 H   0  0  0  0  0  0  0  0  0  0  0  0
  140.3185   68.4826  228.3233 H   0  0  0  0  0  0  0  0  0  0  0  0
  140.6658   71.0245  229.2751 H   0  0  0  0  0  0  0  0  0  0  0  0
  142.0476   70.1991  228.5475 H   0  0  0  0  0  0  0  0  0  0  0  0
  140.5259   72.5145  227.5575 H   0  0  0  0  0  0  0  0  0  0  0  0
  142.0544   71.8640  226.9319 H   0  0  0  0  0  0  0  0  0  0  0  0
  139.2507   71.3602  226.0384 H   0  0  0  0  0  0  0  0  0  0  0  0
  140.7451   71.2004  225.1121 H   0  0  0  0  0  0  0  0  0  0  0  0
  134.0846   70.5424  224.6990 H   0  0  0  0  0  0  0  0  0  0  0  0
  132.5646   71.4606  226.4367 H   0  0  0  0  0  0  0  0  0  0  0  0
  131.8231   73.3144  227.6783 H   0  0  0  0  0  0  0  0  0  0  0  0
  133.5805   77.1773  227.0466 H   0  0  0  0  0  0  0  0  0  0  0  0
  135.1110   76.2511  225.2943 H   0  0  0  0  0  0  0  0  0  0  0  0
  1  2  2  0
  2  3  1  0
  3  4  1  0
  4  5  1  0
  5  6  2  0
  5  7  1  0
  7  8  1  0
  8  9  1  0
  9 10  1  0
 10 11  1  0
 11 12  1  0
 12 13  1  0
 13 14  1  0
 14 15  1  0
 15 16  2  0
 15 17  1  0
 17 18  1  0
 18 19  1  0
 19 20  1  0
 20 21  1  0
  2 22  1  0
 22 23  2  0
 23 24  1  0
 24 25  2  0
 25 26  1  0
 26 27  2  0
 27 28  1  0
 27 29  1  0
 29 30  2  0
 30 31  1  0
 31 32  2  0
 12  7  1  0
 21 17  1  0
 32 22  1  0
 31 25  1  0
  3 33  1  0
  4 34  1  0
  4 35  1  0
  8 36  1  0
  8 37  1  0
  9 38  1  0
  9 39  1  0
 10 40  1  0
 10 41  1  0
 11 42  1  0
 11 43  1  0
 12 44  1  6
 13 45  1  0
 13 46  1  0
 14 47  1  0
 17 48  1  0
 18 49  1  0
 18 50  1  0
 19 51  1  0
 19 52  1  0
 20 53  1  0
 20 54  1  0
 21 55  1  0
 21 56  1  0
 23 57  1  0
 24 58  1  0
 26 59  1  0
 29 60  1  0
 30 61  1  0
M  END
>  <smiles>  (30) 
O=C(NCC(=O)N1CCCC[C@H]1CNC(=O)C1CCCC1)c1ccc2cc(F)ccc2n1

>  <score_type>  (30) 
oracle

>  <origin>  (30) 
autodockgpu

>  <m_score__min__energy>  (30) 
-9.3599999999999994

>  <m_primary>  (30) 
energy

>  <rmsd>  (30) 
8.855942052490496

>  <m_score__min__rmsd>  (30) 
8.855942052490496

>  <meeko>  (30) 
{"free_energy": -7.41, "intermolecular_energy": -9.5, "internal_energy": -2.78, "cluster_size": 1, "cluster_id": 6, "rank_in_cluster": 1}

>  <energy>  (30) 
-7.62

>  <cluster_rmsd>  (30) 
1.78

>  <cluster>  (30) 
1

$$$$

     RDKit          3D

 61 64  0  0  0  0  0  0  0  0999 V2000
  140.3220   72.9640  222.4750 O   0  0  0  0  0  0  0  0  0  0  0  0
  139.7070   71.8850  222.7850 C   0  0  0  0  0  0  0  0  0  0  0  0
  138.7530   71.3230  221.8550 N   0  0  0  0  0  0  0  0  0  0  0  0
  138.4430   71.8780  220.6040 C   0  0  0  0  0  0  0  0  0  0  0  0
  138.5960   73.2710  220.2760 C   0  0  0  0  0  0  0  0  0  0  0  0
  139.2210   73.4730  219.1460 O   0  0  0  0  0  0  0  0  0  0  0  0
  138.2080   74.4590  220.9340 N   0  0  0  0  0  0  0  0  0  0  0  0
  136.8250   74.6570  221.3450 C   0  0  0  0  0  0  0  0  0  0  0  0
  136.5860   75.4690  222.5690 C   0  0  0  0  0  0  0  0  0  0  0  0
  137.6590   76.4350  222.8860 C   0  0  0  0  0  0  0  0  0  0  0  0
  139.0480   75.8100  222.7120 C   0  0  0  0  0  0  0  0  0  0  0  0
  139.1210   75.5570  221.1900 C   0  0  1  0  0  0  0  0  0  0  0  0
  140.5230   75.4130  220.7550 C   0  0  0  0  0  0  0  0  0  0  0  0
  141.3120   76.4950  221.3990 N   0  0  0  0  0  0  0  0  0  0  0  0
  141.0000   77.8510  221.2530 C   0  0  0  0  0  0  0  0  0  0  0  0
  140.0390   78.2900  220.5730 O   0  0  0  0  0  0  0  0  0  0  0  0
  141.8490   78.8530  221.9400 C   0  0  0  0  0  0  0  0  0  0  0  0
  141.7540   78.7400  223.4440 C   0  0  0  0  0  0  0  0  0  0  0  0
  142.3090   80.0870  223.9170 C   0  0  0  0  0  0  0  0  0  0  0  0
  141.9310   81.0730  222.8390 C   0  0  0  0  0  0  0  0  0  0  0  0
  141.3680   80.2670  221.7000 C   0  0  0  0  0  0  0  0  0  0  0  0
  139.9710   71.2350  224.0650 C   0  0  0  0  0  0  0  0  0  0  0  0
  140.7270   71.8970  225.0080 C   0  0  0  0  0  0  0  0  0  0  0  0
  141.0310   71.3680  226.2440 C   0  0  0  0  0  0  0  0  0  0  0  0
  140.5190   70.0920  226.5040 C   0  0  0  0  0  0  0  0  0  0  0  0
  140.8250   69.5600  227.7490 C   0  0  0  0  0  0  0  0  0  0  0  0
  140.3350   68.3100  228.0280 C   0  0  0  0  0  0  0  0  0  0  0  0
  140.6320   67.7820  229.2490 F   0  0  0  0  0  0  0  0  0  0  0  0
  139.5770   67.6260  227.1090 C   0  0  0  0  0  0  0  0  0  0  0  0
  139.2750   68.1710  225.8570 C   0  0  0  0  0  0  0  0  0  0  0  0
  139.7640   69.4280  225.5690 C   0  0  0  0  0  0  0  0  0  0  0  0
  139.5000   70.0050  224.3690 N   0  0  0  0  0  0  0  0  0  0  0  0
  138.2990   70.4360  222.2090 H   0  0  0  0  0  0  0  0  0  0  0  0
  139.0602   71.3318  219.8755 H   0  0  0  0  0  0  0  0  0  0  0  0
  137.3470   71.7845  220.6023 H   0  0  0  0  0  0  0  0  0  0  0  0
  136.3007   75.1506  220.5135 H   0  0  0  0  0  0  0  0  0  0  0  0
  136.4589   73.6510  221.5977 H   0  0  0  0  0  0  0  0  0  0  0  0
  135.6495   76.0294  222.4315 H   0  0  0  0  0  0  0  0  0  0  0  0
  136.5457   74.7609  223.4098 H   0  0  0  0  0  0  0  0  0  0  0  0
  137.5701   77.3011  222.2137 H   0  0  0  0  0  0  0  0  0  0  0  0
  137.5479   76.7413  223.9366 H   0  0  0  0  0  0  0  0  0  0  0  0
  139.8379   76.5032  223.0368 H   0  0  0  0  0  0  0  0  0  0  0  0
  139.1945   74.9000  223.3123 H   0  0  0  0  0  0  0  0  0  0  0  0
  138.7875   76.3979  220.5642 H   0  0  0  0  0  0  0  0  0  0  0  0
  140.9118   74.4316  221.0643 H   0  0  0  0  0  0  0  0  0  0  0  0
  140.5947   75.4851  219.6597 H   0  0  0  0  0  0  0  0  0  0  0  0
  142.1430   76.2280  221.9900 H   0  0  0  0  0  0  0  0  0  0  0  0
  142.8573   78.6585  221.5456 H   0  0  0  0  0  0  0  0  0  0  0  0
  140.7111   78.6050  223.7668 H   0  0  0  0  0  0  0  0  0  0  0  0
  142.2977   77.8754  223.8526 H   0  0  0  0  0  0  0  0  0  0  0  0
  141.8569   80.3742  224.8778 H   0  0  0  0  0  0  0  0  0  0  0  0
  143.3968   80.0497  224.0761 H   0  0  0  0  0  0  0  0  0  0  0  0
  141.1748   81.7770  223.2164 H   0  0  0  0  0  0  0  0  0  0  0  0
  142.8019   81.6625  222.5164 H   0  0  0  0  0  0  0  0  0  0  0  0
  140.2687   80.3068  221.7054 H   0  0  0  0  0  0  0  0  0  0  0  0
  141.6941   80.6522  220.7226 H   0  0  0  0  0  0  0  0  0  0  0  0
  141.1075   72.8993  224.7616 H   0  0  0  0  0  0  0  0  0  0  0  0
  141.6384   71.9149  226.9802 H   0  0  0  0  0  0  0  0  0  0  0  0
  141.4327   70.1156  228.4784 H   0  0  0  0  0  0  0  0  0  0  0  0
  139.1983   66.6252  227.3641 H   0  0  0  0  0  0  0  0  0  0  0  0
  138.6680   67.6159  225.1266 H   0  0  0  0  0  0  0  0  0  0  0  0
  1  2  2  0
  2  3  1  0
  3  4  1  0
  4  5  1  0
  5  6  2  0
  5  7  1  0
  7  8  1  0
  8  9  1  0
  9 10  1  0
 10 11  1  0
 11 12  1  0
 12 13  1  0
 13 14  1  0
 14 15  1  0
 15 16  2  0
 15 17  1  0
 17 18  1  0
 18 19  1  0
 19 20  1  0
 20 21  1  0
  2 22  1  0
 22 23  2  0
 23 24  1  0
 24 25  2  0
 25 26  1  0
 26 27  2  0
 27 28  1  0
 27 29  1  0
 29 30  2  0
 30 31  1  0
 31 32  2  0
 12  7  1  0
 21 17  1  0
 32 22  1  0
 31 25  1  0
  3 33  1  0
  4 34  1  0
  4 35  1  0
  8 36  1  0
  8 37  1  0
  9 38  1  0
  9 39  1  0
 10 40  1  0
 10 41  1  0
 11 42  1  0
 11 43  1  0
 12 44  1  6
 13 45  1  0
 13 46  1  0
 14 47  1  0
 17 48  1  0
 18 49  1  0
 18 50  1  0
 19 51  1  0
 19 52  1  0
 20 53  1  0
 20 54  1  0
 21 55  1  0
 21 56  1  0
 23 57  1  0
 24 58  1  0
 26 59  1  0
 29 60  1  0
 30 61  1  0
M  END
>  <smiles>  (31) 
O=C(NCC(=O)N1CCCC[C@H]1CNC(=O)C1CCCC1)c1ccc2cc(F)ccc2n1

>  <score_type>  (31) 
oracle

>  <origin>  (31) 
autodockgpu

>  <m_score__min__energy>  (31) 
-9.3599999999999994

>  <m_primary>  (31) 
energy

>  <rmsd>  (31) 
3.6707608211397678

>  <m_score__min__rmsd>  (31) 
3.6707608211397678

>  <meeko>  (31) 
{"free_energy": -8.4, "intermolecular_energy": -10.49, "internal_energy": -2.09, "cluster_size": 37, "cluster_id": 1, "rank_in_cluster": 27}

>  <energy>  (31) 
-7.59

>  <cluster_rmsd>  (31) 
1.56

>  <cluster>  (31) 
1

$$$$

     RDKit          3D

 61 64  0  0  0  0  0  0  0  0999 V2000
  140.4890   73.4990  220.5460 O   0  0  0  0  0  0  0  0  0  0  0  0
  139.9670   74.3310  221.3670 C   0  0  0  0  0  0  0  0  0  0  0  0
  138.8680   73.9040  222.2040 N   0  0  0  0  0  0  0  0  0  0  0  0
  138.3160   72.6150  222.1930 C   0  0  0  0  0  0  0  0  0  0  0  0
  139.0880   71.4030  222.2900 C   0  0  0  0  0  0  0  0  0  0  0  0
  140.1860   71.5410  222.9860 O   0  0  0  0  0  0  0  0  0  0  0  0
  138.8940   70.1000  221.7810 N   0  0  0  0  0  0  0  0  0  0  0  0
  139.4430   69.7240  220.4860 C   0  0  0  0  0  0  0  0  0  0  0  0
  139.8530   68.3050  220.3050 C   0  0  0  0  0  0  0  0  0  0  0  0
  139.1530   67.3450  221.1840 C   0  0  0  0  0  0  0  0  0  0  0  0
  139.0470   67.8720  222.6200 C   0  0  0  0  0  0  0  0  0  0  0  0
  138.1100   69.0910  222.4680 C   0  0  1  0  0  0  0  0  0  0  0  0
  137.5030   69.4430  223.7650 C   0  0  0  0  0  0  0  0  0  0  0  0
  138.5810   69.9710  224.6420 N   0  0  0  0  0  0  0  0  0  0  0  0
  139.2850   69.1670  225.5450 C   0  0  0  0  0  0  0  0  0  0  0  0
  139.0850   67.9380  225.7090 O   0  0  0  0  0  0  0  0  0  0  0  0
  140.3450   69.7910  226.3730 C   0  0  0  0  0  0  0  0  0  0  0  0
  139.8630   70.0930  227.7740 C   0  0  0  0  0  0  0  0  0  0  0  0
  140.9060   71.0970  228.2760 C   0  0  0  0  0  0  0  0  0  0  0  0
  141.3460   71.8600  227.0510 C   0  0  0  0  0  0  0  0  0  0  0  0
  140.7280   71.1640  225.8690 C   0  0  0  0  0  0  0  0  0  0  0  0
  140.4810   75.6950  221.4510 C   0  0  0  0  0  0  0  0  0  0  0  0
  141.3870   76.1270  220.5080 C   0  0  0  0  0  0  0  0  0  0  0  0
  141.9300   77.3940  220.5010 C   0  0  0  0  0  0  0  0  0  0  0  0
  141.5030   78.2460  221.5260 C   0  0  0  0  0  0  0  0  0  0  0  0
  142.0490   79.5210  221.5200 C   0  0  0  0  0  0  0  0  0  0  0  0
  141.6470   80.3750  222.5160 C   0  0  0  0  0  0  0  0  0  0  0  0
  142.1810   81.6300  222.5140 F   0  0  0  0  0  0  0  0  0  0  0  0
  140.7440   79.9730  223.4690 C   0  0  0  0  0  0  0  0  0  0  0  0
  140.2000   78.6850  223.4670 C   0  0  0  0  0  0  0  0  0  0  0  0
  140.6000   77.8210  222.4690 C   0  0  0  0  0  0  0  0  0  0  0  0
  140.1020   76.5590  222.4190 N   0  0  0  0  0  0  0  0  0  0  0  0
  138.5090   74.6680  222.8420 H   0  0  0  0  0  0  0  0  0  0  0  0
  137.6108   72.5865  223.0367 H   0  0  0  0  0  0  0  0  0  0  0  0
  137.9601   72.5511  221.1541 H   0  0  0  0  0  0  0  0  0  0  0  0
  138.6796   69.9470  219.7260 H   0  0  0  0  0  0  0  0  0  0  0  0
  140.3751   70.3012  220.3958 H   0  0  0  0  0  0  0  0  0  0  0  0
  139.6551   68.0213  219.2608 H   0  0  0  0  0  0  0  0  0  0  0  0
  140.9188   68.2521  220.5721 H   0  0  0  0  0  0  0  0  0  0  0  0
  138.1402   67.1731  220.7907 H   0  0  0  0  0  0  0  0  0  0  0  0
  139.7304   66.4089  221.2017 H   0  0  0  0  0  0  0  0  0  0  0  0
  138.6088   67.1161  223.2883 H   0  0  0  0  0  0  0  0  0  0  0  0
  140.0210   68.1238  223.0649 H   0  0  0  0  0  0  0  0  0  0  0  0
  137.2147   68.9142  221.8538 H   0  0  0  0  0  0  0  0  0  0  0  0
  136.7288   70.2108  223.6199 H   0  0  0  0  0  0  0  0  0  0  0  0
  137.0334   68.5596  224.2222 H   0  0  0  0  0  0  0  0  0  0  0  0
  138.8220   70.9950  224.5810 H   0  0  0  0  0  0  0  0  0  0  0  0
  141.1702   69.0645  226.3362 H   0  0  0  0  0  0  0  0  0  0  0  0
  138.8572   70.5382  227.7608 H   0  0  0  0  0  0  0  0  0  0  0  0
  139.7746   69.1991  228.4089 H   0  0  0  0  0  0  0  0  0  0  0  0
  140.4600   71.7788  229.0150 H   0  0  0  0  0  0  0  0  0  0  0  0
  141.7504   70.5971  228.7731 H   0  0  0  0  0  0  0  0  0  0  0  0
  140.9948   72.9010  227.1053 H   0  0  0  0  0  0  0  0  0  0  0  0
  142.4427   71.8836  226.9698 H   0  0  0  0  0  0  0  0  0  0  0  0
  139.8381   71.7096  225.5221 H   0  0  0  0  0  0  0  0  0  0  0  0
  141.4199   71.1104  225.0156 H   0  0  0  0  0  0  0  0  0  0  0  0
  141.6933   75.4243  219.7191 H   0  0  0  0  0  0  0  0  0  0  0  0
  142.6537   77.7154  219.7375 H   0  0  0  0  0  0  0  0  0  0  0  0
  142.7715   79.8334  220.7516 H   0  0  0  0  0  0  0  0  0  0  0  0
  140.4410   80.6819  224.2536 H   0  0  0  0  0  0  0  0  0  0  0  0
  139.4777   78.3714  224.2351 H   0  0  0  0  0  0  0  0  0  0  0  0
  1  2  2  0
  2  3  1  0
  3  4  1  0
  4  5  1  0
  5  6  2  0
  5  7  1  0
  7  8  1  0
  8  9  1  0
  9 10  1  0
 10 11  1  0
 11 12  1  0
 12 13  1  0
 13 14  1  0
 14 15  1  0
 15 16  2  0
 15 17  1  0
 17 18  1  0
 18 19  1  0
 19 20  1  0
 20 21  1  0
  2 22  1  0
 22 23  2  0
 23 24  1  0
 24 25  2  0
 25 26  1  0
 26 27  2  0
 27 28  1  0
 27 29  1  0
 29 30  2  0
 30 31  1  0
 31 32  2  0
 12  7  1  0
 21 17  1  0
 32 22  1  0
 31 25  1  0
  3 33  1  0
  4 34  1  0
  4 35  1  0
  8 36  1  0
  8 37  1  0
  9 38  1  0
  9 39  1  0
 10 40  1  0
 10 41  1  0
 11 42  1  0
 11 43  1  0
 12 44  1  6
 13 45  1  0
 13 46  1  0
 14 47  1  0
 17 48  1  0
 18 49  1  0
 18 50  1  0
 19 51  1  0
 19 52  1  0
 20 53  1  0
 20 54  1  0
 21 55  1  0
 21 56  1  0
 23 57  1  0
 24 58  1  0
 26 59  1  0
 29 60  1  0
 30 61  1  0
M  END
>  <smiles>  (32) 
O=C(NCC(=O)N1CCCC[C@H]1CNC(=O)C1CCCC1)c1ccc2cc(F)ccc2n1

>  <score_type>  (32) 
oracle

>  <origin>  (32) 
autodockgpu

>  <m_score__min__energy>  (32) 
-9.3599999999999994

>  <m_primary>  (32) 
energy

>  <rmsd>  (32) 
9.16893436905777

>  <m_score__min__rmsd>  (32) 
9.16893436905777

>  <meeko>  (32) 
{"free_energy": -8.09, "intermolecular_energy": -10.18, "internal_energy": -2.54, "cluster_size": 5, "cluster_id": 2, "rank_in_cluster": 1}

>  <energy>  (32) 
-7.57

>  <cluster_rmsd>  (32) 
1.49

>  <cluster>  (32) 
1

$$$$

     RDKit          3D

 61 64  0  0  0  0  0  0  0  0999 V2000
  139.6860   71.2180  221.1660 O   0  0  0  0  0  0  0  0  0  0  0  0
  139.6740   71.8180  222.2970 C   0  0  0  0  0  0  0  0  0  0  0  0
  139.5450   73.2580  222.3330 N   0  0  0  0  0  0  0  0  0  0  0  0
  139.4230   74.0720  221.1970 C   0  0  0  0  0  0  0  0  0  0  0  0
  139.5930   75.5020  221.2040 C   0  0  0  0  0  0  0  0  0  0  0  0
  140.0370   75.9670  222.3430 O   0  0  0  0  0  0  0  0  0  0  0  0
  139.3730   76.4980  220.2270 N   0  0  0  0  0  0  0  0  0  0  0  0
  138.2000   76.4420  219.3670 C   0  0  0  0  0  0  0  0  0  0  0  0
  137.6260   77.7370  218.9100 C   0  0  0  0  0  0  0  0  0  0  0  0
  138.5880   78.8580  218.8750 C   0  0  0  0  0  0  0  0  0  0  0  0
  139.4720   78.8790  220.1270 C   0  0  0  0  0  0  0  0  0  0  0  0
  140.3020   77.5850  219.9820 C   0  0  1  0  0  0  0  0  0  0  0  0
  141.5230   77.6560  220.8060 C   0  0  0  0  0  0  0  0  0  0  0  0
  142.1850   76.3270  220.7520 N   0  0  0  0  0  0  0  0  0  0  0  0
  142.8570   75.8590  219.6180 C   0  0  0  0  0  0  0  0  0  0  0  0
  142.9680   76.5000  218.5430 O   0  0  0  0  0  0  0  0  0  0  0  0
  143.4880   74.5180  219.6690 C   0  0  0  0  0  0  0  0  0  0  0  0
  142.6540   73.5300  220.4520 C   0  0  0  0  0  0  0  0  0  0  0  0
  143.6570   72.4120  220.7540 C   0  0  0  0  0  0  0  0  0  0  0  0
  144.9940   73.1000  220.8780 C   0  0  0  0  0  0  0  0  0  0  0  0
  144.7830   74.5270  220.4500 C   0  0  0  0  0  0  0  0  0  0  0  0
  139.7910   71.0500  223.5320 C   0  0  0  0  0  0  0  0  0  0  0  0
  139.3730   69.7370  223.5460 C   0  0  0  0  0  0  0  0  0  0  0  0
  139.4420   68.9300  224.6610 C   0  0  0  0  0  0  0  0  0  0  0  0
  139.9720   69.5230  225.8120 C   0  0  0  0  0  0  0  0  0  0  0  0
  140.0410   68.7110  226.9350 C   0  0  0  0  0  0  0  0  0  0  0  0
  140.5570   69.2710  228.0760 C   0  0  0  0  0  0  0  0  0  0  0  0
  140.6280   68.4770  229.1820 F   0  0  0  0  0  0  0  0  0  0  0  0
  140.9830   70.5760  228.0940 C   0  0  0  0  0  0  0  0  0  0  0  0
  140.9080   71.3870  226.9570 C   0  0  0  0  0  0  0  0  0  0  0  0
  140.3900   70.8320  225.8050 C   0  0  0  0  0  0  0  0  0  0  0  0
  140.2960   71.5740  224.6720 N   0  0  0  0  0  0  0  0  0  0  0  0
  139.5500   73.6520  223.3140 H   0  0  0  0  0  0  0  0  0  0  0  0
  140.1601   73.6886  220.4761 H   0  0  0  0  0  0  0  0  0  0  0  0
  138.3436   73.9928  221.0006 H   0  0  0  0  0  0  0  0  0  0  0  0
  138.4750   75.8676  218.4701 H   0  0  0  0  0  0  0  0  0  0  0  0
  137.4146   75.9892  219.9899 H   0  0  0  0  0  0  0  0  0  0  0  0
  137.2264   77.5960  217.8949 H   0  0  0  0  0  0  0  0  0  0  0  0
  136.8536   78.0118  219.6434 H   0  0  0  0  0  0  0  0  0  0  0  0
  139.2284   78.7518  217.9870 H   0  0  0  0  0  0  0  0  0  0  0  0
  138.0199   79.7992  218.8378 H   0  0  0  0  0  0  0  0  0  0  0  0
  140.1213   79.7669  220.1387 H   0  0  0  0  0  0  0  0  0  0  0  0
  138.8982   78.9254  221.0643 H   0  0  0  0  0  0  0  0  0  0  0  0
  140.7281   77.4183  218.9817 H   0  0  0  0  0  0  0  0  0  0  0  0
  142.1988   78.4272  220.4079 H   0  0  0  0  0  0  0  0  0  0  0  0
  141.2713   77.9181  221.8442 H   0  0  0  0  0  0  0  0  0  0  0  0
  142.1450   75.7110  221.6070 H   0  0  0  0  0  0  0  0  0  0  0  0
  143.6160   74.2464  218.6108 H   0  0  0  0  0  0  0  0  0  0  0  0
  142.2707   73.9808  221.3793 H   0  0  0  0  0  0  0  0  0  0  0  0
  141.7623   73.1831  219.9093 H   0  0  0  0  0  0  0  0  0  0  0  0
  143.3963   71.9040  221.6942 H   0  0  0  0  0  0  0  0  0  0  0  0
  143.6628   71.6427  219.9678 H   0  0  0  0  0  0  0  0  0  0  0  0
  145.3445   73.0639  221.9201 H   0  0  0  0  0  0  0  0  0  0  0  0
  145.7540   72.6065  220.2545 H   0  0  0  0  0  0  0  0  0  0  0  0
  144.6999   75.1849  221.3276 H   0  0  0  0  0  0  0  0  0  0  0  0
  145.6234   74.9051  219.8493 H   0  0  0  0  0  0  0  0  0  0  0  0
  138.9628   69.3107  222.6187 H   0  0  0  0  0  0  0  0  0  0  0  0
  139.1014   67.8842  224.6469 H   0  0  0  0  0  0  0  0  0  0  0  0
  139.6977   67.6662  226.9114 H   0  0  0  0  0  0  0  0  0  0  0  0
  141.3932   70.9939  229.0252 H   0  0  0  0  0  0  0  0  0  0  0  0
  141.2505   72.4321  226.9805 H   0  0  0  0  0  0  0  0  0  0  0  0
  1  2  2  0
  2  3  1  0
  3  4  1  0
  4  5  1  0
  5  6  2  0
  5  7  1  0
  7  8  1  0
  8  9  1  0
  9 10  1  0
 10 11  1  0
 11 12  1  0
 12 13  1  0
 13 14  1  0
 14 15  1  0
 15 16  2  0
 15 17  1  0
 17 18  1  0
 18 19  1  0
 19 20  1  0
 20 21  1  0
  2 22  1  0
 22 23  2  0
 23 24  1  0
 24 25  2  0
 25 26  1  0
 26 27  2  0
 27 28  1  0
 27 29  1  0
 29 30  2  0
 30 31  1  0
 31 32  2  0
 12  7  1  0
 21 17  1  0
 32 22  1  0
 31 25  1  0
  3 33  1  0
  4 34  1  0
  4 35  1  0
  8 36  1  0
  8 37  1  0
  9 38  1  0
  9 39  1  0
 10 40  1  0
 10 41  1  0
 11 42  1  0
 11 43  1  0
 12 44  1  6
 13 45  1  0
 13 46  1  0
 14 47  1  0
 17 48  1  0
 18 49  1  0
 18 50  1  0
 19 51  1  0
 19 52  1  0
 20 53  1  0
 20 54  1  0
 21 55  1  0
 21 56  1  0
 23 57  1  0
 24 58  1  0
 26 59  1  0
 29 60  1  0
 30 61  1  0
M  END
>  <smiles>  (33) 
O=C(NCC(=O)N1CCCC[C@H]1CNC(=O)C1CCCC1)c1ccc2cc(F)ccc2n1

>  <score_type>  (33) 
oracle

>  <origin>  (33) 
autodockgpu

>  <m_score__min__energy>  (33) 
-9.3599999999999994

>  <m_primary>  (33) 
energy

>  <rmsd>  (33) 
4.258984302249564

>  <m_score__min__rmsd>  (33) 
4.258984302249564

>  <meeko>  (33) 
{"free_energy": -7.53, "intermolecular_energy": -9.62, "internal_energy": -2.67, "cluster_size": 37, "cluster_id": 1, "rank_in_cluster": 33}

>  <energy>  (33) 
-7.53

>  <cluster_rmsd>  (33) 
1.92

>  <cluster>  (33) 
1

$$$$

     RDKit          3D

 61 64  0  0  0  0  0  0  0  0999 V2000
  139.9370   70.8370  222.5630 O   0  0  0  0  0  0  0  0  0  0  0  0
  139.3290   71.9620  222.5930 C   0  0  0  0  0  0  0  0  0  0  0  0
  138.0070   72.0380  223.1730 N   0  0  0  0  0  0  0  0  0  0  0  0
  137.3200   70.9480  223.7250 C   0  0  0  0  0  0  0  0  0  0  0  0
  137.0750   69.7100  223.0320 C   0  0  0  0  0  0  0  0  0  0  0  0
  136.1600   68.9680  223.6000 O   0  0  0  0  0  0  0  0  0  0  0  0
  137.6280   69.1400  221.8630 N   0  0  0  0  0  0  0  0  0  0  0  0
  137.3350   69.7080  220.5550 C   0  0  0  0  0  0  0  0  0  0  0  0
  138.3920   69.6020  219.5140 C   0  0  0  0  0  0  0  0  0  0  0  0
  139.3320   68.4780  219.7030 C   0  0  0  0  0  0  0  0  0  0  0  0
  139.7670   68.3490  221.1660 C   0  0  0  0  0  0  0  0  0  0  0  0
  138.4580   67.9500  221.8800 C   0  0  1  0  0  0  0  0  0  0  0  0
  138.7460   67.3200  223.1810 C   0  0  0  0  0  0  0  0  0  0  0  0
  139.4990   68.3020  224.0040 N   0  0  0  0  0  0  0  0  0  0  0  0
  139.6510   68.1730  225.3890 C   0  0  0  0  0  0  0  0  0  0  0  0
  139.1740   67.2320  226.0720 O   0  0  0  0  0  0  0  0  0  0  0  0
  140.4250   69.2060  226.1180 C   0  0  0  0  0  0  0  0  0  0  0  0
  139.8060   69.5370  227.4570 C   0  0  0  0  0  0  0  0  0  0  0  0
  140.4610   70.8760  227.8070 C   0  0  0  0  0  0  0  0  0  0  0  0
  140.7030   71.5580  226.4830 C   0  0  0  0  0  0  0  0  0  0  0  0
  140.3890   70.5460  225.4160 C   0  0  0  0  0  0  0  0  0  0  0  0
  139.9720   73.1530  222.0440 C   0  0  0  0  0  0  0  0  0  0  0  0
  141.0380   73.0030  221.1860 C   0  0  0  0  0  0  0  0  0  0  0  0
  141.7100   74.0640  220.6160 C   0  0  0  0  0  0  0  0  0  0  0  0
  141.2440   75.3370  220.9610 C   0  0  0  0  0  0  0  0  0  0  0  0
  141.9200   76.4050  220.3890 C   0  0  0  0  0  0  0  0  0  0  0  0
  141.4810   77.6640  220.7120 C   0  0  0  0  0  0  0  0  0  0  0  0
  142.1420   78.7160  220.1510 F   0  0  0  0  0  0  0  0  0  0  0  0
  140.4200   77.8460  221.5640 C   0  0  0  0  0  0  0  0  0  0  0  0
  139.7450   76.7630  222.1370 C   0  0  0  0  0  0  0  0  0  0  0  0
  140.1810   75.4930  221.8170 C   0  0  0  0  0  0  0  0  0  0  0  0
  139.5610   74.4060  222.3440 N   0  0  0  0  0  0  0  0  0  0  0  0
  137.5950   73.0120  223.1430 H   0  0  0  0  0  0  0  0  0  0  0  0
  137.8772   70.6748  224.6332 H   0  0  0  0  0  0  0  0  0  0  0  0
  136.3003   71.3559  223.7861 H   0  0  0  0  0  0  0  0  0  0  0  0
  136.4381   69.2020  220.1682 H   0  0  0  0  0  0  0  0  0  0  0  0
  137.2219   70.7874  220.7343 H   0  0  0  0  0  0  0  0  0  0  0  0
  137.9006   69.4776  218.5378 H   0  0  0  0  0  0  0  0  0  0  0  0
  138.9899   70.5228  219.5825 H   0  0  0  0  0  0  0  0  0  0  0  0
  138.8396   67.5445  219.3930 H   0  0  0  0  0  0  0  0  0  0  0  0
  140.2268   68.6705  219.0929 H   0  0  0  0  0  0  0  0  0  0  0  0
  140.5352   67.5705  221.2835 H   0  0  0  0  0  0  0  0  0  0  0  0
  140.2188   69.2679  221.5679 H   0  0  0  0  0  0  0  0  0  0  0  0
  137.8829   67.1556  221.3818 H   0  0  0  0  0  0  0  0  0  0  0  0
  137.8049   67.0534  223.6843 H   0  0  0  0  0  0  0  0  0  0  0  0
  139.3364   66.4024  223.0415 H   0  0  0  0  0  0  0  0  0  0  0  0
  139.9370   69.1310  223.5220 H   0  0  0  0  0  0  0  0  0  0  0  0
  141.4344   68.7753  226.1920 H   0  0  0  0  0  0  0  0  0  0  0  0
  138.7138   69.6388  227.3751 H   0  0  0  0  0  0  0  0  0  0  0  0
  139.9679   68.7591  228.2177 H   0  0  0  0  0  0  0  0  0  0  0  0
  139.7903   71.4807  228.4351 H   0  0  0  0  0  0  0  0  0  0  0  0
  141.3930   70.7409  228.3755 H   0  0  0  0  0  0  0  0  0  0  0  0
  140.0452   72.4338  226.3811 H   0  0  0  0  0  0  0  0  0  0  0  0
  141.7416   71.9111  226.4021 H   0  0  0  0  0  0  0  0  0  0  0  0
  139.3921   70.7315  224.9896 H   0  0  0  0  0  0  0  0  0  0  0  0
  141.1043   70.5926  224.5816 H   0  0  0  0  0  0  0  0  0  0  0  0
  141.3713   71.9835  220.9422 H   0  0  0  0  0  0  0  0  0  0  0  0
  142.5596   73.9182  219.9326 H   0  0  0  0  0  0  0  0  0  0  0  0
  142.7693   76.2494  219.7075 H   0  0  0  0  0  0  0  0  0  0  0  0
  140.0925   78.8688  221.8020 H   0  0  0  0  0  0  0  0  0  0  0  0
  138.8960   76.9181  222.8191 H   0  0  0  0  0  0  0  0  0  0  0  0
  1  2  2  0
  2  3  1  0
  3  4  1  0
  4  5  1  0
  5  6  2  0
  5  7  1  0
  7  8  1  0
  8  9  1  0
  9 10  1  0
 10 11  1  0
 11 12  1  0
 12 13  1  0
 13 14  1  0
 14 15  1  0
 15 16  2  0
 15 17  1  0
 17 18  1  0
 18 19  1  0
 19 20  1  0
 20 21  1  0
  2 22  1  0
 22 23  2  0
 23 24  1  0
 24 25  2  0
 25 26  1  0
 26 27  2  0
 27 28  1  0
 27 29  1  0
 29 30  2  0
 30 31  1  0
 31 32  2  0
 12  7  1  0
 21 17  1  0
 32 22  1  0
 31 25  1  0
  3 33  1  0
  4 34  1  0
  4 35  1  0
  8 36  1  0
  8 37  1  0
  9 38  1  0
  9 39  1  0
 10 40  1  0
 10 41  1  0
 11 42  1  0
 11 43  1  0
 12 44  1  6
 13 45  1  0
 13 46  1  0
 14 47  1  0
 17 48  1  0
 18 49  1  0
 18 50  1  0
 19 51  1  0
 19 52  1  0
 20 53  1  0
 20 54  1  0
 21 55  1  0
 21 56  1  0
 23 57  1  0
 24 58  1  0
 26 59  1  0
 29 60  1  0
 30 61  1  0
M  END
>  <smiles>  (34) 
O=C(NCC(=O)N1CCCC[C@H]1CNC(=O)C1CCCC1)c1ccc2cc(F)ccc2n1

>  <score_type>  (34) 
oracle

>  <origin>  (34) 
autodockgpu

>  <m_score__min__energy>  (34) 
-9.3599999999999994

>  <m_primary>  (34) 
energy

>  <rmsd>  (34) 
8.73683009227797

>  <m_score__min__rmsd>  (34) 
8.73683009227797

>  <meeko>  (34) 
{"free_energy": -7.12, "intermolecular_energy": -9.21, "internal_energy": -3.48, "cluster_size": 5, "cluster_id": 2, "rank_in_cluster": 4}

>  <energy>  (34) 
-7.51

>  <cluster_rmsd>  (34) 
1.71

>  <cluster>  (34) 
1

$$$$

     RDKit          3D

 61 64  0  0  0  0  0  0  0  0999 V2000
  140.1320   73.2690  222.7230 O   0  0  0  0  0  0  0  0  0  0  0  0
  139.8540   72.0240  222.6220 C   0  0  0  0  0  0  0  0  0  0  0  0
  139.4700   71.4860  221.3360 N   0  0  0  0  0  0  0  0  0  0  0  0
  139.3800   72.2390  220.1560 C   0  0  0  0  0  0  0  0  0  0  0  0
  140.3540   73.2150  219.7420 C   0  0  0  0  0  0  0  0  0  0  0  0
  139.9760   73.9210  218.7090 O   0  0  0  0  0  0  0  0  0  0  0  0
  141.6350   73.5570  220.2300 N   0  0  0  0  0  0  0  0  0  0  0  0
  142.7350   72.6060  220.1460 C   0  0  0  0  0  0  0  0  0  0  0  0
  144.1040   73.1610  219.9770 C   0  0  0  0  0  0  0  0  0  0  0  0
  144.2780   74.5390  220.4830 C   0  0  0  0  0  0  0  0  0  0  0  0
  143.0980   75.4350  220.0880 C   0  0  0  0  0  0  0  0  0  0  0  0
  141.9230   74.8220  220.8790 C   0  0  1  0  0  0  0  0  0  0  0  0
  140.8260   75.7980  221.0190 C   0  0  0  0  0  0  0  0  0  0  0  0
  141.4250   77.1020  221.4070 N   0  0  0  0  0  0  0  0  0  0  0  0
  140.6610   78.1840  221.8550 C   0  0  0  0  0  0  0  0  0  0  0  0
  139.4100   78.1720  221.9730 O   0  0  0  0  0  0  0  0  0  0  0  0
  141.3570   79.4420  222.2210 C   0  0  0  0  0  0  0  0  0  0  0  0
  142.5730   79.1860  223.0820 C   0  0  0  0  0  0  0  0  0  0  0  0
  142.8470   80.5640  223.6920 C   0  0  0  0  0  0  0  0  0  0  0  0
  141.4930   81.2150  223.8270 C   0  0  0  0  0  0  0  0  0  0  0  0
  140.5130   80.3180  223.1210 C   0  0  0  0  0  0  0  0  0  0  0  0
  139.9260   71.1630  223.7980 C   0  0  0  0  0  0  0  0  0  0  0  0
  139.4630   69.8680  223.7090 C   0  0  0  0  0  0  0  0  0  0  0  0
  139.4880   68.9790  224.7620 C   0  0  0  0  0  0  0  0  0  0  0  0
  140.0230   69.4660  225.9590 C   0  0  0  0  0  0  0  0  0  0  0  0
  140.0480   68.5710  227.0200 C   0  0  0  0  0  0  0  0  0  0  0  0
  140.5680   69.0250  228.2050 C   0  0  0  0  0  0  0  0  0  0  0  0
  140.5950   68.1490  229.2490 F   0  0  0  0  0  0  0  0  0  0  0  0
  141.0390   70.3090  228.3240 C   0  0  0  0  0  0  0  0  0  0  0  0
  141.0080   71.2040  227.2500 C   0  0  0  0  0  0  0  0  0  0  0  0
  140.4870   70.7550  226.0550 C   0  0  0  0  0  0  0  0  0  0  0  0
  140.4340   71.5820  224.9790 N   0  0  0  0  0  0  0  0  0  0  0  0
  139.2590   70.4500  221.3650 H   0  0  0  0  0  0  0  0  0  0  0  0
  139.3290   71.5049  219.3384 H   0  0  0  0  0  0  0  0  0  0  0  0
  138.5234   72.8882  220.3900 H   0  0  0  0  0  0  0  0  0  0  0  0
  142.7308   72.0130  221.0725 H   0  0  0  0  0  0  0  0  0  0  0  0
  142.5456   72.0353  219.2249 H   0  0  0  0  0  0  0  0  0  0  0  0
  144.8075   72.5074  220.5136 H   0  0  0  0  0  0  0  0  0  0  0  0
  144.2916   73.2014  218.8939 H   0  0  0  0  0  0  0  0  0  0  0  0
  144.3536   74.5102  221.5800 H   0  0  0  0  0  0  0  0  0  0  0  0
  145.1932   74.9572  220.0387 H   0  0  0  0  0  0  0  0  0  0  0  0
  143.2754   76.4785  220.3872 H   0  0  0  0  0  0  0  0  0  0  0  0
  142.9215   75.4692  219.0028 H   0  0  0  0  0  0  0  0  0  0  0  0
  142.1434   74.5944  221.9324 H   0  0  0  0  0  0  0  0  0  0  0  0
  140.2924   75.9010  220.0626 H   0  0  0  0  0  0  0  0  0  0  0  0
  140.1082   75.4626  221.7821 H   0  0  0  0  0  0  0  0  0  0  0  0
  142.4720   77.2140  221.3400 H   0  0  0  0  0  0  0  0  0  0  0  0
  141.5922   79.9052  221.2514 H   0  0  0  0  0  0  0  0  0  0  0  0
  142.3571   78.4420  223.8629 H   0  0  0  0  0  0  0  0  0  0  0  0
  143.4273   78.7778  222.5220 H   0  0  0  0  0  0  0  0  0  0  0  0
  143.3252   80.4612  224.6773 H   0  0  0  0  0  0  0  0  0  0  0  0
  143.5289   81.1607  223.0683 H   0  0  0  0  0  0  0  0  0  0  0  0
  141.2224   81.3116  224.8888 H   0  0  0  0  0  0  0  0  0  0  0  0
  141.4927   82.2246  223.3903 H   0  0  0  0  0  0  0  0  0  0  0  0
  139.9586   79.7050  223.8468 H   0  0  0  0  0  0  0  0  0  0  0  0
  139.7647   80.8911  222.5539 H   0  0  0  0  0  0  0  0  0  0  0  0
  139.0521   69.5261  222.7476 H   0  0  0  0  0  0  0  0  0  0  0  0
  139.1106   67.9502  224.6668 H   0  0  0  0  0  0  0  0  0  0  0  0
  139.6679   67.5441  226.9149 H   0  0  0  0  0  0  0  0  0  0  0  0
  141.4510   70.6420  229.2880 H   0  0  0  0  0  0  0  0  0  0  0  0
  141.3865   72.2315  227.3550 H   0  0  0  0  0  0  0  0  0  0  0  0
  1  2  2  0
  2  3  1  0
  3  4  1  0
  4  5  1  0
  5  6  2  0
  5  7  1  0
  7  8  1  0
  8  9  1  0
  9 10  1  0
 10 11  1  0
 11 12  1  0
 12 13  1  0
 13 14  1  0
 14 15  1  0
 15 16  2  0
 15 17  1  0
 17 18  1  0
 18 19  1  0
 19 20  1  0
 20 21  1  0
  2 22  1  0
 22 23  2  0
 23 24  1  0
 24 25  2  0
 25 26  1  0
 26 27  2  0
 27 28  1  0
 27 29  1  0
 29 30  2  0
 30 31  1  0
 31 32  2  0
 12  7  1  0
 21 17  1  0
 32 22  1  0
 31 25  1  0
  3 33  1  0
  4 34  1  0
  4 35  1  0
  8 36  1  0
  8 37  1  0
  9 38  1  0
  9 39  1  0
 10 40  1  0
 10 41  1  0
 11 42  1  0
 11 43  1  0
 12 44  1  1
 13 45  1  0
 13 46  1  0
 14 47  1  0
 17 48  1  0
 18 49  1  0
 18 50  1  0
 19 51  1  0
 19 52  1  0
 20 53  1  0
 20 54  1  0
 21 55  1  0
 21 56  1  0
 23 57  1  0
 24 58  1  0
 26 59  1  0
 29 60  1  0
 30 61  1  0
M  END
>  <smiles>  (35) 
O=C(NCC(=O)N1CCCC[C@H]1CNC(=O)C1CCCC1)c1ccc2cc(F)ccc2n1

>  <score_type>  (35) 
oracle

>  <origin>  (35) 
autodockgpu

>  <m_score__min__energy>  (35) 
-9.3599999999999994

>  <m_primary>  (35) 
energy

>  <rmsd>  (35) 
3.0573642519617383

>  <m_score__min__rmsd>  (35) 
3.0573642519617383

>  <meeko>  (35) 
{"free_energy": -9.22, "intermolecular_energy": -11.31, "internal_energy": -1.52, "cluster_size": 37, "cluster_id": 1, "rank_in_cluster": 8}

>  <energy>  (35) 
-7.43

>  <cluster_rmsd>  (35) 
1.8

>  <cluster>  (35) 
1

$$$$

     RDKit          3D

 61 64  0  0  0  0  0  0  0  0999 V2000
  140.3140   73.0370  222.7340 O   0  0  0  0  0  0  0  0  0  0  0  0
  140.3370   71.7620  222.8450 C   0  0  0  0  0  0  0  0  0  0  0  0
  140.3020   70.9460  221.6520 N   0  0  0  0  0  0  0  0  0  0  0  0
  140.2470   71.4540  220.3450 C   0  0  0  0  0  0  0  0  0  0  0  0
  141.3030   72.2130  219.7270 C   0  0  0  0  0  0  0  0  0  0  0  0
  141.1430   72.3730  218.4390 O   0  0  0  0  0  0  0  0  0  0  0  0
  142.4760   72.8150  220.2360 N   0  0  0  0  0  0  0  0  0  0  0  0
  143.7080   72.0480  220.3520 C   0  0  0  0  0  0  0  0  0  0  0  0
  144.9890   72.7870  220.1870 C   0  0  0  0  0  0  0  0  0  0  0  0
  144.9130   74.2290  220.5030 C   0  0  0  0  0  0  0  0  0  0  0  0
  143.6490   74.8670  219.9170 C   0  0  0  0  0  0  0  0  0  0  0  0
  142.5180   74.1830  220.7160 C   0  0  1  0  0  0  0  0  0  0  0  0
  141.2810   74.9820  220.6530 C   0  0  0  0  0  0  0  0  0  0  0  0
  141.6110   76.3670  221.0810 N   0  0  0  0  0  0  0  0  0  0  0  0
  140.7130   77.1790  221.7800 C   0  0  0  0  0  0  0  0  0  0  0  0
  139.5510   76.8340  222.1120 O   0  0  0  0  0  0  0  0  0  0  0  0
  141.1420   78.5450  222.1650 C   0  0  0  0  0  0  0  0  0  0  0  0
  141.8740   78.5570  223.4870 C   0  0  0  0  0  0  0  0  0  0  0  0
  141.8130   80.0340  223.8890 C   0  0  0  0  0  0  0  0  0  0  0  0
  140.5140   80.5490  223.3200 C   0  0  0  0  0  0  0  0  0  0  0  0
  139.9650   79.4530  222.4480 C   0  0  0  0  0  0  0  0  0  0  0  0
  140.3990   71.1450  224.1670 C   0  0  0  0  0  0  0  0  0  0  0  0
  140.8500   71.8920  225.2330 C   0  0  0  0  0  0  0  0  0  0  0  0
  140.9450   71.4010  226.5180 C   0  0  0  0  0  0  0  0  0  0  0  0
  140.5490   70.0700  226.6930 C   0  0  0  0  0  0  0  0  0  0  0  0
  140.6450   69.5750  227.9860 C   0  0  0  0  0  0  0  0  0  0  0  0
  140.2630   68.2730  228.1830 C   0  0  0  0  0  0  0  0  0  0  0  0
  140.3550   67.7820  229.4520 F   0  0  0  0  0  0  0  0  0  0  0  0
  139.8080   67.5040  227.1400 C   0  0  0  0  0  0  0  0  0  0  0  0
  139.7160   68.0110  225.8400 C   0  0  0  0  0  0  0  0  0  0  0  0
  140.0990   69.3210  225.6340 C   0  0  0  0  0  0  0  0  0  0  0  0
  140.0290   69.8640  224.3920 N   0  0  0  0  0  0  0  0  0  0  0  0
  140.3220   69.9090  221.8550 H   0  0  0  0  0  0  0  0  0  0  0  0
  140.0872   70.5821  219.6937 H   0  0  0  0  0  0  0  0  0  0  0  0
  139.4733   72.2280  220.4560 H   0  0  0  0  0  0  0  0  0  0  0  0
  143.7181   71.5878  221.3511 H   0  0  0  0  0  0  0  0  0  0  0  0
  143.6801   71.3392  219.5113 H   0  0  0  0  0  0  0  0  0  0  0  0
  145.7371   72.3293  220.8510 H   0  0  0  0  0  0  0  0  0  0  0  0
  145.2554   72.7150  219.1222 H   0  0  0  0  0  0  0  0  0  0  0  0
  144.9034   74.3553  221.5957 H   0  0  0  0  0  0  0  0  0  0  0  0
  145.7880   74.7260  220.0587 H   0  0  0  0  0  0  0  0  0  0  0  0
  143.6443   75.9554  220.0763 H   0  0  0  0  0  0  0  0  0  0  0  0
  143.5571   74.7314  218.8293 H   0  0  0  0  0  0  0  0  0  0  0  0
  142.6837   74.1321  221.8023 H   0  0  0  0  0  0  0  0  0  0  0  0
  140.8936   74.9910  219.6235 H   0  0  0  0  0  0  0  0  0  0  0  0
  140.5115   74.5504  221.3099 H   0  0  0  0  0  0  0  0  0  0  0  0
  142.5650   76.7510  220.8460 H   0  0  0  0  0  0  0  0  0  0  0  0
  141.7585   78.8765  221.3164 H   0  0  0  0  0  0  0  0  0  0  0  0
  141.3659   77.9224  224.2280 H   0  0  0  0  0  0  0  0  0  0  0  0
  142.8989   78.1628  223.4233 H   0  0  0  0  0  0  0  0  0  0  0  0
  141.8209   80.1357  224.9843 H   0  0  0  0  0  0  0  0  0  0  0  0
  142.6783   80.5978  223.5104 H   0  0  0  0  0  0  0  0  0  0  0  0
  139.8080   80.7783  224.1318 H   0  0  0  0  0  0  0  0  0  0  0  0
  140.6705   81.4737  222.7452 H   0  0  0  0  0  0  0  0  0  0  0  0
  139.1709   78.9028  222.9739 H   0  0  0  0  0  0  0  0  0  0  0  0
  139.5182   79.8476  221.5235 H   0  0  0  0  0  0  0  0  0  0  0  0
  141.1499   72.9343  225.0496 H   0  0  0  0  0  0  0  0  0  0  0  0
  141.3093   72.0169  227.3534 H   0  0  0  0  0  0  0  0  0  0  0  0
  141.0109   70.1987  228.8149 H   0  0  0  0  0  0  0  0  0  0  0  0
  139.5084   66.4631  227.3320 H   0  0  0  0  0  0  0  0  0  0  0  0
  139.3511   67.3875  225.0104 H   0  0  0  0  0  0  0  0  0  0  0  0
  1  2  2  0
  2  3  1  0
  3  4  1  0
  4  5  1  0
  5  6  2  0
  5  7  1  0
  7  8  1  0
  8  9  1  0
  9 10  1  0
 10 11  1  0
 11 12  1  0
 12 13  1  0
 13 14  1  0
 14 15  1  0
 15 16  2  0
 15 17  1  0
 17 18  1  0
 18 19  1  0
 19 20  1  0
 20 21  1  0
  2 22  1  0
 22 23  2  0
 23 24  1  0
 24 25  2  0
 25 26  1  0
 26 27  2  0
 27 28  1  0
 27 29  1  0
 29 30  2  0
 30 31  1  0
 31 32  2  0
 12  7  1  0
 21 17  1  0
 32 22  1  0
 31 25  1  0
  3 33  1  0
  4 34  1  0
  4 35  1  0
  8 36  1  0
  8 37  1  0
  9 38  1  0
  9 39  1  0
 10 40  1  0
 10 41  1  0
 11 42  1  0
 11 43  1  0
 12 44  1  1
 13 45  1  0
 13 46  1  0
 14 47  1  0
 17 48  1  0
 18 49  1  0
 18 50  1  0
 19 51  1  0
 19 52  1  0
 20 53  1  0
 20 54  1  0
 21 55  1  0
 21 56  1  0
 23 57  1  0
 24 58  1  0
 26 59  1  0
 29 60  1  0
 30 61  1  0
M  END
>  <smiles>  (36) 
O=C(NCC(=O)N1CCCC[C@H]1CNC(=O)C1CCCC1)c1ccc2cc(F)ccc2n1

>  <score_type>  (36) 
oracle

>  <origin>  (36) 
autodockgpu

>  <m_score__min__energy>  (36) 
-9.3599999999999994

>  <m_primary>  (36) 
energy

>  <rmsd>  (36) 
3.954766062875012

>  <m_score__min__rmsd>  (36) 
3.954766062875012

>  <meeko>  (36) 
{"free_energy": -9.14, "intermolecular_energy": -11.23, "internal_energy": -1.87, "cluster_size": 37, "cluster_id": 1, "rank_in_cluster": 11}

>  <energy>  (36) 
-7.35

>  <cluster_rmsd>  (36) 
1.46

>  <cluster>  (36) 
1

$$$$

     RDKit          3D

 61 64  0  0  0  0  0  0  0  0999 V2000
  139.9410   70.6070  222.7030 O   0  0  0  0  0  0  0  0  0  0  0  0
  139.3450   71.7390  222.7240 C   0  0  0  0  0  0  0  0  0  0  0  0
  138.0290   71.8350  223.3150 N   0  0  0  0  0  0  0  0  0  0  0  0
  137.3360   70.7590  223.8880 C   0  0  0  0  0  0  0  0  0  0  0  0
  136.9880   69.5530  223.1810 C   0  0  0  0  0  0  0  0  0  0  0  0
  136.0400   68.8650  223.7630 O   0  0  0  0  0  0  0  0  0  0  0  0
  137.4680   68.9690  221.9880 N   0  0  0  0  0  0  0  0  0  0  0  0
  137.0030   69.4450  220.6940 C   0  0  0  0  0  0  0  0  0  0  0  0
  137.9570   69.3680  219.5550 C   0  0  0  0  0  0  0  0  0  0  0  0
  139.0000   68.3300  219.6950 C   0  0  0  0  0  0  0  0  0  0  0  0
  139.5860   68.3110  221.1110 C   0  0  0  0  0  0  0  0  0  0  0  0
  138.3900   67.8480  221.9710 C   0  0  1  0  0  0  0  0  0  0  0  0
  138.8550   67.3100  223.2620 C   0  0  0  0  0  0  0  0  0  0  0  0
  139.2010   68.4610  224.1370 N   0  0  0  0  0  0  0  0  0  0  0  0
  139.2100   68.3760  225.5330 C   0  0  0  0  0  0  0  0  0  0  0  0
  138.9300   67.3390  226.1850 O   0  0  0  0  0  0  0  0  0  0  0  0
  139.5720   69.5830  226.3150 C   0  0  0  0  0  0  0  0  0  0  0  0
  140.6170   70.4200  225.6120 C   0  0  0  0  0  0  0  0  0  0  0  0
  141.1500   71.3070  226.7420 C   0  0  0  0  0  0  0  0  0  0  0  0
  141.0360   70.4700  227.9920 C   0  0  0  0  0  0  0  0  0  0  0  0
  140.2700   69.2330  227.6110 C   0  0  0  0  0  0  0  0  0  0  0  0
  139.9940   72.9170  222.1560 C   0  0  0  0  0  0  0  0  0  0  0  0
  141.1220   72.7510  221.3820 C   0  0  0  0  0  0  0  0  0  0  0  0
  141.8050   73.7990  220.8020 C   0  0  0  0  0  0  0  0  0  0  0  0
  141.2840   75.0740  221.0420 C   0  0  0  0  0  0  0  0  0  0  0  0
  141.9710   76.1290  220.4590 C   0  0  0  0  0  0  0  0  0  0  0  0
  141.4790   77.3900  220.6800 C   0  0  0  0  0  0  0  0  0  0  0  0
  142.1510   78.4300  220.1080 F   0  0  0  0  0  0  0  0  0  0  0  0
  140.3560   77.5870  221.4450 C   0  0  0  0  0  0  0  0  0  0  0  0
  139.6700   76.5180  222.0300 C   0  0  0  0  0  0  0  0  0  0  0  0
  140.1590   75.2460  221.8120 C   0  0  0  0  0  0  0  0  0  0  0  0
  139.5320   74.1720  222.3550 N   0  0  0  0  0  0  0  0  0  0  0  0
  137.6260   72.8120  223.2780 H   0  0  0  0  0  0  0  0  0  0  0  0
  137.9446   70.4360  224.7455 H   0  0  0  0  0  0  0  0  0  0  0  0
  136.3423   71.2071  224.0357 H   0  0  0  0  0  0  0  0  0  0  0  0
  136.1167   68.8525  220.4231 H   0  0  0  0  0  0  0  0  0  0  0  0
  136.8213   70.5203  220.8376 H   0  0  0  0  0  0  0  0  0  0  0  0
  137.3832   69.1567  218.6406 H   0  0  0  0  0  0  0  0  0  0  0  0
  138.4814   70.3344  219.5217 H   0  0  0  0  0  0  0  0  0  0  0  0
  138.5573   67.3467  219.4780 H   0  0  0  0  0  0  0  0  0  0  0  0
  139.8115   68.5582  218.9884 H   0  0  0  0  0  0  0  0  0  0  0  0
  140.4239   67.6020  221.1834 H   0  0  0  0  0  0  0  0  0  0  0  0
  139.9976   69.2817  221.4247 H   0  0  0  0  0  0  0  0  0  0  0  0
  137.8362   66.9871  221.5684 H   0  0  0  0  0  0  0  0  0  0  0  0
  138.0571   66.7129  223.7275 H   0  0  0  0  0  0  0  0  0  0  0  0
  139.7321   66.6627  223.1145 H   0  0  0  0  0  0  0  0  0  0  0  0
  139.4480   69.3800  223.6830 H   0  0  0  0  0  0  0  0  0  0  0  0
  138.6129   70.1022  226.4582 H   0  0  0  0  0  0  0  0  0  0  0  0
  141.4146   69.7893  225.1924 H   0  0  0  0  0  0  0  0  0  0  0  0
  140.2201   70.9896  224.7587 H   0  0  0  0  0  0  0  0  0  0  0  0
  142.1991   71.5800  226.5554 H   0  0  0  0  0  0  0  0  0  0  0  0
  140.5864   72.2480  226.8255 H   0  0  0  0  0  0  0  0  0  0  0  0
  142.0365   70.1988  228.3600 H   0  0  0  0  0  0  0  0  0  0  0  0
  140.5250   71.0222  228.7945 H   0  0  0  0  0  0  0  0  0  0  0  0
  140.9550   68.3851  227.4635 H   0  0  0  0  0  0  0  0  0  0  0  0
  139.5579   68.9326  228.3937 H   0  0  0  0  0  0  0  0  0  0  0  0
  141.4968   71.7298  221.2185 H   0  0  0  0  0  0  0  0  0  0  0  0
  142.7043   73.6416  220.1884 H   0  0  0  0  0  0  0  0  0  0  0  0
  142.8697   75.9616  219.8472 H   0  0  0  0  0  0  0  0  0  0  0  0
  139.9867   78.6112  221.6017 H   0  0  0  0  0  0  0  0  0  0  0  0
  138.7718   76.6852  222.6426 H   0  0  0  0  0  0  0  0  0  0  0  0
  1  2  2  0
  2  3  1  0
  3  4  1  0
  4  5  1  0
  5  6  2  0
  5  7  1  0
  7  8  1  0
  8  9  1  0
  9 10  1  0
 10 11  1  0
 11 12  1  0
 12 13  1  0
 13 14  1  0
 14 15  1  0
 15 16  2  0
 15 17  1  0
 17 18  1  0
 18 19  1  0
 19 20  1  0
 20 21  1  0
  2 22  1  0
 22 23  2  0
 23 24  1  0
 24 25  2  0
 25 26  1  0
 26 27  2  0
 27 28  1  0
 27 29  1  0
 29 30  2  0
 30 31  1  0
 31 32  2  0
 12  7  1  0
 21 17  1  0
 32 22  1  0
 31 25  1  0
  3 33  1  0
  4 34  1  0
  4 35  1  0
  8 36  1  0
  8 37  1  0
  9 38  1  0
  9 39  1  0
 10 40  1  0
 10 41  1  0
 11 42  1  0
 11 43  1  0
 12 44  1  6
 13 45  1  0
 13 46  1  0
 14 47  1  0
 17 48  1  0
 18 49  1  0
 18 50  1  0
 19 51  1  0
 19 52  1  0
 20 53  1  0
 20 54  1  0
 21 55  1  0
 21 56  1  0
 23 57  1  0
 24 58  1  0
 26 59  1  0
 29 60  1  0
 30 61  1  0
M  END
>  <smiles>  (37) 
O=C(NCC(=O)N1CCCC[C@H]1CNC(=O)C1CCCC1)c1ccc2cc(F)ccc2n1

>  <score_type>  (37) 
oracle

>  <origin>  (37) 
autodockgpu

>  <m_score__min__energy>  (37) 
-9.3599999999999994

>  <m_primary>  (37) 
energy

>  <rmsd>  (37) 
8.972728262901164

>  <m_score__min__rmsd>  (37) 
8.972728262901164

>  <meeko>  (37) 
{"free_energy": -7.42, "intermolecular_energy": -9.51, "internal_energy": -3.13, "cluster_size": 5, "cluster_id": 2, "rank_in_cluster": 3}

>  <energy>  (37) 
-7.26

>  <cluster_rmsd>  (37) 
1.99

>  <cluster>  (37) 
1

$$$$

     RDKit          3D

 61 64  0  0  0  0  0  0  0  0999 V2000
  138.6790   71.0670  221.1580 O   0  0  0  0  0  0  0  0  0  0  0  0
  138.9950   71.7790  222.1730 C   0  0  0  0  0  0  0  0  0  0  0  0
  138.9840   73.2200  222.0590 N   0  0  0  0  0  0  0  0  0  0  0  0
  138.6400   73.9210  220.8930 C   0  0  0  0  0  0  0  0  0  0  0  0
  139.2590   73.7090  219.6100 C   0  0  0  0  0  0  0  0  0  0  0  0
  138.9380   72.5680  219.0600 O   0  0  0  0  0  0  0  0  0  0  0  0
  140.1430   74.4900  218.8320 N   0  0  0  0  0  0  0  0  0  0  0  0
  139.9330   74.6350  217.3990 C   0  0  0  0  0  0  0  0  0  0  0  0
  140.3580   75.9160  216.7740 C   0  0  0  0  0  0  0  0  0  0  0  0
  141.4300   76.6290  217.4990 C   0  0  0  0  0  0  0  0  0  0  0  0
  141.1810   76.6300  219.0110 C   0  0  0  0  0  0  0  0  0  0  0  0
  141.3190   75.1370  219.3820 C   0  0  1  0  0  0  0  0  0  0  0  0
  141.5910   74.9830  220.8230 C   0  0  0  0  0  0  0  0  0  0  0  0
  141.4890   76.3260  221.4510 N   0  0  0  0  0  0  0  0  0  0  0  0
  140.4750   76.6660  222.3520 C   0  0  0  0  0  0  0  0  0  0  0  0
  139.5580   75.8890  222.7190 O   0  0  0  0  0  0  0  0  0  0  0  0
  140.4650   78.0340  222.9260 C   0  0  0  0  0  0  0  0  0  0  0  0
  140.4400   79.0980  221.8520 C   0  0  0  0  0  0  0  0  0  0  0  0
  140.8810   80.3510  222.6140 C   0  0  0  0  0  0  0  0  0  0  0  0
  141.8240   79.8570  223.6830 C   0  0  0  0  0  0  0  0  0  0  0  0
  141.7500   78.3540  223.6570 C   0  0  0  0  0  0  0  0  0  0  0  0
  139.3620   71.1350  223.4310 C   0  0  0  0  0  0  0  0  0  0  0  0
  139.1210   69.7870  223.5880 C   0  0  0  0  0  0  0  0  0  0  0  0
  139.4310   69.0890  224.7350 C   0  0  0  0  0  0  0  0  0  0  0  0
  140.0180   69.8350  225.7630 C   0  0  0  0  0  0  0  0  0  0  0  0
  140.3300   69.1320  226.9180 C   0  0  0  0  0  0  0  0  0  0  0  0
  140.9070   69.8420  227.9400 C   0  0  0  0  0  0  0  0  0  0  0  0
  141.2160   69.1560  229.0780 F   0  0  0  0  0  0  0  0  0  0  0  0
  141.1600   71.1850  227.8140 C   0  0  0  0  0  0  0  0  0  0  0  0
  140.8420   71.8850  226.6460 C   0  0  0  0  0  0  0  0  0  0  0  0
  140.2610   71.1780  225.6130 C   0  0  0  0  0  0  0  0  0  0  0  0
  139.9320   71.8070  224.4560 N   0  0  0  0  0  0  0  0  0  0  0  0
  139.2630   73.7110  222.9530 H   0  0  0  0  0  0  0  0  0  0  0  0
  137.5667   73.7349  220.7398 H   0  0  0  0  0  0  0  0  0  0  0  0
  139.0109   74.9270  221.1387 H   0  0  0  0  0  0  0  0  0  0  0  0
  140.4851   73.8248  216.9004 H   0  0  0  0  0  0  0  0  0  0  0  0
  138.8411   74.6056  217.2690 H   0  0  0  0  0  0  0  0  0  0  0  0
  140.7173   75.6989  215.7572 H   0  0  0  0  0  0  0  0  0  0  0  0
  139.4788   76.5768  216.7894 H   0  0  0  0  0  0  0  0  0  0  0  0
  142.3904   76.1329  217.2953 H   0  0  0  0  0  0  0  0  0  0  0  0
  141.4467   77.6725  217.1513 H   0  0  0  0  0  0  0  0  0  0  0  0
  141.9314   77.2396  219.5357 H   0  0  0  0  0  0  0  0  0  0  0  0
  140.2083   77.0602  219.2917 H   0  0  0  0  0  0  0  0  0  0  0  0
  142.1918   74.6295  218.9455 H   0  0  0  0  0  0  0  0  0  0  0  0
  140.8526   74.3027  221.2725 H   0  0  0  0  0  0  0  0  0  0  0  0
  142.5940   74.5601  220.9815 H   0  0  0  0  0  0  0  0  0  0  0  0
  142.2120   77.0520  221.2040 H   0  0  0  0  0  0  0  0  0  0  0  0
  139.5770   78.0412  223.5752 H   0  0  0  0  0  0  0  0  0  0  0  0
  141.1424   78.8592  221.0399 H   0  0  0  0  0  0  0  0  0  0  0  0
  139.4599   79.2046  221.3640 H   0  0  0  0  0  0  0  0  0  0  0  0
  141.3962   81.0506  221.9394 H   0  0  0  0  0  0  0  0  0  0  0  0
  140.0246   80.8929  223.0418 H   0  0  0  0  0  0  0  0  0  0  0  0
  142.8500   80.1907  223.4684 H   0  0  0  0  0  0  0  0  0  0  0  0
  141.5466   80.2518  224.6715 H   0  0  0  0  0  0  0  0  0  0  0  0
  142.6139   77.9343  223.1208 H   0  0  0  0  0  0  0  0  0  0  0  0
  141.7659   77.9235  224.6691 H   0  0  0  0  0  0  0  0  0  0  0  0
  138.6570   69.2398  222.7542 H   0  0  0  0  0  0  0  0  0  0  0  0
  139.2295   68.0123  224.8361 H   0  0  0  0  0  0  0  0  0  0  0  0
  140.1242   68.0553  227.0097 H   0  0  0  0  0  0  0  0  0  0  0  0
  141.6245   71.7242  228.6527 H   0  0  0  0  0  0  0  0  0  0  0  0
  141.0478   72.9616  226.5538 H   0  0  0  0  0  0  0  0  0  0  0  0
  1  2  2  0
  2  3  1  0
  3  4  1  0
  4  5  1  0
  5  6  2  0
  5  7  1  0
  7  8  1  0
  8  9  1  0
  9 10  1  0
 10 11  1  0
 11 12  1  0
 12 13  1  0
 13 14  1  0
 14 15  1  0
 15 16  2  0
 15 17  1  0
 17 18  1  0
 18 19  1  0
 19 20  1  0
 20 21  1  0
  2 22  1  0
 22 23  2  0
 23 24  1  0
 24 25  2  0
 25 26  1  0
 26 27  2  0
 27 28  1  0
 27 29  1  0
 29 30  2  0
 30 31  1  0
 31 32  2  0
 12  7  1  0
 21 17  1  0
 32 22  1  0
 31 25  1  0
  3 33  1  0
  4 34  1  0
  4 35  1  0
  8 36  1  0
  8 37  1  0
  9 38  1  0
  9 39  1  0
 10 40  1  0
 10 41  1  0
 11 42  1  0
 11 43  1  0
 12 44  1  6
 13 45  1  0
 13 46  1  0
 14 47  1  0
 17 48  1  0
 18 49  1  0
 18 50  1  0
 19 51  1  0
 19 52  1  0
 20 53  1  0
 20 54  1  0
 21 55  1  0
 21 56  1  0
 23 57  1  0
 24 58  1  0
 26 59  1  0
 29 60  1  0
 30 61  1  0
M  END
>  <smiles>  (38) 
O=C(NCC(=O)N1CCCC[C@H]1CNC(=O)C1CCCC1)c1ccc2cc(F)ccc2n1

>  <score_type>  (38) 
oracle

>  <origin>  (38) 
autodockgpu

>  <m_score__min__energy>  (38) 
-9.3599999999999994

>  <m_primary>  (38) 
energy

>  <rmsd>  (38) 
2.111359552885089

>  <m_score__min__rmsd>  (38) 
2.111359552885089

>  <meeko>  (38) 
{"free_energy": -7.43, "intermolecular_energy": -9.52, "internal_energy": -2.54, "cluster_size": 37, "cluster_id": 1, "rank_in_cluster": 35}

>  <energy>  (38) 
-8.09

>  <cluster_rmsd>  (38) 
0.0

>  <cluster>  (38) 
2

$$$$

     RDKit          3D

 61 64  0  0  0  0  0  0  0  0999 V2000
  140.0890   73.4120  222.6610 O   0  0  0  0  0  0  0  0  0  0  0  0
  139.9440   72.1500  222.5080 C   0  0  0  0  0  0  0  0  0  0  0  0
  139.7450   71.6160  221.1790 N   0  0  0  0  0  0  0  0  0  0  0  0
  139.7000   72.3920  220.0110 C   0  0  0  0  0  0  0  0  0  0  0  0
  140.7470   73.2890  219.5950 C   0  0  0  0  0  0  0  0  0  0  0  0
  140.4760   73.9250  218.4860 O   0  0  0  0  0  0  0  0  0  0  0  0
  142.0070   73.6140  220.1470 N   0  0  0  0  0  0  0  0  0  0  0  0
  142.9640   72.5650  220.4690 C   0  0  0  0  0  0  0  0  0  0  0  0
  144.4080   72.9000  220.3490 C   0  0  0  0  0  0  0  0  0  0  0  0
  144.7210   74.3370  220.4930 C   0  0  0  0  0  0  0  0  0  0  0  0
  143.7270   75.2090  219.7170 C   0  0  0  0  0  0  0  0  0  0  0  0
  142.4010   74.9710  220.4720 C   0  0  1  0  0  0  0  0  0  0  0  0
  141.4450   76.0600  220.1980 C   0  0  0  0  0  0  0  0  0  0  0  0
  141.7820   77.1970  221.0930 N   0  0  0  0  0  0  0  0  0  0  0  0
  141.8160   78.5240  220.6530 C   0  0  0  0  0  0  0  0  0  0  0  0
  141.5720   78.8900  219.4760 O   0  0  0  0  0  0  0  0  0  0  0  0
  142.1600   79.5870  221.6280 C   0  0  0  0  0  0  0  0  0  0  0  0
  142.2260   79.0580  223.0430 C   0  0  0  0  0  0  0  0  0  0  0  0
  142.1380   80.3360  223.8820 C   0  0  0  0  0  0  0  0  0  0  0  0
  141.2840   81.2830  223.0760 C   0  0  0  0  0  0  0  0  0  0  0  0
  141.0750   80.6350  221.7350 C   0  0  0  0  0  0  0  0  0  0  0  0
  139.9810   71.2640  223.6680 C   0  0  0  0  0  0  0  0  0  0  0  0
  139.4620   69.9930  223.5570 C   0  0  0  0  0  0  0  0  0  0  0  0
  139.4510   69.0840  224.5930 C   0  0  0  0  0  0  0  0  0  0  0  0
  140.0080   69.5260  225.7980 C   0  0  0  0  0  0  0  0  0  0  0  0
  139.9970   68.6110  226.8410 C   0  0  0  0  0  0  0  0  0  0  0  0
  140.5380   69.0210  228.0330 C   0  0  0  0  0  0  0  0  0  0  0  0
  140.5290   68.1250  229.0610 F   0  0  0  0  0  0  0  0  0  0  0  0
  141.0640   70.2810  228.1750 C   0  0  0  0  0  0  0  0  0  0  0  0
  141.0710   71.1960  227.1170 C   0  0  0  0  0  0  0  0  0  0  0  0
  140.5280   70.7920  225.9150 C   0  0  0  0  0  0  0  0  0  0  0  0
  140.5090   71.6390  224.8550 N   0  0  0  0  0  0  0  0  0  0  0  0
  139.6330   70.5650  221.1650 H   0  0  0  0  0  0  0  0  0  0  0  0
  139.5746   71.6776  219.1840 H   0  0  0  0  0  0  0  0  0  0  0  0
  138.9044   73.1069  220.2677 H   0  0  0  0  0  0  0  0  0  0  0  0
  142.7811   72.2586  221.5095 H   0  0  0  0  0  0  0  0  0  0  0  0
  142.7914   71.7834  219.7145 H   0  0  0  0  0  0  0  0  0  0  0  0
  144.9536   72.3502  221.1300 H   0  0  0  0  0  0  0  0  0  0  0  0
  144.7099   72.6162  219.3300 H   0  0  0  0  0  0  0  0  0  0  0  0
  144.6777   74.6073  221.5584 H   0  0  0  0  0  0  0  0  0  0  0  0
  145.7271   74.5137  220.0848 H   0  0  0  0  0  0  0  0  0  0  0  0
  144.0183   76.2691  219.7524 H   0  0  0  0  0  0  0  0  0  0  0  0
  143.6702   74.9582  218.6475 H   0  0  0  0  0  0  0  0  0  0  0  0
  142.4758   75.0239  221.5682 H   0  0  0  0  0  0  0  0  0  0  0  0
  141.5271   76.3742  219.1470 H   0  0  0  0  0  0  0  0  0  0  0  0
  140.4144   75.7209  220.3795 H   0  0  0  0  0  0  0  0  0  0  0  0
  142.0060   76.9920  222.1030 H   0  0  0  0  0  0  0  0  0  0  0  0
  143.1179   79.9822  221.2589 H   0  0  0  0  0  0  0  0  0  0  0  0
  141.3822   78.3849  223.2550 H   0  0  0  0  0  0  0  0  0  0  0  0
  143.1286   78.4628  223.2459 H   0  0  0  0  0  0  0  0  0  0  0  0
  141.6688   80.1269  224.8547 H   0  0  0  0  0  0  0  0  0  0  0  0
  143.1319   80.7579  224.0924 H   0  0  0  0  0  0  0  0  0  0  0  0
  140.3171   81.4417  223.5760 H   0  0  0  0  0  0  0  0  0  0  0  0
  141.7691   82.2647  222.9717 H   0  0  0  0  0  0  0  0  0  0  0  0
  140.0806   80.1675  221.6832 H   0  0  0  0  0  0  0  0  0  0  0  0
  141.1255   81.3646  220.9133 H   0  0  0  0  0  0  0  0  0  0  0  0
  139.0339   69.6874  222.5909 H   0  0  0  0  0  0  0  0  0  0  0  0
  139.0305   68.0739  224.4795 H   0  0  0  0  0  0  0  0  0  0  0  0
  139.5739   67.6031  226.7177 H   0  0  0  0  0  0  0  0  0  0  0  0
  141.4904   70.5784  229.1444 H   0  0  0  0  0  0  0  0  0  0  0  0
  141.4951   72.2035  227.2394 H   0  0  0  0  0  0  0  0  0  0  0  0
  1  2  2  0
  2  3  1  0
  3  4  1  0
  4  5  1  0
  5  6  2  0
  5  7  1  0
  7  8  1  0
  8  9  1  0
  9 10  1  0
 10 11  1  0
 11 12  1  0
 12 13  1  0
 13 14  1  0
 14 15  1  0
 15 16  2  0
 15 17  1  0
 17 18  1  0
 18 19  1  0
 19 20  1  0
 20 21  1  0
  2 22  1  0
 22 23  2  0
 23 24  1  0
 24 25  2  0
 25 26  1  0
 26 27  2  0
 27 28  1  0
 27 29  1  0
 29 30  2  0
 30 31  1  0
 31 32  2  0
 12  7  1  0
 21 17  1  0
 32 22  1  0
 31 25  1  0
  3 33  1  0
  4 34  1  0
  4 35  1  0
  8 36  1  0
  8 37  1  0
  9 38  1  0
  9 39  1  0
 10 40  1  0
 10 41  1  0
 11 42  1  0
 11 43  1  0
 12 44  1  1
 13 45  1  0
 13 46  1  0
 14 47  1  0
 17 48  1  0
 18 49  1  0
 18 50  1  0
 19 51  1  0
 19 52  1  0
 20 53  1  0
 20 54  1  0
 21 55  1  0
 21 56  1  0
 23 57  1  0
 24 58  1  0
 26 59  1  0
 29 60  1  0
 30 61  1  0
M  END
>  <smiles>  (39) 
O=C(NCC(=O)N1CCCC[C@H]1CNC(=O)C1CCCC1)c1ccc2cc(F)ccc2n1

>  <score_type>  (39) 
oracle

>  <origin>  (39) 
autodockgpu

>  <m_score__min__energy>  (39) 
-9.3599999999999994

>  <m_primary>  (39) 
energy

>  <rmsd>  (39) 
3.0197075116598

>  <m_score__min__rmsd>  (39) 
3.0197075116598

>  <meeko>  (39) 
{"free_energy": -9.12, "intermolecular_energy": -11.21, "internal_energy": -1.52, "cluster_size": 37, "cluster_id": 1, "rank_in_cluster": 12}

>  <energy>  (39) 
-7.87

>  <cluster_rmsd>  (39) 
0.71

>  <cluster>  (39) 
2

$$$$

     RDKit          3D

 61 64  0  0  0  0  0  0  0  0999 V2000
  139.7680   71.2450  221.1280 O   0  0  0  0  0  0  0  0  0  0  0  0
  139.6080   71.8180  222.2620 C   0  0  0  0  0  0  0  0  0  0  0  0
  139.3240   73.2350  222.3060 N   0  0  0  0  0  0  0  0  0  0  0  0
  139.2020   74.0540  221.1740 C   0  0  0  0  0  0  0  0  0  0  0  0
  140.2810   74.3490  220.2680 C   0  0  0  0  0  0  0  0  0  0  0  0
  139.8830   74.5830  219.0440 O   0  0  0  0  0  0  0  0  0  0  0  0
  141.6810   74.4340  220.4390 N   0  0  0  0  0  0  0  0  0  0  0  0
  142.4440   73.2680  220.8610 C   0  0  0  0  0  0  0  0  0  0  0  0
  143.8420   73.1520  220.3660 C   0  0  0  0  0  0  0  0  0  0  0  0
  144.4790   74.4380  220.0140 C   0  0  0  0  0  0  0  0  0  0  0  0
  143.5230   75.3420  219.2270 C   0  0  0  0  0  0  0  0  0  0  0  0
  142.4260   75.6660  220.2650 C   0  0  1  0  0  0  0  0  0  0  0  0
  141.6850   76.8800  219.8760 C   0  0  0  0  0  0  0  0  0  0  0  0
  141.8560   77.8830  220.9590 N   0  0  0  0  0  0  0  0  0  0  0  0
  141.1090   77.8570  222.1410 C   0  0  0  0  0  0  0  0  0  0  0  0
  140.2290   77.0010  222.4080 O   0  0  0  0  0  0  0  0  0  0  0  0
  141.3590   78.9040  223.1610 C   0  0  0  0  0  0  0  0  0  0  0  0
  140.5270   80.1420  222.9170 C   0  0  0  0  0  0  0  0  0  0  0  0
  141.2460   81.2000  223.7610 C   0  0  0  0  0  0  0  0  0  0  0  0
  142.7010   80.8030  223.7400 C   0  0  0  0  0  0  0  0  0  0  0  0
  142.7670   79.4510  223.0840 C   0  0  0  0  0  0  0  0  0  0  0  0
  139.7130   71.0410  223.4930 C   0  0  0  0  0  0  0  0  0  0  0  0
  139.2290   69.7510  223.5130 C   0  0  0  0  0  0  0  0  0  0  0  0
  139.2820   68.9380  224.6260 C   0  0  0  0  0  0  0  0  0  0  0  0
  139.8670   69.5000  225.7650 C   0  0  0  0  0  0  0  0  0  0  0  0
  139.9190   68.6830  226.8850 C   0  0  0  0  0  0  0  0  0  0  0  0
  140.4880   69.2120  228.0160 C   0  0  0  0  0  0  0  0  0  0  0  0
  140.5420   68.4120  229.1190 F   0  0  0  0  0  0  0  0  0  0  0  0
  140.9790   70.4940  228.0260 C   0  0  0  0  0  0  0  0  0  0  0  0
  140.9210   71.3110  226.8930 C   0  0  0  0  0  0  0  0  0  0  0  0
  140.3500   70.7860  225.7520 C   0  0  0  0  0  0  0  0  0  0  0  0
  140.2680   71.5350  224.6220 N   0  0  0  0  0  0  0  0  0  0  0  0
  139.2140   73.6070  223.2890 H   0  0  0  0  0  0  0  0  0  0  0  0
  138.4145   73.5947  220.5585 H   0  0  0  0  0  0  0  0  0  0  0  0
  139.0531   75.0368  221.6451 H   0  0  0  0  0  0  0  0  0  0  0  0
  142.4825   73.2784  221.9603 H   0  0  0  0  0  0  0  0  0  0  0  0
  141.9159   72.4099  220.4195 H   0  0  0  0  0  0  0  0  0  0  0  0
  144.4455   72.6739  221.1516 H   0  0  0  0  0  0  0  0  0  0  0  0
  143.7962   72.5628  219.4383 H   0  0  0  0  0  0  0  0  0  0  0  0
  144.7784   74.9534  220.9385 H   0  0  0  0  0  0  0  0  0  0  0  0
  145.3542   74.2279  219.3816 H   0  0  0  0  0  0  0  0  0  0  0  0
  144.0312   76.2571  218.8889 H   0  0  0  0  0  0  0  0  0  0  0  0
  143.1321   74.8713  218.3128 H   0  0  0  0  0  0  0  0  0  0  0  0
  142.7989   75.9535  221.2591 H   0  0  0  0  0  0  0  0  0  0  0  0
  142.0861   77.2768  218.9317 H   0  0  0  0  0  0  0  0  0  0  0  0
  140.6193   76.6496  219.7304 H   0  0  0  0  0  0  0  0  0  0  0  0
  142.5710   78.6470  220.8270 H   0  0  0  0  0  0  0  0  0  0  0  0
  141.1348   78.4016  224.1136 H   0  0  0  0  0  0  0  0  0  0  0  0
  140.5268   80.4167  221.8519 H   0  0  0  0  0  0  0  0  0  0  0  0
  139.4672   80.0162  223.1833 H   0  0  0  0  0  0  0  0  0  0  0  0
  141.1128   82.1995  223.3215 H   0  0  0  0  0  0  0  0  0  0  0  0
  140.8482   81.2477  224.7855 H   0  0  0  0  0  0  0  0  0  0  0  0
  143.2858   81.5342  223.1626 H   0  0  0  0  0  0  0  0  0  0  0  0
  143.1189   80.7718  224.7571 H   0  0  0  0  0  0  0  0  0  0  0  0
  143.0872   79.5460  222.0359 H   0  0  0  0  0  0  0  0  0  0  0  0
  143.4930   78.7889  223.5786 H   0  0  0  0  0  0  0  0  0  0  0  0
  138.7772   69.3489  222.5942 H   0  0  0  0  0  0  0  0  0  0  0  0
  138.8883   67.9109  224.6181 H   0  0  0  0  0  0  0  0  0  0  0  0
  139.5220   67.6573  226.8672 H   0  0  0  0  0  0  0  0  0  0  0  0
  141.4294   70.8884  228.9488 H   0  0  0  0  0  0  0  0  0  0  0  0
  141.3170   72.3371  226.9106 H   0  0  0  0  0  0  0  0  0  0  0  0
  1  2  2  0
  2  3  1  0
  3  4  1  0
  4  5  1  0
  5  6  2  0
  5  7  1  0
  7  8  1  0
  8  9  1  0
  9 10  1  0
 10 11  1  0
 11 12  1  0
 12 13  1  0
 13 14  1  0
 14 15  1  0
 15 16  2  0
 15 17  1  0
 17 18  1  0
 18 19  1  0
 19 20  1  0
 20 21  1  0
  2 22  1  0
 22 23  2  0
 23 24  1  0
 24 25  2  0
 25 26  1  0
 26 27  2  0
 27 28  1  0
 27 29  1  0
 29 30  2  0
 30 31  1  0
 31 32  2  0
 12  7  1  0
 21 17  1  0
 32 22  1  0
 31 25  1  0
  3 33  1  0
  4 34  1  0
  4 35  1  0
  8 36  1  0
  8 37  1  0
  9 38  1  0
  9 39  1  0
 10 40  1  0
 10 41  1  0
 11 42  1  0
 11 43  1  0
 12 44  1  1
 13 45  1  0
 13 46  1  0
 14 47  1  0
 17 48  1  0
 18 49  1  0
 18 50  1  0
 19 51  1  0
 19 52  1  0
 20 53  1  0
 20 54  1  0
 21 55  1  0
 21 56  1  0
 23 57  1  0
 24 58  1  0
 26 59  1  0
 29 60  1  0
 30 61  1  0
M  END
>  <smiles>  (40) 
O=C(NCC(=O)N1CCCC[C@H]1CNC(=O)C1CCCC1)c1ccc2cc(F)ccc2n1

>  <score_type>  (40) 
oracle

>  <origin>  (40) 
autodockgpu

>  <m_score__min__energy>  (40) 
-9.3599999999999994

>  <m_primary>  (40) 
energy

>  <rmsd>  (40) 
2.6511809781749927

>  <m_score__min__rmsd>  (40) 
2.6511809781749927

>  <meeko>  (40) 
{"free_energy": -9.35, "intermolecular_energy": -11.44, "internal_energy": -1.92, "cluster_size": 37, "cluster_id": 1, "rank_in_cluster": 3}

>  <energy>  (40) 
-7.42

>  <cluster_rmsd>  (40) 
1.75

>  <cluster>  (40) 
2

$$$$

     RDKit          3D

 61 64  0  0  0  0  0  0  0  0999 V2000
  139.9090   71.5310  221.0470 O   0  0  0  0  0  0  0  0  0  0  0  0
  139.8110   72.1340  222.1710 C   0  0  0  0  0  0  0  0  0  0  0  0
  139.6420   73.5700  222.1920 N   0  0  0  0  0  0  0  0  0  0  0  0
  139.5700   74.3770  221.0470 C   0  0  0  0  0  0  0  0  0  0  0  0
  140.6920   74.6770  220.1970 C   0  0  0  0  0  0  0  0  0  0  0  0
  140.3700   75.3690  219.1350 O   0  0  0  0  0  0  0  0  0  0  0  0
  142.0690   74.3720  220.2830 N   0  0  0  0  0  0  0  0  0  0  0  0
  142.5100   73.1060  220.8510 C   0  0  0  0  0  0  0  0  0  0  0  0
  143.7650   72.5170  220.3130 C   0  0  0  0  0  0  0  0  0  0  0  0
  144.7020   73.4970  219.7250 C   0  0  0  0  0  0  0  0  0  0  0  0
  143.9700   74.5200  218.8500 C   0  0  0  0  0  0  0  0  0  0  0  0
  143.1110   75.2940  219.8730 C   0  0  1  0  0  0  0  0  0  0  0  0
  142.7080   76.6030  219.3280 C   0  0  0  0  0  0  0  0  0  0  0  0
  142.4800   77.5210  220.4750 N   0  0  0  0  0  0  0  0  0  0  0  0
  141.2730   78.2000  220.6730 C   0  0  0  0  0  0  0  0  0  0  0  0
  140.2730   78.1090  219.9180 O   0  0  0  0  0  0  0  0  0  0  0  0
  141.1450   79.0910  221.8520 C   0  0  0  0  0  0  0  0  0  0  0  0
  142.2150   80.1590  221.8710 C   0  0  0  0  0  0  0  0  0  0  0  0
  142.1790   80.6420  223.3250 C   0  0  0  0  0  0  0  0  0  0  0  0
  141.7850   79.4320  224.1360 C   0  0  0  0  0  0  0  0  0  0  0  0
  141.4060   78.3610  223.1500 C   0  0  0  0  0  0  0  0  0  0  0  0
  139.8700   71.3730  223.4150 C   0  0  0  0  0  0  0  0  0  0  0  0
  139.3630   70.0920  223.4410 C   0  0  0  0  0  0  0  0  0  0  0  0
  139.3720   69.2940  224.5650 C   0  0  0  0  0  0  0  0  0  0  0  0
  139.9370   69.8630  225.7120 C   0  0  0  0  0  0  0  0  0  0  0  0
  139.9460   69.0600  226.8440 C   0  0  0  0  0  0  0  0  0  0  0  0
  140.4950   69.5960  227.9810 C   0  0  0  0  0  0  0  0  0  0  0  0
  140.5070   68.8110  229.0960 F   0  0  0  0  0  0  0  0  0  0  0  0
  141.0090   70.8690  227.9870 C   0  0  0  0  0  0  0  0  0  0  0  0
  140.9950   71.6710  226.8410 C   0  0  0  0  0  0  0  0  0  0  0  0
  140.4440   71.1390  225.6930 C   0  0  0  0  0  0  0  0  0  0  0  0
  140.4050   71.8730  224.5520 N   0  0  0  0  0  0  0  0  0  0  0  0
  139.5750   73.9670  223.1700 H   0  0  0  0  0  0  0  0  0  0  0  0
  138.8220   73.9020  220.3952 H   0  0  0  0  0  0  0  0  0  0  0  0
  139.3839   75.3622  221.4995 H   0  0  0  0  0  0  0  0  0  0  0  0
  142.6539   73.2606  221.9305 H   0  0  0  0  0  0  0  0  0  0  0  0
  141.7226   72.3865  220.5820 H   0  0  0  0  0  0  0  0  0  0  0  0
  144.2811   71.9995  221.1351 H   0  0  0  0  0  0  0  0  0  0  0  0
  143.4677   71.8417  219.4972 H   0  0  0  0  0  0  0  0  0  0  0  0
  145.2204   74.0275  220.5373 H   0  0  0  0  0  0  0  0  0  0  0  0
  145.4185   72.9524  219.0926 H   0  0  0  0  0  0  0  0  0  0  0  0
  144.6813   75.1889  218.3434 H   0  0  0  0  0  0  0  0  0  0  0  0
  143.3785   74.0598  218.0448 H   0  0  0  0  0  0  0  0  0  0  0  0
  143.6419   75.5976  220.7873 H   0  0  0  0  0  0  0  0  0  0  0  0
  143.5047   77.0011  218.6825 H   0  0  0  0  0  0  0  0  0  0  0  0
  141.7922   76.5039  218.7267 H   0  0  0  0  0  0  0  0  0  0  0  0
  143.2620   77.6670  221.1660 H   0  0  0  0  0  0  0  0  0  0  0  0
  140.1230   79.4897  221.7714 H   0  0  0  0  0  0  0  0  0  0  0  0
  143.1994   79.7395  221.6161 H   0  0  0  0  0  0  0  0  0  0  0  0
  142.0448   80.9620  221.1388 H   0  0  0  0  0  0  0  0  0  0  0  0
  143.1693   81.0076  223.6343 H   0  0  0  0  0  0  0  0  0  0  0  0
  141.4749   81.4758  223.4632 H   0  0  0  0  0  0  0  0  0  0  0  0
  142.6310   79.0971  224.7542 H   0  0  0  0  0  0  0  0  0  0  0  0
  140.9495   79.6624  224.8134 H   0  0  0  0  0  0  0  0  0  0  0  0
  142.2280   77.6402  223.0285 H   0  0  0  0  0  0  0  0  0  0  0  0
  140.5281   77.7879  223.4829 H   0  0  0  0  0  0  0  0  0  0  0  0
  138.9283   69.6848  222.5162 H   0  0  0  0  0  0  0  0  0  0  0  0
  138.9608   68.2738  224.5607 H   0  0  0  0  0  0  0  0  0  0  0  0
  139.5321   68.0410  226.8300 H   0  0  0  0  0  0  0  0  0  0  0  0
  141.4425   71.2681  228.9158 H   0  0  0  0  0  0  0  0  0  0  0  0
  141.4087   72.6901  226.8544 H   0  0  0  0  0  0  0  0  0  0  0  0
  1  2  2  0
  2  3  1  0
  3  4  1  0
  4  5  1  0
  5  6  2  0
  5  7  1  0
  7  8  1  0
  8  9  1  0
  9 10  1  0
 10 11  1  0
 11 12  1  0
 12 13  1  0
 13 14  1  0
 14 15  1  0
 15 16  2  0
 15 17  1  0
 17 18  1  0
 18 19  1  0
 19 20  1  0
 20 21  1  0
  2 22  1  0
 22 23  2  0
 23 24  1  0
 24 25  2  0
 25 26  1  0
 26 27  2  0
 27 28  1  0
 27 29  1  0
 29 30  2  0
 30 31  1  0
 31 32  2  0
 12  7  1  0
 21 17  1  0
 32 22  1  0
 31 25  1  0
  3 33  1  0
  4 34  1  0
  4 35  1  0
  8 36  1  0
  8 37  1  0
  9 38  1  0
  9 39  1  0
 10 40  1  0
 10 41  1  0
 11 42  1  0
 11 43  1  0
 12 44  1  1
 13 45  1  0
 13 46  1  0
 14 47  1  0
 17 48  1  0
 18 49  1  0
 18 50  1  0
 19 51  1  0
 19 52  1  0
 20 53  1  0
 20 54  1  0
 21 55  1  0
 21 56  1  0
 23 57  1  0
 24 58  1  0
 26 59  1  0
 29 60  1  0
 30 61  1  0
M  END
>  <smiles>  (41) 
O=C(NCC(=O)N1CCCC[C@H]1CNC(=O)C1CCCC1)c1ccc2cc(F)ccc2n1

>  <score_type>  (41) 
oracle

>  <origin>  (41) 
autodockgpu

>  <m_score__min__energy>  (41) 
-9.3599999999999994

>  <m_primary>  (41) 
energy

>  <rmsd>  (41) 
3.125770216123011

>  <m_score__min__rmsd>  (41) 
3.125770216123011

>  <meeko>  (41) 
{"free_energy": -9.1, "intermolecular_energy": -11.18, "internal_energy": -1.78, "cluster_size": 37, "cluster_id": 1, "rank_in_cluster": 13}

>  <energy>  (41) 
-7.12

>  <cluster_rmsd>  (41) 
1.68

>  <cluster>  (41) 
2

$$$$

     RDKit          3D

 61 64  0  0  0  0  0  0  0  0999 V2000
  140.7050   72.9930  222.8730 O   0  0  0  0  0  0  0  0  0  0  0  0
  140.2210   71.8250  223.0670 C   0  0  0  0  0  0  0  0  0  0  0  0
  139.4910   71.1740  222.0010 N   0  0  0  0  0  0  0  0  0  0  0  0
  139.2700   71.7360  220.7340 C   0  0  0  0  0  0  0  0  0  0  0  0
  139.7840   73.0130  220.3140 C   0  0  0  0  0  0  0  0  0  0  0  0
  138.8640   73.8150  219.8450 O   0  0  0  0  0  0  0  0  0  0  0  0
  141.0830   73.5680  220.3070 N   0  0  0  0  0  0  0  0  0  0  0  0
  142.1890   72.8490  219.6910 C   0  0  0  0  0  0  0  0  0  0  0  0
  143.2720   73.6610  219.0740 C   0  0  0  0  0  0  0  0  0  0  0  0
  143.4180   75.0200  219.6360 C   0  0  0  0  0  0  0  0  0  0  0  0
  142.0570   75.6940  219.8380 C   0  0  0  0  0  0  0  0  0  0  0  0
  141.4080   74.8310  220.9420 C   0  0  1  0  0  0  0  0  0  0  0  0
  140.3230   75.5730  221.6110 C   0  0  0  0  0  0  0  0  0  0  0  0
  140.8810   76.8690  222.0790 N   0  0  0  0  0  0  0  0  0  0  0  0
  140.0840   77.8920  222.6020 C   0  0  0  0  0  0  0  0  0  0  0  0
  138.8360   77.8280  222.7280 O   0  0  0  0  0  0  0  0  0  0  0  0
  140.7390   79.1470  223.0440 C   0  0  0  0  0  0  0  0  0  0  0  0
  141.0610   80.0580  221.8810 C   0  0  0  0  0  0  0  0  0  0  0  0
  142.0900   81.0190  222.4840 C   0  0  0  0  0  0  0  0  0  0  0  0
  142.8360   80.2080  223.5140 C   0  0  0  0  0  0  0  0  0  0  0  0
  142.1090   78.8970  223.6350 C   0  0  0  0  0  0  0  0  0  0  0  0
  140.4070   71.1610  224.3530 C   0  0  0  0  0  0  0  0  0  0  0  0
  140.9150   71.8830  225.4110 C   0  0  0  0  0  0  0  0  0  0  0  0
  141.1280   71.3480  226.6640 C   0  0  0  0  0  0  0  0  0  0  0  0
  140.7930   69.9980  226.8150 C   0  0  0  0  0  0  0  0  0  0  0  0
  141.0070   69.4580  228.0750 C   0  0  0  0  0  0  0  0  0  0  0  0
  140.6870   68.1360  228.2480 C   0  0  0  0  0  0  0  0  0  0  0  0
  140.8950   67.6010  229.4850 F   0  0  0  0  0  0  0  0  0  0  0  0
  140.1780   67.3900  227.2130 C   0  0  0  0  0  0  0  0  0  0  0  0
  139.9670   67.9430  225.9460 C   0  0  0  0  0  0  0  0  0  0  0  0
  140.2870   69.2720  225.7640 C   0  0  0  0  0  0  0  0  0  0  0  0
  140.1000   69.8600  224.5540 N   0  0  0  0  0  0  0  0  0  0  0  0
  139.1320   70.2160  222.2660 H   0  0  0  0  0  0  0  0  0  0  0  0
  139.6638   71.0053  220.0122 H   0  0  0  0  0  0  0  0  0  0  0  0
  138.1934   71.9548  220.7899 H   0  0  0  0  0  0  0  0  0  0  0  0
  142.6488   72.2213  220.4685 H   0  0  0  0  0  0  0  0  0  0  0  0
  141.7361   72.2992  218.8528 H   0  0  0  0  0  0  0  0  0  0  0  0
  144.2236   73.1274  219.2148 H   0  0  0  0  0  0  0  0  0  0  0  0
  143.0015   73.7887  218.0154 H   0  0  0  0  0  0  0  0  0  0  0  0
  143.9307   74.9520  220.6069 H   0  0  0  0  0  0  0  0  0  0  0  0
  144.0009   75.6258  218.9266 H   0  0  0  0  0  0  0  0  0  0  0  0
  142.1763   76.7363  220.1687 H   0  0  0  0  0  0  0  0  0  0  0  0
  141.4567   75.7473  218.9178 H   0  0  0  0  0  0  0  0  0  0  0  0
  142.0648   74.5982  221.7931 H   0  0  0  0  0  0  0  0  0  0  0  0
  139.5009   75.7534  220.9028 H   0  0  0  0  0  0  0  0  0  0  0  0
  139.9286   74.9952  222.4599 H   0  0  0  0  0  0  0  0  0  0  0  0
  141.9220   77.0220  222.0110 H   0  0  0  0  0  0  0  0  0  0  0  0
  140.0236   79.5793  223.7591 H   0  0  0  0  0  0  0  0  0  0  0  0
  141.4904   79.4926  221.0408 H   0  0  0  0  0  0  0  0  0  0  0  0
  140.1782   80.5664  221.4661 H   0  0  0  0  0  0  0  0  0  0  0  0
  142.7788   81.3829  221.7074 H   0  0  0  0  0  0  0  0  0  0  0  0
  141.6129   81.9056  222.9270 H   0  0  0  0  0  0  0  0  0  0  0  0
  143.8724   80.0388  223.1864 H   0  0  0  0  0  0  0  0  0  0  0  0
  142.8744   80.7318  224.4805 H   0  0  0  0  0  0  0  0  0  0  0  0
  142.6343   78.1113  223.0722 H   0  0  0  0  0  0  0  0  0  0  0  0
  142.0502   78.5543  224.6786 H   0  0  0  0  0  0  0  0  0  0  0  0
  141.1637   72.9420  225.2475 H   0  0  0  0  0  0  0  0  0  0  0  0
  141.5358   71.9452  227.4929 H   0  0  0  0  0  0  0  0  0  0  0  0
  141.4150   70.0631  228.8980 H   0  0  0  0  0  0  0  0  0  0  0  0
  139.9304   66.3321  227.3849 H   0  0  0  0  0  0  0  0  0  0  0  0
  139.5595   67.3383  225.1224 H   0  0  0  0  0  0  0  0  0  0  0  0
  1  2  2  0
  2  3  1  0
  3  4  1  0
  4  5  1  0
  5  6  2  0
  5  7  1  0
  7  8  1  0
  8  9  1  0
  9 10  1  0
 10 11  1  0
 11 12  1  0
 12 13  1  0
 13 14  1  0
 14 15  1  0
 15 16  2  0
 15 17  1  0
 17 18  1  0
 18 19  1  0
 19 20  1  0
 20 21  1  0
  2 22  1  0
 22 23  2  0
 23 24  1  0
 24 25  2  0
 25 26  1  0
 26 27  2  0
 27 28  1  0
 27 29  1  0
 29 30  2  0
 30 31  1  0
 31 32  2  0
 12  7  1  0
 21 17  1  0
 32 22  1  0
 31 25  1  0
  3 33  1  0
  4 34  1  0
  4 35  1  0
  8 36  1  0
  8 37  1  0
  9 38  1  0
  9 39  1  0
 10 40  1  0
 10 41  1  0
 11 42  1  0
 11 43  1  0
 12 44  1  1
 13 45  1  0
 13 46  1  0
 14 47  1  0
 17 48  1  0
 18 49  1  0
 18 50  1  0
 19 51  1  0
 19 52  1  0
 20 53  1  0
 20 54  1  0
 21 55  1  0
 21 56  1  0
 23 57  1  0
 24 58  1  0
 26 59  1  0
 29 60  1  0
 30 61  1  0
M  END
>  <smiles>  (42) 
O=C(NCC(=O)N1CCCC[C@H]1CNC(=O)C1CCCC1)c1ccc2cc(F)ccc2n1

>  <score_type>  (42) 
oracle

>  <origin>  (42) 
autodockgpu

>  <m_score__min__energy>  (42) 
-9.3599999999999994

>  <m_primary>  (42) 
energy

>  <rmsd>  (42) 
3.393539019694493

>  <m_score__min__rmsd>  (42) 
3.393539019694493

>  <meeko>  (42) 
{"free_energy": -8.87, "intermolecular_energy": -10.95, "internal_energy": -1.63, "cluster_size": 37, "cluster_id": 1, "rank_in_cluster": 21}

>  <energy>  (42) 
-7.11

>  <cluster_rmsd>  (42) 
1.39

>  <cluster>  (42) 
2

$$$$

     RDKit          3D

 61 64  0  0  0  0  0  0  0  0999 V2000
  141.0410   71.7620  221.2750 O   0  0  0  0  0  0  0  0  0  0  0  0
  140.4630   72.2910  222.2870 C   0  0  0  0  0  0  0  0  0  0  0  0
  140.0120   73.6630  222.2070 N   0  0  0  0  0  0  0  0  0  0  0  0
  140.1560   74.4810  221.0770 C   0  0  0  0  0  0  0  0  0  0  0  0
  141.3930   75.1030  220.6810 C   0  0  0  0  0  0  0  0  0  0  0  0
  142.3820   74.2570  220.5510 O   0  0  0  0  0  0  0  0  0  0  0  0
  141.7480   76.4430  220.4080 N   0  0  0  0  0  0  0  0  0  0  0  0
  142.5080   76.7760  219.2120 C   0  0  0  0  0  0  0  0  0  0  0  0
  142.2580   78.1060  218.5940 C   0  0  0  0  0  0  0  0  0  0  0  0
  141.7480   79.1320  219.5260 C   0  0  0  0  0  0  0  0  0  0  0  0
  140.6600   78.5650  220.4450 C   0  0  0  0  0  0  0  0  0  0  0  0
  141.4360   77.5420  221.3030 C   0  0  1  0  0  0  0  0  0  0  0  0
  140.7010   77.2420  222.5450 C   0  0  0  0  0  0  0  0  0  0  0  0
  139.5270   78.1510  222.6100 N   0  0  0  0  0  0  0  0  0  0  0  0
  139.5480   79.3680  223.2990 C   0  0  0  0  0  0  0  0  0  0  0  0
  140.5410   79.8130  223.9270 O   0  0  0  0  0  0  0  0  0  0  0  0
  138.3240   80.2050  223.2990 C   0  0  0  0  0  0  0  0  0  0  0  0
  138.5180   81.4920  222.5310 C   0  0  0  0  0  0  0  0  0  0  0  0
  137.3560   82.3580  223.0290 C   0  0  0  0  0  0  0  0  0  0  0  0
  137.1220   81.9260  224.4550 C   0  0  0  0  0  0  0  0  0  0  0  0
  137.9820   80.7130  224.6830 C   0  0  0  0  0  0  0  0  0  0  0  0
  140.2650   71.5120  223.5050 C   0  0  0  0  0  0  0  0  0  0  0  0
  139.5940   70.3110  223.4290 C   0  0  0  0  0  0  0  0  0  0  0  0
  139.3570   69.5040  224.5210 C   0  0  0  0  0  0  0  0  0  0  0  0
  139.8450   69.9740  225.7450 C   0  0  0  0  0  0  0  0  0  0  0  0
  139.6070   69.1620  226.8450 C   0  0  0  0  0  0  0  0  0  0  0  0
  140.0750   69.6020  228.0560 C   0  0  0  0  0  0  0  0  0  0  0  0
  139.8440   68.8070  229.1400 F   0  0  0  0  0  0  0  0  0  0  0  0
  140.7490   70.7940  228.1630 C   0  0  0  0  0  0  0  0  0  0  0  0
  140.9840   71.6060  227.0490 C   0  0  0  0  0  0  0  0  0  0  0  0
  140.5150   71.1700  225.8270 C   0  0  0  0  0  0  0  0  0  0  0  0
  140.7160   71.9190  224.7130 N   0  0  0  0  0  0  0  0  0  0  0  0
  139.5520   74.0020  223.0970 H   0  0  0  0  0  0  0  0  0  0  0  0
  139.8467   73.8630  220.2212 H   0  0  0  0  0  0  0  0  0  0  0  0
  139.5701   75.3606  221.3819 H   0  0  0  0  0  0  0  0  0  0  0  0
  143.5751   76.7288  219.4746 H   0  0  0  0  0  0  0  0  0  0  0  0
  142.1800   76.0469  218.4564 H   0  0  0  0  0  0  0  0  0  0  0  0
  143.2048   78.4697  218.1683 H   0  0  0  0  0  0  0  0  0  0  0  0
  141.4738   77.9553  217.8374 H   0  0  0  0  0  0  0  0  0  0  0  0
  142.5809   79.5001  220.1430 H   0  0  0  0  0  0  0  0  0  0  0  0
  141.3087   79.9484  218.9339 H   0  0  0  0  0  0  0  0  0  0  0  0
  140.2195   79.3545  221.0716 H   0  0  0  0  0  0  0  0  0  0  0  0
  139.8148   78.1223  219.8977 H   0  0  0  0  0  0  0  0  0  0  0  0
  142.3935   77.9054  221.7045 H   0  0  0  0  0  0  0  0  0  0  0  0
  140.3634   76.1951  222.5363 H   0  0  0  0  0  0  0  0  0  0  0  0
  141.3502   77.3902  223.4206 H   0  0  0  0  0  0  0  0  0  0  0  0
  138.6410   77.8650  222.1150 H   0  0  0  0  0  0  0  0  0  0  0  0
  137.5546   79.5466  222.8695 H   0  0  0  0  0  0  0  0  0  0  0  0
  139.4876   81.9539  222.7689 H   0  0  0  0  0  0  0  0  0  0  0  0
  138.5234   81.3533  221.4398 H   0  0  0  0  0  0  0  0  0  0  0  0
  137.6245   83.4239  222.9882 H   0  0  0  0  0  0  0  0  0  0  0  0
  136.4559   82.2332  222.4092 H   0  0  0  0  0  0  0  0  0  0  0  0
  137.4096   82.7308  225.1475 H   0  0  0  0  0  0  0  0  0  0  0  0
  136.0603   81.6986  224.6316 H   0  0  0  0  0  0  0  0  0  0  0  0
  138.8961   80.9854  225.2310 H   0  0  0  0  0  0  0  0  0  0  0  0
  137.4669   79.9505  225.2858 H   0  0  0  0  0  0  0  0  0  0  0  0
  139.2285   69.9790  222.4460 H   0  0  0  0  0  0  0  0  0  0  0  0
  138.8174   68.5493  224.4353 H   0  0  0  0  0  0  0  0  0  0  0  0
  139.0672   68.2084  226.7494 H   0  0  0  0  0  0  0  0  0  0  0  0
  141.1129   71.1179  229.1492 H   0  0  0  0  0  0  0  0  0  0  0  0
  141.5242   72.5595  227.1438 H   0  0  0  0  0  0  0  0  0  0  0  0
  1  2  2  0
  2  3  1  0
  3  4  1  0
  4  5  1  0
  5  6  2  0
  5  7  1  0
  7  8  1  0
  8  9  1  0
  9 10  1  0
 10 11  1  0
 11 12  1  0
 12 13  1  0
 13 14  1  0
 14 15  1  0
 15 16  2  0
 15 17  1  0
 17 18  1  0
 18 19  1  0
 19 20  1  0
 20 21  1  0
  2 22  1  0
 22 23  2  0
 23 24  1  0
 24 25  2  0
 25 26  1  0
 26 27  2  0
 27 28  1  0
 27 29  1  0
 29 30  2  0
 30 31  1  0
 31 32  2  0
 12  7  1  0
 21 17  1  0
 32 22  1  0
 31 25  1  0
  3 33  1  0
  4 34  1  0
  4 35  1  0
  8 36  1  0
  8 37  1  0
  9 38  1  0
  9 39  1  0
 10 40  1  0
 10 41  1  0
 11 42  1  0
 11 43  1  0
 12 44  1  1
 13 45  1  0
 13 46  1  0
 14 47  1  0
 17 48  1  0
 18 49  1  0
 18 50  1  0
 19 51  1  0
 19 52  1  0
 20 53  1  0
 20 54  1  0
 21 55  1  0
 21 56  1  0
 23 57  1  0
 24 58  1  0
 26 59  1  0
 29 60  1  0
 30 61  1  0
M  END
>  <smiles>  (43) 
O=C(NCC(=O)N1CCCC[C@H]1CNC(=O)C1CCCC1)c1ccc2cc(F)ccc2n1

>  <score_type>  (43) 
oracle

>  <origin>  (43) 
autodockgpu

>  <m_score__min__energy>  (43) 
-9.3599999999999994

>  <m_primary>  (43) 
energy

>  <rmsd>  (43) 
2.7534376491880606

>  <m_score__min__rmsd>  (43) 
2.7534376491880606

>  <meeko>  (43) 
{"free_energy": -7.98, "intermolecular_energy": -10.06, "internal_energy": -1.39, "cluster_size": 1, "cluster_id": 4, "rank_in_cluster": 1}

>  <energy>  (43) 
-7.99

>  <cluster_rmsd>  (43) 
0.0

>  <cluster>  (43) 
3

$$$$

     RDKit          3D

 61 64  0  0  0  0  0  0  0  0999 V2000
  140.3900   72.9750  222.5770 O   0  0  0  0  0  0  0  0  0  0  0  0
  139.7940   71.8770  222.8600 C   0  0  0  0  0  0  0  0  0  0  0  0
  138.8930   71.2910  221.8930 N   0  0  0  0  0  0  0  0  0  0  0  0
  138.6140   71.8420  220.6330 C   0  0  0  0  0  0  0  0  0  0  0  0
  138.7220   73.2430  220.3210 C   0  0  0  0  0  0  0  0  0  0  0  0
  139.3530   73.4780  219.1990 O   0  0  0  0  0  0  0  0  0  0  0  0
  138.2840   74.4110  220.9850 N   0  0  0  0  0  0  0  0  0  0  0  0
  136.9190   74.5100  221.4800 C   0  0  0  0  0  0  0  0  0  0  0  0
  136.6940   75.3230  222.7050 C   0  0  0  0  0  0  0  0  0  0  0  0
  137.7060   76.3750  222.9390 C   0  0  0  0  0  0  0  0  0  0  0  0
  139.1260   75.8550  222.6860 C   0  0  0  0  0  0  0  0  0  0  0  0
  139.1240   75.5800  221.1670 C   0  0  1  0  0  0  0  0  0  0  0  0
  140.5020   75.5350  220.6460 C   0  0  0  0  0  0  0  0  0  0  0  0
  141.2750   76.6170  221.3110 N   0  0  0  0  0  0  0  0  0  0  0  0
  141.0040   77.9740  221.1120 C   0  0  0  0  0  0  0  0  0  0  0  0
  140.0970   78.4170  220.3630 O   0  0  0  0  0  0  0  0  0  0  0  0
  141.8320   78.9760  221.8260 C   0  0  0  0  0  0  0  0  0  0  0  0
  141.7450   78.8150  223.3270 C   0  0  0  0  0  0  0  0  0  0  0  0
  142.2690   80.1610  223.8380 C   0  0  0  0  0  0  0  0  0  0  0  0
  141.8640   81.1690  222.7910 C   0  0  0  0  0  0  0  0  0  0  0  0
  141.3160   80.3850  221.6310 C   0  0  0  0  0  0  0  0  0  0  0  0
  140.0290   71.2300  224.1470 C   0  0  0  0  0  0  0  0  0  0  0  0
  140.7600   71.8950  225.1070 C   0  0  0  0  0  0  0  0  0  0  0  0
  141.0350   71.3690  226.3510 C   0  0  0  0  0  0  0  0  0  0  0  0
  140.5220   70.0920  226.6010 C   0  0  0  0  0  0  0  0  0  0  0  0
  140.7990   69.5620  227.8530 C   0  0  0  0  0  0  0  0  0  0  0  0
  140.3060   68.3100  228.1210 C   0  0  0  0  0  0  0  0  0  0  0  0
  140.5750   67.7860  229.3510 F   0  0  0  0  0  0  0  0  0  0  0  0
  139.5730   67.6230  227.1850 C   0  0  0  0  0  0  0  0  0  0  0  0
  139.3000   68.1650  225.9250 C   0  0  0  0  0  0  0  0  0  0  0  0
  139.7920   69.4240  225.6480 C   0  0  0  0  0  0  0  0  0  0  0  0
  139.5560   69.9980  224.4410 N   0  0  0  0  0  0  0  0  0  0  0  0
  138.4530   70.3900  222.2270 H   0  0  0  0  0  0  0  0  0  0  0  0
  139.2847   71.3281  219.9287 H   0  0  0  0  0  0  0  0  0  0  0  0
  137.5241   71.7020  220.5825 H   0  0  0  0  0  0  0  0  0  0  0  0
  136.3073   74.9467  220.6768 H   0  0  0  0  0  0  0  0  0  0  0  0
  136.6488   73.4837  221.7691 H   0  0  0  0  0  0  0  0  0  0  0  0
  135.7096   75.8065  222.6201 H   0  0  0  0  0  0  0  0  0  0  0  0
  136.7618   74.6298  223.5564 H   0  0  0  0  0  0  0  0  0  0  0  0
  137.5081   77.2184  222.2611 H   0  0  0  0  0  0  0  0  0  0  0  0
  137.6369   76.6927  223.9899 H   0  0  0  0  0  0  0  0  0  0  0  0
  139.8784   76.6126  222.9505 H   0  0  0  0  0  0  0  0  0  0  0  0
  139.3795   74.9702  223.2884 H   0  0  0  0  0  0  0  0  0  0  0  0
  138.6888   76.3814  220.5519 H   0  0  0  0  0  0  0  0  0  0  0  0
  140.9555   74.5585  220.8712 H   0  0  0  0  0  0  0  0  0  0  0  0
  140.5050   75.6755  219.5550 H   0  0  0  0  0  0  0  0  0  0  0  0
  142.0610   76.3470  221.9590 H   0  0  0  0  0  0  0  0  0  0  0  0
  142.8430   78.8185  221.4221 H   0  0  0  0  0  0  0  0  0  0  0  0
  140.7069   78.6449  223.6487 H   0  0  0  0  0  0  0  0  0  0  0  0
  142.3106   77.9519  223.7081 H   0  0  0  0  0  0  0  0  0  0  0  0
  141.8133   80.4087  224.8081 H   0  0  0  0  0  0  0  0  0  0  0  0
  143.3579   80.1453  223.9927 H   0  0  0  0  0  0  0  0  0  0  0  0
  141.0930   81.8436  223.1915 H   0  0  0  0  0  0  0  0  0  0  0  0
  142.7198   81.7878  222.4833 H   0  0  0  0  0  0  0  0  0  0  0  0
  140.2161   80.3980  221.6417 H   0  0  0  0  0  0  0  0  0  0  0  0
  141.6286   80.8075  220.6647 H   0  0  0  0  0  0  0  0  0  0  0  0
  141.1441   72.8977  224.8683 H   0  0  0  0  0  0  0  0  0  0  0  0
  141.6218   71.9196  227.1010 H   0  0  0  0  0  0  0  0  0  0  0  0
  141.3869   70.1200  228.5966 H   0  0  0  0  0  0  0  0  0  0  0  0
  139.1910   66.6215  227.4323 H   0  0  0  0  0  0  0  0  0  0  0  0
  138.7133   67.6069  225.1805 H   0  0  0  0  0  0  0  0  0  0  0  0
  1  2  2  0
  2  3  1  0
  3  4  1  0
  4  5  1  0
  5  6  2  0
  5  7  1  0
  7  8  1  0
  8  9  1  0
  9 10  1  0
 10 11  1  0
 11 12  1  0
 12 13  1  0
 13 14  1  0
 14 15  1  0
 15 16  2  0
 15 17  1  0
 17 18  1  0
 18 19  1  0
 19 20  1  0
 20 21  1  0
  2 22  1  0
 22 23  2  0
 23 24  1  0
 24 25  2  0
 25 26  1  0
 26 27  2  0
 27 28  1  0
 27 29  1  0
 29 30  2  0
 30 31  1  0
 31 32  2  0
 12  7  1  0
 21 17  1  0
 32 22  1  0
 31 25  1  0
  3 33  1  0
  4 34  1  0
  4 35  1  0
  8 36  1  0
  8 37  1  0
  9 38  1  0
  9 39  1  0
 10 40  1  0
 10 41  1  0
 11 42  1  0
 11 43  1  0
 12 44  1  6
 13 45  1  0
 13 46  1  0
 14 47  1  0
 17 48  1  0
 18 49  1  0
 18 50  1  0
 19 51  1  0
 19 52  1  0
 20 53  1  0
 20 54  1  0
 21 55  1  0
 21 56  1  0
 23 57  1  0
 24 58  1  0
 26 59  1  0
 29 60  1  0
 30 61  1  0
M  END
>  <smiles>  (44) 
O=C(NCC(=O)N1CCCC[C@H]1CNC(=O)C1CCCC1)c1ccc2cc(F)ccc2n1

>  <score_type>  (44) 
oracle

>  <origin>  (44) 
autodockgpu

>  <m_score__min__energy>  (44) 
-9.3599999999999994

>  <m_primary>  (44) 
energy

>  <rmsd>  (44) 
3.6685935462819796

>  <m_score__min__rmsd>  (44) 
3.6685935462819796

>  <meeko>  (44) 
{"free_energy": -8.42, "intermolecular_energy": -10.51, "internal_energy": -2.09, "cluster_size": 37, "cluster_id": 1, "rank_in_cluster": 25}

>  <energy>  (44) 
-7.96

>  <cluster_rmsd>  (44) 
0.39

>  <cluster>  (44) 
3

$$$$

     RDKit          3D

 61 64  0  0  0  0  0  0  0  0999 V2000
  139.8180   71.0410  221.1500 O   0  0  0  0  0  0  0  0  0  0  0  0
  139.6260   71.6320  222.2690 C   0  0  0  0  0  0  0  0  0  0  0  0
  139.3040   73.0420  222.2800 N   0  0  0  0  0  0  0  0  0  0  0  0
  139.1750   73.8340  221.1290 C   0  0  0  0  0  0  0  0  0  0  0  0
  140.2730   74.2010  220.2730 C   0  0  0  0  0  0  0  0  0  0  0  0
  139.9080   74.4670  219.0450 O   0  0  0  0  0  0  0  0  0  0  0  0
  141.6620   74.3270  220.4950 N   0  0  0  0  0  0  0  0  0  0  0  0
  142.4610   73.1640  220.8510 C   0  0  0  0  0  0  0  0  0  0  0  0
  143.8770   73.1430  220.3940 C   0  0  0  0  0  0  0  0  0  0  0  0
  144.4690   74.4770  220.1630 C   0  0  0  0  0  0  0  0  0  0  0  0
  143.4990   75.4000  219.4170 C   0  0  0  0  0  0  0  0  0  0  0  0
  142.3600   75.5980  220.4400 C   0  0  1  0  0  0  0  0  0  0  0  0
  141.5800   76.8080  220.1210 C   0  0  0  0  0  0  0  0  0  0  0  0
  141.8190   77.8010  221.2010 N   0  0  0  0  0  0  0  0  0  0  0  0
  140.7820   78.4590  221.8700 C   0  0  0  0  0  0  0  0  0  0  0  0
  139.5600   78.2860  221.6330 O   0  0  0  0  0  0  0  0  0  0  0  0
  141.1280   79.4300  222.9360 C   0  0  0  0  0  0  0  0  0  0  0  0
  141.0210   80.8600  222.4550 C   0  0  0  0  0  0  0  0  0  0  0  0
  141.8250   81.6280  223.5080 C   0  0  0  0  0  0  0  0  0  0  0  0
  142.9020   80.6730  223.9600 C   0  0  0  0  0  0  0  0  0  0  0  0
  142.5840   79.3420  223.3360 C   0  0  0  0  0  0  0  0  0  0  0  0
  139.7340   70.8840  223.5180 C   0  0  0  0  0  0  0  0  0  0  0  0
  139.2340   69.6020  223.5750 C   0  0  0  0  0  0  0  0  0  0  0  0
  139.2880   68.8150  224.7060 C   0  0  0  0  0  0  0  0  0  0  0  0
  139.8930   69.3970  225.8250 C   0  0  0  0  0  0  0  0  0  0  0  0
  139.9470   68.6060  226.9640 C   0  0  0  0  0  0  0  0  0  0  0  0
  140.5360   69.1550  228.0750 C   0  0  0  0  0  0  0  0  0  0  0  0
  140.5920   68.3820  229.1960 F   0  0  0  0  0  0  0  0  0  0  0  0
  141.0440   70.4300  228.0490 C   0  0  0  0  0  0  0  0  0  0  0  0
  140.9850   71.2200  226.8960 C   0  0  0  0  0  0  0  0  0  0  0  0
  140.3940   70.6750  225.7750 C   0  0  0  0  0  0  0  0  0  0  0  0
  140.3090   71.3980  224.6290 N   0  0  0  0  0  0  0  0  0  0  0  0
  139.1700   73.4310  223.2530 H   0  0  0  0  0  0  0  0  0  0  0  0
  138.4582   73.3056  220.4832 H   0  0  0  0  0  0  0  0  0  0  0  0
  138.9248   74.8081  221.5745 H   0  0  0  0  0  0  0  0  0  0  0  0
  142.4669   73.0906  221.9485 H   0  0  0  0  0  0  0  0  0  0  0  0
  141.9831   72.3223  220.3284 H   0  0  0  0  0  0  0  0  0  0  0  0
  144.4770   72.6294  221.1596 H   0  0  0  0  0  0  0  0  0  0  0  0
  143.8833   72.6268  219.4226 H   0  0  0  0  0  0  0  0  0  0  0  0
  144.7187   74.9303  221.1337 H   0  0  0  0  0  0  0  0  0  0  0  0
  145.3708   74.3524  219.5456 H   0  0  0  0  0  0  0  0  0  0  0  0
  143.9775   76.3583  219.1664 H   0  0  0  0  0  0  0  0  0  0  0  0
  143.1554   74.9864  218.4574 H   0  0  0  0  0  0  0  0  0  0  0  0
  142.6916   75.8216  221.4647 H   0  0  0  0  0  0  0  0  0  0  0  0
  141.9070   77.2200  219.1549 H   0  0  0  0  0  0  0  0  0  0  0  0
  140.5090   76.5671  220.0509 H   0  0  0  0  0  0  0  0  0  0  0  0
  142.8150   78.0180  221.4720 H   0  0  0  0  0  0  0  0  0  0  0  0
  140.4324   79.1844  223.7520 H   0  0  0  0  0  0  0  0  0  0  0  0
  141.4635   80.9766  221.4547 H   0  0  0  0  0  0  0  0  0  0  0  0
  139.9834   81.2113  222.3549 H   0  0  0  0  0  0  0  0  0  0  0  0
  142.2713   82.5321  223.0683 H   0  0  0  0  0  0  0  0  0  0  0  0
  141.1932   81.9601  224.3450 H   0  0  0  0  0  0  0  0  0  0  0  0
  143.8879   81.0250  223.6221 H   0  0  0  0  0  0  0  0  0  0  0  0
  142.9332   80.6000  225.0571 H   0  0  0  0  0  0  0  0  0  0  0  0
  143.2169   79.1687  222.4531 H   0  0  0  0  0  0  0  0  0  0  0  0
  142.7707   78.5079  224.0284 H   0  0  0  0  0  0  0  0  0  0  0  0
  138.7671   69.1840  222.6710 H   0  0  0  0  0  0  0  0  0  0  0  0
  138.8808   67.7934  224.7270 H   0  0  0  0  0  0  0  0  0  0  0  0
  139.5364   67.5856  226.9756 H   0  0  0  0  0  0  0  0  0  0  0  0
  141.5090   70.8407  228.9573 H   0  0  0  0  0  0  0  0  0  0  0  0
  141.3956   72.2404  226.8837 H   0  0  0  0  0  0  0  0  0  0  0  0
  1  2  2  0
  2  3  1  0
  3  4  1  0
  4  5  1  0
  5  6  2  0
  5  7  1  0
  7  8  1  0
  8  9  1  0
  9 10  1  0
 10 11  1  0
 11 12  1  0
 12 13  1  0
 13 14  1  0
 14 15  1  0
 15 16  2  0
 15 17  1  0
 17 18  1  0
 18 19  1  0
 19 20  1  0
 20 21  1  0
  2 22  1  0
 22 23  2  0
 23 24  1  0
 24 25  2  0
 25 26  1  0
 26 27  2  0
 27 28  1  0
 27 29  1  0
 29 30  2  0
 30 31  1  0
 31 32  2  0
 12  7  1  0
 21 17  1  0
 32 22  1  0
 31 25  1  0
  3 33  1  0
  4 34  1  0
  4 35  1  0
  8 36  1  0
  8 37  1  0
  9 38  1  0
  9 39  1  0
 10 40  1  0
 10 41  1  0
 11 42  1  0
 11 43  1  0
 12 44  1  1
 13 45  1  0
 13 46  1  0
 14 47  1  0
 17 48  1  0
 18 49  1  0
 18 50  1  0
 19 51  1  0
 19 52  1  0
 20 53  1  0
 20 54  1  0
 21 55  1  0
 21 56  1  0
 23 57  1  0
 24 58  1  0
 26 59  1  0
 29 60  1  0
 30 61  1  0
M  END
>  <smiles>  (45) 
O=C(NCC(=O)N1CCCC[C@H]1CNC(=O)C1CCCC1)c1ccc2cc(F)ccc2n1

>  <score_type>  (45) 
oracle

>  <origin>  (45) 
autodockgpu

>  <m_score__min__energy>  (45) 
-9.3599999999999994

>  <m_primary>  (45) 
energy

>  <rmsd>  (45) 
2.743117460524146

>  <m_score__min__rmsd>  (45) 
2.743117460524146

>  <meeko>  (45) 
{"free_energy": -9.19, "intermolecular_energy": -11.28, "internal_energy": -1.68, "cluster_size": 37, "cluster_id": 1, "rank_in_cluster": 10}

>  <energy>  (45) 
-7.98

>  <cluster_rmsd>  (45) 
0.0

>  <cluster>  (45) 
4

$$$$

     RDKit          3D

 61 64  0  0  0  0  0  0  0  0999 V2000
  138.7180   70.4890  221.5650 O   0  0  0  0  0  0  0  0  0  0  0  0
  139.1000   71.1330  222.6030 C   0  0  0  0  0  0  0  0  0  0  0  0
  139.2400   72.5710  222.5330 N   0  0  0  0  0  0  0  0  0  0  0  0
  138.9780   73.3380  221.3880 C   0  0  0  0  0  0  0  0  0  0  0  0
  139.3380   74.7240  221.2440 C   0  0  0  0  0  0  0  0  0  0  0  0
  140.3360   75.0850  222.0080 O   0  0  0  0  0  0  0  0  0  0  0  0
  138.8250   75.7690  220.4430 N   0  0  0  0  0  0  0  0  0  0  0  0
  138.9030   75.6930  218.9910 C   0  0  0  0  0  0  0  0  0  0  0  0
  137.8150   76.3460  218.2140 C   0  0  0  0  0  0  0  0  0  0  0  0
  137.1330   77.4510  218.9190 C   0  0  0  0  0  0  0  0  0  0  0  0
  136.8390   77.0890  220.3790 C   0  0  0  0  0  0  0  0  0  0  0  0
  138.2500   76.9810  220.9960 C   0  0  1  0  0  0  0  0  0  0  0  0
  138.1880   77.1160  222.4630 C   0  0  0  0  0  0  0  0  0  0  0  0
  139.4860   77.6730  222.9240 N   0  0  0  0  0  0  0  0  0  0  0  0
  139.6460   79.0100  223.3010 C   0  0  0  0  0  0  0  0  0  0  0  0
  138.7280   79.8680  223.2890 O   0  0  0  0  0  0  0  0  0  0  0  0
  140.9840   79.4670  223.7500 C   0  0  0  0  0  0  0  0  0  0  0  0
  141.0770   80.9750  223.8090 C   0  0  0  0  0  0  0  0  0  0  0  0
  142.5890   81.2150  223.8390 C   0  0  0  0  0  0  0  0  0  0  0  0
  143.1880   80.0840  223.0410 C   0  0  0  0  0  0  0  0  0  0  0  0
  142.0670   79.1240  222.7510 C   0  0  0  0  0  0  0  0  0  0  0  0
  139.3900   70.4170  223.8410 C   0  0  0  0  0  0  0  0  0  0  0  0
  139.0670   69.0800  223.9330 C   0  0  0  0  0  0  0  0  0  0  0  0
  139.3010   68.3180  225.0570 C   0  0  0  0  0  0  0  0  0  0  0  0
  139.8990   68.9840  226.1320 C   0  0  0  0  0  0  0  0  0  0  0  0
  140.1350   68.2170  227.2640 C   0  0  0  0  0  0  0  0  0  0  0  0
  140.7200   68.8470  228.3320 C   0  0  0  0  0  0  0  0  0  0  0  0
  140.9530   68.0980  229.4470 F   0  0  0  0  0  0  0  0  0  0  0  0
  141.0540   70.1780  228.2710 C   0  0  0  0  0  0  0  0  0  0  0  0
  140.8130   70.9430  227.1260 C   0  0  0  0  0  0  0  0  0  0  0  0
  140.2240   70.3160  226.0470 C   0  0  0  0  0  0  0  0  0  0  0  0
  139.9680   71.0110  224.9100 N   0  0  0  0  0  0  0  0  0  0  0  0
  139.5640   73.0020  223.4420 H   0  0  0  0  0  0  0  0  0  0  0  0
  139.4755   72.8138  220.5587 H   0  0  0  0  0  0  0  0  0  0  0  0
  137.8815   73.4123  221.4346 H   0  0  0  0  0  0  0  0  0  0  0  0
  139.8519   76.1586  218.6863 H   0  0  0  0  0  0  0  0  0  0  0  0
  138.8118   74.6216  218.7590 H   0  0  0  0  0  0  0  0  0  0  0  0
  138.2492   76.7472  217.2863 H   0  0  0  0  0  0  0  0  0  0  0  0
  137.0529   75.5732  218.0350 H   0  0  0  0  0  0  0  0  0  0  0  0
  137.7772   78.3423  218.8945 H   0  0  0  0  0  0  0  0  0  0  0  0
  136.1763   77.6454  218.4122 H   0  0  0  0  0  0  0  0  0  0  0  0
  136.2505   77.8769  220.8717 H   0  0  0  0  0  0  0  0  0  0  0  0
  136.2446   76.1699  220.4884 H   0  0  0  0  0  0  0  0  0  0  0  0
  138.9328   77.8029  220.7348 H   0  0  0  0  0  0  0  0  0  0  0  0
  137.3692   77.7956  222.7418 H   0  0  0  0  0  0  0  0  0  0  0  0
  138.0021   76.1380  222.9309 H   0  0  0  0  0  0  0  0  0  0  0  0
  140.3220   77.0310  222.9670 H   0  0  0  0  0  0  0  0  0  0  0  0
  141.1156   78.9781  224.7266 H   0  0  0  0  0  0  0  0  0  0  0  0
  140.6192   81.4362  222.9215 H   0  0  0  0  0  0  0  0  0  0  0  0
  140.5472   81.4129  224.6678 H   0  0  0  0  0  0  0  0  0  0  0  0
  142.8345   82.1834  223.3787 H   0  0  0  0  0  0  0  0  0  0  0  0
  142.9793   81.2429  224.8671 H   0  0  0  0  0  0  0  0  0  0  0  0
  143.6137   80.4659  222.1013 H   0  0  0  0  0  0  0  0  0  0  0  0
  143.9992   79.5913  223.5971 H   0  0  0  0  0  0  0  0  0  0  0  0
  141.7001   79.2584  221.7227 H   0  0  0  0  0  0  0  0  0  0  0  0
  142.3899   78.0760  222.8377 H   0  0  0  0  0  0  0  0  0  0  0  0
  138.5979   68.5961  223.0636 H   0  0  0  0  0  0  0  0  0  0  0  0
  139.0341   67.2520  225.1059 H   0  0  0  0  0  0  0  0  0  0  0  0
  139.8649   67.1514  227.3028 H   0  0  0  0  0  0  0  0  0  0  0  0
  141.5228   70.6538  229.1449 H   0  0  0  0  0  0  0  0  0  0  0  0
  141.0837   72.0085  227.0865 H   0  0  0  0  0  0  0  0  0  0  0  0
  1  2  2  0
  2  3  1  0
  3  4  1  0
  4  5  1  0
  5  6  2  0
  5  7  1  0
  7  8  1  0
  8  9  1  0
  9 10  1  0
 10 11  1  0
 11 12  1  0
 12 13  1  0
 13 14  1  0
 14 15  1  0
 15 16  2  0
 15 17  1  0
 17 18  1  0
 18 19  1  0
 19 20  1  0
 20 21  1  0
  2 22  1  0
 22 23  2  0
 23 24  1  0
 24 25  2  0
 25 26  1  0
 26 27  2  0
 27 28  1  0
 27 29  1  0
 29 30  2  0
 30 31  1  0
 31 32  2  0
 12  7  1  0
 21 17  1  0
 32 22  1  0
 31 25  1  0
  3 33  1  0
  4 34  1  0
  4 35  1  0
  8 36  1  0
  8 37  1  0
  9 38  1  0
  9 39  1  0
 10 40  1  0
 10 41  1  0
 11 42  1  0
 11 43  1  0
 12 44  1  6
 13 45  1  0
 13 46  1  0
 14 47  1  0
 17 48  1  0
 18 49  1  0
 18 50  1  0
 19 51  1  0
 19 52  1  0
 20 53  1  0
 20 54  1  0
 21 55  1  0
 21 56  1  0
 23 57  1  0
 24 58  1  0
 26 59  1  0
 29 60  1  0
 30 61  1  0
M  END
>  <smiles>  (46) 
O=C(NCC(=O)N1CCCC[C@H]1CNC(=O)C1CCCC1)c1ccc2cc(F)ccc2n1

>  <score_type>  (46) 
oracle

>  <origin>  (46) 
autodockgpu

>  <m_score__min__energy>  (46) 
-9.3599999999999994

>  <m_primary>  (46) 
energy

>  <rmsd>  (46) 
2.5100450070444116

>  <m_score__min__rmsd>  (46) 
2.5100450070444116

>  <meeko>  (46) 
{"free_energy": -7.96, "intermolecular_energy": -10.04, "internal_energy": -2.43, "cluster_size": 2, "cluster_id": 3, "rank_in_cluster": 2}

>  <energy>  (46) 
-7.84

>  <cluster_rmsd>  (46) 
0.0

>  <cluster>  (46) 
5

$$$$

     RDKit          3D

 61 64  0  0  0  0  0  0  0  0999 V2000
  139.1560   82.7070  219.9850 O   0  0  0  0  0  0  0  0  0  0  0  0
  138.9160   81.8250  220.8810 C   0  0  0  0  0  0  0  0  0  0  0  0
  139.3490   80.4630  220.6670 N   0  0  0  0  0  0  0  0  0  0  0  0
  140.0350   80.0180  219.5270 C   0  0  0  0  0  0  0  0  0  0  0  0
  141.2590   79.2620  219.5630 C   0  0  0  0  0  0  0  0  0  0  0  0
  142.1970   79.8230  220.2810 O   0  0  0  0  0  0  0  0  0  0  0  0
  141.6470   78.0370  218.9750 N   0  0  0  0  0  0  0  0  0  0  0  0
  142.2880   78.0160  217.6680 C   0  0  0  0  0  0  0  0  0  0  0  0
  143.2730   76.9310  217.4090 C   0  0  0  0  0  0  0  0  0  0  0  0
  143.0740   75.7120  218.2200 C   0  0  0  0  0  0  0  0  0  0  0  0
  142.7670   76.0530  219.6820 C   0  0  0  0  0  0  0  0  0  0  0  0
  141.3910   76.7480  219.5900 C   0  0  1  0  0  0  0  0  0  0  0  0
  140.7090   76.7230  220.8970 C   0  0  0  0  0  0  0  0  0  0  0  0
  141.3980   77.6910  221.7890 N   0  0  0  0  0  0  0  0  0  0  0  0
  140.7290   78.4240  222.7740 C   0  0  0  0  0  0  0  0  0  0  0  0
  139.4970   78.3460  223.0050 O   0  0  0  0  0  0  0  0  0  0  0  0
  141.5110   79.3630  223.6140 C   0  0  0  0  0  0  0  0  0  0  0  0
  140.9810   80.7770  223.5260 C   0  0  0  0  0  0  0  0  0  0  0  0
  142.1500   81.6060  224.0670 C   0  0  0  0  0  0  0  0  0  0  0  0
  143.3930   80.8460  223.6740 C   0  0  0  0  0  0  0  0  0  0  0  0
  142.9300   79.5270  223.1160 C   0  0  0  0  0  0  0  0  0  0  0  0
  138.2110   82.1990  222.1030 C   0  0  0  0  0  0  0  0  0  0  0  0
  137.6360   83.4490  222.1890 C   0  0  0  0  0  0  0  0  0  0  0  0
  136.9500   83.8940  223.2980 C   0  0  0  0  0  0  0  0  0  0  0  0
  136.8620   82.9920  224.3640 C   0  0  0  0  0  0  0  0  0  0  0  0
  136.1720   83.4410  225.4810 C   0  0  0  0  0  0  0  0  0  0  0  0
  136.0720   82.5740  226.5400 C   0  0  0  0  0  0  0  0  0  0  0  0
  135.3950   83.0100  227.6400 F   0  0  0  0  0  0  0  0  0  0  0  0
  136.6340   81.3220  226.4840 C   0  0  0  0  0  0  0  0  0  0  0  0
  137.3280   80.8790  225.3540 C   0  0  0  0  0  0  0  0  0  0  0  0
  137.4330   81.7450  224.2850 C   0  0  0  0  0  0  0  0  0  0  0  0
  138.0950   81.3670  223.1620 N   0  0  0  0  0  0  0  0  0  0  0  0
  139.0980   79.8160  221.4650 H   0  0  0  0  0  0  0  0  0  0  0  0
  139.3174   79.3954  218.9725 H   0  0  0  0  0  0  0  0  0  0  0  0
  140.3937   80.9730  219.1155 H   0  0  0  0  0  0  0  0  0  0  0  0
  141.4939   77.9290  216.9118 H   0  0  0  0  0  0  0  0  0  0  0  0
  142.8741   78.9459  217.6256 H   0  0  0  0  0  0  0  0  0  0  0  0
  143.2041   76.6516  216.3473 H   0  0  0  0  0  0  0  0  0  0  0  0
  144.2587   77.3324  217.6869 H   0  0  0  0  0  0  0  0  0  0  0  0
  142.2331   75.1386  217.8027 H   0  0  0  0  0  0  0  0  0  0  0  0
  144.0027   75.1232  218.1910 H   0  0  0  0  0  0  0  0  0  0  0  0
  142.7109   75.1431  220.2976 H   0  0  0  0  0  0  0  0  0  0  0  0
  143.5394   76.6774  220.1548 H   0  0  0  0  0  0  0  0  0  0  0  0
  140.6545   76.2349  218.9542 H   0  0  0  0  0  0  0  0  0  0  0  0
  139.6549   77.0124  220.7743 H   0  0  0  0  0  0  0  0  0  0  0  0
  140.7437   75.7118  221.3286 H   0  0  0  0  0  0  0  0  0  0  0  0
  142.4370   77.8310  221.6710 H   0  0  0  0  0  0  0  0  0  0  0  0
  141.4473   78.9294  224.6229 H   0  0  0  0  0  0  0  0  0  0  0  0
  140.7483   81.0499  222.4861 H   0  0  0  0  0  0  0  0  0  0  0  0
  140.0434   80.9283  224.0811 H   0  0  0  0  0  0  0  0  0  0  0  0
  142.1527   82.6089  223.6152 H   0  0  0  0  0  0  0  0  0  0  0  0
  142.0830   81.7475  225.1558 H   0  0  0  0  0  0  0  0  0  0  0  0
  143.9547   81.4050  222.9111 H   0  0  0  0  0  0  0  0  0  0  0  0
  144.0594   80.7005  224.5370 H   0  0  0  0  0  0  0  0  0  0  0  0
  142.9536   79.5435  222.0164 H   0  0  0  0  0  0  0  0  0  0  0  0
  143.5765   78.6958  223.4342 H   0  0  0  0  0  0  0  0  0  0  0  0
  137.7297   84.1264  221.3274 H   0  0  0  0  0  0  0  0  0  0  0  0
  136.4994   84.8965  223.3426 H   0  0  0  0  0  0  0  0  0  0  0  0
  135.7257   84.4458  225.5160 H   0  0  0  0  0  0  0  0  0  0  0  0
  136.5356   80.6509  227.3500 H   0  0  0  0  0  0  0  0  0  0  0  0
  137.7750   79.8745  225.3184 H   0  0  0  0  0  0  0  0  0  0  0  0
  1  2  2  0
  2  3  1  0
  3  4  1  0
  4  5  1  0
  5  6  2  0
  5  7  1  0
  7  8  1  0
  8  9  1  0
  9 10  1  0
 10 11  1  0
 11 12  1  0
 12 13  1  0
 13 14  1  0
 14 15  1  0
 15 16  2  0
 15 17  1  0
 17 18  1  0
 18 19  1  0
 19 20  1  0
 20 21  1  0
  2 22  1  0
 22 23  2  0
 23 24  1  0
 24 25  2  0
 25 26  1  0
 26 27  2  0
 27 28  1  0
 27 29  1  0
 29 30  2  0
 30 31  1  0
 31 32  2  0
 12  7  1  0
 21 17  1  0
 32 22  1  0
 31 25  1  0
  3 33  1  0
  4 34  1  0
  4 35  1  0
  8 36  1  0
  8 37  1  0
  9 38  1  0
  9 39  1  0
 10 40  1  0
 10 41  1  0
 11 42  1  0
 11 43  1  0
 12 44  1  6
 13 45  1  0
 13 46  1  0
 14 47  1  0
 17 48  1  0
 18 49  1  0
 18 50  1  0
 19 51  1  0
 19 52  1  0
 20 53  1  0
 20 54  1  0
 21 55  1  0
 21 56  1  0
 23 57  1  0
 24 58  1  0
 26 59  1  0
 29 60  1  0
 30 61  1  0
M  END
>  <smiles>  (47) 
O=C(NCC(=O)N1CCCC[C@H]1CNC(=O)C1CCCC1)c1ccc2cc(F)ccc2n1

>  <score_type>  (47) 
oracle

>  <origin>  (47) 
autodockgpu

>  <m_score__min__energy>  (47) 
-9.3599999999999994

>  <m_primary>  (47) 
energy

>  <rmsd>  (47) 
8.850898530066859

>  <m_score__min__rmsd>  (47) 
8.850898530066859

>  <meeko>  (47) 
{"free_energy": -5.98, "intermolecular_energy": -8.07, "internal_energy": -3.79, "cluster_size": 1, "cluster_id": 9, "rank_in_cluster": 1}

>  <energy>  (47) 
-7.41

>  <cluster_rmsd>  (47) 
0.0

>  <cluster>  (47) 
6

$$$$

     RDKit          3D

 61 64  0  0  0  0  0  0  0  0999 V2000
  140.0920   73.0420  222.8460 O   0  0  0  0  0  0  0  0  0  0  0  0
  140.1950   71.7700  222.9440 C   0  0  0  0  0  0  0  0  0  0  0  0
  140.1710   70.9630  221.7440 N   0  0  0  0  0  0  0  0  0  0  0  0
  140.0430   71.4770  220.4450 C   0  0  0  0  0  0  0  0  0  0  0  0
  140.9010   72.4900  219.8880 C   0  0  0  0  0  0  0  0  0  0  0  0
  140.4370   73.0140  218.7830 O   0  0  0  0  0  0  0  0  0  0  0  0
  142.1430   73.0260  220.2970 N   0  0  0  0  0  0  0  0  0  0  0  0
  143.3150   72.1690  220.4110 C   0  0  0  0  0  0  0  0  0  0  0  0
  144.6400   72.7850  220.1330 C   0  0  0  0  0  0  0  0  0  0  0  0
  144.6960   74.2470  220.3460 C   0  0  0  0  0  0  0  0  0  0  0  0
  143.4580   74.9460  219.7740 C   0  0  0  0  0  0  0  0  0  0  0  0
  142.3190   74.4160  220.6730 C   0  0  1  0  0  0  0  0  0  0  0  0
  141.1480   75.3090  220.6090 C   0  0  0  0  0  0  0  0  0  0  0  0
  141.4640   76.5300  221.3950 N   0  0  0  0  0  0  0  0  0  0  0  0
  140.5940   77.0620  222.3510 C   0  0  0  0  0  0  0  0  0  0  0  0
  139.4720   76.5760  222.6420 O   0  0  0  0  0  0  0  0  0  0  0  0
  141.0050   78.2840  223.0850 C   0  0  0  0  0  0  0  0  0  0  0  0
  139.9100   79.3260  223.1070 C   0  0  0  0  0  0  0  0  0  0  0  0
  140.6710   80.6010  223.4830 C   0  0  0  0  0  0  0  0  0  0  0  0
  142.0490   80.4320  222.8920 C   0  0  0  0  0  0  0  0  0  0  0  0
  142.1260   79.0190  222.3830 C   0  0  0  0  0  0  0  0  0  0  0  0
  140.3370   71.1480  224.2570 C   0  0  0  0  0  0  0  0  0  0  0  0
  140.7520   71.9190  225.3210 C   0  0  0  0  0  0  0  0  0  0  0  0
  140.9150   71.4250  226.5980 C   0  0  0  0  0  0  0  0  0  0  0  0
  140.6310   70.0660  226.7670 C   0  0  0  0  0  0  0  0  0  0  0  0
  140.7960   69.5680  228.0520 C   0  0  0  0  0  0  0  0  0  0  0  0
  140.5250   68.2380  228.2430 C   0  0  0  0  0  0  0  0  0  0  0  0
  140.6850   67.7440  229.5040 F   0  0  0  0  0  0  0  0  0  0  0  0
  140.1090   67.4440  227.2020 C   0  0  0  0  0  0  0  0  0  0  0  0
  139.9460   67.9540  225.9100 C   0  0  0  0  0  0  0  0  0  0  0  0
  140.2180   69.2920  225.7100 C   0  0  0  0  0  0  0  0  0  0  0  0
  140.0760   69.8400  224.4760 N   0  0  0  0  0  0  0  0  0  0  0  0
  140.2590   69.9270  221.9370 H   0  0  0  0  0  0  0  0  0  0  0  0
  140.1303   70.6108  219.7726 H   0  0  0  0  0  0  0  0  0  0  0  0
  139.0976   72.0322  220.5341 H   0  0  0  0  0  0  0  0  0  0  0  0
  143.3409   71.7796  221.4394 H   0  0  0  0  0  0  0  0  0  0  0  0
  143.1866   71.4090  219.6262 H   0  0  0  0  0  0  0  0  0  0  0  0
  145.3829   72.3134  220.7931 H   0  0  0  0  0  0  0  0  0  0  0  0
  144.8437   72.6176  219.0651 H   0  0  0  0  0  0  0  0  0  0  0  0
  144.7535   74.4489  221.4258 H   0  0  0  0  0  0  0  0  0  0  0  0
  145.5835   74.6376  219.8266 H   0  0  0  0  0  0  0  0  0  0  0  0
  143.5486   76.0394  219.8528 H   0  0  0  0  0  0  0  0  0  0  0  0
  143.2987   74.7431  218.7047 H   0  0  0  0  0  0  0  0  0  0  0  0
  142.5365   74.4273  221.7512 H   0  0  0  0  0  0  0  0  0  0  0  0
  140.9411   75.5803  219.5633 H   0  0  0  0  0  0  0  0  0  0  0  0
  140.2594   74.8072  221.0195 H   0  0  0  0  0  0  0  0  0  0  0  0
  142.3840   77.0150  221.2220 H   0  0  0  0  0  0  0  0  0  0  0  0
  141.2804   77.9126  224.0831 H   0  0  0  0  0  0  0  0  0  0  0  0
  139.4346   79.4236  222.1198 H   0  0  0  0  0  0  0  0  0  0  0  0
  139.0901   79.0851  223.7996 H   0  0  0  0  0  0  0  0  0  0  0  0
  140.1749   81.4855  223.0568 H   0  0  0  0  0  0  0  0  0  0  0  0
  140.7077   80.7502  224.5722 H   0  0  0  0  0  0  0  0  0  0  0  0
  142.1974   81.1422  222.0652 H   0  0  0  0  0  0  0  0  0  0  0  0
  142.8297   80.6274  223.6419 H   0  0  0  0  0  0  0  0  0  0  0  0
  141.9813   78.9931  221.2929 H   0  0  0  0  0  0  0  0  0  0  0  0
  143.1065   78.5622  222.5832 H   0  0  0  0  0  0  0  0  0  0  0  0
  140.9642   72.9835  225.1424 H   0  0  0  0  0  0  0  0  0  0  0  0
  141.2477   72.0603  227.4321 H   0  0  0  0  0  0  0  0  0  0  0  0
  141.1292   70.2115  228.8796 H   0  0  0  0  0  0  0  0  0  0  0  0
  139.8989   66.3806  227.3893 H   0  0  0  0  0  0  0  0  0  0  0  0
  139.6126   67.3110  225.0821 H   0  0  0  0  0  0  0  0  0  0  0  0
  1  2  2  0
  2  3  1  0
  3  4  1  0
  4  5  1  0
  5  6  2  0
  5  7  1  0
  7  8  1  0
  8  9  1  0
  9 10  1  0
 10 11  1  0
 11 12  1  0
 12 13  1  0
 13 14  1  0
 14 15  1  0
 15 16  2  0
 15 17  1  0
 17 18  1  0
 18 19  1  0
 19 20  1  0
 20 21  1  0
  2 22  1  0
 22 23  2  0
 23 24  1  0
 24 25  2  0
 25 26  1  0
 26 27  2  0
 27 28  1  0
 27 29  1  0
 29 30  2  0
 30 31  1  0
 31 32  2  0
 12  7  1  0
 21 17  1  0
 32 22  1  0
 31 25  1  0
  3 33  1  0
  4 34  1  0
  4 35  1  0
  8 36  1  0
  8 37  1  0
  9 38  1  0
  9 39  1  0
 10 40  1  0
 10 41  1  0
 11 42  1  0
 11 43  1  0
 12 44  1  1
 13 45  1  0
 13 46  1  0
 14 47  1  0
 17 48  1  0
 18 49  1  0
 18 50  1  0
 19 51  1  0
 19 52  1  0
 20 53  1  0
 20 54  1  0
 21 55  1  0
 21 56  1  0
 23 57  1  0
 24 58  1  0
 26 59  1  0
 29 60  1  0
 30 61  1  0
M  END
>  <smiles>  (48) 
O=C(NCC(=O)N1CCCC[C@H]1CNC(=O)C1CCCC1)c1ccc2cc(F)ccc2n1

>  <score_type>  (48) 
oracle

>  <origin>  (48) 
autodockgpu

>  <m_score__min__energy>  (48) 
-9.3599999999999994

>  <m_primary>  (48) 
energy

>  <rmsd>  (48) 
3.647257138450206

>  <m_score__min__rmsd>  (48) 
3.647257138450206

>  <meeko>  (48) 
{"free_energy": -9.32, "intermolecular_energy": -11.41, "internal_energy": -1.91, "cluster_size": 37, "cluster_id": 1, "rank_in_cluster": 6}

>  <energy>  (48) 
-6.88

>  <cluster_rmsd>  (48) 
0.0

>  <cluster>  (48) 
7

$$$$

     RDKit          3D

 61 64  0  0  0  0  0  0  0  0999 V2000
  140.2000   73.0820  222.7520 O   0  0  0  0  0  0  0  0  0  0  0  0
  140.2430   71.8070  222.8520 C   0  0  0  0  0  0  0  0  0  0  0  0
  140.1840   71.0000  221.6540 N   0  0  0  0  0  0  0  0  0  0  0  0
  140.0860   71.5170  220.3540 C   0  0  0  0  0  0  0  0  0  0  0  0
  140.9170   72.5730  219.8380 C   0  0  0  0  0  0  0  0  0  0  0  0
  140.4280   73.1440  218.7680 O   0  0  0  0  0  0  0  0  0  0  0  0
  142.1530   73.1120  220.2580 N   0  0  0  0  0  0  0  0  0  0  0  0
  143.3530   72.2880  220.2640 C   0  0  0  0  0  0  0  0  0  0  0  0
  144.6500   72.9690  220.0050 C   0  0  0  0  0  0  0  0  0  0  0  0
  144.6680   74.4080  220.3440 C   0  0  0  0  0  0  0  0  0  0  0  0
  143.3930   75.1130  219.8700 C   0  0  0  0  0  0  0  0  0  0  0  0
  142.2990   74.4690  220.7500 C   0  0  1  0  0  0  0  0  0  0  0  0
  141.0990   75.3260  220.7960 C   0  0  0  0  0  0  0  0  0  0  0  0
  141.4510   76.5600  221.5460 N   0  0  0  0  0  0  0  0  0  0  0  0
  140.5630   77.1970  222.4180 C   0  0  0  0  0  0  0  0  0  0  0  0
  139.3930   76.8030  222.6550 O   0  0  0  0  0  0  0  0  0  0  0  0
  141.0130   78.4230  223.1210 C   0  0  0  0  0  0  0  0  0  0  0  0
  139.9640   79.5110  223.0880 C   0  0  0  0  0  0  0  0  0  0  0  0
  140.7720   80.7640  223.4400 C   0  0  0  0  0  0  0  0  0  0  0  0
  142.1520   80.5170  222.8820 C   0  0  0  0  0  0  0  0  0  0  0  0
  142.1770   79.0860  222.4190 C   0  0  0  0  0  0  0  0  0  0  0  0
  140.3500   71.1810  224.1670 C   0  0  0  0  0  0  0  0  0  0  0  0
  140.8790   71.9070  225.2120 C   0  0  0  0  0  0  0  0  0  0  0  0
  141.0210   71.4060  226.4890 C   0  0  0  0  0  0  0  0  0  0  0  0
  140.5910   70.0880  226.6780 C   0  0  0  0  0  0  0  0  0  0  0  0
  140.7350   69.5830  227.9630 C   0  0  0  0  0  0  0  0  0  0  0  0
  140.3210   68.2930  228.1740 C   0  0  0  0  0  0  0  0  0  0  0  0
  140.4600   67.7930  229.4350 F   0  0  0  0  0  0  0  0  0  0  0  0
  139.7900   67.5450  227.1520 C   0  0  0  0  0  0  0  0  0  0  0  0
  139.6490   68.0620  225.8610 C   0  0  0  0  0  0  0  0  0  0  0  0
  140.0640   69.3600  225.6400 C   0  0  0  0  0  0  0  0  0  0  0  0
  139.9500   69.9120  224.4060 N   0  0  0  0  0  0  0  0  0  0  0  0
  140.2230   69.9610  221.8490 H   0  0  0  0  0  0  0  0  0  0  0  0
  140.2417   70.6608  219.6813 H   0  0  0  0  0  0  0  0  0  0  0  0
  139.1128   72.0270  220.4072 H   0  0  0  0  0  0  0  0  0  0  0  0
  143.4217   71.8117  221.2532 H   0  0  0  0  0  0  0  0  0  0  0  0
  143.2241   71.5956  219.4191 H   0  0  0  0  0  0  0  0  0  0  0  0
  145.4263   72.4665  220.6006 H   0  0  0  0  0  0  0  0  0  0  0  0
  144.8265   72.9017  218.9213 H   0  0  0  0  0  0  0  0  0  0  0  0
  144.7520   74.5170  221.4354 H   0  0  0  0  0  0  0  0  0  0  0  0
  145.5272   74.8711  219.8367 H   0  0  0  0  0  0  0  0  0  0  0  0
  143.4526   76.1978  220.0423 H   0  0  0  0  0  0  0  0  0  0  0  0
  143.2076   74.9994  218.7917 H   0  0  0  0  0  0  0  0  0  0  0  0
  142.5495   74.3930  221.8184 H   0  0  0  0  0  0  0  0  0  0  0  0
  140.7852   75.5857  219.7742 H   0  0  0  0  0  0  0  0  0  0  0  0
  140.2692   74.7994  221.2901 H   0  0  0  0  0  0  0  0  0  0  0  0
  142.4120   76.9720  221.4120 H   0  0  0  0  0  0  0  0  0  0  0  0
  141.2536   78.0726  224.1356 H   0  0  0  0  0  0  0  0  0  0  0  0
  139.5125   79.5973  222.0886 H   0  0  0  0  0  0  0  0  0  0  0  0
  139.1212   79.3274  223.7707 H   0  0  0  0  0  0  0  0  0  0  0  0
  140.3228   81.6549  222.9769 H   0  0  0  0  0  0  0  0  0  0  0  0
  140.7945   80.9464  224.5245 H   0  0  0  0  0  0  0  0  0  0  0  0
  142.3464   81.1932  222.0365 H   0  0  0  0  0  0  0  0  0  0  0  0
  142.9264   80.7026  223.6408 H   0  0  0  0  0  0  0  0  0  0  0  0
  142.0514   79.0312  221.3276 H   0  0  0  0  0  0  0  0  0  0  0  0
  143.1328   78.5944  222.6528 H   0  0  0  0  0  0  0  0  0  0  0  0
  141.2048   72.9395  225.0176 H   0  0  0  0  0  0  0  0  0  0  0  0
  141.4458   72.0052  227.3079 H   0  0  0  0  0  0  0  0  0  0  0  0
  141.1618   70.1901  228.7750 H   0  0  0  0  0  0  0  0  0  0  0  0
  139.4675   66.5130  227.3544 H   0  0  0  0  0  0  0  0  0  0  0  0
  139.2220   67.4553  225.0488 H   0  0  0  0  0  0  0  0  0  0  0  0
  1  2  2  0
  2  3  1  0
  3  4  1  0
  4  5  1  0
  5  6  2  0
  5  7  1  0
  7  8  1  0
  8  9  1  0
  9 10  1  0
 10 11  1  0
 11 12  1  0
 12 13  1  0
 13 14  1  0
 14 15  1  0
 15 16  2  0
 15 17  1  0
 17 18  1  0
 18 19  1  0
 19 20  1  0
 20 21  1  0
  2 22  1  0
 22 23  2  0
 23 24  1  0
 24 25  2  0
 25 26  1  0
 26 27  2  0
 27 28  1  0
 27 29  1  0
 29 30  2  0
 30 31  1  0
 31 32  2  0
 12  7  1  0
 21 17  1  0
 32 22  1  0
 31 25  1  0
  3 33  1  0
  4 34  1  0
  4 35  1  0
  8 36  1  0
  8 37  1  0
  9 38  1  0
  9 39  1  0
 10 40  1  0
 10 41  1  0
 11 42  1  0
 11 43  1  0
 12 44  1  1
 13 45  1  0
 13 46  1  0
 14 47  1  0
 17 48  1  0
 18 49  1  0
 18 50  1  0
 19 51  1  0
 19 52  1  0
 20 53  1  0
 20 54  1  0
 21 55  1  0
 21 56  1  0
 23 57  1  0
 24 58  1  0
 26 59  1  0
 29 60  1  0
 30 61  1  0
M  END
>  <smiles>  (49) 
O=C(NCC(=O)N1CCCC[C@H]1CNC(=O)C1CCCC1)c1ccc2cc(F)ccc2n1

>  <score_type>  (49) 
oracle

>  <origin>  (49) 
autodockgpu

>  <m_score__min__energy>  (49) 
-9.3599999999999994

>  <m_primary>  (49) 
energy

>  <rmsd>  (49) 
3.608194770242122

>  <m_score__min__rmsd>  (49) 
3.608194770242122

>  <meeko>  (49) 
{"free_energy": -9.34, "intermolecular_energy": -11.43, "internal_energy": -1.89, "cluster_size": 37, "cluster_id": 1, "rank_in_cluster": 4}

>  <energy>  (49) 
-6.48

>  <cluster_rmsd>  (49) 
0.0

>  <cluster>  (49) 
8

$$$$

     RDKit          3D

 61 64  0  0  0  0  0  0  0  0999 V2000
  139.3820   74.2630  220.2220 O   0  0  0  0  0  0  0  0  0  0  0  0
  139.1620   74.9460  221.2820 C   0  0  0  0  0  0  0  0  0  0  0  0
  138.1750   74.4810  222.2310 N   0  0  0  0  0  0  0  0  0  0  0  0
  137.4210   73.3070  222.0810 C   0  0  0  0  0  0  0  0  0  0  0  0
  137.9810   71.9810  222.0740 C   0  0  0  0  0  0  0  0  0  0  0  0
  137.3970   71.1660  222.9130 O   0  0  0  0  0  0  0  0  0  0  0  0
  139.0360   71.3900  221.3440 N   0  0  0  0  0  0  0  0  0  0  0  0
  138.7720   70.7160  220.0800 C   0  0  0  0  0  0  0  0  0  0  0  0
  139.8450   70.7530  219.0500 C   0  0  0  0  0  0  0  0  0  0  0  0
  141.2090   70.9320  219.5890 C   0  0  0  0  0  0  0  0  0  0  0  0
  141.2450   72.0030  220.6840 C   0  0  0  0  0  0  0  0  0  0  0  0
  140.4080   71.3650  221.8150 C   0  0  1  0  0  0  0  0  0  0  0  0
  140.7120   72.0020  223.1090 C   0  0  0  0  0  0  0  0  0  0  0  0
  140.1020   71.1710  224.1790 N   0  0  0  0  0  0  0  0  0  0  0  0
  140.6220   71.1020  225.4750 C   0  0  0  0  0  0  0  0  0  0  0  0
  141.6430   71.7220  225.8660 O   0  0  0  0  0  0  0  0  0  0  0  0
  139.9360   70.2440  226.4720 C   0  0  0  0  0  0  0  0  0  0  0  0
  140.4510   70.4820  227.8730 C   0  0  0  0  0  0  0  0  0  0  0  0
  139.9670   69.2370  228.6230 C   0  0  0  0  0  0  0  0  0  0  0  0
  139.9710   68.1290  227.5980 C   0  0  0  0  0  0  0  0  0  0  0  0
  140.2440   68.7770  226.2680 C   0  0  0  0  0  0  0  0  0  0  0  0
  139.9040   76.1790  221.5240 C   0  0  0  0  0  0  0  0  0  0  0  0
  141.0150   76.4530  220.7560 C   0  0  0  0  0  0  0  0  0  0  0  0
  141.7810   77.5890  220.9070 C   0  0  0  0  0  0  0  0  0  0  0  0
  141.3650   78.4770  221.9050 C   0  0  0  0  0  0  0  0  0  0  0  0
  142.1360   79.6200  222.0580 C   0  0  0  0  0  0  0  0  0  0  0  0
  141.7480   80.5070  223.0300 C   0  0  0  0  0  0  0  0  0  0  0  0
  142.5020   81.6320  223.1840 F   0  0  0  0  0  0  0  0  0  0  0  0
  140.6450   80.2620  223.8110 C   0  0  0  0  0  0  0  0  0  0  0  0
  139.8750   79.1060  223.6500 C   0  0  0  0  0  0  0  0  0  0  0  0
  140.2580   78.2100  222.6740 C   0  0  0  0  0  0  0  0  0  0  0  0
  139.5460   77.0720  222.4740 N   0  0  0  0  0  0  0  0  0  0  0  0
  138.0690   75.1190  223.0680 H   0  0  0  0  0  0  0  0  0  0  0  0
  136.6898   73.3164  222.9027 H   0  0  0  0  0  0  0  0  0  0  0  0
  137.0983   73.4008  221.0336 H   0  0  0  0  0  0  0  0  0  0  0  0
  138.5668   69.6591  220.3056 H   0  0  0  0  0  0  0  0  0  0  0  0
  137.9332   71.2705  219.6340 H   0  0  0  0  0  0  0  0  0  0  0  0
  139.8181   69.8052  218.4923 H   0  0  0  0  0  0  0  0  0  0  0  0
  139.6414   71.6308  218.4191 H   0  0  0  0  0  0  0  0  0  0  0  0
  141.5542   69.9770  220.0118 H   0  0  0  0  0  0  0  0  0  0  0  0
  141.8644   71.2568  218.7675 H   0  0  0  0  0  0  0  0  0  0  0  0
  142.2760   72.1966  221.0151 H   0  0  0  0  0  0  0  0  0  0  0  0
  140.8576   72.9777  220.3525 H   0  0  0  0  0  0  0  0  0  0  0  0
  140.6489   70.3141  222.0329 H   0  0  0  0  0  0  0  0  0  0  0  0
  141.8012   72.0563  223.2526 H   0  0  0  0  0  0  0  0  0  0  0  0
  140.3068   73.0242  223.1385 H   0  0  0  0  0  0  0  0  0  0  0  0
  139.2410   70.6080  223.9490 H   0  0  0  0  0  0  0  0  0  0  0  0
  138.8717   70.4913  226.3452 H   0  0  0  0  0  0  0  0  0  0  0  0
  141.5487   70.5517  227.8860 H   0  0  0  0  0  0  0  0  0  0  0  0
  140.0963   71.4246  228.3153 H   0  0  0  0  0  0  0  0  0  0  0  0
  140.6487   68.9973  229.4524 H   0  0  0  0  0  0  0  0  0  0  0  0
  138.9700   69.3850  229.0636 H   0  0  0  0  0  0  0  0  0  0  0  0
  140.7581   67.3973  227.8327 H   0  0  0  0  0  0  0  0  0  0  0  0
  139.0107   67.5926  227.5890 H   0  0  0  0  0  0  0  0  0  0  0  0
  141.2970   68.6400  225.9809 H   0  0  0  0  0  0  0  0  0  0  0  0
  139.6365   68.3370  225.4634 H   0  0  0  0  0  0  0  0  0  0  0  0
  141.3057   75.7273  219.9821 H   0  0  0  0  0  0  0  0  0  0  0  0
  142.6645   77.7852  220.2817 H   0  0  0  0  0  0  0  0  0  0  0  0
  143.0185   79.8067  221.4285 H   0  0  0  0  0  0  0  0  0  0  0  0
  140.3604   80.9931  224.5820 H   0  0  0  0  0  0  0  0  0  0  0  0
  138.9935   78.9176  224.2805 H   0  0  0  0  0  0  0  0  0  0  0  0
  1  2  2  0
  2  3  1  0
  3  4  1  0
  4  5  1  0
  5  6  2  0
  5  7  1  0
  7  8  1  0
  8  9  1  0
  9 10  1  0
 10 11  1  0
 11 12  1  0
 12 13  1  0
 13 14  1  0
 14 15  1  0
 15 16  2  0
 15 17  1  0
 17 18  1  0
 18 19  1  0
 19 20  1  0
 20 21  1  0
  2 22  1  0
 22 23  2  0
 23 24  1  0
 24 25  2  0
 25 26  1  0
 26 27  2  0
 27 28  1  0
 27 29  1  0
 29 30  2  0
 30 31  1  0
 31 32  2  0
 12  7  1  0
 21 17  1  0
 32 22  1  0
 31 25  1  0
  3 33  1  0
  4 34  1  0
  4 35  1  0
  8 36  1  0
  8 37  1  0
  9 38  1  0
  9 39  1  0
 10 40  1  0
 10 41  1  0
 11 42  1  0
 11 43  1  0
 12 44  1  1
 13 45  1  0
 13 46  1  0
 14 47  1  0
 17 48  1  0
 18 49  1  0
 18 50  1  0
 19 51  1  0
 19 52  1  0
 20 53  1  0
 20 54  1  0
 21 55  1  0
 21 56  1  0
 23 57  1  0
 24 58  1  0
 26 59  1  0
 29 60  1  0
 30 61  1  0
M  END
>  <smiles>  (50) 
O=C(NCC(=O)N1CCCC[C@H]1CNC(=O)C1CCCC1)c1ccc2cc(F)ccc2n1

>  <score_type>  (50) 
oracle

>  <origin>  (50) 
autodockgpu

>  <m_score__min__energy>  (50) 
-9.3599999999999994

>  <m_primary>  (50) 
energy

>  <rmsd>  (50) 
9.063294635700993

>  <m_score__min__rmsd>  (50) 
9.063294635700993

>  <meeko>  (50) 
{"free_energy": -7.11, "intermolecular_energy": -9.2, "internal_energy": -2.79, "cluster_size": 5, "cluster_id": 2, "rank_in_cluster": 5}

>  <energy>  (50) 
-5.98

>  <cluster_rmsd>  (50) 
0.0

>  <cluster>  (50) 
9

$$$$
