
     RDKit          3D

 66 71  0  0  0  0  0  0  0  0999 V2000
  145.7470   67.7940  218.8760 C   0  0  0  0  0  0  0  0  0  0  0  0
  146.3220   68.9830  218.4620 C   0  0  0  0  0  0  0  0  0  0  0  0
  145.7750   70.1930  218.8510 C   0  0  0  0  0  0  0  0  0  0  0  0
  144.6510   70.1650  219.6570 C   0  0  0  0  0  0  0  0  0  0  0  0
  144.0680   71.4640  220.0740 C   0  0  0  0  0  0  0  0  0  0  0  0
  142.6540   71.4280  219.8130 N   0  0  0  0  0  0  0  0  0  0  0  0
  141.7870   72.1120  220.7180 C   0  0  0  0  0  0  0  0  0  0  0  0
  141.4100   73.3740  220.4720 N   0  0  0  0  0  0  0  0  0  0  0  0
  140.5940   74.0620  221.2930 C   0  0  0  0  0  0  0  0  0  0  0  0
  140.1930   75.4000  221.0380 N   0  0  0  0  0  0  0  0  0  0  0  0
  139.0830   76.0430  221.7180 C   0  0  0  0  0  0  0  0  0  0  0  0
  139.6860   77.1180  222.5880 C   0  0  0  0  0  0  0  0  0  0  0  0
  140.6980   77.8630  221.9010 N   0  0  0  0  0  0  0  0  0  0  0  0
  141.2290   79.0160  222.5850 C   0  0  0  0  0  0  0  0  0  0  0  0
  142.5870   79.2600  222.6590 C   0  0  0  0  0  0  0  0  0  0  0  0
  143.1200   80.3560  223.3090 C   0  0  0  0  0  0  0  0  0  0  0  0
  142.2340   81.2410  223.9080 C   0  0  0  0  0  0  0  0  0  0  0  0
  140.8700   80.9970  223.8330 C   0  0  0  0  0  0  0  0  0  0  0  0
  140.4290   79.9160  223.1880 N   0  0  0  0  0  0  0  0  0  0  0  0
  141.2330   77.5750  220.6080 C   0  0  0  0  0  0  0  0  0  0  0  0
  140.8930   76.2330  220.0520 C   0  0  0  0  0  0  0  0  0  0  0  0
  140.1380   73.4620  222.4000 N   0  0  0  0  0  0  0  0  0  0  0  0
  140.4980   72.1760  222.6890 C   0  0  0  0  0  0  0  0  0  0  0  0
  140.0130   71.5250  223.8750 N   0  0  0  0  0  0  0  0  0  0  0  0
  138.8550   70.6670  223.7610 C   0  0  0  0  0  0  0  0  0  0  0  0
  139.2590   69.3030  224.3210 C   0  0  0  0  0  0  0  0  0  0  0  0
  139.7530   69.5060  225.7080 C   0  0  0  0  0  0  0  0  0  0  0  0
  139.5320   68.5180  226.6600 C   0  0  0  0  0  0  0  0  0  0  0  0
  139.9740   68.6610  227.9730 C   0  0  0  0  0  0  0  0  0  0  0  0
  140.6460   69.8220  228.3100 C   0  0  0  0  0  0  0  0  0  0  0  0
  140.8490   70.7820  227.3470 C   0  0  0  0  0  0  0  0  0  0  0  0
  140.4130   70.6480  226.0370 C   0  0  0  0  0  0  0  0  0  0  0  0
  140.7090   71.7680  225.1180 C   0  0  0  0  0  0  0  0  0  0  0  0
  141.3200   71.5330  221.8310 N   0  0  0  0  0  0  0  0  0  0  0  0
  144.0770   68.9880  220.0710 C   0  0  0  0  0  0  0  0  0  0  0  0
  144.6240   67.7680  219.6810 C   0  0  0  0  0  0  0  0  0  0  0  0
  146.1967   66.8428  218.5552 H   0  0  0  0  0  0  0  0  0  0  0  0
  147.2164   68.9660  217.8219 H   0  0  0  0  0  0  0  0  0  0  0  0
  146.2196   71.1465  218.5297 H   0  0  0  0  0  0  0  0  0  0  0  0
  144.2442   71.6233  221.1481 H   0  0  0  0  0  0  0  0  0  0  0  0
  144.5362   72.2871  219.5143 H   0  0  0  0  0  0  0  0  0  0  0  0
  142.2540   70.9310  219.0040 H   0  0  0  0  0  0  0  0  0  0  0  0
  138.3935   76.4879  220.9854 H   0  0  0  0  0  0  0  0  0  0  0  0
  138.5072   75.3208  222.3155 H   0  0  0  0  0  0  0  0  0  0  0  0
  138.8893   77.8083  222.9022 H   0  0  0  0  0  0  0  0  0  0  0  0
  140.1552   76.6288  223.4543 H   0  0  0  0  0  0  0  0  0  0  0  0
  143.2750   78.5490  222.1783 H   0  0  0  0  0  0  0  0  0  0  0  0
  144.2067   80.5215  223.3505 H   0  0  0  0  0  0  0  0  0  0  0  0
  142.6101   82.1286  224.4379 H   0  0  0  0  0  0  0  0  0  0  0  0
  140.1570   81.6907  224.3025 H   0  0  0  0  0  0  0  0  0  0  0  0
  140.8559   78.3360  219.9089 H   0  0  0  0  0  0  0  0  0  0  0  0
  142.3265   77.5821  220.7273 H   0  0  0  0  0  0  0  0  0  0  0  0
  140.2457   76.3648  219.1724 H   0  0  0  0  0  0  0  0  0  0  0  0
  141.8305   75.7269  219.7782 H   0  0  0  0  0  0  0  0  0  0  0  0
  138.0178   71.0818  224.3415 H   0  0  0  0  0  0  0  0  0  0  0  0
  138.5278   70.5827  222.7142 H   0  0  0  0  0  0  0  0  0  0  0  0
  138.3891   68.6298  224.3290 H   0  0  0  0  0  0  0  0  0  0  0  0
  140.0440   68.8503  223.6974 H   0  0  0  0  0  0  0  0  0  0  0  0
  138.9959   67.6023  226.3700 H   0  0  0  0  0  0  0  0  0  0  0  0
  139.7940   67.8738  228.7200 H   0  0  0  0  0  0  0  0  0  0  0  0
  141.0133   69.9753  229.3355 H   0  0  0  0  0  0  0  0  0  0  0  0
  141.3833   71.7012  227.6291 H   0  0  0  0  0  0  0  0  0  0  0  0
  140.3635   72.7142  225.5600 H   0  0  0  0  0  0  0  0  0  0  0  0
  141.7923   71.8391  224.9405 H   0  0  0  0  0  0  0  0  0  0  0  0
  143.1833   69.0089  220.7120 H   0  0  0  0  0  0  0  0  0  0  0  0
  144.1772   66.8158  220.0029 H   0  0  0  0  0  0  0  0  0  0  0  0
  1  2  2  0
  2  3  1  0
  3  4  2  0
  4  5  1  0
  5  6  1  0
  6  7  1  0
  7  8  2  0
  8  9  1  0
  9 10  1  0
 10 11  1  0
 11 12  1  0
 12 13  1  0
 13 14  1  0
 14 15  2  0
 15 16  1  0
 16 17  2  0
 17 18  1  0
 18 19  2  0
 13 20  1  0
 20 21  1  0
  9 22  2  0
 22 23  1  0
 23 24  1  0
 24 25  1  0
 25 26  1  0
 26 27  1  0
 27 28  2  0
 28 29  1  0
 29 30  2  0
 30 31  1  0
 31 32  2  0
 32 33  1  0
 23 34  2  0
  4 35  1  0
 35 36  2  0
 36  1  1  0
 34  7  1  0
 21 10  1  0
 33 24  1  0
 19 14  1  0
 32 27  1  0
  1 37  1  0
  2 38  1  0
  3 39  1  0
  5 40  1  0
  5 41  1  0
  6 42  1  0
 11 43  1  0
 11 44  1  0
 12 45  1  0
 12 46  1  0
 15 47  1  0
 16 48  1  0
 17 49  1  0
 18 50  1  0
 20 51  1  0
 20 52  1  0
 21 53  1  0
 21 54  1  0
 25 55  1  0
 25 56  1  0
 26 57  1  0
 26 58  1  0
 28 59  1  0
 29 60  1  0
 30 61  1  0
 31 62  1  0
 33 63  1  0
 33 64  1  0
 35 65  1  0
 36 66  1  0
M  END
>  <smiles>  (1) 
c1ccc(CNc2nc(N3CCN(c4ccccn4)CC3)nc(N3CCc4ccccc4C3)n2)cc1

>  <score_type>  (1) 
oracle

>  <origin>  (1) 
autodockgpu

>  <m_score__min__energy>  (1) 
-10.789999999999999

>  <m_primary>  (1) 
energy

>  <rmsd>  (1) 
8.069624292485198

>  <m_score__min__rmsd>  (1) 
8.069624292485198

>  <meeko>  (1) 
{"free_energy": -10.29, "intermolecular_energy": -12.08, "internal_energy": -1.07, "cluster_size": 49, "cluster_id": 1, "rank_in_cluster": 31}

>  <energy>  (1) 
-10.79

>  <cluster_rmsd>  (1) 
0.0

>  <cluster>  (1) 
1

$$$$

     RDKit          3D

 66 71  0  0  0  0  0  0  0  0999 V2000
  140.6780   70.9890  228.0350 C   0  0  0  0  0  0  0  0  0  0  0  0
  141.1140   71.9840  227.1780 C   0  0  0  0  0  0  0  0  0  0  0  0
  140.9140   71.8640  225.8140 C   0  0  0  0  0  0  0  0  0  0  0  0
  140.2700   70.7310  225.3520 C   0  0  0  0  0  0  0  0  0  0  0  0
  140.0550   70.6060  223.8890 C   0  0  0  0  0  0  0  0  0  0  0  0
  139.3280   71.7620  223.4400 N   0  0  0  0  0  0  0  0  0  0  0  0
  139.9270   72.5850  222.4370 C   0  0  0  0  0  0  0  0  0  0  0  0
  140.6370   72.0350  221.4440 N   0  0  0  0  0  0  0  0  0  0  0  0
  141.2210   72.7650  220.4760 C   0  0  0  0  0  0  0  0  0  0  0  0
  141.9770   72.1870  219.4230 N   0  0  0  0  0  0  0  0  0  0  0  0
  143.3610   72.5350  219.1510 C   0  0  0  0  0  0  0  0  0  0  0  0
  144.1770   71.3100  219.4830 C   0  0  0  0  0  0  0  0  0  0  0  0
  143.5760   70.1100  218.9820 N   0  0  0  0  0  0  0  0  0  0  0  0
  144.3510   68.8990  219.1060 C   0  0  0  0  0  0  0  0  0  0  0  0
  143.8930   67.6880  218.6230 C   0  0  0  0  0  0  0  0  0  0  0  0
  144.6150   66.5150  218.7300 C   0  0  0  0  0  0  0  0  0  0  0  0
  145.8550   66.5780  219.3510 C   0  0  0  0  0  0  0  0  0  0  0  0
  146.3150   67.7950  219.8350 C   0  0  0  0  0  0  0  0  0  0  0  0
  145.5610   68.8870  219.6960 N   0  0  0  0  0  0  0  0  0  0  0  0
  142.2870   69.9940  218.3770 C   0  0  0  0  0  0  0  0  0  0  0  0
  141.3940   71.1810  218.5260 C   0  0  0  0  0  0  0  0  0  0  0  0
  141.0850   74.0980  220.5040 N   0  0  0  0  0  0  0  0  0  0  0  0
  140.3690   74.7010  221.4990 C   0  0  0  0  0  0  0  0  0  0  0  0
  140.2190   76.1290  221.5360 N   0  0  0  0  0  0  0  0  0  0  0  0
  138.8820   76.6790  221.5010 C   0  0  0  0  0  0  0  0  0  0  0  0
  138.7430   77.5820  222.7260 C   0  0  0  0  0  0  0  0  0  0  0  0
  139.8350   78.5880  222.6790 C   0  0  0  0  0  0  0  0  0  0  0  0
  139.6030   79.8660  223.1740 C   0  0  0  0  0  0  0  0  0  0  0  0
  140.5930   80.8460  223.1500 C   0  0  0  0  0  0  0  0  0  0  0  0
  141.8260   80.5120  222.6190 C   0  0  0  0  0  0  0  0  0  0  0  0
  142.0250   79.2400  222.1380 C   0  0  0  0  0  0  0  0  0  0  0  0
  141.0460   78.2590  222.1570 C   0  0  0  0  0  0  0  0  0  0  0  0
  141.4150   76.9380  221.6030 C   0  0  0  0  0  0  0  0  0  0  0  0
  139.8050   73.9180  222.4460 N   0  0  0  0  0  0  0  0  0  0  0  0
  139.8350   69.7410  226.1990 C   0  0  0  0  0  0  0  0  0  0  0  0
  140.0350   69.8560  227.5710 C   0  0  0  0  0  0  0  0  0  0  0  0
  140.8476   71.1024  229.1159 H   0  0  0  0  0  0  0  0  0  0  0  0
  141.6209   72.8727  227.5820 H   0  0  0  0  0  0  0  0  0  0  0  0
  141.2565   72.6451  225.1193 H   0  0  0  0  0  0  0  0  0  0  0  0
  141.0253   70.5533  223.3735 H   0  0  0  0  0  0  0  0  0  0  0  0
  139.4873   69.6906  223.6659 H   0  0  0  0  0  0  0  0  0  0  0  0
  138.4010   72.0120  223.8140 H   0  0  0  0  0  0  0  0  0  0  0  0
  143.4860   72.8005  218.0909 H   0  0  0  0  0  0  0  0  0  0  0  0
  143.6804   73.4026  219.7470 H   0  0  0  0  0  0  0  0  0  0  0  0
  145.1769   71.4185  219.0377 H   0  0  0  0  0  0  0  0  0  0  0  0
  144.2346   71.2281  220.5784 H   0  0  0  0  0  0  0  0  0  0  0  0
  142.9095   67.6566  218.1313 H   0  0  0  0  0  0  0  0  0  0  0  0
  144.2217   65.5657  218.3374 H   0  0  0  0  0  0  0  0  0  0  0  0
  146.4680   65.6710  219.4586 H   0  0  0  0  0  0  0  0  0  0  0  0
  147.2952   67.8587  220.3301 H   0  0  0  0  0  0  0  0  0  0  0  0
  142.4331   69.8135  217.3018 H   0  0  0  0  0  0  0  0  0  0  0  0
  141.7817   69.1702  218.9023 H   0  0  0  0  0  0  0  0  0  0  0  0
  141.2349   71.6344  217.5365 H   0  0  0  0  0  0  0  0  0  0  0  0
  140.4419   70.8428  218.9609 H   0  0  0  0  0  0  0  0  0  0  0  0
  138.7374   77.2643  220.5809 H   0  0  0  0  0  0  0  0  0  0  0  0
  138.1263   75.8797  221.5125 H   0  0  0  0  0  0  0  0  0  0  0  0
  137.7670   78.0890  222.7076 H   0  0  0  0  0  0  0  0  0  0  0  0
  138.8095   76.9877  223.6492 H   0  0  0  0  0  0  0  0  0  0  0  0
  138.6158   80.1090  223.5940 H   0  0  0  0  0  0  0  0  0  0  0  0
  140.3999   81.8556  223.5417 H   0  0  0  0  0  0  0  0  0  0  0  0
  142.6365   81.2548  222.5822 H   0  0  0  0  0  0  0  0  0  0  0  0
  143.0096   78.9881  221.7173 H   0  0  0  0  0  0  0  0  0  0  0  0
  141.8385   77.0614  220.5953 H   0  0  0  0  0  0  0  0  0  0  0  0
  142.1675   76.4534  222.2424 H   0  0  0  0  0  0  0  0  0  0  0  0
  139.3270   68.8546  225.7913 H   0  0  0  0  0  0  0  0  0  0  0  0
  139.6933   69.0723  228.2632 H   0  0  0  0  0  0  0  0  0  0  0  0
  1  2  2  0
  2  3  1  0
  3  4  2  0
  4  5  1  0
  5  6  1  0
  6  7  1  0
  7  8  2  0
  8  9  1  0
  9 10  1  0
 10 11  1  0
 11 12  1  0
 12 13  1  0
 13 14  1  0
 14 15  2  0
 15 16  1  0
 16 17  2  0
 17 18  1  0
 18 19  2  0
 13 20  1  0
 20 21  1  0
  9 22  2  0
 22 23  1  0
 23 24  1  0
 24 25  1  0
 25 26  1  0
 26 27  1  0
 27 28  2  0
 28 29  1  0
 29 30  2  0
 30 31  1  0
 31 32  2  0
 32 33  1  0
 23 34  2  0
  4 35  1  0
 35 36  2  0
 36  1  1  0
 34  7  1  0
 21 10  1  0
 33 24  1  0
 19 14  1  0
 32 27  1  0
  1 37  1  0
  2 38  1  0
  3 39  1  0
  5 40  1  0
  5 41  1  0
  6 42  1  0
 11 43  1  0
 11 44  1  0
 12 45  1  0
 12 46  1  0
 15 47  1  0
 16 48  1  0
 17 49  1  0
 18 50  1  0
 20 51  1  0
 20 52  1  0
 21 53  1  0
 21 54  1  0
 25 55  1  0
 25 56  1  0
 26 57  1  0
 26 58  1  0
 28 59  1  0
 29 60  1  0
 30 61  1  0
 31 62  1  0
 33 63  1  0
 33 64  1  0
 35 65  1  0
 36 66  1  0
M  END
>  <smiles>  (2) 
c1ccc(CNc2nc(N3CCN(c4ccccn4)CC3)nc(N3CCc4ccccc4C3)n2)cc1

>  <score_type>  (2) 
oracle

>  <origin>  (2) 
autodockgpu

>  <m_score__min__energy>  (2) 
-10.789999999999999

>  <m_primary>  (2) 
energy

>  <rmsd>  (2) 
6.756894876509117

>  <m_score__min__rmsd>  (2) 
6.756894876509117

>  <meeko>  (2) 
{"free_energy": -10.44, "intermolecular_energy": -12.23, "internal_energy": -1.12, "cluster_size": 49, "cluster_id": 1, "rank_in_cluster": 27}

>  <energy>  (2) 
-10.75

>  <cluster_rmsd>  (2) 
0.15

>  <cluster>  (2) 
1

$$$$

     RDKit          3D

 66 71  0  0  0  0  0  0  0  0999 V2000
  140.7200   71.0400  228.0610 C   0  0  0  0  0  0  0  0  0  0  0  0
  140.0290   69.9330  227.6020 C   0  0  0  0  0  0  0  0  0  0  0  0
  139.7890   69.7740  226.2480 C   0  0  0  0  0  0  0  0  0  0  0  0
  140.2610   70.7490  225.3890 C   0  0  0  0  0  0  0  0  0  0  0  0
  140.0040   70.5760  223.9380 C   0  0  0  0  0  0  0  0  0  0  0  0
  139.2530   71.7110  223.4740 N   0  0  0  0  0  0  0  0  0  0  0  0
  139.8930   72.6190  222.5760 C   0  0  0  0  0  0  0  0  0  0  0  0
  140.7520   72.1670  221.6530 N   0  0  0  0  0  0  0  0  0  0  0  0
  141.3800   72.9800  220.7840 C   0  0  0  0  0  0  0  0  0  0  0  0
  142.2940   72.5060  219.8060 N   0  0  0  0  0  0  0  0  0  0  0  0
  143.7300   72.7080  219.8920 C   0  0  0  0  0  0  0  0  0  0  0  0
  144.3340   71.3450  220.1200 C   0  0  0  0  0  0  0  0  0  0  0  0
  143.7510   70.3480  219.2740 N   0  0  0  0  0  0  0  0  0  0  0  0
  144.3630   69.0420  219.2970 C   0  0  0  0  0  0  0  0  0  0  0  0
  143.6750   67.9060  218.9150 C   0  0  0  0  0  0  0  0  0  0  0  0
  144.2390   66.6450  218.9280 C   0  0  0  0  0  0  0  0  0  0  0  0
  145.5570   66.5350  219.3460 C   0  0  0  0  0  0  0  0  0  0  0  0
  146.2490   67.6760  219.7290 C   0  0  0  0  0  0  0  0  0  0  0  0
  145.6380   68.8620  219.6900 N   0  0  0  0  0  0  0  0  0  0  0  0
  142.6230   70.5180  218.4140 C   0  0  0  0  0  0  0  0  0  0  0  0
  141.8330   71.7670  218.6240 C   0  0  0  0  0  0  0  0  0  0  0  0
  141.1370   74.2960  220.8420 N   0  0  0  0  0  0  0  0  0  0  0  0
  140.2680   74.8000  221.7680 C   0  0  0  0  0  0  0  0  0  0  0  0
  140.0020   76.2110  221.8360 N   0  0  0  0  0  0  0  0  0  0  0  0
  138.6700   76.6730  221.5150 C   0  0  0  0  0  0  0  0  0  0  0  0
  138.1820   77.4840  222.7160 C   0  0  0  0  0  0  0  0  0  0  0  0
  139.1730   78.5610  222.9730 C   0  0  0  0  0  0  0  0  0  0  0  0
  138.7340   79.7860  223.4590 C   0  0  0  0  0  0  0  0  0  0  0  0
  139.6230   80.8280  223.7140 C   0  0  0  0  0  0  0  0  0  0  0  0
  140.9680   80.6110  223.4710 C   0  0  0  0  0  0  0  0  0  0  0  0
  141.3710   79.3880  222.9910 C   0  0  0  0  0  0  0  0  0  0  0  0
  140.4940   78.3450  222.7340 C   0  0  0  0  0  0  0  0  0  0  0  0
  141.0830   77.0900  222.2200 C   0  0  0  0  0  0  0  0  0  0  0  0
  139.6660   73.9380  222.6160 N   0  0  0  0  0  0  0  0  0  0  0  0
  140.9470   71.8500  225.8400 C   0  0  0  0  0  0  0  0  0  0  0  0
  141.1910   72.0140  227.2000 C   0  0  0  0  0  0  0  0  0  0  0  0
  140.8997   71.1484  229.1408 H   0  0  0  0  0  0  0  0  0  0  0  0
  139.6692   69.1767  228.3152 H   0  0  0  0  0  0  0  0  0  0  0  0
  139.2403   68.8998  225.8677 H   0  0  0  0  0  0  0  0  0  0  0  0
  140.9591   70.5151  223.3958 H   0  0  0  0  0  0  0  0  0  0  0  0
  139.4383   69.6493  223.7612 H   0  0  0  0  0  0  0  0  0  0  0  0
  138.2800   71.8870  223.7660 H   0  0  0  0  0  0  0  0  0  0  0  0
  144.1107   73.1420  218.9557 H   0  0  0  0  0  0  0  0  0  0  0  0
  143.9890   73.4022  220.7050 H   0  0  0  0  0  0  0  0  0  0  0  0
  145.4135   71.3968  219.9149 H   0  0  0  0  0  0  0  0  0  0  0  0
  144.1388   71.0589  221.1640 H   0  0  0  0  0  0  0  0  0  0  0  0
  142.6307   68.0106  218.5856 H   0  0  0  0  0  0  0  0  0  0  0  0
  143.6637   65.7601  218.6181 H   0  0  0  0  0  0  0  0  0  0  0  0
  146.0498   65.5520  219.3738 H   0  0  0  0  0  0  0  0  0  0  0  0
  147.2946   67.6030  220.0626 H   0  0  0  0  0  0  0  0  0  0  0  0
  142.9863   70.5181  217.3757 H   0  0  0  0  0  0  0  0  0  0  0  0
  141.9399   69.6878  218.6467 H   0  0  0  0  0  0  0  0  0  0  0  0
  141.9389   72.4096  217.7375 H   0  0  0  0  0  0  0  0  0  0  0  0
  140.7813   71.4863  218.7824 H   0  0  0  0  0  0  0  0  0  0  0  0
  138.6952   77.3060  220.6157 H   0  0  0  0  0  0  0  0  0  0  0  0
  137.9974   75.8269  221.3107 H   0  0  0  0  0  0  0  0  0  0  0  0
  137.1992   77.9256  222.4943 H   0  0  0  0  0  0  0  0  0  0  0  0
  138.0815   76.8370  223.5999 H   0  0  0  0  0  0  0  0  0  0  0  0
  137.6607   79.9367  223.6467 H   0  0  0  0  0  0  0  0  0  0  0  0
  139.2661   81.7953  224.0974 H   0  0  0  0  0  0  0  0  0  0  0  0
  141.7042   81.4063  223.6594 H   0  0  0  0  0  0  0  0  0  0  0  0
  142.4427   79.2284  222.8012 H   0  0  0  0  0  0  0  0  0  0  0  0
  141.7163   77.3056  221.3469 H   0  0  0  0  0  0  0  0  0  0  0  0
  141.7036   76.6152  222.9942 H   0  0  0  0  0  0  0  0  0  0  0  0
  141.3047   72.6045  225.1239 H   0  0  0  0  0  0  0  0  0  0  0  0
  141.7402   72.8892  227.5775 H   0  0  0  0  0  0  0  0  0  0  0  0
  1  2  2  0
  2  3  1  0
  3  4  2  0
  4  5  1  0
  5  6  1  0
  6  7  1  0
  7  8  2  0
  8  9  1  0
  9 10  1  0
 10 11  1  0
 11 12  1  0
 12 13  1  0
 13 14  1  0
 14 15  2  0
 15 16  1  0
 16 17  2  0
 17 18  1  0
 18 19  2  0
 13 20  1  0
 20 21  1  0
  9 22  2  0
 22 23  1  0
 23 24  1  0
 24 25  1  0
 25 26  1  0
 26 27  1  0
 27 28  2  0
 28 29  1  0
 29 30  2  0
 30 31  1  0
 31 32  2  0
 32 33  1  0
 23 34  2  0
  4 35  1  0
 35 36  2  0
 36  1  1  0
 34  7  1  0
 21 10  1  0
 33 24  1  0
 19 14  1  0
 32 27  1  0
  1 37  1  0
  2 38  1  0
  3 39  1  0
  5 40  1  0
  5 41  1  0
  6 42  1  0
 11 43  1  0
 11 44  1  0
 12 45  1  0
 12 46  1  0
 15 47  1  0
 16 48  1  0
 17 49  1  0
 18 50  1  0
 20 51  1  0
 20 52  1  0
 21 53  1  0
 21 54  1  0
 25 55  1  0
 25 56  1  0
 26 57  1  0
 26 58  1  0
 28 59  1  0
 29 60  1  0
 30 61  1  0
 31 62  1  0
 33 63  1  0
 33 64  1  0
 35 65  1  0
 36 66  1  0
M  END
>  <smiles>  (3) 
c1ccc(CNc2nc(N3CCN(c4ccccn4)CC3)nc(N3CCc4ccccc4C3)n2)cc1

>  <score_type>  (3) 
oracle

>  <origin>  (3) 
autodockgpu

>  <m_score__min__energy>  (3) 
-10.789999999999999

>  <m_primary>  (3) 
energy

>  <rmsd>  (3) 
6.64540228133148

>  <m_score__min__rmsd>  (3) 
6.64540228133148

>  <meeko>  (3) 
{"free_energy": -10.57, "intermolecular_energy": -12.36, "internal_energy": -1.15, "cluster_size": 49, "cluster_id": 1, "rank_in_cluster": 19}

>  <energy>  (3) 
-10.69

>  <cluster_rmsd>  (3) 
0.46

>  <cluster>  (3) 
1

$$$$

     RDKit          3D

 66 71  0  0  0  0  0  0  0  0999 V2000
  144.6890   74.7100  220.3240 C   0  0  0  0  0  0  0  0  0  0  0  0
  144.9910   73.6890  221.2080 C   0  0  0  0  0  0  0  0  0  0  0  0
  144.5440   72.4020  220.9650 C   0  0  0  0  0  0  0  0  0  0  0  0
  143.7960   72.1830  219.8220 C   0  0  0  0  0  0  0  0  0  0  0  0
  143.3190   70.8020  219.5630 C   0  0  0  0  0  0  0  0  0  0  0  0
  141.8810   70.8160  219.5570 N   0  0  0  0  0  0  0  0  0  0  0  0
  141.2120   71.6310  220.5200 C   0  0  0  0  0  0  0  0  0  0  0  0
  140.9200   72.9090  220.2420 N   0  0  0  0  0  0  0  0  0  0  0  0
  140.2920   73.7180  221.1140 C   0  0  0  0  0  0  0  0  0  0  0  0
  139.9830   75.0730  220.8250 N   0  0  0  0  0  0  0  0  0  0  0  0
  138.9370   75.8160  221.5070 C   0  0  0  0  0  0  0  0  0  0  0  0
  139.6350   76.8700  222.3280 C   0  0  0  0  0  0  0  0  0  0  0  0
  140.6820   77.5190  221.5960 N   0  0  0  0  0  0  0  0  0  0  0  0
  141.3090   78.6510  222.2320 C   0  0  0  0  0  0  0  0  0  0  0  0
  141.6250   78.6490  223.5780 C   0  0  0  0  0  0  0  0  0  0  0  0
  142.2250   79.7210  224.2100 C   0  0  0  0  0  0  0  0  0  0  0  0
  142.5170   80.8390  223.4420 C   0  0  0  0  0  0  0  0  0  0  0  0
  142.2010   80.8400  222.0910 C   0  0  0  0  0  0  0  0  0  0  0  0
  141.6210   79.7680  221.5480 N   0  0  0  0  0  0  0  0  0  0  0  0
  141.1650   77.1530  220.3030 C   0  0  0  0  0  0  0  0  0  0  0  0
  140.7170   75.8220  219.7980 C   0  0  0  0  0  0  0  0  0  0  0  0
  139.9420   73.2280  222.3110 N   0  0  0  0  0  0  0  0  0  0  0  0
  140.2200   71.9300  222.6360 C   0  0  0  0  0  0  0  0  0  0  0  0
  139.8470   71.3970  223.9180 N   0  0  0  0  0  0  0  0  0  0  0  0
  138.6240   70.6310  224.0120 C   0  0  0  0  0  0  0  0  0  0  0  0
  138.9960   69.2760  224.6140 C   0  0  0  0  0  0  0  0  0  0  0  0
  139.6810   69.5240  225.9100 C   0  0  0  0  0  0  0  0  0  0  0  0
  139.5140   68.6180  226.9500 C   0  0  0  0  0  0  0  0  0  0  0  0
  140.1320   68.8060  228.1840 C   0  0  0  0  0  0  0  0  0  0  0  0
  140.9260   69.9270  228.3500 C   0  0  0  0  0  0  0  0  0  0  0  0
  141.0720   70.8050  227.3020 C   0  0  0  0  0  0  0  0  0  0  0  0
  140.4610   70.6260  226.0700 C   0  0  0  0  0  0  0  0  0  0  0  0
  140.7160   71.6580  225.0430 C   0  0  0  0  0  0  0  0  0  0  0  0
  140.8540   71.1630  221.7220 N   0  0  0  0  0  0  0  0  0  0  0  0
  143.4940   73.1920  218.9410 C   0  0  0  0  0  0  0  0  0  0  0  0
  143.9420   74.4880  219.1820 C   0  0  0  0  0  0  0  0  0  0  0  0
  145.0533   75.7261  220.5358 H   0  0  0  0  0  0  0  0  0  0  0  0
  145.5884   73.9011  222.1069 H   0  0  0  0  0  0  0  0  0  0  0  0
  144.7759   71.5799  221.6581 H   0  0  0  0  0  0  0  0  0  0  0  0
  143.6919   70.4562  218.5876 H   0  0  0  0  0  0  0  0  0  0  0  0
  143.6887   70.1202  220.3431 H   0  0  0  0  0  0  0  0  0  0  0  0
  141.3260   70.2630  218.8870 H   0  0  0  0  0  0  0  0  0  0  0  0
  138.2645   76.2867  220.7747 H   0  0  0  0  0  0  0  0  0  0  0  0
  138.3247   75.1564  222.1394 H   0  0  0  0  0  0  0  0  0  0  0  0
  138.8972   77.6254  222.6364 H   0  0  0  0  0  0  0  0  0  0  0  0
  140.0882   76.3749  223.1995 H   0  0  0  0  0  0  0  0  0  0  0  0
  141.3881   77.7541  224.1721 H   0  0  0  0  0  0  0  0  0  0  0  0
  142.4627   79.6893  225.2835 H   0  0  0  0  0  0  0  0  0  0  0  0
  142.9950   81.7173  223.9004 H   0  0  0  0  0  0  0  0  0  0  0  0
  142.4274   81.7199  221.4708 H   0  0  0  0  0  0  0  0  0  0  0  0
  140.8275   77.9171  219.5873 H   0  0  0  0  0  0  0  0  0  0  0  0
  142.2586   77.0846  220.3996 H   0  0  0  0  0  0  0  0  0  0  0  0
  140.0603   75.9728  218.9285 H   0  0  0  0  0  0  0  0  0  0  0  0
  141.6092   75.2414  219.5208 H   0  0  0  0  0  0  0  0  0  0  0  0
  137.9022   71.1483  224.6611 H   0  0  0  0  0  0  0  0  0  0  0  0
  138.1581   70.5087  223.0230 H   0  0  0  0  0  0  0  0  0  0  0  0
  138.0873   68.6787  224.7799 H   0  0  0  0  0  0  0  0  0  0  0  0
  139.6570   68.7220  223.9312 H   0  0  0  0  0  0  0  0  0  0  0  0
  138.8797   67.7327  226.7954 H   0  0  0  0  0  0  0  0  0  0  0  0
  139.9929   68.0845  229.0026 H   0  0  0  0  0  0  0  0  0  0  0  0
  141.4337   70.1133  229.3079 H   0  0  0  0  0  0  0  0  0  0  0  0
  141.7045   71.6930  227.4480 H   0  0  0  0  0  0  0  0  0  0  0  0
  140.5025   72.6551  225.4555 H   0  0  0  0  0  0  0  0  0  0  0  0
  141.7689   71.6279  224.7260 H   0  0  0  0  0  0  0  0  0  0  0  0
  142.8968   72.9759  218.0428 H   0  0  0  0  0  0  0  0  0  0  0  0
  143.7093   75.3081  218.4869 H   0  0  0  0  0  0  0  0  0  0  0  0
  1  2  2  0
  2  3  1  0
  3  4  2  0
  4  5  1  0
  5  6  1  0
  6  7  1  0
  7  8  2  0
  8  9  1  0
  9 10  1  0
 10 11  1  0
 11 12  1  0
 12 13  1  0
 13 14  1  0
 14 15  2  0
 15 16  1  0
 16 17  2  0
 17 18  1  0
 18 19  2  0
 13 20  1  0
 20 21  1  0
  9 22  2  0
 22 23  1  0
 23 24  1  0
 24 25  1  0
 25 26  1  0
 26 27  1  0
 27 28  2  0
 28 29  1  0
 29 30  2  0
 30 31  1  0
 31 32  2  0
 32 33  1  0
 23 34  2  0
  4 35  1  0
 35 36  2  0
 36  1  1  0
 34  7  1  0
 21 10  1  0
 33 24  1  0
 19 14  1  0
 32 27  1  0
  1 37  1  0
  2 38  1  0
  3 39  1  0
  5 40  1  0
  5 41  1  0
  6 42  1  0
 11 43  1  0
 11 44  1  0
 12 45  1  0
 12 46  1  0
 15 47  1  0
 16 48  1  0
 17 49  1  0
 18 50  1  0
 20 51  1  0
 20 52  1  0
 21 53  1  0
 21 54  1  0
 25 55  1  0
 25 56  1  0
 26 57  1  0
 26 58  1  0
 28 59  1  0
 29 60  1  0
 30 61  1  0
 31 62  1  0
 33 63  1  0
 33 64  1  0
 35 65  1  0
 36 66  1  0
M  END
>  <smiles>  (4) 
c1ccc(CNc2nc(N3CCN(c4ccccn4)CC3)nc(N3CCc4ccccc4C3)n2)cc1

>  <score_type>  (4) 
oracle

>  <origin>  (4) 
autodockgpu

>  <m_score__min__energy>  (4) 
-10.789999999999999

>  <m_primary>  (4) 
energy

>  <rmsd>  (4) 
7.745305037221341

>  <m_score__min__rmsd>  (4) 
7.745305037221341

>  <meeko>  (4) 
{"free_energy": -9.9, "intermolecular_energy": -11.69, "internal_energy": -1.73, "cluster_size": 49, "cluster_id": 1, "rank_in_cluster": 45}

>  <energy>  (4) 
-10.68

>  <cluster_rmsd>  (4) 
1.79

>  <cluster>  (4) 
1

$$$$

     RDKit          3D

 66 71  0  0  0  0  0  0  0  0999 V2000
  140.6700   70.8750  227.7390 C   0  0  0  0  0  0  0  0  0  0  0  0
  139.9620   69.8210  227.1890 C   0  0  0  0  0  0  0  0  0  0  0  0
  139.7260   69.7780  225.8260 C   0  0  0  0  0  0  0  0  0  0  0  0
  140.2190   70.8120  225.0510 C   0  0  0  0  0  0  0  0  0  0  0  0
  139.9660   70.7620  223.5900 C   0  0  0  0  0  0  0  0  0  0  0  0
  139.3230   71.9880  223.2010 N   0  0  0  0  0  0  0  0  0  0  0  0
  140.0250   72.8640  222.3170 C   0  0  0  0  0  0  0  0  0  0  0  0
  140.8940   72.3720  221.4260 N   0  0  0  0  0  0  0  0  0  0  0  0
  141.5800   73.1540  220.5710 C   0  0  0  0  0  0  0  0  0  0  0  0
  142.5050   72.6380  219.6260 N   0  0  0  0  0  0  0  0  0  0  0  0
  143.9450   72.7540  219.7740 C   0  0  0  0  0  0  0  0  0  0  0  0
  144.4590   71.3560  220.0080 C   0  0  0  0  0  0  0  0  0  0  0  0
  143.8550   70.4040  219.1250 N   0  0  0  0  0  0  0  0  0  0  0  0
  144.3880   69.0640  219.1560 C   0  0  0  0  0  0  0  0  0  0  0  0
  145.7440   68.8220  219.2690 C   0  0  0  0  0  0  0  0  0  0  0  0
  146.2790   67.5480  219.3000 C   0  0  0  0  0  0  0  0  0  0  0  0
  145.3990   66.4790  219.2120 C   0  0  0  0  0  0  0  0  0  0  0  0
  144.0380   66.7230  219.1000 C   0  0  0  0  0  0  0  0  0  0  0  0
  143.5930   67.9800  219.0760 N   0  0  0  0  0  0  0  0  0  0  0  0
  142.7760   70.6500  218.2210 C   0  0  0  0  0  0  0  0  0  0  0  0
  142.0520   71.9410  218.4150 C   0  0  0  0  0  0  0  0  0  0  0  0
  141.3850   74.4790  220.6120 N   0  0  0  0  0  0  0  0  0  0  0  0
  140.5060   75.0230  221.5060 C   0  0  0  0  0  0  0  0  0  0  0  0
  140.2920   76.4430  221.5560 N   0  0  0  0  0  0  0  0  0  0  0  0
  138.9320   76.9280  221.6330 C   0  0  0  0  0  0  0  0  0  0  0  0
  138.8520   77.8270  222.8660 C   0  0  0  0  0  0  0  0  0  0  0  0
  139.8870   78.8850  222.7280 C   0  0  0  0  0  0  0  0  0  0  0  0
  139.6360   80.1520  223.2400 C   0  0  0  0  0  0  0  0  0  0  0  0
  140.5720   81.1780  223.1350 C   0  0  0  0  0  0  0  0  0  0  0  0
  141.7710   80.9020  222.5020 C   0  0  0  0  0  0  0  0  0  0  0  0
  141.9910   79.6390  222.0060 C   0  0  0  0  0  0  0  0  0  0  0  0
  141.0650   78.6120  222.1060 C   0  0  0  0  0  0  0  0  0  0  0  0
  141.4490   77.3080  221.5230 C   0  0  0  0  0  0  0  0  0  0  0  0
  139.8460   74.1910  222.3410 N   0  0  0  0  0  0  0  0  0  0  0  0
  140.9220   71.8600  225.5920 C   0  0  0  0  0  0  0  0  0  0  0  0
  141.1620   71.9080  226.9630 C   0  0  0  0  0  0  0  0  0  0  0  0
  140.8464   70.8914  228.8246 H   0  0  0  0  0  0  0  0  0  0  0  0
  139.5859   69.0154  227.8367 H   0  0  0  0  0  0  0  0  0  0  0  0
  139.1641   68.9477  225.3734 H   0  0  0  0  0  0  0  0  0  0  0  0
  140.9188   70.6544  223.0510 H   0  0  0  0  0  0  0  0  0  0  0  0
  139.3237   69.9030  223.3457 H   0  0  0  0  0  0  0  0  0  0  0  0
  138.3840   72.2510  223.5360 H   0  0  0  0  0  0  0  0  0  0  0  0
  144.3893   73.1754  218.8602 H   0  0  0  0  0  0  0  0  0  0  0  0
  144.2093   73.4223  220.6067 H   0  0  0  0  0  0  0  0  0  0  0  0
  145.5473   71.3471  219.8481 H   0  0  0  0  0  0  0  0  0  0  0  0
  144.2041   71.0701  221.0392 H   0  0  0  0  0  0  0  0  0  0  0  0
  146.4275   69.6811  219.3373 H   0  0  0  0  0  0  0  0  0  0  0  0
  147.3634   67.3874  219.3912 H   0  0  0  0  0  0  0  0  0  0  0  0
  145.7774   65.4463  219.2309 H   0  0  0  0  0  0  0  0  0  0  0  0
  143.3296   65.8842  219.0314 H   0  0  0  0  0  0  0  0  0  0  0  0
  143.1823   70.6404  217.1988 H   0  0  0  0  0  0  0  0  0  0  0  0
  142.0364   69.8589  218.4138 H   0  0  0  0  0  0  0  0  0  0  0  0
  142.2330   72.5864  217.5428 H   0  0  0  0  0  0  0  0  0  0  0  0
  140.9798   71.7212  218.5251 H   0  0  0  0  0  0  0  0  0  0  0  0
  138.6834   77.5028  220.7287 H   0  0  0  0  0  0  0  0  0  0  0  0
  138.2193   76.0934  221.7067 H   0  0  0  0  0  0  0  0  0  0  0  0
  137.8544   78.2861  222.9297 H   0  0  0  0  0  0  0  0  0  0  0  0
  139.0239   77.2398  223.7801 H   0  0  0  0  0  0  0  0  0  0  0  0
  138.6761   80.3493  223.7397 H   0  0  0  0  0  0  0  0  0  0  0  0
  140.3642   82.1781  223.5432 H   0  0  0  0  0  0  0  0  0  0  0  0
  142.5383   81.6832  222.3970 H   0  0  0  0  0  0  0  0  0  0  0  0
  142.9485   79.4331  221.5053 H   0  0  0  0  0  0  0  0  0  0  0  0
  141.7806   77.4475  220.4835 H   0  0  0  0  0  0  0  0  0  0  0  0
  142.2745   76.8622  222.0973 H   0  0  0  0  0  0  0  0  0  0  0  0
  141.2966   72.6637  224.9410 H   0  0  0  0  0  0  0  0  0  0  0  0
  141.7240   72.7396  227.4132 H   0  0  0  0  0  0  0  0  0  0  0  0
  1  2  2  0
  2  3  1  0
  3  4  2  0
  4  5  1  0
  5  6  1  0
  6  7  1  0
  7  8  2  0
  8  9  1  0
  9 10  1  0
 10 11  1  0
 11 12  1  0
 12 13  1  0
 13 14  1  0
 14 15  2  0
 15 16  1  0
 16 17  2  0
 17 18  1  0
 18 19  2  0
 13 20  1  0
 20 21  1  0
  9 22  2  0
 22 23  1  0
 23 24  1  0
 24 25  1  0
 25 26  1  0
 26 27  1  0
 27 28  2  0
 28 29  1  0
 29 30  2  0
 30 31  1  0
 31 32  2  0
 32 33  1  0
 23 34  2  0
  4 35  1  0
 35 36  2  0
 36  1  1  0
 34  7  1  0
 21 10  1  0
 33 24  1  0
 19 14  1  0
 32 27  1  0
  1 37  1  0
  2 38  1  0
  3 39  1  0
  5 40  1  0
  5 41  1  0
  6 42  1  0
 11 43  1  0
 11 44  1  0
 12 45  1  0
 12 46  1  0
 15 47  1  0
 16 48  1  0
 17 49  1  0
 18 50  1  0
 20 51  1  0
 20 52  1  0
 21 53  1  0
 21 54  1  0
 25 55  1  0
 25 56  1  0
 26 57  1  0
 26 58  1  0
 28 59  1  0
 29 60  1  0
 30 61  1  0
 31 62  1  0
 33 63  1  0
 33 64  1  0
 35 65  1  0
 36 66  1  0
M  END
>  <smiles>  (5) 
c1ccc(CNc2nc(N3CCN(c4ccccn4)CC3)nc(N3CCc4ccccc4C3)n2)cc1

>  <score_type>  (5) 
oracle

>  <origin>  (5) 
autodockgpu

>  <m_score__min__energy>  (5) 
-10.789999999999999

>  <m_primary>  (5) 
energy

>  <rmsd>  (5) 
6.9244656432384435

>  <m_score__min__rmsd>  (5) 
6.9244656432384435

>  <meeko>  (5) 
{"free_energy": -10.08, "intermolecular_energy": -11.87, "internal_energy": -1.14, "cluster_size": 49, "cluster_id": 1, "rank_in_cluster": 37}

>  <energy>  (5) 
-10.66

>  <cluster_rmsd>  (5) 
1.79

>  <cluster>  (5) 
1

$$$$

     RDKit          3D

 66 71  0  0  0  0  0  0  0  0999 V2000
  140.7700   71.0310  228.3200 C   0  0  0  0  0  0  0  0  0  0  0  0
  140.1760   69.8980  227.7920 C   0  0  0  0  0  0  0  0  0  0  0  0
  140.0180   69.7690  226.4230 C   0  0  0  0  0  0  0  0  0  0  0  0
  140.4720   70.7980  225.6200 C   0  0  0  0  0  0  0  0  0  0  0  0
  140.3030   70.6560  224.1530 C   0  0  0  0  0  0  0  0  0  0  0  0
  139.8000   71.8990  223.6330 N   0  0  0  0  0  0  0  0  0  0  0  0
  140.4570   72.4680  222.5000 C   0  0  0  0  0  0  0  0  0  0  0  0
  140.2260   73.7400  222.1500 N   0  0  0  0  0  0  0  0  0  0  0  0
  140.8190   74.3230  221.0920 C   0  0  0  0  0  0  0  0  0  0  0  0
  140.5760   75.6700  220.7150 N   0  0  0  0  0  0  0  0  0  0  0  0
  139.3800   76.4010  221.0970 C   0  0  0  0  0  0  0  0  0  0  0  0
  139.8300   77.4740  222.0560 C   0  0  0  0  0  0  0  0  0  0  0  0
  141.0200   78.1340  221.6090 N   0  0  0  0  0  0  0  0  0  0  0  0
  141.4470   79.2820  222.3690 C   0  0  0  0  0  0  0  0  0  0  0  0
  141.1160   80.5700  221.9950 C   0  0  0  0  0  0  0  0  0  0  0  0
  141.5140   81.6860  222.7060 C   0  0  0  0  0  0  0  0  0  0  0  0
  142.2800   81.4820  223.8450 C   0  0  0  0  0  0  0  0  0  0  0  0
  142.6110   80.1880  224.2220 C   0  0  0  0  0  0  0  0  0  0  0  0
  142.1910   79.1590  223.4850 N   0  0  0  0  0  0  0  0  0  0  0  0
  141.8230   77.7650  220.4870 C   0  0  0  0  0  0  0  0  0  0  0  0
  141.5380   76.4220  219.9010 C   0  0  0  0  0  0  0  0  0  0  0  0
  141.6770   73.6030  220.3570 N   0  0  0  0  0  0  0  0  0  0  0  0
  141.9420   72.3010  220.6780 C   0  0  0  0  0  0  0  0  0  0  0  0
  142.8620   71.5230  219.8950 N   0  0  0  0  0  0  0  0  0  0  0  0
  143.8960   72.2180  219.1620 C   0  0  0  0  0  0  0  0  0  0  0  0
  145.2300   71.6120  219.5990 C   0  0  0  0  0  0  0  0  0  0  0  0
  145.1680   70.1470  219.3580 C   0  0  0  0  0  0  0  0  0  0  0  0
  146.3240   69.4690  218.9900 C   0  0  0  0  0  0  0  0  0  0  0  0
  146.3180   68.0970  218.7500 C   0  0  0  0  0  0  0  0  0  0  0  0
  145.1210   67.4170  218.8910 C   0  0  0  0  0  0  0  0  0  0  0  0
  143.9940   68.1150  219.2550 C   0  0  0  0  0  0  0  0  0  0  0  0
  143.9910   69.4810  219.4960 C   0  0  0  0  0  0  0  0  0  0  0  0
  142.6980   70.0870  219.8820 C   0  0  0  0  0  0  0  0  0  0  0  0
  141.3170   71.7680  221.7510 N   0  0  0  0  0  0  0  0  0  0  0  0
  141.0620   71.9250  226.1380 C   0  0  0  0  0  0  0  0  0  0  0  0
  141.2230   72.0600  227.5140 C   0  0  0  0  0  0  0  0  0  0  0  0
  140.8851   71.1156  229.4107 H   0  0  0  0  0  0  0  0  0  0  0  0
  139.8285   69.0979  228.4621 H   0  0  0  0  0  0  0  0  0  0  0  0
  139.5460   68.8757  225.9880 H   0  0  0  0  0  0  0  0  0  0  0  0
  141.2723   70.4235  223.6879 H   0  0  0  0  0  0  0  0  0  0  0  0
  139.5996   69.8401  223.9302 H   0  0  0  0  0  0  0  0  0  0  0  0
  138.9910   72.3850  224.0480 H   0  0  0  0  0  0  0  0  0  0  0  0
  138.9109   76.8539  220.2111 H   0  0  0  0  0  0  0  0  0  0  0  0
  138.6354   75.7367  221.5600 H   0  0  0  0  0  0  0  0  0  0  0  0
  139.0274   78.2196  222.1555 H   0  0  0  0  0  0  0  0  0  0  0  0
  140.0519   76.9938  223.0205 H   0  0  0  0  0  0  0  0  0  0  0  0
  140.5078   80.7138  221.0898 H   0  0  0  0  0  0  0  0  0  0  0  0
  141.2339   82.6989  222.3811 H   0  0  0  0  0  0  0  0  0  0  0  0
  142.6220   82.3388  224.4441 H   0  0  0  0  0  0  0  0  0  0  0  0
  143.2163   80.0122  225.1235 H   0  0  0  0  0  0  0  0  0  0  0  0
  141.6690   78.5171  219.6992 H   0  0  0  0  0  0  0  0  0  0  0  0
  142.8563   77.7159  220.8609 H   0  0  0  0  0  0  0  0  0  0  0  0
  141.1241   76.5541  218.8905 H   0  0  0  0  0  0  0  0  0  0  0  0
  142.4795   75.8540  219.8690 H   0  0  0  0  0  0  0  0  0  0  0  0
  143.7527   72.0782  218.0804 H   0  0  0  0  0  0  0  0  0  0  0  0
  143.8671   73.2984  219.3668 H   0  0  0  0  0  0  0  0  0  0  0  0
  146.0502   72.0526  219.0132 H   0  0  0  0  0  0  0  0  0  0  0  0
  145.4131   71.8173  220.6640 H   0  0  0  0  0  0  0  0  0  0  0  0
  147.2652   70.0287  218.8859 H   0  0  0  0  0  0  0  0  0  0  0  0
  147.2377   67.5695  218.4570 H   0  0  0  0  0  0  0  0  0  0  0  0
  145.0720   66.3324  218.7142 H   0  0  0  0  0  0  0  0  0  0  0  0
  143.0483   67.5632  219.3603 H   0  0  0  0  0  0  0  0  0  0  0  0
  141.9226   69.8067  219.1539 H   0  0  0  0  0  0  0  0  0  0  0  0
  142.3907   69.7292  220.8757 H   0  0  0  0  0  0  0  0  0  0  0  0
  141.4080   72.7226  225.4641 H   0  0  0  0  0  0  0  0  0  0  0  0
  141.6947   72.9549  227.9460 H   0  0  0  0  0  0  0  0  0  0  0  0
  1  2  2  0
  2  3  1  0
  3  4  2  0
  4  5  1  0
  5  6  1  0
  6  7  1  0
  7  8  2  0
  8  9  1  0
  9 10  1  0
 10 11  1  0
 11 12  1  0
 12 13  1  0
 13 14  1  0
 14 15  2  0
 15 16  1  0
 16 17  2  0
 17 18  1  0
 18 19  2  0
 13 20  1  0
 20 21  1  0
  9 22  2  0
 22 23  1  0
 23 24  1  0
 24 25  1  0
 25 26  1  0
 26 27  1  0
 27 28  2  0
 28 29  1  0
 29 30  2  0
 30 31  1  0
 31 32  2  0
 32 33  1  0
 23 34  2  0
  4 35  1  0
 35 36  2  0
 36  1  1  0
 34  7  1  0
 21 10  1  0
 33 24  1  0
 19 14  1  0
 32 27  1  0
  1 37  1  0
  2 38  1  0
  3 39  1  0
  5 40  1  0
  5 41  1  0
  6 42  1  0
 11 43  1  0
 11 44  1  0
 12 45  1  0
 12 46  1  0
 15 47  1  0
 16 48  1  0
 17 49  1  0
 18 50  1  0
 20 51  1  0
 20 52  1  0
 21 53  1  0
 21 54  1  0
 25 55  1  0
 25 56  1  0
 26 57  1  0
 26 58  1  0
 28 59  1  0
 29 60  1  0
 30 61  1  0
 31 62  1  0
 33 63  1  0
 33 64  1  0
 35 65  1  0
 36 66  1  0
M  END
>  <smiles>  (6) 
c1ccc(CNc2nc(N3CCN(c4ccccn4)CC3)nc(N3CCc4ccccc4C3)n2)cc1

>  <score_type>  (6) 
oracle

>  <origin>  (6) 
autodockgpu

>  <m_score__min__energy>  (6) 
-10.789999999999999

>  <m_primary>  (6) 
energy

>  <rmsd>  (6) 
8.310849515751167

>  <m_score__min__rmsd>  (6) 
8.310849515751167

>  <meeko>  (6) 
{"free_energy": -10.54, "intermolecular_energy": -12.33, "internal_energy": -1.1, "cluster_size": 49, "cluster_id": 1, "rank_in_cluster": 20}

>  <energy>  (6) 
-10.66

>  <cluster_rmsd>  (6) 
1.8

>  <cluster>  (6) 
1

$$$$

     RDKit          3D

 66 71  0  0  0  0  0  0  0  0999 V2000
  140.7540   71.3110  228.3530 C   0  0  0  0  0  0  0  0  0  0  0  0
  141.3330   72.1430  227.4120 C   0  0  0  0  0  0  0  0  0  0  0  0
  141.1780   71.8820  226.0620 C   0  0  0  0  0  0  0  0  0  0  0  0
  140.4330   70.7750  225.6990 C   0  0  0  0  0  0  0  0  0  0  0  0
  140.2680   70.4980  224.2510 C   0  0  0  0  0  0  0  0  0  0  0  0
  139.4190   71.5160  223.6910 N   0  0  0  0  0  0  0  0  0  0  0  0
  139.9750   72.3870  222.7060 C   0  0  0  0  0  0  0  0  0  0  0  0
  140.7490   71.8990  221.7280 N   0  0  0  0  0  0  0  0  0  0  0  0
  141.2970   72.6770  220.7760 C   0  0  0  0  0  0  0  0  0  0  0  0
  142.1200   72.1640  219.7390 N   0  0  0  0  0  0  0  0  0  0  0  0
  143.5480   72.4170  219.6560 C   0  0  0  0  0  0  0  0  0  0  0  0
  144.2260   71.0940  219.9080 C   0  0  0  0  0  0  0  0  0  0  0  0
  143.5950   70.0210  219.1980 N   0  0  0  0  0  0  0  0  0  0  0  0
  144.2570   68.7400  219.2420 C   0  0  0  0  0  0  0  0  0  0  0  0
  143.6380   67.5840  218.8080 C   0  0  0  0  0  0  0  0  0  0  0  0
  144.2500   66.3460  218.8400 C   0  0  0  0  0  0  0  0  0  0  0  0
  145.5460   66.2820  219.3330 C   0  0  0  0  0  0  0  0  0  0  0  0
  146.1680   67.4440  219.7670 C   0  0  0  0  0  0  0  0  0  0  0  0
  145.5140   68.6050  219.7070 N   0  0  0  0  0  0  0  0  0  0  0  0
  142.3770   70.0940  218.4560 C   0  0  0  0  0  0  0  0  0  0  0  0
  141.5660   71.3290  218.6650 C   0  0  0  0  0  0  0  0  0  0  0  0
  141.0580   73.9950  220.8050 N   0  0  0  0  0  0  0  0  0  0  0  0
  140.2740   74.5360  221.7850 C   0  0  0  0  0  0  0  0  0  0  0  0
  140.0130   75.9480  221.8230 N   0  0  0  0  0  0  0  0  0  0  0  0
  138.6700   76.4050  221.5410 C   0  0  0  0  0  0  0  0  0  0  0  0
  138.2310   77.2510  222.7360 C   0  0  0  0  0  0  0  0  0  0  0  0
  139.2340   78.3330  222.9230 C   0  0  0  0  0  0  0  0  0  0  0  0
  138.8160   79.5730  223.3910 C   0  0  0  0  0  0  0  0  0  0  0  0
  139.7160   80.6190  223.5810 C   0  0  0  0  0  0  0  0  0  0  0  0
  141.0490   80.3910  223.2920 C   0  0  0  0  0  0  0  0  0  0  0  0
  141.4320   79.1540  222.8320 C   0  0  0  0  0  0  0  0  0  0  0  0
  140.5440   78.1060  222.6390 C   0  0  0  0  0  0  0  0  0  0  0  0
  141.1100   76.8350  222.1390 C   0  0  0  0  0  0  0  0  0  0  0  0
  139.7510   73.7070  222.7160 N   0  0  0  0  0  0  0  0  0  0  0  0
  139.8570   69.9450  226.6290 C   0  0  0  0  0  0  0  0  0  0  0  0
  140.0100   70.2040  227.9880 C   0  0  0  0  0  0  0  0  0  0  0  0
  140.8891   71.5361  229.4212 H   0  0  0  0  0  0  0  0  0  0  0  0
  141.9187   73.0152  227.7379 H   0  0  0  0  0  0  0  0  0  0  0  0
  141.6328   72.5342  225.3019 H   0  0  0  0  0  0  0  0  0  0  0  0
  141.2493   70.5171  223.7543 H   0  0  0  0  0  0  0  0  0  0  0  0
  139.8179   69.5052  224.1036 H   0  0  0  0  0  0  0  0  0  0  0  0
  138.4360   71.6330  223.9760 H   0  0  0  0  0  0  0  0  0  0  0  0
  143.8106   72.7957  218.6572 H   0  0  0  0  0  0  0  0  0  0  0  0
  143.8637   73.1746  220.3884 H   0  0  0  0  0  0  0  0  0  0  0  0
  145.2747   71.1655  219.5839 H   0  0  0  0  0  0  0  0  0  0  0  0
  144.1547   70.8764  220.9839 H   0  0  0  0  0  0  0  0  0  0  0  0
  142.6112   67.6523  218.4193 H   0  0  0  0  0  0  0  0  0  0  0  0
  143.7291   65.4435  218.4875 H   0  0  0  0  0  0  0  0  0  0  0  0
  146.0752   65.3188  219.3792 H   0  0  0  0  0  0  0  0  0  0  0  0
  147.1953   67.4079  220.1586 H   0  0  0  0  0  0  0  0  0  0  0  0
  142.6281   70.0313  217.3869 H   0  0  0  0  0  0  0  0  0  0  0  0
  141.7551   69.2617  218.8172 H   0  0  0  0  0  0  0  0  0  0  0  0
  141.5536   71.9103  217.7312 H   0  0  0  0  0  0  0  0  0  0  0  0
  140.5482   71.0277  218.9535 H   0  0  0  0  0  0  0  0  0  0  0  0
  138.6614   77.0121  220.6237 H   0  0  0  0  0  0  0  0  0  0  0  0
  137.9883   75.5555  221.3872 H   0  0  0  0  0  0  0  0  0  0  0  0
  137.2410   77.6888  222.5405 H   0  0  0  0  0  0  0  0  0  0  0  0
  138.1641   76.6298  223.6413 H   0  0  0  0  0  0  0  0  0  0  0  0
  137.7511   79.7319  223.6163 H   0  0  0  0  0  0  0  0  0  0  0  0
  139.3763   81.5979  223.9502 H   0  0  0  0  0  0  0  0  0  0  0  0
  141.7931   81.1895  223.4286 H   0  0  0  0  0  0  0  0  0  0  0  0
  142.4954   78.9866  222.6056 H   0  0  0  0  0  0  0  0  0  0  0  0
  141.7091   77.0234  221.2359 H   0  0  0  0  0  0  0  0  0  0  0  0
  141.7594   76.3809  222.9020 H   0  0  0  0  0  0  0  0  0  0  0  0
  139.2731   69.0731  226.2991 H   0  0  0  0  0  0  0  0  0  0  0  0
  139.5544   69.5501  228.7462 H   0  0  0  0  0  0  0  0  0  0  0  0
  1  2  2  0
  2  3  1  0
  3  4  2  0
  4  5  1  0
  5  6  1  0
  6  7  1  0
  7  8  2  0
  8  9  1  0
  9 10  1  0
 10 11  1  0
 11 12  1  0
 12 13  1  0
 13 14  1  0
 14 15  2  0
 15 16  1  0
 16 17  2  0
 17 18  1  0
 18 19  2  0
 13 20  1  0
 20 21  1  0
  9 22  2  0
 22 23  1  0
 23 24  1  0
 24 25  1  0
 25 26  1  0
 26 27  1  0
 27 28  2  0
 28 29  1  0
 29 30  2  0
 30 31  1  0
 31 32  2  0
 32 33  1  0
 23 34  2  0
  4 35  1  0
 35 36  2  0
 36  1  1  0
 34  7  1  0
 21 10  1  0
 33 24  1  0
 19 14  1  0
 32 27  1  0
  1 37  1  0
  2 38  1  0
  3 39  1  0
  5 40  1  0
  5 41  1  0
  6 42  1  0
 11 43  1  0
 11 44  1  0
 12 45  1  0
 12 46  1  0
 15 47  1  0
 16 48  1  0
 17 49  1  0
 18 50  1  0
 20 51  1  0
 20 52  1  0
 21 53  1  0
 21 54  1  0
 25 55  1  0
 25 56  1  0
 26 57  1  0
 26 58  1  0
 28 59  1  0
 29 60  1  0
 30 61  1  0
 31 62  1  0
 33 63  1  0
 33 64  1  0
 35 65  1  0
 36 66  1  0
M  END
>  <smiles>  (7) 
c1ccc(CNc2nc(N3CCN(c4ccccn4)CC3)nc(N3CCc4ccccc4C3)n2)cc1

>  <score_type>  (7) 
oracle

>  <origin>  (7) 
autodockgpu

>  <m_score__min__energy>  (7) 
-10.789999999999999

>  <m_primary>  (7) 
energy

>  <rmsd>  (7) 
6.737520770644326

>  <m_score__min__rmsd>  (7) 
6.737520770644326

>  <meeko>  (7) 
{"free_energy": -10.58, "intermolecular_energy": -12.37, "internal_energy": -1.14, "cluster_size": 49, "cluster_id": 1, "rank_in_cluster": 18}

>  <energy>  (7) 
-10.65

>  <cluster_rmsd>  (7) 
1.79

>  <cluster>  (7) 
1

$$$$

     RDKit          3D

 66 71  0  0  0  0  0  0  0  0999 V2000
  140.6340   70.8310  227.7120 C   0  0  0  0  0  0  0  0  0  0  0  0
  139.9970   69.7460  227.1370 C   0  0  0  0  0  0  0  0  0  0  0  0
  139.7550   69.7210  225.7750 C   0  0  0  0  0  0  0  0  0  0  0  0
  140.1710   70.8060  225.0250 C   0  0  0  0  0  0  0  0  0  0  0  0
  139.9130   70.7760  223.5650 C   0  0  0  0  0  0  0  0  0  0  0  0
  139.2880   72.0170  223.1910 N   0  0  0  0  0  0  0  0  0  0  0  0
  140.0010   72.8910  222.3150 C   0  0  0  0  0  0  0  0  0  0  0  0
  140.8820   72.3980  221.4350 N   0  0  0  0  0  0  0  0  0  0  0  0
  141.5790   73.1790  220.5880 C   0  0  0  0  0  0  0  0  0  0  0  0
  142.5160   72.6620  219.6550 N   0  0  0  0  0  0  0  0  0  0  0  0
  143.9540   72.7750  219.8230 C   0  0  0  0  0  0  0  0  0  0  0  0
  144.4620   71.3760  220.0640 C   0  0  0  0  0  0  0  0  0  0  0  0
  143.8680   70.4250  219.1730 N   0  0  0  0  0  0  0  0  0  0  0  0
  144.3990   69.0850  219.2100 C   0  0  0  0  0  0  0  0  0  0  0  0
  145.7550   68.8400  219.3190 C   0  0  0  0  0  0  0  0  0  0  0  0
  146.2880   67.5660  219.3560 C   0  0  0  0  0  0  0  0  0  0  0  0
  145.4050   66.4980  219.2800 C   0  0  0  0  0  0  0  0  0  0  0  0
  144.0440   66.7440  219.1720 C   0  0  0  0  0  0  0  0  0  0  0  0
  143.6020   68.0020  219.1410 N   0  0  0  0  0  0  0  0  0  0  0  0
  142.8030   70.6730  218.2540 C   0  0  0  0  0  0  0  0  0  0  0  0
  142.0780   71.9650  218.4380 C   0  0  0  0  0  0  0  0  0  0  0  0
  141.3830   74.5040  220.6250 N   0  0  0  0  0  0  0  0  0  0  0  0
  140.4930   75.0490  221.5070 C   0  0  0  0  0  0  0  0  0  0  0  0
  140.2780   76.4690  221.5520 N   0  0  0  0  0  0  0  0  0  0  0  0
  138.9170   76.9540  221.6130 C   0  0  0  0  0  0  0  0  0  0  0  0
  138.8240   77.8550  222.8440 C   0  0  0  0  0  0  0  0  0  0  0  0
  139.8600   78.9130  222.7160 C   0  0  0  0  0  0  0  0  0  0  0  0
  139.6040   80.1810  223.2230 C   0  0  0  0  0  0  0  0  0  0  0  0
  140.5410   81.2070  223.1260 C   0  0  0  0  0  0  0  0  0  0  0  0
  141.7470   80.9300  222.5080 C   0  0  0  0  0  0  0  0  0  0  0  0
  141.9720   79.6660  222.0160 C   0  0  0  0  0  0  0  0  0  0  0  0
  141.0450   78.6390  222.1080 C   0  0  0  0  0  0  0  0  0  0  0  0
  141.4350   77.3340  221.5310 C   0  0  0  0  0  0  0  0  0  0  0  0
  139.8230   74.2180  222.3340 N   0  0  0  0  0  0  0  0  0  0  0  0
  140.8050   71.8860  225.5900 C   0  0  0  0  0  0  0  0  0  0  0  0
  141.0490   71.9150  226.9600 C   0  0  0  0  0  0  0  0  0  0  0  0
  140.8154   70.8316  228.7969 H   0  0  0  0  0  0  0  0  0  0  0  0
  139.6816   68.8998  227.7651 H   0  0  0  0  0  0  0  0  0  0  0  0
  139.2482   68.8659  225.3039 H   0  0  0  0  0  0  0  0  0  0  0  0
  140.8624   70.6592  223.0218 H   0  0  0  0  0  0  0  0  0  0  0  0
  139.2564   69.9301  223.3135 H   0  0  0  0  0  0  0  0  0  0  0  0
  138.3550   72.2900  223.5320 H   0  0  0  0  0  0  0  0  0  0  0  0
  144.4118   73.1956  218.9155 H   0  0  0  0  0  0  0  0  0  0  0  0
  144.2080   73.4427  220.6594 H   0  0  0  0  0  0  0  0  0  0  0  0
  145.5523   71.3649  219.9188 H   0  0  0  0  0  0  0  0  0  0  0  0
  144.1927   71.0907  221.0917 H   0  0  0  0  0  0  0  0  0  0  0  0
  146.4406   69.6981  219.3790 H   0  0  0  0  0  0  0  0  0  0  0  0
  147.3726   67.4040  219.4425 H   0  0  0  0  0  0  0  0  0  0  0  0
  145.7813   65.4647  219.3052 H   0  0  0  0  0  0  0  0  0  0  0  0
  143.3335   65.9064  219.1123 H   0  0  0  0  0  0  0  0  0  0  0  0
  143.2241   70.6633  217.2378 H   0  0  0  0  0  0  0  0  0  0  0  0
  142.0595   69.8830  218.4358 H   0  0  0  0  0  0  0  0  0  0  0  0
  142.2712   72.6099  217.5681 H   0  0  0  0  0  0  0  0  0  0  0  0
  141.0042   71.7465  218.5340 H   0  0  0  0  0  0  0  0  0  0  0  0
  138.6783   77.5274  220.7051 H   0  0  0  0  0  0  0  0  0  0  0  0
  138.2033   76.1196  221.6798 H   0  0  0  0  0  0  0  0  0  0  0  0
  137.8257   78.3140  222.8964 H   0  0  0  0  0  0  0  0  0  0  0  0
  138.9865   77.2689  223.7606 H   0  0  0  0  0  0  0  0  0  0  0  0
  138.6390   80.3792  223.7123 H   0  0  0  0  0  0  0  0  0  0  0  0
  140.3281   82.2081  223.5290 H   0  0  0  0  0  0  0  0  0  0  0  0
  142.5159   81.7106  222.4114 H   0  0  0  0  0  0  0  0  0  0  0  0
  142.9346   79.4594  221.5254 H   0  0  0  0  0  0  0  0  0  0  0  0
  141.7782   77.4722  220.4951 H   0  0  0  0  0  0  0  0  0  0  0  0
  142.2537   76.8888  222.1154 H   0  0  0  0  0  0  0  0  0  0  0  0
  141.1204   72.7295  224.9583 H   0  0  0  0  0  0  0  0  0  0  0  0
  141.5551   72.7717  227.4291 H   0  0  0  0  0  0  0  0  0  0  0  0
  1  2  2  0
  2  3  1  0
  3  4  2  0
  4  5  1  0
  5  6  1  0
  6  7  1  0
  7  8  2  0
  8  9  1  0
  9 10  1  0
 10 11  1  0
 11 12  1  0
 12 13  1  0
 13 14  1  0
 14 15  2  0
 15 16  1  0
 16 17  2  0
 17 18  1  0
 18 19  2  0
 13 20  1  0
 20 21  1  0
  9 22  2  0
 22 23  1  0
 23 24  1  0
 24 25  1  0
 25 26  1  0
 26 27  1  0
 27 28  2  0
 28 29  1  0
 29 30  2  0
 30 31  1  0
 31 32  2  0
 32 33  1  0
 23 34  2  0
  4 35  1  0
 35 36  2  0
 36  1  1  0
 34  7  1  0
 21 10  1  0
 33 24  1  0
 19 14  1  0
 32 27  1  0
  1 37  1  0
  2 38  1  0
  3 39  1  0
  5 40  1  0
  5 41  1  0
  6 42  1  0
 11 43  1  0
 11 44  1  0
 12 45  1  0
 12 46  1  0
 15 47  1  0
 16 48  1  0
 17 49  1  0
 18 50  1  0
 20 51  1  0
 20 52  1  0
 21 53  1  0
 21 54  1  0
 25 55  1  0
 25 56  1  0
 26 57  1  0
 26 58  1  0
 28 59  1  0
 29 60  1  0
 30 61  1  0
 31 62  1  0
 33 63  1  0
 33 64  1  0
 35 65  1  0
 36 66  1  0
M  END
>  <smiles>  (8) 
c1ccc(CNc2nc(N3CCN(c4ccccn4)CC3)nc(N3CCc4ccccc4C3)n2)cc1

>  <score_type>  (8) 
oracle

>  <origin>  (8) 
autodockgpu

>  <m_score__min__energy>  (8) 
-10.789999999999999

>  <m_primary>  (8) 
energy

>  <rmsd>  (8) 
6.907480852779321

>  <m_score__min__rmsd>  (8) 
6.907480852779321

>  <meeko>  (8) 
{"free_energy": -10.07, "intermolecular_energy": -11.86, "internal_energy": -1.14, "cluster_size": 49, "cluster_id": 1, "rank_in_cluster": 41}

>  <energy>  (8) 
-10.65

>  <cluster_rmsd>  (8) 
1.78

>  <cluster>  (8) 
1

$$$$

     RDKit          3D

 66 71  0  0  0  0  0  0  0  0999 V2000
  145.8710   74.1170  221.0040 C   0  0  0  0  0  0  0  0  0  0  0  0
  144.7830   74.7650  220.4460 C   0  0  0  0  0  0  0  0  0  0  0  0
  143.8610   74.0570  219.6950 C   0  0  0  0  0  0  0  0  0  0  0  0
  144.0670   72.6990  219.5300 C   0  0  0  0  0  0  0  0  0  0  0  0
  143.0760   71.9420  218.7260 C   0  0  0  0  0  0  0  0  0  0  0  0
  142.2250   71.2140  219.6280 N   0  0  0  0  0  0  0  0  0  0  0  0
  141.4640   71.9580  220.5810 C   0  0  0  0  0  0  0  0  0  0  0  0
  141.1100   73.2240  220.3270 N   0  0  0  0  0  0  0  0  0  0  0  0
  140.3930   73.9660  221.1920 C   0  0  0  0  0  0  0  0  0  0  0  0
  140.0170   75.3100  220.9280 N   0  0  0  0  0  0  0  0  0  0  0  0
  138.9760   76.0060  221.6640 C   0  0  0  0  0  0  0  0  0  0  0  0
  139.6710   77.0830  222.4600 C   0  0  0  0  0  0  0  0  0  0  0  0
  140.6550   77.7770  221.6840 N   0  0  0  0  0  0  0  0  0  0  0  0
  141.2660   78.9290  222.2990 C   0  0  0  0  0  0  0  0  0  0  0  0
  141.8270   78.8720  223.5600 C   0  0  0  0  0  0  0  0  0  0  0  0
  142.4180   79.9620  224.1700 C   0  0  0  0  0  0  0  0  0  0  0  0
  142.4400   81.1580  223.4670 C   0  0  0  0  0  0  0  0  0  0  0  0
  141.8780   81.2150  222.2000 C   0  0  0  0  0  0  0  0  0  0  0  0
  141.3240   80.1210  221.6750 N   0  0  0  0  0  0  0  0  0  0  0  0
  141.0900   77.4390  220.3670 C   0  0  0  0  0  0  0  0  0  0  0  0
  140.6720   76.0940  219.8730 C   0  0  0  0  0  0  0  0  0  0  0  0
  140.0180   73.4180  222.3550 N   0  0  0  0  0  0  0  0  0  0  0  0
  140.3580   72.1290  222.6550 C   0  0  0  0  0  0  0  0  0  0  0  0
  139.9590   71.5340  223.9000 N   0  0  0  0  0  0  0  0  0  0  0  0
  138.7830   70.6920  223.9110 C   0  0  0  0  0  0  0  0  0  0  0  0
  139.2100   69.3440  224.4930 C   0  0  0  0  0  0  0  0  0  0  0  0
  139.8150   69.5920  225.8270 C   0  0  0  0  0  0  0  0  0  0  0  0
  139.6560   68.6450  226.8320 C   0  0  0  0  0  0  0  0  0  0  0  0
  140.2010   68.8320  228.1000 C   0  0  0  0  0  0  0  0  0  0  0  0
  140.9140   69.9940  228.3370 C   0  0  0  0  0  0  0  0  0  0  0  0
  141.0550   70.9110  227.3230 C   0  0  0  0  0  0  0  0  0  0  0  0
  140.5150   70.7340  226.0580 C   0  0  0  0  0  0  0  0  0  0  0  0
  140.7550   71.8120  225.0750 C   0  0  0  0  0  0  0  0  0  0  0  0
  141.0790   71.4310  221.7500 N   0  0  0  0  0  0  0  0  0  0  0  0
  145.1450   72.0510  220.0820 C   0  0  0  0  0  0  0  0  0  0  0  0
  146.0750   72.7600  220.8370 C   0  0  0  0  0  0  0  0  0  0  0  0
  146.5933   74.6976  221.5966 H   0  0  0  0  0  0  0  0  0  0  0  0
  144.6506   75.8461  220.5998 H   0  0  0  0  0  0  0  0  0  0  0  0
  142.9920   74.5581  219.2437 H   0  0  0  0  0  0  0  0  0  0  0  0
  142.4726   72.6395  218.1265 H   0  0  0  0  0  0  0  0  0  0  0  0
  143.5907   71.2471  218.0461 H   0  0  0  0  0  0  0  0  0  0  0  0
  142.1480   70.1870  219.6070 H   0  0  0  0  0  0  0  0  0  0  0  0
  138.2514   76.4539  220.9680 H   0  0  0  0  0  0  0  0  0  0  0  0
  138.4207   75.3187  222.3192 H   0  0  0  0  0  0  0  0  0  0  0  0
  138.9197   77.8066  222.8091 H   0  0  0  0  0  0  0  0  0  0  0  0
  140.1844   76.6013  223.3052 H   0  0  0  0  0  0  0  0  0  0  0  0
  141.8021   77.9158  224.1031 H   0  0  0  0  0  0  0  0  0  0  0  0
  142.8552   79.8843  225.1764 H   0  0  0  0  0  0  0  0  0  0  0  0
  142.8993   82.0536  223.9107 H   0  0  0  0  0  0  0  0  0  0  0  0
  141.8891   82.1567  221.6316 H   0  0  0  0  0  0  0  0  0  0  0  0
  140.6885   78.1933  219.6744 H   0  0  0  0  0  0  0  0  0  0  0  0
  142.1888   77.4143  220.4111 H   0  0  0  0  0  0  0  0  0  0  0  0
  139.9697   76.2234  219.0363 H   0  0  0  0  0  0  0  0  0  0  0  0
  141.5725   75.5511  219.5498 H   0  0  0  0  0  0  0  0  0  0  0  0
  137.9997   71.1438  224.5373 H   0  0  0  0  0  0  0  0  0  0  0  0
  138.3739   70.5722  222.8969 H   0  0  0  0  0  0  0  0  0  0  0  0
  138.3335   68.6874  224.5966 H   0  0  0  0  0  0  0  0  0  0  0  0
  139.9366   68.8534  223.8286 H   0  0  0  0  0  0  0  0  0  0  0  0
  139.0871   67.7275  226.6212 H   0  0  0  0  0  0  0  0  0  0  0  0
  140.0685   68.0780  228.8899 H   0  0  0  0  0  0  0  0  0  0  0  0
  141.3621   70.1813  229.3240 H   0  0  0  0  0  0  0  0  0  0  0  0
  141.6241   71.8305  227.5248 H   0  0  0  0  0  0  0  0  0  0  0  0
  140.4600   72.7807  225.5045 H   0  0  0  0  0  0  0  0  0  0  0  0
  141.8219   71.8562  224.8108 H   0  0  0  0  0  0  0  0  0  0  0  0
  145.2736   70.9696  219.9271 H   0  0  0  0  0  0  0  0  0  0  0  0
  146.9440   72.2568  221.2861 H   0  0  0  0  0  0  0  0  0  0  0  0
  1  2  2  0
  2  3  1  0
  3  4  2  0
  4  5  1  0
  5  6  1  0
  6  7  1  0
  7  8  2  0
  8  9  1  0
  9 10  1  0
 10 11  1  0
 11 12  1  0
 12 13  1  0
 13 14  1  0
 14 15  2  0
 15 16  1  0
 16 17  2  0
 17 18  1  0
 18 19  2  0
 13 20  1  0
 20 21  1  0
  9 22  2  0
 22 23  1  0
 23 24  1  0
 24 25  1  0
 25 26  1  0
 26 27  1  0
 27 28  2  0
 28 29  1  0
 29 30  2  0
 30 31  1  0
 31 32  2  0
 32 33  1  0
 23 34  2  0
  4 35  1  0
 35 36  2  0
 36  1  1  0
 34  7  1  0
 21 10  1  0
 33 24  1  0
 19 14  1  0
 32 27  1  0
  1 37  1  0
  2 38  1  0
  3 39  1  0
  5 40  1  0
  5 41  1  0
  6 42  1  0
 11 43  1  0
 11 44  1  0
 12 45  1  0
 12 46  1  0
 15 47  1  0
 16 48  1  0
 17 49  1  0
 18 50  1  0
 20 51  1  0
 20 52  1  0
 21 53  1  0
 21 54  1  0
 25 55  1  0
 25 56  1  0
 26 57  1  0
 26 58  1  0
 28 59  1  0
 29 60  1  0
 30 61  1  0
 31 62  1  0
 33 63  1  0
 33 64  1  0
 35 65  1  0
 36 66  1  0
M  END
>  <smiles>  (9) 
c1ccc(CNc2nc(N3CCN(c4ccccn4)CC3)nc(N3CCc4ccccc4C3)n2)cc1

>  <score_type>  (9) 
oracle

>  <origin>  (9) 
autodockgpu

>  <m_score__min__energy>  (9) 
-10.789999999999999

>  <m_primary>  (9) 
energy

>  <rmsd>  (9) 
7.933740307501408

>  <m_score__min__rmsd>  (9) 
7.933740307501408

>  <meeko>  (9) 
{"free_energy": -10.49, "intermolecular_energy": -12.28, "internal_energy": -1.54, "cluster_size": 49, "cluster_id": 1, "rank_in_cluster": 22}

>  <energy>  (9) 
-10.64

>  <cluster_rmsd>  (9) 
1.78

>  <cluster>  (9) 
1

$$$$

     RDKit          3D

 66 71  0  0  0  0  0  0  0  0999 V2000
  144.8710   74.7940  220.4300 C   0  0  0  0  0  0  0  0  0  0  0  0
  145.2040   73.7280  221.2480 C   0  0  0  0  0  0  0  0  0  0  0  0
  144.7150   72.4630  220.9770 C   0  0  0  0  0  0  0  0  0  0  0  0
  143.8950   72.3090  219.8740 C   0  0  0  0  0  0  0  0  0  0  0  0
  143.3730   70.9510  219.5850 C   0  0  0  0  0  0  0  0  0  0  0  0
  141.9370   71.0200  219.5380 N   0  0  0  0  0  0  0  0  0  0  0  0
  141.2710   71.8170  220.5180 C   0  0  0  0  0  0  0  0  0  0  0  0
  140.9750   73.0980  220.2630 N   0  0  0  0  0  0  0  0  0  0  0  0
  140.3480   73.8910  221.1520 C   0  0  0  0  0  0  0  0  0  0  0  0
  140.0360   75.2510  220.8870 N   0  0  0  0  0  0  0  0  0  0  0  0
  138.9420   75.9570  221.5310 C   0  0  0  0  0  0  0  0  0  0  0  0
  139.5770   76.9950  222.4220 C   0  0  0  0  0  0  0  0  0  0  0  0
  140.6530   77.6800  221.7710 N   0  0  0  0  0  0  0  0  0  0  0  0
  141.2270   78.8000  222.4760 C   0  0  0  0  0  0  0  0  0  0  0  0
  142.5850   79.0540  222.4590 C   0  0  0  0  0  0  0  0  0  0  0  0
  143.1590   80.1190  223.1260 C   0  0  0  0  0  0  0  0  0  0  0  0
  142.3160   80.9600  223.8390 C   0  0  0  0  0  0  0  0  0  0  0  0
  140.9520   80.7060  223.8540 C   0  0  0  0  0  0  0  0  0  0  0  0
  140.4690   79.6570  223.1860 N   0  0  0  0  0  0  0  0  0  0  0  0
  141.2150   77.3620  220.4970 C   0  0  0  0  0  0  0  0  0  0  0  0
  140.8160   76.0410  219.9260 C   0  0  0  0  0  0  0  0  0  0  0  0
  140.0040   73.3800  222.3410 N   0  0  0  0  0  0  0  0  0  0  0  0
  140.2860   72.0770  222.6430 C   0  0  0  0  0  0  0  0  0  0  0  0
  139.9190   71.5210  223.9160 N   0  0  0  0  0  0  0  0  0  0  0  0
  138.7170   70.7210  223.9930 C   0  0  0  0  0  0  0  0  0  0  0  0
  139.1220   69.3710  224.5850 C   0  0  0  0  0  0  0  0  0  0  0  0
  139.7900   69.6250  225.8880 C   0  0  0  0  0  0  0  0  0  0  0  0
  139.6410   68.7050  226.9190 C   0  0  0  0  0  0  0  0  0  0  0  0
  140.2450   68.8980  228.1590 C   0  0  0  0  0  0  0  0  0  0  0  0
  141.0060   70.0390  228.3420 C   0  0  0  0  0  0  0  0  0  0  0  0
  141.1350   70.9300  227.3040 C   0  0  0  0  0  0  0  0  0  0  0  0
  140.5380   70.7470  226.0660 C   0  0  0  0  0  0  0  0  0  0  0  0
  140.7720   71.7960  225.0500 C   0  0  0  0  0  0  0  0  0  0  0  0
  140.9170   71.3270  221.7130 N   0  0  0  0  0  0  0  0  0  0  0  0
  143.5610   73.3630  219.0590 C   0  0  0  0  0  0  0  0  0  0  0  0
  144.0510   74.6380  219.3280 C   0  0  0  0  0  0  0  0  0  0  0  0
  145.2697   75.7923  220.6632 H   0  0  0  0  0  0  0  0  0  0  0  0
  145.8598   73.8876  222.1166 H   0  0  0  0  0  0  0  0  0  0  0  0
  144.9702   71.6065  221.6184 H   0  0  0  0  0  0  0  0  0  0  0  0
  143.7606   70.6018  218.6166 H   0  0  0  0  0  0  0  0  0  0  0  0
  143.6933   70.2473  220.3674 H   0  0  0  0  0  0  0  0  0  0  0  0
  141.3820   70.5180  218.8290 H   0  0  0  0  0  0  0  0  0  0  0  0
  138.3040   76.4408  220.7767 H   0  0  0  0  0  0  0  0  0  0  0  0
  138.3057   75.2694  222.1074 H   0  0  0  0  0  0  0  0  0  0  0  0
  138.8116   77.7305  222.7106 H   0  0  0  0  0  0  0  0  0  0  0  0
  139.9879   76.4792  223.3024 H   0  0  0  0  0  0  0  0  0  0  0  0
  143.2387   78.3777  221.8886 H   0  0  0  0  0  0  0  0  0  0  0  0
  144.2445   80.2940  223.0932 H   0  0  0  0  0  0  0  0  0  0  0  0
  142.7258   81.8208  224.3877 H   0  0  0  0  0  0  0  0  0  0  0  0
  140.2727   81.3659  224.4135 H   0  0  0  0  0  0  0  0  0  0  0  0
  140.9077   78.1440  219.7871 H   0  0  0  0  0  0  0  0  0  0  0  0
  142.3023   77.3053  220.6540 H   0  0  0  0  0  0  0  0  0  0  0  0
  140.2073   76.2103  219.0255 H   0  0  0  0  0  0  0  0  0  0  0  0
  141.7307   75.4809  219.6818 H   0  0  0  0  0  0  0  0  0  0  0  0
  137.9763   71.2119  224.6413 H   0  0  0  0  0  0  0  0  0  0  0  0
  138.2620   70.5957  222.9994 H   0  0  0  0  0  0  0  0  0  0  0  0
  138.2290   68.7472  224.7382 H   0  0  0  0  0  0  0  0  0  0  0  0
  139.8032   68.8422  223.9021 H   0  0  0  0  0  0  0  0  0  0  0  0
  139.0323   67.8041  226.7519 H   0  0  0  0  0  0  0  0  0  0  0  0
  140.1207   68.1646  228.9694 H   0  0  0  0  0  0  0  0  0  0  0  0
  141.5011   70.2302  229.3055 H   0  0  0  0  0  0  0  0  0  0  0  0
  141.7421   71.8334  227.4631 H   0  0  0  0  0  0  0  0  0  0  0  0
  140.5275   72.7829  225.4699 H   0  0  0  0  0  0  0  0  0  0  0  0
  141.8277   71.7986  224.7410 H   0  0  0  0  0  0  0  0  0  0  0  0
  142.9047   73.1992  218.1916 H   0  0  0  0  0  0  0  0  0  0  0  0
  143.7942   75.4928  218.6851 H   0  0  0  0  0  0  0  0  0  0  0  0
  1  2  2  0
  2  3  1  0
  3  4  2  0
  4  5  1  0
  5  6  1  0
  6  7  1  0
  7  8  2  0
  8  9  1  0
  9 10  1  0
 10 11  1  0
 11 12  1  0
 12 13  1  0
 13 14  1  0
 14 15  2  0
 15 16  1  0
 16 17  2  0
 17 18  1  0
 18 19  2  0
 13 20  1  0
 20 21  1  0
  9 22  2  0
 22 23  1  0
 23 24  1  0
 24 25  1  0
 25 26  1  0
 26 27  1  0
 27 28  2  0
 28 29  1  0
 29 30  2  0
 30 31  1  0
 31 32  2  0
 32 33  1  0
 23 34  2  0
  4 35  1  0
 35 36  2  0
 36  1  1  0
 34  7  1  0
 21 10  1  0
 33 24  1  0
 19 14  1  0
 32 27  1  0
  1 37  1  0
  2 38  1  0
  3 39  1  0
  5 40  1  0
  5 41  1  0
  6 42  1  0
 11 43  1  0
 11 44  1  0
 12 45  1  0
 12 46  1  0
 15 47  1  0
 16 48  1  0
 17 49  1  0
 18 50  1  0
 20 51  1  0
 20 52  1  0
 21 53  1  0
 21 54  1  0
 25 55  1  0
 25 56  1  0
 26 57  1  0
 26 58  1  0
 28 59  1  0
 29 60  1  0
 30 61  1  0
 31 62  1  0
 33 63  1  0
 33 64  1  0
 35 65  1  0
 36 66  1  0
M  END
>  <smiles>  (10) 
c1ccc(CNc2nc(N3CCN(c4ccccn4)CC3)nc(N3CCc4ccccc4C3)n2)cc1

>  <score_type>  (10) 
oracle

>  <origin>  (10) 
autodockgpu

>  <m_score__min__energy>  (10) 
-10.789999999999999

>  <m_primary>  (10) 
energy

>  <rmsd>  (10) 
7.90449161202035

>  <m_score__min__rmsd>  (10) 
7.90449161202035

>  <meeko>  (10) 
{"free_energy": -10.07, "intermolecular_energy": -11.86, "internal_energy": -1.67, "cluster_size": 49, "cluster_id": 1, "rank_in_cluster": 39}

>  <energy>  (10) 
-10.64

>  <cluster_rmsd>  (10) 
1.78

>  <cluster>  (10) 
1

$$$$

     RDKit          3D

 66 71  0  0  0  0  0  0  0  0999 V2000
  141.3420   80.1630  223.4700 C   0  0  0  0  0  0  0  0  0  0  0  0
  142.0580   79.0440  223.0840 C   0  0  0  0  0  0  0  0  0  0  0  0
  141.3960   77.8830  222.7240 C   0  0  0  0  0  0  0  0  0  0  0  0
  140.0130   77.8890  222.7640 C   0  0  0  0  0  0  0  0  0  0  0  0
  139.3060   76.6440  222.3770 C   0  0  0  0  0  0  0  0  0  0  0  0
  139.9910   76.0670  221.2510 N   0  0  0  0  0  0  0  0  0  0  0  0
  140.4150   74.7070  221.3470 C   0  0  0  0  0  0  0  0  0  0  0  0
  141.2400   74.1870  220.4290 N   0  0  0  0  0  0  0  0  0  0  0  0
  141.6690   72.9120  220.4750 C   0  0  0  0  0  0  0  0  0  0  0  0
  142.5410   72.3560  219.5020 N   0  0  0  0  0  0  0  0  0  0  0  0
  143.9850   72.5150  219.5410 C   0  0  0  0  0  0  0  0  0  0  0  0
  144.5520   71.1470  219.8290 C   0  0  0  0  0  0  0  0  0  0  0  0
  143.9140   70.1250  219.0530 N   0  0  0  0  0  0  0  0  0  0  0  0
  144.4860   68.8030  219.1320 C   0  0  0  0  0  0  0  0  0  0  0  0
  143.8010   67.6860  218.6950 C   0  0  0  0  0  0  0  0  0  0  0  0
  144.3260   66.4090  218.7600 C   0  0  0  0  0  0  0  0  0  0  0  0
  145.6000   66.2650  219.2920 C   0  0  0  0  0  0  0  0  0  0  0  0
  146.2880   67.3870  219.7300 C   0  0  0  0  0  0  0  0  0  0  0  0
  145.7160   68.5890  219.6350 N   0  0  0  0  0  0  0  0  0  0  0  0
  142.7700   70.2860  218.2140 C   0  0  0  0  0  0  0  0  0  0  0  0
  142.0260   71.5700  218.3740 C   0  0  0  0  0  0  0  0  0  0  0  0
  141.2570   72.1300  221.4810 N   0  0  0  0  0  0  0  0  0  0  0  0
  140.4150   72.6190  222.4400 C   0  0  0  0  0  0  0  0  0  0  0  0
  139.9690   71.7860  223.5220 N   0  0  0  0  0  0  0  0  0  0  0  0
  138.7970   70.9640  223.3140 C   0  0  0  0  0  0  0  0  0  0  0  0
  139.2060   69.5240  223.6280 C   0  0  0  0  0  0  0  0  0  0  0  0
  139.7560   69.4950  225.0080 C   0  0  0  0  0  0  0  0  0  0  0  0
  139.5600   68.3650  225.7930 C   0  0  0  0  0  0  0  0  0  0  0  0
  140.0530   68.2890  227.0940 C   0  0  0  0  0  0  0  0  0  0  0  0
  140.7510   69.3760  227.5900 C   0  0  0  0  0  0  0  0  0  0  0  0
  140.9280   70.4790  226.7890 C   0  0  0  0  0  0  0  0  0  0  0  0
  140.4410   70.5640  225.4930 C   0  0  0  0  0  0  0  0  0  0  0  0
  140.7150   71.8180  224.7590 C   0  0  0  0  0  0  0  0  0  0  0  0
  140.0160   73.9060  222.3430 N   0  0  0  0  0  0  0  0  0  0  0  0
  139.2980   78.9970  223.1470 C   0  0  0  0  0  0  0  0  0  0  0  0
  139.9600   80.1660  223.5090 C   0  0  0  0  0  0  0  0  0  0  0  0
  141.8871   81.0753  223.7537 H   0  0  0  0  0  0  0  0  0  0  0  0
  143.1573   79.0770  223.0631 H   0  0  0  0  0  0  0  0  0  0  0  0
  141.9513   76.9848  222.4161 H   0  0  0  0  0  0  0  0  0  0  0  0
  139.3119   75.9359  223.2187 H   0  0  0  0  0  0  0  0  0  0  0  0
  138.2622   76.8677  222.1117 H   0  0  0  0  0  0  0  0  0  0  0  0
  140.1810   76.5990  220.3890 H   0  0  0  0  0  0  0  0  0  0  0  0
  144.3541   72.8846  218.5729 H   0  0  0  0  0  0  0  0  0  0  0  0
  144.2872   73.2435  220.3078 H   0  0  0  0  0  0  0  0  0  0  0  0
  145.6267   71.1518  219.5943 H   0  0  0  0  0  0  0  0  0  0  0  0
  144.3768   70.9245  220.8919 H   0  0  0  0  0  0  0  0  0  0  0  0
  142.7924   67.8186  218.2765 H   0  0  0  0  0  0  0  0  0  0  0  0
  143.7553   65.5389  218.4033 H   0  0  0  0  0  0  0  0  0  0  0  0
  146.0605   65.2687  219.3657 H   0  0  0  0  0  0  0  0  0  0  0  0
  147.2985   67.2867  220.1529 H   0  0  0  0  0  0  0  0  0  0  0  0
  143.1052   70.2176  217.1686 H   0  0  0  0  0  0  0  0  0  0  0  0
  142.0672   69.4932  218.5097 H   0  0  0  0  0  0  0  0  0  0  0  0
  142.1293   72.1598  217.4512 H   0  0  0  0  0  0  0  0  0  0  0  0
  140.9703   71.3335  218.5729 H   0  0  0  0  0  0  0  0  0  0  0  0
  137.9867   71.2827  223.9862 H   0  0  0  0  0  0  0  0  0  0  0  0
  138.4301   71.0538  222.2809 H   0  0  0  0  0  0  0  0  0  0  0  0
  138.3288   68.8636  223.5615 H   0  0  0  0  0  0  0  0  0  0  0  0
  139.9605   69.1747  222.9078 H   0  0  0  0  0  0  0  0  0  0  0  0
  139.0034   67.5118  225.3781 H   0  0  0  0  0  0  0  0  0  0  0  0
  139.8920   67.3912  227.7088 H   0  0  0  0  0  0  0  0  0  0  0  0
  141.1587   69.3577  228.6115 H   0  0  0  0  0  0  0  0  0  0  0  0
  141.4834   71.3368  227.1960 H   0  0  0  0  0  0  0  0  0  0  0  0
  140.3980   72.6807  225.3634 H   0  0  0  0  0  0  0  0  0  0  0  0
  141.7914   71.9115  224.5527 H   0  0  0  0  0  0  0  0  0  0  0  0
  138.1988   78.9603  223.1677 H   0  0  0  0  0  0  0  0  0  0  0  0
  139.4022   81.0630  223.8161 H   0  0  0  0  0  0  0  0  0  0  0  0
  1  2  2  0
  2  3  1  0
  3  4  2  0
  4  5  1  0
  5  6  1  0
  6  7  1  0
  7  8  2  0
  8  9  1  0
  9 10  1  0
 10 11  1  0
 11 12  1  0
 12 13  1  0
 13 14  1  0
 14 15  2  0
 15 16  1  0
 16 17  2  0
 17 18  1  0
 18 19  2  0
 13 20  1  0
 20 21  1  0
  9 22  2  0
 22 23  1  0
 23 24  1  0
 24 25  1  0
 25 26  1  0
 26 27  1  0
 27 28  2  0
 28 29  1  0
 29 30  2  0
 30 31  1  0
 31 32  2  0
 32 33  1  0
 23 34  2  0
  4 35  1  0
 35 36  2  0
 36  1  1  0
 34  7  1  0
 21 10  1  0
 33 24  1  0
 19 14  1  0
 32 27  1  0
  1 37  1  0
  2 38  1  0
  3 39  1  0
  5 40  1  0
  5 41  1  0
  6 42  1  0
 11 43  1  0
 11 44  1  0
 12 45  1  0
 12 46  1  0
 15 47  1  0
 16 48  1  0
 17 49  1  0
 18 50  1  0
 20 51  1  0
 20 52  1  0
 21 53  1  0
 21 54  1  0
 25 55  1  0
 25 56  1  0
 26 57  1  0
 26 58  1  0
 28 59  1  0
 29 60  1  0
 30 61  1  0
 31 62  1  0
 33 63  1  0
 33 64  1  0
 35 65  1  0
 36 66  1  0
M  END
>  <smiles>  (11) 
c1ccc(CNc2nc(N3CCN(c4ccccn4)CC3)nc(N3CCc4ccccc4C3)n2)cc1

>  <score_type>  (11) 
oracle

>  <origin>  (11) 
autodockgpu

>  <m_score__min__energy>  (11) 
-10.789999999999999

>  <m_primary>  (11) 
energy

>  <rmsd>  (11) 
6.870758596909109

>  <m_score__min__rmsd>  (11) 
6.870758596909109

>  <meeko>  (11) 
{"free_energy": -10.24, "intermolecular_energy": -12.03, "internal_energy": -1.13, "cluster_size": 49, "cluster_id": 1, "rank_in_cluster": 32}

>  <energy>  (11) 
-10.63

>  <cluster_rmsd>  (11) 
1.79

>  <cluster>  (11) 
1

$$$$

     RDKit          3D

 66 71  0  0  0  0  0  0  0  0999 V2000
  145.7360   74.0980  220.9680 C   0  0  0  0  0  0  0  0  0  0  0  0
  144.6520   74.7210  220.3760 C   0  0  0  0  0  0  0  0  0  0  0  0
  143.7540   73.9880  219.6210 C   0  0  0  0  0  0  0  0  0  0  0  0
  143.9790   72.6310  219.4860 C   0  0  0  0  0  0  0  0  0  0  0  0
  143.0130   71.8470  218.6780 C   0  0  0  0  0  0  0  0  0  0  0  0
  142.1420   71.1390  219.5770 N   0  0  0  0  0  0  0  0  0  0  0  0
  141.4020   71.8990  220.5330 C   0  0  0  0  0  0  0  0  0  0  0  0
  141.0630   73.1690  220.2740 N   0  0  0  0  0  0  0  0  0  0  0  0
  140.3660   73.9270  221.1420 C   0  0  0  0  0  0  0  0  0  0  0  0
  140.0070   75.2740  220.8730 N   0  0  0  0  0  0  0  0  0  0  0  0
  138.9480   75.9720  221.5800 C   0  0  0  0  0  0  0  0  0  0  0  0
  139.6230   77.0410  222.4030 C   0  0  0  0  0  0  0  0  0  0  0  0
  140.6350   77.7330  221.6620 N   0  0  0  0  0  0  0  0  0  0  0  0
  141.2340   78.8780  222.3020 C   0  0  0  0  0  0  0  0  0  0  0  0
  141.7860   78.8020  223.5660 C   0  0  0  0  0  0  0  0  0  0  0  0
  142.3650   79.8850  224.2000 C   0  0  0  0  0  0  0  0  0  0  0  0
  142.3830   81.0940  223.5190 C   0  0  0  0  0  0  0  0  0  0  0  0
  141.8300   81.1700  222.2490 C   0  0  0  0  0  0  0  0  0  0  0  0
  141.2880   80.0820  221.7000 N   0  0  0  0  0  0  0  0  0  0  0  0
  141.1100   77.3990  220.3570 C   0  0  0  0  0  0  0  0  0  0  0  0
  140.7000   76.0590  219.8430 C   0  0  0  0  0  0  0  0  0  0  0  0
  139.9950   73.3910  222.3120 N   0  0  0  0  0  0  0  0  0  0  0  0
  140.3200   72.0990  222.6170 C   0  0  0  0  0  0  0  0  0  0  0  0
  139.9250   71.5170  223.8700 N   0  0  0  0  0  0  0  0  0  0  0  0
  138.7350   70.6970  223.8990 C   0  0  0  0  0  0  0  0  0  0  0  0
  139.1440   69.3450  224.4820 C   0  0  0  0  0  0  0  0  0  0  0  0
  139.7690   69.5880  225.8080 C   0  0  0  0  0  0  0  0  0  0  0  0
  139.6050   68.6500  226.8200 C   0  0  0  0  0  0  0  0  0  0  0  0
  140.1690   68.8320  228.0800 C   0  0  0  0  0  0  0  0  0  0  0  0
  140.9060   69.9820  228.3020 C   0  0  0  0  0  0  0  0  0  0  0  0
  141.0510   70.8920  227.2830 C   0  0  0  0  0  0  0  0  0  0  0  0
  140.4930   70.7180  226.0250 C   0  0  0  0  0  0  0  0  0  0  0  0
  140.7400   71.7870  225.0330 C   0  0  0  0  0  0  0  0  0  0  0  0
  141.0210   71.3850  221.7090 N   0  0  0  0  0  0  0  0  0  0  0  0
  145.0530   72.0060  220.0720 C   0  0  0  0  0  0  0  0  0  0  0  0
  145.9590   72.7400  220.8320 C   0  0  0  0  0  0  0  0  0  0  0  0
  146.4395   74.6990  221.5629 H   0  0  0  0  0  0  0  0  0  0  0  0
  144.5035   75.8031  220.5061 H   0  0  0  0  0  0  0  0  0  0  0  0
  142.8883   74.4699  219.1432 H   0  0  0  0  0  0  0  0  0  0  0  0
  142.4221   72.5246  218.0442 H   0  0  0  0  0  0  0  0  0  0  0  0
  143.5487   71.1365  218.0313 H   0  0  0  0  0  0  0  0  0  0  0  0
  142.0360   70.1140  219.5510 H   0  0  0  0  0  0  0  0  0  0  0  0
  138.2478   76.4274  220.8642 H   0  0  0  0  0  0  0  0  0  0  0  0
  138.3693   75.2843  222.2142 H   0  0  0  0  0  0  0  0  0  0  0  0
  138.8649   77.7672  222.7316 H   0  0  0  0  0  0  0  0  0  0  0  0
  140.1065   76.5525  223.2618 H   0  0  0  0  0  0  0  0  0  0  0  0
  141.7637   77.8360  224.0916 H   0  0  0  0  0  0  0  0  0  0  0  0
  142.7959   79.7920  225.2078 H   0  0  0  0  0  0  0  0  0  0  0  0
  142.8321   81.9848  223.9824 H   0  0  0  0  0  0  0  0  0  0  0  0
  141.8385   82.1220  221.6980 H   0  0  0  0  0  0  0  0  0  0  0  0
  140.7351   78.1592  219.6559 H   0  0  0  0  0  0  0  0  0  0  0  0
  142.2067   77.3675  220.4357 H   0  0  0  0  0  0  0  0  0  0  0  0
  140.0255   76.1968  218.9851 H   0  0  0  0  0  0  0  0  0  0  0  0
  141.6070   75.5122  219.5457 H   0  0  0  0  0  0  0  0  0  0  0  0
  137.9675   71.1658  224.5323 H   0  0  0  0  0  0  0  0  0  0  0  0
  138.3119   70.5800  222.8904 H   0  0  0  0  0  0  0  0  0  0  0  0
  138.2570   68.7049  224.5988 H   0  0  0  0  0  0  0  0  0  0  0  0
  139.8538   68.8383  223.8116 H   0  0  0  0  0  0  0  0  0  0  0  0
  139.0159   67.7426  226.6211 H   0  0  0  0  0  0  0  0  0  0  0  0
  140.0328   68.0841  228.8750 H   0  0  0  0  0  0  0  0  0  0  0  0
  141.3701   70.1653  229.2823 H   0  0  0  0  0  0  0  0  0  0  0  0
  141.6379   71.8025  227.4739 H   0  0  0  0  0  0  0  0  0  0  0  0
  140.4675   72.7630  225.4609 H   0  0  0  0  0  0  0  0  0  0  0  0
  141.8042   71.8111  224.7555 H   0  0  0  0  0  0  0  0  0  0  0  0
  145.1971   70.9235  219.9403 H   0  0  0  0  0  0  0  0  0  0  0  0
  146.8240   72.2558  221.3088 H   0  0  0  0  0  0  0  0  0  0  0  0
  1  2  2  0
  2  3  1  0
  3  4  2  0
  4  5  1  0
  5  6  1  0
  6  7  1  0
  7  8  2  0
  8  9  1  0
  9 10  1  0
 10 11  1  0
 11 12  1  0
 12 13  1  0
 13 14  1  0
 14 15  2  0
 15 16  1  0
 16 17  2  0
 17 18  1  0
 18 19  2  0
 13 20  1  0
 20 21  1  0
  9 22  2  0
 22 23  1  0
 23 24  1  0
 24 25  1  0
 25 26  1  0
 26 27  1  0
 27 28  2  0
 28 29  1  0
 29 30  2  0
 30 31  1  0
 31 32  2  0
 32 33  1  0
 23 34  2  0
  4 35  1  0
 35 36  2  0
 36  1  1  0
 34  7  1  0
 21 10  1  0
 33 24  1  0
 19 14  1  0
 32 27  1  0
  1 37  1  0
  2 38  1  0
  3 39  1  0
  5 40  1  0
  5 41  1  0
  6 42  1  0
 11 43  1  0
 11 44  1  0
 12 45  1  0
 12 46  1  0
 15 47  1  0
 16 48  1  0
 17 49  1  0
 18 50  1  0
 20 51  1  0
 20 52  1  0
 21 53  1  0
 21 54  1  0
 25 55  1  0
 25 56  1  0
 26 57  1  0
 26 58  1  0
 28 59  1  0
 29 60  1  0
 30 61  1  0
 31 62  1  0
 33 63  1  0
 33 64  1  0
 35 65  1  0
 36 66  1  0
M  END
>  <smiles>  (12) 
c1ccc(CNc2nc(N3CCN(c4ccccn4)CC3)nc(N3CCc4ccccc4C3)n2)cc1

>  <score_type>  (12) 
oracle

>  <origin>  (12) 
autodockgpu

>  <m_score__min__energy>  (12) 
-10.789999999999999

>  <m_primary>  (12) 
energy

>  <rmsd>  (12) 
7.882039026273906

>  <m_score__min__rmsd>  (12) 
7.882039026273906

>  <meeko>  (12) 
{"free_energy": -10.41, "intermolecular_energy": -12.2, "internal_energy": -1.54, "cluster_size": 49, "cluster_id": 1, "rank_in_cluster": 29}

>  <energy>  (12) 
-10.63

>  <cluster_rmsd>  (12) 
0.51

>  <cluster>  (12) 
1

$$$$

     RDKit          3D

 66 71  0  0  0  0  0  0  0  0999 V2000
  145.8240   74.0960  220.9920 C   0  0  0  0  0  0  0  0  0  0  0  0
  144.7090   74.7060  220.4460 C   0  0  0  0  0  0  0  0  0  0  0  0
  143.7980   73.9650  219.7140 C   0  0  0  0  0  0  0  0  0  0  0  0
  144.0440   72.6130  219.5550 C   0  0  0  0  0  0  0  0  0  0  0  0
  143.0650   71.8200  218.7720 C   0  0  0  0  0  0  0  0  0  0  0  0
  142.2530   71.0700  219.6910 N   0  0  0  0  0  0  0  0  0  0  0  0
  141.4770   71.7940  220.6470 C   0  0  0  0  0  0  0  0  0  0  0  0
  141.1120   73.0600  220.4060 N   0  0  0  0  0  0  0  0  0  0  0  0
  140.3810   73.7840  221.2730 C   0  0  0  0  0  0  0  0  0  0  0  0
  139.9930   75.1270  221.0230 N   0  0  0  0  0  0  0  0  0  0  0  0
  138.9850   75.8240  221.8020 C   0  0  0  0  0  0  0  0  0  0  0  0
  139.7130   76.9030  222.5640 C   0  0  0  0  0  0  0  0  0  0  0  0
  140.6630   77.5960  221.7450 N   0  0  0  0  0  0  0  0  0  0  0  0
  141.3000   78.7500  222.3300 C   0  0  0  0  0  0  0  0  0  0  0  0
  141.5800   79.8820  221.5890 C   0  0  0  0  0  0  0  0  0  0  0  0
  142.1900   81.0000  222.1250 C   0  0  0  0  0  0  0  0  0  0  0  0
  142.5290   80.9630  223.4710 C   0  0  0  0  0  0  0  0  0  0  0  0
  142.2470   79.8270  224.2150 C   0  0  0  0  0  0  0  0  0  0  0  0
  141.6550   78.7840  223.6280 N   0  0  0  0  0  0  0  0  0  0  0  0
  141.0410   77.2540  220.4110 C   0  0  0  0  0  0  0  0  0  0  0  0
  140.6020   75.9080  219.9380 C   0  0  0  0  0  0  0  0  0  0  0  0
  140.0010   73.2170  222.4270 N   0  0  0  0  0  0  0  0  0  0  0  0
  140.3520   71.9280  222.7130 C   0  0  0  0  0  0  0  0  0  0  0  0
  139.9480   71.3140  223.9480 N   0  0  0  0  0  0  0  0  0  0  0  0
  138.7630   70.4860  223.9460 C   0  0  0  0  0  0  0  0  0  0  0  0
  139.1750   69.1220  224.5000 C   0  0  0  0  0  0  0  0  0  0  0  0
  139.7860   69.3370  225.8370 C   0  0  0  0  0  0  0  0  0  0  0  0
  139.6180   68.3730  226.8240 C   0  0  0  0  0  0  0  0  0  0  0  0
  140.1680   68.5280  228.0940 C   0  0  0  0  0  0  0  0  0  0  0  0
  140.8960   69.6760  228.3510 C   0  0  0  0  0  0  0  0  0  0  0  0
  141.0450   70.6120  227.3560 C   0  0  0  0  0  0  0  0  0  0  0  0
  140.5010   70.4660  226.0880 C   0  0  0  0  0  0  0  0  0  0  0  0
  140.7500   71.5600  225.1250 C   0  0  0  0  0  0  0  0  0  0  0  0
  141.0870   71.2490  221.8060 N   0  0  0  0  0  0  0  0  0  0  0  0
  145.1490   72.0030  220.0950 C   0  0  0  0  0  0  0  0  0  0  0  0
  146.0680   72.7450  220.8320 C   0  0  0  0  0  0  0  0  0  0  0  0
  146.5365   74.7032  221.5697 H   0  0  0  0  0  0  0  0  0  0  0  0
  144.5460   75.7837  220.5942 H   0  0  0  0  0  0  0  0  0  0  0  0
  142.9071   74.4358  219.2728 H   0  0  0  0  0  0  0  0  0  0  0  0
  142.4295   72.4943  218.1791 H   0  0  0  0  0  0  0  0  0  0  0  0
  143.5908   71.1381  218.0875 H   0  0  0  0  0  0  0  0  0  0  0  0
  142.2130   70.0400  219.6810 H   0  0  0  0  0  0  0  0  0  0  0  0
  138.2303   76.2697  221.1373 H   0  0  0  0  0  0  0  0  0  0  0  0
  138.4595   75.1380  222.4826 H   0  0  0  0  0  0  0  0  0  0  0  0
  138.9770   77.6272  222.9431 H   0  0  0  0  0  0  0  0  0  0  0  0
  140.2627   76.4233  223.3872 H   0  0  0  0  0  0  0  0  0  0  0  0
  141.3048   79.8938  220.5240 H   0  0  0  0  0  0  0  0  0  0  0  0
  142.3993   81.8865  221.5082 H   0  0  0  0  0  0  0  0  0  0  0  0
  143.0174   81.8279  223.9435 H   0  0  0  0  0  0  0  0  0  0  0  0
  142.5095   79.7855  225.2824 H   0  0  0  0  0  0  0  0  0  0  0  0
  140.6105   78.0068  219.7343 H   0  0  0  0  0  0  0  0  0  0  0  0
  142.1407   77.2283  220.4086 H   0  0  0  0  0  0  0  0  0  0  0  0
  139.8642   76.0357  219.1321 H   0  0  0  0  0  0  0  0  0  0  0  0
  141.4872   75.3641  219.5768 H   0  0  0  0  0  0  0  0  0  0  0  0
  137.9867   70.9346  224.5833 H   0  0  0  0  0  0  0  0  0  0  0  0
  138.3502   70.3909  222.9308 H   0  0  0  0  0  0  0  0  0  0  0  0
  138.2910   68.4740  224.5930 H   0  0  0  0  0  0  0  0  0  0  0  0
  139.8939   68.6356  223.8243 H   0  0  0  0  0  0  0  0  0  0  0  0
  139.0373   67.4668  226.5968 H   0  0  0  0  0  0  0  0  0  0  0  0
  140.0278   67.7606  228.8695 H   0  0  0  0  0  0  0  0  0  0  0  0
  141.3500   69.8376  229.3398 H   0  0  0  0  0  0  0  0  0  0  0  0
  141.6238   71.5213  227.5755 H   0  0  0  0  0  0  0  0  0  0  0  0
  140.4672   72.5235  225.5741 H   0  0  0  0  0  0  0  0  0  0  0  0
  141.8165   71.5972  224.8582 H   0  0  0  0  0  0  0  0  0  0  0  0
  145.3087   70.9250  219.9450 H   0  0  0  0  0  0  0  0  0  0  0  0
  146.9583   72.2720  221.2721 H   0  0  0  0  0  0  0  0  0  0  0  0
  1  2  2  0
  2  3  1  0
  3  4  2  0
  4  5  1  0
  5  6  1  0
  6  7  1  0
  7  8  2  0
  8  9  1  0
  9 10  1  0
 10 11  1  0
 11 12  1  0
 12 13  1  0
 13 14  1  0
 14 15  2  0
 15 16  1  0
 16 17  2  0
 17 18  1  0
 18 19  2  0
 13 20  1  0
 20 21  1  0
  9 22  2  0
 22 23  1  0
 23 24  1  0
 24 25  1  0
 25 26  1  0
 26 27  1  0
 27 28  2  0
 28 29  1  0
 29 30  2  0
 30 31  1  0
 31 32  2  0
 32 33  1  0
 23 34  2  0
  4 35  1  0
 35 36  2  0
 36  1  1  0
 34  7  1  0
 21 10  1  0
 33 24  1  0
 19 14  1  0
 32 27  1  0
  1 37  1  0
  2 38  1  0
  3 39  1  0
  5 40  1  0
  5 41  1  0
  6 42  1  0
 11 43  1  0
 11 44  1  0
 12 45  1  0
 12 46  1  0
 15 47  1  0
 16 48  1  0
 17 49  1  0
 18 50  1  0
 20 51  1  0
 20 52  1  0
 21 53  1  0
 21 54  1  0
 25 55  1  0
 25 56  1  0
 26 57  1  0
 26 58  1  0
 28 59  1  0
 29 60  1  0
 30 61  1  0
 31 62  1  0
 33 63  1  0
 33 64  1  0
 35 65  1  0
 36 66  1  0
M  END
>  <smiles>  (13) 
c1ccc(CNc2nc(N3CCN(c4ccccn4)CC3)nc(N3CCc4ccccc4C3)n2)cc1

>  <score_type>  (13) 
oracle

>  <origin>  (13) 
autodockgpu

>  <m_score__min__energy>  (13) 
-10.789999999999999

>  <m_primary>  (13) 
energy

>  <rmsd>  (13) 
8.013435864793772

>  <m_score__min__rmsd>  (13) 
8.013435864793772

>  <meeko>  (13) 
{"free_energy": -10.47, "intermolecular_energy": -12.26, "internal_energy": -1.53, "cluster_size": 49, "cluster_id": 1, "rank_in_cluster": 25}

>  <energy>  (13) 
-10.63

>  <cluster_rmsd>  (13) 
1.82

>  <cluster>  (13) 
1

$$$$

     RDKit          3D

 66 71  0  0  0  0  0  0  0  0999 V2000
  145.9120   74.0920  220.9890 C   0  0  0  0  0  0  0  0  0  0  0  0
  144.7770   74.7220  220.5090 C   0  0  0  0  0  0  0  0  0  0  0  0
  143.8410   74.0110  219.7790 C   0  0  0  0  0  0  0  0  0  0  0  0
  144.0820   72.6680  219.5540 C   0  0  0  0  0  0  0  0  0  0  0  0
  143.0760   71.9080  218.7720 C   0  0  0  0  0  0  0  0  0  0  0  0
  142.2620   71.1590  219.6910 N   0  0  0  0  0  0  0  0  0  0  0  0
  141.4810   71.8840  220.6420 C   0  0  0  0  0  0  0  0  0  0  0  0
  141.1180   73.1500  220.3970 N   0  0  0  0  0  0  0  0  0  0  0  0
  140.3820   73.8750  221.2600 C   0  0  0  0  0  0  0  0  0  0  0  0
  139.9970   75.2180  221.0060 N   0  0  0  0  0  0  0  0  0  0  0  0
  138.9840   75.9160  221.7780 C   0  0  0  0  0  0  0  0  0  0  0  0
  139.7080   76.9960  222.5430 C   0  0  0  0  0  0  0  0  0  0  0  0
  140.6620   77.6870  221.7300 N   0  0  0  0  0  0  0  0  0  0  0  0
  141.2970   78.8420  222.3170 C   0  0  0  0  0  0  0  0  0  0  0  0
  141.7300   78.8470  223.6290 C   0  0  0  0  0  0  0  0  0  0  0  0
  142.3400   79.9400  224.2140 C   0  0  0  0  0  0  0  0  0  0  0  0
  142.5160   81.0730  223.4320 C   0  0  0  0  0  0  0  0  0  0  0  0
  142.0810   81.0670  222.1150 C   0  0  0  0  0  0  0  0  0  0  0  0
  141.5000   79.9740  221.6170 N   0  0  0  0  0  0  0  0  0  0  0  0
  141.0490   77.3450  220.3980 C   0  0  0  0  0  0  0  0  0  0  0  0
  140.6120   75.9980  219.9240 C   0  0  0  0  0  0  0  0  0  0  0  0
  139.9970   73.3100  222.4120 N   0  0  0  0  0  0  0  0  0  0  0  0
  140.3450   72.0210  222.7020 C   0  0  0  0  0  0  0  0  0  0  0  0
  139.9350   71.4080  223.9350 N   0  0  0  0  0  0  0  0  0  0  0  0
  138.7580   70.5690  223.9240 C   0  0  0  0  0  0  0  0  0  0  0  0
  139.1770   69.2120  224.4880 C   0  0  0  0  0  0  0  0  0  0  0  0
  139.7720   69.4380  225.8310 C   0  0  0  0  0  0  0  0  0  0  0  0
  139.6020   68.4770  226.8200 C   0  0  0  0  0  0  0  0  0  0  0  0
  140.1380   68.6430  228.0950 C   0  0  0  0  0  0  0  0  0  0  0  0
  140.8520   69.7990  228.3550 C   0  0  0  0  0  0  0  0  0  0  0  0
  141.0030   70.7320  227.3570 C   0  0  0  0  0  0  0  0  0  0  0  0
  140.4730   70.5750  226.0850 C   0  0  0  0  0  0  0  0  0  0  0  0
  140.7220   71.6670  225.1200 C   0  0  0  0  0  0  0  0  0  0  0  0
  141.0850   71.3400  221.8000 N   0  0  0  0  0  0  0  0  0  0  0  0
  145.2060   72.0370  220.0270 C   0  0  0  0  0  0  0  0  0  0  0  0
  146.1500   72.7480  220.7620 C   0  0  0  0  0  0  0  0  0  0  0  0
  146.6444   74.6753  221.5663 H   0  0  0  0  0  0  0  0  0  0  0  0
  144.6184   75.7920  220.7086 H   0  0  0  0  0  0  0  0  0  0  0  0
  142.9346   74.4982  219.3903 H   0  0  0  0  0  0  0  0  0  0  0  0
  142.4460   72.6047  218.1996 H   0  0  0  0  0  0  0  0  0  0  0  0
  143.5779   71.2274  218.0686 H   0  0  0  0  0  0  0  0  0  0  0  0
  142.2250   70.1290  219.6840 H   0  0  0  0  0  0  0  0  0  0  0  0
  138.2334   76.3609  221.1082 H   0  0  0  0  0  0  0  0  0  0  0  0
  138.4540   75.2310  222.4561 H   0  0  0  0  0  0  0  0  0  0  0  0
  138.9699   77.7209  222.9168 H   0  0  0  0  0  0  0  0  0  0  0  0
  140.2527   76.5170  223.3699 H   0  0  0  0  0  0  0  0  0  0  0  0
  141.5826   77.9407  224.2346 H   0  0  0  0  0  0  0  0  0  0  0  0
  142.6741   79.9132  225.2617 H   0  0  0  0  0  0  0  0  0  0  0  0
  142.9965   81.9684  223.8532 H   0  0  0  0  0  0  0  0  0  0  0  0
  142.2143   81.9585  221.4845 H   0  0  0  0  0  0  0  0  0  0  0  0
  140.6228   78.0975  219.7182 H   0  0  0  0  0  0  0  0  0  0  0  0
  142.1487   77.3202  220.4015 H   0  0  0  0  0  0  0  0  0  0  0  0
  139.8787   76.1251  219.1140 H   0  0  0  0  0  0  0  0  0  0  0  0
  141.4992   75.4536  219.5684 H   0  0  0  0  0  0  0  0  0  0  0  0
  137.9708   71.0129  224.5511 H   0  0  0  0  0  0  0  0  0  0  0  0
  138.3567   70.4657  222.9050 H   0  0  0  0  0  0  0  0  0  0  0  0
  138.2983   68.5560  224.5744 H   0  0  0  0  0  0  0  0  0  0  0  0
  139.9078   68.7300  223.8220 H   0  0  0  0  0  0  0  0  0  0  0  0
  139.0315   67.5648  226.5911 H   0  0  0  0  0  0  0  0  0  0  0  0
  139.9976   67.8774  228.8722 H   0  0  0  0  0  0  0  0  0  0  0  0
  141.2934   69.9694  229.3480 H   0  0  0  0  0  0  0  0  0  0  0  0
  141.5716   71.6474  227.5778 H   0  0  0  0  0  0  0  0  0  0  0  0
  140.4250   72.6297  225.5617 H   0  0  0  0  0  0  0  0  0  0  0  0
  141.7910   71.7133  224.8647 H   0  0  0  0  0  0  0  0  0  0  0  0
  145.3607   70.9669  219.8245 H   0  0  0  0  0  0  0  0  0  0  0  0
  147.0552   72.2578  221.1496 H   0  0  0  0  0  0  0  0  0  0  0  0
  1  2  2  0
  2  3  1  0
  3  4  2  0
  4  5  1  0
  5  6  1  0
  6  7  1  0
  7  8  2  0
  8  9  1  0
  9 10  1  0
 10 11  1  0
 11 12  1  0
 12 13  1  0
 13 14  1  0
 14 15  2  0
 15 16  1  0
 16 17  2  0
 17 18  1  0
 18 19  2  0
 13 20  1  0
 20 21  1  0
  9 22  2  0
 22 23  1  0
 23 24  1  0
 24 25  1  0
 25 26  1  0
 26 27  1  0
 27 28  2  0
 28 29  1  0
 29 30  2  0
 30 31  1  0
 31 32  2  0
 32 33  1  0
 23 34  2  0
  4 35  1  0
 35 36  2  0
 36  1  1  0
 34  7  1  0
 21 10  1  0
 33 24  1  0
 19 14  1  0
 32 27  1  0
  1 37  1  0
  2 38  1  0
  3 39  1  0
  5 40  1  0
  5 41  1  0
  6 42  1  0
 11 43  1  0
 11 44  1  0
 12 45  1  0
 12 46  1  0
 15 47  1  0
 16 48  1  0
 17 49  1  0
 18 50  1  0
 20 51  1  0
 20 52  1  0
 21 53  1  0
 21 54  1  0
 25 55  1  0
 25 56  1  0
 26 57  1  0
 26 58  1  0
 28 59  1  0
 29 60  1  0
 30 61  1  0
 31 62  1  0
 33 63  1  0
 33 64  1  0
 35 65  1  0
 36 66  1  0
M  END
>  <smiles>  (14) 
c1ccc(CNc2nc(N3CCN(c4ccccn4)CC3)nc(N3CCc4ccccc4C3)n2)cc1

>  <score_type>  (14) 
oracle

>  <origin>  (14) 
autodockgpu

>  <m_score__min__energy>  (14) 
-10.789999999999999

>  <m_primary>  (14) 
energy

>  <rmsd>  (14) 
7.901761592450327

>  <m_score__min__rmsd>  (14) 
7.901761592450327

>  <meeko>  (14) 
{"free_energy": -10.48, "intermolecular_energy": -12.27, "internal_energy": -1.51, "cluster_size": 49, "cluster_id": 1, "rank_in_cluster": 24}

>  <energy>  (14) 
-10.62

>  <cluster_rmsd>  (14) 
1.78

>  <cluster>  (14) 
1

$$$$

     RDKit          3D

 66 71  0  0  0  0  0  0  0  0999 V2000
  140.9360   70.7580  228.2700 C   0  0  0  0  0  0  0  0  0  0  0  0
  140.5890   69.5690  227.6540 C   0  0  0  0  0  0  0  0  0  0  0  0
  140.3780   69.5280  226.2870 C   0  0  0  0  0  0  0  0  0  0  0  0
  140.5280   70.7030  225.5740 C   0  0  0  0  0  0  0  0  0  0  0  0
  140.3030   70.6560  224.1090 C   0  0  0  0  0  0  0  0  0  0  0  0
  139.9080   71.9680  223.6700 N   0  0  0  0  0  0  0  0  0  0  0  0
  140.5490   72.5110  222.5150 C   0  0  0  0  0  0  0  0  0  0  0  0
  140.3230   73.7790  222.1470 N   0  0  0  0  0  0  0  0  0  0  0  0
  140.9020   74.3370  221.0680 C   0  0  0  0  0  0  0  0  0  0  0  0
  140.6630   75.6800  220.6720 N   0  0  0  0  0  0  0  0  0  0  0  0
  139.4440   76.4010  220.9930 C   0  0  0  0  0  0  0  0  0  0  0  0
  139.8380   77.4840  221.9660 C   0  0  0  0  0  0  0  0  0  0  0  0
  141.0410   78.1530  221.5690 N   0  0  0  0  0  0  0  0  0  0  0  0
  141.4230   79.3100  222.3410 C   0  0  0  0  0  0  0  0  0  0  0  0
  141.0230   80.5850  221.9900 C   0  0  0  0  0  0  0  0  0  0  0  0
  141.3750   81.7090  222.7130 C   0  0  0  0  0  0  0  0  0  0  0  0
  142.1650   81.5270  223.8390 C   0  0  0  0  0  0  0  0  0  0  0  0
  142.5660   80.2460  224.1920 C   0  0  0  0  0  0  0  0  0  0  0  0
  142.1870   79.2080  223.4450 N   0  0  0  0  0  0  0  0  0  0  0  0
  141.9000   77.7860  220.4880 C   0  0  0  0  0  0  0  0  0  0  0  0
  141.6550   76.4370  219.8980 C   0  0  0  0  0  0  0  0  0  0  0  0
  141.7410   73.5970  220.3310 N   0  0  0  0  0  0  0  0  0  0  0  0
  142.0000   72.2990  220.6710 C   0  0  0  0  0  0  0  0  0  0  0  0
  142.8990   71.4980  219.8850 N   0  0  0  0  0  0  0  0  0  0  0  0
  143.9390   72.1700  219.1380 C   0  0  0  0  0  0  0  0  0  0  0  0
  145.2660   71.5440  219.5680 C   0  0  0  0  0  0  0  0  0  0  0  0
  145.1760   70.0780  219.3380 C   0  0  0  0  0  0  0  0  0  0  0  0
  146.3170   69.3780  218.9650 C   0  0  0  0  0  0  0  0  0  0  0  0
  146.2850   68.0040  218.7360 C   0  0  0  0  0  0  0  0  0  0  0  0
  145.0770   67.3470  218.8920 C   0  0  0  0  0  0  0  0  0  0  0  0
  143.9660   68.0670  219.2610 C   0  0  0  0  0  0  0  0  0  0  0  0
  143.9890   69.4340  219.4920 C   0  0  0  0  0  0  0  0  0  0  0  0
  142.7110   70.0650  219.8840 C   0  0  0  0  0  0  0  0  0  0  0  0
  141.3900   71.7900  221.7630 N   0  0  0  0  0  0  0  0  0  0  0  0
  140.8720   71.8870  226.1800 C   0  0  0  0  0  0  0  0  0  0  0  0
  141.0850   71.9330  227.5550 C   0  0  0  0  0  0  0  0  0  0  0  0
  141.0979   70.7696  229.3580 H   0  0  0  0  0  0  0  0  0  0  0  0
  140.4804   68.6528  228.2530 H   0  0  0  0  0  0  0  0  0  0  0  0
  140.0998   68.5903  225.7836 H   0  0  0  0  0  0  0  0  0  0  0  0
  141.2310   70.3571  223.5996 H   0  0  0  0  0  0  0  0  0  0  0  0
  139.5176   69.9240  223.8696 H   0  0  0  0  0  0  0  0  0  0  0  0
  139.1870   72.5200  224.1570 H   0  0  0  0  0  0  0  0  0  0  0  0
  139.0127   76.8444  220.0834 H   0  0  0  0  0  0  0  0  0  0  0  0
  138.6850   75.7319  221.4245 H   0  0  0  0  0  0  0  0  0  0  0  0
  139.0243   78.2219  222.0241 H   0  0  0  0  0  0  0  0  0  0  0  0
  140.0192   77.0123  222.9431 H   0  0  0  0  0  0  0  0  0  0  0  0
  140.3962   80.7112  221.0949 H   0  0  0  0  0  0  0  0  0  0  0  0
  141.0410   82.7114  222.4069 H   0  0  0  0  0  0  0  0  0  0  0  0
  142.4710   82.3910  224.4471 H   0  0  0  0  0  0  0  0  0  0  0  0
  143.1924   80.0878  225.0822 H   0  0  0  0  0  0  0  0  0  0  0  0
  141.7762   78.5321  219.6893 H   0  0  0  0  0  0  0  0  0  0  0  0
  142.9152   77.7497  220.9098 H   0  0  0  0  0  0  0  0  0  0  0  0
  141.2869   76.5592  218.8686 H   0  0  0  0  0  0  0  0  0  0  0  0
  142.6022   75.8780  219.9130 H   0  0  0  0  0  0  0  0  0  0  0  0
  143.7840   72.0251  218.0587 H   0  0  0  0  0  0  0  0  0  0  0  0
  143.9306   73.2521  219.3353 H   0  0  0  0  0  0  0  0  0  0  0  0
  146.0887   71.9659  218.9720 H   0  0  0  0  0  0  0  0  0  0  0  0
  145.4621   71.7537  220.6299 H   0  0  0  0  0  0  0  0  0  0  0  0
  147.2666   69.9207  218.8479 H   0  0  0  0  0  0  0  0  0  0  0  0
  147.1928   67.4578  218.4400 H   0  0  0  0  0  0  0  0  0  0  0  0
  145.0069   66.2623  218.7228 H   0  0  0  0  0  0  0  0  0  0  0  0
  143.0118   67.5326  219.3789 H   0  0  0  0  0  0  0  0  0  0  0  0
  141.9247   69.7927  219.1646 H   0  0  0  0  0  0  0  0  0  0  0  0
  142.4066   69.7201  220.8832 H   0  0  0  0  0  0  0  0  0  0  0  0
  140.9794   72.8009  225.5773 H   0  0  0  0  0  0  0  0  0  0  0  0
  141.3625   72.8721  228.0561 H   0  0  0  0  0  0  0  0  0  0  0  0
  1  2  2  0
  2  3  1  0
  3  4  2  0
  4  5  1  0
  5  6  1  0
  6  7  1  0
  7  8  2  0
  8  9  1  0
  9 10  1  0
 10 11  1  0
 11 12  1  0
 12 13  1  0
 13 14  1  0
 14 15  2  0
 15 16  1  0
 16 17  2  0
 17 18  1  0
 18 19  2  0
 13 20  1  0
 20 21  1  0
  9 22  2  0
 22 23  1  0
 23 24  1  0
 24 25  1  0
 25 26  1  0
 26 27  1  0
 27 28  2  0
 28 29  1  0
 29 30  2  0
 30 31  1  0
 31 32  2  0
 32 33  1  0
 23 34  2  0
  4 35  1  0
 35 36  2  0
 36  1  1  0
 34  7  1  0
 21 10  1  0
 33 24  1  0
 19 14  1  0
 32 27  1  0
  1 37  1  0
  2 38  1  0
  3 39  1  0
  5 40  1  0
  5 41  1  0
  6 42  1  0
 11 43  1  0
 11 44  1  0
 12 45  1  0
 12 46  1  0
 15 47  1  0
 16 48  1  0
 17 49  1  0
 18 50  1  0
 20 51  1  0
 20 52  1  0
 21 53  1  0
 21 54  1  0
 25 55  1  0
 25 56  1  0
 26 57  1  0
 26 58  1  0
 28 59  1  0
 29 60  1  0
 30 61  1  0
 31 62  1  0
 33 63  1  0
 33 64  1  0
 35 65  1  0
 36 66  1  0
M  END
>  <smiles>  (15) 
c1ccc(CNc2nc(N3CCN(c4ccccn4)CC3)nc(N3CCc4ccccc4C3)n2)cc1

>  <score_type>  (15) 
oracle

>  <origin>  (15) 
autodockgpu

>  <m_score__min__energy>  (15) 
-10.789999999999999

>  <m_primary>  (15) 
energy

>  <rmsd>  (15) 
8.315656286544984

>  <m_score__min__rmsd>  (15) 
8.315656286544984

>  <meeko>  (15) 
{"free_energy": -10.46, "intermolecular_energy": -12.25, "internal_energy": -1.09, "cluster_size": 49, "cluster_id": 1, "rank_in_cluster": 26}

>  <energy>  (15) 
-10.61

>  <cluster_rmsd>  (15) 
1.4

>  <cluster>  (15) 
1

$$$$

     RDKit          3D

 66 71  0  0  0  0  0  0  0  0999 V2000
  145.1420   74.6300  220.4620 C   0  0  0  0  0  0  0  0  0  0  0  0
  144.1700   74.5640  219.4790 C   0  0  0  0  0  0  0  0  0  0  0  0
  143.5270   73.3680  219.2140 C   0  0  0  0  0  0  0  0  0  0  0  0
  143.8900   72.2610  219.9580 C   0  0  0  0  0  0  0  0  0  0  0  0
  143.1980   70.9800  219.6720 C   0  0  0  0  0  0  0  0  0  0  0  0
  141.7960   71.2520  219.4990 N   0  0  0  0  0  0  0  0  0  0  0  0
  141.1240   71.9860  220.5230 C   0  0  0  0  0  0  0  0  0  0  0  0
  140.7840   73.2670  220.3280 N   0  0  0  0  0  0  0  0  0  0  0  0
  140.1490   74.0020  221.2600 C   0  0  0  0  0  0  0  0  0  0  0  0
  139.7890   75.3600  221.0580 N   0  0  0  0  0  0  0  0  0  0  0  0
  138.7720   76.0400  221.8420 C   0  0  0  0  0  0  0  0  0  0  0  0
  139.4970   77.0730  222.6680 C   0  0  0  0  0  0  0  0  0  0  0  0
  140.4780   77.7840  221.9040 N   0  0  0  0  0  0  0  0  0  0  0  0
  141.1180   78.9010  222.5540 C   0  0  0  0  0  0  0  0  0  0  0  0
  142.4900   79.0710  222.5290 C   0  0  0  0  0  0  0  0  0  0  0  0
  143.1270   80.1320  223.1440 C   0  0  0  0  0  0  0  0  0  0  0  0
  142.3360   81.0580  223.8110 C   0  0  0  0  0  0  0  0  0  0  0  0
  140.9590   80.8870  223.8340 C   0  0  0  0  0  0  0  0  0  0  0  0
  140.4140   79.8370  223.2170 N   0  0  0  0  0  0  0  0  0  0  0  0
  140.8850   77.4940  220.5660 C   0  0  0  0  0  0  0  0  0  0  0  0
  140.4370   76.1770  220.0250 C   0  0  0  0  0  0  0  0  0  0  0  0
  139.8420   73.4300  222.4320 N   0  0  0  0  0  0  0  0  0  0  0  0
  140.1700   72.1260  222.6740 C   0  0  0  0  0  0  0  0  0  0  0  0
  139.8450   71.5050  223.9280 N   0  0  0  0  0  0  0  0  0  0  0  0
  138.6940   70.6320  223.9820 C   0  0  0  0  0  0  0  0  0  0  0  0
  139.1820   69.2900  224.5260 C   0  0  0  0  0  0  0  0  0  0  0  0
  139.8410   69.5380  225.8350 C   0  0  0  0  0  0  0  0  0  0  0  0
  139.7530   68.5760  226.8340 C   0  0  0  0  0  0  0  0  0  0  0  0
  140.3510   68.7630  228.0780 C   0  0  0  0  0  0  0  0  0  0  0  0
  141.0430   69.9410  228.2970 C   0  0  0  0  0  0  0  0  0  0  0  0
  141.1130   70.8730  227.2900 C   0  0  0  0  0  0  0  0  0  0  0  0
  140.5210   70.6960  226.0480 C   0  0  0  0  0  0  0  0  0  0  0  0
  140.6860   71.7920  225.0680 C   0  0  0  0  0  0  0  0  0  0  0  0
  140.8080   71.4360  221.7020 N   0  0  0  0  0  0  0  0  0  0  0  0
  144.8530   72.3190  220.9350 C   0  0  0  0  0  0  0  0  0  0  0  0
  145.5020   73.5210  221.2060 C   0  0  0  0  0  0  0  0  0  0  0  0
  145.6417   75.5904  220.6569 H   0  0  0  0  0  0  0  0  0  0  0  0
  143.9077   75.4658  218.9063 H   0  0  0  0  0  0  0  0  0  0  0  0
  142.7519   73.3002  218.4364 H   0  0  0  0  0  0  0  0  0  0  0  0
  143.6063   70.5339  218.7532 H   0  0  0  0  0  0  0  0  0  0  0  0
  143.3473   70.2752  220.5032 H   0  0  0  0  0  0  0  0  0  0  0  0
  141.2710   70.9390  218.6700 H   0  0  0  0  0  0  0  0  0  0  0  0
  138.0415   76.5264  221.1789 H   0  0  0  0  0  0  0  0  0  0  0  0
  138.2189   75.3341  222.4790 H   0  0  0  0  0  0  0  0  0  0  0  0
  138.7629   77.7926  223.0596 H   0  0  0  0  0  0  0  0  0  0  0  0
  140.0177   76.5494  223.4833 H   0  0  0  0  0  0  0  0  0  0  0  0
  143.1018   78.3285  221.9957 H   0  0  0  0  0  0  0  0  0  0  0  0
  144.2211   80.2391  223.1065 H   0  0  0  0  0  0  0  0  0  0  0  0
  142.7967   81.9194  224.3167 H   0  0  0  0  0  0  0  0  0  0  0  0
  140.3203   81.6132  224.3581 H   0  0  0  0  0  0  0  0  0  0  0  0
  140.4837   78.2823  219.9121 H   0  0  0  0  0  0  0  0  0  0  0  0
  141.9839   77.4508  220.5892 H   0  0  0  0  0  0  0  0  0  0  0  0
  139.7220   76.3516  219.2075 H   0  0  0  0  0  0  0  0  0  0  0  0
  141.3230   75.6346  219.6633 H   0  0  0  0  0  0  0  0  0  0  0  0
  137.9288   71.0553  224.6493 H   0  0  0  0  0  0  0  0  0  0  0  0
  138.2421   70.5131  222.9862 H   0  0  0  0  0  0  0  0  0  0  0  0
  138.3287   68.6091  224.6606 H   0  0  0  0  0  0  0  0  0  0  0  0
  139.8902   68.8271  223.8230 H   0  0  0  0  0  0  0  0  0  0  0  0
  139.1988   67.6462  226.6380 H   0  0  0  0  0  0  0  0  0  0  0  0
  140.2753   67.9966  228.8634 H   0  0  0  0  0  0  0  0  0  0  0  0
  141.5308   70.1289  229.2649 H   0  0  0  0  0  0  0  0  0  0  0  0
  141.6657   71.8054  227.4778 H   0  0  0  0  0  0  0  0  0  0  0  0
  140.3847   72.7473  225.5226 H   0  0  0  0  0  0  0  0  0  0  0  0
  141.7380   71.8691  224.7559 H   0  0  0  0  0  0  0  0  0  0  0  0
  145.1123   71.4144  221.5047 H   0  0  0  0  0  0  0  0  0  0  0  0
  146.2751   73.5863  221.9857 H   0  0  0  0  0  0  0  0  0  0  0  0
  1  2  2  0
  2  3  1  0
  3  4  2  0
  4  5  1  0
  5  6  1  0
  6  7  1  0
  7  8  2  0
  8  9  1  0
  9 10  1  0
 10 11  1  0
 11 12  1  0
 12 13  1  0
 13 14  1  0
 14 15  2  0
 15 16  1  0
 16 17  2  0
 17 18  1  0
 18 19  2  0
 13 20  1  0
 20 21  1  0
  9 22  2  0
 22 23  1  0
 23 24  1  0
 24 25  1  0
 25 26  1  0
 26 27  1  0
 27 28  2  0
 28 29  1  0
 29 30  2  0
 30 31  1  0
 31 32  2  0
 32 33  1  0
 23 34  2  0
  4 35  1  0
 35 36  2  0
 36  1  1  0
 34  7  1  0
 21 10  1  0
 33 24  1  0
 19 14  1  0
 32 27  1  0
  1 37  1  0
  2 38  1  0
  3 39  1  0
  5 40  1  0
  5 41  1  0
  6 42  1  0
 11 43  1  0
 11 44  1  0
 12 45  1  0
 12 46  1  0
 15 47  1  0
 16 48  1  0
 17 49  1  0
 18 50  1  0
 20 51  1  0
 20 52  1  0
 21 53  1  0
 21 54  1  0
 25 55  1  0
 25 56  1  0
 26 57  1  0
 26 58  1  0
 28 59  1  0
 29 60  1  0
 30 61  1  0
 31 62  1  0
 33 63  1  0
 33 64  1  0
 35 65  1  0
 36 66  1  0
M  END
>  <smiles>  (16) 
c1ccc(CNc2nc(N3CCN(c4ccccn4)CC3)nc(N3CCc4ccccc4C3)n2)cc1

>  <score_type>  (16) 
oracle

>  <origin>  (16) 
autodockgpu

>  <m_score__min__energy>  (16) 
-10.789999999999999

>  <m_primary>  (16) 
energy

>  <rmsd>  (16) 
7.96366662887538

>  <m_score__min__rmsd>  (16) 
7.96366662887538

>  <meeko>  (16) 
{"free_energy": -10.21, "intermolecular_energy": -12.0, "internal_energy": -1.55, "cluster_size": 49, "cluster_id": 1, "rank_in_cluster": 33}

>  <energy>  (16) 
-10.6

>  <cluster_rmsd>  (16) 
1.83

>  <cluster>  (16) 
1

$$$$

     RDKit          3D

 66 71  0  0  0  0  0  0  0  0999 V2000
  140.2890   67.7450  226.8960 C   0  0  0  0  0  0  0  0  0  0  0  0
  141.0620   68.7680  227.4170 C   0  0  0  0  0  0  0  0  0  0  0  0
  141.0710   70.0110  226.8100 C   0  0  0  0  0  0  0  0  0  0  0  0
  140.2900   70.1860  225.6830 C   0  0  0  0  0  0  0  0  0  0  0  0
  140.3010   71.5210  225.0350 C   0  0  0  0  0  0  0  0  0  0  0  0
  139.7870   71.3790  223.6990 N   0  0  0  0  0  0  0  0  0  0  0  0
  140.2610   72.2800  222.6980 C   0  0  0  0  0  0  0  0  0  0  0  0
  141.0440   71.8390  221.7050 N   0  0  0  0  0  0  0  0  0  0  0  0
  141.5160   72.6470  220.7370 C   0  0  0  0  0  0  0  0  0  0  0  0
  142.3490   72.1850  219.6840 N   0  0  0  0  0  0  0  0  0  0  0  0
  143.7760   72.4510  219.6210 C   0  0  0  0  0  0  0  0  0  0  0  0
  144.4620   71.1220  219.8200 C   0  0  0  0  0  0  0  0  0  0  0  0
  143.8430   70.0760  219.0610 N   0  0  0  0  0  0  0  0  0  0  0  0
  144.5140   68.8000  219.0540 C   0  0  0  0  0  0  0  0  0  0  0  0
  144.0140   67.7170  218.3560 C   0  0  0  0  0  0  0  0  0  0  0  0
  144.6370   66.4840  218.3340 C   0  0  0  0  0  0  0  0  0  0  0  0
  145.8180   66.3480  219.0510 C   0  0  0  0  0  0  0  0  0  0  0  0
  146.3200   67.4350  219.7520 C   0  0  0  0  0  0  0  0  0  0  0  0
  145.6620   68.5960  219.7270 N   0  0  0  0  0  0  0  0  0  0  0  0
  142.6290   70.1730  218.3150 C   0  0  0  0  0  0  0  0  0  0  0  0
  141.8080   71.3930  218.5730 C   0  0  0  0  0  0  0  0  0  0  0  0
  141.1900   73.9460  220.7660 N   0  0  0  0  0  0  0  0  0  0  0  0
  140.3930   74.4380  221.7610 C   0  0  0  0  0  0  0  0  0  0  0  0
  140.0380   75.8300  221.7980 N   0  0  0  0  0  0  0  0  0  0  0  0
  138.6710   76.1960  221.4980 C   0  0  0  0  0  0  0  0  0  0  0  0
  138.1610   77.0080  222.6890 C   0  0  0  0  0  0  0  0  0  0  0  0
  139.0860   78.1530  222.8930 C   0  0  0  0  0  0  0  0  0  0  0  0
  138.5800   79.3620  223.3570 C   0  0  0  0  0  0  0  0  0  0  0  0
  139.4050   80.4650  223.5620 C   0  0  0  0  0  0  0  0  0  0  0  0
  140.7550   80.3270  223.2920 C   0  0  0  0  0  0  0  0  0  0  0  0
  141.2250   79.1200  222.8340 C   0  0  0  0  0  0  0  0  0  0  0  0
  140.4120   78.0160  222.6260 C   0  0  0  0  0  0  0  0  0  0  0  0
  141.0680   76.7870  222.1310 C   0  0  0  0  0  0  0  0  0  0  0  0
  139.9480   73.5820  222.7060 N   0  0  0  0  0  0  0  0  0  0  0  0
  139.5210   69.1750  225.1620 C   0  0  0  0  0  0  0  0  0  0  0  0
  139.5080   67.9220  225.7690 C   0  0  0  0  0  0  0  0  0  0  0  0
  140.2962   66.7635  227.3926 H   0  0  0  0  0  0  0  0  0  0  0  0
  141.6708   68.5922  228.3161 H   0  0  0  0  0  0  0  0  0  0  0  0
  141.6804   70.8341  227.2115 H   0  0  0  0  0  0  0  0  0  0  0  0
  139.6676   72.2164  225.6052 H   0  0  0  0  0  0  0  0  0  0  0  0
  141.3257   71.9199  225.0064 H   0  0  0  0  0  0  0  0  0  0  0  0
  139.0970   70.6560  223.4470 H   0  0  0  0  0  0  0  0  0  0  0  0
  144.0419   72.8743  218.6411 H   0  0  0  0  0  0  0  0  0  0  0  0
  144.0820   73.1784  220.3874 H   0  0  0  0  0  0  0  0  0  0  0  0
  145.5121   71.2144  219.5056 H   0  0  0  0  0  0  0  0  0  0  0  0
  144.3856   70.8579  220.8851 H   0  0  0  0  0  0  0  0  0  0  0  0
  143.0777   67.8424  217.7925 H   0  0  0  0  0  0  0  0  0  0  0  0
  144.2127   65.6409  217.7690 H   0  0  0  0  0  0  0  0  0  0  0  0
  146.3515   65.3861  219.0632 H   0  0  0  0  0  0  0  0  0  0  0  0
  147.2544   67.3406  220.3247 H   0  0  0  0  0  0  0  0  0  0  0  0
  142.8870   70.1588  217.2458 H   0  0  0  0  0  0  0  0  0  0  0  0
  142.0107   69.3214  218.6352 H   0  0  0  0  0  0  0  0  0  0  0  0
  141.7963   72.0137  217.6649 H   0  0  0  0  0  0  0  0  0  0  0  0
  140.7912   71.0719  218.8433 H   0  0  0  0  0  0  0  0  0  0  0  0
  138.6337   76.8032  220.5816 H   0  0  0  0  0  0  0  0  0  0  0  0
  138.0499   75.3032  221.3333 H   0  0  0  0  0  0  0  0  0  0  0  0
  137.1469   77.3797  222.4807 H   0  0  0  0  0  0  0  0  0  0  0  0
  138.1240   76.3807  223.5918 H   0  0  0  0  0  0  0  0  0  0  0  0
  137.5037   79.4492  223.5669 H   0  0  0  0  0  0  0  0  0  0  0  0
  138.9954   81.4181  223.9279 H   0  0  0  0  0  0  0  0  0  0  0  0
  141.4427   81.1723  223.4421 H   0  0  0  0  0  0  0  0  0  0  0  0
  142.3001   79.0245  222.6216 H   0  0  0  0  0  0  0  0  0  0  0  0
  141.6654   77.0178  221.2367 H   0  0  0  0  0  0  0  0  0  0  0  0
  141.7355   76.3749  222.9021 H   0  0  0  0  0  0  0  0  0  0  0  0
  138.9136   69.3553  224.2628 H   0  0  0  0  0  0  0  0  0  0  0  0
  138.8972   67.1009  225.3656 H   0  0  0  0  0  0  0  0  0  0  0  0
  1  2  2  0
  2  3  1  0
  3  4  2  0
  4  5  1  0
  5  6  1  0
  6  7  1  0
  7  8  2  0
  8  9  1  0
  9 10  1  0
 10 11  1  0
 11 12  1  0
 12 13  1  0
 13 14  1  0
 14 15  2  0
 15 16  1  0
 16 17  2  0
 17 18  1  0
 18 19  2  0
 13 20  1  0
 20 21  1  0
  9 22  2  0
 22 23  1  0
 23 24  1  0
 24 25  1  0
 25 26  1  0
 26 27  1  0
 27 28  2  0
 28 29  1  0
 29 30  2  0
 30 31  1  0
 31 32  2  0
 32 33  1  0
 23 34  2  0
  4 35  1  0
 35 36  2  0
 36  1  1  0
 34  7  1  0
 21 10  1  0
 33 24  1  0
 19 14  1  0
 32 27  1  0
  1 37  1  0
  2 38  1  0
  3 39  1  0
  5 40  1  0
  5 41  1  0
  6 42  1  0
 11 43  1  0
 11 44  1  0
 12 45  1  0
 12 46  1  0
 15 47  1  0
 16 48  1  0
 17 49  1  0
 18 50  1  0
 20 51  1  0
 20 52  1  0
 21 53  1  0
 21 54  1  0
 25 55  1  0
 25 56  1  0
 26 57  1  0
 26 58  1  0
 28 59  1  0
 29 60  1  0
 30 61  1  0
 31 62  1  0
 33 63  1  0
 33 64  1  0
 35 65  1  0
 36 66  1  0
M  END
>  <smiles>  (17) 
c1ccc(CNc2nc(N3CCN(c4ccccn4)CC3)nc(N3CCc4ccccc4C3)n2)cc1

>  <score_type>  (17) 
oracle

>  <origin>  (17) 
autodockgpu

>  <m_score__min__energy>  (17) 
-10.789999999999999

>  <m_primary>  (17) 
energy

>  <rmsd>  (17) 
6.977016525731025

>  <m_score__min__rmsd>  (17) 
6.977016525731025

>  <meeko>  (17) 
{"free_energy": -10.07, "intermolecular_energy": -11.86, "internal_energy": -0.99, "cluster_size": 49, "cluster_id": 1, "rank_in_cluster": 40}

>  <energy>  (17) 
-10.58

>  <cluster_rmsd>  (17) 
1.79

>  <cluster>  (17) 
1

$$$$

     RDKit          3D

 66 71  0  0  0  0  0  0  0  0999 V2000
  144.8090   74.8310  220.4170 C   0  0  0  0  0  0  0  0  0  0  0  0
  145.1550   73.7420  221.1970 C   0  0  0  0  0  0  0  0  0  0  0  0
  144.6600   72.4850  220.8970 C   0  0  0  0  0  0  0  0  0  0  0  0
  143.8210   72.3640  219.8050 C   0  0  0  0  0  0  0  0  0  0  0  0
  143.2930   71.0150  219.4850 C   0  0  0  0  0  0  0  0  0  0  0  0
  141.8570   71.0880  219.4570 N   0  0  0  0  0  0  0  0  0  0  0  0
  141.2030   71.8680  220.4590 C   0  0  0  0  0  0  0  0  0  0  0  0
  140.9040   73.1530  220.2300 N   0  0  0  0  0  0  0  0  0  0  0  0
  140.2890   73.9300  221.1410 C   0  0  0  0  0  0  0  0  0  0  0  0
  139.9710   75.2930  220.9040 N   0  0  0  0  0  0  0  0  0  0  0  0
  138.9090   75.9980  221.6000 C   0  0  0  0  0  0  0  0  0  0  0  0
  139.5850   77.0230  222.4760 C   0  0  0  0  0  0  0  0  0  0  0  0
  140.6370   77.7100  221.7870 N   0  0  0  0  0  0  0  0  0  0  0  0
  141.2440   78.8200  222.4790 C   0  0  0  0  0  0  0  0  0  0  0  0
  140.4920   79.7390  223.1860 C   0  0  0  0  0  0  0  0  0  0  0  0
  141.0510   80.8110  223.8570 C   0  0  0  0  0  0  0  0  0  0  0  0
  142.4300   80.9520  223.8060 C   0  0  0  0  0  0  0  0  0  0  0  0
  143.1850   80.0280  223.0980 C   0  0  0  0  0  0  0  0  0  0  0  0
  142.5760   79.0180  222.4740 N   0  0  0  0  0  0  0  0  0  0  0  0
  141.1420   77.4040  220.4870 C   0  0  0  0  0  0  0  0  0  0  0  0
  140.7140   76.0910  219.9200 C   0  0  0  0  0  0  0  0  0  0  0  0
  139.9610   73.3980  222.3260 N   0  0  0  0  0  0  0  0  0  0  0  0
  140.2480   72.0910  222.6020 C   0  0  0  0  0  0  0  0  0  0  0  0
  139.9000   71.5130  223.8700 N   0  0  0  0  0  0  0  0  0  0  0  0
  138.7410   70.6500  223.9350 C   0  0  0  0  0  0  0  0  0  0  0  0
  139.2120   69.3220  224.5280 C   0  0  0  0  0  0  0  0  0  0  0  0
  139.8540   69.6070  225.8370 C   0  0  0  0  0  0  0  0  0  0  0  0
  139.7440   68.6770  226.8640 C   0  0  0  0  0  0  0  0  0  0  0  0
  140.3260   68.8980  228.1110 C   0  0  0  0  0  0  0  0  0  0  0  0
  141.0240   70.0770  228.3030 C   0  0  0  0  0  0  0  0  0  0  0  0
  141.1150   70.9770  227.2680 C   0  0  0  0  0  0  0  0  0  0  0  0
  140.5400   70.7660  226.0240 C   0  0  0  0  0  0  0  0  0  0  0  0
  140.7270   71.8280  225.0130 C   0  0  0  0  0  0  0  0  0  0  0  0
  140.8670   71.3580  221.6510 N   0  0  0  0  0  0  0  0  0  0  0  0
  143.4740   73.4420  219.0270 C   0  0  0  0  0  0  0  0  0  0  0  0
  143.9690   74.7080  219.3250 C   0  0  0  0  0  0  0  0  0  0  0  0
  145.2130   75.8218  220.6723 H   0  0  0  0  0  0  0  0  0  0  0  0
  145.8258   73.8757  222.0585 H   0  0  0  0  0  0  0  0  0  0  0  0
  144.9257   71.6098  221.5081 H   0  0  0  0  0  0  0  0  0  0  0  0
  143.6684   70.6918  218.5028 H   0  0  0  0  0  0  0  0  0  0  0  0
  143.6212   70.2894  220.2438 H   0  0  0  0  0  0  0  0  0  0  0  0
  141.2930   70.6010  218.7450 H   0  0  0  0  0  0  0  0  0  0  0  0
  138.2437   76.4936  220.8777 H   0  0  0  0  0  0  0  0  0  0  0  0
  138.2933   75.3072  222.1948 H   0  0  0  0  0  0  0  0  0  0  0  0
  138.8360   77.7588  222.8041 H   0  0  0  0  0  0  0  0  0  0  0  0
  140.0288   76.4963  223.3337 H   0  0  0  0  0  0  0  0  0  0  0  0
  139.3998   79.6120  223.2163 H   0  0  0  0  0  0  0  0  0  0  0  0
  140.4250   81.5259  224.4110 H   0  0  0  0  0  0  0  0  0  0  0  0
  142.9211   81.7897  224.3228 H   0  0  0  0  0  0  0  0  0  0  0  0
  144.2795   80.1275  223.0514 H   0  0  0  0  0  0  0  0  0  0  0  0
  140.8071   78.1946  219.7994 H   0  0  0  0  0  0  0  0  0  0  0  0
  142.2348   77.3421  220.5962 H   0  0  0  0  0  0  0  0  0  0  0  0
  140.0692   76.2722  219.0474 H   0  0  0  0  0  0  0  0  0  0  0  0
  141.6157   75.5302  219.6328 H   0  0  0  0  0  0  0  0  0  0  0  0
  137.9698   71.0994  224.5778 H   0  0  0  0  0  0  0  0  0  0  0  0
  138.3018   70.5031  222.9373 H   0  0  0  0  0  0  0  0  0  0  0  0
  138.3521   68.6513  224.6719 H   0  0  0  0  0  0  0  0  0  0  0  0
  139.9265   68.8322  223.8500 H   0  0  0  0  0  0  0  0  0  0  0  0
  139.1852   67.7459  226.6887 H   0  0  0  0  0  0  0  0  0  0  0  0
  140.2331   68.1570  228.9186 H   0  0  0  0  0  0  0  0  0  0  0  0
  141.4999   70.2914  229.2713 H   0  0  0  0  0  0  0  0  0  0  0  0
  141.6716   71.9110  227.4349 H   0  0  0  0  0  0  0  0  0  0  0  0
  140.4273   72.7994  225.4333 H   0  0  0  0  0  0  0  0  0  0  0  0
  141.7838   71.8860  224.7134 H   0  0  0  0  0  0  0  0  0  0  0  0
  142.8031   73.3040  218.1663 H   0  0  0  0  0  0  0  0  0  0  0  0
  143.7012   75.5817  218.7126 H   0  0  0  0  0  0  0  0  0  0  0  0
  1  2  2  0
  2  3  1  0
  3  4  2  0
  4  5  1  0
  5  6  1  0
  6  7  1  0
  7  8  2  0
  8  9  1  0
  9 10  1  0
 10 11  1  0
 11 12  1  0
 12 13  1  0
 13 14  1  0
 14 15  2  0
 15 16  1  0
 16 17  2  0
 17 18  1  0
 18 19  2  0
 13 20  1  0
 20 21  1  0
  9 22  2  0
 22 23  1  0
 23 24  1  0
 24 25  1  0
 25 26  1  0
 26 27  1  0
 27 28  2  0
 28 29  1  0
 29 30  2  0
 30 31  1  0
 31 32  2  0
 32 33  1  0
 23 34  2  0
  4 35  1  0
 35 36  2  0
 36  1  1  0
 34  7  1  0
 21 10  1  0
 33 24  1  0
 19 14  1  0
 32 27  1  0
  1 37  1  0
  2 38  1  0
  3 39  1  0
  5 40  1  0
  5 41  1  0
  6 42  1  0
 11 43  1  0
 11 44  1  0
 12 45  1  0
 12 46  1  0
 15 47  1  0
 16 48  1  0
 17 49  1  0
 18 50  1  0
 20 51  1  0
 20 52  1  0
 21 53  1  0
 21 54  1  0
 25 55  1  0
 25 56  1  0
 26 57  1  0
 26 58  1  0
 28 59  1  0
 29 60  1  0
 30 61  1  0
 31 62  1  0
 33 63  1  0
 33 64  1  0
 35 65  1  0
 36 66  1  0
M  END
>  <smiles>  (18) 
c1ccc(CNc2nc(N3CCN(c4ccccn4)CC3)nc(N3CCc4ccccc4C3)n2)cc1

>  <score_type>  (18) 
oracle

>  <origin>  (18) 
autodockgpu

>  <m_score__min__energy>  (18) 
-10.789999999999999

>  <m_primary>  (18) 
energy

>  <rmsd>  (18) 
7.9340539839608795

>  <m_score__min__rmsd>  (18) 
7.9340539839608795

>  <meeko>  (18) 
{"free_energy": -10.08, "intermolecular_energy": -11.87, "internal_energy": -1.65, "cluster_size": 49, "cluster_id": 1, "rank_in_cluster": 38}

>  <energy>  (18) 
-10.58

>  <cluster_rmsd>  (18) 
1.48

>  <cluster>  (18) 
1

$$$$

     RDKit          3D

 66 71  0  0  0  0  0  0  0  0999 V2000
  145.8770   74.1140  220.9750 C   0  0  0  0  0  0  0  0  0  0  0  0
  144.7860   74.7820  220.4460 C   0  0  0  0  0  0  0  0  0  0  0  0
  143.8370   74.0940  219.7120 C   0  0  0  0  0  0  0  0  0  0  0  0
  144.0200   72.7350  219.5320 C   0  0  0  0  0  0  0  0  0  0  0  0
  143.0000   71.9990  218.7450 C   0  0  0  0  0  0  0  0  0  0  0  0
  142.1790   71.2510  219.6580 N   0  0  0  0  0  0  0  0  0  0  0  0
  141.4190   71.9750  220.6270 C   0  0  0  0  0  0  0  0  0  0  0  0
  141.0640   73.2460  220.3980 N   0  0  0  0  0  0  0  0  0  0  0  0
  140.3480   73.9710  221.2780 C   0  0  0  0  0  0  0  0  0  0  0  0
  139.9720   75.3190  221.0410 N   0  0  0  0  0  0  0  0  0  0  0  0
  138.9040   75.9880  221.7630 C   0  0  0  0  0  0  0  0  0  0  0  0
  139.5660   77.0450  222.6110 C   0  0  0  0  0  0  0  0  0  0  0  0
  140.5690   77.7670  221.8880 N   0  0  0  0  0  0  0  0  0  0  0  0
  141.1540   78.9040  222.5540 C   0  0  0  0  0  0  0  0  0  0  0  0
  142.5210   79.0950  222.6080 C   0  0  0  0  0  0  0  0  0  0  0  0
  143.1050   80.1760  223.2400 C   0  0  0  0  0  0  0  0  0  0  0  0
  142.2630   81.1010  223.8420 C   0  0  0  0  0  0  0  0  0  0  0  0
  140.8900   80.9100  223.7870 C   0  0  0  0  0  0  0  0  0  0  0  0
  140.3970   79.8410  223.1580 N   0  0  0  0  0  0  0  0  0  0  0  0
  141.0480   77.4690  220.5750 C   0  0  0  0  0  0  0  0  0  0  0  0
  140.6550   76.1370  220.0300 C   0  0  0  0  0  0  0  0  0  0  0  0
  139.9740   73.3990  222.4300 N   0  0  0  0  0  0  0  0  0  0  0  0
  140.3140   72.1050  222.7040 C   0  0  0  0  0  0  0  0  0  0  0  0
  139.9160   71.4850  223.9380 N   0  0  0  0  0  0  0  0  0  0  0  0
  138.7400   70.6440  223.9330 C   0  0  0  0  0  0  0  0  0  0  0  0
  139.1660   69.2840  224.4870 C   0  0  0  0  0  0  0  0  0  0  0  0
  139.7730   69.5050  225.8250 C   0  0  0  0  0  0  0  0  0  0  0  0
  139.6140   68.5380  226.8110 C   0  0  0  0  0  0  0  0  0  0  0  0
  140.1610   68.6990  228.0820 C   0  0  0  0  0  0  0  0  0  0  0  0
  140.8750   69.8550  228.3410 C   0  0  0  0  0  0  0  0  0  0  0  0
  141.0160   70.7920  227.3460 C   0  0  0  0  0  0  0  0  0  0  0  0
  140.4740   70.6410  226.0780 C   0  0  0  0  0  0  0  0  0  0  0  0
  140.7130   71.7390  225.1160 C   0  0  0  0  0  0  0  0  0  0  0  0
  141.0340   71.4240  221.7850 N   0  0  0  0  0  0  0  0  0  0  0  0
  145.1000   72.0670  220.0540 C   0  0  0  0  0  0  0  0  0  0  0  0
  146.0570   72.7550  220.7940 C   0  0  0  0  0  0  0  0  0  0  0  0
  146.6210   74.6797  221.5551 H   0  0  0  0  0  0  0  0  0  0  0  0
  144.6735   75.8639  220.6100 H   0  0  0  0  0  0  0  0  0  0  0  0
  142.9649   74.6109  219.2852 H   0  0  0  0  0  0  0  0  0  0  0  0
  142.3779   72.7116  218.1836 H   0  0  0  0  0  0  0  0  0  0  0  0
  143.4893   71.3197  218.0314 H   0  0  0  0  0  0  0  0  0  0  0  0
  142.1220   70.2220  219.6350 H   0  0  0  0  0  0  0  0  0  0  0  0
  138.1991   76.4518  221.0573 H   0  0  0  0  0  0  0  0  0  0  0  0
  138.3327   75.2791  222.3803 H   0  0  0  0  0  0  0  0  0  0  0  0
  138.7991   77.7537  222.9567 H   0  0  0  0  0  0  0  0  0  0  0  0
  140.0558   76.5416  223.4576 H   0  0  0  0  0  0  0  0  0  0  0  0
  143.1743   78.3528  222.1260 H   0  0  0  0  0  0  0  0  0  0  0  0
  144.1978   80.2992  223.2652 H   0  0  0  0  0  0  0  0  0  0  0  0
  142.6808   81.9779  224.3582 H   0  0  0  0  0  0  0  0  0  0  0  0
  140.2114   81.6356  224.2592 H   0  0  0  0  0  0  0  0  0  0  0  0
  140.6635   78.2406  219.8917 H   0  0  0  0  0  0  0  0  0  0  0  0
  142.1450   77.4492  220.6533 H   0  0  0  0  0  0  0  0  0  0  0  0
  139.9787   76.2864  219.1754 H   0  0  0  0  0  0  0  0  0  0  0  0
  141.5688   75.6088  219.7203 H   0  0  0  0  0  0  0  0  0  0  0  0
  137.9576   71.0836  224.5690 H   0  0  0  0  0  0  0  0  0  0  0  0
  138.3303   70.5451  222.9170 H   0  0  0  0  0  0  0  0  0  0  0  0
  138.2889   68.6265  224.5786 H   0  0  0  0  0  0  0  0  0  0  0  0
  139.8909   68.8056  223.8120 H   0  0  0  0  0  0  0  0  0  0  0  0
  139.0437   67.6256  226.5825 H   0  0  0  0  0  0  0  0  0  0  0  0
  140.0290   67.9295  228.8568 H   0  0  0  0  0  0  0  0  0  0  0  0
  141.3243   70.0221  229.3311 H   0  0  0  0  0  0  0  0  0  0  0  0
  141.5865   71.7065  227.5656 H   0  0  0  0  0  0  0  0  0  0  0  0
  140.4189   72.6990  225.5653 H   0  0  0  0  0  0  0  0  0  0  0  0
  141.7795   71.7883  224.8512 H   0  0  0  0  0  0  0  0  0  0  0  0
  145.2091   70.9853  219.8869 H   0  0  0  0  0  0  0  0  0  0  0  0
  146.9275   72.2351  221.2206 H   0  0  0  0  0  0  0  0  0  0  0  0
  1  2  2  0
  2  3  1  0
  3  4  2  0
  4  5  1  0
  5  6  1  0
  6  7  1  0
  7  8  2  0
  8  9  1  0
  9 10  1  0
 10 11  1  0
 11 12  1  0
 12 13  1  0
 13 14  1  0
 14 15  2  0
 15 16  1  0
 16 17  2  0
 17 18  1  0
 18 19  2  0
 13 20  1  0
 20 21  1  0
  9 22  2  0
 22 23  1  0
 23 24  1  0
 24 25  1  0
 25 26  1  0
 26 27  1  0
 27 28  2  0
 28 29  1  0
 29 30  2  0
 30 31  1  0
 31 32  2  0
 32 33  1  0
 23 34  2  0
  4 35  1  0
 35 36  2  0
 36  1  1  0
 34  7  1  0
 21 10  1  0
 33 24  1  0
 19 14  1  0
 32 27  1  0
  1 37  1  0
  2 38  1  0
  3 39  1  0
  5 40  1  0
  5 41  1  0
  6 42  1  0
 11 43  1  0
 11 44  1  0
 12 45  1  0
 12 46  1  0
 15 47  1  0
 16 48  1  0
 17 49  1  0
 18 50  1  0
 20 51  1  0
 20 52  1  0
 21 53  1  0
 21 54  1  0
 25 55  1  0
 25 56  1  0
 26 57  1  0
 26 58  1  0
 28 59  1  0
 29 60  1  0
 30 61  1  0
 31 62  1  0
 33 63  1  0
 33 64  1  0
 35 65  1  0
 36 66  1  0
M  END
>  <smiles>  (19) 
c1ccc(CNc2nc(N3CCN(c4ccccn4)CC3)nc(N3CCc4ccccc4C3)n2)cc1

>  <score_type>  (19) 
oracle

>  <origin>  (19) 
autodockgpu

>  <m_score__min__energy>  (19) 
-10.789999999999999

>  <m_primary>  (19) 
energy

>  <rmsd>  (19) 
7.975606760686559

>  <m_score__min__rmsd>  (19) 
7.975606760686559

>  <meeko>  (19) 
{"free_energy": -10.66, "intermolecular_energy": -12.45, "internal_energy": -1.55, "cluster_size": 49, "cluster_id": 1, "rank_in_cluster": 5}

>  <energy>  (19) 
-10.57

>  <cluster_rmsd>  (19) 
1.47

>  <cluster>  (19) 
1

$$$$

     RDKit          3D

 66 71  0  0  0  0  0  0  0  0999 V2000
  145.8680   74.1090  220.9700 C   0  0  0  0  0  0  0  0  0  0  0  0
  145.9100   72.7420  220.7610 C   0  0  0  0  0  0  0  0  0  0  0  0
  144.9060   72.1160  220.0430 C   0  0  0  0  0  0  0  0  0  0  0  0
  143.8770   72.9000  219.5530 C   0  0  0  0  0  0  0  0  0  0  0  0
  142.8030   72.2270  218.7830 C   0  0  0  0  0  0  0  0  0  0  0  0
  142.0410   71.4110  219.6900 N   0  0  0  0  0  0  0  0  0  0  0  0
  141.3190   72.0620  220.7360 C   0  0  0  0  0  0  0  0  0  0  0  0
  140.9670   73.3490  220.6170 N   0  0  0  0  0  0  0  0  0  0  0  0
  140.2870   74.0080  221.5730 C   0  0  0  0  0  0  0  0  0  0  0  0
  139.9140   75.3730  221.4530 N   0  0  0  0  0  0  0  0  0  0  0  0
  140.3960   76.4130  222.3450 C   0  0  0  0  0  0  0  0  0  0  0  0
  141.2900   77.2990  221.5140 C   0  0  0  0  0  0  0  0  0  0  0  0
  140.7210   77.5930  220.2340 N   0  0  0  0  0  0  0  0  0  0  0  0
  141.4180   78.5590  219.4220 C   0  0  0  0  0  0  0  0  0  0  0  0
  141.5220   79.8860  219.7950 C   0  0  0  0  0  0  0  0  0  0  0  0
  142.1850   80.8300  219.0350 C   0  0  0  0  0  0  0  0  0  0  0  0
  142.7660   80.4080  217.8470 C   0  0  0  0  0  0  0  0  0  0  0  0
  142.6620   79.0750  217.4730 C   0  0  0  0  0  0  0  0  0  0  0  0
  142.0060   78.2190  218.2590 N   0  0  0  0  0  0  0  0  0  0  0  0
  139.5330   77.0210  219.6820 C   0  0  0  0  0  0  0  0  0  0  0  0
  138.9990   75.8250  220.3960 C   0  0  0  0  0  0  0  0  0  0  0  0
  139.9460   73.3520  222.6900 N   0  0  0  0  0  0  0  0  0  0  0  0
  140.2850   72.0380  222.8530 C   0  0  0  0  0  0  0  0  0  0  0  0
  139.9220   71.3280  224.0480 N   0  0  0  0  0  0  0  0  0  0  0  0
  138.7950   70.4240  223.9920 C   0  0  0  0  0  0  0  0  0  0  0  0
  139.2970   69.0610  224.4680 C   0  0  0  0  0  0  0  0  0  0  0  0
  139.8900   69.2380  225.8180 C   0  0  0  0  0  0  0  0  0  0  0  0
  139.7860   68.2100  226.7470 C   0  0  0  0  0  0  0  0  0  0  0  0
  140.3240   68.3280  228.0270 C   0  0  0  0  0  0  0  0  0  0  0  0
  140.9720   69.5050  228.3540 C   0  0  0  0  0  0  0  0  0  0  0  0
  141.0600   70.5040  227.4140 C   0  0  0  0  0  0  0  0  0  0  0  0
  140.5270   70.3960  226.1380 C   0  0  0  0  0  0  0  0  0  0  0  0
  140.7040   71.5580  225.2410 C   0  0  0  0  0  0  0  0  0  0  0  0
  140.9680   71.4270  221.8610 N   0  0  0  0  0  0  0  0  0  0  0  0
  143.8310   74.2570  219.7570 C   0  0  0  0  0  0  0  0  0  0  0  0
  144.8390   74.8910  220.4780 C   0  0  0  0  0  0  0  0  0  0  0  0
  146.6757   74.5872  221.5436 H   0  0  0  0  0  0  0  0  0  0  0  0
  146.7441   72.1508  221.1668 H   0  0  0  0  0  0  0  0  0  0  0  0
  144.9256   71.0302  219.8677 H   0  0  0  0  0  0  0  0  0  0  0  0
  142.1483   72.9806  218.3210 H   0  0  0  0  0  0  0  0  0  0  0  0
  143.2395   71.6043  217.9881 H   0  0  0  0  0  0  0  0  0  0  0  0
  142.0010   70.3840  219.6090 H   0  0  0  0  0  0  0  0  0  0  0  0
  139.5516   76.9925  222.7465 H   0  0  0  0  0  0  0  0  0  0  0  0
  140.9386   75.9866  223.2016 H   0  0  0  0  0  0  0  0  0  0  0  0
  141.4539   78.2432  222.0541 H   0  0  0  0  0  0  0  0  0  0  0  0
  142.2362   76.7633  221.3479 H   0  0  0  0  0  0  0  0  0  0  0  0
  141.0560   80.2045  220.7392 H   0  0  0  0  0  0  0  0  0  0  0  0
  142.2502   81.8790  219.3597 H   0  0  0  0  0  0  0  0  0  0  0  0
  143.3040   81.1234  217.2076 H   0  0  0  0  0  0  0  0  0  0  0  0
  143.1176   78.7265  216.5344 H   0  0  0  0  0  0  0  0  0  0  0  0
  138.7512   77.7948  219.6874 H   0  0  0  0  0  0  0  0  0  0  0  0
  139.8079   76.6717  218.6758 H   0  0  0  0  0  0  0  0  0  0  0  0
  138.0301   76.0825  220.8486 H   0  0  0  0  0  0  0  0  0  0  0  0
  138.8872   75.0099  219.6659 H   0  0  0  0  0  0  0  0  0  0  0  0
  137.9897   70.7818  224.6503 H   0  0  0  0  0  0  0  0  0  0  0  0
  138.3906   70.3607  222.9710 H   0  0  0  0  0  0  0  0  0  0  0  0
  138.4585   68.3508  224.5185 H   0  0  0  0  0  0  0  0  0  0  0  0
  140.0480   68.6642  223.7690 H   0  0  0  0  0  0  0  0  0  0  0  0
  139.2671   67.2818  226.4656 H   0  0  0  0  0  0  0  0  0  0  0  0
  140.2358   67.5089  228.7559 H   0  0  0  0  0  0  0  0  0  0  0  0
  141.4113   69.6400  229.3534 H   0  0  0  0  0  0  0  0  0  0  0  0
  141.5786   71.4348  227.6871 H   0  0  0  0  0  0  0  0  0  0  0  0
  140.3571   72.4730  225.7434 H   0  0  0  0  0  0  0  0  0  0  0  0
  141.7660   71.6812  224.9824 H   0  0  0  0  0  0  0  0  0  0  0  0
  142.9953   74.8448  219.3496 H   0  0  0  0  0  0  0  0  0  0  0  0
  144.8178   75.9772  220.6505 H   0  0  0  0  0  0  0  0  0  0  0  0
  1  2  2  0
  2  3  1  0
  3  4  2  0
  4  5  1  0
  5  6  1  0
  6  7  1  0
  7  8  2  0
  8  9  1  0
  9 10  1  0
 10 11  1  0
 11 12  1  0
 12 13  1  0
 13 14  1  0
 14 15  2  0
 15 16  1  0
 16 17  2  0
 17 18  1  0
 18 19  2  0
 13 20  1  0
 20 21  1  0
  9 22  2  0
 22 23  1  0
 23 24  1  0
 24 25  1  0
 25 26  1  0
 26 27  1  0
 27 28  2  0
 28 29  1  0
 29 30  2  0
 30 31  1  0
 31 32  2  0
 32 33  1  0
 23 34  2  0
  4 35  1  0
 35 36  2  0
 36  1  1  0
 34  7  1  0
 21 10  1  0
 33 24  1  0
 19 14  1  0
 32 27  1  0
  1 37  1  0
  2 38  1  0
  3 39  1  0
  5 40  1  0
  5 41  1  0
  6 42  1  0
 11 43  1  0
 11 44  1  0
 12 45  1  0
 12 46  1  0
 15 47  1  0
 16 48  1  0
 17 49  1  0
 18 50  1  0
 20 51  1  0
 20 52  1  0
 21 53  1  0
 21 54  1  0
 25 55  1  0
 25 56  1  0
 26 57  1  0
 26 58  1  0
 28 59  1  0
 29 60  1  0
 30 61  1  0
 31 62  1  0
 33 63  1  0
 33 64  1  0
 35 65  1  0
 36 66  1  0
M  END
>  <smiles>  (20) 
c1ccc(CNc2nc(N3CCN(c4ccccn4)CC3)nc(N3CCc4ccccc4C3)n2)cc1

>  <score_type>  (20) 
oracle

>  <origin>  (20) 
autodockgpu

>  <m_score__min__energy>  (20) 
-10.789999999999999

>  <m_primary>  (20) 
energy

>  <rmsd>  (20) 
8.299097166866071

>  <m_score__min__rmsd>  (20) 
8.299097166866071

>  <meeko>  (20) 
{"free_energy": -9.32, "intermolecular_energy": -11.11, "internal_energy": -1.66, "cluster_size": 1, "cluster_id": 2, "rank_in_cluster": 1}

>  <energy>  (20) 
-10.54

>  <cluster_rmsd>  (20) 
0.49

>  <cluster>  (20) 
1

$$$$

     RDKit          3D

 66 71  0  0  0  0  0  0  0  0999 V2000
  140.6490   70.7860  227.6980 C   0  0  0  0  0  0  0  0  0  0  0  0
  139.9920   69.7130  227.1200 C   0  0  0  0  0  0  0  0  0  0  0  0
  139.7480   69.6990  225.7580 C   0  0  0  0  0  0  0  0  0  0  0  0
  140.1800   70.7800  225.0120 C   0  0  0  0  0  0  0  0  0  0  0  0
  139.9180   70.7610  223.5520 C   0  0  0  0  0  0  0  0  0  0  0  0
  139.2980   72.0070  223.1880 N   0  0  0  0  0  0  0  0  0  0  0  0
  140.0170   72.8870  222.3220 C   0  0  0  0  0  0  0  0  0  0  0  0
  140.9060   72.4000  221.4470 N   0  0  0  0  0  0  0  0  0  0  0  0
  141.6070   73.1870  220.6090 C   0  0  0  0  0  0  0  0  0  0  0  0
  142.5530   72.6760  219.6820 N   0  0  0  0  0  0  0  0  0  0  0  0
  143.9890   72.8120  219.8510 C   0  0  0  0  0  0  0  0  0  0  0  0
  144.5180   71.4230  220.1030 C   0  0  0  0  0  0  0  0  0  0  0  0
  143.9390   70.4560  219.2180 N   0  0  0  0  0  0  0  0  0  0  0  0
  144.4900   69.1240  219.2670 C   0  0  0  0  0  0  0  0  0  0  0  0
  143.7530   68.0160  218.8970 C   0  0  0  0  0  0  0  0  0  0  0  0
  144.2570   66.7300  218.9350 C   0  0  0  0  0  0  0  0  0  0  0  0
  145.5660   66.5660  219.3670 C   0  0  0  0  0  0  0  0  0  0  0  0
  146.3070   67.6790  219.7370 C   0  0  0  0  0  0  0  0  0  0  0  0
  145.7520   68.8910  219.6740 N   0  0  0  0  0  0  0  0  0  0  0  0
  142.8710   70.6810  218.2970 C   0  0  0  0  0  0  0  0  0  0  0  0
  142.1280   71.9640  218.4700 C   0  0  0  0  0  0  0  0  0  0  0  0
  141.4090   74.5110  220.6510 N   0  0  0  0  0  0  0  0  0  0  0  0
  140.5110   75.0500  221.5290 C   0  0  0  0  0  0  0  0  0  0  0  0
  140.2920   76.4690  221.5790 N   0  0  0  0  0  0  0  0  0  0  0  0
  138.9330   76.9490  221.6870 C   0  0  0  0  0  0  0  0  0  0  0  0
  138.8800   77.8530  222.9190 C   0  0  0  0  0  0  0  0  0  0  0  0
  139.9070   78.9130  222.7540 C   0  0  0  0  0  0  0  0  0  0  0  0
  139.6640   80.1810  223.2680 C   0  0  0  0  0  0  0  0  0  0  0  0
  140.5940   81.2100  223.1370 C   0  0  0  0  0  0  0  0  0  0  0  0
  141.7790   80.9360  222.4780 C   0  0  0  0  0  0  0  0  0  0  0  0
  141.9900   79.6730  221.9800 C   0  0  0  0  0  0  0  0  0  0  0  0
  141.0710   78.6420  222.1050 C   0  0  0  0  0  0  0  0  0  0  0  0
  141.4460   77.3380  221.5170 C   0  0  0  0  0  0  0  0  0  0  0  0
  139.8350   74.2130  222.3470 N   0  0  0  0  0  0  0  0  0  0  0  0
  140.8320   71.8470  225.5800 C   0  0  0  0  0  0  0  0  0  0  0  0
  141.0800   71.8660  226.9500 C   0  0  0  0  0  0  0  0  0  0  0  0
  140.8332   70.7790  228.7824 H   0  0  0  0  0  0  0  0  0  0  0  0
  139.6632   68.8696  227.7450 H   0  0  0  0  0  0  0  0  0  0  0  0
  139.2267   68.8544  225.2837 H   0  0  0  0  0  0  0  0  0  0  0  0
  140.8654   70.6434  223.0056 H   0  0  0  0  0  0  0  0  0  0  0  0
  139.2568   69.9199  223.2966 H   0  0  0  0  0  0  0  0  0  0  0  0
  138.3640   72.2790  223.5280 H   0  0  0  0  0  0  0  0  0  0  0  0
  144.4416   73.2328  218.9410 H   0  0  0  0  0  0  0  0  0  0  0  0
  144.2316   73.4896  220.6829 H   0  0  0  0  0  0  0  0  0  0  0  0
  145.6085   71.4274  219.9588 H   0  0  0  0  0  0  0  0  0  0  0  0
  144.2522   71.1413  221.1326 H   0  0  0  0  0  0  0  0  0  0  0  0
  142.7176   68.1641  218.5565 H   0  0  0  0  0  0  0  0  0  0  0  0
  143.6436   65.8680  218.6340 H   0  0  0  0  0  0  0  0  0  0  0  0
  146.0121   65.5617  219.4156 H   0  0  0  0  0  0  0  0  0  0  0  0
  147.3457   67.5632  220.0802 H   0  0  0  0  0  0  0  0  0  0  0  0
  143.2924   70.6686  217.2810 H   0  0  0  0  0  0  0  0  0  0  0  0
  142.1387   69.8821  218.4853 H   0  0  0  0  0  0  0  0  0  0  0  0
  142.3143   72.6050  217.5957 H   0  0  0  0  0  0  0  0  0  0  0  0
  141.0572   71.7311  218.5656 H   0  0  0  0  0  0  0  0  0  0  0  0
  138.6602   77.5194  220.7868 H   0  0  0  0  0  0  0  0  0  0  0  0
  138.2253   76.1122  221.7809 H   0  0  0  0  0  0  0  0  0  0  0  0
  137.8828   78.3093  223.0048 H   0  0  0  0  0  0  0  0  0  0  0  0
  139.0760   77.2692  223.8305 H   0  0  0  0  0  0  0  0  0  0  0  0
  138.7158   80.3767  223.7902 H   0  0  0  0  0  0  0  0  0  0  0  0
  140.3919   82.2111  223.5456 H   0  0  0  0  0  0  0  0  0  0  0  0
  142.5420   81.7187  222.3544 H   0  0  0  0  0  0  0  0  0  0  0  0
  142.9354   79.4694  221.4558 H   0  0  0  0  0  0  0  0  0  0  0  0
  141.7533   77.4757  220.4698 H   0  0  0  0  0  0  0  0  0  0  0  0
  142.2860   76.8965  222.0733 H   0  0  0  0  0  0  0  0  0  0  0  0
  141.1590   72.6883  224.9513 H   0  0  0  0  0  0  0  0  0  0  0  0
  141.6014   72.7120  227.4215 H   0  0  0  0  0  0  0  0  0  0  0  0
  1  2  2  0
  2  3  1  0
  3  4  2  0
  4  5  1  0
  5  6  1  0
  6  7  1  0
  7  8  2  0
  8  9  1  0
  9 10  1  0
 10 11  1  0
 11 12  1  0
 12 13  1  0
 13 14  1  0
 14 15  2  0
 15 16  1  0
 16 17  2  0
 17 18  1  0
 18 19  2  0
 13 20  1  0
 20 21  1  0
  9 22  2  0
 22 23  1  0
 23 24  1  0
 24 25  1  0
 25 26  1  0
 26 27  1  0
 27 28  2  0
 28 29  1  0
 29 30  2  0
 30 31  1  0
 31 32  2  0
 32 33  1  0
 23 34  2  0
  4 35  1  0
 35 36  2  0
 36  1  1  0
 34  7  1  0
 21 10  1  0
 33 24  1  0
 19 14  1  0
 32 27  1  0
  1 37  1  0
  2 38  1  0
  3 39  1  0
  5 40  1  0
  5 41  1  0
  6 42  1  0
 11 43  1  0
 11 44  1  0
 12 45  1  0
 12 46  1  0
 15 47  1  0
 16 48  1  0
 17 49  1  0
 18 50  1  0
 20 51  1  0
 20 52  1  0
 21 53  1  0
 21 54  1  0
 25 55  1  0
 25 56  1  0
 26 57  1  0
 26 58  1  0
 28 59  1  0
 29 60  1  0
 30 61  1  0
 31 62  1  0
 33 63  1  0
 33 64  1  0
 35 65  1  0
 36 66  1  0
M  END
>  <smiles>  (21) 
c1ccc(CNc2nc(N3CCN(c4ccccn4)CC3)nc(N3CCc4ccccc4C3)n2)cc1

>  <score_type>  (21) 
oracle

>  <origin>  (21) 
autodockgpu

>  <m_score__min__energy>  (21) 
-10.789999999999999

>  <m_primary>  (21) 
energy

>  <rmsd>  (21) 
6.6892332496904325

>  <m_score__min__rmsd>  (21) 
6.6892332496904325

>  <meeko>  (21) 
{"free_energy": -10.61, "intermolecular_energy": -12.4, "internal_energy": -1.15, "cluster_size": 49, "cluster_id": 1, "rank_in_cluster": 15}

>  <energy>  (21) 
-10.5

>  <cluster_rmsd>  (21) 
1.57

>  <cluster>  (21) 
1

$$$$

     RDKit          3D

 66 71  0  0  0  0  0  0  0  0999 V2000
  145.9000   74.0870  221.0220 C   0  0  0  0  0  0  0  0  0  0  0  0
  144.8270   74.7690  220.4760 C   0  0  0  0  0  0  0  0  0  0  0  0
  143.8840   74.0940  219.7210 C   0  0  0  0  0  0  0  0  0  0  0  0
  144.0550   72.7340  219.5380 C   0  0  0  0  0  0  0  0  0  0  0  0
  143.0420   72.0130  218.7290 C   0  0  0  0  0  0  0  0  0  0  0  0
  142.1920   71.2750  219.6240 N   0  0  0  0  0  0  0  0  0  0  0  0
  141.4400   72.0070  220.5930 C   0  0  0  0  0  0  0  0  0  0  0  0
  141.1050   73.2840  220.3680 N   0  0  0  0  0  0  0  0  0  0  0  0
  140.3980   74.0160  221.2480 C   0  0  0  0  0  0  0  0  0  0  0  0
  140.0420   75.3710  221.0150 N   0  0  0  0  0  0  0  0  0  0  0  0
  138.9960   76.0590  221.7520 C   0  0  0  0  0  0  0  0  0  0  0  0
  139.6890   77.1050  222.5890 C   0  0  0  0  0  0  0  0  0  0  0  0
  140.6940   77.8080  221.8510 N   0  0  0  0  0  0  0  0  0  0  0  0
  141.3080   78.9360  222.5070 C   0  0  0  0  0  0  0  0  0  0  0  0
  140.5590   79.8970  223.1590 C   0  0  0  0  0  0  0  0  0  0  0  0
  141.1230   80.9870  223.7950 C   0  0  0  0  0  0  0  0  0  0  0  0
  142.5060   81.1020  223.7660 C   0  0  0  0  0  0  0  0  0  0  0  0
  143.2580   80.1360  223.1130 C   0  0  0  0  0  0  0  0  0  0  0  0
  142.6430   79.1110  222.5200 N   0  0  0  0  0  0  0  0  0  0  0  0
  141.1500   77.5010  220.5320 C   0  0  0  0  0  0  0  0  0  0  0  0
  140.7250   76.1760  219.9940 C   0  0  0  0  0  0  0  0  0  0  0  0
  140.0120   73.4460  222.3980 N   0  0  0  0  0  0  0  0  0  0  0  0
  140.3320   72.1460  222.6680 C   0  0  0  0  0  0  0  0  0  0  0  0
  139.9220   71.5280  223.8990 N   0  0  0  0  0  0  0  0  0  0  0  0
  138.7560   70.6730  223.8800 C   0  0  0  0  0  0  0  0  0  0  0  0
  139.1890   69.3220  224.4470 C   0  0  0  0  0  0  0  0  0  0  0  0
  139.7720   69.5560  225.7940 C   0  0  0  0  0  0  0  0  0  0  0  0
  139.6080   68.5930  226.7830 C   0  0  0  0  0  0  0  0  0  0  0  0
  140.1330   68.7660  228.0610 C   0  0  0  0  0  0  0  0  0  0  0  0
  140.8300   69.9320  228.3260 C   0  0  0  0  0  0  0  0  0  0  0  0
  140.9750   70.8660  227.3280 C   0  0  0  0  0  0  0  0  0  0  0  0
  140.4560   70.7020  226.0520 C   0  0  0  0  0  0  0  0  0  0  0  0
  140.6970   71.7970  225.0880 C   0  0  0  0  0  0  0  0  0  0  0  0
  141.0450   71.4580  221.7490 N   0  0  0  0  0  0  0  0  0  0  0  0
  145.1180   72.0520  220.0770 C   0  0  0  0  0  0  0  0  0  0  0  0
  146.0690   72.7270  220.8380 C   0  0  0  0  0  0  0  0  0  0  0  0
  146.6388   74.6419  221.6188 H   0  0  0  0  0  0  0  0  0  0  0  0
  144.7232   75.8513  220.6427 H   0  0  0  0  0  0  0  0  0  0  0  0
  143.0257   74.6224  219.2804 H   0  0  0  0  0  0  0  0  0  0  0  0
  142.4414   72.7346  218.1558 H   0  0  0  0  0  0  0  0  0  0  0  0
  143.5367   71.3280  218.0247 H   0  0  0  0  0  0  0  0  0  0  0  0
  142.1090   70.2480  219.5870 H   0  0  0  0  0  0  0  0  0  0  0  0
  138.2889   76.5344  221.0563 H   0  0  0  0  0  0  0  0  0  0  0  0
  138.4214   75.3607  222.3783 H   0  0  0  0  0  0  0  0  0  0  0  0
  138.9399   77.8277  222.9448 H   0  0  0  0  0  0  0  0  0  0  0  0
  140.1819   76.5938  223.4291 H   0  0  0  0  0  0  0  0  0  0  0  0
  139.4643   79.7897  223.1725 H   0  0  0  0  0  0  0  0  0  0  0  0
  140.4990   81.7355  224.3052 H   0  0  0  0  0  0  0  0  0  0  0  0
  143.0019   81.9523  224.2569 H   0  0  0  0  0  0  0  0  0  0  0  0
  144.3548   80.2147  223.0843 H   0  0  0  0  0  0  0  0  0  0  0  0
  140.7706   78.2791  219.8533 H   0  0  0  0  0  0  0  0  0  0  0  0
  142.2475   77.4616  220.5951 H   0  0  0  0  0  0  0  0  0  0  0  0
  140.0393   76.3372  219.1491 H   0  0  0  0  0  0  0  0  0  0  0  0
  141.6247   75.6312  219.6719 H   0  0  0  0  0  0  0  0  0  0  0  0
  137.9586   71.1064  224.5016 H   0  0  0  0  0  0  0  0  0  0  0  0
  138.3633   70.5643  222.8583 H   0  0  0  0  0  0  0  0  0  0  0  0
  138.3184   68.6545  224.5277 H   0  0  0  0  0  0  0  0  0  0  0  0
  139.9305   68.8496  223.7860 H   0  0  0  0  0  0  0  0  0  0  0  0
  139.0508   67.6734  226.5507 H   0  0  0  0  0  0  0  0  0  0  0  0
  139.9977   67.9984  228.8373 H   0  0  0  0  0  0  0  0  0  0  0  0
  141.2621   70.1089  229.3220 H   0  0  0  0  0  0  0  0  0  0  0  0
  141.5299   71.7889  227.5522 H   0  0  0  0  0  0  0  0  0  0  0  0
  140.3847   72.7558  225.5274 H   0  0  0  0  0  0  0  0  0  0  0  0
  141.7669   71.8569  224.8396 H   0  0  0  0  0  0  0  0  0  0  0  0
  145.2185   70.9698  219.9072 H   0  0  0  0  0  0  0  0  0  0  0  0
  146.9260   72.1961  221.2780 H   0  0  0  0  0  0  0  0  0  0  0  0
  1  2  2  0
  2  3  1  0
  3  4  2  0
  4  5  1  0
  5  6  1  0
  6  7  1  0
  7  8  2  0
  8  9  1  0
  9 10  1  0
 10 11  1  0
 11 12  1  0
 12 13  1  0
 13 14  1  0
 14 15  2  0
 15 16  1  0
 16 17  2  0
 17 18  1  0
 18 19  2  0
 13 20  1  0
 20 21  1  0
  9 22  2  0
 22 23  1  0
 23 24  1  0
 24 25  1  0
 25 26  1  0
 26 27  1  0
 27 28  2  0
 28 29  1  0
 29 30  2  0
 30 31  1  0
 31 32  2  0
 32 33  1  0
 23 34  2  0
  4 35  1  0
 35 36  2  0
 36  1  1  0
 34  7  1  0
 21 10  1  0
 33 24  1  0
 19 14  1  0
 32 27  1  0
  1 37  1  0
  2 38  1  0
  3 39  1  0
  5 40  1  0
  5 41  1  0
  6 42  1  0
 11 43  1  0
 11 44  1  0
 12 45  1  0
 12 46  1  0
 15 47  1  0
 16 48  1  0
 17 49  1  0
 18 50  1  0
 20 51  1  0
 20 52  1  0
 21 53  1  0
 21 54  1  0
 25 55  1  0
 25 56  1  0
 26 57  1  0
 26 58  1  0
 28 59  1  0
 29 60  1  0
 30 61  1  0
 31 62  1  0
 33 63  1  0
 33 64  1  0
 35 65  1  0
 36 66  1  0
M  END
>  <smiles>  (22) 
c1ccc(CNc2nc(N3CCN(c4ccccn4)CC3)nc(N3CCc4ccccc4C3)n2)cc1

>  <score_type>  (22) 
oracle

>  <origin>  (22) 
autodockgpu

>  <m_score__min__energy>  (22) 
-10.789999999999999

>  <m_primary>  (22) 
energy

>  <rmsd>  (22) 
8.045645463059033

>  <m_score__min__rmsd>  (22) 
8.045645463059033

>  <meeko>  (22) 
{"free_energy": -10.63, "intermolecular_energy": -12.42, "internal_energy": -1.53, "cluster_size": 49, "cluster_id": 1, "rank_in_cluster": 13}

>  <energy>  (22) 
-10.49

>  <cluster_rmsd>  (22) 
1.84

>  <cluster>  (22) 
1

$$$$

     RDKit          3D

 66 71  0  0  0  0  0  0  0  0999 V2000
  145.8650   74.1440  220.9820 C   0  0  0  0  0  0  0  0  0  0  0  0
  146.0170   72.7830  220.7800 C   0  0  0  0  0  0  0  0  0  0  0  0
  145.0790   72.0790  220.0460 C   0  0  0  0  0  0  0  0  0  0  0  0
  144.0030   72.7790  219.5310 C   0  0  0  0  0  0  0  0  0  0  0  0
  143.0000   72.0210  218.7440 C   0  0  0  0  0  0  0  0  0  0  0  0
  142.1750   71.2790  219.6580 N   0  0  0  0  0  0  0  0  0  0  0  0
  141.4130   72.0100  220.6210 C   0  0  0  0  0  0  0  0  0  0  0  0
  141.0670   73.2820  220.3870 N   0  0  0  0  0  0  0  0  0  0  0  0
  140.3500   74.0130  221.2610 C   0  0  0  0  0  0  0  0  0  0  0  0
  139.9830   75.3630  221.0190 N   0  0  0  0  0  0  0  0  0  0  0  0
  138.8950   76.0300  221.7140 C   0  0  0  0  0  0  0  0  0  0  0  0
  139.5340   77.0830  222.5850 C   0  0  0  0  0  0  0  0  0  0  0  0
  140.5590   77.8060  221.8930 N   0  0  0  0  0  0  0  0  0  0  0  0
  141.1250   78.9410  222.5800 C   0  0  0  0  0  0  0  0  0  0  0  0
  142.4900   79.1520  222.6370 C   0  0  0  0  0  0  0  0  0  0  0  0
  143.0570   80.2300  223.2890 C   0  0  0  0  0  0  0  0  0  0  0  0
  142.2000   81.1300  223.9080 C   0  0  0  0  0  0  0  0  0  0  0  0
  140.8300   80.9180  223.8500 C   0  0  0  0  0  0  0  0  0  0  0  0
  140.3550   79.8530  223.2020 N   0  0  0  0  0  0  0  0  0  0  0  0
  141.0750   77.5130  220.5940 C   0  0  0  0  0  0  0  0  0  0  0  0
  140.6950   76.1840  220.0320 C   0  0  0  0  0  0  0  0  0  0  0  0
  139.9660   73.4460  222.4130 N   0  0  0  0  0  0  0  0  0  0  0  0
  140.2980   72.1510  222.6920 C   0  0  0  0  0  0  0  0  0  0  0  0
  139.8900   71.5360  223.9250 N   0  0  0  0  0  0  0  0  0  0  0  0
  138.6970   70.7190  223.9200 C   0  0  0  0  0  0  0  0  0  0  0  0
  139.0970   69.3500  224.4700 C   0  0  0  0  0  0  0  0  0  0  0  0
  139.7100   69.5540  225.8080 C   0  0  0  0  0  0  0  0  0  0  0  0
  139.5330   68.5890  226.7910 C   0  0  0  0  0  0  0  0  0  0  0  0
  140.0860   68.7350  228.0610 C   0  0  0  0  0  0  0  0  0  0  0  0
  140.8240   69.8760  228.3230 C   0  0  0  0  0  0  0  0  0  0  0  0
  140.9810   70.8130  227.3300 C   0  0  0  0  0  0  0  0  0  0  0  0
  140.4350   70.6760  226.0620 C   0  0  0  0  0  0  0  0  0  0  0  0
  140.6940   71.7710  225.1020 C   0  0  0  0  0  0  0  0  0  0  0  0
  141.0190   71.4640  221.7790 N   0  0  0  0  0  0  0  0  0  0  0  0
  143.8470   74.1290  219.7280 C   0  0  0  0  0  0  0  0  0  0  0  0
  144.7880   74.8410  220.4660 C   0  0  0  0  0  0  0  0  0  0  0  0
  146.6214   74.6857  221.5688 H   0  0  0  0  0  0  0  0  0  0  0  0
  146.8864   72.2595  221.2044 H   0  0  0  0  0  0  0  0  0  0  0  0
  145.1856   70.9972  219.8774 H   0  0  0  0  0  0  0  0  0  0  0  0
  142.3779   72.7187  218.1641 H   0  0  0  0  0  0  0  0  0  0  0  0
  143.5047   71.3354  218.0474 H   0  0  0  0  0  0  0  0  0  0  0  0
  142.1160   70.2500  219.6400 H   0  0  0  0  0  0  0  0  0  0  0  0
  138.2105   76.4974  220.9909 H   0  0  0  0  0  0  0  0  0  0  0  0
  138.3060   75.3190  222.3119 H   0  0  0  0  0  0  0  0  0  0  0  0
  138.7586   77.7918  222.9111 H   0  0  0  0  0  0  0  0  0  0  0  0
  139.9982   76.5760  223.4437 H   0  0  0  0  0  0  0  0  0  0  0  0
  143.1545   78.4292  222.1410 H   0  0  0  0  0  0  0  0  0  0  0  0
  144.1477   80.3702  223.3167 H   0  0  0  0  0  0  0  0  0  0  0  0
  142.6038   82.0040  224.4401 H   0  0  0  0  0  0  0  0  0  0  0  0
  140.1398   81.6237  224.3354 H   0  0  0  0  0  0  0  0  0  0  0  0
  140.7121   78.2884  219.9033 H   0  0  0  0  0  0  0  0  0  0  0  0
  142.1693   77.4906  220.7038 H   0  0  0  0  0  0  0  0  0  0  0  0
  140.0432   76.3386  219.1595 H   0  0  0  0  0  0  0  0  0  0  0  0
  141.6163   75.6556  219.7456 H   0  0  0  0  0  0  0  0  0  0  0  0
  137.9246   71.1727  224.5585 H   0  0  0  0  0  0  0  0  0  0  0  0
  138.2832   70.6309  222.9046 H   0  0  0  0  0  0  0  0  0  0  0  0
  138.2072   68.7097  224.5608 H   0  0  0  0  0  0  0  0  0  0  0  0
  139.8121   68.8601  223.7927 H   0  0  0  0  0  0  0  0  0  0  0  0
  138.9430   67.6894  226.5615 H   0  0  0  0  0  0  0  0  0  0  0  0
  139.9403   67.9655  228.8335 H   0  0  0  0  0  0  0  0  0  0  0  0
  141.2788   70.0308  229.3126 H   0  0  0  0  0  0  0  0  0  0  0  0
  141.5686   71.7162  227.5515 H   0  0  0  0  0  0  0  0  0  0  0  0
  140.4201   72.7357  225.5541 H   0  0  0  0  0  0  0  0  0  0  0  0
  141.7608   71.7993  224.8352 H   0  0  0  0  0  0  0  0  0  0  0  0
  142.9764   74.6488  219.3016 H   0  0  0  0  0  0  0  0  0  0  0  0
  144.6785   75.9227  220.6333 H   0  0  0  0  0  0  0  0  0  0  0  0
  1  2  2  0
  2  3  1  0
  3  4  2  0
  4  5  1  0
  5  6  1  0
  6  7  1  0
  7  8  2  0
  8  9  1  0
  9 10  1  0
 10 11  1  0
 11 12  1  0
 12 13  1  0
 13 14  1  0
 14 15  2  0
 15 16  1  0
 16 17  2  0
 17 18  1  0
 18 19  2  0
 13 20  1  0
 20 21  1  0
  9 22  2  0
 22 23  1  0
 23 24  1  0
 24 25  1  0
 25 26  1  0
 26 27  1  0
 27 28  2  0
 28 29  1  0
 29 30  2  0
 30 31  1  0
 31 32  2  0
 32 33  1  0
 23 34  2  0
  4 35  1  0
 35 36  2  0
 36  1  1  0
 34  7  1  0
 21 10  1  0
 33 24  1  0
 19 14  1  0
 32 27  1  0
  1 37  1  0
  2 38  1  0
  3 39  1  0
  5 40  1  0
  5 41  1  0
  6 42  1  0
 11 43  1  0
 11 44  1  0
 12 45  1  0
 12 46  1  0
 15 47  1  0
 16 48  1  0
 17 49  1  0
 18 50  1  0
 20 51  1  0
 20 52  1  0
 21 53  1  0
 21 54  1  0
 25 55  1  0
 25 56  1  0
 26 57  1  0
 26 58  1  0
 28 59  1  0
 29 60  1  0
 30 61  1  0
 31 62  1  0
 33 63  1  0
 33 64  1  0
 35 65  1  0
 36 66  1  0
M  END
>  <smiles>  (23) 
c1ccc(CNc2nc(N3CCN(c4ccccn4)CC3)nc(N3CCc4ccccc4C3)n2)cc1

>  <score_type>  (23) 
oracle

>  <origin>  (23) 
autodockgpu

>  <m_score__min__energy>  (23) 
-10.789999999999999

>  <m_primary>  (23) 
energy

>  <rmsd>  (23) 
7.990541063348685

>  <m_score__min__rmsd>  (23) 
7.990541063348685

>  <meeko>  (23) 
{"free_energy": -10.64, "intermolecular_energy": -12.43, "internal_energy": -1.55, "cluster_size": 49, "cluster_id": 1, "rank_in_cluster": 10}

>  <energy>  (23) 
-10.49

>  <cluster_rmsd>  (23) 
1.89

>  <cluster>  (23) 
1

$$$$

     RDKit          3D

 66 71  0  0  0  0  0  0  0  0999 V2000
  145.0080   74.7400  220.4500 C   0  0  0  0  0  0  0  0  0  0  0  0
  145.3620   73.6090  221.1630 C   0  0  0  0  0  0  0  0  0  0  0  0
  144.7660   72.3930  220.8800 C   0  0  0  0  0  0  0  0  0  0  0  0
  143.8200   72.3550  219.8720 C   0  0  0  0  0  0  0  0  0  0  0  0
  143.1840   71.0490  219.5700 C   0  0  0  0  0  0  0  0  0  0  0  0
  141.7660   71.2540  219.4540 N   0  0  0  0  0  0  0  0  0  0  0  0
  141.1080   71.9970  220.4810 C   0  0  0  0  0  0  0  0  0  0  0  0
  140.7760   73.2790  220.2850 N   0  0  0  0  0  0  0  0  0  0  0  0
  140.1550   74.0210  221.2210 C   0  0  0  0  0  0  0  0  0  0  0  0
  139.8040   75.3820  221.0180 N   0  0  0  0  0  0  0  0  0  0  0  0
  138.7900   76.0690  221.8000 C   0  0  0  0  0  0  0  0  0  0  0  0
  139.5210   77.0970  222.6270 C   0  0  0  0  0  0  0  0  0  0  0  0
  140.5060   77.8020  221.8630 N   0  0  0  0  0  0  0  0  0  0  0  0
  141.1530   78.9160  222.5130 C   0  0  0  0  0  0  0  0  0  0  0  0
  142.5240   79.0810  222.4840 C   0  0  0  0  0  0  0  0  0  0  0  0
  143.1670   80.1380  223.0990 C   0  0  0  0  0  0  0  0  0  0  0  0
  142.3820   81.0650  223.7700 C   0  0  0  0  0  0  0  0  0  0  0  0
  141.0040   80.9000  223.7980 C   0  0  0  0  0  0  0  0  0  0  0  0
  140.4540   79.8520  223.1810 N   0  0  0  0  0  0  0  0  0  0  0  0
  140.9130   77.5090  220.5260 C   0  0  0  0  0  0  0  0  0  0  0  0
  140.4580   76.1950  219.9850 C   0  0  0  0  0  0  0  0  0  0  0  0
  139.8550   73.4560  222.3980 N   0  0  0  0  0  0  0  0  0  0  0  0
  140.1760   72.1500  222.6400 C   0  0  0  0  0  0  0  0  0  0  0  0
  139.8570   71.5360  223.9000 N   0  0  0  0  0  0  0  0  0  0  0  0
  138.7210   70.6430  223.9590 C   0  0  0  0  0  0  0  0  0  0  0  0
  139.2320   69.3150  224.5170 C   0  0  0  0  0  0  0  0  0  0  0  0
  139.8820   69.5870  225.8250 C   0  0  0  0  0  0  0  0  0  0  0  0
  139.8080   68.6330  226.8330 C   0  0  0  0  0  0  0  0  0  0  0  0
  140.3990   68.8420  228.0770 C   0  0  0  0  0  0  0  0  0  0  0  0
  141.0700   70.0340  228.2860 C   0  0  0  0  0  0  0  0  0  0  0  0
  141.1260   70.9580  227.2710 C   0  0  0  0  0  0  0  0  0  0  0  0
  140.5410   70.7590  226.0290 C   0  0  0  0  0  0  0  0  0  0  0  0
  140.6900   71.8480  225.0390 C   0  0  0  0  0  0  0  0  0  0  0  0
  140.7990   71.4520  221.6650 N   0  0  0  0  0  0  0  0  0  0  0  0
  143.4660   73.4750  219.1600 C   0  0  0  0  0  0  0  0  0  0  0  0
  144.0620   74.7010  219.4410 C   0  0  0  0  0  0  0  0  0  0  0  0
  145.4922   75.6976  220.6919 H   0  0  0  0  0  0  0  0  0  0  0  0
  146.1198   73.6765  221.9575 H   0  0  0  0  0  0  0  0  0  0  0  0
  145.0361   71.4850  221.4391 H   0  0  0  0  0  0  0  0  0  0  0  0
  143.5811   70.6517  218.6242 H   0  0  0  0  0  0  0  0  0  0  0  0
  143.3985   70.3282  220.3728 H   0  0  0  0  0  0  0  0  0  0  0  0
  141.2170   70.8880  218.6620 H   0  0  0  0  0  0  0  0  0  0  0  0
  138.0640   76.5603  221.1355 H   0  0  0  0  0  0  0  0  0  0  0  0
  138.2306   75.3671  222.4360 H   0  0  0  0  0  0  0  0  0  0  0  0
  138.7913   77.8208  223.0190 H   0  0  0  0  0  0  0  0  0  0  0  0
  140.0382   76.5701  223.4424 H   0  0  0  0  0  0  0  0  0  0  0  0
  143.1313   78.3374  221.9471 H   0  0  0  0  0  0  0  0  0  0  0  0
  144.2614   80.2410  223.0582 H   0  0  0  0  0  0  0  0  0  0  0  0
  142.8480   81.9236  224.2756 H   0  0  0  0  0  0  0  0  0  0  0  0
  140.3697   81.6279  224.3250 H   0  0  0  0  0  0  0  0  0  0  0  0
  140.5174   78.2995  219.8713 H   0  0  0  0  0  0  0  0  0  0  0  0
  142.0116   77.4591  220.5509 H   0  0  0  0  0  0  0  0  0  0  0  0
  139.7448   76.3736  219.1668 H   0  0  0  0  0  0  0  0  0  0  0  0
  141.3411   75.6473  219.6242 H   0  0  0  0  0  0  0  0  0  0  0  0
  137.9464   71.0587  224.6203 H   0  0  0  0  0  0  0  0  0  0  0  0
  138.2737   70.5069  222.9633 H   0  0  0  0  0  0  0  0  0  0  0  0
  138.3909   68.6198  224.6554 H   0  0  0  0  0  0  0  0  0  0  0  0
  139.9507   68.8588  223.8204 H   0  0  0  0  0  0  0  0  0  0  0  0
  139.2707   67.6919  226.6442 H   0  0  0  0  0  0  0  0  0  0  0  0
  140.3342   68.0821  228.8696 H   0  0  0  0  0  0  0  0  0  0  0  0
  141.5526   70.2391  229.2530 H   0  0  0  0  0  0  0  0  0  0  0  0
  141.6610   71.9020  227.4520 H   0  0  0  0  0  0  0  0  0  0  0  0
  140.3715   72.8024  225.4837 H   0  0  0  0  0  0  0  0  0  0  0  0
  141.7413   71.9398  224.7287 H   0  0  0  0  0  0  0  0  0  0  0  0
  142.7090   73.4028  218.3652 H   0  0  0  0  0  0  0  0  0  0  0  0
  143.7904   75.6076  218.8803 H   0  0  0  0  0  0  0  0  0  0  0  0
  1  2  2  0
  2  3  1  0
  3  4  2  0
  4  5  1  0
  5  6  1  0
  6  7  1  0
  7  8  2  0
  8  9  1  0
  9 10  1  0
 10 11  1  0
 11 12  1  0
 12 13  1  0
 13 14  1  0
 14 15  2  0
 15 16  1  0
 16 17  2  0
 17 18  1  0
 18 19  2  0
 13 20  1  0
 20 21  1  0
  9 22  2  0
 22 23  1  0
 23 24  1  0
 24 25  1  0
 25 26  1  0
 26 27  1  0
 27 28  2  0
 28 29  1  0
 29 30  2  0
 30 31  1  0
 31 32  2  0
 32 33  1  0
 23 34  2  0
  4 35  1  0
 35 36  2  0
 36  1  1  0
 34  7  1  0
 21 10  1  0
 33 24  1  0
 19 14  1  0
 32 27  1  0
  1 37  1  0
  2 38  1  0
  3 39  1  0
  5 40  1  0
  5 41  1  0
  6 42  1  0
 11 43  1  0
 11 44  1  0
 12 45  1  0
 12 46  1  0
 15 47  1  0
 16 48  1  0
 17 49  1  0
 18 50  1  0
 20 51  1  0
 20 52  1  0
 21 53  1  0
 21 54  1  0
 25 55  1  0
 25 56  1  0
 26 57  1  0
 26 58  1  0
 28 59  1  0
 29 60  1  0
 30 61  1  0
 31 62  1  0
 33 63  1  0
 33 64  1  0
 35 65  1  0
 36 66  1  0
M  END
>  <smiles>  (24) 
c1ccc(CNc2nc(N3CCN(c4ccccn4)CC3)nc(N3CCc4ccccc4C3)n2)cc1

>  <score_type>  (24) 
oracle

>  <origin>  (24) 
autodockgpu

>  <m_score__min__energy>  (24) 
-10.789999999999999

>  <m_primary>  (24) 
energy

>  <rmsd>  (24) 
7.972061489778327

>  <m_score__min__rmsd>  (24) 
7.972061489778327

>  <meeko>  (24) 
{"free_energy": -10.17, "intermolecular_energy": -11.96, "internal_energy": -1.6, "cluster_size": 49, "cluster_id": 1, "rank_in_cluster": 36}

>  <energy>  (24) 
-10.48

>  <cluster_rmsd>  (24) 
1.86

>  <cluster>  (24) 
1

$$$$

     RDKit          3D

 66 71  0  0  0  0  0  0  0  0999 V2000
  144.6940   74.5910  220.2800 C   0  0  0  0  0  0  0  0  0  0  0  0
  144.9230   73.5590  221.1720 C   0  0  0  0  0  0  0  0  0  0  0  0
  144.4420   72.2890  220.9060 C   0  0  0  0  0  0  0  0  0  0  0  0
  143.7370   72.0980  219.7320 C   0  0  0  0  0  0  0  0  0  0  0  0
  143.2230   70.7350  219.4480 C   0  0  0  0  0  0  0  0  0  0  0  0
  141.7860   70.7800  219.4730 N   0  0  0  0  0  0  0  0  0  0  0  0
  141.1570   71.6270  220.4360 C   0  0  0  0  0  0  0  0  0  0  0  0
  140.8900   72.9060  220.1420 N   0  0  0  0  0  0  0  0  0  0  0  0
  140.2980   73.7440  221.0140 C   0  0  0  0  0  0  0  0  0  0  0  0
  140.0150   75.1010  220.7080 N   0  0  0  0  0  0  0  0  0  0  0  0
  138.9440   75.8540  221.3370 C   0  0  0  0  0  0  0  0  0  0  0  0
  139.6100   76.9040  222.1900 C   0  0  0  0  0  0  0  0  0  0  0  0
  140.6970   77.5420  221.5100 N   0  0  0  0  0  0  0  0  0  0  0  0
  141.3020   78.6700  222.1750 C   0  0  0  0  0  0  0  0  0  0  0  0
  141.5900   78.6520  223.5260 C   0  0  0  0  0  0  0  0  0  0  0  0
  142.1690   79.7180  224.1860 C   0  0  0  0  0  0  0  0  0  0  0  0
  142.4680   80.8500  223.4390 C   0  0  0  0  0  0  0  0  0  0  0  0
  142.1800   80.8670  222.0820 C   0  0  0  0  0  0  0  0  0  0  0  0
  141.6190   79.7990  221.5130 N   0  0  0  0  0  0  0  0  0  0  0  0
  141.2400   77.1700  220.2420 C   0  0  0  0  0  0  0  0  0  0  0  0
  140.8060   75.8420  219.7170 C   0  0  0  0  0  0  0  0  0  0  0  0
  139.9610   73.2810  222.2250 N   0  0  0  0  0  0  0  0  0  0  0  0
  140.2150   71.9830  222.5660 C   0  0  0  0  0  0  0  0  0  0  0  0
  139.8560   71.4800  223.8640 N   0  0  0  0  0  0  0  0  0  0  0  0
  138.6600   70.6770  223.9800 C   0  0  0  0  0  0  0  0  0  0  0  0
  139.0750   69.3560  224.6270 C   0  0  0  0  0  0  0  0  0  0  0  0
  139.7470   69.6680  225.9150 C   0  0  0  0  0  0  0  0  0  0  0  0
  139.6070   68.7920  226.9850 C   0  0  0  0  0  0  0  0  0  0  0  0
  140.2140   69.0420  228.2130 C   0  0  0  0  0  0  0  0  0  0  0  0
  140.9690   70.1940  228.3440 C   0  0  0  0  0  0  0  0  0  0  0  0
  141.0890   71.0410  227.2690 C   0  0  0  0  0  0  0  0  0  0  0  0
  140.4880   70.8010  226.0420 C   0  0  0  0  0  0  0  0  0  0  0  0
  140.7120   71.8070  224.9820 C   0  0  0  0  0  0  0  0  0  0  0  0
  140.8120   71.1870  221.6520 N   0  0  0  0  0  0  0  0  0  0  0  0
  143.5060   73.1190  218.8430 C   0  0  0  0  0  0  0  0  0  0  0  0
  143.9880   74.3980  219.1060 C   0  0  0  0  0  0  0  0  0  0  0  0
  145.0842   75.5933  220.5105 H   0  0  0  0  0  0  0  0  0  0  0  0
  145.4893   73.7484  222.0958 H   0  0  0  0  0  0  0  0  0  0  0  0
  144.6149   71.4583  221.6060 H   0  0  0  0  0  0  0  0  0  0  0  0
  143.5676   70.4067  218.4563 H   0  0  0  0  0  0  0  0  0  0  0  0
  143.5931   70.0255  220.2028 H   0  0  0  0  0  0  0  0  0  0  0  0
  141.2050   70.2280  218.8260 H   0  0  0  0  0  0  0  0  0  0  0  0
  138.3121   76.3291  220.5721 H   0  0  0  0  0  0  0  0  0  0  0  0
  138.2962   75.2006  221.9399 H   0  0  0  0  0  0  0  0  0  0  0  0
  138.8645   77.6664  222.4602 H   0  0  0  0  0  0  0  0  0  0  0  0
  140.0152   76.4068  223.0837 H   0  0  0  0  0  0  0  0  0  0  0  0
  141.3470   77.7472  224.1024 H   0  0  0  0  0  0  0  0  0  0  0  0
  142.3854   79.6722  225.2635 H   0  0  0  0  0  0  0  0  0  0  0  0
  142.9292   81.7256  223.9192 H   0  0  0  0  0  0  0  0  0  0  0  0
  142.4131   81.7566  221.4785 H   0  0  0  0  0  0  0  0  0  0  0  0
  140.9445   77.9359  219.5099 H   0  0  0  0  0  0  0  0  0  0  0  0
  142.3270   77.0926  220.3922 H   0  0  0  0  0  0  0  0  0  0  0  0
  140.1946   75.9969  218.8158 H   0  0  0  0  0  0  0  0  0  0  0  0
  141.7056   75.2531  219.4850 H   0  0  0  0  0  0  0  0  0  0  0  0
  137.9188   71.1906  224.6099 H   0  0  0  0  0  0  0  0  0  0  0  0
  138.2023   70.5067  222.9944 H   0  0  0  0  0  0  0  0  0  0  0  0
  138.1861   68.7345  224.8104 H   0  0  0  0  0  0  0  0  0  0  0  0
  139.7565   68.8027  223.9641 H   0  0  0  0  0  0  0  0  0  0  0  0
  139.0033   67.8811  226.8589 H   0  0  0  0  0  0  0  0  0  0  0  0
  140.0966   68.3437  229.0548 H   0  0  0  0  0  0  0  0  0  0  0  0
  141.4667   70.4287  229.2965 H   0  0  0  0  0  0  0  0  0  0  0  0
  141.6910   71.9540  227.3870 H   0  0  0  0  0  0  0  0  0  0  0  0
  140.4638   72.8094  225.3609 H   0  0  0  0  0  0  0  0  0  0  0  0
  141.7664   71.8020  224.6687 H   0  0  0  0  0  0  0  0  0  0  0  0
  142.9386   72.9255  217.9207 H   0  0  0  0  0  0  0  0  0  0  0  0
  143.8136   75.2270  218.4044 H   0  0  0  0  0  0  0  0  0  0  0  0
  1  2  2  0
  2  3  1  0
  3  4  2  0
  4  5  1  0
  5  6  1  0
  6  7  1  0
  7  8  2  0
  8  9  1  0
  9 10  1  0
 10 11  1  0
 11 12  1  0
 12 13  1  0
 13 14  1  0
 14 15  2  0
 15 16  1  0
 16 17  2  0
 17 18  1  0
 18 19  2  0
 13 20  1  0
 20 21  1  0
  9 22  2  0
 22 23  1  0
 23 24  1  0
 24 25  1  0
 25 26  1  0
 26 27  1  0
 27 28  2  0
 28 29  1  0
 29 30  2  0
 30 31  1  0
 31 32  2  0
 32 33  1  0
 23 34  2  0
  4 35  1  0
 35 36  2  0
 36  1  1  0
 34  7  1  0
 21 10  1  0
 33 24  1  0
 19 14  1  0
 32 27  1  0
  1 37  1  0
  2 38  1  0
  3 39  1  0
  5 40  1  0
  5 41  1  0
  6 42  1  0
 11 43  1  0
 11 44  1  0
 12 45  1  0
 12 46  1  0
 15 47  1  0
 16 48  1  0
 17 49  1  0
 18 50  1  0
 20 51  1  0
 20 52  1  0
 21 53  1  0
 21 54  1  0
 25 55  1  0
 25 56  1  0
 26 57  1  0
 26 58  1  0
 28 59  1  0
 29 60  1  0
 30 61  1  0
 31 62  1  0
 33 63  1  0
 33 64  1  0
 35 65  1  0
 36 66  1  0
M  END
>  <smiles>  (25) 
c1ccc(CNc2nc(N3CCN(c4ccccn4)CC3)nc(N3CCc4ccccc4C3)n2)cc1

>  <score_type>  (25) 
oracle

>  <origin>  (25) 
autodockgpu

>  <m_score__min__energy>  (25) 
-10.789999999999999

>  <m_primary>  (25) 
energy

>  <rmsd>  (25) 
7.732866718409821

>  <m_score__min__rmsd>  (25) 
7.732866718409821

>  <meeko>  (25) 
{"free_energy": -9.8, "intermolecular_energy": -11.59, "internal_energy": -1.76, "cluster_size": 49, "cluster_id": 1, "rank_in_cluster": 48}

>  <energy>  (25) 
-10.47

>  <cluster_rmsd>  (25) 
1.87

>  <cluster>  (25) 
1

$$$$

     RDKit          3D

 66 71  0  0  0  0  0  0  0  0999 V2000
  143.6460   75.9980  218.8630 C   0  0  0  0  0  0  0  0  0  0  0  0
  144.0920   75.5320  220.0870 C   0  0  0  0  0  0  0  0  0  0  0  0
  144.1230   74.1730  220.3450 C   0  0  0  0  0  0  0  0  0  0  0  0
  143.6980   73.3150  219.3460 C   0  0  0  0  0  0  0  0  0  0  0  0
  143.7340   71.8590  219.6250 C   0  0  0  0  0  0  0  0  0  0  0  0
  142.3820   71.3970  219.7850 N   0  0  0  0  0  0  0  0  0  0  0  0
  141.5530   72.0640  220.7380 C   0  0  0  0  0  0  0  0  0  0  0  0
  141.1370   73.3170  220.5160 N   0  0  0  0  0  0  0  0  0  0  0  0
  140.3550   73.9890  221.3820 C   0  0  0  0  0  0  0  0  0  0  0  0
  139.9150   75.3190  221.1520 N   0  0  0  0  0  0  0  0  0  0  0  0
  138.8640   75.9560  221.9260 C   0  0  0  0  0  0  0  0  0  0  0  0
  139.5320   77.0480  222.7240 C   0  0  0  0  0  0  0  0  0  0  0  0
  140.4650   77.7980  221.9370 N   0  0  0  0  0  0  0  0  0  0  0  0
  141.0410   78.9660  222.5570 C   0  0  0  0  0  0  0  0  0  0  0  0
  142.4080   79.1220  222.6880 C   0  0  0  0  0  0  0  0  0  0  0  0
  142.9850   80.2300  223.2770 C   0  0  0  0  0  0  0  0  0  0  0  0
  142.1360   81.2200  223.7530 C   0  0  0  0  0  0  0  0  0  0  0  0
  140.7640   81.0630  223.6210 C   0  0  0  0  0  0  0  0  0  0  0  0
  140.2790   79.9640  223.0400 N   0  0  0  0  0  0  0  0  0  0  0  0
  140.8800   77.5020  220.6030 C   0  0  0  0  0  0  0  0  0  0  0  0
  140.5080   76.1490  220.0950 C   0  0  0  0  0  0  0  0  0  0  0  0
  139.9750   73.3800  222.5120 N   0  0  0  0  0  0  0  0  0  0  0  0
  140.3750   72.1010  222.7790 C   0  0  0  0  0  0  0  0  0  0  0  0
  139.9710   71.4400  223.9900 N   0  0  0  0  0  0  0  0  0  0  0  0
  138.7960   70.5990  223.9510 C   0  0  0  0  0  0  0  0  0  0  0  0
  139.2210   69.2220  224.4620 C   0  0  0  0  0  0  0  0  0  0  0  0
  139.8200   69.4000  225.8110 C   0  0  0  0  0  0  0  0  0  0  0  0
  139.6570   68.4020  226.7640 C   0  0  0  0  0  0  0  0  0  0  0  0
  140.1960   68.5220  228.0420 C   0  0  0  0  0  0  0  0  0  0  0  0
  140.9070   69.6700  228.3440 C   0  0  0  0  0  0  0  0  0  0  0  0
  141.0520   70.6390  227.3800 C   0  0  0  0  0  0  0  0  0  0  0  0
  140.5180   70.5290  226.1050 C   0  0  0  0  0  0  0  0  0  0  0  0
  140.7610   71.6570  225.1800 C   0  0  0  0  0  0  0  0  0  0  0  0
  141.1600   71.4750  221.8750 N   0  0  0  0  0  0  0  0  0  0  0  0
  143.2550   73.7730  218.1290 C   0  0  0  0  0  0  0  0  0  0  0  0
  143.2220   75.1390  217.8660 C   0  0  0  0  0  0  0  0  0  0  0  0
  143.6282   77.0822  218.6779 H   0  0  0  0  0  0  0  0  0  0  0  0
  144.4229   76.2441  220.8574 H   0  0  0  0  0  0  0  0  0  0  0  0
  144.4743   73.7870  221.3133 H   0  0  0  0  0  0  0  0  0  0  0  0
  144.2107   71.3311  218.7859 H   0  0  0  0  0  0  0  0  0  0  0  0
  144.3127   71.6623  220.5396 H   0  0  0  0  0  0  0  0  0  0  0  0
  141.9980   70.6100  219.2410 H   0  0  0  0  0  0  0  0  0  0  0  0
  138.1033   76.3839  221.2565 H   0  0  0  0  0  0  0  0  0  0  0  0
  138.3555   75.2340  222.5819 H   0  0  0  0  0  0  0  0  0  0  0  0
  138.7593   77.7319  223.1051 H   0  0  0  0  0  0  0  0  0  0  0  0
  140.0874   76.5743  223.5469 H   0  0  0  0  0  0  0  0  0  0  0  0
  143.0662   78.3278  222.3059 H   0  0  0  0  0  0  0  0  0  0  0  0
  144.0773   80.3246  223.3657 H   0  0  0  0  0  0  0  0  0  0  0  0
  142.5477   82.1212  224.2308 H   0  0  0  0  0  0  0  0  0  0  0  0
  140.0799   81.8399  223.9931 H   0  0  0  0  0  0  0  0  0  0  0  0
  140.4284   78.2499  219.9347 H   0  0  0  0  0  0  0  0  0  0  0  0
  141.9797   77.5245  220.6190 H   0  0  0  0  0  0  0  0  0  0  0  0
  139.7793   76.2620  219.2788 H   0  0  0  0  0  0  0  0  0  0  0  0
  141.4223   75.6516  219.7391 H   0  0  0  0  0  0  0  0  0  0  0  0
  138.0098   71.0166  224.5972 H   0  0  0  0  0  0  0  0  0  0  0  0
  138.3913   70.5335  222.9303 H   0  0  0  0  0  0  0  0  0  0  0  0
  138.3445   68.5605  224.5266 H   0  0  0  0  0  0  0  0  0  0  0  0
  139.9505   68.7671  223.7758 H   0  0  0  0  0  0  0  0  0  0  0  0
  139.0893   67.4968  226.5028 H   0  0  0  0  0  0  0  0  0  0  0  0
  140.0605   67.7271  228.7902 H   0  0  0  0  0  0  0  0  0  0  0  0
  141.3500   69.8053  229.3417 H   0  0  0  0  0  0  0  0  0  0  0  0
  141.6198   71.5467  227.6325 H   0  0  0  0  0  0  0  0  0  0  0  0
  140.4632   72.6019  225.6580 H   0  0  0  0  0  0  0  0  0  0  0  0
  141.8289   71.7157  224.9229 H   0  0  0  0  0  0  0  0  0  0  0  0
  142.9256   73.0582  217.3606 H   0  0  0  0  0  0  0  0  0  0  0  0
  142.8702   75.5227  216.8970 H   0  0  0  0  0  0  0  0  0  0  0  0
  1  2  2  0
  2  3  1  0
  3  4  2  0
  4  5  1  0
  5  6  1  0
  6  7  1  0
  7  8  2  0
  8  9  1  0
  9 10  1  0
 10 11  1  0
 11 12  1  0
 12 13  1  0
 13 14  1  0
 14 15  2  0
 15 16  1  0
 16 17  2  0
 17 18  1  0
 18 19  2  0
 13 20  1  0
 20 21  1  0
  9 22  2  0
 22 23  1  0
 23 24  1  0
 24 25  1  0
 25 26  1  0
 26 27  1  0
 27 28  2  0
 28 29  1  0
 29 30  2  0
 30 31  1  0
 31 32  2  0
 32 33  1  0
 23 34  2  0
  4 35  1  0
 35 36  2  0
 36  1  1  0
 34  7  1  0
 21 10  1  0
 33 24  1  0
 19 14  1  0
 32 27  1  0
  1 37  1  0
  2 38  1  0
  3 39  1  0
  5 40  1  0
  5 41  1  0
  6 42  1  0
 11 43  1  0
 11 44  1  0
 12 45  1  0
 12 46  1  0
 15 47  1  0
 16 48  1  0
 17 49  1  0
 18 50  1  0
 20 51  1  0
 20 52  1  0
 21 53  1  0
 21 54  1  0
 25 55  1  0
 25 56  1  0
 26 57  1  0
 26 58  1  0
 28 59  1  0
 29 60  1  0
 30 61  1  0
 31 62  1  0
 33 63  1  0
 33 64  1  0
 35 65  1  0
 36 66  1  0
M  END
>  <smiles>  (26) 
c1ccc(CNc2nc(N3CCN(c4ccccn4)CC3)nc(N3CCc4ccccc4C3)n2)cc1

>  <score_type>  (26) 
oracle

>  <origin>  (26) 
autodockgpu

>  <m_score__min__energy>  (26) 
-10.789999999999999

>  <m_primary>  (26) 
energy

>  <rmsd>  (26) 
8.015916122328914

>  <m_score__min__rmsd>  (26) 
8.015916122328914

>  <meeko>  (26) 
{"free_energy": -9.84, "intermolecular_energy": -11.63, "internal_energy": -1.77, "cluster_size": 49, "cluster_id": 1, "rank_in_cluster": 46}

>  <energy>  (26) 
-10.46

>  <cluster_rmsd>  (26) 
0.54

>  <cluster>  (26) 
1

$$$$

     RDKit          3D

 66 71  0  0  0  0  0  0  0  0999 V2000
  145.8700   74.1330  221.0040 C   0  0  0  0  0  0  0  0  0  0  0  0
  145.9970   72.7690  220.8100 C   0  0  0  0  0  0  0  0  0  0  0  0
  145.0480   72.0780  220.0770 C   0  0  0  0  0  0  0  0  0  0  0  0
  143.9870   72.7960  219.5550 C   0  0  0  0  0  0  0  0  0  0  0  0
  142.9720   72.0530  218.7680 C   0  0  0  0  0  0  0  0  0  0  0  0
  142.1680   71.2840  219.6800 N   0  0  0  0  0  0  0  0  0  0  0  0
  141.3990   71.9890  220.6550 C   0  0  0  0  0  0  0  0  0  0  0  0
  141.0320   73.2590  220.4410 N   0  0  0  0  0  0  0  0  0  0  0  0
  140.3070   73.9670  221.3280 C   0  0  0  0  0  0  0  0  0  0  0  0
  139.9180   75.3140  221.1060 N   0  0  0  0  0  0  0  0  0  0  0  0
  138.8700   75.9760  221.8630 C   0  0  0  0  0  0  0  0  0  0  0  0
  139.5540   77.0340  222.6930 C   0  0  0  0  0  0  0  0  0  0  0  0
  140.5310   77.7620  221.9400 N   0  0  0  0  0  0  0  0  0  0  0  0
  141.1320   78.9000  222.5910 C   0  0  0  0  0  0  0  0  0  0  0  0
  142.4990   79.0990  222.5980 C   0  0  0  0  0  0  0  0  0  0  0  0
  143.0980   80.1810  223.2140 C   0  0  0  0  0  0  0  0  0  0  0  0
  142.2720   81.0980  223.8490 C   0  0  0  0  0  0  0  0  0  0  0  0
  140.8990   80.8990  223.8410 C   0  0  0  0  0  0  0  0  0  0  0  0
  140.3910   79.8290  223.2250 N   0  0  0  0  0  0  0  0  0  0  0  0
  140.9700   77.4700  220.6130 C   0  0  0  0  0  0  0  0  0  0  0  0
  140.5650   76.1370  220.0760 C   0  0  0  0  0  0  0  0  0  0  0  0
  139.9350   73.3770  222.4720 N   0  0  0  0  0  0  0  0  0  0  0  0
  140.2870   72.0830  222.7310 C   0  0  0  0  0  0  0  0  0  0  0  0
  139.8920   71.4440  223.9560 N   0  0  0  0  0  0  0  0  0  0  0  0
  138.7090   70.6130  223.9440 C   0  0  0  0  0  0  0  0  0  0  0  0
  139.1280   69.2400  224.4700 C   0  0  0  0  0  0  0  0  0  0  0  0
  139.7440   69.4320  225.8080 C   0  0  0  0  0  0  0  0  0  0  0  0
  139.5840   68.4490  226.7780 C   0  0  0  0  0  0  0  0  0  0  0  0
  140.1400   68.5820  228.0480 C   0  0  0  0  0  0  0  0  0  0  0  0
  140.8660   69.7280  228.3230 C   0  0  0  0  0  0  0  0  0  0  0  0
  141.0070   70.6820  227.3440 C   0  0  0  0  0  0  0  0  0  0  0  0
  140.4570   70.5580  226.0770 C   0  0  0  0  0  0  0  0  0  0  0  0
  140.6990   71.6710  225.1340 C   0  0  0  0  0  0  0  0  0  0  0  0
  141.0160   71.4210  221.8060 N   0  0  0  0  0  0  0  0  0  0  0  0
  143.8560   74.1490  219.7440 C   0  0  0  0  0  0  0  0  0  0  0  0
  144.8090   74.8480  220.4800 C   0  0  0  0  0  0  0  0  0  0  0  0
  146.6342   74.6632  221.5913 H   0  0  0  0  0  0  0  0  0  0  0  0
  146.8553   72.2319  221.2399 H   0  0  0  0  0  0  0  0  0  0  0  0
  145.1345   70.9935  219.9148 H   0  0  0  0  0  0  0  0  0  0  0  0
  142.3357   72.7619  218.2180 H   0  0  0  0  0  0  0  0  0  0  0  0
  143.4658   71.3878  218.0443 H   0  0  0  0  0  0  0  0  0  0  0  0
  142.1310   70.2550  219.6510 H   0  0  0  0  0  0  0  0  0  0  0  0
  138.1412   76.4384  221.1811 H   0  0  0  0  0  0  0  0  0  0  0  0
  138.3213   75.2629  222.4958 H   0  0  0  0  0  0  0  0  0  0  0  0
  138.7954   77.7386  223.0645 H   0  0  0  0  0  0  0  0  0  0  0  0
  140.0721   76.5309  223.5227 H   0  0  0  0  0  0  0  0  0  0  0  0
  143.1395   78.3628  222.0903 H   0  0  0  0  0  0  0  0  0  0  0  0
  144.1902   80.3110  223.2016 H   0  0  0  0  0  0  0  0  0  0  0  0
  142.7024   81.9752  224.3543 H   0  0  0  0  0  0  0  0  0  0  0  0
  140.2328   81.6186  224.3393 H   0  0  0  0  0  0  0  0  0  0  0  0
  140.5617   78.2421  219.9443 H   0  0  0  0  0  0  0  0  0  0  0  0
  142.0690   77.4543  220.6572 H   0  0  0  0  0  0  0  0  0  0  0  0
  139.8613   76.2860  219.2438 H   0  0  0  0  0  0  0  0  0  0  0  0
  141.4704   75.6134  219.7353 H   0  0  0  0  0  0  0  0  0  0  0  0
  137.9347   71.0472  224.5936 H   0  0  0  0  0  0  0  0  0  0  0  0
  138.2910   70.5361  222.9294 H   0  0  0  0  0  0  0  0  0  0  0  0
  138.2466   68.5873  224.5545 H   0  0  0  0  0  0  0  0  0  0  0  0
  139.8454   68.7688  223.7820 H   0  0  0  0  0  0  0  0  0  0  0  0
  139.0049   67.5454  226.5369 H   0  0  0  0  0  0  0  0  0  0  0  0
  140.0062   67.7998  228.8097 H   0  0  0  0  0  0  0  0  0  0  0  0
  141.3242   69.8732  229.3124 H   0  0  0  0  0  0  0  0  0  0  0  0
  141.5846   71.5887  227.5768 H   0  0  0  0  0  0  0  0  0  0  0  0
  140.4153   72.6250  225.6023 H   0  0  0  0  0  0  0  0  0  0  0  0
  141.7642   71.7171  224.8636 H   0  0  0  0  0  0  0  0  0  0  0  0
  142.9960   74.6825  219.3130 H   0  0  0  0  0  0  0  0  0  0  0  0
  144.7207   75.9328  220.6392 H   0  0  0  0  0  0  0  0  0  0  0  0
  1  2  2  0
  2  3  1  0
  3  4  2  0
  4  5  1  0
  5  6  1  0
  6  7  1  0
  7  8  2  0
  8  9  1  0
  9 10  1  0
 10 11  1  0
 11 12  1  0
 12 13  1  0
 13 14  1  0
 14 15  2  0
 15 16  1  0
 16 17  2  0
 17 18  1  0
 18 19  2  0
 13 20  1  0
 20 21  1  0
  9 22  2  0
 22 23  1  0
 23 24  1  0
 24 25  1  0
 25 26  1  0
 26 27  1  0
 27 28  2  0
 28 29  1  0
 29 30  2  0
 30 31  1  0
 31 32  2  0
 32 33  1  0
 23 34  2  0
  4 35  1  0
 35 36  2  0
 36  1  1  0
 34  7  1  0
 21 10  1  0
 33 24  1  0
 19 14  1  0
 32 27  1  0
  1 37  1  0
  2 38  1  0
  3 39  1  0
  5 40  1  0
  5 41  1  0
  6 42  1  0
 11 43  1  0
 11 44  1  0
 12 45  1  0
 12 46  1  0
 15 47  1  0
 16 48  1  0
 17 49  1  0
 18 50  1  0
 20 51  1  0
 20 52  1  0
 21 53  1  0
 21 54  1  0
 25 55  1  0
 25 56  1  0
 26 57  1  0
 26 58  1  0
 28 59  1  0
 29 60  1  0
 30 61  1  0
 31 62  1  0
 33 63  1  0
 33 64  1  0
 35 65  1  0
 36 66  1  0
M  END
>  <smiles>  (27) 
c1ccc(CNc2nc(N3CCN(c4ccccn4)CC3)nc(N3CCc4ccccc4C3)n2)cc1

>  <score_type>  (27) 
oracle

>  <origin>  (27) 
autodockgpu

>  <m_score__min__energy>  (27) 
-10.789999999999999

>  <m_primary>  (27) 
energy

>  <rmsd>  (27) 
7.980675259274589

>  <m_score__min__rmsd>  (27) 
7.980675259274589

>  <meeko>  (27) 
{"free_energy": -10.66, "intermolecular_energy": -12.45, "internal_energy": -1.56, "cluster_size": 49, "cluster_id": 1, "rank_in_cluster": 6}

>  <energy>  (27) 
-10.44

>  <cluster_rmsd>  (27) 
1.37

>  <cluster>  (27) 
1

$$$$

     RDKit          3D

 66 71  0  0  0  0  0  0  0  0999 V2000
  140.8830   70.9810  228.2960 C   0  0  0  0  0  0  0  0  0  0  0  0
  141.2770   72.0040  227.4510 C   0  0  0  0  0  0  0  0  0  0  0  0
  141.0750   71.8950  226.0870 C   0  0  0  0  0  0  0  0  0  0  0  0
  140.4740   70.7440  225.6110 C   0  0  0  0  0  0  0  0  0  0  0  0
  140.2590   70.6320  224.1480 C   0  0  0  0  0  0  0  0  0  0  0  0
  139.7690   71.8960  223.6650 N   0  0  0  0  0  0  0  0  0  0  0  0
  140.4330   72.4920  222.5500 C   0  0  0  0  0  0  0  0  0  0  0  0
  140.2130   73.7760  222.2370 N   0  0  0  0  0  0  0  0  0  0  0  0
  140.8140   74.3840  221.1980 C   0  0  0  0  0  0  0  0  0  0  0  0
  140.5820   75.7440  220.8610 N   0  0  0  0  0  0  0  0  0  0  0  0
  139.4230   76.4910  221.3150 C   0  0  0  0  0  0  0  0  0  0  0  0
  139.9430   77.5350  222.2720 C   0  0  0  0  0  0  0  0  0  0  0  0
  141.1240   78.1780  221.7780 N   0  0  0  0  0  0  0  0  0  0  0  0
  141.6140   79.3010  222.5390 C   0  0  0  0  0  0  0  0  0  0  0  0
  142.9640   79.5040  222.7530 C   0  0  0  0  0  0  0  0  0  0  0  0
  143.4580   80.5710  223.4780 C   0  0  0  0  0  0  0  0  0  0  0  0
  142.5410   81.4690  224.0070 C   0  0  0  0  0  0  0  0  0  0  0  0
  141.1860   81.2660  223.7920 C   0  0  0  0  0  0  0  0  0  0  0  0
  140.7820   80.2110  223.0810 N   0  0  0  0  0  0  0  0  0  0  0  0
  141.8630   77.8160  220.6110 C   0  0  0  0  0  0  0  0  0  0  0  0
  141.5200   76.4920  220.0140 C   0  0  0  0  0  0  0  0  0  0  0  0
  141.6680   73.6790  220.4440 N   0  0  0  0  0  0  0  0  0  0  0  0
  141.9220   72.3660  220.7280 C   0  0  0  0  0  0  0  0  0  0  0  0
  142.8370   71.6040  219.9250 N   0  0  0  0  0  0  0  0  0  0  0  0
  143.8390   72.3170  219.1640 C   0  0  0  0  0  0  0  0  0  0  0  0
  145.1950   71.7400  219.5690 C   0  0  0  0  0  0  0  0  0  0  0  0
  145.1580   70.2730  219.3340 C   0  0  0  0  0  0  0  0  0  0  0  0
  146.3180   69.6180  218.9400 C   0  0  0  0  0  0  0  0  0  0  0  0
  146.3340   68.2450  218.7050 C   0  0  0  0  0  0  0  0  0  0  0  0
  145.1550   67.5420  218.8780 C   0  0  0  0  0  0  0  0  0  0  0  0
  144.0240   68.2170  219.2690 C   0  0  0  0  0  0  0  0  0  0  0  0
  143.9980   69.5840  219.5050 C   0  0  0  0  0  0  0  0  0  0  0  0
  142.7030   70.1640  219.9210 C   0  0  0  0  0  0  0  0  0  0  0  0
  141.2900   71.8070  221.7830 N   0  0  0  0  0  0  0  0  0  0  0  0
  140.0820   69.7260  226.4450 C   0  0  0  0  0  0  0  0  0  0  0  0
  140.2820   69.8310  227.8190 C   0  0  0  0  0  0  0  0  0  0  0  0
  141.0529   71.0860  229.3777 H   0  0  0  0  0  0  0  0  0  0  0  0
  141.7518   72.9057  227.8651 H   0  0  0  0  0  0  0  0  0  0  0  0
  141.3828   72.6989  225.4021 H   0  0  0  0  0  0  0  0  0  0  0  0
  141.2087   70.3865  223.6502 H   0  0  0  0  0  0  0  0  0  0  0  0
  139.5313   69.8359  223.9318 H   0  0  0  0  0  0  0  0  0  0  0  0
  138.9640   72.3760  224.0940 H   0  0  0  0  0  0  0  0  0  0  0  0
  138.9212   76.9717  220.4622 H   0  0  0  0  0  0  0  0  0  0  0  0
  138.6874   75.8330  221.8008 H   0  0  0  0  0  0  0  0  0  0  0  0
  139.1630   78.2953  222.4256 H   0  0  0  0  0  0  0  0  0  0  0  0
  140.2007   77.0315  223.2154 H   0  0  0  0  0  0  0  0  0  0  0  0
  143.6775   78.7834  222.3268 H   0  0  0  0  0  0  0  0  0  0  0  0
  144.5392   80.7043  223.6307 H   0  0  0  0  0  0  0  0  0  0  0  0
  142.8862   82.3343  224.5918 H   0  0  0  0  0  0  0  0  0  0  0  0
  140.4487   81.9701  224.2049 H   0  0  0  0  0  0  0  0  0  0  0  0
  141.6873   78.5873  219.8467 H   0  0  0  0  0  0  0  0  0  0  0  0
  142.9122   77.7379  220.9321 H   0  0  0  0  0  0  0  0  0  0  0  0
  141.0599   76.6534  219.0280 H   0  0  0  0  0  0  0  0  0  0  0  0
  142.4458   75.9048  219.9240 H   0  0  0  0  0  0  0  0  0  0  0  0
  143.6716   72.1704  218.0867 H   0  0  0  0  0  0  0  0  0  0  0  0
  143.7935   73.3973  219.3664 H   0  0  0  0  0  0  0  0  0  0  0  0
  145.9910   72.1955  218.9617 H   0  0  0  0  0  0  0  0  0  0  0  0
  145.3998   71.9524  220.6287 H   0  0  0  0  0  0  0  0  0  0  0  0
  147.2446   70.1965  218.8107 H   0  0  0  0  0  0  0  0  0  0  0  0
  147.2567   67.7349  218.3912 H   0  0  0  0  0  0  0  0  0  0  0  0
  145.1235   66.4562  218.7047 H   0  0  0  0  0  0  0  0  0  0  0  0
  143.0934   67.6456  219.4014 H   0  0  0  0  0  0  0  0  0  0  0  0
  141.9158   69.8646  219.2135 H   0  0  0  0  0  0  0  0  0  0  0  0
  142.4282   69.8038  220.9233 H   0  0  0  0  0  0  0  0  0  0  0  0
  139.6088   68.8254  226.0267 H   0  0  0  0  0  0  0  0  0  0  0  0
  139.9723   69.0261  228.5018 H   0  0  0  0  0  0  0  0  0  0  0  0
  1  2  2  0
  2  3  1  0
  3  4  2  0
  4  5  1  0
  5  6  1  0
  6  7  1  0
  7  8  2  0
  8  9  1  0
  9 10  1  0
 10 11  1  0
 11 12  1  0
 12 13  1  0
 13 14  1  0
 14 15  2  0
 15 16  1  0
 16 17  2  0
 17 18  1  0
 18 19  2  0
 13 20  1  0
 20 21  1  0
  9 22  2  0
 22 23  1  0
 23 24  1  0
 24 25  1  0
 25 26  1  0
 26 27  1  0
 27 28  2  0
 28 29  1  0
 29 30  2  0
 30 31  1  0
 31 32  2  0
 32 33  1  0
 23 34  2  0
  4 35  1  0
 35 36  2  0
 36  1  1  0
 34  7  1  0
 21 10  1  0
 33 24  1  0
 19 14  1  0
 32 27  1  0
  1 37  1  0
  2 38  1  0
  3 39  1  0
  5 40  1  0
  5 41  1  0
  6 42  1  0
 11 43  1  0
 11 44  1  0
 12 45  1  0
 12 46  1  0
 15 47  1  0
 16 48  1  0
 17 49  1  0
 18 50  1  0
 20 51  1  0
 20 52  1  0
 21 53  1  0
 21 54  1  0
 25 55  1  0
 25 56  1  0
 26 57  1  0
 26 58  1  0
 28 59  1  0
 29 60  1  0
 30 61  1  0
 31 62  1  0
 33 63  1  0
 33 64  1  0
 35 65  1  0
 36 66  1  0
M  END
>  <smiles>  (28) 
c1ccc(CNc2nc(N3CCN(c4ccccn4)CC3)nc(N3CCc4ccccc4C3)n2)cc1

>  <score_type>  (28) 
oracle

>  <origin>  (28) 
autodockgpu

>  <m_score__min__energy>  (28) 
-10.789999999999999

>  <m_primary>  (28) 
energy

>  <rmsd>  (28) 
8.279062560375378

>  <m_score__min__rmsd>  (28) 
8.279062560375378

>  <meeko>  (28) 
{"free_energy": -10.75, "intermolecular_energy": -12.54, "internal_energy": -1.12, "cluster_size": 49, "cluster_id": 1, "rank_in_cluster": 2}

>  <energy>  (28) 
-10.43

>  <cluster_rmsd>  (28) 
1.89

>  <cluster>  (28) 
1

$$$$

     RDKit          3D

 66 71  0  0  0  0  0  0  0  0999 V2000
  145.9300   74.0850  220.9760 C   0  0  0  0  0  0  0  0  0  0  0  0
  144.8380   74.7670  220.4690 C   0  0  0  0  0  0  0  0  0  0  0  0
  143.8710   74.0930  219.7440 C   0  0  0  0  0  0  0  0  0  0  0  0
  144.0380   72.7340  219.5510 C   0  0  0  0  0  0  0  0  0  0  0  0
  142.9990   72.0140  218.7750 C   0  0  0  0  0  0  0  0  0  0  0  0
  142.1920   71.2580  219.6940 N   0  0  0  0  0  0  0  0  0  0  0  0
  141.4220   71.9760  220.6600 C   0  0  0  0  0  0  0  0  0  0  0  0
  141.0630   73.2460  220.4330 N   0  0  0  0  0  0  0  0  0  0  0  0
  140.3380   73.9640  221.3100 C   0  0  0  0  0  0  0  0  0  0  0  0
  139.9570   75.3120  221.0750 N   0  0  0  0  0  0  0  0  0  0  0  0
  138.9040   75.9840  221.8170 C   0  0  0  0  0  0  0  0  0  0  0  0
  139.5840   77.0450  222.6460 C   0  0  0  0  0  0  0  0  0  0  0  0
  140.5720   77.7630  221.8980 N   0  0  0  0  0  0  0  0  0  0  0  0
  141.1710   78.9040  222.5460 C   0  0  0  0  0  0  0  0  0  0  0  0
  142.5390   79.0990  222.5620 C   0  0  0  0  0  0  0  0  0  0  0  0
  143.1360   80.1830  223.1760 C   0  0  0  0  0  0  0  0  0  0  0  0
  142.3070   81.1060  223.8000 C   0  0  0  0  0  0  0  0  0  0  0  0
  140.9340   80.9100  223.7830 C   0  0  0  0  0  0  0  0  0  0  0  0
  140.4280   79.8380  223.1700 N   0  0  0  0  0  0  0  0  0  0  0  0
  141.0230   77.4590  220.5770 C   0  0  0  0  0  0  0  0  0  0  0  0
  140.6180   76.1250  220.0460 C   0  0  0  0  0  0  0  0  0  0  0  0
  139.9590   73.3870  222.4590 N   0  0  0  0  0  0  0  0  0  0  0  0
  140.3040   72.0940  222.7310 C   0  0  0  0  0  0  0  0  0  0  0  0
  139.9010   71.4680  223.9600 N   0  0  0  0  0  0  0  0  0  0  0  0
  138.7170   70.6380  223.9500 C   0  0  0  0  0  0  0  0  0  0  0  0
  139.1310   69.2710  224.4930 C   0  0  0  0  0  0  0  0  0  0  0  0
  139.7410   69.4750  225.8320 C   0  0  0  0  0  0  0  0  0  0  0  0
  139.5740   68.5030  226.8110 C   0  0  0  0  0  0  0  0  0  0  0  0
  140.1230   68.6480  228.0820 C   0  0  0  0  0  0  0  0  0  0  0  0
  140.8490   69.7950  228.3500 C   0  0  0  0  0  0  0  0  0  0  0  0
  140.9970   70.7390  227.3620 C   0  0  0  0  0  0  0  0  0  0  0  0
  140.4530   70.6030  226.0930 C   0  0  0  0  0  0  0  0  0  0  0  0
  140.7020   71.7050  225.1400 C   0  0  0  0  0  0  0  0  0  0  0  0
  141.0330   71.4200  221.8140 N   0  0  0  0  0  0  0  0  0  0  0  0
  145.1200   72.0520  220.0520 C   0  0  0  0  0  0  0  0  0  0  0  0
  146.0950   72.7260  220.7820 C   0  0  0  0  0  0  0  0  0  0  0  0
  146.6877   74.6393  221.5492 H   0  0  0  0  0  0  0  0  0  0  0  0
  144.7382   75.8486  220.6428 H   0  0  0  0  0  0  0  0  0  0  0  0
  142.9975   74.6214  219.3344 H   0  0  0  0  0  0  0  0  0  0  0  0
  142.3698   72.7372  218.2355 H   0  0  0  0  0  0  0  0  0  0  0  0
  143.4705   71.3417  218.0430 H   0  0  0  0  0  0  0  0  0  0  0  0
  142.1520   70.2280  219.6770 H   0  0  0  0  0  0  0  0  0  0  0  0
  138.1839   76.4445  221.1246 H   0  0  0  0  0  0  0  0  0  0  0  0
  138.3461   75.2778  222.4495 H   0  0  0  0  0  0  0  0  0  0  0  0
  138.8248   77.7558  223.0043 H   0  0  0  0  0  0  0  0  0  0  0  0
  140.0912   76.5458  223.4848 H   0  0  0  0  0  0  0  0  0  0  0  0
  143.1812   78.3580  222.0636 H   0  0  0  0  0  0  0  0  0  0  0  0
  144.2286   80.3104  223.1708 H   0  0  0  0  0  0  0  0  0  0  0  0
  142.7356   81.9851  224.3035 H   0  0  0  0  0  0  0  0  0  0  0  0
  140.2659   81.6342  224.2721 H   0  0  0  0  0  0  0  0  0  0  0  0
  140.6247   78.2279  219.8986 H   0  0  0  0  0  0  0  0  0  0  0  0
  142.1214   77.4387  220.6325 H   0  0  0  0  0  0  0  0  0  0  0  0
  139.9234   76.2711  219.2056 H   0  0  0  0  0  0  0  0  0  0  0  0
  141.5246   75.5952  219.7185 H   0  0  0  0  0  0  0  0  0  0  0  0
  137.9393   71.0800  224.5902 H   0  0  0  0  0  0  0  0  0  0  0  0
  138.3050   70.5506  222.9338 H   0  0  0  0  0  0  0  0  0  0  0  0
  138.2480   68.6208  224.5801 H   0  0  0  0  0  0  0  0  0  0  0  0
  139.8514   68.7920  223.8136 H   0  0  0  0  0  0  0  0  0  0  0  0
  138.9945   67.5980  226.5762 H   0  0  0  0  0  0  0  0  0  0  0  0
  139.9837   67.8735  228.8506 H   0  0  0  0  0  0  0  0  0  0  0  0
  141.3017   69.9493  229.3406 H   0  0  0  0  0  0  0  0  0  0  0  0
  141.5752   71.6469  227.5886 H   0  0  0  0  0  0  0  0  0  0  0  0
  140.4179   72.6644  225.5970 H   0  0  0  0  0  0  0  0  0  0  0  0
  141.7687   71.7456  224.8746 H   0  0  0  0  0  0  0  0  0  0  0  0
  145.2163   70.9705  219.8759 H   0  0  0  0  0  0  0  0  0  0  0  0
  146.9675   72.1952  221.1908 H   0  0  0  0  0  0  0  0  0  0  0  0
  1  2  2  0
  2  3  1  0
  3  4  2  0
  4  5  1  0
  5  6  1  0
  6  7  1  0
  7  8  2  0
  8  9  1  0
  9 10  1  0
 10 11  1  0
 11 12  1  0
 12 13  1  0
 13 14  1  0
 14 15  2  0
 15 16  1  0
 16 17  2  0
 17 18  1  0
 18 19  2  0
 13 20  1  0
 20 21  1  0
  9 22  2  0
 22 23  1  0
 23 24  1  0
 24 25  1  0
 25 26  1  0
 26 27  1  0
 27 28  2  0
 28 29  1  0
 29 30  2  0
 30 31  1  0
 31 32  2  0
 32 33  1  0
 23 34  2  0
  4 35  1  0
 35 36  2  0
 36  1  1  0
 34  7  1  0
 21 10  1  0
 33 24  1  0
 19 14  1  0
 32 27  1  0
  1 37  1  0
  2 38  1  0
  3 39  1  0
  5 40  1  0
  5 41  1  0
  6 42  1  0
 11 43  1  0
 11 44  1  0
 12 45  1  0
 12 46  1  0
 15 47  1  0
 16 48  1  0
 17 49  1  0
 18 50  1  0
 20 51  1  0
 20 52  1  0
 21 53  1  0
 21 54  1  0
 25 55  1  0
 25 56  1  0
 26 57  1  0
 26 58  1  0
 28 59  1  0
 29 60  1  0
 30 61  1  0
 31 62  1  0
 33 63  1  0
 33 64  1  0
 35 65  1  0
 36 66  1  0
M  END
>  <smiles>  (29) 
c1ccc(CNc2nc(N3CCN(c4ccccn4)CC3)nc(N3CCc4ccccc4C3)n2)cc1

>  <score_type>  (29) 
oracle

>  <origin>  (29) 
autodockgpu

>  <m_score__min__energy>  (29) 
-10.789999999999999

>  <m_primary>  (29) 
energy

>  <rmsd>  (29) 
7.985349685441469

>  <m_score__min__rmsd>  (29) 
7.985349685441469

>  <meeko>  (29) 
{"free_energy": -10.68, "intermolecular_energy": -12.47, "internal_energy": -1.54, "cluster_size": 49, "cluster_id": 1, "rank_in_cluster": 4}

>  <energy>  (29) 
-10.41

>  <cluster_rmsd>  (29) 
1.82

>  <cluster>  (29) 
1

$$$$

     RDKit          3D

 66 71  0  0  0  0  0  0  0  0999 V2000
  146.2040   73.7540  220.9610 C   0  0  0  0  0  0  0  0  0  0  0  0
  146.3030   72.4730  220.4460 C   0  0  0  0  0  0  0  0  0  0  0  0
  145.2580   71.9310  219.7200 C   0  0  0  0  0  0  0  0  0  0  0  0
  144.1300   72.7090  219.5320 C   0  0  0  0  0  0  0  0  0  0  0  0
  143.0110   72.1260  218.7510 C   0  0  0  0  0  0  0  0  0  0  0  0
  142.1840   71.3640  219.6480 N   0  0  0  0  0  0  0  0  0  0  0  0
  141.4280   72.0740  220.6300 C   0  0  0  0  0  0  0  0  0  0  0  0
  141.0740   73.3490  220.4230 N   0  0  0  0  0  0  0  0  0  0  0  0
  140.3620   74.0600  221.3160 C   0  0  0  0  0  0  0  0  0  0  0  0
  139.9870   75.4130  221.1020 N   0  0  0  0  0  0  0  0  0  0  0  0
  138.9640   76.0900  221.8810 C   0  0  0  0  0  0  0  0  0  0  0  0
  139.6800   77.1380  222.6960 C   0  0  0  0  0  0  0  0  0  0  0  0
  140.6510   77.8520  221.9220 N   0  0  0  0  0  0  0  0  0  0  0  0
  141.2810   78.9820  222.5600 C   0  0  0  0  0  0  0  0  0  0  0  0
  140.5440   79.9850  223.1610 C   0  0  0  0  0  0  0  0  0  0  0  0
  141.1230   81.0770  223.7770 C   0  0  0  0  0  0  0  0  0  0  0  0
  142.5090   81.1520  223.7830 C   0  0  0  0  0  0  0  0  0  0  0  0
  143.2490   80.1450  223.1800 C   0  0  0  0  0  0  0  0  0  0  0  0
  142.6200   79.1190  222.6040 N   0  0  0  0  0  0  0  0  0  0  0  0
  141.0590   77.5540  220.5860 C   0  0  0  0  0  0  0  0  0  0  0  0
  140.6240   76.2270  220.0590 C   0  0  0  0  0  0  0  0  0  0  0  0
  139.9890   73.4710  222.4600 N   0  0  0  0  0  0  0  0  0  0  0  0
  140.3280   72.1710  222.7120 C   0  0  0  0  0  0  0  0  0  0  0  0
  139.9320   71.5320  223.9360 N   0  0  0  0  0  0  0  0  0  0  0  0
  138.7720   70.6690  223.9140 C   0  0  0  0  0  0  0  0  0  0  0  0
  139.2190   69.3130  224.4580 C   0  0  0  0  0  0  0  0  0  0  0  0
  139.8110   69.5310  225.8030 C   0  0  0  0  0  0  0  0  0  0  0  0
  139.6630   68.5520  226.7780 C   0  0  0  0  0  0  0  0  0  0  0  0
  140.1970   68.7100  228.0550 C   0  0  0  0  0  0  0  0  0  0  0  0
  140.8880   69.8760  228.3310 C   0  0  0  0  0  0  0  0  0  0  0  0
  141.0180   70.8260  227.3470 C   0  0  0  0  0  0  0  0  0  0  0  0
  140.4900   70.6780  226.0730 C   0  0  0  0  0  0  0  0  0  0  0  0
  140.7160   71.7890  225.1240 C   0  0  0  0  0  0  0  0  0  0  0  0
  141.0450   71.5050  221.7800 N   0  0  0  0  0  0  0  0  0  0  0  0
  144.0250   73.9800  220.0400 C   0  0  0  0  0  0  0  0  0  0  0  0
  145.0750   74.5300  220.7720 C   0  0  0  0  0  0  0  0  0  0  0  0
  147.0462   74.1660  221.5362 H   0  0  0  0  0  0  0  0  0  0  0  0
  147.2164   71.8838  220.6148 H   0  0  0  0  0  0  0  0  0  0  0  0
  145.3219   70.9141  219.3055 H   0  0  0  0  0  0  0  0  0  0  0  0
  142.4185   72.9311  218.2920 H   0  0  0  0  0  0  0  0  0  0  0  0
  143.4025   71.4779  217.9531 H   0  0  0  0  0  0  0  0  0  0  0  0
  142.1210   70.3370  219.6040 H   0  0  0  0  0  0  0  0  0  0  0  0
  138.2276   76.5627  221.2144 H   0  0  0  0  0  0  0  0  0  0  0  0
  138.4187   75.3847  222.5254 H   0  0  0  0  0  0  0  0  0  0  0  0
  138.9395   77.8533  223.0832 H   0  0  0  0  0  0  0  0  0  0  0  0
  140.2082   76.6278  223.5149 H   0  0  0  0  0  0  0  0  0  0  0  0
  139.4466   79.9100  223.1481 H   0  0  0  0  0  0  0  0  0  0  0  0
  140.5080   81.8592  224.2460 H   0  0  0  0  0  0  0  0  0  0  0  0
  143.0164   82.0025  224.2617 H   0  0  0  0  0  0  0  0  0  0  0  0
  144.3480   80.1923  223.1768 H   0  0  0  0  0  0  0  0  0  0  0  0
  140.6481   78.3316  219.9254 H   0  0  0  0  0  0  0  0  0  0  0  0
  142.1584   77.5234  220.6072 H   0  0  0  0  0  0  0  0  0  0  0  0
  139.9053   76.3858  219.2416 H   0  0  0  0  0  0  0  0  0  0  0  0
  141.5149   75.6906  219.7005 H   0  0  0  0  0  0  0  0  0  0  0  0
  137.9766   71.0877  224.5481 H   0  0  0  0  0  0  0  0  0  0  0  0
  138.3719   70.5722  222.8939 H   0  0  0  0  0  0  0  0  0  0  0  0
  138.3537   68.6383  224.5358 H   0  0  0  0  0  0  0  0  0  0  0  0
  139.9586   68.8557  223.7843 H   0  0  0  0  0  0  0  0  0  0  0  0
  139.1117   67.6314  226.5360 H   0  0  0  0  0  0  0  0  0  0  0  0
  140.0728   67.9305  228.8211 H   0  0  0  0  0  0  0  0  0  0  0  0
  141.3279   70.0406  229.3257 H   0  0  0  0  0  0  0  0  0  0  0  0
  141.5679   71.7495  227.5811 H   0  0  0  0  0  0  0  0  0  0  0  0
  140.4009   72.7390  225.5803 H   0  0  0  0  0  0  0  0  0  0  0  0
  141.7834   71.8602  224.8680 H   0  0  0  0  0  0  0  0  0  0  0  0
  143.1097   74.5655  219.8687 H   0  0  0  0  0  0  0  0  0  0  0  0
  145.0083   75.5471  221.1857 H   0  0  0  0  0  0  0  0  0  0  0  0
  1  2  2  0
  2  3  1  0
  3  4  2  0
  4  5  1  0
  5  6  1  0
  6  7  1  0
  7  8  2  0
  8  9  1  0
  9 10  1  0
 10 11  1  0
 11 12  1  0
 12 13  1  0
 13 14  1  0
 14 15  2  0
 15 16  1  0
 16 17  2  0
 17 18  1  0
 18 19  2  0
 13 20  1  0
 20 21  1  0
  9 22  2  0
 22 23  1  0
 23 24  1  0
 24 25  1  0
 25 26  1  0
 26 27  1  0
 27 28  2  0
 28 29  1  0
 29 30  2  0
 30 31  1  0
 31 32  2  0
 32 33  1  0
 23 34  2  0
  4 35  1  0
 35 36  2  0
 36  1  1  0
 34  7  1  0
 21 10  1  0
 33 24  1  0
 19 14  1  0
 32 27  1  0
  1 37  1  0
  2 38  1  0
  3 39  1  0
  5 40  1  0
  5 41  1  0
  6 42  1  0
 11 43  1  0
 11 44  1  0
 12 45  1  0
 12 46  1  0
 15 47  1  0
 16 48  1  0
 17 49  1  0
 18 50  1  0
 20 51  1  0
 20 52  1  0
 21 53  1  0
 21 54  1  0
 25 55  1  0
 25 56  1  0
 26 57  1  0
 26 58  1  0
 28 59  1  0
 29 60  1  0
 30 61  1  0
 31 62  1  0
 33 63  1  0
 33 64  1  0
 35 65  1  0
 36 66  1  0
M  END
>  <smiles>  (30) 
c1ccc(CNc2nc(N3CCN(c4ccccn4)CC3)nc(N3CCc4ccccc4C3)n2)cc1

>  <score_type>  (30) 
oracle

>  <origin>  (30) 
autodockgpu

>  <m_score__min__energy>  (30) 
-10.789999999999999

>  <m_primary>  (30) 
energy

>  <rmsd>  (30) 
8.09216245658825

>  <m_score__min__rmsd>  (30) 
8.09216245658825

>  <meeko>  (30) 
{"free_energy": -10.58, "intermolecular_energy": -12.37, "internal_energy": -1.45, "cluster_size": 49, "cluster_id": 1, "rank_in_cluster": 17}

>  <energy>  (30) 
-10.34

>  <cluster_rmsd>  (30) 
1.84

>  <cluster>  (30) 
1

$$$$

     RDKit          3D

 66 71  0  0  0  0  0  0  0  0999 V2000
  144.7930   74.7520  220.3940 C   0  0  0  0  0  0  0  0  0  0  0  0
  145.1820   73.7160  221.2240 C   0  0  0  0  0  0  0  0  0  0  0  0
  144.7420   72.4270  220.9820 C   0  0  0  0  0  0  0  0  0  0  0  0
  143.9130   72.2200  219.8940 C   0  0  0  0  0  0  0  0  0  0  0  0
  143.4440   70.8370  219.6350 C   0  0  0  0  0  0  0  0  0  0  0  0
  142.0070   70.8500  219.5800 N   0  0  0  0  0  0  0  0  0  0  0  0
  141.3050   71.6290  220.5500 C   0  0  0  0  0  0  0  0  0  0  0  0
  140.9870   72.9050  220.2940 N   0  0  0  0  0  0  0  0  0  0  0  0
  140.3260   73.6810  221.1740 C   0  0  0  0  0  0  0  0  0  0  0  0
  139.9900   75.0340  220.9080 N   0  0  0  0  0  0  0  0  0  0  0  0
  138.9840   75.7670  221.6570 C   0  0  0  0  0  0  0  0  0  0  0  0
  139.7260   76.8250  222.4350 C   0  0  0  0  0  0  0  0  0  0  0  0
  140.7190   77.4830  221.6390 N   0  0  0  0  0  0  0  0  0  0  0  0
  141.3780   78.6180  222.2370 C   0  0  0  0  0  0  0  0  0  0  0  0
  141.6180   78.6910  223.5960 C   0  0  0  0  0  0  0  0  0  0  0  0
  142.2470   79.7670  224.1920 C   0  0  0  0  0  0  0  0  0  0  0  0
  142.6480   80.8120  223.3710 C   0  0  0  0  0  0  0  0  0  0  0  0
  142.4080   80.7390  222.0060 C   0  0  0  0  0  0  0  0  0  0  0  0
  141.7940   79.6670  221.5010 N   0  0  0  0  0  0  0  0  0  0  0  0
  141.1220   77.1240  220.3170 C   0  0  0  0  0  0  0  0  0  0  0  0
  140.6520   75.7910  219.8380 C   0  0  0  0  0  0  0  0  0  0  0  0
  139.9700   73.1560  222.3540 N   0  0  0  0  0  0  0  0  0  0  0  0
  140.2740   71.8590  222.6570 C   0  0  0  0  0  0  0  0  0  0  0  0
  139.8950   71.2900  223.9210 N   0  0  0  0  0  0  0  0  0  0  0  0
  138.7110   70.4620  223.9710 C   0  0  0  0  0  0  0  0  0  0  0  0
  139.1350   69.1200  224.5670 C   0  0  0  0  0  0  0  0  0  0  0  0
  139.7710   69.3840  225.8830 C   0  0  0  0  0  0  0  0  0  0  0  0
  139.6230   68.4570  226.9080 C   0  0  0  0  0  0  0  0  0  0  0  0
  140.1980   68.6590  228.1610 C   0  0  0  0  0  0  0  0  0  0  0  0
  140.9290   69.8160  228.3620 C   0  0  0  0  0  0  0  0  0  0  0  0
  141.0580   70.7140  227.3300 C   0  0  0  0  0  0  0  0  0  0  0  0
  140.4890   70.5210  226.0790 C   0  0  0  0  0  0  0  0  0  0  0  0
  140.7190   71.5790  225.0720 C   0  0  0  0  0  0  0  0  0  0  0  0
  140.9400   71.1270  221.7360 N   0  0  0  0  0  0  0  0  0  0  0  0
  143.5240   73.2450  219.0660 C   0  0  0  0  0  0  0  0  0  0  0  0
  143.9640   74.5440  219.3070 C   0  0  0  0  0  0  0  0  0  0  0  0
  145.1532   75.7698  220.6046 H   0  0  0  0  0  0  0  0  0  0  0  0
  145.8435   73.9178  222.0794 H   0  0  0  0  0  0  0  0  0  0  0  0
  145.0417   71.5932  221.6339 H   0  0  0  0  0  0  0  0  0  0  0  0
  143.8496   70.4801  218.6768 H   0  0  0  0  0  0  0  0  0  0  0  0
  143.7864   70.1647  220.4355 H   0  0  0  0  0  0  0  0  0  0  0  0
  141.4760   70.3230  218.8720 H   0  0  0  0  0  0  0  0  0  0  0  0
  138.2627   76.2342  220.9704 H   0  0  0  0  0  0  0  0  0  0  0  0
  138.4179   75.1014  222.3252 H   0  0  0  0  0  0  0  0  0  0  0  0
  139.0041   77.5743  222.7920 H   0  0  0  0  0  0  0  0  0  0  0  0
  140.2376   76.3315  223.2745 H   0  0  0  0  0  0  0  0  0  0  0  0
  141.2934   77.8543  224.2321 H   0  0  0  0  0  0  0  0  0  0  0  0
  142.4236   79.7946  225.2774 H   0  0  0  0  0  0  0  0  0  0  0  0
  143.1520   81.6911  223.7989 H   0  0  0  0  0  0  0  0  0  0  0  0
  142.7220   81.5597  221.3443 H   0  0  0  0  0  0  0  0  0  0  0  0
  140.7346   77.8874  219.6263 H   0  0  0  0  0  0  0  0  0  0  0  0
  142.2200   77.0636  220.3437 H   0  0  0  0  0  0  0  0  0  0  0  0
  139.9401   75.9391  219.0126 H   0  0  0  0  0  0  0  0  0  0  0  0
  141.5288   75.2174  219.5029 H   0  0  0  0  0  0  0  0  0  0  0  0
  137.9459   70.9333  224.6055 H   0  0  0  0  0  0  0  0  0  0  0  0
  138.2796   70.3295  222.9678 H   0  0  0  0  0  0  0  0  0  0  0  0
  138.2536   68.4755  224.7007 H   0  0  0  0  0  0  0  0  0  0  0  0
  139.8416   68.6095  223.8961 H   0  0  0  0  0  0  0  0  0  0  0  0
  139.0386   67.5430  226.7259 H   0  0  0  0  0  0  0  0  0  0  0  0
  140.0743   67.9202  228.9665 H   0  0  0  0  0  0  0  0  0  0  0  0
  141.4010   70.0146  229.3355 H   0  0  0  0  0  0  0  0  0  0  0  0
  141.6407   71.6306  227.5039 H   0  0  0  0  0  0  0  0  0  0  0  0
  140.4442   72.5584  225.4908 H   0  0  0  0  0  0  0  0  0  0  0  0
  141.7802   71.6065  224.7837 H   0  0  0  0  0  0  0  0  0  0  0  0
  142.8635   73.0391  218.2108 H   0  0  0  0  0  0  0  0  0  0  0  0
  143.6623   75.3767  218.6546 H   0  0  0  0  0  0  0  0  0  0  0  0
  1  2  2  0
  2  3  1  0
  3  4  2  0
  4  5  1  0
  5  6  1  0
  6  7  1  0
  7  8  2  0
  8  9  1  0
  9 10  1  0
 10 11  1  0
 11 12  1  0
 12 13  1  0
 13 14  1  0
 14 15  2  0
 15 16  1  0
 16 17  2  0
 17 18  1  0
 18 19  2  0
 13 20  1  0
 20 21  1  0
  9 22  2  0
 22 23  1  0
 23 24  1  0
 24 25  1  0
 25 26  1  0
 26 27  1  0
 27 28  2  0
 28 29  1  0
 29 30  2  0
 30 31  1  0
 31 32  2  0
 32 33  1  0
 23 34  2  0
  4 35  1  0
 35 36  2  0
 36  1  1  0
 34  7  1  0
 21 10  1  0
 33 24  1  0
 19 14  1  0
 32 27  1  0
  1 37  1  0
  2 38  1  0
  3 39  1  0
  5 40  1  0
  5 41  1  0
  6 42  1  0
 11 43  1  0
 11 44  1  0
 12 45  1  0
 12 46  1  0
 15 47  1  0
 16 48  1  0
 17 49  1  0
 18 50  1  0
 20 51  1  0
 20 52  1  0
 21 53  1  0
 21 54  1  0
 25 55  1  0
 25 56  1  0
 26 57  1  0
 26 58  1  0
 28 59  1  0
 29 60  1  0
 30 61  1  0
 31 62  1  0
 33 63  1  0
 33 64  1  0
 35 65  1  0
 36 66  1  0
M  END
>  <smiles>  (31) 
c1ccc(CNc2nc(N3CCN(c4ccccn4)CC3)nc(N3CCc4ccccc4C3)n2)cc1

>  <score_type>  (31) 
oracle

>  <origin>  (31) 
autodockgpu

>  <m_score__min__energy>  (31) 
-10.789999999999999

>  <m_primary>  (31) 
energy

>  <rmsd>  (31) 
7.763467362126192

>  <m_score__min__rmsd>  (31) 
7.763467362126192

>  <meeko>  (31) 
{"free_energy": -10.04, "intermolecular_energy": -11.83, "internal_energy": -1.66, "cluster_size": 49, "cluster_id": 1, "rank_in_cluster": 43}

>  <energy>  (31) 
-10.29

>  <cluster_rmsd>  (31) 
1.28

>  <cluster>  (31) 
1

$$$$

     RDKit          3D

 66 71  0  0  0  0  0  0  0  0999 V2000
  145.9440   74.1070  220.9890 C   0  0  0  0  0  0  0  0  0  0  0  0
  144.8350   74.7600  220.4780 C   0  0  0  0  0  0  0  0  0  0  0  0
  143.8830   74.0580  219.7610 C   0  0  0  0  0  0  0  0  0  0  0  0
  144.0810   72.7010  219.5790 C   0  0  0  0  0  0  0  0  0  0  0  0
  143.0570   71.9510  218.8110 C   0  0  0  0  0  0  0  0  0  0  0  0
  142.2800   71.1710  219.7360 N   0  0  0  0  0  0  0  0  0  0  0  0
  141.4820   71.8660  220.6950 C   0  0  0  0  0  0  0  0  0  0  0  0
  141.0970   73.1280  220.4710 N   0  0  0  0  0  0  0  0  0  0  0  0
  140.3450   73.8260  221.3420 C   0  0  0  0  0  0  0  0  0  0  0  0
  139.9370   75.1660  221.1100 N   0  0  0  0  0  0  0  0  0  0  0  0
  138.9740   75.8620  221.9450 C   0  0  0  0  0  0  0  0  0  0  0  0
  139.7420   76.9480  222.6570 C   0  0  0  0  0  0  0  0  0  0  0  0
  140.6370   77.6410  221.7790 N   0  0  0  0  0  0  0  0  0  0  0  0
  141.3030   78.8010  222.3180 C   0  0  0  0  0  0  0  0  0  0  0  0
  141.7140   78.8580  223.6360 C   0  0  0  0  0  0  0  0  0  0  0  0
  142.3540   79.9570  224.1770 C   0  0  0  0  0  0  0  0  0  0  0  0
  142.5850   81.0420  223.3410 C   0  0  0  0  0  0  0  0  0  0  0  0
  142.1730   80.9830  222.0180 C   0  0  0  0  0  0  0  0  0  0  0  0
  141.5600   79.8870  221.5660 N   0  0  0  0  0  0  0  0  0  0  0  0
  140.9350   77.2950  220.4250 C   0  0  0  0  0  0  0  0  0  0  0  0
  140.4750   75.9450  219.9870 C   0  0  0  0  0  0  0  0  0  0  0  0
  139.9640   73.2340  222.4820 N   0  0  0  0  0  0  0  0  0  0  0  0
  140.3340   71.9470  222.7520 C   0  0  0  0  0  0  0  0  0  0  0  0
  139.9290   71.3050  223.9720 N   0  0  0  0  0  0  0  0  0  0  0  0
  138.7580   70.4580  223.9440 C   0  0  0  0  0  0  0  0  0  0  0  0
  139.1870   69.0920  224.4800 C   0  0  0  0  0  0  0  0  0  0  0  0
  139.7810   69.2940  225.8260 C   0  0  0  0  0  0  0  0  0  0  0  0
  139.6200   68.3110  226.7950 C   0  0  0  0  0  0  0  0  0  0  0  0
  140.1550   68.4540  228.0730 C   0  0  0  0  0  0  0  0  0  0  0  0
  140.8610   69.6100  228.3570 C   0  0  0  0  0  0  0  0  0  0  0  0
  141.0050   70.5640  227.3780 C   0  0  0  0  0  0  0  0  0  0  0  0
  140.4750   70.4300  226.1030 C   0  0  0  0  0  0  0  0  0  0  0  0
  140.7160   71.5440  225.1610 C   0  0  0  0  0  0  0  0  0  0  0  0
  141.0900   71.2950  221.8410 N   0  0  0  0  0  0  0  0  0  0  0  0
  145.1790   72.0480  220.0830 C   0  0  0  0  0  0  0  0  0  0  0  0
  146.1400   72.7500  220.8060 C   0  0  0  0  0  0  0  0  0  0  0  0
  146.6898   74.6833  221.5562 H   0  0  0  0  0  0  0  0  0  0  0  0
  144.7107   75.8405  220.6428 H   0  0  0  0  0  0  0  0  0  0  0  0
  142.9968   74.5626  219.3487 H   0  0  0  0  0  0  0  0  0  0  0  0
  142.4024   72.6557  218.2772 H   0  0  0  0  0  0  0  0  0  0  0  0
  143.5421   71.2932  218.0748 H   0  0  0  0  0  0  0  0  0  0  0  0
  142.2810   70.1400  219.7270 H   0  0  0  0  0  0  0  0  0  0  0  0
  138.1786   76.3012  221.3249 H   0  0  0  0  0  0  0  0  0  0  0  0
  138.4932   75.1770  222.6588 H   0  0  0  0  0  0  0  0  0  0  0  0
  139.0270   77.6708  223.0769 H   0  0  0  0  0  0  0  0  0  0  0  0
  140.3428   76.4746  223.4475 H   0  0  0  0  0  0  0  0  0  0  0  0
  141.5232   77.9896  224.2837 H   0  0  0  0  0  0  0  0  0  0  0  0
  142.6689   79.9719  225.2309 H   0  0  0  0  0  0  0  0  0  0  0  0
  143.0904   81.9404  223.7250 H   0  0  0  0  0  0  0  0  0  0  0  0
  142.3505   81.8348  221.3450 H   0  0  0  0  0  0  0  0  0  0  0  0
  140.4598   78.0423  219.7726 H   0  0  0  0  0  0  0  0  0  0  0  0
  142.0326   77.2757  220.3546 H   0  0  0  0  0  0  0  0  0  0  0  0
  139.6890   76.0650  219.2269 H   0  0  0  0  0  0  0  0  0  0  0  0
  141.3399   75.4036  219.5760 H   0  0  0  0  0  0  0  0  0  0  0  0
  137.9679   70.8832  224.5804 H   0  0  0  0  0  0  0  0  0  0  0  0
  138.3571   70.3729  222.9232 H   0  0  0  0  0  0  0  0  0  0  0  0
  138.3129   68.4283  224.5533 H   0  0  0  0  0  0  0  0  0  0  0  0
  139.9207   68.6290  223.8037 H   0  0  0  0  0  0  0  0  0  0  0  0
  139.0571   67.3990  226.5470 H   0  0  0  0  0  0  0  0  0  0  0  0
  140.0204   67.6713  228.8341 H   0  0  0  0  0  0  0  0  0  0  0  0
  141.3012   69.7633  229.3533 H   0  0  0  0  0  0  0  0  0  0  0  0
  141.5679   71.4783  227.6172 H   0  0  0  0  0  0  0  0  0  0  0  0
  140.4136   72.4952  225.6233 H   0  0  0  0  0  0  0  0  0  0  0  0
  141.7843   71.6027  224.9055 H   0  0  0  0  0  0  0  0  0  0  0  0
  145.2997   70.9676  219.9151 H   0  0  0  0  0  0  0  0  0  0  0  0
  147.0250   72.2426  221.2176 H   0  0  0  0  0  0  0  0  0  0  0  0
  1  2  2  0
  2  3  1  0
  3  4  2  0
  4  5  1  0
  5  6  1  0
  6  7  1  0
  7  8  2  0
  8  9  1  0
  9 10  1  0
 10 11  1  0
 11 12  1  0
 12 13  1  0
 13 14  1  0
 14 15  2  0
 15 16  1  0
 16 17  2  0
 17 18  1  0
 18 19  2  0
 13 20  1  0
 20 21  1  0
  9 22  2  0
 22 23  1  0
 23 24  1  0
 24 25  1  0
 25 26  1  0
 26 27  1  0
 27 28  2  0
 28 29  1  0
 29 30  2  0
 30 31  1  0
 31 32  2  0
 32 33  1  0
 23 34  2  0
  4 35  1  0
 35 36  2  0
 36  1  1  0
 34  7  1  0
 21 10  1  0
 33 24  1  0
 19 14  1  0
 32 27  1  0
  1 37  1  0
  2 38  1  0
  3 39  1  0
  5 40  1  0
  5 41  1  0
  6 42  1  0
 11 43  1  0
 11 44  1  0
 12 45  1  0
 12 46  1  0
 15 47  1  0
 16 48  1  0
 17 49  1  0
 18 50  1  0
 20 51  1  0
 20 52  1  0
 21 53  1  0
 21 54  1  0
 25 55  1  0
 25 56  1  0
 26 57  1  0
 26 58  1  0
 28 59  1  0
 29 60  1  0
 30 61  1  0
 31 62  1  0
 33 63  1  0
 33 64  1  0
 35 65  1  0
 36 66  1  0
M  END
>  <smiles>  (32) 
c1ccc(CNc2nc(N3CCN(c4ccccn4)CC3)nc(N3CCc4ccccc4C3)n2)cc1

>  <score_type>  (32) 
oracle

>  <origin>  (32) 
autodockgpu

>  <m_score__min__energy>  (32) 
-10.789999999999999

>  <m_primary>  (32) 
energy

>  <rmsd>  (32) 
7.904443145803908

>  <m_score__min__rmsd>  (32) 
7.904443145803908

>  <meeko>  (32) 
{"free_energy": -10.49, "intermolecular_energy": -12.28, "internal_energy": -1.54, "cluster_size": 49, "cluster_id": 1, "rank_in_cluster": 23}

>  <energy>  (32) 
-10.24

>  <cluster_rmsd>  (32) 
1.83

>  <cluster>  (32) 
1

$$$$

     RDKit          3D

 66 71  0  0  0  0  0  0  0  0999 V2000
  145.9160   74.1280  221.0190 C   0  0  0  0  0  0  0  0  0  0  0  0
  144.8450   74.8130  220.4730 C   0  0  0  0  0  0  0  0  0  0  0  0
  143.9060   74.1420  219.7090 C   0  0  0  0  0  0  0  0  0  0  0  0
  144.0790   72.7830  219.5190 C   0  0  0  0  0  0  0  0  0  0  0  0
  143.0700   72.0660  218.7020 C   0  0  0  0  0  0  0  0  0  0  0  0
  142.2210   71.3160  219.5880 N   0  0  0  0  0  0  0  0  0  0  0  0
  141.4690   72.0340  220.5670 C   0  0  0  0  0  0  0  0  0  0  0  0
  141.1180   73.3090  220.3510 N   0  0  0  0  0  0  0  0  0  0  0  0
  140.4100   74.0290  221.2410 C   0  0  0  0  0  0  0  0  0  0  0  0
  140.0380   75.3810  221.0180 N   0  0  0  0  0  0  0  0  0  0  0  0
  138.9710   76.0450  221.7470 C   0  0  0  0  0  0  0  0  0  0  0  0
  139.6360   77.0910  222.6060 C   0  0  0  0  0  0  0  0  0  0  0  0
  140.6420   77.8180  221.8900 N   0  0  0  0  0  0  0  0  0  0  0  0
  141.2290   78.9470  222.5690 C   0  0  0  0  0  0  0  0  0  0  0  0
  142.5970   79.1390  222.6160 C   0  0  0  0  0  0  0  0  0  0  0  0
  143.1840   80.2110  223.2590 C   0  0  0  0  0  0  0  0  0  0  0  0
  142.3450   81.1260  223.8800 C   0  0  0  0  0  0  0  0  0  0  0  0
  140.9710   80.9340  223.8310 C   0  0  0  0  0  0  0  0  0  0  0  0
  140.4760   79.8730  223.1910 N   0  0  0  0  0  0  0  0  0  0  0  0
  141.1210   77.5320  220.5750 C   0  0  0  0  0  0  0  0  0  0  0  0
  140.7230   76.2070  220.0160 C   0  0  0  0  0  0  0  0  0  0  0  0
  140.0400   73.4490  222.3900 N   0  0  0  0  0  0  0  0  0  0  0  0
  140.3760   72.1510  222.6510 C   0  0  0  0  0  0  0  0  0  0  0  0
  139.9820   71.5210  223.8820 N   0  0  0  0  0  0  0  0  0  0  0  0
  138.8300   70.6480  223.8660 C   0  0  0  0  0  0  0  0  0  0  0  0
  139.2890   69.3020  224.4260 C   0  0  0  0  0  0  0  0  0  0  0  0
  139.8740   69.5410  225.7710 C   0  0  0  0  0  0  0  0  0  0  0  0
  139.7320   68.5720  226.7570 C   0  0  0  0  0  0  0  0  0  0  0  0
  140.2600   68.7500  228.0330 C   0  0  0  0  0  0  0  0  0  0  0  0
  140.9390   69.9260  228.2980 C   0  0  0  0  0  0  0  0  0  0  0  0
  141.0630   70.8660  227.3030 C   0  0  0  0  0  0  0  0  0  0  0  0
  140.5410   70.6970  226.0300 C   0  0  0  0  0  0  0  0  0  0  0  0
  140.7590   71.8000  225.0680 C   0  0  0  0  0  0  0  0  0  0  0  0
  141.0890   71.4760  221.7230 N   0  0  0  0  0  0  0  0  0  0  0  0
  145.1400   72.0980  220.0590 C   0  0  0  0  0  0  0  0  0  0  0  0
  146.0870   72.7690  220.8270 C   0  0  0  0  0  0  0  0  0  0  0  0
  146.6519   74.6795  221.6225 H   0  0  0  0  0  0  0  0  0  0  0  0
  144.7395   75.8941  220.6466 H   0  0  0  0  0  0  0  0  0  0  0  0
  143.0497   74.6725  219.2671 H   0  0  0  0  0  0  0  0  0  0  0  0
  142.4676   72.7909  218.1348 H   0  0  0  0  0  0  0  0  0  0  0  0
  143.5687   71.3894  217.9923 H   0  0  0  0  0  0  0  0  0  0  0  0
  142.1400   70.2900  219.5390 H   0  0  0  0  0  0  0  0  0  0  0  0
  138.2674   76.5181  221.0462 H   0  0  0  0  0  0  0  0  0  0  0  0
  138.3974   75.3312  222.3565 H   0  0  0  0  0  0  0  0  0  0  0  0
  138.8712   77.7984  222.9591 H   0  0  0  0  0  0  0  0  0  0  0  0
  140.1242   76.5774  223.4474 H   0  0  0  0  0  0  0  0  0  0  0  0
  143.2477   78.4046  222.1187 H   0  0  0  0  0  0  0  0  0  0  0  0
  144.2768   80.3353  223.2783 H   0  0  0  0  0  0  0  0  0  0  0  0
  142.7652   81.9957  224.4064 H   0  0  0  0  0  0  0  0  0  0  0  0
  140.2943   81.6523  224.3169 H   0  0  0  0  0  0  0  0  0  0  0  0
  140.7403   78.3121  219.8994 H   0  0  0  0  0  0  0  0  0  0  0  0
  142.2179   77.5072  220.6539 H   0  0  0  0  0  0  0  0  0  0  0  0
  140.0468   76.3679  219.1634 H   0  0  0  0  0  0  0  0  0  0  0  0
  141.6349   75.6790  219.7003 H   0  0  0  0  0  0  0  0  0  0  0  0
  138.0291   71.0661  224.4935 H   0  0  0  0  0  0  0  0  0  0  0  0
  138.4328   70.5368  222.8462 H   0  0  0  0  0  0  0  0  0  0  0  0
  138.4305   68.6192  224.5080 H   0  0  0  0  0  0  0  0  0  0  0  0
  140.0355   68.8449  223.7598 H   0  0  0  0  0  0  0  0  0  0  0  0
  139.1902   67.6434  226.5241 H   0  0  0  0  0  0  0  0  0  0  0  0
  140.1408   67.9782  228.8077 H   0  0  0  0  0  0  0  0  0  0  0  0
  141.3739   70.1063  229.2921 H   0  0  0  0  0  0  0  0  0  0  0  0
  141.6027   71.7978  227.5277 H   0  0  0  0  0  0  0  0  0  0  0  0
  140.4328   72.7521  225.5121 H   0  0  0  0  0  0  0  0  0  0  0  0
  141.8264   71.8794  224.8145 H   0  0  0  0  0  0  0  0  0  0  0  0
  145.2414   71.0167  219.8841 H   0  0  0  0  0  0  0  0  0  0  0  0
  146.9431   72.2362  221.2667 H   0  0  0  0  0  0  0  0  0  0  0  0
  1  2  2  0
  2  3  1  0
  3  4  2  0
  4  5  1  0
  5  6  1  0
  6  7  1  0
  7  8  2  0
  8  9  1  0
  9 10  1  0
 10 11  1  0
 11 12  1  0
 12 13  1  0
 13 14  1  0
 14 15  2  0
 15 16  1  0
 16 17  2  0
 17 18  1  0
 18 19  2  0
 13 20  1  0
 20 21  1  0
  9 22  2  0
 22 23  1  0
 23 24  1  0
 24 25  1  0
 25 26  1  0
 26 27  1  0
 27 28  2  0
 28 29  1  0
 29 30  2  0
 30 31  1  0
 31 32  2  0
 32 33  1  0
 23 34  2  0
  4 35  1  0
 35 36  2  0
 36  1  1  0
 34  7  1  0
 21 10  1  0
 33 24  1  0
 19 14  1  0
 32 27  1  0
  1 37  1  0
  2 38  1  0
  3 39  1  0
  5 40  1  0
  5 41  1  0
  6 42  1  0
 11 43  1  0
 11 44  1  0
 12 45  1  0
 12 46  1  0
 15 47  1  0
 16 48  1  0
 17 49  1  0
 18 50  1  0
 20 51  1  0
 20 52  1  0
 21 53  1  0
 21 54  1  0
 25 55  1  0
 25 56  1  0
 26 57  1  0
 26 58  1  0
 28 59  1  0
 29 60  1  0
 30 61  1  0
 31 62  1  0
 33 63  1  0
 33 64  1  0
 35 65  1  0
 36 66  1  0
M  END
>  <smiles>  (33) 
c1ccc(CNc2nc(N3CCN(c4ccccn4)CC3)nc(N3CCc4ccccc4C3)n2)cc1

>  <score_type>  (33) 
oracle

>  <origin>  (33) 
autodockgpu

>  <m_score__min__energy>  (33) 
-10.789999999999999

>  <m_primary>  (33) 
energy

>  <rmsd>  (33) 
8.010883750454317

>  <m_score__min__rmsd>  (33) 
8.010883750454317

>  <meeko>  (33) 
{"free_energy": -10.63, "intermolecular_energy": -12.42, "internal_energy": -1.55, "cluster_size": 49, "cluster_id": 1, "rank_in_cluster": 11}

>  <energy>  (33) 
-10.21

>  <cluster_rmsd>  (33) 
1.82

>  <cluster>  (33) 
1

$$$$

     RDKit          3D

 66 71  0  0  0  0  0  0  0  0999 V2000
  145.8490   74.1200  220.9960 C   0  0  0  0  0  0  0  0  0  0  0  0
  145.9970   72.7570  220.8100 C   0  0  0  0  0  0  0  0  0  0  0  0
  145.0610   72.0480  220.0770 C   0  0  0  0  0  0  0  0  0  0  0  0
  143.9920   72.7470  219.5460 C   0  0  0  0  0  0  0  0  0  0  0  0
  142.9910   71.9850  218.7590 C   0  0  0  0  0  0  0  0  0  0  0  0
  142.1680   71.2420  219.6750 N   0  0  0  0  0  0  0  0  0  0  0  0
  141.4120   71.9710  220.6430 C   0  0  0  0  0  0  0  0  0  0  0  0
  141.0670   73.2450  220.4140 N   0  0  0  0  0  0  0  0  0  0  0  0
  140.3550   73.9740  221.2930 C   0  0  0  0  0  0  0  0  0  0  0  0
  139.9890   75.3260  221.0570 N   0  0  0  0  0  0  0  0  0  0  0  0
  138.9160   75.9970  221.7680 C   0  0  0  0  0  0  0  0  0  0  0  0
  139.5720   77.0480  222.6280 C   0  0  0  0  0  0  0  0  0  0  0  0
  140.5890   77.7670  221.9200 N   0  0  0  0  0  0  0  0  0  0  0  0
  141.1710   78.8990  222.5980 C   0  0  0  0  0  0  0  0  0  0  0  0
  142.5380   79.0950  222.6490 C   0  0  0  0  0  0  0  0  0  0  0  0
  143.1190   80.1710  223.2920 C   0  0  0  0  0  0  0  0  0  0  0  0
  142.2750   81.0840  223.9080 C   0  0  0  0  0  0  0  0  0  0  0  0
  140.9030   80.8880  223.8550 C   0  0  0  0  0  0  0  0  0  0  0  0
  140.4130   79.8250  223.2160 N   0  0  0  0  0  0  0  0  0  0  0  0
  141.0830   77.4720  220.6130 C   0  0  0  0  0  0  0  0  0  0  0  0
  140.6890   76.1430  220.0580 C   0  0  0  0  0  0  0  0  0  0  0  0
  139.9750   73.4050  222.4450 N   0  0  0  0  0  0  0  0  0  0  0  0
  140.3060   72.1080  222.7190 C   0  0  0  0  0  0  0  0  0  0  0  0
  139.9010   71.4900  223.9520 N   0  0  0  0  0  0  0  0  0  0  0  0
  138.7110   70.6680  223.9470 C   0  0  0  0  0  0  0  0  0  0  0  0
  139.1170   69.3000  224.4950 C   0  0  0  0  0  0  0  0  0  0  0  0
  139.7310   69.5060  225.8320 C   0  0  0  0  0  0  0  0  0  0  0  0
  139.5600   68.5390  226.8150 C   0  0  0  0  0  0  0  0  0  0  0  0
  140.1130   68.6860  228.0850 C   0  0  0  0  0  0  0  0  0  0  0  0
  140.8470   69.8300  228.3470 C   0  0  0  0  0  0  0  0  0  0  0  0
  140.9990   70.7680  227.3540 C   0  0  0  0  0  0  0  0  0  0  0  0
  140.4520   70.6300  226.0870 C   0  0  0  0  0  0  0  0  0  0  0  0
  140.7060   71.7270  225.1280 C   0  0  0  0  0  0  0  0  0  0  0  0
  141.0220   71.4230  221.8000 N   0  0  0  0  0  0  0  0  0  0  0  0
  143.8400   74.1000  219.7280 C   0  0  0  0  0  0  0  0  0  0  0  0
  144.7790   74.8160  220.4650 C   0  0  0  0  0  0  0  0  0  0  0  0
  146.6034   74.6648  221.5825 H   0  0  0  0  0  0  0  0  0  0  0  0
  146.8615   72.2350  221.2461 H   0  0  0  0  0  0  0  0  0  0  0  0
  145.1640   70.9639  219.9218 H   0  0  0  0  0  0  0  0  0  0  0  0
  142.3671   72.6801  218.1780 H   0  0  0  0  0  0  0  0  0  0  0  0
  143.4974   71.3001  218.0629 H   0  0  0  0  0  0  0  0  0  0  0  0
  142.1080   70.2130  219.6540 H   0  0  0  0  0  0  0  0  0  0  0  0
  138.2219   76.4665  221.0554 H   0  0  0  0  0  0  0  0  0  0  0  0
  138.3342   75.2885  222.3758 H   0  0  0  0  0  0  0  0  0  0  0  0
  138.8043   77.7598  222.9655 H   0  0  0  0  0  0  0  0  0  0  0  0
  140.0476   76.5397  223.4798 H   0  0  0  0  0  0  0  0  0  0  0  0
  143.1927   78.3616  222.1556 H   0  0  0  0  0  0  0  0  0  0  0  0
  144.2113   80.2993  223.3148 H   0  0  0  0  0  0  0  0  0  0  0  0
  142.6906   81.9561  224.4341 H   0  0  0  0  0  0  0  0  0  0  0  0
  140.2228   81.6054  224.3374 H   0  0  0  0  0  0  0  0  0  0  0  0
  140.7115   78.2482  219.9279 H   0  0  0  0  0  0  0  0  0  0  0  0
  142.1789   77.4463  220.7048 H   0  0  0  0  0  0  0  0  0  0  0  0
  140.0244   76.2992  219.1955 H   0  0  0  0  0  0  0  0  0  0  0  0
  141.6036   75.6106  219.7580 H   0  0  0  0  0  0  0  0  0  0  0  0
  137.9374   71.1178  224.5867 H   0  0  0  0  0  0  0  0  0  0  0  0
  138.2967   70.5795  222.9319 H   0  0  0  0  0  0  0  0  0  0  0  0
  138.2299   68.6561  224.5866 H   0  0  0  0  0  0  0  0  0  0  0  0
  139.8327   68.8131  223.8163 H   0  0  0  0  0  0  0  0  0  0  0  0
  138.9745   67.6366  226.5850 H   0  0  0  0  0  0  0  0  0  0  0  0
  139.9706   67.9155  228.8571 H   0  0  0  0  0  0  0  0  0  0  0  0
  141.3023   69.9862  229.3361 H   0  0  0  0  0  0  0  0  0  0  0  0
  141.5836   71.6732  227.5752 H   0  0  0  0  0  0  0  0  0  0  0  0
  140.4293   72.6902  225.5814 H   0  0  0  0  0  0  0  0  0  0  0  0
  141.7723   71.7597  224.8599 H   0  0  0  0  0  0  0  0  0  0  0  0
  142.9743   74.6188  219.2904 H   0  0  0  0  0  0  0  0  0  0  0  0
  144.6732   75.8999  220.6198 H   0  0  0  0  0  0  0  0  0  0  0  0
  1  2  2  0
  2  3  1  0
  3  4  2  0
  4  5  1  0
  5  6  1  0
  6  7  1  0
  7  8  2  0
  8  9  1  0
  9 10  1  0
 10 11  1  0
 11 12  1  0
 12 13  1  0
 13 14  1  0
 14 15  2  0
 15 16  1  0
 16 17  2  0
 17 18  1  0
 18 19  2  0
 13 20  1  0
 20 21  1  0
  9 22  2  0
 22 23  1  0
 23 24  1  0
 24 25  1  0
 25 26  1  0
 26 27  1  0
 27 28  2  0
 28 29  1  0
 29 30  2  0
 30 31  1  0
 31 32  2  0
 32 33  1  0
 23 34  2  0
  4 35  1  0
 35 36  2  0
 36  1  1  0
 34  7  1  0
 21 10  1  0
 33 24  1  0
 19 14  1  0
 32 27  1  0
  1 37  1  0
  2 38  1  0
  3 39  1  0
  5 40  1  0
  5 41  1  0
  6 42  1  0
 11 43  1  0
 11 44  1  0
 12 45  1  0
 12 46  1  0
 15 47  1  0
 16 48  1  0
 17 49  1  0
 18 50  1  0
 20 51  1  0
 20 52  1  0
 21 53  1  0
 21 54  1  0
 25 55  1  0
 25 56  1  0
 26 57  1  0
 26 58  1  0
 28 59  1  0
 29 60  1  0
 30 61  1  0
 31 62  1  0
 33 63  1  0
 33 64  1  0
 35 65  1  0
 36 66  1  0
M  END
>  <smiles>  (34) 
c1ccc(CNc2nc(N3CCN(c4ccccn4)CC3)nc(N3CCc4ccccc4C3)n2)cc1

>  <score_type>  (34) 
oracle

>  <origin>  (34) 
autodockgpu

>  <m_score__min__energy>  (34) 
-10.789999999999999

>  <m_primary>  (34) 
energy

>  <rmsd>  (34) 
7.975173476612695

>  <m_score__min__rmsd>  (34) 
7.975173476612695

>  <meeko>  (34) 
{"free_energy": -10.64, "intermolecular_energy": -12.43, "internal_energy": -1.56, "cluster_size": 49, "cluster_id": 1, "rank_in_cluster": 9}

>  <energy>  (34) 
-10.17

>  <cluster_rmsd>  (34) 
1.4

>  <cluster>  (34) 
1

$$$$

     RDKit          3D

 66 71  0  0  0  0  0  0  0  0999 V2000
  145.0570   74.7070  220.4820 C   0  0  0  0  0  0  0  0  0  0  0  0
  145.4160   73.5680  221.1820 C   0  0  0  0  0  0  0  0  0  0  0  0
  144.8180   72.3550  220.8910 C   0  0  0  0  0  0  0  0  0  0  0  0
  143.8640   72.3270  219.8900 C   0  0  0  0  0  0  0  0  0  0  0  0
  143.2250   71.0250  219.5790 C   0  0  0  0  0  0  0  0  0  0  0  0
  141.8090   71.2380  219.4430 N   0  0  0  0  0  0  0  0  0  0  0  0
  141.1390   71.9750  220.4660 C   0  0  0  0  0  0  0  0  0  0  0  0
  140.8110   73.2590  220.2730 N   0  0  0  0  0  0  0  0  0  0  0  0
  140.1790   73.9970  221.2040 C   0  0  0  0  0  0  0  0  0  0  0  0
  139.8310   75.3580  221.0040 N   0  0  0  0  0  0  0  0  0  0  0  0
  138.8210   76.0470  221.7890 C   0  0  0  0  0  0  0  0  0  0  0  0
  139.5550   77.0720  222.6160 C   0  0  0  0  0  0  0  0  0  0  0  0
  140.5410   77.7750  221.8510 N   0  0  0  0  0  0  0  0  0  0  0  0
  141.1920   78.8860  222.5010 C   0  0  0  0  0  0  0  0  0  0  0  0
  140.4800   79.8380  223.2070 C   0  0  0  0  0  0  0  0  0  0  0  0
  141.0800   80.9110  223.8370 C   0  0  0  0  0  0  0  0  0  0  0  0
  142.4610   81.0190  223.7470 C   0  0  0  0  0  0  0  0  0  0  0  0
  143.1760   80.0630  223.0400 C   0  0  0  0  0  0  0  0  0  0  0  0
  142.5270   79.0540  222.4560 N   0  0  0  0  0  0  0  0  0  0  0  0
  140.9440   77.4830  220.5120 C   0  0  0  0  0  0  0  0  0  0  0  0
  140.4840   76.1710  219.9710 C   0  0  0  0  0  0  0  0  0  0  0  0
  139.8640   73.4250  222.3740 N   0  0  0  0  0  0  0  0  0  0  0  0
  140.1810   72.1180  222.6140 C   0  0  0  0  0  0  0  0  0  0  0  0
  139.8460   71.4970  223.8670 N   0  0  0  0  0  0  0  0  0  0  0  0
  138.7150   70.5980  223.9050 C   0  0  0  0  0  0  0  0  0  0  0  0
  139.2240   69.2710  224.4660 C   0  0  0  0  0  0  0  0  0  0  0  0
  139.8520   69.5420  225.7850 C   0  0  0  0  0  0  0  0  0  0  0  0
  139.7680   68.5840  226.7880 C   0  0  0  0  0  0  0  0  0  0  0  0
  140.3390   68.7920  228.0420 C   0  0  0  0  0  0  0  0  0  0  0  0
  141.0000   69.9870  228.2660 C   0  0  0  0  0  0  0  0  0  0  0  0
  141.0670   70.9150  227.2550 C   0  0  0  0  0  0  0  0  0  0  0  0
  140.5020   70.7170  226.0030 C   0  0  0  0  0  0  0  0  0  0  0  0
  140.6600   71.8100  225.0200 C   0  0  0  0  0  0  0  0  0  0  0  0
  140.8160   71.4250  221.6440 N   0  0  0  0  0  0  0  0  0  0  0  0
  143.5040   73.4540  219.1920 C   0  0  0  0  0  0  0  0  0  0  0  0
  144.1030   74.6770  219.4810 C   0  0  0  0  0  0  0  0  0  0  0  0
  145.5438   75.6621  220.7286 H   0  0  0  0  0  0  0  0  0  0  0  0
  146.1791   73.6276  221.9720 H   0  0  0  0  0  0  0  0  0  0  0  0
  145.0926   71.4414  221.4386 H   0  0  0  0  0  0  0  0  0  0  0  0
  143.6331   70.6255  218.6388 H   0  0  0  0  0  0  0  0  0  0  0  0
  143.4240   70.3030  220.3847 H   0  0  0  0  0  0  0  0  0  0  0  0
  141.2720   70.8790  218.6400 H   0  0  0  0  0  0  0  0  0  0  0  0
  138.0950   76.5410  221.1265 H   0  0  0  0  0  0  0  0  0  0  0  0
  138.2617   75.3455  222.4255 H   0  0  0  0  0  0  0  0  0  0  0  0
  138.8276   77.7974  223.0094 H   0  0  0  0  0  0  0  0  0  0  0  0
  140.0716   76.5434  223.4307 H   0  0  0  0  0  0  0  0  0  0  0  0
  139.3865   79.7364  223.2698 H   0  0  0  0  0  0  0  0  0  0  0  0
  140.4851   81.6529  224.3899 H   0  0  0  0  0  0  0  0  0  0  0  0
  142.9844   81.8559  224.2324 H   0  0  0  0  0  0  0  0  0  0  0  0
  144.2707   80.1364  222.9614 H   0  0  0  0  0  0  0  0  0  0  0  0
  140.5487   78.2753  219.8594 H   0  0  0  0  0  0  0  0  0  0  0  0
  142.0425   77.4306  220.5335 H   0  0  0  0  0  0  0  0  0  0  0  0
  139.7690   76.3525  219.1550 H   0  0  0  0  0  0  0  0  0  0  0  0
  141.3649   75.6216  219.6074 H   0  0  0  0  0  0  0  0  0  0  0  0
  137.9279   71.0070  224.5555 H   0  0  0  0  0  0  0  0  0  0  0  0
  138.2844   70.4630  222.9018 H   0  0  0  0  0  0  0  0  0  0  0  0
  138.3845   68.5709  224.5888 H   0  0  0  0  0  0  0  0  0  0  0  0
  139.9558   68.8208  223.7791 H   0  0  0  0  0  0  0  0  0  0  0  0
  139.2391   67.6405  226.5877 H   0  0  0  0  0  0  0  0  0  0  0  0
  140.2665   68.0287  228.8307 H   0  0  0  0  0  0  0  0  0  0  0  0
  141.4659   70.1914  229.2413 H   0  0  0  0  0  0  0  0  0  0  0  0
  141.5942   71.8611  227.4474 H   0  0  0  0  0  0  0  0  0  0  0  0
  140.3292   72.7609  225.4631 H   0  0  0  0  0  0  0  0  0  0  0  0
  141.7154   71.9093  224.7263 H   0  0  0  0  0  0  0  0  0  0  0  0
  142.7405   73.3900  218.4027 H   0  0  0  0  0  0  0  0  0  0  0  0
  143.8268   75.5891  218.9316 H   0  0  0  0  0  0  0  0  0  0  0  0
  1  2  2  0
  2  3  1  0
  3  4  2  0
  4  5  1  0
  5  6  1  0
  6  7  1  0
  7  8  2  0
  8  9  1  0
  9 10  1  0
 10 11  1  0
 11 12  1  0
 12 13  1  0
 13 14  1  0
 14 15  2  0
 15 16  1  0
 16 17  2  0
 17 18  1  0
 18 19  2  0
 13 20  1  0
 20 21  1  0
  9 22  2  0
 22 23  1  0
 23 24  1  0
 24 25  1  0
 25 26  1  0
 26 27  1  0
 27 28  2  0
 28 29  1  0
 29 30  2  0
 30 31  1  0
 31 32  2  0
 32 33  1  0
 23 34  2  0
  4 35  1  0
 35 36  2  0
 36  1  1  0
 34  7  1  0
 21 10  1  0
 33 24  1  0
 19 14  1  0
 32 27  1  0
  1 37  1  0
  2 38  1  0
  3 39  1  0
  5 40  1  0
  5 41  1  0
  6 42  1  0
 11 43  1  0
 11 44  1  0
 12 45  1  0
 12 46  1  0
 15 47  1  0
 16 48  1  0
 17 49  1  0
 18 50  1  0
 20 51  1  0
 20 52  1  0
 21 53  1  0
 21 54  1  0
 25 55  1  0
 25 56  1  0
 26 57  1  0
 26 58  1  0
 28 59  1  0
 29 60  1  0
 30 61  1  0
 31 62  1  0
 33 63  1  0
 33 64  1  0
 35 65  1  0
 36 66  1  0
M  END
>  <smiles>  (35) 
c1ccc(CNc2nc(N3CCN(c4ccccn4)CC3)nc(N3CCc4ccccc4C3)n2)cc1

>  <score_type>  (35) 
oracle

>  <origin>  (35) 
autodockgpu

>  <m_score__min__energy>  (35) 
-10.789999999999999

>  <m_primary>  (35) 
energy

>  <rmsd>  (35) 
7.994973009510941

>  <m_score__min__rmsd>  (35) 
7.994973009510941

>  <meeko>  (35) 
{"free_energy": -10.17, "intermolecular_energy": -11.96, "internal_energy": -1.56, "cluster_size": 49, "cluster_id": 1, "rank_in_cluster": 35}

>  <energy>  (35) 
-10.17

>  <cluster_rmsd>  (35) 
1.86

>  <cluster>  (35) 
1

$$$$

     RDKit          3D

 66 71  0  0  0  0  0  0  0  0999 V2000
  145.9950   67.7760  219.3660 C   0  0  0  0  0  0  0  0  0  0  0  0
  146.3300   69.0760  219.0290 C   0  0  0  0  0  0  0  0  0  0  0  0
  145.3530   70.0530  218.9670 C   0  0  0  0  0  0  0  0  0  0  0  0
  144.0510   69.6840  219.2500 C   0  0  0  0  0  0  0  0  0  0  0  0
  143.0050   70.7340  219.1830 C   0  0  0  0  0  0  0  0  0  0  0  0
  143.3310   71.7570  220.1400 N   0  0  0  0  0  0  0  0  0  0  0  0
  142.2690   72.3170  220.9140 C   0  0  0  0  0  0  0  0  0  0  0  0
  141.8040   73.5420  220.6410 N   0  0  0  0  0  0  0  0  0  0  0  0
  140.8050   74.1130  221.3400 C   0  0  0  0  0  0  0  0  0  0  0  0
  140.3100   75.4130  221.0560 N   0  0  0  0  0  0  0  0  0  0  0  0
  139.2100   76.0240  221.7820 C   0  0  0  0  0  0  0  0  0  0  0  0
  139.8040   77.1710  222.5610 C   0  0  0  0  0  0  0  0  0  0  0  0
  140.7220   77.9390  221.7740 N   0  0  0  0  0  0  0  0  0  0  0  0
  141.2270   79.1510  222.3700 C   0  0  0  0  0  0  0  0  0  0  0  0
  142.2180   79.1330  223.3320 C   0  0  0  0  0  0  0  0  0  0  0  0
  142.7190   80.2800  223.9180 C   0  0  0  0  0  0  0  0  0  0  0  0
  142.1890   81.4950  223.5070 C   0  0  0  0  0  0  0  0  0  0  0  0
  141.1940   81.5130  222.5400 C   0  0  0  0  0  0  0  0  0  0  0  0
  140.7600   80.3640  222.0190 N   0  0  0  0  0  0  0  0  0  0  0  0
  141.1870   77.6210  220.4610 C   0  0  0  0  0  0  0  0  0  0  0  0
  140.8920   76.2370  219.9880 C   0  0  0  0  0  0  0  0  0  0  0  0
  140.2520   73.4290  222.3500 N   0  0  0  0  0  0  0  0  0  0  0  0
  140.6970   72.1760  222.6630 C   0  0  0  0  0  0  0  0  0  0  0  0
  140.1080   71.4350  223.7460 N   0  0  0  0  0  0  0  0  0  0  0  0
  138.9200   70.6570  223.4770 C   0  0  0  0  0  0  0  0  0  0  0  0
  139.2230   69.2230  223.9140 C   0  0  0  0  0  0  0  0  0  0  0  0
  139.6390   69.2580  225.3400 C   0  0  0  0  0  0  0  0  0  0  0  0
  139.3130   68.1920  226.1690 C   0  0  0  0  0  0  0  0  0  0  0  0
  139.6780   68.1770  227.5130 C   0  0  0  0  0  0  0  0  0  0  0  0
  140.3820   69.2610  228.0080 C   0  0  0  0  0  0  0  0  0  0  0  0
  140.6910   70.3000  227.1630 C   0  0  0  0  0  0  0  0  0  0  0  0
  140.3310   70.3230  225.8240 C   0  0  0  0  0  0  0  0  0  0  0  0
  140.7370   71.5130  225.0450 C   0  0  0  0  0  0  0  0  0  0  0  0
  141.7020   71.6520  221.9290 N   0  0  0  0  0  0  0  0  0  0  0  0
  143.7120   68.3960  219.5850 C   0  0  0  0  0  0  0  0  0  0  0  0
  144.6920   67.4090  219.6490 C   0  0  0  0  0  0  0  0  0  0  0  0
  146.7869   67.0138  219.4099 H   0  0  0  0  0  0  0  0  0  0  0  0
  147.3768   69.3330  218.8098 H   0  0  0  0  0  0  0  0  0  0  0  0
  145.6039   71.0905  218.7010 H   0  0  0  0  0  0  0  0  0  0  0  0
  142.9758   71.1661  218.1718 H   0  0  0  0  0  0  0  0  0  0  0  0
  142.0191   70.3023  219.4103 H   0  0  0  0  0  0  0  0  0  0  0  0
  144.2950   72.0940  220.2830 H   0  0  0  0  0  0  0  0  0  0  0  0
  138.4487   76.3941  221.0796 H   0  0  0  0  0  0  0  0  0  0  0  0
  138.7185   75.2996  222.4481 H   0  0  0  0  0  0  0  0  0  0  0  0
  138.9901   77.8291  222.8994 H   0  0  0  0  0  0  0  0  0  0  0  0
  140.3580   76.7506  223.4133 H   0  0  0  0  0  0  0  0  0  0  0  0
  142.6271   78.1614  223.6460 H   0  0  0  0  0  0  0  0  0  0  0  0
  143.5088   80.2317  224.6821 H   0  0  0  0  0  0  0  0  0  0  0  0
  142.5546   82.4359  223.9442 H   0  0  0  0  0  0  0  0  0  0  0  0
  140.7655   82.4691  222.2049 H   0  0  0  0  0  0  0  0  0  0  0  0
  140.7199   78.3255  219.7571 H   0  0  0  0  0  0  0  0  0  0  0  0
  142.2836   77.6957  220.5049 H   0  0  0  0  0  0  0  0  0  0  0  0
  140.1810   76.2900  219.1504 H   0  0  0  0  0  0  0  0  0  0  0  0
  141.8377   75.7726  219.6718 H   0  0  0  0  0  0  0  0  0  0  0  0
  138.0689   71.0553  224.0488 H   0  0  0  0  0  0  0  0  0  0  0  0
  138.6550   70.6970  222.4102 H   0  0  0  0  0  0  0  0  0  0  0  0
  138.3231   68.6003  223.8024 H   0  0  0  0  0  0  0  0  0  0  0  0
  140.0225   68.7939  223.2922 H   0  0  0  0  0  0  0  0  0  0  0  0
  138.7538   67.3403  225.7545 H   0  0  0  0  0  0  0  0  0  0  0  0
  139.4145   67.3287  228.1619 H   0  0  0  0  0  0  0  0  0  0  0  0
  140.6901   69.2906  229.0636 H   0  0  0  0  0  0  0  0  0  0  0  0
  141.2513   71.1552  227.5687 H   0  0  0  0  0  0  0  0  0  0  0  0
  140.4108   72.4269  225.5630 H   0  0  0  0  0  0  0  0  0  0  0  0
  141.8313   71.5431  224.9375 H   0  0  0  0  0  0  0  0  0  0  0  0
  142.6639   68.1435  219.8033 H   0  0  0  0  0  0  0  0  0  0  0  0
  144.4384   66.3724  219.9156 H   0  0  0  0  0  0  0  0  0  0  0  0
  1  2  2  0
  2  3  1  0
  3  4  2  0
  4  5  1  0
  5  6  1  0
  6  7  1  0
  7  8  2  0
  8  9  1  0
  9 10  1  0
 10 11  1  0
 11 12  1  0
 12 13  1  0
 13 14  1  0
 14 15  2  0
 15 16  1  0
 16 17  2  0
 17 18  1  0
 18 19  2  0
 13 20  1  0
 20 21  1  0
  9 22  2  0
 22 23  1  0
 23 24  1  0
 24 25  1  0
 25 26  1  0
 26 27  1  0
 27 28  2  0
 28 29  1  0
 29 30  2  0
 30 31  1  0
 31 32  2  0
 32 33  1  0
 23 34  2  0
  4 35  1  0
 35 36  2  0
 36  1  1  0
 34  7  1  0
 21 10  1  0
 33 24  1  0
 19 14  1  0
 32 27  1  0
  1 37  1  0
  2 38  1  0
  3 39  1  0
  5 40  1  0
  5 41  1  0
  6 42  1  0
 11 43  1  0
 11 44  1  0
 12 45  1  0
 12 46  1  0
 15 47  1  0
 16 48  1  0
 17 49  1  0
 18 50  1  0
 20 51  1  0
 20 52  1  0
 21 53  1  0
 21 54  1  0
 25 55  1  0
 25 56  1  0
 26 57  1  0
 26 58  1  0
 28 59  1  0
 29 60  1  0
 30 61  1  0
 31 62  1  0
 33 63  1  0
 33 64  1  0
 35 65  1  0
 36 66  1  0
M  END
>  <smiles>  (36) 
c1ccc(CNc2nc(N3CCN(c4ccccn4)CC3)nc(N3CCc4ccccc4C3)n2)cc1

>  <score_type>  (36) 
oracle

>  <origin>  (36) 
autodockgpu

>  <m_score__min__energy>  (36) 
-10.789999999999999

>  <m_primary>  (36) 
energy

>  <rmsd>  (36) 
8.125957542939991

>  <m_score__min__rmsd>  (36) 
8.125957542939991

>  <meeko>  (36) 
{"free_energy": -10.17, "intermolecular_energy": -11.96, "internal_energy": -1.08, "cluster_size": 49, "cluster_id": 1, "rank_in_cluster": 34}

>  <energy>  (36) 
-10.17

>  <cluster_rmsd>  (36) 
1.81

>  <cluster>  (36) 
1

$$$$

     RDKit          3D

 66 71  0  0  0  0  0  0  0  0999 V2000
  140.6460   71.1120  228.3220 C   0  0  0  0  0  0  0  0  0  0  0  0
  139.9620   70.0230  227.8100 C   0  0  0  0  0  0  0  0  0  0  0  0
  139.8430   69.8570  226.4410 C   0  0  0  0  0  0  0  0  0  0  0  0
  140.4260   70.8060  225.6220 C   0  0  0  0  0  0  0  0  0  0  0  0
  140.2980   70.6250  224.1550 C   0  0  0  0  0  0  0  0  0  0  0  0
  139.7530   71.8330  223.5960 N   0  0  0  0  0  0  0  0  0  0  0  0
  140.4320   72.4270  222.4890 C   0  0  0  0  0  0  0  0  0  0  0  0
  140.2240   73.7130  222.1770 N   0  0  0  0  0  0  0  0  0  0  0  0
  140.8390   74.3190  221.1440 C   0  0  0  0  0  0  0  0  0  0  0  0
  140.6200   75.6810  220.8080 N   0  0  0  0  0  0  0  0  0  0  0  0
  139.4330   76.4190  221.2020 C   0  0  0  0  0  0  0  0  0  0  0  0
  139.8910   77.4550  222.1980 C   0  0  0  0  0  0  0  0  0  0  0  0
  141.0950   78.1080  221.7810 N   0  0  0  0  0  0  0  0  0  0  0  0
  141.5340   79.2250  222.5810 C   0  0  0  0  0  0  0  0  0  0  0  0
  142.8720   79.4540  222.8420 C   0  0  0  0  0  0  0  0  0  0  0  0
  143.3180   80.5160  223.6050 C   0  0  0  0  0  0  0  0  0  0  0  0
  142.3630   81.3810  224.1230 C   0  0  0  0  0  0  0  0  0  0  0  0
  141.0200   81.1520  223.8600 C   0  0  0  0  0  0  0  0  0  0  0  0
  140.6640   80.1040  223.1140 N   0  0  0  0  0  0  0  0  0  0  0  0
  141.9030   77.7620  220.6550 C   0  0  0  0  0  0  0  0  0  0  0  0
  141.6020   76.4420  220.0250 C   0  0  0  0  0  0  0  0  0  0  0  0
  141.6950   73.6090  220.3970 N   0  0  0  0  0  0  0  0  0  0  0  0
  141.9360   72.2940  220.6800 C   0  0  0  0  0  0  0  0  0  0  0  0
  142.8530   71.5260  219.8840 N   0  0  0  0  0  0  0  0  0  0  0  0
  143.8860   72.2310  219.1580 C   0  0  0  0  0  0  0  0  0  0  0  0
  145.2210   71.6190  219.5820 C   0  0  0  0  0  0  0  0  0  0  0  0
  145.1580   70.1580  219.3210 C   0  0  0  0  0  0  0  0  0  0  0  0
  146.3130   69.4850  218.9400 C   0  0  0  0  0  0  0  0  0  0  0  0
  146.3060   68.1170  218.6810 C   0  0  0  0  0  0  0  0  0  0  0  0
  145.1090   67.4350  218.8160 C   0  0  0  0  0  0  0  0  0  0  0  0
  143.9840   68.1280  219.1930 C   0  0  0  0  0  0  0  0  0  0  0  0
  143.9810   69.4900  219.4530 C   0  0  0  0  0  0  0  0  0  0  0  0
  142.6900   70.0910  219.8510 C   0  0  0  0  0  0  0  0  0  0  0  0
  141.2910   71.7370  221.7280 N   0  0  0  0  0  0  0  0  0  0  0  0
  141.1060   71.8880  226.1250 C   0  0  0  0  0  0  0  0  0  0  0  0
  141.2280   72.0600  227.5010 C   0  0  0  0  0  0  0  0  0  0  0  0
  140.7288   71.2264  229.4129 H   0  0  0  0  0  0  0  0  0  0  0  0
  139.5118   69.2875  228.4929 H   0  0  0  0  0  0  0  0  0  0  0  0
  139.3019   68.9976  226.0183 H   0  0  0  0  0  0  0  0  0  0  0  0
  141.2873   70.4261  223.7172 H   0  0  0  0  0  0  0  0  0  0  0  0
  139.6368   69.7739  223.9347 H   0  0  0  0  0  0  0  0  0  0  0  0
  138.8990   72.2760  223.9660 H   0  0  0  0  0  0  0  0  0  0  0  0
  138.9793   76.9065  220.3265 H   0  0  0  0  0  0  0  0  0  0  0  0
  138.6739   75.7528  221.6379 H   0  0  0  0  0  0  0  0  0  0  0  0
  139.0996   78.2102  222.3134 H   0  0  0  0  0  0  0  0  0  0  0  0
  140.0958   76.9427  223.1496 H   0  0  0  0  0  0  0  0  0  0  0  0
  143.6151   78.7594  222.4233 H   0  0  0  0  0  0  0  0  0  0  0  0
  144.3903   80.6707  223.7952 H   0  0  0  0  0  0  0  0  0  0  0  0
  142.6689   82.2409  224.7370 H   0  0  0  0  0  0  0  0  0  0  0  0
  140.2535   81.8299  224.2638 H   0  0  0  0  0  0  0  0  0  0  0  0
  141.7681   78.5406  219.8898 H   0  0  0  0  0  0  0  0  0  0  0  0
  142.9322   77.6855  221.0358 H   0  0  0  0  0  0  0  0  0  0  0  0
  141.1995   76.6117  219.0155 H   0  0  0  0  0  0  0  0  0  0  0  0
  142.5345   75.8599  219.9832 H   0  0  0  0  0  0  0  0  0  0  0  0
  143.7396   72.1067  218.0749 H   0  0  0  0  0  0  0  0  0  0  0  0
  143.8581   73.3082  219.3789 H   0  0  0  0  0  0  0  0  0  0  0  0
  146.0393   72.0676  218.9997 H   0  0  0  0  0  0  0  0  0  0  0  0
  145.4076   71.8095  220.6492 H   0  0  0  0  0  0  0  0  0  0  0  0
  147.2540   70.0460  218.8409 H   0  0  0  0  0  0  0  0  0  0  0  0
  147.2248   67.5935  218.3780 H   0  0  0  0  0  0  0  0  0  0  0  0
  145.0591   66.3530  218.6241 H   0  0  0  0  0  0  0  0  0  0  0  0
  143.0386   67.5747  219.2935 H   0  0  0  0  0  0  0  0  0  0  0  0
  141.9125   69.8210  219.1212 H   0  0  0  0  0  0  0  0  0  0  0  0
  142.3863   69.7196  220.8408 H   0  0  0  0  0  0  0  0  0  0  0  0
  141.5555   72.6207  225.4387 H   0  0  0  0  0  0  0  0  0  0  0  0
  141.7690   72.9208  227.9208 H   0  0  0  0  0  0  0  0  0  0  0  0
  1  2  2  0
  2  3  1  0
  3  4  2  0
  4  5  1  0
  5  6  1  0
  6  7  1  0
  7  8  2  0
  8  9  1  0
  9 10  1  0
 10 11  1  0
 11 12  1  0
 12 13  1  0
 13 14  1  0
 14 15  2  0
 15 16  1  0
 16 17  2  0
 17 18  1  0
 18 19  2  0
 13 20  1  0
 20 21  1  0
  9 22  2  0
 22 23  1  0
 23 24  1  0
 24 25  1  0
 25 26  1  0
 26 27  1  0
 27 28  2  0
 28 29  1  0
 29 30  2  0
 30 31  1  0
 31 32  2  0
 32 33  1  0
 23 34  2  0
  4 35  1  0
 35 36  2  0
 36  1  1  0
 34  7  1  0
 21 10  1  0
 33 24  1  0
 19 14  1  0
 32 27  1  0
  1 37  1  0
  2 38  1  0
  3 39  1  0
  5 40  1  0
  5 41  1  0
  6 42  1  0
 11 43  1  0
 11 44  1  0
 12 45  1  0
 12 46  1  0
 15 47  1  0
 16 48  1  0
 17 49  1  0
 18 50  1  0
 20 51  1  0
 20 52  1  0
 21 53  1  0
 21 54  1  0
 25 55  1  0
 25 56  1  0
 26 57  1  0
 26 58  1  0
 28 59  1  0
 29 60  1  0
 30 61  1  0
 31 62  1  0
 33 63  1  0
 33 64  1  0
 35 65  1  0
 36 66  1  0
M  END
>  <smiles>  (37) 
c1ccc(CNc2nc(N3CCN(c4ccccn4)CC3)nc(N3CCc4ccccc4C3)n2)cc1

>  <score_type>  (37) 
oracle

>  <origin>  (37) 
autodockgpu

>  <m_score__min__energy>  (37) 
-10.789999999999999

>  <m_primary>  (37) 
energy

>  <rmsd>  (37) 
8.205274253688208

>  <m_score__min__rmsd>  (37) 
8.205274253688208

>  <meeko>  (37) 
{"free_energy": -10.79, "intermolecular_energy": -12.58, "internal_energy": -1.11, "cluster_size": 49, "cluster_id": 1, "rank_in_cluster": 1}

>  <energy>  (37) 
-10.08

>  <cluster_rmsd>  (37) 
1.35

>  <cluster>  (37) 
1

$$$$

     RDKit          3D

 66 71  0  0  0  0  0  0  0  0999 V2000
  140.5170   70.8790  227.9480 C   0  0  0  0  0  0  0  0  0  0  0  0
  139.8440   69.8630  227.2930 C   0  0  0  0  0  0  0  0  0  0  0  0
  139.7770   69.8510  225.9110 C   0  0  0  0  0  0  0  0  0  0  0  0
  140.4010   70.8770  225.2240 C   0  0  0  0  0  0  0  0  0  0  0  0
  140.3290   70.8600  223.7430 C   0  0  0  0  0  0  0  0  0  0  0  0
  139.6690   72.0630  223.3090 N   0  0  0  0  0  0  0  0  0  0  0  0
  140.3320   72.8820  222.3460 C   0  0  0  0  0  0  0  0  0  0  0  0
  141.1130   72.3300  221.4080 N   0  0  0  0  0  0  0  0  0  0  0  0
  141.7580   73.0580  220.4770 C   0  0  0  0  0  0  0  0  0  0  0  0
  142.5890   72.4780  219.4830 N   0  0  0  0  0  0  0  0  0  0  0  0
  144.0330   72.6310  219.4610 C   0  0  0  0  0  0  0  0  0  0  0  0
  144.6070   71.2680  219.7550 C   0  0  0  0  0  0  0  0  0  0  0  0
  143.9360   70.2320  219.0280 N   0  0  0  0  0  0  0  0  0  0  0  0
  144.5050   68.9100  219.1130 C   0  0  0  0  0  0  0  0  0  0  0  0
  143.8280   67.7930  218.6620 C   0  0  0  0  0  0  0  0  0  0  0  0
  144.3520   66.5170  218.7320 C   0  0  0  0  0  0  0  0  0  0  0  0
  145.6170   66.3700  219.2850 C   0  0  0  0  0  0  0  0  0  0  0  0
  146.2970   67.4920  219.7370 C   0  0  0  0  0  0  0  0  0  0  0  0
  145.7270   68.6940  219.6370 N   0  0  0  0  0  0  0  0  0  0  0  0
  142.7590   70.3790  218.2320 C   0  0  0  0  0  0  0  0  0  0  0  0
  142.0260   71.6690  218.3940 C   0  0  0  0  0  0  0  0  0  0  0  0
  141.6150   74.3900  220.4880 N   0  0  0  0  0  0  0  0  0  0  0  0
  140.8280   74.9950  221.4270 C   0  0  0  0  0  0  0  0  0  0  0  0
  140.6700   76.4230  221.4450 N   0  0  0  0  0  0  0  0  0  0  0  0
  140.0830   77.0330  222.6170 C   0  0  0  0  0  0  0  0  0  0  0  0
  141.0750   78.0860  223.1100 C   0  0  0  0  0  0  0  0  0  0  0  0
  141.3460   79.0220  221.9880 C   0  0  0  0  0  0  0  0  0  0  0  0
  141.5920   80.3610  222.2630 C   0  0  0  0  0  0  0  0  0  0  0  0
  141.8490   81.2780  221.2460 C   0  0  0  0  0  0  0  0  0  0  0  0
  141.8540   80.8170  219.9410 C   0  0  0  0  0  0  0  0  0  0  0  0
  141.6060   79.4870  219.7000 C   0  0  0  0  0  0  0  0  0  0  0  0
  141.3500   78.5670  220.7060 C   0  0  0  0  0  0  0  0  0  0  0  0
  141.1030   77.1710  220.2860 C   0  0  0  0  0  0  0  0  0  0  0  0
  140.2050   74.2150  222.3370 N   0  0  0  0  0  0  0  0  0  0  0  0
  141.0710   71.8870  225.8700 C   0  0  0  0  0  0  0  0  0  0  0  0
  141.1410   71.9030  227.2600 C   0  0  0  0  0  0  0  0  0  0  0  0
  140.5567   70.8718  229.0473 H   0  0  0  0  0  0  0  0  0  0  0  0
  139.3608   69.0625  227.8725 H   0  0  0  0  0  0  0  0  0  0  0  0
  139.2445   69.0511  225.3756 H   0  0  0  0  0  0  0  0  0  0  0  0
  141.3443   70.8200  223.3216 H   0  0  0  0  0  0  0  0  0  0  0  0
  139.7702   69.9765  223.4008 H   0  0  0  0  0  0  0  0  0  0  0  0
  138.7460   72.3470  223.6680 H   0  0  0  0  0  0  0  0  0  0  0  0
  144.3643   72.9785  218.4713 H   0  0  0  0  0  0  0  0  0  0  0  0
  144.3679   73.3739  220.1999 H   0  0  0  0  0  0  0  0  0  0  0  0
  145.6713   71.2640  219.4771 H   0  0  0  0  0  0  0  0  0  0  0  0
  144.4738   71.0690  220.8286 H   0  0  0  0  0  0  0  0  0  0  0  0
  142.8263   67.9261  218.2275 H   0  0  0  0  0  0  0  0  0  0  0  0
  143.7873   65.6482  218.3628 H   0  0  0  0  0  0  0  0  0  0  0  0
  146.0759   65.3734  219.3641 H   0  0  0  0  0  0  0  0  0  0  0  0
  147.3007   67.3908  220.1755 H   0  0  0  0  0  0  0  0  0  0  0  0
  143.0515   70.2867  217.1756 H   0  0  0  0  0  0  0  0  0  0  0  0
  142.0664   69.5953  218.5727 H   0  0  0  0  0  0  0  0  0  0  0  0
  142.0932   72.2381  217.4551 H   0  0  0  0  0  0  0  0  0  0  0  0
  140.9787   71.4408  218.6411 H   0  0  0  0  0  0  0  0  0  0  0  0
  139.1250   77.5072  222.3576 H   0  0  0  0  0  0  0  0  0  0  0  0
  139.8849   76.2819  223.3958 H   0  0  0  0  0  0  0  0  0  0  0  0
  140.6440   78.6362  223.9594 H   0  0  0  0  0  0  0  0  0  0  0  0
  142.0078   77.6067  223.4418 H   0  0  0  0  0  0  0  0  0  0  0  0
  141.5837   80.7054  223.3077 H   0  0  0  0  0  0  0  0  0  0  0  0
  142.0422   82.3367  221.4735 H   0  0  0  0  0  0  0  0  0  0  0  0
  142.0539   81.5064  219.1074 H   0  0  0  0  0  0  0  0  0  0  0  0
  141.6107   79.1346  218.6580 H   0  0  0  0  0  0  0  0  0  0  0  0
  140.3206   77.1471  219.5132 H   0  0  0  0  0  0  0  0  0  0  0  0
  142.0207   76.7304  219.8692 H   0  0  0  0  0  0  0  0  0  0  0  0
  141.5536   72.6855  225.2873 H   0  0  0  0  0  0  0  0  0  0  0  0
  141.6749   72.7035  227.7932 H   0  0  0  0  0  0  0  0  0  0  0  0
  1  2  2  0
  2  3  1  0
  3  4  2  0
  4  5  1  0
  5  6  1  0
  6  7  1  0
  7  8  2  0
  8  9  1  0
  9 10  1  0
 10 11  1  0
 11 12  1  0
 12 13  1  0
 13 14  1  0
 14 15  2  0
 15 16  1  0
 16 17  2  0
 17 18  1  0
 18 19  2  0
 13 20  1  0
 20 21  1  0
  9 22  2  0
 22 23  1  0
 23 24  1  0
 24 25  1  0
 25 26  1  0
 26 27  1  0
 27 28  2  0
 28 29  1  0
 29 30  2  0
 30 31  1  0
 31 32  2  0
 32 33  1  0
 23 34  2  0
  4 35  1  0
 35 36  2  0
 36  1  1  0
 34  7  1  0
 21 10  1  0
 33 24  1  0
 19 14  1  0
 32 27  1  0
  1 37  1  0
  2 38  1  0
  3 39  1  0
  5 40  1  0
  5 41  1  0
  6 42  1  0
 11 43  1  0
 11 44  1  0
 12 45  1  0
 12 46  1  0
 15 47  1  0
 16 48  1  0
 17 49  1  0
 18 50  1  0
 20 51  1  0
 20 52  1  0
 21 53  1  0
 21 54  1  0
 25 55  1  0
 25 56  1  0
 26 57  1  0
 26 58  1  0
 28 59  1  0
 29 60  1  0
 30 61  1  0
 31 62  1  0
 33 63  1  0
 33 64  1  0
 35 65  1  0
 36 66  1  0
M  END
>  <smiles>  (38) 
c1ccc(CNc2nc(N3CCN(c4ccccn4)CC3)nc(N3CCc4ccccc4C3)n2)cc1

>  <score_type>  (38) 
oracle

>  <origin>  (38) 
autodockgpu

>  <m_score__min__energy>  (38) 
-10.789999999999999

>  <m_primary>  (38) 
energy

>  <rmsd>  (38) 
6.830156980232354

>  <m_score__min__rmsd>  (38) 
6.830156980232354

>  <meeko>  (38) 
{"free_energy": -10.5, "intermolecular_energy": -12.29, "internal_energy": -1.11, "cluster_size": 49, "cluster_id": 1, "rank_in_cluster": 21}

>  <energy>  (38) 
-10.08

>  <cluster_rmsd>  (38) 
1.84

>  <cluster>  (38) 
1

$$$$

     RDKit          3D

 66 71  0  0  0  0  0  0  0  0999 V2000
  144.6520   74.5900  220.3350 C   0  0  0  0  0  0  0  0  0  0  0  0
  143.9360   74.3900  219.1680 C   0  0  0  0  0  0  0  0  0  0  0  0
  143.4530   73.1310  218.8550 C   0  0  0  0  0  0  0  0  0  0  0  0
  143.7110   72.1010  219.7410 C   0  0  0  0  0  0  0  0  0  0  0  0
  143.1910   70.7530  219.4030 C   0  0  0  0  0  0  0  0  0  0  0  0
  141.7540   70.8010  219.4430 N   0  0  0  0  0  0  0  0  0  0  0  0
  141.1360   71.6250  220.4320 C   0  0  0  0  0  0  0  0  0  0  0  0
  140.8600   72.9090  220.1700 N   0  0  0  0  0  0  0  0  0  0  0  0
  140.2790   73.7270  221.0670 C   0  0  0  0  0  0  0  0  0  0  0  0
  139.9870   75.0890  220.7940 N   0  0  0  0  0  0  0  0  0  0  0  0
  138.9630   75.8420  221.4990 C   0  0  0  0  0  0  0  0  0  0  0  0
  139.6910   76.8780  222.3180 C   0  0  0  0  0  0  0  0  0  0  0  0
  140.7360   77.5160  221.5750 N   0  0  0  0  0  0  0  0  0  0  0  0
  141.3920   78.6330  222.2110 C   0  0  0  0  0  0  0  0  0  0  0  0
  141.5810   78.6860  223.5780 C   0  0  0  0  0  0  0  0  0  0  0  0
  142.2050   79.7440  224.2110 C   0  0  0  0  0  0  0  0  0  0  0  0
  142.6550   80.7910  223.4180 C   0  0  0  0  0  0  0  0  0  0  0  0
  142.4660   80.7370  222.0450 C   0  0  0  0  0  0  0  0  0  0  0  0
  141.8540   79.6820  221.5040 N   0  0  0  0  0  0  0  0  0  0  0  0
  141.1940   77.1550  220.2710 C   0  0  0  0  0  0  0  0  0  0  0  0
  140.7170   75.8350  219.7620 C   0  0  0  0  0  0  0  0  0  0  0  0
  139.9620   73.2380  222.2740 N   0  0  0  0  0  0  0  0  0  0  0  0
  140.2260   71.9340  222.5840 C   0  0  0  0  0  0  0  0  0  0  0  0
  139.8880   71.4020  223.8760 N   0  0  0  0  0  0  0  0  0  0  0  0
  138.7690   70.4920  223.9710 C   0  0  0  0  0  0  0  0  0  0  0  0
  139.2910   69.2160  224.6310 C   0  0  0  0  0  0  0  0  0  0  0  0
  139.9040   69.5920  225.9320 C   0  0  0  0  0  0  0  0  0  0  0  0
  139.8240   68.7090  227.0020 C   0  0  0  0  0  0  0  0  0  0  0  0
  140.3800   69.0160  228.2410 C   0  0  0  0  0  0  0  0  0  0  0  0
  141.0230   70.2330  228.3830 C   0  0  0  0  0  0  0  0  0  0  0  0
  141.0860   71.0850  227.3070 C   0  0  0  0  0  0  0  0  0  0  0  0
  140.5350   70.7890  226.0690 C   0  0  0  0  0  0  0  0  0  0  0  0
  140.6870   71.8090  225.0090 C   0  0  0  0  0  0  0  0  0  0  0  0
  140.8110   71.1590  221.6450 N   0  0  0  0  0  0  0  0  0  0  0  0
  144.4210   72.2940  220.9000 C   0  0  0  0  0  0  0  0  0  0  0  0
  144.9090   73.5580  221.2190 C   0  0  0  0  0  0  0  0  0  0  0  0
  145.0272   75.5979  220.5661 H   0  0  0  0  0  0  0  0  0  0  0  0
  143.7501   75.2337  218.4871 H   0  0  0  0  0  0  0  0  0  0  0  0
  142.8823   72.9555  217.9312 H   0  0  0  0  0  0  0  0  0  0  0  0
  143.5258   70.4670  218.3950 H   0  0  0  0  0  0  0  0  0  0  0  0
  143.5659   70.0104  220.1227 H   0  0  0  0  0  0  0  0  0  0  0  0
  141.1650   70.2670  218.7880 H   0  0  0  0  0  0  0  0  0  0  0  0
  138.2865   76.3296  220.7816 H   0  0  0  0  0  0  0  0  0  0  0  0
  138.3502   75.1865  222.1352 H   0  0  0  0  0  0  0  0  0  0  0  0
  138.9705   77.6424  222.6444 H   0  0  0  0  0  0  0  0  0  0  0  0
  140.1498   76.3684  223.1781 H   0  0  0  0  0  0  0  0  0  0  0  0
  141.2182   77.8477  224.1909 H   0  0  0  0  0  0  0  0  0  0  0  0
  142.3402   79.7562  225.3026 H   0  0  0  0  0  0  0  0  0  0  0  0
  143.1574   81.6564  223.8749 H   0  0  0  0  0  0  0  0  0  0  0  0
  142.8188   81.5596  221.4055 H   0  0  0  0  0  0  0  0  0  0  0  0
  140.8575   77.9307  219.5674 H   0  0  0  0  0  0  0  0  0  0  0  0
  142.2879   77.0697  220.3493 H   0  0  0  0  0  0  0  0  0  0  0  0
  140.0495   76.0034  218.9040 H   0  0  0  0  0  0  0  0  0  0  0  0
  141.5955   75.2427  219.4663 H   0  0  0  0  0  0  0  0  0  0  0  0
  137.9710   70.9361  224.5841 H   0  0  0  0  0  0  0  0  0  0  0  0
  138.3490   70.2784  222.9770 H   0  0  0  0  0  0  0  0  0  0  0  0
  138.4600   68.5149  224.7982 H   0  0  0  0  0  0  0  0  0  0  0  0
  140.0344   68.7269  223.9844 H   0  0  0  0  0  0  0  0  0  0  0  0
  139.3099   67.7459  226.8671 H   0  0  0  0  0  0  0  0  0  0  0  0
  140.3101   68.3114  229.0828 H   0  0  0  0  0  0  0  0  0  0  0  0
  141.4775   70.5145  229.3443 H   0  0  0  0  0  0  0  0  0  0  0  0
  141.5989   72.0498  227.4336 H   0  0  0  0  0  0  0  0  0  0  0  0
  140.3399   72.7852  225.3785 H   0  0  0  0  0  0  0  0  0  0  0  0
  141.7436   71.9003  224.7169 H   0  0  0  0  0  0  0  0  0  0  0  0
  144.6047   71.4477  221.5782 H   0  0  0  0  0  0  0  0  0  0  0  0
  145.4800   73.7302  222.1433 H   0  0  0  0  0  0  0  0  0  0  0  0
  1  2  2  0
  2  3  1  0
  3  4  2  0
  4  5  1  0
  5  6  1  0
  6  7  1  0
  7  8  2  0
  8  9  1  0
  9 10  1  0
 10 11  1  0
 11 12  1  0
 12 13  1  0
 13 14  1  0
 14 15  2  0
 15 16  1  0
 16 17  2  0
 17 18  1  0
 18 19  2  0
 13 20  1  0
 20 21  1  0
  9 22  2  0
 22 23  1  0
 23 24  1  0
 24 25  1  0
 25 26  1  0
 26 27  1  0
 27 28  2  0
 28 29  1  0
 29 30  2  0
 30 31  1  0
 31 32  2  0
 32 33  1  0
 23 34  2  0
  4 35  1  0
 35 36  2  0
 36  1  1  0
 34  7  1  0
 21 10  1  0
 33 24  1  0
 19 14  1  0
 32 27  1  0
  1 37  1  0
  2 38  1  0
  3 39  1  0
  5 40  1  0
  5 41  1  0
  6 42  1  0
 11 43  1  0
 11 44  1  0
 12 45  1  0
 12 46  1  0
 15 47  1  0
 16 48  1  0
 17 49  1  0
 18 50  1  0
 20 51  1  0
 20 52  1  0
 21 53  1  0
 21 54  1  0
 25 55  1  0
 25 56  1  0
 26 57  1  0
 26 58  1  0
 28 59  1  0
 29 60  1  0
 30 61  1  0
 31 62  1  0
 33 63  1  0
 33 64  1  0
 35 65  1  0
 36 66  1  0
M  END
>  <smiles>  (39) 
c1ccc(CNc2nc(N3CCN(c4ccccn4)CC3)nc(N3CCc4ccccc4C3)n2)cc1

>  <score_type>  (39) 
oracle

>  <origin>  (39) 
autodockgpu

>  <m_score__min__energy>  (39) 
-10.789999999999999

>  <m_primary>  (39) 
energy

>  <rmsd>  (39) 
7.745382523356786

>  <m_score__min__rmsd>  (39) 
7.745382523356786

>  <meeko>  (39) 
{"free_energy": -9.84, "intermolecular_energy": -11.63, "internal_energy": -1.76, "cluster_size": 49, "cluster_id": 1, "rank_in_cluster": 47}

>  <energy>  (39) 
-10.07

>  <cluster_rmsd>  (39) 
1.79

>  <cluster>  (39) 
1

$$$$

     RDKit          3D

 66 71  0  0  0  0  0  0  0  0999 V2000
  145.8510   74.1330  221.0270 C   0  0  0  0  0  0  0  0  0  0  0  0
  146.0310   72.7740  220.8420 C   0  0  0  0  0  0  0  0  0  0  0  0
  145.1270   72.0480  220.0880 C   0  0  0  0  0  0  0  0  0  0  0  0
  144.0550   72.7250  219.5360 C   0  0  0  0  0  0  0  0  0  0  0  0
  143.0870   71.9440  218.7270 C   0  0  0  0  0  0  0  0  0  0  0  0
  142.2300   71.2180  219.6250 N   0  0  0  0  0  0  0  0  0  0  0  0
  141.4800   71.9620  220.5870 C   0  0  0  0  0  0  0  0  0  0  0  0
  141.1360   73.2330  220.3420 N   0  0  0  0  0  0  0  0  0  0  0  0
  140.4300   73.9760  221.2150 C   0  0  0  0  0  0  0  0  0  0  0  0
  140.0650   75.3240  220.9610 N   0  0  0  0  0  0  0  0  0  0  0  0
  138.9610   75.9910  221.6300 C   0  0  0  0  0  0  0  0  0  0  0  0
  139.5790   77.0480  222.5110 C   0  0  0  0  0  0  0  0  0  0  0  0
  140.6170   77.7710  221.8400 N   0  0  0  0  0  0  0  0  0  0  0  0
  141.1670   78.9080  222.5370 C   0  0  0  0  0  0  0  0  0  0  0  0
  142.5290   79.1220  222.6240 C   0  0  0  0  0  0  0  0  0  0  0  0
  143.0800   80.2030  223.2850 C   0  0  0  0  0  0  0  0  0  0  0  0
  142.2080   81.1030  223.8820 C   0  0  0  0  0  0  0  0  0  0  0  0
  140.8400   80.8890  223.7930 C   0  0  0  0  0  0  0  0  0  0  0  0
  140.3810   79.8220  223.1380 N   0  0  0  0  0  0  0  0  0  0  0  0
  141.1620   77.4760  220.5530 C   0  0  0  0  0  0  0  0  0  0  0  0
  140.7970   76.1440  219.9870 C   0  0  0  0  0  0  0  0  0  0  0  0
  140.0550   73.4230  222.3760 N   0  0  0  0  0  0  0  0  0  0  0  0
  140.3840   72.1290  222.6660 C   0  0  0  0  0  0  0  0  0  0  0  0
  139.9850   71.5300  223.9090 N   0  0  0  0  0  0  0  0  0  0  0  0
  138.8160   70.6790  223.9150 C   0  0  0  0  0  0  0  0  0  0  0  0
  139.2510   69.3340  224.4960 C   0  0  0  0  0  0  0  0  0  0  0  0
  139.8490   69.5850  225.8330 C   0  0  0  0  0  0  0  0  0  0  0  0
  139.6930   68.6360  226.8370 C   0  0  0  0  0  0  0  0  0  0  0  0
  140.2320   68.8250  228.1070 C   0  0  0  0  0  0  0  0  0  0  0  0
  140.9350   69.9930  228.3480 C   0  0  0  0  0  0  0  0  0  0  0  0
  141.0730   70.9120  227.3360 C   0  0  0  0  0  0  0  0  0  0  0  0
  140.5400   70.7320  226.0680 C   0  0  0  0  0  0  0  0  0  0  0  0
  140.7740   71.8130  225.0870 C   0  0  0  0  0  0  0  0  0  0  0  0
  141.0950   71.4300  221.7540 N   0  0  0  0  0  0  0  0  0  0  0  0
  143.8710   74.0740  219.7160 C   0  0  0  0  0  0  0  0  0  0  0  0
  144.7790   74.8090  220.4730 C   0  0  0  0  0  0  0  0  0  0  0  0
  146.5807   74.6916  221.6315 H   0  0  0  0  0  0  0  0  0  0  0  0
  146.8962   72.2689  221.2962 H   0  0  0  0  0  0  0  0  0  0  0  0
  145.2566   70.9668  219.9324 H   0  0  0  0  0  0  0  0  0  0  0  0
  142.4850   72.6251  218.1076 H   0  0  0  0  0  0  0  0  0  0  0  0
  143.6217   71.2459  218.0661 H   0  0  0  0  0  0  0  0  0  0  0  0
  142.1410   70.1910  219.5960 H   0  0  0  0  0  0  0  0  0  0  0  0
  138.2914   76.4547  220.8907 H   0  0  0  0  0  0  0  0  0  0  0  0
  138.3605   75.2808  222.2174 H   0  0  0  0  0  0  0  0  0  0  0  0
  138.7952   77.7562  222.8180 H   0  0  0  0  0  0  0  0  0  0  0  0
  140.0257   76.5443  223.3809 H   0  0  0  0  0  0  0  0  0  0  0  0
  143.2057   78.3989  222.1452 H   0  0  0  0  0  0  0  0  0  0  0  0
  144.1696   80.3452  223.3363 H   0  0  0  0  0  0  0  0  0  0  0  0
  142.5983   81.9787  224.4213 H   0  0  0  0  0  0  0  0  0  0  0  0
  140.1381   81.5955  224.2601 H   0  0  0  0  0  0  0  0  0  0  0  0
  140.8123   78.2486  219.8524 H   0  0  0  0  0  0  0  0  0  0  0  0
  142.2537   77.4570  220.6861 H   0  0  0  0  0  0  0  0  0  0  0  0
  140.1641   76.2945  219.1000 H   0  0  0  0  0  0  0  0  0  0  0  0
  141.7255   75.6167  219.7227 H   0  0  0  0  0  0  0  0  0  0  0  0
  138.0272   71.1238  224.5394 H   0  0  0  0  0  0  0  0  0  0  0  0
  138.4113   70.5576  222.8994 H   0  0  0  0  0  0  0  0  0  0  0  0
  138.3793   68.6704  224.5952 H   0  0  0  0  0  0  0  0  0  0  0  0
  139.9838   68.8499  223.8337 H   0  0  0  0  0  0  0  0  0  0  0  0
  139.1310   67.7149  226.6233 H   0  0  0  0  0  0  0  0  0  0  0  0
  140.1030   68.0687  228.8953 H   0  0  0  0  0  0  0  0  0  0  0  0
  141.3774   70.1829  229.3370 H   0  0  0  0  0  0  0  0  0  0  0  0
  141.6337   71.8358  227.5413 H   0  0  0  0  0  0  0  0  0  0  0  0
  140.4691   72.7786  225.5167 H   0  0  0  0  0  0  0  0  0  0  0  0
  141.8414   71.8664  224.8266 H   0  0  0  0  0  0  0  0  0  0  0  0
  143.0039   74.5750  219.2608 H   0  0  0  0  0  0  0  0  0  0  0  0
  144.6484   75.8905  220.6254 H   0  0  0  0  0  0  0  0  0  0  0  0
  1  2  2  0
  2  3  1  0
  3  4  2  0
  4  5  1  0
  5  6  1  0
  6  7  1  0
  7  8  2  0
  8  9  1  0
  9 10  1  0
 10 11  1  0
 11 12  1  0
 12 13  1  0
 13 14  1  0
 14 15  2  0
 15 16  1  0
 16 17  2  0
 17 18  1  0
 18 19  2  0
 13 20  1  0
 20 21  1  0
  9 22  2  0
 22 23  1  0
 23 24  1  0
 24 25  1  0
 25 26  1  0
 26 27  1  0
 27 28  2  0
 28 29  1  0
 29 30  2  0
 30 31  1  0
 31 32  2  0
 32 33  1  0
 23 34  2  0
  4 35  1  0
 35 36  2  0
 36  1  1  0
 34  7  1  0
 21 10  1  0
 33 24  1  0
 19 14  1  0
 32 27  1  0
  1 37  1  0
  2 38  1  0
  3 39  1  0
  5 40  1  0
  5 41  1  0
  6 42  1  0
 11 43  1  0
 11 44  1  0
 12 45  1  0
 12 46  1  0
 15 47  1  0
 16 48  1  0
 17 49  1  0
 18 50  1  0
 20 51  1  0
 20 52  1  0
 21 53  1  0
 21 54  1  0
 25 55  1  0
 25 56  1  0
 26 57  1  0
 26 58  1  0
 28 59  1  0
 29 60  1  0
 30 61  1  0
 31 62  1  0
 33 63  1  0
 33 64  1  0
 35 65  1  0
 36 66  1  0
M  END
>  <smiles>  (40) 
c1ccc(CNc2nc(N3CCN(c4ccccn4)CC3)nc(N3CCc4ccccc4C3)n2)cc1

>  <score_type>  (40) 
oracle

>  <origin>  (40) 
autodockgpu

>  <m_score__min__energy>  (40) 
-10.789999999999999

>  <m_primary>  (40) 
energy

>  <rmsd>  (40) 
7.970981090737684

>  <m_score__min__rmsd>  (40) 
7.970981090737684

>  <meeko>  (40) 
{"free_energy": -10.62, "intermolecular_energy": -12.41, "internal_energy": -1.55, "cluster_size": 49, "cluster_id": 1, "rank_in_cluster": 14}

>  <energy>  (40) 
-10.07

>  <cluster_rmsd>  (40) 
1.69

>  <cluster>  (40) 
1

$$$$

     RDKit          3D

 66 71  0  0  0  0  0  0  0  0999 V2000
  141.9530   80.2600  223.8180 C   0  0  0  0  0  0  0  0  0  0  0  0
  141.7120   80.6770  222.5210 C   0  0  0  0  0  0  0  0  0  0  0  0
  141.3390   79.7610  221.5530 C   0  0  0  0  0  0  0  0  0  0  0  0
  141.2190   78.4360  221.9300 C   0  0  0  0  0  0  0  0  0  0  0  0
  140.8180   77.4560  220.8900 C   0  0  0  0  0  0  0  0  0  0  0  0
  140.0190   76.4370  221.5150 N   0  0  0  0  0  0  0  0  0  0  0  0
  140.5140   75.0970  221.5100 C   0  0  0  0  0  0  0  0  0  0  0  0
  141.4810   74.7350  220.6580 N   0  0  0  0  0  0  0  0  0  0  0  0
  141.9820   73.4860  220.6140 C   0  0  0  0  0  0  0  0  0  0  0  0
  143.0060   73.0970  219.7100 N   0  0  0  0  0  0  0  0  0  0  0  0
  144.4220   73.1950  220.0190 C   0  0  0  0  0  0  0  0  0  0  0  0
  144.9300   71.7790  220.1250 C   0  0  0  0  0  0  0  0  0  0  0  0
  144.4320   70.9470  219.0710 N   0  0  0  0  0  0  0  0  0  0  0  0
  144.9790   69.6150  218.9850 C   0  0  0  0  0  0  0  0  0  0  0  0
  145.4110   69.0800  217.7870 C   0  0  0  0  0  0  0  0  0  0  0  0
  145.9380   67.8070  217.6780 C   0  0  0  0  0  0  0  0  0  0  0  0
  146.0310   67.0500  218.8380 C   0  0  0  0  0  0  0  0  0  0  0  0
  145.5990   67.5880  220.0410 C   0  0  0  0  0  0  0  0  0  0  0  0
  145.0990   68.8250  220.0690 N   0  0  0  0  0  0  0  0  0  0  0  0
  143.4470   71.3050  218.1000 C   0  0  0  0  0  0  0  0  0  0  0  0
  142.6880   72.5590  218.3810 C   0  0  0  0  0  0  0  0  0  0  0  0
  141.4950   72.5670  221.4580 N   0  0  0  0  0  0  0  0  0  0  0  0
  140.5080   72.8930  222.3440 C   0  0  0  0  0  0  0  0  0  0  0  0
  139.9810   71.9130  223.2530 N   0  0  0  0  0  0  0  0  0  0  0  0
  138.7910   71.1890  222.8640 C   0  0  0  0  0  0  0  0  0  0  0  0
  139.1320   69.7010  222.9480 C   0  0  0  0  0  0  0  0  0  0  0  0
  139.6140   69.4190  224.3240 C   0  0  0  0  0  0  0  0  0  0  0  0
  139.3410   68.1840  224.9010 C   0  0  0  0  0  0  0  0  0  0  0  0
  139.7690   67.8720  226.1890 C   0  0  0  0  0  0  0  0  0  0  0  0
  140.4830   68.8300  226.8870 C   0  0  0  0  0  0  0  0  0  0  0  0
  140.7380   70.0410  226.2910 C   0  0  0  0  0  0  0  0  0  0  0  0
  140.3150   70.3610  225.0090 C   0  0  0  0  0  0  0  0  0  0  0  0
  140.6690   71.7060  224.5070 C   0  0  0  0  0  0  0  0  0  0  0  0
  140.0420   74.1620  222.3440 N   0  0  0  0  0  0  0  0  0  0  0  0
  141.4580   78.0160  223.2150 C   0  0  0  0  0  0  0  0  0  0  0  0
  141.8330   78.9340  224.1920 C   0  0  0  0  0  0  0  0  0  0  0  0
  142.2483   81.0038  224.5727 H   0  0  0  0  0  0  0  0  0  0  0  0
  141.8172   81.7400  222.2584 H   0  0  0  0  0  0  0  0  0  0  0  0
  141.1443   80.0767  220.5174 H   0  0  0  0  0  0  0  0  0  0  0  0
  140.2316   77.9616  220.1087 H   0  0  0  0  0  0  0  0  0  0  0  0
  141.7096   77.0081  220.4270 H   0  0  0  0  0  0  0  0  0  0  0  0
  139.1120   76.6410  221.9610 H   0  0  0  0  0  0  0  0  0  0  0  0
  144.9509   73.7305  219.2168 H   0  0  0  0  0  0  0  0  0  0  0  0
  144.5903   73.7516  220.9528 H   0  0  0  0  0  0  0  0  0  0  0  0
  146.0289   71.7920  220.0773 H   0  0  0  0  0  0  0  0  0  0  0  0
  144.5765   71.3632  221.0801 H   0  0  0  0  0  0  0  0  0  0  0  0
  145.3320   69.6951  216.8785 H   0  0  0  0  0  0  0  0  0  0  0  0
  146.2713   67.4085  216.7084 H   0  0  0  0  0  0  0  0  0  0  0  0
  146.4442   66.0312  218.8032 H   0  0  0  0  0  0  0  0  0  0  0  0
  145.6681   66.9983  220.9670 H   0  0  0  0  0  0  0  0  0  0  0  0
  143.9551   71.4271  217.1321 H   0  0  0  0  0  0  0  0  0  0  0  0
  142.7034   70.4946  218.1139 H   0  0  0  0  0  0  0  0  0  0  0  0
  142.9462   73.3106  217.6205 H   0  0  0  0  0  0  0  0  0  0  0  0
  141.6136   72.3246  218.3527 H   0  0  0  0  0  0  0  0  0  0  0  0
  137.9626   71.4268  223.5475 H   0  0  0  0  0  0  0  0  0  0  0  0
  138.4760   71.4649  221.8468 H   0  0  0  0  0  0  0  0  0  0  0  0
  138.2356   69.0998  222.7356 H   0  0  0  0  0  0  0  0  0  0  0  0
  139.9069   69.4438  222.2108 H   0  0  0  0  0  0  0  0  0  0  0  0
  138.7740   67.4362  224.3271 H   0  0  0  0  0  0  0  0  0  0  0  0
  139.5461   66.8930  226.6382 H   0  0  0  0  0  0  0  0  0  0  0  0
  140.8418   68.6244  227.9063 H   0  0  0  0  0  0  0  0  0  0  0  0
  141.3053   70.7939  226.8579 H   0  0  0  0  0  0  0  0  0  0  0  0
  140.3562   72.4696  225.2343 H   0  0  0  0  0  0  0  0  0  0  0  0
  141.7566   71.7845  224.3623 H   0  0  0  0  0  0  0  0  0  0  0  0
  141.3530   76.9519  223.4731 H   0  0  0  0  0  0  0  0  0  0  0  0
  142.0273   78.6154  225.2268 H   0  0  0  0  0  0  0  0  0  0  0  0
  1  2  2  0
  2  3  1  0
  3  4  2  0
  4  5  1  0
  5  6  1  0
  6  7  1  0
  7  8  2  0
  8  9  1  0
  9 10  1  0
 10 11  1  0
 11 12  1  0
 12 13  1  0
 13 14  1  0
 14 15  2  0
 15 16  1  0
 16 17  2  0
 17 18  1  0
 18 19  2  0
 13 20  1  0
 20 21  1  0
  9 22  2  0
 22 23  1  0
 23 24  1  0
 24 25  1  0
 25 26  1  0
 26 27  1  0
 27 28  2  0
 28 29  1  0
 29 30  2  0
 30 31  1  0
 31 32  2  0
 32 33  1  0
 23 34  2  0
  4 35  1  0
 35 36  2  0
 36  1  1  0
 34  7  1  0
 21 10  1  0
 33 24  1  0
 19 14  1  0
 32 27  1  0
  1 37  1  0
  2 38  1  0
  3 39  1  0
  5 40  1  0
  5 41  1  0
  6 42  1  0
 11 43  1  0
 11 44  1  0
 12 45  1  0
 12 46  1  0
 15 47  1  0
 16 48  1  0
 17 49  1  0
 18 50  1  0
 20 51  1  0
 20 52  1  0
 21 53  1  0
 21 54  1  0
 25 55  1  0
 25 56  1  0
 26 57  1  0
 26 58  1  0
 28 59  1  0
 29 60  1  0
 30 61  1  0
 31 62  1  0
 33 63  1  0
 33 64  1  0
 35 65  1  0
 36 66  1  0
M  END
>  <smiles>  (41) 
c1ccc(CNc2nc(N3CCN(c4ccccn4)CC3)nc(N3CCc4ccccc4C3)n2)cc1

>  <score_type>  (41) 
oracle

>  <origin>  (41) 
autodockgpu

>  <m_score__min__energy>  (41) 
-10.789999999999999

>  <m_primary>  (41) 
energy

>  <rmsd>  (41) 
7.1822773959809085

>  <m_score__min__rmsd>  (41) 
7.1822773959809085

>  <meeko>  (41) 
{"free_energy": -10.06, "intermolecular_energy": -11.85, "internal_energy": -1.15, "cluster_size": 49, "cluster_id": 1, "rank_in_cluster": 42}

>  <energy>  (41) 
-10.07

>  <cluster_rmsd>  (41) 
1.35

>  <cluster>  (41) 
1

$$$$

     RDKit          3D

 66 71  0  0  0  0  0  0  0  0999 V2000
  145.8820   74.1210  220.9850 C   0  0  0  0  0  0  0  0  0  0  0  0
  146.0280   72.7580  220.7970 C   0  0  0  0  0  0  0  0  0  0  0  0
  145.0900   72.0520  220.0650 C   0  0  0  0  0  0  0  0  0  0  0  0
  144.0210   72.7520  219.5380 C   0  0  0  0  0  0  0  0  0  0  0  0
  143.0170   71.9920  218.7520 C   0  0  0  0  0  0  0  0  0  0  0  0
  142.2010   71.2420  219.6680 N   0  0  0  0  0  0  0  0  0  0  0  0
  141.4440   71.9650  220.6400 C   0  0  0  0  0  0  0  0  0  0  0  0
  141.0870   73.2360  220.4130 N   0  0  0  0  0  0  0  0  0  0  0  0
  140.3740   73.9600  221.2970 C   0  0  0  0  0  0  0  0  0  0  0  0
  139.9960   75.3080  221.0620 N   0  0  0  0  0  0  0  0  0  0  0  0
  138.9320   75.9760  221.7910 C   0  0  0  0  0  0  0  0  0  0  0  0
  139.5980   77.0340  222.6350 C   0  0  0  0  0  0  0  0  0  0  0  0
  140.5970   77.7560  221.9060 N   0  0  0  0  0  0  0  0  0  0  0  0
  141.1850   78.8940  222.5690 C   0  0  0  0  0  0  0  0  0  0  0  0
  142.5520   79.0930  222.6000 C   0  0  0  0  0  0  0  0  0  0  0  0
  143.1400   80.1750  223.2280 C   0  0  0  0  0  0  0  0  0  0  0  0
  142.3020   81.0900  223.8500 C   0  0  0  0  0  0  0  0  0  0  0  0
  140.9290   80.8900  223.8170 C   0  0  0  0  0  0  0  0  0  0  0  0
  140.4330   79.8210  223.1910 N   0  0  0  0  0  0  0  0  0  0  0  0
  141.0690   77.4590  220.5900 C   0  0  0  0  0  0  0  0  0  0  0  0
  140.6720   76.1260  220.0470 C   0  0  0  0  0  0  0  0  0  0  0  0
  140.0040   73.3870  222.4500 N   0  0  0  0  0  0  0  0  0  0  0  0
  140.3470   72.0930  222.7220 C   0  0  0  0  0  0  0  0  0  0  0  0
  139.9530   71.4710  223.9560 N   0  0  0  0  0  0  0  0  0  0  0  0
  138.7750   70.6330  223.9560 C   0  0  0  0  0  0  0  0  0  0  0  0
  139.2020   69.2720  224.5050 C   0  0  0  0  0  0  0  0  0  0  0  0
  139.8160   69.4890  225.8410 C   0  0  0  0  0  0  0  0  0  0  0  0
  139.6600   68.5210  226.8260 C   0  0  0  0  0  0  0  0  0  0  0  0
  140.2140   68.6780  228.0940 C   0  0  0  0  0  0  0  0  0  0  0  0
  140.9320   69.8320  228.3520 C   0  0  0  0  0  0  0  0  0  0  0  0
  141.0690   70.7710  227.3580 C   0  0  0  0  0  0  0  0  0  0  0  0
  140.5210   70.6230  226.0920 C   0  0  0  0  0  0  0  0  0  0  0  0
  140.7570   71.7220  225.1310 C   0  0  0  0  0  0  0  0  0  0  0  0
  141.0640   71.4140  221.8000 N   0  0  0  0  0  0  0  0  0  0  0  0
  143.8710   74.1050  219.7210 C   0  0  0  0  0  0  0  0  0  0  0  0
  144.8120   74.8190  220.4570 C   0  0  0  0  0  0  0  0  0  0  0  0
  146.6382   74.6641  221.5708 H   0  0  0  0  0  0  0  0  0  0  0  0
  146.8925   72.2341  221.2308 H   0  0  0  0  0  0  0  0  0  0  0  0
  145.1917   70.9681  219.9074 H   0  0  0  0  0  0  0  0  0  0  0  0
  142.3882   72.6890  218.1786 H   0  0  0  0  0  0  0  0  0  0  0  0
  143.5210   71.3123  218.0492 H   0  0  0  0  0  0  0  0  0  0  0  0
  142.1450   70.2140  219.6440 H   0  0  0  0  0  0  0  0  0  0  0  0
  138.2221   76.4390  221.0898 H   0  0  0  0  0  0  0  0  0  0  0  0
  138.3657   75.2664  222.4121 H   0  0  0  0  0  0  0  0  0  0  0  0
  138.8326   77.7426  222.9843 H   0  0  0  0  0  0  0  0  0  0  0  0
  140.0924   76.5315  223.4794 H   0  0  0  0  0  0  0  0  0  0  0  0
  143.2014   78.3575  222.1027 H   0  0  0  0  0  0  0  0  0  0  0  0
  144.2321   80.3060  223.2345 H   0  0  0  0  0  0  0  0  0  0  0  0
  142.7226   81.9664  224.3649 H   0  0  0  0  0  0  0  0  0  0  0  0
  140.2535   81.6086  224.3041 H   0  0  0  0  0  0  0  0  0  0  0  0
  140.6808   78.2309  219.9092 H   0  0  0  0  0  0  0  0  0  0  0  0
  142.1665   77.4397  220.6615 H   0  0  0  0  0  0  0  0  0  0  0  0
  139.9900   76.2756  219.1970 H   0  0  0  0  0  0  0  0  0  0  0  0
  141.5838   75.5979  219.7311 H   0  0  0  0  0  0  0  0  0  0  0  0
  137.9971   71.0730  224.5973 H   0  0  0  0  0  0  0  0  0  0  0  0
  138.3586   70.5370  222.9424 H   0  0  0  0  0  0  0  0  0  0  0  0
  138.3246   68.6154  224.5994 H   0  0  0  0  0  0  0  0  0  0  0  0
  139.9233   68.7945  223.8255 H   0  0  0  0  0  0  0  0  0  0  0  0
  139.0861   67.6105  226.5990 H   0  0  0  0  0  0  0  0  0  0  0  0
  140.0845   67.9070  228.8678 H   0  0  0  0  0  0  0  0  0  0  0  0
  141.3873   69.9958  229.3399 H   0  0  0  0  0  0  0  0  0  0  0  0
  141.6411   71.6847  227.5768 H   0  0  0  0  0  0  0  0  0  0  0  0
  140.4668   72.6817  225.5834 H   0  0  0  0  0  0  0  0  0  0  0  0
  141.8222   71.7701  224.8609 H   0  0  0  0  0  0  0  0  0  0  0  0
  143.0054   74.6253  219.2850 H   0  0  0  0  0  0  0  0  0  0  0  0
  144.7077   75.9028  220.6134 H   0  0  0  0  0  0  0  0  0  0  0  0
  1  2  2  0
  2  3  1  0
  3  4  2  0
  4  5  1  0
  5  6  1  0
  6  7  1  0
  7  8  2  0
  8  9  1  0
  9 10  1  0
 10 11  1  0
 11 12  1  0
 12 13  1  0
 13 14  1  0
 14 15  2  0
 15 16  1  0
 16 17  2  0
 17 18  1  0
 18 19  2  0
 13 20  1  0
 20 21  1  0
  9 22  2  0
 22 23  1  0
 23 24  1  0
 24 25  1  0
 25 26  1  0
 26 27  1  0
 27 28  2  0
 28 29  1  0
 29 30  2  0
 30 31  1  0
 31 32  2  0
 32 33  1  0
 23 34  2  0
  4 35  1  0
 35 36  2  0
 36  1  1  0
 34  7  1  0
 21 10  1  0
 33 24  1  0
 19 14  1  0
 32 27  1  0
  1 37  1  0
  2 38  1  0
  3 39  1  0
  5 40  1  0
  5 41  1  0
  6 42  1  0
 11 43  1  0
 11 44  1  0
 12 45  1  0
 12 46  1  0
 15 47  1  0
 16 48  1  0
 17 49  1  0
 18 50  1  0
 20 51  1  0
 20 52  1  0
 21 53  1  0
 21 54  1  0
 25 55  1  0
 25 56  1  0
 26 57  1  0
 26 58  1  0
 28 59  1  0
 29 60  1  0
 30 61  1  0
 31 62  1  0
 33 63  1  0
 33 64  1  0
 35 65  1  0
 36 66  1  0
M  END
>  <smiles>  (42) 
c1ccc(CNc2nc(N3CCN(c4ccccn4)CC3)nc(N3CCc4ccccc4C3)n2)cc1

>  <score_type>  (42) 
oracle

>  <origin>  (42) 
autodockgpu

>  <m_score__min__energy>  (42) 
-10.789999999999999

>  <m_primary>  (42) 
energy

>  <rmsd>  (42) 
7.979146693021171

>  <m_score__min__rmsd>  (42) 
7.979146693021171

>  <meeko>  (42) 
{"free_energy": -10.65, "intermolecular_energy": -12.44, "internal_energy": -1.56, "cluster_size": 49, "cluster_id": 1, "rank_in_cluster": 7}

>  <energy>  (42) 
-10.06

>  <cluster_rmsd>  (42) 
1.75

>  <cluster>  (42) 
1

$$$$

     RDKit          3D

 66 71  0  0  0  0  0  0  0  0999 V2000
  145.8230   74.0820  220.9880 C   0  0  0  0  0  0  0  0  0  0  0  0
  145.9680   72.7190  220.7980 C   0  0  0  0  0  0  0  0  0  0  0  0
  145.0310   72.0150  220.0630 C   0  0  0  0  0  0  0  0  0  0  0  0
  143.9650   72.7170  219.5330 C   0  0  0  0  0  0  0  0  0  0  0  0
  142.9630   71.9600  218.7430 C   0  0  0  0  0  0  0  0  0  0  0  0
  142.1350   71.2190  219.6560 N   0  0  0  0  0  0  0  0  0  0  0  0
  141.3870   71.9490  220.6290 C   0  0  0  0  0  0  0  0  0  0  0  0
  141.0460   73.2250  220.4050 N   0  0  0  0  0  0  0  0  0  0  0  0
  140.3420   73.9560  221.2880 C   0  0  0  0  0  0  0  0  0  0  0  0
  139.9810   75.3090  221.0560 N   0  0  0  0  0  0  0  0  0  0  0  0
  138.9350   75.9940  221.7960 C   0  0  0  0  0  0  0  0  0  0  0  0
  139.6260   77.0420  222.6320 C   0  0  0  0  0  0  0  0  0  0  0  0
  140.6280   77.7490  221.8900 N   0  0  0  0  0  0  0  0  0  0  0  0
  141.2400   78.8790  222.5450 C   0  0  0  0  0  0  0  0  0  0  0  0
  140.4900   79.8370  223.2000 C   0  0  0  0  0  0  0  0  0  0  0  0
  141.0520   80.9280  223.8340 C   0  0  0  0  0  0  0  0  0  0  0  0
  142.4340   81.0480  223.8010 C   0  0  0  0  0  0  0  0  0  0  0  0
  143.1870   80.0850  223.1450 C   0  0  0  0  0  0  0  0  0  0  0  0
  142.5740   79.0580  222.5540 N   0  0  0  0  0  0  0  0  0  0  0  0
  141.0800   77.4430  220.5700 C   0  0  0  0  0  0  0  0  0  0  0  0
  140.6580   76.1160  220.0330 C   0  0  0  0  0  0  0  0  0  0  0  0
  139.9630   73.3850  222.4400 N   0  0  0  0  0  0  0  0  0  0  0  0
  140.2890   72.0860  222.7100 C   0  0  0  0  0  0  0  0  0  0  0  0
  139.8870   71.4680  223.9430 N   0  0  0  0  0  0  0  0  0  0  0  0
  138.7020   70.6380  223.9380 C   0  0  0  0  0  0  0  0  0  0  0  0
  139.1170   69.2730  224.4880 C   0  0  0  0  0  0  0  0  0  0  0  0
  139.7270   69.4850  225.8260 C   0  0  0  0  0  0  0  0  0  0  0  0
  139.5610   68.5180  226.8100 C   0  0  0  0  0  0  0  0  0  0  0  0
  140.1110   68.6710  228.0810 C   0  0  0  0  0  0  0  0  0  0  0  0
  140.8370   69.8190  228.3410 C   0  0  0  0  0  0  0  0  0  0  0  0
  140.9850   70.7570  227.3480 C   0  0  0  0  0  0  0  0  0  0  0  0
  140.4400   70.6140  226.0800 C   0  0  0  0  0  0  0  0  0  0  0  0
  140.6880   71.7110  225.1210 C   0  0  0  0  0  0  0  0  0  0  0  0
  140.9980   71.4000  221.7870 N   0  0  0  0  0  0  0  0  0  0  0  0
  143.8160   74.0700  219.7170 C   0  0  0  0  0  0  0  0  0  0  0  0
  144.7550   74.7830  220.4570 C   0  0  0  0  0  0  0  0  0  0  0  0
  146.5778   74.6231  221.5776 H   0  0  0  0  0  0  0  0  0  0  0  0
  146.8311   72.1936  221.2328 H   0  0  0  0  0  0  0  0  0  0  0  0
  145.1312   70.9310  219.9054 H   0  0  0  0  0  0  0  0  0  0  0  0
  142.3431   72.6583  218.1615 H   0  0  0  0  0  0  0  0  0  0  0  0
  143.4684   71.2740  218.0473 H   0  0  0  0  0  0  0  0  0  0  0  0
  142.0660   70.1910  219.6300 H   0  0  0  0  0  0  0  0  0  0  0  0
  138.2249   76.4674  221.1021 H   0  0  0  0  0  0  0  0  0  0  0  0
  138.3645   75.2936  222.4237 H   0  0  0  0  0  0  0  0  0  0  0  0
  138.8753   77.7621  222.9897 H   0  0  0  0  0  0  0  0  0  0  0  0
  140.1222   76.5328  223.4714 H   0  0  0  0  0  0  0  0  0  0  0  0
  139.3958   79.7258  223.2173 H   0  0  0  0  0  0  0  0  0  0  0  0
  140.4269   81.6743  224.3462 H   0  0  0  0  0  0  0  0  0  0  0  0
  142.9285   81.8997  224.2910 H   0  0  0  0  0  0  0  0  0  0  0  0
  144.2834   80.1678  223.1124 H   0  0  0  0  0  0  0  0  0  0  0  0
  140.6954   78.2196  219.8925 H   0  0  0  0  0  0  0  0  0  0  0  0
  142.1778   77.4070  220.6297 H   0  0  0  0  0  0  0  0  0  0  0  0
  139.9693   76.2747  219.1901 H   0  0  0  0  0  0  0  0  0  0  0  0
  141.5586   75.5743  219.7081 H   0  0  0  0  0  0  0  0  0  0  0  0
  137.9249   71.0834  224.5766 H   0  0  0  0  0  0  0  0  0  0  0  0
  138.2888   70.5457  222.9227 H   0  0  0  0  0  0  0  0  0  0  0  0
  138.2344   68.6227  224.5786 H   0  0  0  0  0  0  0  0  0  0  0  0
  139.8373   68.7905  223.8110 H   0  0  0  0  0  0  0  0  0  0  0  0
  138.9823   67.6112  226.5803 H   0  0  0  0  0  0  0  0  0  0  0  0
  139.9719   67.9015  228.8547 H   0  0  0  0  0  0  0  0  0  0  0  0
  141.2903   69.9791  229.3304 H   0  0  0  0  0  0  0  0  0  0  0  0
  141.5639   71.6659  227.5691 H   0  0  0  0  0  0  0  0  0  0  0  0
  140.4038   72.6727  225.5731 H   0  0  0  0  0  0  0  0  0  0  0  0
  141.7546   71.7503  224.8548 H   0  0  0  0  0  0  0  0  0  0  0  0
  142.9524   74.5915  219.2784 H   0  0  0  0  0  0  0  0  0  0  0  0
  144.6514   75.8668  220.6142 H   0  0  0  0  0  0  0  0  0  0  0  0
  1  2  2  0
  2  3  1  0
  3  4  2  0
  4  5  1  0
  5  6  1  0
  6  7  1  0
  7  8  2  0
  8  9  1  0
  9 10  1  0
 10 11  1  0
 11 12  1  0
 12 13  1  0
 13 14  1  0
 14 15  2  0
 15 16  1  0
 16 17  2  0
 17 18  1  0
 18 19  2  0
 13 20  1  0
 20 21  1  0
  9 22  2  0
 22 23  1  0
 23 24  1  0
 24 25  1  0
 25 26  1  0
 26 27  1  0
 27 28  2  0
 28 29  1  0
 29 30  2  0
 30 31  1  0
 31 32  2  0
 32 33  1  0
 23 34  2  0
  4 35  1  0
 35 36  2  0
 36  1  1  0
 34  7  1  0
 21 10  1  0
 33 24  1  0
 19 14  1  0
 32 27  1  0
  1 37  1  0
  2 38  1  0
  3 39  1  0
  5 40  1  0
  5 41  1  0
  6 42  1  0
 11 43  1  0
 11 44  1  0
 12 45  1  0
 12 46  1  0
 15 47  1  0
 16 48  1  0
 17 49  1  0
 18 50  1  0
 20 51  1  0
 20 52  1  0
 21 53  1  0
 21 54  1  0
 25 55  1  0
 25 56  1  0
 26 57  1  0
 26 58  1  0
 28 59  1  0
 29 60  1  0
 30 61  1  0
 31 62  1  0
 33 63  1  0
 33 64  1  0
 35 65  1  0
 36 66  1  0
M  END
>  <smiles>  (43) 
c1ccc(CNc2nc(N3CCN(c4ccccn4)CC3)nc(N3CCc4ccccc4C3)n2)cc1

>  <score_type>  (43) 
oracle

>  <origin>  (43) 
autodockgpu

>  <m_score__min__energy>  (43) 
-10.789999999999999

>  <m_primary>  (43) 
energy

>  <rmsd>  (43) 
8.004172180115626

>  <m_score__min__rmsd>  (43) 
8.004172180115626

>  <meeko>  (43) 
{"free_energy": -10.6, "intermolecular_energy": -12.39, "internal_energy": -1.54, "cluster_size": 49, "cluster_id": 1, "rank_in_cluster": 16}

>  <energy>  (43) 
-10.04

>  <cluster_rmsd>  (43) 
1.89

>  <cluster>  (43) 
1

$$$$

     RDKit          3D

 66 71  0  0  0  0  0  0  0  0999 V2000
  140.8760   71.2550  228.3380 C   0  0  0  0  0  0  0  0  0  0  0  0
  141.4090   72.1070  227.3870 C   0  0  0  0  0  0  0  0  0  0  0  0
  141.1900   71.8730  226.0410 C   0  0  0  0  0  0  0  0  0  0  0  0
  140.4300   70.7720  225.6920 C   0  0  0  0  0  0  0  0  0  0  0  0
  140.1950   70.5240  224.2480 C   0  0  0  0  0  0  0  0  0  0  0  0
  139.5700   71.6900  223.6860 N   0  0  0  0  0  0  0  0  0  0  0  0
  140.2320   72.3550  222.6090 C   0  0  0  0  0  0  0  0  0  0  0  0
  139.9710   73.6410  222.3420 N   0  0  0  0  0  0  0  0  0  0  0  0
  140.5680   74.3120  221.3400 C   0  0  0  0  0  0  0  0  0  0  0  0
  140.2930   75.6740  221.0520 N   0  0  0  0  0  0  0  0  0  0  0  0
  139.1870   76.4070  221.6440 C   0  0  0  0  0  0  0  0  0  0  0  0
  139.8050   77.4400  222.5530 C   0  0  0  0  0  0  0  0  0  0  0  0
  140.9200   78.0990  221.9420 N   0  0  0  0  0  0  0  0  0  0  0  0
  141.4860   79.2140  222.6610 C   0  0  0  0  0  0  0  0  0  0  0  0
  140.6920   80.1700  223.2660 C   0  0  0  0  0  0  0  0  0  0  0  0
  141.2100   81.2470  223.9590 C   0  0  0  0  0  0  0  0  0  0  0  0
  142.5910   81.3550  224.0420 C   0  0  0  0  0  0  0  0  0  0  0  0
  143.3880   80.3940  223.4360 C   0  0  0  0  0  0  0  0  0  0  0  0
  142.8160   79.3810  222.7820 N   0  0  0  0  0  0  0  0  0  0  0  0
  141.5270   77.7590  220.6940 C   0  0  0  0  0  0  0  0  0  0  0  0
  141.1260   76.4420  220.1180 C   0  0  0  0  0  0  0  0  0  0  0  0
  141.4610   73.6680  220.5760 N   0  0  0  0  0  0  0  0  0  0  0  0
  141.7580   72.3560  220.8130 C   0  0  0  0  0  0  0  0  0  0  0  0
  142.7150   71.6590  219.9980 N   0  0  0  0  0  0  0  0  0  0  0  0
  143.7200   72.4350  219.3080 C   0  0  0  0  0  0  0  0  0  0  0  0
  145.0780   71.8700  219.7230 C   0  0  0  0  0  0  0  0  0  0  0  0
  145.0840   70.4170  219.4090 C   0  0  0  0  0  0  0  0  0  0  0  0
  146.2710   69.8110  219.0160 C   0  0  0  0  0  0  0  0  0  0  0  0
  146.3290   68.4540  218.7090 C   0  0  0  0  0  0  0  0  0  0  0  0
  145.1630   67.7150  218.8080 C   0  0  0  0  0  0  0  0  0  0  0  0
  144.0050   68.3420  219.2000 C   0  0  0  0  0  0  0  0  0  0  0  0
  143.9380   69.6930  219.5070 C   0  0  0  0  0  0  0  0  0  0  0  0
  142.6170   70.2190  219.9140 C   0  0  0  0  0  0  0  0  0  0  0  0
  141.1270   71.7320  221.8320 N   0  0  0  0  0  0  0  0  0  0  0  0
  139.8980   69.9230  226.6310 C   0  0  0  0  0  0  0  0  0  0  0  0
  140.1160   70.1540  227.9870 C   0  0  0  0  0  0  0  0  0  0  0  0
  141.0619   71.4589  229.4028 H   0  0  0  0  0  0  0  0  0  0  0  0
  142.0090   72.9735  227.7021 H   0  0  0  0  0  0  0  0  0  0  0  0
  141.6071   72.5414  225.2733 H   0  0  0  0  0  0  0  0  0  0  0  0
  141.1534   70.3353  223.7422 H   0  0  0  0  0  0  0  0  0  0  0  0
  139.5471   69.6451  224.1148 H   0  0  0  0  0  0  0  0  0  0  0  0
  138.6700   72.0560  224.0310 H   0  0  0  0  0  0  0  0  0  0  0  0
  138.5910   76.8968  220.8598 H   0  0  0  0  0  0  0  0  0  0  0  0
  138.5133   75.7371  222.1984 H   0  0  0  0  0  0  0  0  0  0  0  0
  139.0429   78.1923  222.8044 H   0  0  0  0  0  0  0  0  0  0  0  0
  140.1692   76.9236  223.4534 H   0  0  0  0  0  0  0  0  0  0  0  0
  139.5991   80.0688  223.1924 H   0  0  0  0  0  0  0  0  0  0  0  0
  140.5512   81.9925  224.4283 H   0  0  0  0  0  0  0  0  0  0  0  0
  143.0501   82.1952  224.5836 H   0  0  0  0  0  0  0  0  0  0  0  0
  144.4840   80.4668  223.4943 H   0  0  0  0  0  0  0  0  0  0  0  0
  141.2641   78.5406  219.9660 H   0  0  0  0  0  0  0  0  0  0  0  0
  142.6057   77.6827  220.8956 H   0  0  0  0  0  0  0  0  0  0  0  0
  140.5574   76.6155  219.1925 H   0  0  0  0  0  0  0  0  0  0  0  0
  142.0391   75.8629  219.9157 H   0  0  0  0  0  0  0  0  0  0  0  0
  143.5883   72.3428  218.2198 H   0  0  0  0  0  0  0  0  0  0  0  0
  143.6410   73.5012  219.5666 H   0  0  0  0  0  0  0  0  0  0  0  0
  145.8796   72.3762  219.1652 H   0  0  0  0  0  0  0  0  0  0  0  0
  145.2472   72.0303  220.7980 H   0  0  0  0  0  0  0  0  0  0  0  0
  147.1861   70.4173  218.9458 H   0  0  0  0  0  0  0  0  0  0  0  0
  147.2732   67.9835  218.3972 H   0  0  0  0  0  0  0  0  0  0  0  0
  145.1634   66.6398  218.5759 H   0  0  0  0  0  0  0  0  0  0  0  0
  143.0855   67.7429  219.2740 H   0  0  0  0  0  0  0  0  0  0  0  0
  141.8582   69.9395  219.1682 H   0  0  0  0  0  0  0  0  0  0  0  0
  142.3222   69.7991  220.8870 H   0  0  0  0  0  0  0  0  0  0  0  0
  139.2981   69.0582  226.3114 H   0  0  0  0  0  0  0  0  0  0  0  0
  139.6981   69.4838  228.7526 H   0  0  0  0  0  0  0  0  0  0  0  0
  1  2  2  0
  2  3  1  0
  3  4  2  0
  4  5  1  0
  5  6  1  0
  6  7  1  0
  7  8  2  0
  8  9  1  0
  9 10  1  0
 10 11  1  0
 11 12  1  0
 12 13  1  0
 13 14  1  0
 14 15  2  0
 15 16  1  0
 16 17  2  0
 17 18  1  0
 18 19  2  0
 13 20  1  0
 20 21  1  0
  9 22  2  0
 22 23  1  0
 23 24  1  0
 24 25  1  0
 25 26  1  0
 26 27  1  0
 27 28  2  0
 28 29  1  0
 29 30  2  0
 30 31  1  0
 31 32  2  0
 32 33  1  0
 23 34  2  0
  4 35  1  0
 35 36  2  0
 36  1  1  0
 34  7  1  0
 21 10  1  0
 33 24  1  0
 19 14  1  0
 32 27  1  0
  1 37  1  0
  2 38  1  0
  3 39  1  0
  5 40  1  0
  5 41  1  0
  6 42  1  0
 11 43  1  0
 11 44  1  0
 12 45  1  0
 12 46  1  0
 15 47  1  0
 16 48  1  0
 17 49  1  0
 18 50  1  0
 20 51  1  0
 20 52  1  0
 21 53  1  0
 21 54  1  0
 25 55  1  0
 25 56  1  0
 26 57  1  0
 26 58  1  0
 28 59  1  0
 29 60  1  0
 30 61  1  0
 31 62  1  0
 33 63  1  0
 33 64  1  0
 35 65  1  0
 36 66  1  0
M  END
>  <smiles>  (44) 
c1ccc(CNc2nc(N3CCN(c4ccccn4)CC3)nc(N3CCc4ccccc4C3)n2)cc1

>  <score_type>  (44) 
oracle

>  <origin>  (44) 
autodockgpu

>  <m_score__min__energy>  (44) 
-10.789999999999999

>  <m_primary>  (44) 
energy

>  <rmsd>  (44) 
8.238983275903282

>  <m_score__min__rmsd>  (44) 
8.238983275903282

>  <meeko>  (44) 
{"free_energy": -10.63, "intermolecular_energy": -12.42, "internal_energy": -1.14, "cluster_size": 49, "cluster_id": 1, "rank_in_cluster": 12}

>  <energy>  (44) 
-9.96

>  <cluster_rmsd>  (44) 
1.78

>  <cluster>  (44) 
1

$$$$

     RDKit          3D

 66 71  0  0  0  0  0  0  0  0999 V2000
  144.7520   74.7970  220.3990 C   0  0  0  0  0  0  0  0  0  0  0  0
  143.9560   74.5920  219.2860 C   0  0  0  0  0  0  0  0  0  0  0  0
  143.4710   73.3280  219.0000 C   0  0  0  0  0  0  0  0  0  0  0  0
  143.8090   72.2970  219.8570 C   0  0  0  0  0  0  0  0  0  0  0  0
  143.2870   70.9430  219.5490 C   0  0  0  0  0  0  0  0  0  0  0  0
  141.8500   71.0090  219.5170 N   0  0  0  0  0  0  0  0  0  0  0  0
  141.1920   71.8000  220.5070 C   0  0  0  0  0  0  0  0  0  0  0  0
  140.8900   73.0820  220.2610 N   0  0  0  0  0  0  0  0  0  0  0  0
  140.2700   73.8690  221.1610 C   0  0  0  0  0  0  0  0  0  0  0  0
  139.9500   75.2280  220.9050 N   0  0  0  0  0  0  0  0  0  0  0  0
  138.8750   75.9340  221.5800 C   0  0  0  0  0  0  0  0  0  0  0  0
  139.5350   76.9720  222.4540 C   0  0  0  0  0  0  0  0  0  0  0  0
  140.5920   77.6570  221.7730 N   0  0  0  0  0  0  0  0  0  0  0  0
  141.1860   78.7770  222.4620 C   0  0  0  0  0  0  0  0  0  0  0  0
  142.5370   79.0520  222.3780 C   0  0  0  0  0  0  0  0  0  0  0  0
  143.1290   80.1170  223.0280 C   0  0  0  0  0  0  0  0  0  0  0  0
  142.3120   80.9370  223.7950 C   0  0  0  0  0  0  0  0  0  0  0  0
  140.9550   80.6610  223.8780 C   0  0  0  0  0  0  0  0  0  0  0  0
  140.4530   79.6130  223.2220 N   0  0  0  0  0  0  0  0  0  0  0  0
  141.1170   77.3390  220.4830 C   0  0  0  0  0  0  0  0  0  0  0  0
  140.7030   76.0190  219.9230 C   0  0  0  0  0  0  0  0  0  0  0  0
  139.9410   73.3510  222.3510 N   0  0  0  0  0  0  0  0  0  0  0  0
  140.2300   72.0480  222.6440 C   0  0  0  0  0  0  0  0  0  0  0  0
  139.8790   71.4850  223.9190 N   0  0  0  0  0  0  0  0  0  0  0  0
  138.6980   70.6560  224.0000 C   0  0  0  0  0  0  0  0  0  0  0  0
  139.1370   69.3170  224.5930 C   0  0  0  0  0  0  0  0  0  0  0  0
  139.8010   69.5890  225.8940 C   0  0  0  0  0  0  0  0  0  0  0  0
  139.6760   68.6680  226.9270 C   0  0  0  0  0  0  0  0  0  0  0  0
  140.2770   68.8770  228.1660 C   0  0  0  0  0  0  0  0  0  0  0  0
  141.0110   70.0370  228.3450 C   0  0  0  0  0  0  0  0  0  0  0  0
  141.1160   70.9290  227.3060 C   0  0  0  0  0  0  0  0  0  0  0  0
  140.5210   70.7290  226.0690 C   0  0  0  0  0  0  0  0  0  0  0  0
  140.7270   71.7820  225.0510 C   0  0  0  0  0  0  0  0  0  0  0  0
  140.8540   71.3040  221.7040 N   0  0  0  0  0  0  0  0  0  0  0  0
  144.5990   72.4950  220.9630 C   0  0  0  0  0  0  0  0  0  0  0  0
  145.0890   73.7650  221.2550 C   0  0  0  0  0  0  0  0  0  0  0  0
  145.1272   75.8095  220.6087 H   0  0  0  0  0  0  0  0  0  0  0  0
  143.7079   75.4366  218.6264 H   0  0  0  0  0  0  0  0  0  0  0  0
  142.8369   73.1492  218.1191 H   0  0  0  0  0  0  0  0  0  0  0  0
  143.6660   70.6119  218.5708 H   0  0  0  0  0  0  0  0  0  0  0  0
  143.6164   70.2265  220.3159 H   0  0  0  0  0  0  0  0  0  0  0  0
  141.2900   70.5110  218.8100 H   0  0  0  0  0  0  0  0  0  0  0  0
  138.2162   76.4184  220.8442 H   0  0  0  0  0  0  0  0  0  0  0  0
  138.2552   75.2461  222.1739 H   0  0  0  0  0  0  0  0  0  0  0  0
  138.7781   77.7073  222.7644 H   0  0  0  0  0  0  0  0  0  0  0  0
  139.9704   76.4560  223.3225 H   0  0  0  0  0  0  0  0  0  0  0  0
  143.1700   78.3929  221.7657 H   0  0  0  0  0  0  0  0  0  0  0  0
  144.2087   80.3088  222.9413 H   0  0  0  0  0  0  0  0  0  0  0  0
  142.7370   81.7978  224.3320 H   0  0  0  0  0  0  0  0  0  0  0  0
  140.2962   81.3027  224.4815 H   0  0  0  0  0  0  0  0  0  0  0  0
  140.7890   78.1211  219.7825 H   0  0  0  0  0  0  0  0  0  0  0  0
  142.2083   77.2821  220.6092 H   0  0  0  0  0  0  0  0  0  0  0  0
  140.0696   76.1886  219.0398 H   0  0  0  0  0  0  0  0  0  0  0  0
  141.6108   75.4594  219.6533 H   0  0  0  0  0  0  0  0  0  0  0  0
  137.9469   71.1295  224.6494 H   0  0  0  0  0  0  0  0  0  0  0  0
  138.2443   70.5179  223.0075 H   0  0  0  0  0  0  0  0  0  0  0  0
  138.2598   68.6718  224.7488 H   0  0  0  0  0  0  0  0  0  0  0  0
  139.8295   68.8040  223.9094 H   0  0  0  0  0  0  0  0  0  0  0  0
  139.0887   67.7526  226.7624 H   0  0  0  0  0  0  0  0  0  0  0  0
  140.1716   68.1424  228.9779 H   0  0  0  0  0  0  0  0  0  0  0  0
  141.5038   70.2417  229.3069 H   0  0  0  0  0  0  0  0  0  0  0  0
  141.7008   71.8474  227.4625 H   0  0  0  0  0  0  0  0  0  0  0  0
  140.4592   72.7631  225.4701 H   0  0  0  0  0  0  0  0  0  0  0  0
  141.7817   71.8097  224.7398 H   0  0  0  0  0  0  0  0  0  0  0  0
  144.8452   71.6477  221.6199 H   0  0  0  0  0  0  0  0  0  0  0  0
  145.7227   73.9413  222.1367 H   0  0  0  0  0  0  0  0  0  0  0  0
  1  2  2  0
  2  3  1  0
  3  4  2  0
  4  5  1  0
  5  6  1  0
  6  7  1  0
  7  8  2  0
  8  9  1  0
  9 10  1  0
 10 11  1  0
 11 12  1  0
 12 13  1  0
 13 14  1  0
 14 15  2  0
 15 16  1  0
 16 17  2  0
 17 18  1  0
 18 19  2  0
 13 20  1  0
 20 21  1  0
  9 22  2  0
 22 23  1  0
 23 24  1  0
 24 25  1  0
 25 26  1  0
 26 27  1  0
 27 28  2  0
 28 29  1  0
 29 30  2  0
 30 31  1  0
 31 32  2  0
 32 33  1  0
 23 34  2  0
  4 35  1  0
 35 36  2  0
 36  1  1  0
 34  7  1  0
 21 10  1  0
 33 24  1  0
 19 14  1  0
 32 27  1  0
  1 37  1  0
  2 38  1  0
  3 39  1  0
  5 40  1  0
  5 41  1  0
  6 42  1  0
 11 43  1  0
 11 44  1  0
 12 45  1  0
 12 46  1  0
 15 47  1  0
 16 48  1  0
 17 49  1  0
 18 50  1  0
 20 51  1  0
 20 52  1  0
 21 53  1  0
 21 54  1  0
 25 55  1  0
 25 56  1  0
 26 57  1  0
 26 58  1  0
 28 59  1  0
 29 60  1  0
 30 61  1  0
 31 62  1  0
 33 63  1  0
 33 64  1  0
 35 65  1  0
 36 66  1  0
M  END
>  <smiles>  (45) 
c1ccc(CNc2nc(N3CCN(c4ccccn4)CC3)nc(N3CCc4ccccc4C3)n2)cc1

>  <score_type>  (45) 
oracle

>  <origin>  (45) 
autodockgpu

>  <m_score__min__energy>  (45) 
-10.789999999999999

>  <m_primary>  (45) 
energy

>  <rmsd>  (45) 
7.889894132725631

>  <m_score__min__rmsd>  (45) 
7.889894132725631

>  <meeko>  (45) 
{"free_energy": -9.96, "intermolecular_energy": -11.75, "internal_energy": -1.69, "cluster_size": 49, "cluster_id": 1, "rank_in_cluster": 44}

>  <energy>  (45) 
-9.9

>  <cluster_rmsd>  (45) 
1.85

>  <cluster>  (45) 
1

$$$$

     RDKit          3D

 66 71  0  0  0  0  0  0  0  0999 V2000
  140.8930   71.0570  228.2690 C   0  0  0  0  0  0  0  0  0  0  0  0
  141.2930   72.0390  227.3790 C   0  0  0  0  0  0  0  0  0  0  0  0
  141.0450   71.8940  226.0260 C   0  0  0  0  0  0  0  0  0  0  0  0
  140.3920   70.7500  225.6070 C   0  0  0  0  0  0  0  0  0  0  0  0
  140.1260   70.5980  224.1550 C   0  0  0  0  0  0  0  0  0  0  0  0
  139.6290   71.8520  223.6550 N   0  0  0  0  0  0  0  0  0  0  0  0
  140.3060   72.4490  222.5480 C   0  0  0  0  0  0  0  0  0  0  0  0
  140.0930   73.7340  222.2360 N   0  0  0  0  0  0  0  0  0  0  0  0
  140.7070   74.3430  221.2040 C   0  0  0  0  0  0  0  0  0  0  0  0
  140.4820   75.7040  220.8680 N   0  0  0  0  0  0  0  0  0  0  0  0
  139.3320   76.4600  221.3310 C   0  0  0  0  0  0  0  0  0  0  0  0
  139.8670   77.5010  222.2830 C   0  0  0  0  0  0  0  0  0  0  0  0
  141.0480   78.1350  221.7800 N   0  0  0  0  0  0  0  0  0  0  0  0
  141.5520   79.2560  222.5360 C   0  0  0  0  0  0  0  0  0  0  0  0
  140.7080   80.1840  223.1150 C   0  0  0  0  0  0  0  0  0  0  0  0
  141.1660   81.2650  223.8430 C   0  0  0  0  0  0  0  0  0  0  0  0
  142.5390   81.4070  223.9890 C   0  0  0  0  0  0  0  0  0  0  0  0
  143.3860   80.4740  223.4080 C   0  0  0  0  0  0  0  0  0  0  0  0
  142.8710   79.4550  222.7180 N   0  0  0  0  0  0  0  0  0  0  0  0
  141.7760   77.7670  220.6070 C   0  0  0  0  0  0  0  0  0  0  0  0
  141.4190   76.4450  220.0130 C   0  0  0  0  0  0  0  0  0  0  0  0
  141.5670   73.6370  220.4590 N   0  0  0  0  0  0  0  0  0  0  0  0
  141.8150   72.3240  220.7420 C   0  0  0  0  0  0  0  0  0  0  0  0
  142.7370   71.5610  219.9470 N   0  0  0  0  0  0  0  0  0  0  0  0
  143.7430   72.2730  219.1930 C   0  0  0  0  0  0  0  0  0  0  0  0
  145.0970   71.6990  219.6090 C   0  0  0  0  0  0  0  0  0  0  0  0
  145.0630   70.2310  219.3770 C   0  0  0  0  0  0  0  0  0  0  0  0
  146.2260   69.5760  218.9920 C   0  0  0  0  0  0  0  0  0  0  0  0
  146.2460   68.2030  218.7600 C   0  0  0  0  0  0  0  0  0  0  0  0
  145.0660   67.4990  218.9250 C   0  0  0  0  0  0  0  0  0  0  0  0
  143.9310   68.1740  219.3060 C   0  0  0  0  0  0  0  0  0  0  0  0
  143.9030   69.5410  219.5390 C   0  0  0  0  0  0  0  0  0  0  0  0
  142.6040   70.1210  219.9440 C   0  0  0  0  0  0  0  0  0  0  0  0
  141.1700   71.7630  221.7890 N   0  0  0  0  0  0  0  0  0  0  0  0
  139.9920   69.7730  226.4860 C   0  0  0  0  0  0  0  0  0  0  0  0
  140.2400   69.9140  227.8480 C   0  0  0  0  0  0  0  0  0  0  0  0
  141.1007   71.1901  229.3410 H   0  0  0  0  0  0  0  0  0  0  0  0
  141.8095   72.9371  227.7488 H   0  0  0  0  0  0  0  0  0  0  0  0
  141.3576   72.6648  225.3061 H   0  0  0  0  0  0  0  0  0  0  0  0
  141.0562   70.3311  223.6320 H   0  0  0  0  0  0  0  0  0  0  0  0
  139.3863   69.8016  223.9857 H   0  0  0  0  0  0  0  0  0  0  0  0
  138.8100   72.3240  224.0640 H   0  0  0  0  0  0  0  0  0  0  0  0
  138.8269   76.9437  220.4819 H   0  0  0  0  0  0  0  0  0  0  0  0
  138.5958   75.8077  221.8234 H   0  0  0  0  0  0  0  0  0  0  0  0
  139.0937   78.2669  222.4421 H   0  0  0  0  0  0  0  0  0  0  0  0
  140.1286   76.9961  223.2246 H   0  0  0  0  0  0  0  0  0  0  0  0
  139.6225   80.0563  222.9907 H   0  0  0  0  0  0  0  0  0  0  0  0
  140.4677   81.9873  224.2909 H   0  0  0  0  0  0  0  0  0  0  0  0
  142.9519   82.2516  224.5601 H   0  0  0  0  0  0  0  0  0  0  0  0
  144.4761   80.5741  223.5158 H   0  0  0  0  0  0  0  0  0  0  0  0
  141.6001   78.5393  219.8437 H   0  0  0  0  0  0  0  0  0  0  0  0
  142.8270   77.6815  220.9203 H   0  0  0  0  0  0  0  0  0  0  0  0
  140.9524   76.6093  219.0305 H   0  0  0  0  0  0  0  0  0  0  0  0
  142.3398   75.8512  219.9159 H   0  0  0  0  0  0  0  0  0  0  0  0
  143.5839   72.1240  218.1148 H   0  0  0  0  0  0  0  0  0  0  0  0
  143.6946   73.3535  219.3933 H   0  0  0  0  0  0  0  0  0  0  0  0
  145.8967   72.1540  219.0062 H   0  0  0  0  0  0  0  0  0  0  0  0
  145.2944   71.9144  220.6695 H   0  0  0  0  0  0  0  0  0  0  0  0
  147.1527   70.1554  218.8675 H   0  0  0  0  0  0  0  0  0  0  0  0
  147.1718   67.6934  218.4548 H   0  0  0  0  0  0  0  0  0  0  0  0
  145.0368   66.4129  218.7534 H   0  0  0  0  0  0  0  0  0  0  0  0
  142.9997   67.6024  219.4323 H   0  0  0  0  0  0  0  0  0  0  0  0
  141.8226   69.8201  219.2307 H   0  0  0  0  0  0  0  0  0  0  0  0
  142.3215   69.7620  220.9447 H   0  0  0  0  0  0  0  0  0  0  0  0
  139.4745   68.8772  226.1123 H   0  0  0  0  0  0  0  0  0  0  0  0
  139.9267   69.1415  228.5657 H   0  0  0  0  0  0  0  0  0  0  0  0
  1  2  2  0
  2  3  1  0
  3  4  2  0
  4  5  1  0
  5  6  1  0
  6  7  1  0
  7  8  2  0
  8  9  1  0
  9 10  1  0
 10 11  1  0
 11 12  1  0
 12 13  1  0
 13 14  1  0
 14 15  2  0
 15 16  1  0
 16 17  2  0
 17 18  1  0
 18 19  2  0
 13 20  1  0
 20 21  1  0
  9 22  2  0
 22 23  1  0
 23 24  1  0
 24 25  1  0
 25 26  1  0
 26 27  1  0
 27 28  2  0
 28 29  1  0
 29 30  2  0
 30 31  1  0
 31 32  2  0
 32 33  1  0
 23 34  2  0
  4 35  1  0
 35 36  2  0
 36  1  1  0
 34  7  1  0
 21 10  1  0
 33 24  1  0
 19 14  1  0
 32 27  1  0
  1 37  1  0
  2 38  1  0
  3 39  1  0
  5 40  1  0
  5 41  1  0
  6 42  1  0
 11 43  1  0
 11 44  1  0
 12 45  1  0
 12 46  1  0
 15 47  1  0
 16 48  1  0
 17 49  1  0
 18 50  1  0
 20 51  1  0
 20 52  1  0
 21 53  1  0
 21 54  1  0
 25 55  1  0
 25 56  1  0
 26 57  1  0
 26 58  1  0
 28 59  1  0
 29 60  1  0
 30 61  1  0
 31 62  1  0
 33 63  1  0
 33 64  1  0
 35 65  1  0
 36 66  1  0
M  END
>  <smiles>  (46) 
c1ccc(CNc2nc(N3CCN(c4ccccn4)CC3)nc(N3CCc4ccccc4C3)n2)cc1

>  <score_type>  (46) 
oracle

>  <origin>  (46) 
autodockgpu

>  <m_score__min__energy>  (46) 
-10.789999999999999

>  <m_primary>  (46) 
energy

>  <rmsd>  (46) 
8.241000922148936

>  <m_score__min__rmsd>  (46) 
8.241000922148936

>  <meeko>  (46) 
{"free_energy": -10.69, "intermolecular_energy": -12.48, "internal_energy": -1.12, "cluster_size": 49, "cluster_id": 1, "rank_in_cluster": 3}

>  <energy>  (46) 
-9.84

>  <cluster_rmsd>  (46) 
1.88

>  <cluster>  (46) 
1

$$$$

     RDKit          3D

 66 71  0  0  0  0  0  0  0  0999 V2000
  145.9040   74.0930  220.9730 C   0  0  0  0  0  0  0  0  0  0  0  0
  144.7860   74.7230  220.4560 C   0  0  0  0  0  0  0  0  0  0  0  0
  143.8510   74.0020  219.7350 C   0  0  0  0  0  0  0  0  0  0  0  0
  144.0770   72.6490  219.5560 C   0  0  0  0  0  0  0  0  0  0  0  0
  143.0720   71.8780  218.7830 C   0  0  0  0  0  0  0  0  0  0  0  0
  142.2910   71.1010  219.7080 N   0  0  0  0  0  0  0  0  0  0  0  0
  141.4960   71.7990  220.6670 C   0  0  0  0  0  0  0  0  0  0  0  0
  141.1150   73.0640  220.4420 N   0  0  0  0  0  0  0  0  0  0  0  0
  140.3660   73.7640  221.3140 C   0  0  0  0  0  0  0  0  0  0  0  0
  139.9630   75.1050  221.0810 N   0  0  0  0  0  0  0  0  0  0  0  0
  138.9970   75.8030  221.9110 C   0  0  0  0  0  0  0  0  0  0  0  0
  139.7620   76.8850  222.6300 C   0  0  0  0  0  0  0  0  0  0  0  0
  140.6640   77.5770  221.7590 N   0  0  0  0  0  0  0  0  0  0  0  0
  141.3300   78.7350  222.3050 C   0  0  0  0  0  0  0  0  0  0  0  0
  141.6980   79.8050  221.5130 C   0  0  0  0  0  0  0  0  0  0  0  0
  142.3370   80.9250  222.0120 C   0  0  0  0  0  0  0  0  0  0  0  0
  142.6110   80.9550  223.3720 C   0  0  0  0  0  0  0  0  0  0  0  0
  142.2400   79.8810  224.1670 C   0  0  0  0  0  0  0  0  0  0  0  0
  141.6260   78.8330  223.6150 N   0  0  0  0  0  0  0  0  0  0  0  0
  140.9710   77.2330  220.4070 C   0  0  0  0  0  0  0  0  0  0  0  0
  140.5100   75.8850  219.9630 C   0  0  0  0  0  0  0  0  0  0  0  0
  139.9840   73.1740  222.4540 N   0  0  0  0  0  0  0  0  0  0  0  0
  140.3490   71.8850  222.7240 C   0  0  0  0  0  0  0  0  0  0  0  0
  139.9430   71.2460  223.9450 N   0  0  0  0  0  0  0  0  0  0  0  0
  138.7790   70.3880  223.9140 C   0  0  0  0  0  0  0  0  0  0  0  0
  139.2170   69.0280  224.4580 C   0  0  0  0  0  0  0  0  0  0  0  0
  139.8010   69.2420  225.8070 C   0  0  0  0  0  0  0  0  0  0  0  0
  139.6430   68.2620  226.7800 C   0  0  0  0  0  0  0  0  0  0  0  0
  140.1690   68.4160  228.0600 C   0  0  0  0  0  0  0  0  0  0  0  0
  140.8630   69.5800  228.3430 C   0  0  0  0  0  0  0  0  0  0  0  0
  141.0030   70.5300  227.3610 C   0  0  0  0  0  0  0  0  0  0  0  0
  140.4830   70.3860  226.0830 C   0  0  0  0  0  0  0  0  0  0  0  0
  140.7190   71.4980  225.1380 C   0  0  0  0  0  0  0  0  0  0  0  0
  141.1020   71.2300  221.8140 N   0  0  0  0  0  0  0  0  0  0  0  0
  145.1850   72.0190  220.0660 C   0  0  0  0  0  0  0  0  0  0  0  0
  146.1280   72.7410  220.7920 C   0  0  0  0  0  0  0  0  0  0  0  0
  146.6349   74.6844  221.5440 H   0  0  0  0  0  0  0  0  0  0  0  0
  144.6400   75.8010  220.6188 H   0  0  0  0  0  0  0  0  0  0  0  0
  142.9571   74.4886  219.3177 H   0  0  0  0  0  0  0  0  0  0  0  0
  142.4171   72.5685  218.2314 H   0  0  0  0  0  0  0  0  0  0  0  0
  143.5741   71.2167  218.0615 H   0  0  0  0  0  0  0  0  0  0  0  0
  142.2870   70.0710  219.6980 H   0  0  0  0  0  0  0  0  0  0  0  0
  138.2072   76.2456  221.2863 H   0  0  0  0  0  0  0  0  0  0  0  0
  138.5101   75.1180  222.6207 H   0  0  0  0  0  0  0  0  0  0  0  0
  139.0459   77.6087  223.0465 H   0  0  0  0  0  0  0  0  0  0  0  0
  140.3562   76.4091  223.4240 H   0  0  0  0  0  0  0  0  0  0  0  0
  141.4726   79.7643  220.4371 H   0  0  0  0  0  0  0  0  0  0  0  0
  142.6178   81.7614  221.3551 H   0  0  0  0  0  0  0  0  0  0  0  0
  143.1186   81.8240  223.8161 H   0  0  0  0  0  0  0  0  0  0  0  0
  142.4508   79.8931  225.2466 H   0  0  0  0  0  0  0  0  0  0  0  0
  140.5029   77.9831  219.7525 H   0  0  0  0  0  0  0  0  0  0  0  0
  142.0690   77.2106  220.3446 H   0  0  0  0  0  0  0  0  0  0  0  0
  139.7290   76.0088  219.1983 H   0  0  0  0  0  0  0  0  0  0  0  0
  141.3759   75.3422  219.5560 H   0  0  0  0  0  0  0  0  0  0  0  0
  137.9817   70.8088  224.5442 H   0  0  0  0  0  0  0  0  0  0  0  0
  138.3847   70.2952  222.8913 H   0  0  0  0  0  0  0  0  0  0  0  0
  138.3485   68.3566  224.5290 H   0  0  0  0  0  0  0  0  0  0  0  0
  139.9586   68.5683  223.7881 H   0  0  0  0  0  0  0  0  0  0  0  0
  139.0898   67.3438  226.5332 H   0  0  0  0  0  0  0  0  0  0  0  0
  140.0370   67.6357  228.8240 H   0  0  0  0  0  0  0  0  0  0  0  0
  141.2965   69.7419  229.3410 H   0  0  0  0  0  0  0  0  0  0  0  0
  141.5550   71.4510  227.5998 H   0  0  0  0  0  0  0  0  0  0  0  0
  140.4037   72.4481  225.5940 H   0  0  0  0  0  0  0  0  0  0  0  0
  141.7884   71.5664  224.8895 H   0  0  0  0  0  0  0  0  0  0  0  0
  145.3280   70.9410  219.9005 H   0  0  0  0  0  0  0  0  0  0  0  0
  147.0214   72.2521  221.2077 H   0  0  0  0  0  0  0  0  0  0  0  0
  1  2  2  0
  2  3  1  0
  3  4  2  0
  4  5  1  0
  5  6  1  0
  6  7  1  0
  7  8  2  0
  8  9  1  0
  9 10  1  0
 10 11  1  0
 11 12  1  0
 12 13  1  0
 13 14  1  0
 14 15  2  0
 15 16  1  0
 16 17  2  0
 17 18  1  0
 18 19  2  0
 13 20  1  0
 20 21  1  0
  9 22  2  0
 22 23  1  0
 23 24  1  0
 24 25  1  0
 25 26  1  0
 26 27  1  0
 27 28  2  0
 28 29  1  0
 29 30  2  0
 30 31  1  0
 31 32  2  0
 32 33  1  0
 23 34  2  0
  4 35  1  0
 35 36  2  0
 36  1  1  0
 34  7  1  0
 21 10  1  0
 33 24  1  0
 19 14  1  0
 32 27  1  0
  1 37  1  0
  2 38  1  0
  3 39  1  0
  5 40  1  0
  5 41  1  0
  6 42  1  0
 11 43  1  0
 11 44  1  0
 12 45  1  0
 12 46  1  0
 15 47  1  0
 16 48  1  0
 17 49  1  0
 18 50  1  0
 20 51  1  0
 20 52  1  0
 21 53  1  0
 21 54  1  0
 25 55  1  0
 25 56  1  0
 26 57  1  0
 26 58  1  0
 28 59  1  0
 29 60  1  0
 30 61  1  0
 31 62  1  0
 33 63  1  0
 33 64  1  0
 35 65  1  0
 36 66  1  0
M  END
>  <smiles>  (47) 
c1ccc(CNc2nc(N3CCN(c4ccccn4)CC3)nc(N3CCc4ccccc4C3)n2)cc1

>  <score_type>  (47) 
oracle

>  <origin>  (47) 
autodockgpu

>  <m_score__min__energy>  (47) 
-10.789999999999999

>  <m_primary>  (47) 
energy

>  <rmsd>  (47) 
8.015855255889996

>  <m_score__min__rmsd>  (47) 
8.015855255889996

>  <meeko>  (47) 
{"free_energy": -10.43, "intermolecular_energy": -12.22, "internal_energy": -1.53, "cluster_size": 49, "cluster_id": 1, "rank_in_cluster": 28}

>  <energy>  (47) 
-9.84

>  <cluster_rmsd>  (47) 
1.82

>  <cluster>  (47) 
1

$$$$

     RDKit          3D

 66 71  0  0  0  0  0  0  0  0999 V2000
  143.9690   75.6320  219.4080 C   0  0  0  0  0  0  0  0  0  0  0  0
  144.4390   74.8940  220.4810 C   0  0  0  0  0  0  0  0  0  0  0  0
  144.2710   73.5210  220.5080 C   0  0  0  0  0  0  0  0  0  0  0  0
  143.6270   72.9270  219.4390 C   0  0  0  0  0  0  0  0  0  0  0  0
  143.4490   71.4540  219.4700 C   0  0  0  0  0  0  0  0  0  0  0  0
  142.0480   71.1720  219.6270 N   0  0  0  0  0  0  0  0  0  0  0  0
  141.3240   71.8970  220.6220 C   0  0  0  0  0  0  0  0  0  0  0  0
  140.9750   73.1730  220.4120 N   0  0  0  0  0  0  0  0  0  0  0  0
  140.2920   73.8990  221.3160 C   0  0  0  0  0  0  0  0  0  0  0  0
  139.9230   75.2530  221.0990 N   0  0  0  0  0  0  0  0  0  0  0  0
  138.9140   75.9400  221.8860 C   0  0  0  0  0  0  0  0  0  0  0  0
  139.6460   76.9890  222.6860 C   0  0  0  0  0  0  0  0  0  0  0  0
  140.6120   77.6930  221.8980 N   0  0  0  0  0  0  0  0  0  0  0  0
  141.2560   78.8220  222.5220 C   0  0  0  0  0  0  0  0  0  0  0  0
  140.5430   79.7660  223.2360 C   0  0  0  0  0  0  0  0  0  0  0  0
  141.1360   80.8560  223.8420 C   0  0  0  0  0  0  0  0  0  0  0  0
  142.5110   80.9920  223.7160 C   0  0  0  0  0  0  0  0  0  0  0  0
  143.2280   80.0450  223.0000 C   0  0  0  0  0  0  0  0  0  0  0  0
  142.5860   79.0170  222.4410 N   0  0  0  0  0  0  0  0  0  0  0  0
  141.0020   77.3840  220.5590 C   0  0  0  0  0  0  0  0  0  0  0  0
  140.5530   76.0570  220.0440 C   0  0  0  0  0  0  0  0  0  0  0  0
  139.9460   73.3240  222.4750 N   0  0  0  0  0  0  0  0  0  0  0  0
  140.2810   72.0240  222.7310 C   0  0  0  0  0  0  0  0  0  0  0  0
  139.9120   71.4000  223.9720 N   0  0  0  0  0  0  0  0  0  0  0  0
  138.7430   70.5480  223.9890 C   0  0  0  0  0  0  0  0  0  0  0  0
  139.1920   69.1920  224.5330 C   0  0  0  0  0  0  0  0  0  0  0  0
  139.8230   69.4170  225.8600 C   0  0  0  0  0  0  0  0  0  0  0  0
  139.6910   68.4490  226.8480 C   0  0  0  0  0  0  0  0  0  0  0  0
  140.2610   68.6130  228.1080 C   0  0  0  0  0  0  0  0  0  0  0  0
  140.9710   69.7750  228.3550 C   0  0  0  0  0  0  0  0  0  0  0  0
  141.0830   70.7150  227.3580 C   0  0  0  0  0  0  0  0  0  0  0  0
  140.5190   70.5600  226.1000 C   0  0  0  0  0  0  0  0  0  0  0  0
  140.7290   71.6600  225.1350 C   0  0  0  0  0  0  0  0  0  0  0  0
  140.9670   71.3430  221.7870 N   0  0  0  0  0  0  0  0  0  0  0  0
  143.1580   73.6540  218.3720 C   0  0  0  0  0  0  0  0  0  0  0  0
  143.3250   75.0360  218.3390 C   0  0  0  0  0  0  0  0  0  0  0  0
  144.1118   76.7227  219.4057 H   0  0  0  0  0  0  0  0  0  0  0  0
  144.9475   75.4008  221.3145 H   0  0  0  0  0  0  0  0  0  0  0  0
  144.6384   72.9210  221.3536 H   0  0  0  0  0  0  0  0  0  0  0  0
  143.8136   71.0154  218.5294 H   0  0  0  0  0  0  0  0  0  0  0  0
  144.0188   71.0208  220.3053 H   0  0  0  0  0  0  0  0  0  0  0  0
  141.5570   70.4720  219.0510 H   0  0  0  0  0  0  0  0  0  0  0  0
  138.1721   76.4129  221.2257 H   0  0  0  0  0  0  0  0  0  0  0  0
  138.3727   75.2416  222.5412 H   0  0  0  0  0  0  0  0  0  0  0  0
  138.9141   77.7108  223.0774 H   0  0  0  0  0  0  0  0  0  0  0  0
  140.1811   76.4799  223.5012 H   0  0  0  0  0  0  0  0  0  0  0  0
  139.4535   79.6437  223.3257 H   0  0  0  0  0  0  0  0  0  0  0  0
  140.5398   81.5898  224.4042 H   0  0  0  0  0  0  0  0  0  0  0  0
  143.0285   81.8444  224.1804 H   0  0  0  0  0  0  0  0  0  0  0  0
  144.3187   80.1405  222.8935 H   0  0  0  0  0  0  0  0  0  0  0  0
  140.5882   78.1604  219.8988 H   0  0  0  0  0  0  0  0  0  0  0  0
  142.1013   77.3457  220.5681 H   0  0  0  0  0  0  0  0  0  0  0  0
  139.8260   76.2158  219.2339 H   0  0  0  0  0  0  0  0  0  0  0  0
  141.4363   75.5131  219.6779 H   0  0  0  0  0  0  0  0  0  0  0  0
  137.9692   70.9799  224.6406 H   0  0  0  0  0  0  0  0  0  0  0  0
  138.3143   70.4463  222.9811 H   0  0  0  0  0  0  0  0  0  0  0  0
  138.3229   68.5264  224.6407 H   0  0  0  0  0  0  0  0  0  0  0  0
  139.9083   68.7212  223.8436 H   0  0  0  0  0  0  0  0  0  0  0  0
  139.1234   67.5323  226.6300 H   0  0  0  0  0  0  0  0  0  0  0  0
  140.1502   67.8415  228.8842 H   0  0  0  0  0  0  0  0  0  0  0  0
  141.4394   69.9442  229.3358 H   0  0  0  0  0  0  0  0  0  0  0  0
  141.6476   71.6353  227.5681 H   0  0  0  0  0  0  0  0  0  0  0  0
  140.4348   72.6169  225.5908 H   0  0  0  0  0  0  0  0  0  0  0  0
  141.7897   71.7189  224.8497 H   0  0  0  0  0  0  0  0  0  0  0  0
  142.6491   73.1430  217.5414 H   0  0  0  0  0  0  0  0  0  0  0  0
  142.9573   75.6333  217.4917 H   0  0  0  0  0  0  0  0  0  0  0  0
  1  2  2  0
  2  3  1  0
  3  4  2  0
  4  5  1  0
  5  6  1  0
  6  7  1  0
  7  8  2  0
  8  9  1  0
  9 10  1  0
 10 11  1  0
 11 12  1  0
 12 13  1  0
 13 14  1  0
 14 15  2  0
 15 16  1  0
 16 17  2  0
 17 18  1  0
 18 19  2  0
 13 20  1  0
 20 21  1  0
  9 22  2  0
 22 23  1  0
 23 24  1  0
 24 25  1  0
 25 26  1  0
 26 27  1  0
 27 28  2  0
 28 29  1  0
 29 30  2  0
 30 31  1  0
 31 32  2  0
 32 33  1  0
 23 34  2  0
  4 35  1  0
 35 36  2  0
 36  1  1  0
 34  7  1  0
 21 10  1  0
 33 24  1  0
 19 14  1  0
 32 27  1  0
  1 37  1  0
  2 38  1  0
  3 39  1  0
  5 40  1  0
  5 41  1  0
  6 42  1  0
 11 43  1  0
 11 44  1  0
 12 45  1  0
 12 46  1  0
 15 47  1  0
 16 48  1  0
 17 49  1  0
 18 50  1  0
 20 51  1  0
 20 52  1  0
 21 53  1  0
 21 54  1  0
 25 55  1  0
 25 56  1  0
 26 57  1  0
 26 58  1  0
 28 59  1  0
 29 60  1  0
 30 61  1  0
 31 62  1  0
 33 63  1  0
 33 64  1  0
 35 65  1  0
 36 66  1  0
M  END
>  <smiles>  (48) 
c1ccc(CNc2nc(N3CCN(c4ccccn4)CC3)nc(N3CCc4ccccc4C3)n2)cc1

>  <score_type>  (48) 
oracle

>  <origin>  (48) 
autodockgpu

>  <m_score__min__energy>  (48) 
-10.789999999999999

>  <m_primary>  (48) 
energy

>  <rmsd>  (48) 
7.9802319118398675

>  <m_score__min__rmsd>  (48) 
7.9802319118398675

>  <meeko>  (48) 
{"free_energy": -9.69, "intermolecular_energy": -11.48, "internal_energy": -1.78, "cluster_size": 49, "cluster_id": 1, "rank_in_cluster": 49}

>  <energy>  (48) 
-9.8

>  <cluster_rmsd>  (48) 
1.83

>  <cluster>  (48) 
1

$$$$

     RDKit          3D

 66 71  0  0  0  0  0  0  0  0999 V2000
  145.6470   74.1140  220.9840 C   0  0  0  0  0  0  0  0  0  0  0  0
  144.5670   74.7020  220.3490 C   0  0  0  0  0  0  0  0  0  0  0  0
  143.6940   73.9310  219.6020 C   0  0  0  0  0  0  0  0  0  0  0  0
  143.9400   72.5730  219.5180 C   0  0  0  0  0  0  0  0  0  0  0  0
  143.0020   71.7490  218.7180 C   0  0  0  0  0  0  0  0  0  0  0  0
  142.1470   71.0300  219.6250 N   0  0  0  0  0  0  0  0  0  0  0  0
  141.4050   71.7820  220.5860 C   0  0  0  0  0  0  0  0  0  0  0  0
  141.0620   73.0520  220.3360 N   0  0  0  0  0  0  0  0  0  0  0  0
  140.3640   73.8020  221.2090 C   0  0  0  0  0  0  0  0  0  0  0  0
  140.0010   75.1500  220.9500 N   0  0  0  0  0  0  0  0  0  0  0  0
  138.9720   75.8560  221.6940 C   0  0  0  0  0  0  0  0  0  0  0  0
  139.6830   76.9240  222.4880 C   0  0  0  0  0  0  0  0  0  0  0  0
  140.6700   77.6090  221.7080 N   0  0  0  0  0  0  0  0  0  0  0  0
  141.2980   78.7530  222.3210 C   0  0  0  0  0  0  0  0  0  0  0  0
  141.5430   79.9160  221.6150 C   0  0  0  0  0  0  0  0  0  0  0  0
  142.1440   81.0250  222.1790 C   0  0  0  0  0  0  0  0  0  0  0  0
  142.5090   80.9480  223.5160 C   0  0  0  0  0  0  0  0  0  0  0  0
  142.2610   79.7810  224.2250 C   0  0  0  0  0  0  0  0  0  0  0  0
  141.6770   78.7490  223.6130 N   0  0  0  0  0  0  0  0  0  0  0  0
  141.0940   77.2680  220.3870 C   0  0  0  0  0  0  0  0  0  0  0  0
  140.6580   75.9290  219.8930 C   0  0  0  0  0  0  0  0  0  0  0  0
  139.9940   73.2570  222.3760 N   0  0  0  0  0  0  0  0  0  0  0  0
  140.3220   71.9640  222.6710 C   0  0  0  0  0  0  0  0  0  0  0  0
  139.9280   71.3720  223.9200 N   0  0  0  0  0  0  0  0  0  0  0  0
  138.7770   70.4970  223.9310 C   0  0  0  0  0  0  0  0  0  0  0  0
  139.2370   69.1690  224.5320 C   0  0  0  0  0  0  0  0  0  0  0  0
  139.8220   69.4500  225.8690 C   0  0  0  0  0  0  0  0  0  0  0  0
  139.6810   68.5120  226.8840 C   0  0  0  0  0  0  0  0  0  0  0  0
  140.2090   68.7290  228.1540 C   0  0  0  0  0  0  0  0  0  0  0  0
  140.8870   69.9130  228.3830 C   0  0  0  0  0  0  0  0  0  0  0  0
  141.0100   70.8220  227.3600 C   0  0  0  0  0  0  0  0  0  0  0  0
  140.4880   70.6150  226.0920 C   0  0  0  0  0  0  0  0  0  0  0  0
  140.7050   71.6870  225.0980 C   0  0  0  0  0  0  0  0  0  0  0  0
  141.0250   71.2580  221.7590 N   0  0  0  0  0  0  0  0  0  0  0  0
  145.0100   71.9840  220.1460 C   0  0  0  0  0  0  0  0  0  0  0  0
  145.8920   72.7560  220.8980 C   0  0  0  0  0  0  0  0  0  0  0  0
  146.3292   74.7444  221.5733 H   0  0  0  0  0  0  0  0  0  0  0  0
  144.4021   75.7859  220.4384 H   0  0  0  0  0  0  0  0  0  0  0  0
  142.8316   74.3841  219.0912 H   0  0  0  0  0  0  0  0  0  0  0  0
  142.3949   72.3989  218.0706 H   0  0  0  0  0  0  0  0  0  0  0  0
  143.5612   71.0445  218.0849 H   0  0  0  0  0  0  0  0  0  0  0  0
  142.0540   70.0040  219.6010 H   0  0  0  0  0  0  0  0  0  0  0  0
  138.2480   76.3130  221.0033 H   0  0  0  0  0  0  0  0  0  0  0  0
  138.4136   75.1733  222.3514 H   0  0  0  0  0  0  0  0  0  0  0  0
  138.9414   77.6549  222.8427 H   0  0  0  0  0  0  0  0  0  0  0  0
  140.1960   76.4351  223.3293 H   0  0  0  0  0  0  0  0  0  0  0  0
  141.2462   79.9605  220.5567 H   0  0  0  0  0  0  0  0  0  0  0  0
  142.3266   81.9358  221.5899 H   0  0  0  0  0  0  0  0  0  0  0  0
  142.9909   81.8049  224.0095 H   0  0  0  0  0  0  0  0  0  0  0  0
  142.5442   79.7072  225.2854 H   0  0  0  0  0  0  0  0  0  0  0  0
  140.6973   78.0281  219.6979 H   0  0  0  0  0  0  0  0  0  0  0  0
  142.1927   77.2305  220.4250 H   0  0  0  0  0  0  0  0  0  0  0  0
  139.9520   76.0681  219.0610 H   0  0  0  0  0  0  0  0  0  0  0  0
  141.5504   75.3769  219.5632 H   0  0  0  0  0  0  0  0  0  0  0  0
  137.9756   70.9332  224.5454 H   0  0  0  0  0  0  0  0  0  0  0  0
  138.3804   70.3539  222.9150 H   0  0  0  0  0  0  0  0  0  0  0  0
  138.3790   68.4885  224.6352 H   0  0  0  0  0  0  0  0  0  0  0  0
  139.9836   68.6919  223.8801 H   0  0  0  0  0  0  0  0  0  0  0  0
  139.1398   67.5764  226.6797 H   0  0  0  0  0  0  0  0  0  0  0  0
  140.0905   67.9810  228.9518 H   0  0  0  0  0  0  0  0  0  0  0  0
  141.3219   70.1239  229.3711 H   0  0  0  0  0  0  0  0  0  0  0  0
  141.5492   71.7604  227.5565 H   0  0  0  0  0  0  0  0  0  0  0  0
  140.3783   72.6519  225.5130 H   0  0  0  0  0  0  0  0  0  0  0  0
  141.7724   71.7588  224.8422 H   0  0  0  0  0  0  0  0  0  0  0  0
  145.1707   70.8996  220.0548 H   0  0  0  0  0  0  0  0  0  0  0  0
  146.7546   72.3006  221.4065 H   0  0  0  0  0  0  0  0  0  0  0  0
  1  2  2  0
  2  3  1  0
  3  4  2  0
  4  5  1  0
  5  6  1  0
  6  7  1  0
  7  8  2  0
  8  9  1  0
  9 10  1  0
 10 11  1  0
 11 12  1  0
 12 13  1  0
 13 14  1  0
 14 15  2  0
 15 16  1  0
 16 17  2  0
 17 18  1  0
 18 19  2  0
 13 20  1  0
 20 21  1  0
  9 22  2  0
 22 23  1  0
 23 24  1  0
 24 25  1  0
 25 26  1  0
 26 27  1  0
 27 28  2  0
 28 29  1  0
 29 30  2  0
 30 31  1  0
 31 32  2  0
 32 33  1  0
 23 34  2  0
  4 35  1  0
 35 36  2  0
 36  1  1  0
 34  7  1  0
 21 10  1  0
 33 24  1  0
 19 14  1  0
 32 27  1  0
  1 37  1  0
  2 38  1  0
  3 39  1  0
  5 40  1  0
  5 41  1  0
  6 42  1  0
 11 43  1  0
 11 44  1  0
 12 45  1  0
 12 46  1  0
 15 47  1  0
 16 48  1  0
 17 49  1  0
 18 50  1  0
 20 51  1  0
 20 52  1  0
 21 53  1  0
 21 54  1  0
 25 55  1  0
 25 56  1  0
 26 57  1  0
 26 58  1  0
 28 59  1  0
 29 60  1  0
 30 61  1  0
 31 62  1  0
 33 63  1  0
 33 64  1  0
 35 65  1  0
 36 66  1  0
M  END
>  <smiles>  (49) 
c1ccc(CNc2nc(N3CCN(c4ccccn4)CC3)nc(N3CCc4ccccc4C3)n2)cc1

>  <score_type>  (49) 
oracle

>  <origin>  (49) 
autodockgpu

>  <m_score__min__energy>  (49) 
-10.789999999999999

>  <m_primary>  (49) 
energy

>  <rmsd>  (49) 
8.004988193452085

>  <m_score__min__rmsd>  (49) 
8.004988193452085

>  <meeko>  (49) 
{"free_energy": -10.34, "intermolecular_energy": -12.12, "internal_energy": -1.53, "cluster_size": 49, "cluster_id": 1, "rank_in_cluster": 30}

>  <energy>  (49) 
-9.69

>  <cluster_rmsd>  (49) 
1.88

>  <cluster>  (49) 
1

$$$$

     RDKit          3D

 66 71  0  0  0  0  0  0  0  0999 V2000
  145.8600   74.1190  221.0160 C   0  0  0  0  0  0  0  0  0  0  0  0
  144.7780   74.7880  220.4700 C   0  0  0  0  0  0  0  0  0  0  0  0
  143.8430   74.1010  219.7150 C   0  0  0  0  0  0  0  0  0  0  0  0
  144.0310   72.7430  219.5330 C   0  0  0  0  0  0  0  0  0  0  0  0
  143.0270   72.0090  218.7250 C   0  0  0  0  0  0  0  0  0  0  0  0
  142.1810   71.2670  219.6210 N   0  0  0  0  0  0  0  0  0  0  0  0
  141.4210   71.9970  220.5850 C   0  0  0  0  0  0  0  0  0  0  0  0
  141.0740   73.2700  220.3530 N   0  0  0  0  0  0  0  0  0  0  0  0
  140.3580   74.0000  221.2290 C   0  0  0  0  0  0  0  0  0  0  0  0
  139.9910   75.3500  220.9890 N   0  0  0  0  0  0  0  0  0  0  0  0
  138.9070   76.0180  221.6880 C   0  0  0  0  0  0  0  0  0  0  0  0
  139.5510   77.0700  222.5560 C   0  0  0  0  0  0  0  0  0  0  0  0
  140.5730   77.7930  221.8600 N   0  0  0  0  0  0  0  0  0  0  0  0
  141.1440   78.9260  222.5450 C   0  0  0  0  0  0  0  0  0  0  0  0
  142.5090   79.1330  222.6010 C   0  0  0  0  0  0  0  0  0  0  0  0
  143.0800   80.2110  223.2510 C   0  0  0  0  0  0  0  0  0  0  0  0
  142.2270   81.1140  223.8690 C   0  0  0  0  0  0  0  0  0  0  0  0
  140.8560   80.9070  223.8120 C   0  0  0  0  0  0  0  0  0  0  0  0
  140.3770   79.8430  223.1660 N   0  0  0  0  0  0  0  0  0  0  0  0
  141.0830   77.5000  220.5590 C   0  0  0  0  0  0  0  0  0  0  0  0
  140.7000   76.1710  219.9980 C   0  0  0  0  0  0  0  0  0  0  0  0
  139.9750   73.4320  222.3800 N   0  0  0  0  0  0  0  0  0  0  0  0
  140.3070   72.1360  222.6570 C   0  0  0  0  0  0  0  0  0  0  0  0
  139.8990   71.5200  223.8900 N   0  0  0  0  0  0  0  0  0  0  0  0
  138.7280   70.6720  223.8770 C   0  0  0  0  0  0  0  0  0  0  0  0
  139.1560   69.3180  224.4410 C   0  0  0  0  0  0  0  0  0  0  0  0
  139.7480   69.5480  225.7850 C   0  0  0  0  0  0  0  0  0  0  0  0
  139.5840   68.5860  226.7740 C   0  0  0  0  0  0  0  0  0  0  0  0
  140.1170   68.7550  228.0500 C   0  0  0  0  0  0  0  0  0  0  0  0
  140.8220   69.9170  228.3110 C   0  0  0  0  0  0  0  0  0  0  0  0
  140.9670   70.8500  227.3130 C   0  0  0  0  0  0  0  0  0  0  0  0
  140.4400   70.6900  226.0400 C   0  0  0  0  0  0  0  0  0  0  0  0
  140.6830   71.7840  225.0750 C   0  0  0  0  0  0  0  0  0  0  0  0
  141.0270   71.4500  221.7420 N   0  0  0  0  0  0  0  0  0  0  0  0
  145.1030   72.0740  220.0720 C   0  0  0  0  0  0  0  0  0  0  0  0
  146.0460   72.7610  220.8320 C   0  0  0  0  0  0  0  0  0  0  0  0
  146.5920   74.6831  221.6127 H   0  0  0  0  0  0  0  0  0  0  0  0
  144.6608   75.8690  220.6366 H   0  0  0  0  0  0  0  0  0  0  0  0
  142.9783   74.6185  219.2740 H   0  0  0  0  0  0  0  0  0  0  0  0
  142.4213   72.7224  218.1468 H   0  0  0  0  0  0  0  0  0  0  0  0
  143.5301   71.3253  218.0254 H   0  0  0  0  0  0  0  0  0  0  0  0
  142.1070   70.2400  219.5890 H   0  0  0  0  0  0  0  0  0  0  0  0
  138.2201   76.4862  220.9676 H   0  0  0  0  0  0  0  0  0  0  0  0
  138.3194   75.3078  222.2883 H   0  0  0  0  0  0  0  0  0  0  0  0
  138.7776   77.7790  222.8863 H   0  0  0  0  0  0  0  0  0  0  0  0
  140.0194   76.5619  223.4118 H   0  0  0  0  0  0  0  0  0  0  0  0
  143.1711   78.4073  222.1060 H   0  0  0  0  0  0  0  0  0  0  0  0
  144.1711   80.3480  223.2774 H   0  0  0  0  0  0  0  0  0  0  0  0
  142.6342   81.9871  224.3999 H   0  0  0  0  0  0  0  0  0  0  0  0
  140.1686   81.6160  224.2966 H   0  0  0  0  0  0  0  0  0  0  0  0
  140.7174   78.2757  219.8701 H   0  0  0  0  0  0  0  0  0  0  0  0
  142.1777   77.4769  220.6642 H   0  0  0  0  0  0  0  0  0  0  0  0
  140.0447   76.3260  219.1282 H   0  0  0  0  0  0  0  0  0  0  0  0
  141.6197   75.6421  219.7074 H   0  0  0  0  0  0  0  0  0  0  0  0
  137.9366   71.1098  224.5032 H   0  0  0  0  0  0  0  0  0  0  0  0
  138.3291   70.5661  222.8573 H   0  0  0  0  0  0  0  0  0  0  0  0
  138.2819   68.6557  224.5262 H   0  0  0  0  0  0  0  0  0  0  0  0
  139.8909   68.8414  223.7756 H   0  0  0  0  0  0  0  0  0  0  0  0
  139.0203   67.6698  226.5442 H   0  0  0  0  0  0  0  0  0  0  0  0
  139.9816   67.9879  228.8267 H   0  0  0  0  0  0  0  0  0  0  0  0
  141.2606   70.0913  229.3046 H   0  0  0  0  0  0  0  0  0  0  0  0
  141.5288   71.7694  227.5345 H   0  0  0  0  0  0  0  0  0  0  0  0
  140.3795   72.7448  225.5164 H   0  0  0  0  0  0  0  0  0  0  0  0
  141.7519   71.8373  224.8206 H   0  0  0  0  0  0  0  0  0  0  0  0
  145.2167   70.9930  219.9028 H   0  0  0  0  0  0  0  0  0  0  0  0
  146.9100   72.2410  221.2713 H   0  0  0  0  0  0  0  0  0  0  0  0
  1  2  2  0
  2  3  1  0
  3  4  2  0
  4  5  1  0
  5  6  1  0
  6  7  1  0
  7  8  2  0
  8  9  1  0
  9 10  1  0
 10 11  1  0
 11 12  1  0
 12 13  1  0
 13 14  1  0
 14 15  2  0
 15 16  1  0
 16 17  2  0
 17 18  1  0
 18 19  2  0
 13 20  1  0
 20 21  1  0
  9 22  2  0
 22 23  1  0
 23 24  1  0
 24 25  1  0
 25 26  1  0
 26 27  1  0
 27 28  2  0
 28 29  1  0
 29 30  2  0
 30 31  1  0
 31 32  2  0
 32 33  1  0
 23 34  2  0
  4 35  1  0
 35 36  2  0
 36  1  1  0
 34  7  1  0
 21 10  1  0
 33 24  1  0
 19 14  1  0
 32 27  1  0
  1 37  1  0
  2 38  1  0
  3 39  1  0
  5 40  1  0
  5 41  1  0
  6 42  1  0
 11 43  1  0
 11 44  1  0
 12 45  1  0
 12 46  1  0
 15 47  1  0
 16 48  1  0
 17 49  1  0
 18 50  1  0
 20 51  1  0
 20 52  1  0
 21 53  1  0
 21 54  1  0
 25 55  1  0
 25 56  1  0
 26 57  1  0
 26 58  1  0
 28 59  1  0
 29 60  1  0
 30 61  1  0
 31 62  1  0
 33 63  1  0
 33 64  1  0
 35 65  1  0
 36 66  1  0
M  END
>  <smiles>  (50) 
c1ccc(CNc2nc(N3CCN(c4ccccn4)CC3)nc(N3CCc4ccccc4C3)n2)cc1

>  <score_type>  (50) 
oracle

>  <origin>  (50) 
autodockgpu

>  <m_score__min__energy>  (50) 
-10.789999999999999

>  <m_primary>  (50) 
energy

>  <rmsd>  (50) 
7.980940891111766

>  <m_score__min__rmsd>  (50) 
7.980940891111766

>  <meeko>  (50) 
{"free_energy": -10.65, "intermolecular_energy": -12.44, "internal_energy": -1.54, "cluster_size": 49, "cluster_id": 1, "rank_in_cluster": 8}

>  <energy>  (50) 
-9.32

>  <cluster_rmsd>  (50) 
0.0

>  <cluster>  (50) 
2

$$$$
