
     RDKit          3D

 61 64  0  0  0  0  0  0  0  0999 V2000
  138.6790   71.0670  221.1580 O   0  0  0  0  0  0  0  0  0  0  0  0
  138.9950   71.7790  222.1730 C   0  0  0  0  0  0  0  0  0  0  0  0
  138.9840   73.2200  222.0590 N   0  0  0  0  0  0  0  0  0  0  0  0
  138.6400   73.9210  220.8930 C   0  0  0  0  0  0  0  0  0  0  0  0
  139.2590   73.7090  219.6100 C   0  0  0  0  0  0  0  0  0  0  0  0
  138.9380   72.5680  219.0600 O   0  0  0  0  0  0  0  0  0  0  0  0
  140.1430   74.4900  218.8320 N   0  0  0  0  0  0  0  0  0  0  0  0
  139.9330   74.6350  217.3990 C   0  0  0  0  0  0  0  0  0  0  0  0
  140.3580   75.9160  216.7740 C   0  0  0  0  0  0  0  0  0  0  0  0
  141.4300   76.6290  217.4990 C   0  0  0  0  0  0  0  0  0  0  0  0
  141.1810   76.6300  219.0110 C   0  0  0  0  0  0  0  0  0  0  0  0
  141.3190   75.1370  219.3820 C   0  0  1  0  0  0  0  0  0  0  0  0
  141.5910   74.9830  220.8230 C   0  0  0  0  0  0  0  0  0  0  0  0
  141.4890   76.3260  221.4510 N   0  0  0  0  0  0  0  0  0  0  0  0
  140.4750   76.6660  222.3520 C   0  0  0  0  0  0  0  0  0  0  0  0
  139.5580   75.8890  222.7190 O   0  0  0  0  0  0  0  0  0  0  0  0
  140.4650   78.0340  222.9260 C   0  0  0  0  0  0  0  0  0  0  0  0
  140.4400   79.0980  221.8520 C   0  0  0  0  0  0  0  0  0  0  0  0
  140.8810   80.3510  222.6140 C   0  0  0  0  0  0  0  0  0  0  0  0
  141.8240   79.8570  223.6830 C   0  0  0  0  0  0  0  0  0  0  0  0
  141.7500   78.3540  223.6570 C   0  0  0  0  0  0  0  0  0  0  0  0
  139.3620   71.1350  223.4310 C   0  0  0  0  0  0  0  0  0  0  0  0
  139.1210   69.7870  223.5880 C   0  0  0  0  0  0  0  0  0  0  0  0
  139.4310   69.0890  224.7350 C   0  0  0  0  0  0  0  0  0  0  0  0
  140.0180   69.8350  225.7630 C   0  0  0  0  0  0  0  0  0  0  0  0
  140.3300   69.1320  226.9180 C   0  0  0  0  0  0  0  0  0  0  0  0
  140.9070   69.8420  227.9400 C   0  0  0  0  0  0  0  0  0  0  0  0
  141.2160   69.1560  229.0780 F   0  0  0  0  0  0  0  0  0  0  0  0
  141.1600   71.1850  227.8140 C   0  0  0  0  0  0  0  0  0  0  0  0
  140.8420   71.8850  226.6460 C   0  0  0  0  0  0  0  0  0  0  0  0
  140.2610   71.1780  225.6130 C   0  0  0  0  0  0  0  0  0  0  0  0
  139.9320   71.8070  224.4560 N   0  0  0  0  0  0  0  0  0  0  0  0
  139.2630   73.7110  222.9530 H   0  0  0  0  0  0  0  0  0  0  0  0
  137.5667   73.7349  220.7398 H   0  0  0  0  0  0  0  0  0  0  0  0
  139.0109   74.9270  221.1387 H   0  0  0  0  0  0  0  0  0  0  0  0
  140.4851   73.8248  216.9004 H   0  0  0  0  0  0  0  0  0  0  0  0
  138.8411   74.6056  217.2690 H   0  0  0  0  0  0  0  0  0  0  0  0
  140.7173   75.6989  215.7572 H   0  0  0  0  0  0  0  0  0  0  0  0
  139.4788   76.5768  216.7894 H   0  0  0  0  0  0  0  0  0  0  0  0
  142.3904   76.1329  217.2953 H   0  0  0  0  0  0  0  0  0  0  0  0
  141.4467   77.6725  217.1513 H   0  0  0  0  0  0  0  0  0  0  0  0
  141.9314   77.2396  219.5357 H   0  0  0  0  0  0  0  0  0  0  0  0
  140.2083   77.0602  219.2917 H   0  0  0  0  0  0  0  0  0  0  0  0
  142.1918   74.6295  218.9455 H   0  0  0  0  0  0  0  0  0  0  0  0
  140.8526   74.3027  221.2725 H   0  0  0  0  0  0  0  0  0  0  0  0
  142.5940   74.5601  220.9815 H   0  0  0  0  0  0  0  0  0  0  0  0
  142.2120   77.0520  221.2040 H   0  0  0  0  0  0  0  0  0  0  0  0
  139.5770   78.0412  223.5752 H   0  0  0  0  0  0  0  0  0  0  0  0
  141.1424   78.8592  221.0399 H   0  0  0  0  0  0  0  0  0  0  0  0
  139.4599   79.2046  221.3640 H   0  0  0  0  0  0  0  0  0  0  0  0
  141.3962   81.0506  221.9394 H   0  0  0  0  0  0  0  0  0  0  0  0
  140.0246   80.8929  223.0418 H   0  0  0  0  0  0  0  0  0  0  0  0
  142.8500   80.1907  223.4684 H   0  0  0  0  0  0  0  0  0  0  0  0
  141.5466   80.2518  224.6715 H   0  0  0  0  0  0  0  0  0  0  0  0
  142.6139   77.9343  223.1208 H   0  0  0  0  0  0  0  0  0  0  0  0
  141.7659   77.9235  224.6691 H   0  0  0  0  0  0  0  0  0  0  0  0
  138.6570   69.2398  222.7542 H   0  0  0  0  0  0  0  0  0  0  0  0
  139.2295   68.0123  224.8361 H   0  0  0  0  0  0  0  0  0  0  0  0
  140.1242   68.0553  227.0097 H   0  0  0  0  0  0  0  0  0  0  0  0
  141.6245   71.7242  228.6527 H   0  0  0  0  0  0  0  0  0  0  0  0
  141.0478   72.9616  226.5538 H   0  0  0  0  0  0  0  0  0  0  0  0
  1  2  2  0
  2  3  1  0
  3  4  1  0
  4  5  1  0
  5  6  2  0
  5  7  1  0
  7  8  1  0
  8  9  1  0
  9 10  1  0
 10 11  1  0
 11 12  1  0
 12 13  1  0
 13 14  1  0
 14 15  1  0
 15 16  2  0
 15 17  1  0
 17 18  1  0
 18 19  1  0
 19 20  1  0
 20 21  1  0
  2 22  1  0
 22 23  2  0
 23 24  1  0
 24 25  2  0
 25 26  1  0
 26 27  2  0
 27 28  1  0
 27 29  1  0
 29 30  2  0
 30 31  1  0
 31 32  2  0
 12  7  1  0
 21 17  1  0
 32 22  1  0
 31 25  1  0
  3 33  1  0
  4 34  1  0
  4 35  1  0
  8 36  1  0
  8 37  1  0
  9 38  1  0
  9 39  1  0
 10 40  1  0
 10 41  1  0
 11 42  1  0
 11 43  1  0
 12 44  1  6
 13 45  1  0
 13 46  1  0
 14 47  1  0
 17 48  1  0
 18 49  1  0
 18 50  1  0
 19 51  1  0
 19 52  1  0
 20 53  1  0
 20 54  1  0
 21 55  1  0
 21 56  1  0
 23 57  1  0
 24 58  1  0
 26 59  1  0
 29 60  1  0
 30 61  1  0
M  END
