
     RDKit          3D

 59 64  0  0  0  0  0  0  0  0999 V2000
  141.7600   72.1340  221.3200 O   0  0  0  0  0  0  0  0  0  0  0  0
  140.7200   72.3910  222.0100 C   0  0  0  0  0  0  0  0  0  0  0  0
  140.4310   71.5550  223.1870 C   0  0  0  0  0  0  0  0  0  0  0  0
  140.7080   71.9160  224.5130 C   0  0  0  0  0  0  0  0  0  0  0  0
  140.2840   70.8730  225.3070 C   0  0  0  0  0  0  0  0  0  0  0  0
  140.2840   70.6410  226.6880 C   0  0  0  0  0  0  0  0  0  0  0  0
  140.8110   71.6300  227.4590 F   0  0  0  0  0  0  0  0  0  0  0  0
  139.7830   69.4880  227.2270 C   0  0  0  0  0  0  0  0  0  0  0  0
  139.2570   68.5060  226.4220 C   0  0  0  0  0  0  0  0  0  0  0  0
  139.2500   68.7200  225.0530 C   0  0  0  0  0  0  0  0  0  0  0  0
  139.7530   69.8800  224.4810 C   0  0  0  0  0  0  0  0  0  0  0  0
  139.8650   70.3390  223.2110 N   0  0  0  0  0  0  0  0  0  0  0  0
  139.9000   73.4630  221.6170 N   0  0  0  0  0  0  0  0  0  0  0  0
  140.2370   74.6460  220.8360 C   0  0  0  0  0  0  0  0  0  0  0  0
  139.3470   75.6720  221.5210 C   0  0  2  0  0  0  0  0  0  0  0  0
  138.9030   76.7710  220.5800 C   0  0  0  0  0  0  0  0  0  0  0  0
  138.9930   78.0040  221.4710 C   0  0  0  0  0  0  0  0  0  0  0  0
  140.2240   77.7900  222.2030 N   0  0  0  0  0  0  0  0  0  0  0  0
  141.3770   78.0640  221.4060 C   0  0  0  0  0  0  0  0  0  0  0  0
  142.1440   79.2360  221.9530 C   0  0  0  0  0  0  0  0  0  0  0  0
  141.5820   80.5710  221.6210 C   0  0  0  0  0  0  0  0  0  0  0  0
  141.8060   81.4830  222.7980 C   0  0  0  0  0  0  0  0  0  0  0  0
  142.6020   80.6490  223.8010 C   0  0  0  0  0  0  0  0  0  0  0  0
  142.1890   79.2150  223.4720 C   0  0  0  0  0  0  0  0  0  0  0  0
  140.1310   76.3780  222.5640 C   0  0  0  0  0  0  0  0  0  0  0  0
  138.1580   74.9420  221.9610 C   0  0  0  0  0  0  0  0  0  0  0  0
  136.8570   75.2620  222.3030 C   0  0  0  0  0  0  0  0  0  0  0  0
  135.9090   74.3230  222.6430 C   0  0  0  0  0  0  0  0  0  0  0  0
  136.2500   73.0000  222.6480 C   0  0  0  0  0  0  0  0  0  0  0  0
  137.5400   72.6460  222.3130 C   0  0  0  0  0  0  0  0  0  0  0  0
  138.5070   73.5920  221.9690 C   0  0  0  0  0  0  0  0  0  0  0  0
  141.1743   72.8521  224.8540 H   0  0  0  0  0  0  0  0  0  0  0  0
  139.8013   69.3450  228.3175 H   0  0  0  0  0  0  0  0  0  0  0  0
  138.8534   67.5774  226.8519 H   0  0  0  0  0  0  0  0  0  0  0  0
  138.8310   67.9431  224.3966 H   0  0  0  0  0  0  0  0  0  0  0  0
  139.5410   69.7950  222.3850 H   0  0  0  0  0  0  0  0  0  0  0  0
  141.3025   74.9047  220.9248 H   0  0  0  0  0  0  0  0  0  0  0  0
  140.0823   74.5466  219.7515 H   0  0  0  0  0  0  0  0  0  0  0  0
  139.5769   76.8529  219.7144 H   0  0  0  0  0  0  0  0  0  0  0  0
  137.9053   76.6083  220.1462 H   0  0  0  0  0  0  0  0  0  0  0  0
  139.0460   78.9232  220.8692 H   0  0  0  0  0  0  0  0  0  0  0  0
  138.1173   78.1305  222.1245 H   0  0  0  0  0  0  0  0  0  0  0  0
  142.0292   77.1782  221.4004 H   0  0  0  0  0  0  0  0  0  0  0  0
  141.0476   78.3065  220.3849 H   0  0  0  0  0  0  0  0  0  0  0  0
  143.1296   79.1153  221.4798 H   0  0  0  0  0  0  0  0  0  0  0  0
  142.0886   80.9777  220.7333 H   0  0  0  0  0  0  0  0  0  0  0  0
  140.5066   80.4870  221.4052 H   0  0  0  0  0  0  0  0  0  0  0  0
  142.3783   82.3720  222.4945 H   0  0  0  0  0  0  0  0  0  0  0  0
  140.8593   81.8471  223.2237 H   0  0  0  0  0  0  0  0  0  0  0  0
  143.6838   80.7897  223.6598 H   0  0  0  0  0  0  0  0  0  0  0  0
  142.4010   80.9257  224.8465 H   0  0  0  0  0  0  0  0  0  0  0  0
  142.9317   78.4915  223.8393 H   0  0  0  0  0  0  0  0  0  0  0  0
  141.2405   78.9100  223.9383 H   0  0  0  0  0  0  0  0  0  0  0  0
  141.1400   75.9443  222.6258 H   0  0  0  0  0  0  0  0  0  0  0  0
  139.6365   76.2723  223.5409 H   0  0  0  0  0  0  0  0  0  0  0  0
  136.5640   76.3223  222.3035 H   0  0  0  0  0  0  0  0  0  0  0  0
  134.8879   74.6348  222.9078 H   0  0  0  0  0  0  0  0  0  0  0  0
  135.5094   72.2315  222.9143 H   0  0  0  0  0  0  0  0  0  0  0  0
  137.8165   71.5813  222.3170 H   0  0  0  0  0  0  0  0  0  0  0  0
  1  2  2  0
  2  3  1  0
  3  4  2  0
  4  5  1  0
  5  6  2  0
  6  7  1  0
  6  8  1  0
  8  9  2  0
  9 10  1  0
 10 11  2  0
 11 12  1  0
  2 13  1  0
 13 14  1  0
 15 14  1  6
 15 16  1  0
 16 17  1  0
 17 18  1  0
 18 19  1  0
 19 20  1  0
 20 21  1  0
 21 22  1  0
 22 23  1  0
 23 24  1  0
 18 25  1  0
 15 26  1  0
 26 27  2  0
 27 28  1  0
 28 29  2  0
 29 30  1  0
 30 31  2  0
 12  3  1  0
 31 13  1  0
 11  5  1  0
 25 15  1  0
 31 26  1  0
 24 20  1  0
  4 32  1  0
  8 33  1  0
  9 34  1  0
 10 35  1  0
 12 36  1  0
 14 37  1  0
 14 38  1  0
 16 39  1  0
 16 40  1  0
 17 41  1  0
 17 42  1  0
 19 43  1  0
 19 44  1  0
 20 45  1  0
 21 46  1  0
 21 47  1  0
 22 48  1  0
 22 49  1  0
 23 50  1  0
 23 51  1  0
 24 52  1  0
 24 53  1  0
 25 54  1  0
 25 55  1  0
 27 56  1  0
 28 57  1  0
 29 58  1  0
 30 59  1  0
M  END
