@<TRIPOS>MOLECULE
*****
 70 75 0 0 0
SMALL
GASTEIGER

@<TRIPOS>ATOM
      1 N         140.5220   71.6330  224.4630 N.3     1  UNL1       -0.3257
      2 C         139.7200   70.5580  223.9410 C.3     1  UNL1        0.0245
      3 C         138.9420   71.0160  222.7330 C.3     1  UNL1        0.0273
      4 N         138.7810   72.4530  222.7080 N.pl3   1  UNL1       -0.3118
      5 C         139.8000   73.2520  222.1230 C.ar    1  UNL1        0.2211
      6 N         139.6850   74.6080  222.0150 N.ar    1  UNL1       -0.1809
      7 C         140.6440   75.3560  221.4650 C.ar    1  UNL1        0.2240
      8 N         140.4480   76.7630  221.3900 N.pl3   1  UNL1       -0.2948
      9 C         140.6590   77.4720  220.1420 C.3     1  UNL1        0.0192
     10 C         141.7380   78.5230  220.2920 C.3     1  UNL1       -0.0115
     11 C         141.7350   79.1350  221.6370 C.ar    1  UNL1       -0.0412
     12 C         142.5710   80.2090  221.8490 C.ar    1  UNL1       -0.0582
     13 C         142.6380   80.8420  223.0650 C.ar    1  UNL1       -0.0615
     14 C         141.8470   80.4050  224.1280 C.ar    1  UNL1       -0.0614
     15 C         141.0070   79.3280  223.9220 C.ar    1  UNL1       -0.0568
     16 C         140.9580   78.7050  222.6840 C.ar    1  UNL1       -0.0269
     17 C         140.0350   77.5570  222.5320 C.3     1  UNL1        0.0402
     18 N         141.7750   74.8150  220.9870 N.ar    1  UNL1       -0.1807
     19 C         141.9190   73.4650  221.0810 C.ar    1  UNL1        0.2240
     20 N         143.0960   72.8080  220.5950 N.pl3   1  UNL1       -0.2948
     21 C         143.9530   73.4730  219.6130 C.3     1  UNL1        0.0192
     22 C         145.3400   72.8400  219.7880 C.3     1  UNL1       -0.0115
     23 C         145.1270   71.4080  219.3690 C.ar    1  UNL1       -0.0412
     24 C         145.8790   70.8270  218.3690 C.ar    1  UNL1       -0.0582
     25 C         145.6110   69.5140  218.0560 C.ar    1  UNL1       -0.0615
     26 C         144.6270   68.8120  218.7200 C.ar    1  UNL1       -0.0614
     27 C         143.8930   69.4270  219.7170 C.ar    1  UNL1       -0.0568
     28 C         144.1330   70.7350  220.0550 C.ar    1  UNL1       -0.0269
     29 C         143.4030   71.4760  221.1030 C.3     1  UNL1        0.0402
     30 N         140.9410   72.7310  221.6380 N.ar    1  UNL1       -0.1809
     31 C         138.7410   70.0360  224.9730 C.3     1  UNL1       -0.0110
     32 C         139.5730   69.4000  226.0390 C.ar    1  UNL1       -0.0458
     33 C         139.8910   68.0650  225.8570 C.ar    1  UNL1       -0.0585
     34 C         140.6590   67.3920  226.7950 C.ar    1  UNL1       -0.0615
     35 C         141.0840   68.1180  227.9070 C.ar    1  UNL1       -0.0617
     36 C         140.7770   69.4380  228.0990 C.ar    1  UNL1       -0.0615
     37 C         140.0090   70.0800  227.1440 C.ar    1  UNL1       -0.0585
     38 H         141.0650   72.1090  223.7030 H       1  UNL1        0.1185
     39 H         140.0210   72.2890  225.0910 H       1  UNL1        0.1185
     40 H         140.4123   69.7496  223.6631 H       1  UNL1        0.0477
     41 H         139.4779   70.7024  221.8250 H       1  UNL1        0.0477
     42 H         137.9413   70.5617  222.7798 H       1  UNL1        0.0477
     43 H         137.9510   72.9530  223.0970 H       1  UNL1        0.1490
     44 H         140.9621   76.7532  219.3665 H       1  UNL1        0.0468
     45 H         139.7204   77.9707  219.8588 H       1  UNL1        0.0468
     46 H         142.7173   78.0532  220.1183 H       1  UNL1        0.0328
     47 H         141.5408   79.3180  219.5578 H       1  UNL1        0.0328
     48 H         143.2013   80.5687  221.0223 H       1  UNL1        0.0620
     49 H         143.3173   81.6963  223.2019 H       1  UNL1        0.0618
     50 H         141.8912   80.9059  225.1063 H       1  UNL1        0.0618
     51 H         140.3738   78.9627  224.7440 H       1  UNL1        0.0621
     52 H         140.0644   76.9380  223.4408 H       1  UNL1        0.0514
     53 H         139.0098   77.9241  222.3765 H       1  UNL1        0.0514
     54 H         143.5767   73.3000  218.5939 H       1  UNL1        0.0468
     55 H         143.9785   74.5624  219.7633 H       1  UNL1        0.0468
     56 H         146.0817   73.3327  219.1421 H       1  UNL1        0.0328
     57 H         145.7282   72.9339  220.8129 H       1  UNL1        0.0328
     58 H         146.6625   71.3914  217.8422 H       1  UNL1        0.0620
     59 H         146.1904   69.0168  217.2641 H       1  UNL1        0.0618
     60 H         144.4263   67.7631  218.4564 H       1  UNL1        0.0618
     61 H         143.1096   68.8627  220.2441 H       1  UNL1        0.0621
     62 H         142.4700   70.9482  221.3498 H       1  UNL1        0.0514
     63 H         144.0182   71.5503  222.0118 H       1  UNL1        0.0514
     64 H         138.1488   70.8630  225.3918 H       1  UNL1        0.0329
     65 H         138.0317   69.3201  224.5322 H       1  UNL1        0.0329
     66 H         139.5321   67.5348  224.9625 H       1  UNL1        0.0620
     67 H         140.9216   66.3314  226.6674 H       1  UNL1        0.0618
     68 H         141.6945   67.6060  228.6654 H       1  UNL1        0.0618
     69 H         141.1322   69.9752  228.9908 H       1  UNL1        0.0618
     70 H         139.7478   71.1407  227.2732 H       1  UNL1        0.0620
@<TRIPOS>BOND
     1     1     2    1
     2     2     3    1
     3     3     4    1
     4     4     5    1
     5     5     6   ar
     6     6     7   ar
     7     7     8    1
     8     8     9    1
     9     9    10    1
    10    10    11    1
    11    11    12   ar
    12    12    13   ar
    13    13    14   ar
    14    14    15   ar
    15    15    16   ar
    16    16    17    1
    17     7    18   ar
    18    18    19   ar
    19    19    20    1
    20    20    21    1
    21    21    22    1
    22    22    23    1
    23    23    24   ar
    24    24    25   ar
    25    25    26   ar
    26    26    27   ar
    27    27    28   ar
    28    28    29    1
    29    19    30   ar
    30     2    31    1
    31    31    32    1
    32    32    33   ar
    33    33    34   ar
    34    34    35   ar
    35    35    36   ar
    36    36    37   ar
    37    30     5   ar
    38    37    32   ar
    39    17     8    1
    40    29    20    1
    41    16    11   ar
    42    28    23   ar
    43     1    38    1
    44     1    39    1
    45     2    40    1
    46     3    41    1
    47     3    42    1
    48     4    43    1
    49     9    44    1
    50     9    45    1
    51    10    46    1
    52    10    47    1
    53    12    48    1
    54    13    49    1
    55    14    50    1
    56    15    51    1
    57    17    52    1
    58    17    53    1
    59    21    54    1
    60    21    55    1
    61    22    56    1
    62    22    57    1
    63    24    58    1
    64    25    59    1
    65    26    60    1
    66    27    61    1
    67    29    62    1
    68    29    63    1
    69    31    64    1
    70    31    65    1
    71    33    66    1
    72    34    67    1
    73    35    68    1
    74    36    69    1
    75    37    70    1
