
     RDKit          3D

 67 71  0  0  0  0  0  0  0  0999 V2000
  139.0570   75.4010  222.4320 O   0  0  0  0  0  0  0  0  0  0  0  0
  140.2000   75.2510  221.9290 C   0  0  0  0  0  0  0  0  0  0  0  0
  141.1560   76.2950  222.0020 N   0  0  0  0  0  0  0  0  0  0  0  0
  140.8360   77.5410  222.6510 C   0  0  0  0  0  0  0  0  0  0  0  0
  141.7750   78.2000  223.4390 C   0  0  0  0  0  0  0  0  0  0  0  0
  141.3810   79.3930  224.0260 C   0  0  0  0  0  0  0  0  0  0  0  0
  140.1180   79.9170  223.8470 C   0  0  0  0  0  0  0  0  0  0  0  0
  139.1840   79.2670  223.0670 C   0  0  0  0  0  0  0  0  0  0  0  0
  139.5700   78.0640  222.4700 C   0  0  0  0  0  0  0  0  0  0  0  0
  140.4770   73.9710  221.2820 C   0  0  0  0  0  0  0  0  0  0  0  0
  140.8250   72.9010  222.0790 C   0  0  0  0  0  0  0  0  0  0  0  0
  141.0980   71.6630  221.5040 C   0  0  0  0  0  0  0  0  0  0  0  0
  141.0330   71.4520  220.1410 C   0  0  0  0  0  0  0  0  0  0  0  0
  141.3140   70.1800  219.5540 N   0  0  0  0  0  0  0  0  0  0  0  0
  142.6350   69.6070  219.7390 C   0  0  0  0  0  0  0  0  0  0  0  0
  143.3760   69.8390  218.4450 C   0  0  2  0  0  0  0  0  0  0  0  0
  143.9130   68.5700  217.8670 C   0  0  0  0  0  0  0  0  0  0  0  0
  145.4240   68.7280  217.9250 C   0  0  0  0  0  0  0  0  0  0  0  0
  145.5560   69.7280  219.0590 C   0  0  0  0  0  0  0  0  0  0  0  0
  144.5770   70.7070  218.7060 N   0  0  0  0  0  0  0  0  0  0  0  0
  144.5020   72.0860  218.5400 C   0  0  0  0  0  0  0  0  0  0  0  0
  144.0710   72.4770  217.3650 O   0  0  0  0  0  0  0  0  0  0  0  0
  144.8080   73.2050  219.4240 C   0  0  0  0  0  0  0  0  0  0  0  0
  144.4410   74.4740  218.8770 N   0  0  0  0  0  0  0  0  0  0  0  0
  143.5190   75.2590  219.6830 C   0  0  0  0  0  0  0  0  0  0  0  0
  143.1610   74.7400  220.7470 O   0  0  0  0  0  0  0  0  0  0  0  0
  143.0890   76.5650  219.2000 C   0  0  0  0  0  0  0  0  0  0  0  0
  143.2270   76.8230  217.8530 C   0  0  0  0  0  0  0  0  0  0  0  0
  142.8620   78.0150  217.2650 C   0  0  0  0  0  0  0  0  0  0  0  0
  142.3300   78.9800  218.1230 C   0  0  0  0  0  0  0  0  0  0  0  0
  141.9510   80.1940  217.5660 C   0  0  0  0  0  0  0  0  0  0  0  0
  141.4230   81.1680  218.3790 C   0  0  0  0  0  0  0  0  0  0  0  0
  141.0280   82.3890  217.8970 F   0  0  0  0  0  0  0  0  0  0  0  0
  141.2840   80.9030  219.7420 C   0  0  0  0  0  0  0  0  0  0  0  0
  141.6680   79.6860  220.2870 C   0  0  0  0  0  0  0  0  0  0  0  0
  142.2020   78.7020  219.4620 C   0  0  0  0  0  0  0  0  0  0  0  0
  142.5760   77.5150  219.9910 N   0  0  0  0  0  0  0  0  0  0  0  0
  140.6830   72.5380  219.3570 C   0  0  0  0  0  0  0  0  0  0  0  0
  140.4060   73.7850  219.9170 C   0  0  0  0  0  0  0  0  0  0  0  0
  142.1060   76.1780  221.5870 H   0  0  0  0  0  0  0  0  0  0  0  0
  142.7855   77.7924  223.5896 H   0  0  0  0  0  0  0  0  0  0  0  0
  142.0994   79.9392  224.6550 H   0  0  0  0  0  0  0  0  0  0  0  0
  139.8514   80.8670  224.3332 H   0  0  0  0  0  0  0  0  0  0  0  0
  138.1749   79.6796  222.9207 H   0  0  0  0  0  0  0  0  0  0  0  0
  138.8492   77.5207  221.8413 H   0  0  0  0  0  0  0  0  0  0  0  0
  140.8869   73.0258  223.1701 H   0  0  0  0  0  0  0  0  0  0  0  0
  141.3752   70.8234  222.1584 H   0  0  0  0  0  0  0  0  0  0  0  0
  140.5490   69.7200  219.0150 H   0  0  0  0  0  0  0  0  0  0  0  0
  143.1542   70.1051  220.5710 H   0  0  0  0  0  0  0  0  0  0  0  0
  142.5782   68.5360  219.9834 H   0  0  0  0  0  0  0  0  0  0  0  0
  142.6573   70.2984  217.7505 H   0  0  0  0  0  0  0  0  0  0  0  0
  143.5903   67.7046  218.4645 H   0  0  0  0  0  0  0  0  0  0  0  0
  143.5521   68.3939  216.8429 H   0  0  0  0  0  0  0  0  0  0  0  0
  145.9227   67.7768  218.1627 H   0  0  0  0  0  0  0  0  0  0  0  0
  145.8877   69.0447  216.9791 H   0  0  0  0  0  0  0  0  0  0  0  0
  145.3260   69.2644  220.0297 H   0  0  0  0  0  0  0  0  0  0  0  0
  146.5707   70.1366  219.1746 H   0  0  0  0  0  0  0  0  0  0  0  0
  144.2644   73.0619  220.3695 H   0  0  0  0  0  0  0  0  0  0  0  0
  145.8981   73.2161  219.5705 H   0  0  0  0  0  0  0  0  0  0  0  0
  144.7880   74.8500  217.9620 H   0  0  0  0  0  0  0  0  0  0  0  0
  143.6512   76.0353  217.2130 H   0  0  0  0  0  0  0  0  0  0  0  0
  142.9823   78.1951  216.1865 H   0  0  0  0  0  0  0  0  0  0  0  0
  142.0719   80.3739  216.4876 H   0  0  0  0  0  0  0  0  0  0  0  0
  140.8603   81.6765  220.3994 H   0  0  0  0  0  0  0  0  0  0  0  0
  141.5507   79.5007  221.3649 H   0  0  0  0  0  0  0  0  0  0  0  0
  140.6219   72.4144  218.2657 H   0  0  0  0  0  0  0  0  0  0  0  0
  140.1288   74.6266  219.2652 H   0  0  0  0  0  0  0  0  0  0  0  0
  1  2  2  0
  2  3  1  0
  3  4  1  0
  4  5  2  0
  5  6  1  0
  6  7  2  0
  7  8  1  0
  8  9  2  0
  2 10  1  0
 10 11  2  0
 11 12  1  0
 12 13  2  0
 13 14  1  0
 14 15  1  0
 15 16  1  0
 16 17  1  0
 17 18  1  0
 18 19  1  0
 19 20  1  0
 20 21  1  0
 21 22  2  0
 21 23  1  0
 23 24  1  0
 24 25  1  0
 25 26  2  0
 25 27  1  0
 27 28  2  0
 28 29  1  0
 29 30  2  0
 30 31  1  0
 31 32  2  0
 32 33  1  0
 32 34  1  0
 34 35  2  0
 35 36  1  0
 36 37  2  0
 13 38  1  0
 38 39  2  0
  9  4  1  0
 39 10  1  0
 20 16  1  0
 37 27  1  0
 36 30  1  0
  3 40  1  0
  5 41  1  0
  6 42  1  0
  7 43  1  0
  8 44  1  0
  9 45  1  0
 11 46  1  0
 12 47  1  0
 14 48  1  0
 15 49  1  0
 15 50  1  0
 16 51  1  6
 17 52  1  0
 17 53  1  0
 18 54  1  0
 18 55  1  0
 19 56  1  0
 19 57  1  0
 23 58  1  0
 23 59  1  0
 24 60  1  0
 28 61  1  0
 29 62  1  0
 31 63  1  0
 34 64  1  0
 35 65  1  0
 38 66  1  0
 39 67  1  0
M  END
>  <smiles>  (1) 
O=C(Nc1ccccc1)c1ccc(NC[C@@H]2CCCN2C(=O)CNC(=O)c2ccc3cc(F)ccc3n2)cc1

>  <score_type>  (1) 
oracle

>  <origin>  (1) 
autodockgpu

>  <m_score__min__energy>  (1) 
-9.8599999999999994

>  <m_primary>  (1) 
energy

>  <rmsd>  (1) 
7.899948237203865

>  <m_score__min__rmsd>  (1) 
7.899948237203865

>  <meeko>  (1) 
{"free_energy": -6.84, "intermolecular_energy": -9.52, "internal_energy": -4.87, "cluster_size": 1, "cluster_id": 16, "rank_in_cluster": 1}

>  <energy>  (1) 
-9.86

>  <cluster_rmsd>  (1) 
0.0

>  <cluster>  (1) 
1

$$$$

     RDKit          3D

 67 71  0  0  0  0  0  0  0  0999 V2000
  141.9540   79.1340  219.5190 O   0  0  0  0  0  0  0  0  0  0  0  0
  141.9580   77.9950  220.0530 C   0  0  0  0  0  0  0  0  0  0  0  0
  141.7770   77.8610  221.4520 N   0  0  0  0  0  0  0  0  0  0  0  0
  141.5860   79.0230  222.2830 C   0  0  0  0  0  0  0  0  0  0  0  0
  140.3170   79.5560  222.4880 C   0  0  0  0  0  0  0  0  0  0  0  0
  140.2260   80.6750  223.3020 C   0  0  0  0  0  0  0  0  0  0  0  0
  141.3350   81.2460  223.8910 C   0  0  0  0  0  0  0  0  0  0  0  0
  142.5950   80.7210  223.6910 C   0  0  0  0  0  0  0  0  0  0  0  0
  142.6990   79.5930  222.8720 C   0  0  0  0  0  0  0  0  0  0  0  0
  142.1550   76.8490  219.1690 C   0  0  0  0  0  0  0  0  0  0  0  0
  141.1000   75.9800  218.9850 C   0  0  0  0  0  0  0  0  0  0  0  0
  141.2440   74.8750  218.1520 C   0  0  0  0  0  0  0  0  0  0  0  0
  142.4220   74.6010  217.4850 C   0  0  0  0  0  0  0  0  0  0  0  0
  142.5660   73.4660  216.6310 N   0  0  0  0  0  0  0  0  0  0  0  0
  142.5640   72.1430  217.2280 C   0  0  0  0  0  0  0  0  0  0  0  0
  144.0030   71.6890  217.2460 C   0  0  2  0  0  0  0  0  0  0  0  0
  144.1560   70.2800  216.7710 C   0  0  0  0  0  0  0  0  0  0  0  0
  144.6520   69.5150  217.9870 C   0  0  0  0  0  0  0  0  0  0  0  0
  144.1270   70.3980  219.1050 C   0  0  0  0  0  0  0  0  0  0  0  0
  144.5130   71.6990  218.6610 N   0  0  0  0  0  0  0  0  0  0  0  0
  145.1900   72.8070  219.1610 C   0  0  0  0  0  0  0  0  0  0  0  0
  146.1370   73.2720  218.3820 O   0  0  0  0  0  0  0  0  0  0  0  0
  145.0550   73.5720  220.3950 C   0  0  0  0  0  0  0  0  0  0  0  0
  143.7460   74.1170  220.5820 N   0  0  0  0  0  0  0  0  0  0  0  0
  142.7360   73.1750  221.0390 C   0  0  0  0  0  0  0  0  0  0  0  0
  143.1260   72.0140  221.2150 O   0  0  0  0  0  0  0  0  0  0  0  0
  141.3730   73.6440  221.2540 C   0  0  0  0  0  0  0  0  0  0  0  0
  140.3450   72.8090  220.8720 C   0  0  0  0  0  0  0  0  0  0  0  0
  139.0120   73.1280  221.0180 C   0  0  0  0  0  0  0  0  0  0  0  0
  138.7410   74.3730  221.5880 C   0  0  0  0  0  0  0  0  0  0  0  0
  137.4100   74.7290  221.7510 C   0  0  0  0  0  0  0  0  0  0  0  0
  137.1050   75.9470  222.3090 C   0  0  0  0  0  0  0  0  0  0  0  0
  135.8120   76.3620  222.4980 F   0  0  0  0  0  0  0  0  0  0  0  0
  138.1490   76.7900  222.6940 C   0  0  0  0  0  0  0  0  0  0  0  0
  139.4760   76.4230  222.5260 C   0  0  0  0  0  0  0  0  0  0  0  0
  139.7820   75.1890  221.9610 C   0  0  0  0  0  0  0  0  0  0  0  0
  141.0750   74.8300  221.7970 N   0  0  0  0  0  0  0  0  0  0  0  0
  143.4700   75.4840  217.6830 C   0  0  0  0  0  0  0  0  0  0  0  0
  143.3430   76.5960  218.5140 C   0  0  0  0  0  0  0  0  0  0  0  0
  141.7800   76.9200  221.9020 H   0  0  0  0  0  0  0  0  0  0  0  0
  139.4250   79.1092  222.0246 H   0  0  0  0  0  0  0  0  0  0  0  0
  139.2374   81.1218  223.4839 H   0  0  0  0  0  0  0  0  0  0  0  0
  141.2129   82.1332  224.5297 H   0  0  0  0  0  0  0  0  0  0  0  0
  143.4830   81.1723  224.1577 H   0  0  0  0  0  0  0  0  0  0  0  0
  143.6891   79.1488  222.6921 H   0  0  0  0  0  0  0  0  0  0  0  0
  140.1436   76.1608  219.4974 H   0  0  0  0  0  0  0  0  0  0  0  0
  140.3892   74.1954  218.0199 H   0  0  0  0  0  0  0  0  0  0  0  0
  142.6680   73.6440  215.6080 H   0  0  0  0  0  0  0  0  0  0  0  0
  142.1649   72.1870  218.2521 H   0  0  0  0  0  0  0  0  0  0  0  0
  141.9303   71.4467  216.6591 H   0  0  0  0  0  0  0  0  0  0  0  0
  144.5557   72.3744  216.5866 H   0  0  0  0  0  0  0  0  0  0  0  0
  143.1908   69.8793  216.4277 H   0  0  0  0  0  0  0  0  0  0  0  0
  144.8471   70.2006  215.9189 H   0  0  0  0  0  0  0  0  0  0  0  0
  144.2223   68.5035  218.0331 H   0  0  0  0  0  0  0  0  0  0  0  0
  145.7387   69.3459  218.0094 H   0  0  0  0  0  0  0  0  0  0  0  0
  143.0342   70.3158  219.1997 H   0  0  0  0  0  0  0  0  0  0  0  0
  144.5173   70.1344  220.0991 H   0  0  0  0  0  0  0  0  0  0  0  0
  145.2818   72.9094  221.2432 H   0  0  0  0  0  0  0  0  0  0  0  0
  145.7546   74.4185  220.3319 H   0  0  0  0  0  0  0  0  0  0  0  0
  143.4890   75.1190  220.4120 H   0  0  0  0  0  0  0  0  0  0  0  0
  140.6020   71.8364  220.4270 H   0  0  0  0  0  0  0  0  0  0  0  0
  138.2105   72.4430  220.7044 H   0  0  0  0  0  0  0  0  0  0  0  0
  136.6084   74.0442  221.4372 H   0  0  0  0  0  0  0  0  0  0  0  0
  137.9139   77.7674  223.1407 H   0  0  0  0  0  0  0  0  0  0  0  0
  140.2819   77.1037  222.8377 H   0  0  0  0  0  0  0  0  0  0  0  0
  144.4270   75.3034  217.1716 H   0  0  0  0  0  0  0  0  0  0  0  0
  144.1963   77.2770  218.6487 H   0  0  0  0  0  0  0  0  0  0  0  0
  1  2  2  0
  2  3  1  0
  3  4  1  0
  4  5  2  0
  5  6  1  0
  6  7  2  0
  7  8  1  0
  8  9  2  0
  2 10  1  0
 10 11  2  0
 11 12  1  0
 12 13  2  0
 13 14  1  0
 14 15  1  0
 15 16  1  0
 16 17  1  0
 17 18  1  0
 18 19  1  0
 19 20  1  0
 20 21  1  0
 21 22  2  0
 21 23  1  0
 23 24  1  0
 24 25  1  0
 25 26  2  0
 25 27  1  0
 27 28  2  0
 28 29  1  0
 29 30  2  0
 30 31  1  0
 31 32  2  0
 32 33  1  0
 32 34  1  0
 34 35  2  0
 35 36  1  0
 36 37  2  0
 13 38  1  0
 38 39  2  0
  9  4  1  0
 39 10  1  0
 20 16  1  0
 37 27  1  0
 36 30  1  0
  3 40  1  0
  5 41  1  0
  6 42  1  0
  7 43  1  0
  8 44  1  0
  9 45  1  0
 11 46  1  0
 12 47  1  0
 14 48  1  0
 15 49  1  0
 15 50  1  0
 16 51  1  6
 17 52  1  0
 17 53  1  0
 18 54  1  0
 18 55  1  0
 19 56  1  0
 19 57  1  0
 23 58  1  0
 23 59  1  0
 24 60  1  0
 28 61  1  0
 29 62  1  0
 31 63  1  0
 34 64  1  0
 35 65  1  0
 38 66  1  0
 39 67  1  0
M  END
>  <smiles>  (2) 
O=C(Nc1ccccc1)c1ccc(NC[C@@H]2CCCN2C(=O)CNC(=O)c2ccc3cc(F)ccc3n2)cc1

>  <score_type>  (2) 
oracle

>  <origin>  (2) 
autodockgpu

>  <m_score__min__energy>  (2) 
-9.8599999999999994

>  <m_primary>  (2) 
energy

>  <rmsd>  (2) 
5.6235464300365345

>  <m_score__min__rmsd>  (2) 
5.6235464300365345

>  <meeko>  (2) 
{"free_energy": -7.0, "intermolecular_energy": -9.68, "internal_energy": -4.65, "cluster_size": 3, "cluster_id": 13, "rank_in_cluster": 3}

>  <energy>  (2) 
-9.8

>  <cluster_rmsd>  (2) 
1.12

>  <cluster>  (2) 
1

$$$$

     RDKit          3D

 67 71  0  0  0  0  0  0  0  0999 V2000
  141.3100   73.2500  220.9330 O   0  0  0  0  0  0  0  0  0  0  0  0
  141.5530   74.4830  220.8880 C   0  0  0  0  0  0  0  0  0  0  0  0
  142.8710   74.9430  220.6420 N   0  0  0  0  0  0  0  0  0  0  0  0
  143.9500   74.0090  220.4400 C   0  0  0  0  0  0  0  0  0  0  0  0
  143.7400   72.8030  219.7780 C   0  0  0  0  0  0  0  0  0  0  0  0
  144.8340   71.9650  219.6290 C   0  0  0  0  0  0  0  0  0  0  0  0
  146.0840   72.2970  220.1100 C   0  0  0  0  0  0  0  0  0  0  0  0
  146.2970   73.4910  220.7680 C   0  0  0  0  0  0  0  0  0  0  0  0
  145.2010   74.3440  220.9240 C   0  0  0  0  0  0  0  0  0  0  0  0
  140.4270   75.3900  221.0980 C   0  0  0  0  0  0  0  0  0  0  0  0
  139.8340   75.9580  219.9910 C   0  0  0  0  0  0  0  0  0  0  0  0
  138.7590   76.8270  220.1460 C   0  0  0  0  0  0  0  0  0  0  0  0
  138.2460   77.1550  221.3860 C   0  0  0  0  0  0  0  0  0  0  0  0
  137.1420   78.0480  221.5400 N   0  0  0  0  0  0  0  0  0  0  0  0
  137.4110   79.4690  221.6640 C   0  0  0  0  0  0  0  0  0  0  0  0
  137.6520   79.7230  223.1320 C   0  0  2  0  0  0  0  0  0  0  0  0
  136.4770   80.3670  223.7930 C   0  0  0  0  0  0  0  0  0  0  0  0
  136.9730   81.7410  224.2110 C   0  0  0  0  0  0  0  0  0  0  0  0
  138.1020   81.9430  223.2160 C   0  0  0  0  0  0  0  0  0  0  0  0
  138.7900   80.6940  223.2910 N   0  0  0  0  0  0  0  0  0  0  0  0
  140.0890   80.2360  223.4840 C   0  0  0  0  0  0  0  0  0  0  0  0
  140.1880   79.1520  224.2160 O   0  0  0  0  0  0  0  0  0  0  0  0
  141.3860   80.7220  223.0260 C   0  0  0  0  0  0  0  0  0  0  0  0
  141.6320   80.4600  221.6420 N   0  0  0  0  0  0  0  0  0  0  0  0
  141.7870   79.0580  221.2880 C   0  0  0  0  0  0  0  0  0  0  0  0
  141.6860   78.2540  222.2240 O   0  0  0  0  0  0  0  0  0  0  0  0
  142.0430   78.7010  219.8990 C   0  0  0  0  0  0  0  0  0  0  0  0
  141.6220   79.5830  218.9270 C   0  0  0  0  0  0  0  0  0  0  0  0
  141.8000   79.3690  217.5770 C   0  0  0  0  0  0  0  0  0  0  0  0
  142.4440   78.1810  217.2270 C   0  0  0  0  0  0  0  0  0  0  0  0
  142.6410   77.9310  215.8760 C   0  0  0  0  0  0  0  0  0  0  0  0
  143.2720   76.7720  215.4940 C   0  0  0  0  0  0  0  0  0  0  0  0
  143.4980   76.4620  214.1770 F   0  0  0  0  0  0  0  0  0  0  0  0
  143.6960   75.8810  216.4800 C   0  0  0  0  0  0  0  0  0  0  0  0
  143.4940   76.1410  217.8270 C   0  0  0  0  0  0  0  0  0  0  0  0
  142.8550   77.3160  218.2120 C   0  0  0  0  0  0  0  0  0  0  0  0
  142.6570   77.5710  219.5250 N   0  0  0  0  0  0  0  0  0  0  0  0
  138.8550   76.5750  222.4850 C   0  0  0  0  0  0  0  0  0  0  0  0
  139.9330   75.7010  222.3480 C   0  0  0  0  0  0  0  0  0  0  0  0
  143.0810   75.9640  220.6030 H   0  0  0  0  0  0  0  0  0  0  0  0
  142.7486   72.5267  219.3897 H   0  0  0  0  0  0  0  0  0  0  0  0
  144.7014   71.0040  219.1104 H   0  0  0  0  0  0  0  0  0  0  0  0
  146.9227   71.5998  219.9668 H   0  0  0  0  0  0  0  0  0  0  0  0
  147.2908   73.7609  221.1547 H   0  0  0  0  0  0  0  0  0  0  0  0
  145.3368   75.3039  221.4438 H   0  0  0  0  0  0  0  0  0  0  0  0
  140.2110   75.7240  218.9845 H   0  0  0  0  0  0  0  0  0  0  0  0
  138.3009   77.2690  219.2489 H   0  0  0  0  0  0  0  0  0  0  0  0
  136.1860   77.6320  221.5590 H   0  0  0  0  0  0  0  0  0  0  0  0
  138.3013   79.7415  221.0783 H   0  0  0  0  0  0  0  0  0  0  0  0
  136.5725   80.0713  221.2844 H   0  0  0  0  0  0  0  0  0  0  0  0
  137.8565   78.7439  223.5898 H   0  0  0  0  0  0  0  0  0  0  0  0
  135.6366   80.4559  223.0888 H   0  0  0  0  0  0  0  0  0  0  0  0
  136.1078   79.7807  224.6474 H   0  0  0  0  0  0  0  0  0  0  0  0
  136.1910   82.5064  224.0986 H   0  0  0  0  0  0  0  0  0  0  0  0
  137.2733   81.8181  225.2664 H   0  0  0  0  0  0  0  0  0  0  0  0
  137.7142   82.1256  222.2030 H   0  0  0  0  0  0  0  0  0  0  0  0
  138.7373   82.8135  223.4364 H   0  0  0  0  0  0  0  0  0  0  0  0
  141.4286   81.8091  223.1884 H   0  0  0  0  0  0  0  0  0  0  0  0
  142.1559   80.1863  223.6007 H   0  0  0  0  0  0  0  0  0  0  0  0
  141.7040   81.1990  220.9010 H   0  0  0  0  0  0  0  0  0  0  0  0
  141.1171   80.5069  219.2456 H   0  0  0  0  0  0  0  0  0  0  0  0
  141.4556   80.0905  216.8215 H   0  0  0  0  0  0  0  0  0  0  0  0
  142.2961   78.6521  215.1204 H   0  0  0  0  0  0  0  0  0  0  0  0
  144.2021   74.9509  216.1822 H   0  0  0  0  0  0  0  0  0  0  0  0
  143.8367   75.4230  218.5866 H   0  0  0  0  0  0  0  0  0  0  0  0
  138.4793   76.8093  223.4920 H   0  0  0  0  0  0  0  0  0  0  0  0
  140.3927   75.2564  223.2430 H   0  0  0  0  0  0  0  0  0  0  0  0
  1  2  2  0
  2  3  1  0
  3  4  1  0
  4  5  2  0
  5  6  1  0
  6  7  2  0
  7  8  1  0
  8  9  2  0
  2 10  1  0
 10 11  2  0
 11 12  1  0
 12 13  2  0
 13 14  1  0
 14 15  1  0
 15 16  1  0
 16 17  1  0
 17 18  1  0
 18 19  1  0
 19 20  1  0
 20 21  1  0
 21 22  2  0
 21 23  1  0
 23 24  1  0
 24 25  1  0
 25 26  2  0
 25 27  1  0
 27 28  2  0
 28 29  1  0
 29 30  2  0
 30 31  1  0
 31 32  2  0
 32 33  1  0
 32 34  1  0
 34 35  2  0
 35 36  1  0
 36 37  2  0
 13 38  1  0
 38 39  2  0
  9  4  1  0
 39 10  1  0
 20 16  1  0
 37 27  1  0
 36 30  1  0
  3 40  1  0
  5 41  1  0
  6 42  1  0
  7 43  1  0
  8 44  1  0
  9 45  1  0
 11 46  1  0
 12 47  1  0
 14 48  1  0
 15 49  1  0
 15 50  1  0
 16 51  1  1
 17 52  1  0
 17 53  1  0
 18 54  1  0
 18 55  1  0
 19 56  1  0
 19 57  1  0
 23 58  1  0
 23 59  1  0
 24 60  1  0
 28 61  1  0
 29 62  1  0
 31 63  1  0
 34 64  1  0
 35 65  1  0
 38 66  1  0
 39 67  1  0
M  END
>  <smiles>  (3) 
O=C(Nc1ccccc1)c1ccc(NC[C@@H]2CCCN2C(=O)CNC(=O)c2ccc3cc(F)ccc3n2)cc1

>  <score_type>  (3) 
oracle

>  <origin>  (3) 
autodockgpu

>  <m_score__min__energy>  (3) 
-9.8599999999999994

>  <m_primary>  (3) 
energy

>  <rmsd>  (3) 
9.024382159906706

>  <m_score__min__rmsd>  (3) 
9.024382159906706

>  <meeko>  (3) 
{"free_energy": -6.39, "intermolecular_energy": -9.08, "internal_energy": -4.33, "cluster_size": 1, "cluster_id": 20, "rank_in_cluster": 1}

>  <energy>  (3) 
-9.78

>  <cluster_rmsd>  (3) 
1.47

>  <cluster>  (3) 
1

$$$$

     RDKit          3D

 67 71  0  0  0  0  0  0  0  0999 V2000
  141.7950   76.4600  220.9400 O   0  0  0  0  0  0  0  0  0  0  0  0
  140.8220   76.1870  221.6890 C   0  0  0  0  0  0  0  0  0  0  0  0
  140.2890   77.1730  222.5570 N   0  0  0  0  0  0  0  0  0  0  0  0
  140.8500   78.5000  222.5950 C   0  0  0  0  0  0  0  0  0  0  0  0
  140.2850   79.5380  221.8590 C   0  0  0  0  0  0  0  0  0  0  0  0
  140.8900   80.7820  221.9550 C   0  0  0  0  0  0  0  0  0  0  0  0
  142.0030   80.9980  222.7400 C   0  0  0  0  0  0  0  0  0  0  0  0
  142.5670   79.9720  223.4700 C   0  0  0  0  0  0  0  0  0  0  0  0
  141.9650   78.7130  223.3820 C   0  0  0  0  0  0  0  0  0  0  0  0
  140.2880   74.8290  221.6150 C   0  0  0  0  0  0  0  0  0  0  0  0
  141.1250   73.8240  221.1760 C   0  0  0  0  0  0  0  0  0  0  0  0
  140.6570   72.5170  221.0900 C   0  0  0  0  0  0  0  0  0  0  0  0
  139.3640   72.1700  221.4320 C   0  0  0  0  0  0  0  0  0  0  0  0
  138.8880   70.8260  221.3420 N   0  0  0  0  0  0  0  0  0  0  0  0
  139.0320   70.1220  220.0810 C   0  0  0  0  0  0  0  0  0  0  0  0
  140.0480   69.0320  220.3250 C   0  0  2  0  0  0  0  0  0  0  0  0
  141.4450   69.4950  220.0640 C   0  0  0  0  0  0  0  0  0  0  0  0
  141.9090   68.6690  218.8760 C   0  0  0  0  0  0  0  0  0  0  0  0
  140.5760   68.3260  218.2360 C   0  0  0  0  0  0  0  0  0  0  0  0
  139.8080   67.9010  219.3630 N   0  0  0  0  0  0  0  0  0  0  0  0
  139.0250   66.8120  219.7330 C   0  0  0  0  0  0  0  0  0  0  0  0
  138.8410   65.9200  218.7890 O   0  0  0  0  0  0  0  0  0  0  0  0
  138.3580   66.4530  220.9790 C   0  0  0  0  0  0  0  0  0  0  0  0
  139.0380   66.9330  222.1430 N   0  0  0  0  0  0  0  0  0  0  0  0
  138.4300   68.0840  222.7930 C   0  0  0  0  0  0  0  0  0  0  0  0
  137.3940   68.5110  222.2670 O   0  0  0  0  0  0  0  0  0  0  0  0
  139.0570   68.6400  223.9840 C   0  0  0  0  0  0  0  0  0  0  0  0
  139.2240   67.8020  225.0660 C   0  0  0  0  0  0  0  0  0  0  0  0
  139.8010   68.1990  226.2530 C   0  0  0  0  0  0  0  0  0  0  0  0
  140.2230   69.5280  226.3130 C   0  0  0  0  0  0  0  0  0  0  0  0
  140.8090   69.9630  227.4930 C   0  0  0  0  0  0  0  0  0  0  0  0
  141.2370   71.2650  227.5880 C   0  0  0  0  0  0  0  0  0  0  0  0
  141.8240   71.7610  228.7240 F   0  0  0  0  0  0  0  0  0  0  0  0
  141.0670   72.1100  226.4910 C   0  0  0  0  0  0  0  0  0  0  0  0
  140.4790   71.6640  225.3170 C   0  0  0  0  0  0  0  0  0  0  0  0
  140.0470   70.3450  225.2230 C   0  0  0  0  0  0  0  0  0  0  0  0
  139.4740   69.9090  224.0780 N   0  0  0  0  0  0  0  0  0  0  0  0
  138.5400   73.1920  221.8700 C   0  0  0  0  0  0  0  0  0  0  0  0
  138.9920   74.5080  221.9630 C   0  0  0  0  0  0  0  0  0  0  0  0
  139.4830   76.9540  223.1810 H   0  0  0  0  0  0  0  0  0  0  0  0
  139.3976   79.3783  221.2289 H   0  0  0  0  0  0  0  0  0  0  0  0
  140.4684   81.6240  221.3864 H   0  0  0  0  0  0  0  0  0  0  0  0
  142.4477   82.0031  222.7848 H   0  0  0  0  0  0  0  0  0  0  0  0
  143.4556   80.1380  224.0968 H   0  0  0  0  0  0  0  0  0  0  0  0
  142.3889   77.8733  223.9523 H   0  0  0  0  0  0  0  0  0  0  0  0
  142.1625   74.0563  220.8940 H   0  0  0  0  0  0  0  0  0  0  0  0
  141.3410   71.7312  220.7369 H   0  0  0  0  0  0  0  0  0  0  0  0
  138.4540   70.4120  222.1950 H   0  0  0  0  0  0  0  0  0  0  0  0
  138.0697   69.6857  219.7751 H   0  0  0  0  0  0  0  0  0  0  0  0
  139.3541   70.7995  219.2764 H   0  0  0  0  0  0  0  0  0  0  0  0
  139.9378   68.7304  221.3771 H   0  0  0  0  0  0  0  0  0  0  0  0
  141.4591   70.5675  219.8200 H   0  0  0  0  0  0  0  0  0  0  0  0
  142.0969   69.3664  220.9406 H   0  0  0  0  0  0  0  0  0  0  0  0
  142.5455   69.2561  218.1976 H   0  0  0  0  0  0  0  0  0  0  0  0
  142.5277   67.7982  219.1384 H   0  0  0  0  0  0  0  0  0  0  0  0
  140.1255   69.2061  217.7539 H   0  0  0  0  0  0  0  0  0  0  0  0
  140.6474   67.5728  217.4375 H   0  0  0  0  0  0  0  0  0  0  0  0
  137.3435   66.8779  220.9671 H   0  0  0  0  0  0  0  0  0  0  0  0
  138.3463   65.3546  221.0379 H   0  0  0  0  0  0  0  0  0  0  0  0
  139.9170   66.5160  222.5330 H   0  0  0  0  0  0  0  0  0  0  0  0
  138.8784   66.7615  224.9772 H   0  0  0  0  0  0  0  0  0  0  0  0
  139.9216   67.5099  227.1019 H   0  0  0  0  0  0  0  0  0  0  0  0
  140.9294   69.2739  228.3419 H   0  0  0  0  0  0  0  0  0  0  0  0
  141.4072   73.1539  226.5589 H   0  0  0  0  0  0  0  0  0  0  0  0
  140.3549   72.3490  224.4653 H   0  0  0  0  0  0  0  0  0  0  0  0
  137.5023   72.9604  222.1519 H   0  0  0  0  0  0  0  0  0  0  0  0
  138.3104   75.2958  222.3163 H   0  0  0  0  0  0  0  0  0  0  0  0
  1  2  2  0
  2  3  1  0
  3  4  1  0
  4  5  2  0
  5  6  1  0
  6  7  2  0
  7  8  1  0
  8  9  2  0
  2 10  1  0
 10 11  2  0
 11 12  1  0
 12 13  2  0
 13 14  1  0
 14 15  1  0
 15 16  1  0
 16 17  1  0
 17 18  1  0
 18 19  1  0
 19 20  1  0
 20 21  1  0
 21 22  2  0
 21 23  1  0
 23 24  1  0
 24 25  1  0
 25 26  2  0
 25 27  1  0
 27 28  2  0
 28 29  1  0
 29 30  2  0
 30 31  1  0
 31 32  2  0
 32 33  1  0
 32 34  1  0
 34 35  2  0
 35 36  1  0
 36 37  2  0
 13 38  1  0
 38 39  2  0
  9  4  1  0
 39 10  1  0
 20 16  1  0
 37 27  1  0
 36 30  1  0
  3 40  1  0
  5 41  1  0
  6 42  1  0
  7 43  1  0
  8 44  1  0
  9 45  1  0
 11 46  1  0
 12 47  1  0
 14 48  1  0
 15 49  1  0
 15 50  1  0
 16 51  1  1
 17 52  1  0
 17 53  1  0
 18 54  1  0
 18 55  1  0
 19 56  1  0
 19 57  1  0
 23 58  1  0
 23 59  1  0
 24 60  1  0
 28 61  1  0
 29 62  1  0
 31 63  1  0
 34 64  1  0
 35 65  1  0
 38 66  1  0
 39 67  1  0
M  END
>  <smiles>  (4) 
O=C(Nc1ccccc1)c1ccc(NC[C@@H]2CCCN2C(=O)CNC(=O)c2ccc3cc(F)ccc3n2)cc1

>  <score_type>  (4) 
oracle

>  <origin>  (4) 
autodockgpu

>  <m_score__min__energy>  (4) 
-9.8599999999999994

>  <m_primary>  (4) 
energy

>  <rmsd>  (4) 
4.20528006381106

>  <m_score__min__rmsd>  (4) 
4.20528006381106

>  <meeko>  (4) 
{"free_energy": -7.62, "intermolecular_energy": -10.3, "internal_energy": -3.77, "cluster_size": 9, "cluster_id": 5, "rank_in_cluster": 8}

>  <energy>  (4) 
-9.54

>  <cluster_rmsd>  (4) 
1.23

>  <cluster>  (4) 
1

$$$$

     RDKit          3D

 67 71  0  0  0  0  0  0  0  0999 V2000
  139.6960   81.2650  223.9430 O   0  0  0  0  0  0  0  0  0  0  0  0
  138.9360   80.2640  223.8980 C   0  0  0  0  0  0  0  0  0  0  0  0
  137.5970   80.3620  224.3530 N   0  0  0  0  0  0  0  0  0  0  0  0
  137.0870   81.6060  224.8720 C   0  0  0  0  0  0  0  0  0  0  0  0
  136.7350   82.6470  224.0190 C   0  0  0  0  0  0  0  0  0  0  0  0
  136.2530   83.8080  224.6050 C   0  0  0  0  0  0  0  0  0  0  0  0
  136.1210   83.9400  225.9710 C   0  0  0  0  0  0  0  0  0  0  0  0
  136.4690   82.9100  226.8210 C   0  0  0  0  0  0  0  0  0  0  0  0
  136.9560   81.7350  226.2410 C   0  0  0  0  0  0  0  0  0  0  0  0
  139.5000   79.0260  223.3640 C   0  0  0  0  0  0  0  0  0  0  0  0
  140.8600   78.8310  223.4710 C   0  0  0  0  0  0  0  0  0  0  0  0
  141.4390   77.6670  222.9760 C   0  0  0  0  0  0  0  0  0  0  0  0
  140.6950   76.6730  222.3680 C   0  0  0  0  0  0  0  0  0  0  0  0
  141.2930   75.4790  221.8600 N   0  0  0  0  0  0  0  0  0  0  0  0
  140.4250   74.4010  221.4220 C   0  0  0  0  0  0  0  0  0  0  0  0
  140.9770   73.9330  220.0970 C   0  0  2  0  0  0  0  0  0  0  0  0
  140.4970   72.5640  219.7390 C   0  0  0  0  0  0  0  0  0  0  0  0
  141.7490   71.7020  219.7480 C   0  0  0  0  0  0  0  0  0  0  0  0
  142.6310   72.5010  220.6900 C   0  0  0  0  0  0  0  0  0  0  0  0
  142.4740   73.8290  220.1870 N   0  0  0  0  0  0  0  0  0  0  0  0
  143.2830   74.8880  219.7870 C   0  0  0  0  0  0  0  0  0  0  0  0
  144.4120   74.9980  220.4440 O   0  0  0  0  0  0  0  0  0  0  0  0
  143.1280   75.9160  218.7640 C   0  0  0  0  0  0  0  0  0  0  0  0
  142.8600   77.2140  219.3030 N   0  0  0  0  0  0  0  0  0  0  0  0
  141.4620   77.6140  219.3020 C   0  0  0  0  0  0  0  0  0  0  0  0
  140.6670   76.7860  218.8400 O   0  0  0  0  0  0  0  0  0  0  0  0
  141.0980   78.9220  219.8310 C   0  0  0  0  0  0  0  0  0  0  0  0
  142.1140   79.7190  220.3130 C   0  0  0  0  0  0  0  0  0  0  0  0
  141.9100   80.9770  220.8400 C   0  0  0  0  0  0  0  0  0  0  0  0
  140.5870   81.4210  220.8650 C   0  0  0  0  0  0  0  0  0  0  0  0
  140.3430   82.6820  221.3880 C   0  0  0  0  0  0  0  0  0  0  0  0
  139.0530   83.1530  221.4290 C   0  0  0  0  0  0  0  0  0  0  0  0
  138.7410   84.3890  221.9330 F   0  0  0  0  0  0  0  0  0  0  0  0
  138.0270   82.3440  220.9400 C   0  0  0  0  0  0  0  0  0  0  0  0
  138.2830   81.0840  220.4200 C   0  0  0  0  0  0  0  0  0  0  0  0
  139.5900   80.6100  220.3790 C   0  0  0  0  0  0  0  0  0  0  0  0
  139.8410   79.3820  219.8710 N   0  0  0  0  0  0  0  0  0  0  0  0
  139.3310   76.8880  222.2680 C   0  0  0  0  0  0  0  0  0  0  0  0
  138.7350   78.0490  222.7600 C   0  0  0  0  0  0  0  0  0  0  0  0
  136.9610   79.5360  224.3190 H   0  0  0  0  0  0  0  0  0  0  0  0
  136.8346   82.5535  222.9275 H   0  0  0  0  0  0  0  0  0  0  0  0
  135.9667   84.6509  223.9588 H   0  0  0  0  0  0  0  0  0  0  0  0
  135.7326   84.8802  226.3895 H   0  0  0  0  0  0  0  0  0  0  0  0
  136.3672   83.0097  227.9117 H   0  0  0  0  0  0  0  0  0  0  0  0
  137.2414   80.8938  226.8897 H   0  0  0  0  0  0  0  0  0  0  0  0
  141.4887   79.5969  223.9485 H   0  0  0  0  0  0  0  0  0  0  0  0
  142.5266   77.5328  223.0717 H   0  0  0  0  0  0  0  0  0  0  0  0
  142.3340   75.4390  221.8290 H   0  0  0  0  0  0  0  0  0  0  0  0
  140.4380   73.5791  222.1530 H   0  0  0  0  0  0  0  0  0  0  0  0
  139.3820   74.7374  221.3272 H   0  0  0  0  0  0  0  0  0  0  0  0
  140.6436   74.6620  219.3437 H   0  0  0  0  0  0  0  0  0  0  0  0
  139.7707   72.2011  220.4812 H   0  0  0  0  0  0  0  0  0  0  0  0
  139.9845   72.5437  218.7659 H   0  0  0  0  0  0  0  0  0  0  0  0
  141.5451   70.6945  220.1397 H   0  0  0  0  0  0  0  0  0  0  0  0
  142.1865   71.5204  218.7552 H   0  0  0  0  0  0  0  0  0  0  0  0
  142.2797   72.4229  221.7295 H   0  0  0  0  0  0  0  0  0  0  0  0
  143.6756   72.1576  220.7187 H   0  0  0  0  0  0  0  0  0  0  0  0
  144.0565   75.9667  218.1763 H   0  0  0  0  0  0  0  0  0  0  0  0
  142.2622   75.6340  218.1469 H   0  0  0  0  0  0  0  0  0  0  0  0
  143.5910   77.8640  219.6800 H   0  0  0  0  0  0  0  0  0  0  0  0
  143.1426   79.3309  220.2753 H   0  0  0  0  0  0  0  0  0  0  0  0
  142.7394   81.5930  221.2176 H   0  0  0  0  0  0  0  0  0  0  0  0
  141.1725   83.2979  221.7656 H   0  0  0  0  0  0  0  0  0  0  0  0
  136.9914   82.7139  220.9675 H   0  0  0  0  0  0  0  0  0  0  0  0
  137.4573   80.4632  220.0422 H   0  0  0  0  0  0  0  0  0  0  0  0
  138.7015   76.1239  221.7885 H   0  0  0  0  0  0  0  0  0  0  0  0
  137.6477   78.1869  222.6660 H   0  0  0  0  0  0  0  0  0  0  0  0
  1  2  2  0
  2  3  1  0
  3  4  1  0
  4  5  2  0
  5  6  1  0
  6  7  2  0
  7  8  1  0
  8  9  2  0
  2 10  1  0
 10 11  2  0
 11 12  1  0
 12 13  2  0
 13 14  1  0
 14 15  1  0
 15 16  1  0
 16 17  1  0
 17 18  1  0
 18 19  1  0
 19 20  1  0
 20 21  1  0
 21 22  2  0
 21 23  1  0
 23 24  1  0
 24 25  1  0
 25 26  2  0
 25 27  1  0
 27 28  2  0
 28 29  1  0
 29 30  2  0
 30 31  1  0
 31 32  2  0
 32 33  1  0
 32 34  1  0
 34 35  2  0
 35 36  1  0
 36 37  2  0
 13 38  1  0
 38 39  2  0
  9  4  1  0
 39 10  1  0
 20 16  1  0
 37 27  1  0
 36 30  1  0
  3 40  1  0
  5 41  1  0
  6 42  1  0
  7 43  1  0
  8 44  1  0
  9 45  1  0
 11 46  1  0
 12 47  1  0
 14 48  1  0
 15 49  1  0
 15 50  1  0
 16 51  1  6
 17 52  1  0
 17 53  1  0
 18 54  1  0
 18 55  1  0
 19 56  1  0
 19 57  1  0
 23 58  1  0
 23 59  1  0
 24 60  1  0
 28 61  1  0
 29 62  1  0
 31 63  1  0
 34 64  1  0
 35 65  1  0
 38 66  1  0
 39 67  1  0
M  END
>  <smiles>  (5) 
O=C(Nc1ccccc1)c1ccc(NC[C@@H]2CCCN2C(=O)CNC(=O)c2ccc3cc(F)ccc3n2)cc1

>  <score_type>  (5) 
oracle

>  <origin>  (5) 
autodockgpu

>  <m_score__min__energy>  (5) 
-9.8599999999999994

>  <m_primary>  (5) 
energy

>  <rmsd>  (5) 
8.32541985423787

>  <m_score__min__rmsd>  (5) 
8.32541985423787

>  <meeko>  (5) 
{"free_energy": -6.82, "intermolecular_energy": -9.5, "internal_energy": -4.61, "cluster_size": 4, "cluster_id": 11, "rank_in_cluster": 2}

>  <energy>  (5) 
-9.47

>  <cluster_rmsd>  (5) 
1.32

>  <cluster>  (5) 
1

$$$$

     RDKit          3D

 67 71  0  0  0  0  0  0  0  0999 V2000
  146.0840   71.6650  219.4710 O   0  0  0  0  0  0  0  0  0  0  0  0
  144.8440   71.7330  219.2790 C   0  0  0  0  0  0  0  0  0  0  0  0
  144.1130   70.5760  218.9090 N   0  0  0  0  0  0  0  0  0  0  0  0
  144.7770   69.3080  218.7470 C   0  0  0  0  0  0  0  0  0  0  0  0
  145.2890   68.9190  217.5130 C   0  0  0  0  0  0  0  0  0  0  0  0
  145.9120   67.6820  217.4480 C   0  0  0  0  0  0  0  0  0  0  0  0
  146.0290   66.8610  218.5510 C   0  0  0  0  0  0  0  0  0  0  0  0
  145.5230   67.2420  219.7760 C   0  0  0  0  0  0  0  0  0  0  0  0
  144.8930   68.4880  219.8530 C   0  0  0  0  0  0  0  0  0  0  0  0
  144.2150   73.0410  219.4550 C   0  0  0  0  0  0  0  0  0  0  0  0
  144.9350   74.0270  220.0950 C   0  0  0  0  0  0  0  0  0  0  0  0
  144.3750   75.2870  220.2840 C   0  0  0  0  0  0  0  0  0  0  0  0
  143.1020   75.6030  219.8490 C   0  0  0  0  0  0  0  0  0  0  0  0
  142.5300   76.8970  220.0450 N   0  0  0  0  0  0  0  0  0  0  0  0
  141.2540   77.1940  219.4210 C   0  0  0  0  0  0  0  0  0  0  0  0
  140.2990   77.5030  220.5480 C   0  0  2  0  0  0  0  0  0  0  0  0
  140.8720   78.4830  221.5200 C   0  0  0  0  0  0  0  0  0  0  0  0
  141.0170   77.7020  222.8160 C   0  0  0  0  0  0  0  0  0  0  0  0
  141.1150   76.2860  222.2780 C   0  0  0  0  0  0  0  0  0  0  0  0
  140.0390   76.2510  221.3400 N   0  0  0  0  0  0  0  0  0  0  0  0
  138.9380   75.4490  221.0540 C   0  0  0  0  0  0  0  0  0  0  0  0
  137.8040   76.0940  220.9270 O   0  0  0  0  0  0  0  0  0  0  0  0
  138.7880   74.0110  220.8590 C   0  0  0  0  0  0  0  0  0  0  0  0
  138.7640   73.2740  222.0840 N   0  0  0  0  0  0  0  0  0  0  0  0
  139.8400   72.3110  222.2560 C   0  0  0  0  0  0  0  0  0  0  0  0
  140.6540   72.2440  221.3270 O   0  0  0  0  0  0  0  0  0  0  0  0
  139.8910   71.5140  223.4750 C   0  0  0  0  0  0  0  0  0  0  0  0
  139.3230   70.2580  223.4390 C   0  0  0  0  0  0  0  0  0  0  0  0
  139.3020   69.4020  224.5190 C   0  0  0  0  0  0  0  0  0  0  0  0
  139.8980   69.8780  225.6870 C   0  0  0  0  0  0  0  0  0  0  0  0
  139.8950   69.0430  226.7960 C   0  0  0  0  0  0  0  0  0  0  0  0
  140.4740   69.4780  227.9640 C   0  0  0  0  0  0  0  0  0  0  0  0
  140.5060   68.7050  229.0960 F   0  0  0  0  0  0  0  0  0  0  0  0
  141.0480   70.7490  227.9970 C   0  0  0  0  0  0  0  0  0  0  0  0
  141.0440   71.5750  226.8830 C   0  0  0  0  0  0  0  0  0  0  0  0
  140.4580   71.1330  225.7010 C   0  0  0  0  0  0  0  0  0  0  0  0
  140.4540   71.9370  224.6140 N   0  0  0  0  0  0  0  0  0  0  0  0
  142.3960   74.5990  219.2090 C   0  0  0  0  0  0  0  0  0  0  0  0
  142.9410   73.3310  219.0110 C   0  0  0  0  0  0  0  0  0  0  0  0
  143.0840   70.6250  218.7480 H   0  0  0  0  0  0  0  0  0  0  0  0
  145.2032   69.5652  216.6270 H   0  0  0  0  0  0  0  0  0  0  0  0
  146.3262   67.3443  216.4865 H   0  0  0  0  0  0  0  0  0  0  0  0
  146.5333   65.8884  218.4516 H   0  0  0  0  0  0  0  0  0  0  0  0
  145.6115   66.5910  220.6583 H   0  0  0  0  0  0  0  0  0  0  0  0
  144.4804   68.8230  220.8161 H   0  0  0  0  0  0  0  0  0  0  0  0
  145.9526   73.8178  220.4565 H   0  0  0  0  0  0  0  0  0  0  0  0
  144.9668   76.0588  220.7979 H   0  0  0  0  0  0  0  0  0  0  0  0
  143.0640   77.5740  220.6320 H   0  0  0  0  0  0  0  0  0  0  0  0
  141.3489   78.0621  218.7522 H   0  0  0  0  0  0  0  0  0  0  0  0
  140.8979   76.3496  218.8126 H   0  0  0  0  0  0  0  0  0  0  0  0
  139.3901   77.9140  220.0844 H   0  0  0  0  0  0  0  0  0  0  0  0
  141.8513   78.8452  221.1738 H   0  0  0  0  0  0  0  0  0  0  0  0
  140.2349   79.3718  221.6390 H   0  0  0  0  0  0  0  0  0  0  0  0
  141.9253   77.9914  223.3648 H   0  0  0  0  0  0  0  0  0  0  0  0
  140.2043   77.8614  223.5399 H   0  0  0  0  0  0  0  0  0  0  0  0
  142.0822   76.1121  221.7837 H   0  0  0  0  0  0  0  0  0  0  0  0
  141.0518   75.5103  223.0554 H   0  0  0  0  0  0  0  0  0  0  0  0
  137.8452   73.8278  220.3227 H   0  0  0  0  0  0  0  0  0  0  0  0
  139.6630   73.6664  220.2883 H   0  0  0  0  0  0  0  0  0  0  0  0
  138.0370   73.3870  222.8310 H   0  0  0  0  0  0  0  0  0  0  0  0
  138.8623   69.9214  222.4985 H   0  0  0  0  0  0  0  0  0  0  0  0
  138.8431   68.4039  224.4633 H   0  0  0  0  0  0  0  0  0  0  0  0
  139.4348   68.0454  226.7406 H   0  0  0  0  0  0  0  0  0  0  0  0
  141.5144   71.1041  228.9278 H   0  0  0  0  0  0  0  0  0  0  0  0
  141.5016   72.5740  226.9336 H   0  0  0  0  0  0  0  0  0  0  0  0
  141.3783   74.8070  218.8471 H   0  0  0  0  0  0  0  0  0  0  0  0
  142.3517   72.5569  218.4976 H   0  0  0  0  0  0  0  0  0  0  0  0
  1  2  2  0
  2  3  1  0
  3  4  1  0
  4  5  2  0
  5  6  1  0
  6  7  2  0
  7  8  1  0
  8  9  2  0
  2 10  1  0
 10 11  2  0
 11 12  1  0
 12 13  2  0
 13 14  1  0
 14 15  1  0
 15 16  1  0
 16 17  1  0
 17 18  1  0
 18 19  1  0
 19 20  1  0
 20 21  1  0
 21 22  2  0
 21 23  1  0
 23 24  1  0
 24 25  1  0
 25 26  2  0
 25 27  1  0
 27 28  2  0
 28 29  1  0
 29 30  2  0
 30 31  1  0
 31 32  2  0
 32 33  1  0
 32 34  1  0
 34 35  2  0
 35 36  1  0
 36 37  2  0
 13 38  1  0
 38 39  2  0
  9  4  1  0
 39 10  1  0
 20 16  1  0
 37 27  1  0
 36 30  1  0
  3 40  1  0
  5 41  1  0
  6 42  1  0
  7 43  1  0
  8 44  1  0
  9 45  1  0
 11 46  1  0
 12 47  1  0
 14 48  1  0
 15 49  1  0
 15 50  1  0
 16 51  1  6
 17 52  1  0
 17 53  1  0
 18 54  1  0
 18 55  1  0
 19 56  1  0
 19 57  1  0
 23 58  1  0
 23 59  1  0
 24 60  1  0
 28 61  1  0
 29 62  1  0
 31 63  1  0
 34 64  1  0
 35 65  1  0
 38 66  1  0
 39 67  1  0
M  END
>  <smiles>  (6) 
O=C(Nc1ccccc1)c1ccc(NC[C@@H]2CCCN2C(=O)CNC(=O)c2ccc3cc(F)ccc3n2)cc1

>  <score_type>  (6) 
oracle

>  <origin>  (6) 
autodockgpu

>  <m_score__min__energy>  (6) 
-9.8599999999999994

>  <m_primary>  (6) 
energy

>  <rmsd>  (6) 
8.768213399524726

>  <m_score__min__rmsd>  (6) 
8.768213399524726

>  <meeko>  (6) 
{"free_energy": -9.8, "intermolecular_energy": -12.48, "internal_energy": -2.07, "cluster_size": 7, "cluster_id": 1, "rank_in_cluster": 2}

>  <energy>  (6) 
-9.32

>  <cluster_rmsd>  (6) 
1.14

>  <cluster>  (6) 
1

$$$$

     RDKit          3D

 67 71  0  0  0  0  0  0  0  0999 V2000
  146.1710   71.6560  219.5530 O   0  0  0  0  0  0  0  0  0  0  0  0
  144.9420   71.7120  219.2940 C   0  0  0  0  0  0  0  0  0  0  0  0
  144.2380   70.5430  218.9110 N   0  0  0  0  0  0  0  0  0  0  0  0
  144.9160   69.2750  218.8130 C   0  0  0  0  0  0  0  0  0  0  0  0
  144.9160   68.3790  219.8780 C   0  0  0  0  0  0  0  0  0  0  0  0
  145.5930   67.1830  219.6970 C   0  0  0  0  0  0  0  0  0  0  0  0
  146.2440   66.8790  218.5190 C   0  0  0  0  0  0  0  0  0  0  0  0
  146.2480   67.7650  217.4610 C   0  0  0  0  0  0  0  0  0  0  0  0
  145.5670   68.9740  217.6330 C   0  0  0  0  0  0  0  0  0  0  0  0
  144.2990   73.0190  219.4070 C   0  0  0  0  0  0  0  0  0  0  0  0
  144.9730   74.0200  220.0740 C   0  0  0  0  0  0  0  0  0  0  0  0
  144.3980   75.2800  220.2050 C   0  0  0  0  0  0  0  0  0  0  0  0
  143.1540   75.5820  219.6850 C   0  0  0  0  0  0  0  0  0  0  0  0
  142.5660   76.8770  219.8220 N   0  0  0  0  0  0  0  0  0  0  0  0
  141.2410   77.0990  219.2740 C   0  0  0  0  0  0  0  0  0  0  0  0
  140.3280   77.3040  220.4580 C   0  0  2  0  0  0  0  0  0  0  0  0
  140.9770   78.1060  221.5390 C   0  0  0  0  0  0  0  0  0  0  0  0
  141.0970   77.1470  222.7120 C   0  0  0  0  0  0  0  0  0  0  0  0
  141.0980   75.8150  221.9830 C   0  0  0  0  0  0  0  0  0  0  0  0
  140.0050   75.9730  221.0770 N   0  0  0  0  0  0  0  0  0  0  0  0
  138.8520   75.2830  220.7140 C   0  0  0  0  0  0  0  0  0  0  0  0
  137.9020   76.0300  220.2040 O   0  0  0  0  0  0  0  0  0  0  0  0
  138.4820   73.8750  220.7810 C   0  0  0  0  0  0  0  0  0  0  0  0
  138.7250   73.2860  222.0610 N   0  0  0  0  0  0  0  0  0  0  0  0
  139.3070   71.9530  222.0360 C   0  0  0  0  0  0  0  0  0  0  0  0
  139.5260   71.4840  220.9120 O   0  0  0  0  0  0  0  0  0  0  0  0
  139.5860   71.2770  223.2970 C   0  0  0  0  0  0  0  0  0  0  0  0
  139.2990   69.9300  223.3740 C   0  0  0  0  0  0  0  0  0  0  0  0
  139.5130   69.1710  224.5040 C   0  0  0  0  0  0  0  0  0  0  0  0
  140.0510   69.8470  225.6010 C   0  0  0  0  0  0  0  0  0  0  0  0
  140.2800   69.1140  226.7570 C   0  0  0  0  0  0  0  0  0  0  0  0
  140.8090   69.7460  227.8570 C   0  0  0  0  0  0  0  0  0  0  0  0
  141.0600   69.0830  229.0310 F   0  0  0  0  0  0  0  0  0  0  0  0
  141.0990   71.1080  227.7750 C   0  0  0  0  0  0  0  0  0  0  0  0
  140.8640   71.8310  226.6140 C   0  0  0  0  0  0  0  0  0  0  0  0
  140.3290   71.1890  225.5010 C   0  0  0  0  0  0  0  0  0  0  0  0
  140.1000   71.8910  224.3690 N   0  0  0  0  0  0  0  0  0  0  0  0
  142.4930   74.5640  219.0200 C   0  0  0  0  0  0  0  0  0  0  0  0
  143.0550   73.2960  218.8790 C   0  0  0  0  0  0  0  0  0  0  0  0
  143.2190   70.5820  218.6940 H   0  0  0  0  0  0  0  0  0  0  0  0
  144.4012   68.6099  220.8223 H   0  0  0  0  0  0  0  0  0  0  0  0
  145.6119   66.4525  220.5192 H   0  0  0  0  0  0  0  0  0  0  0  0
  146.7674   65.9164  218.4218 H   0  0  0  0  0  0  0  0  0  0  0  0
  146.7663   67.5295  216.5198 H   0  0  0  0  0  0  0  0  0  0  0  0
  145.5494   69.7025  216.8090 H   0  0  0  0  0  0  0  0  0  0  0  0
  145.9664   73.8221  220.5030 H   0  0  0  0  0  0  0  0  0  0  0  0
  144.9533   76.0635  220.7415 H   0  0  0  0  0  0  0  0  0  0  0  0
  143.1240   77.6080  220.3140 H   0  0  0  0  0  0  0  0  0  0  0  0
  141.2384   77.9913  218.6308 H   0  0  0  0  0  0  0  0  0  0  0  0
  140.9139   76.2496  218.6563 H   0  0  0  0  0  0  0  0  0  0  0  0
  139.4377   77.8274  220.0793 H   0  0  0  0  0  0  0  0  0  0  0  0
  141.9703   78.4549  221.2200 H   0  0  0  0  0  0  0  0  0  0  0  0
  140.3978   79.0056  221.7945 H   0  0  0  0  0  0  0  0  0  0  0  0
  142.0311   77.3044  223.2711 H   0  0  0  0  0  0  0  0  0  0  0  0
  140.3089   77.2524  223.4722 H   0  0  0  0  0  0  0  0  0  0  0  0
  142.0437   75.6545  221.4446 H   0  0  0  0  0  0  0  0  0  0  0  0
  141.0009   74.9445  222.6485 H   0  0  0  0  0  0  0  0  0  0  0  0
  137.4096   73.7847  220.5532 H   0  0  0  0  0  0  0  0  0  0  0  0
  139.1075   73.3390  220.0520 H   0  0  0  0  0  0  0  0  0  0  0  0
  138.5130   73.7480  222.9780 H   0  0  0  0  0  0  0  0  0  0  0  0
  138.8770   69.4357  222.4865 H   0  0  0  0  0  0  0  0  0  0  0  0
  139.2745   68.0978  224.5397 H   0  0  0  0  0  0  0  0  0  0  0  0
  140.0412   68.0408  226.7925 H   0  0  0  0  0  0  0  0  0  0  0  0
  141.5237   71.6207  228.6507 H   0  0  0  0  0  0  0  0  0  0  0  0
  141.0991   72.9048  226.5736 H   0  0  0  0  0  0  0  0  0  0  0  0
  141.4990   74.7604  218.5919 H   0  0  0  0  0  0  0  0  0  0  0  0
  142.5024   72.5105  218.3427 H   0  0  0  0  0  0  0  0  0  0  0  0
  1  2  2  0
  2  3  1  0
  3  4  1  0
  4  5  2  0
  5  6  1  0
  6  7  2  0
  7  8  1  0
  8  9  2  0
  2 10  1  0
 10 11  2  0
 11 12  1  0
 12 13  2  0
 13 14  1  0
 14 15  1  0
 15 16  1  0
 16 17  1  0
 17 18  1  0
 18 19  1  0
 19 20  1  0
 20 21  1  0
 21 22  2  0
 21 23  1  0
 23 24  1  0
 24 25  1  0
 25 26  2  0
 25 27  1  0
 27 28  2  0
 28 29  1  0
 29 30  2  0
 30 31  1  0
 31 32  2  0
 32 33  1  0
 32 34  1  0
 34 35  2  0
 35 36  1  0
 36 37  2  0
 13 38  1  0
 38 39  2  0
  9  4  1  0
 39 10  1  0
 20 16  1  0
 37 27  1  0
 36 30  1  0
  3 40  1  0
  5 41  1  0
  6 42  1  0
  7 43  1  0
  8 44  1  0
  9 45  1  0
 11 46  1  0
 12 47  1  0
 14 48  1  0
 15 49  1  0
 15 50  1  0
 16 51  1  6
 17 52  1  0
 17 53  1  0
 18 54  1  0
 18 55  1  0
 19 56  1  0
 19 57  1  0
 23 58  1  0
 23 59  1  0
 24 60  1  0
 28 61  1  0
 29 62  1  0
 31 63  1  0
 34 64  1  0
 35 65  1  0
 38 66  1  0
 39 67  1  0
M  END
>  <smiles>  (7) 
O=C(Nc1ccccc1)c1ccc(NC[C@@H]2CCCN2C(=O)CNC(=O)c2ccc3cc(F)ccc3n2)cc1

>  <score_type>  (7) 
oracle

>  <origin>  (7) 
autodockgpu

>  <m_score__min__energy>  (7) 
-9.8599999999999994

>  <m_primary>  (7) 
energy

>  <rmsd>  (7) 
8.765537672079516

>  <m_score__min__rmsd>  (7) 
8.765537672079516

>  <meeko>  (7) 
{"free_energy": -9.54, "intermolecular_energy": -12.22, "internal_energy": -2.08, "cluster_size": 7, "cluster_id": 1, "rank_in_cluster": 4}

>  <energy>  (7) 
-9.31

>  <cluster_rmsd>  (7) 
1.63

>  <cluster>  (7) 
1

$$$$

     RDKit          3D

 67 71  0  0  0  0  0  0  0  0999 V2000
  143.5740   76.8210  216.3370 O   0  0  0  0  0  0  0  0  0  0  0  0
  143.0470   76.4990  217.4320 C   0  0  0  0  0  0  0  0  0  0  0  0
  143.1330   75.1650  217.9030 N   0  0  0  0  0  0  0  0  0  0  0  0
  143.8250   74.1590  217.1370 C   0  0  0  0  0  0  0  0  0  0  0  0
  143.2280   72.9320  216.8630 C   0  0  0  0  0  0  0  0  0  0  0  0
  143.9660   72.0220  216.1210 C   0  0  0  0  0  0  0  0  0  0  0  0
  145.2370   72.3070  215.6650 C   0  0  0  0  0  0  0  0  0  0  0  0
  145.8320   73.5220  215.9350 C   0  0  0  0  0  0  0  0  0  0  0  0
  145.0980   74.4460  216.6830 C   0  0  0  0  0  0  0  0  0  0  0  0
  142.3570   77.5540  218.1710 C   0  0  0  0  0  0  0  0  0  0  0  0
  142.8980   78.8220  218.1520 C   0  0  0  0  0  0  0  0  0  0  0  0
  142.2740   79.8560  218.8430 C   0  0  0  0  0  0  0  0  0  0  0  0
  141.1100   79.6670  219.5630 C   0  0  0  0  0  0  0  0  0  0  0  0
  140.4730   80.7320  220.2710 N   0  0  0  0  0  0  0  0  0  0  0  0
  141.2890   81.6050  221.0940 C   0  0  0  0  0  0  0  0  0  0  0  0
  141.0890   81.1450  222.5180 C   0  0  2  0  0  0  0  0  0  0  0  0
  142.1960   81.5940  223.4160 C   0  0  0  0  0  0  0  0  0  0  0  0
  142.8800   80.3110  223.8570 C   0  0  0  0  0  0  0  0  0  0  0  0
  142.5110   79.3890  222.7090 C   0  0  0  0  0  0  0  0  0  0  0  0
  141.1120   79.6420  222.5650 N   0  0  0  0  0  0  0  0  0  0  0  0
  139.9280   78.9140  222.5010 C   0  0  0  0  0  0  0  0  0  0  0  0
  138.8550   79.6280  222.2620 O   0  0  0  0  0  0  0  0  0  0  0  0
  139.6340   77.4920  222.6450 C   0  0  0  0  0  0  0  0  0  0  0  0
  140.7280   76.6480  222.2760 N   0  0  0  0  0  0  0  0  0  0  0  0
  140.3650   75.4170  221.5920 C   0  0  0  0  0  0  0  0  0  0  0  0
  139.1540   75.2440  221.4060 O   0  0  0  0  0  0  0  0  0  0  0  0
  141.4170   74.4960  221.1820 C   0  0  0  0  0  0  0  0  0  0  0  0
  141.0670   73.1770  220.9850 C   0  0  0  0  0  0  0  0  0  0  0  0
  141.9620   72.2030  220.5970 C   0  0  0  0  0  0  0  0  0  0  0  0
  143.2790   72.6250  220.4070 C   0  0  0  0  0  0  0  0  0  0  0  0
  144.2080   71.6710  220.0160 C   0  0  0  0  0  0  0  0  0  0  0  0
  145.5150   72.0490  219.8200 C   0  0  0  0  0  0  0  0  0  0  0  0
  146.4840   71.1590  219.4340 F   0  0  0  0  0  0  0  0  0  0  0  0
  145.8650   73.3850  220.0200 C   0  0  0  0  0  0  0  0  0  0  0  0
  144.9270   74.3290  220.4120 C   0  0  0  0  0  0  0  0  0  0  0  0
  143.6050   73.9440  220.6090 C   0  0  0  0  0  0  0  0  0  0  0  0
  142.6900   74.8630  220.9910 N   0  0  0  0  0  0  0  0  0  0  0  0
  140.5830   78.3870  219.5710 C   0  0  0  0  0  0  0  0  0  0  0  0
  141.1960   77.3390  218.8850 C   0  0  0  0  0  0  0  0  0  0  0  0
  142.6980   74.8910  218.8100 H   0  0  0  0  0  0  0  0  0  0  0  0
  142.2149   72.6943  217.2195 H   0  0  0  0  0  0  0  0  0  0  0  0
  143.5242   71.0418  215.8885 H   0  0  0  0  0  0  0  0  0  0  0  0
  145.7836   71.5544  215.0777 H   0  0  0  0  0  0  0  0  0  0  0  0
  146.8452   73.7544  215.5753 H   0  0  0  0  0  0  0  0  0  0  0  0
  145.5438   75.4243  216.9158 H   0  0  0  0  0  0  0  0  0  0  0  0
  143.8235   79.0163  217.5902 H   0  0  0  0  0  0  0  0  0  0  0  0
  142.7234   80.8596  218.8151 H   0  0  0  0  0  0  0  0  0  0  0  0
  139.4400   80.8300  220.1620 H   0  0  0  0  0  0  0  0  0  0  0  0
  142.3480   81.5177  220.8097 H   0  0  0  0  0  0  0  0  0  0  0  0
  141.0024   82.6595  220.9682 H   0  0  0  0  0  0  0  0  0  0  0  0
  140.1314   81.5699  222.8533 H   0  0  0  0  0  0  0  0  0  0  0  0
  142.8993   82.2409  222.8711 H   0  0  0  0  0  0  0  0  0  0  0  0
  141.8270   82.1830  224.2686 H   0  0  0  0  0  0  0  0  0  0  0  0
  143.9693   80.4398  223.9398 H   0  0  0  0  0  0  0  0  0  0  0  0
  142.5763   79.9488  224.8503 H   0  0  0  0  0  0  0  0  0  0  0  0
  143.0612   79.6507  221.7931 H   0  0  0  0  0  0  0  0  0  0  0  0
  142.7548   78.3321  222.8921 H   0  0  0  0  0  0  0  0  0  0  0  0
  139.3786   77.2930  223.6963 H   0  0  0  0  0  0  0  0  0  0  0  0
  138.8006   77.2611  221.9652 H   0  0  0  0  0  0  0  0  0  0  0  0
  141.7360   76.8630  222.4690 H   0  0  0  0  0  0  0  0  0  0  0  0
  140.0183   72.8866  221.1459 H   0  0  0  0  0  0  0  0  0  0  0  0
  141.6570   71.1569  220.4463 H   0  0  0  0  0  0  0  0  0  0  0  0
  143.9022   70.6252  219.8648 H   0  0  0  0  0  0  0  0  0  0  0  0
  146.9082   73.6967  219.8633 H   0  0  0  0  0  0  0  0  0  0  0  0
  145.2270   75.3760  220.5662 H   0  0  0  0  0  0  0  0  0  0  0  0
  139.6575   78.1916  220.1325 H   0  0  0  0  0  0  0  0  0  0  0  0
  140.7507   76.3335  218.9133 H   0  0  0  0  0  0  0  0  0  0  0  0
  1  2  2  0
  2  3  1  0
  3  4  1  0
  4  5  2  0
  5  6  1  0
  6  7  2  0
  7  8  1  0
  8  9  2  0
  2 10  1  0
 10 11  2  0
 11 12  1  0
 12 13  2  0
 13 14  1  0
 14 15  1  0
 15 16  1  0
 16 17  1  0
 17 18  1  0
 18 19  1  0
 19 20  1  0
 20 21  1  0
 21 22  2  0
 21 23  1  0
 23 24  1  0
 24 25  1  0
 25 26  2  0
 25 27  1  0
 27 28  2  0
 28 29  1  0
 29 30  2  0
 30 31  1  0
 31 32  2  0
 32 33  1  0
 32 34  1  0
 34 35  2  0
 35 36  1  0
 36 37  2  0
 13 38  1  0
 38 39  2  0
  9  4  1  0
 39 10  1  0
 20 16  1  0
 37 27  1  0
 36 30  1  0
  3 40  1  0
  5 41  1  0
  6 42  1  0
  7 43  1  0
  8 44  1  0
  9 45  1  0
 11 46  1  0
 12 47  1  0
 14 48  1  0
 15 49  1  0
 15 50  1  0
 16 51  1  1
 17 52  1  0
 17 53  1  0
 18 54  1  0
 18 55  1  0
 19 56  1  0
 19 57  1  0
 23 58  1  0
 23 59  1  0
 24 60  1  0
 28 61  1  0
 29 62  1  0
 31 63  1  0
 34 64  1  0
 35 65  1  0
 38 66  1  0
 39 67  1  0
M  END
>  <smiles>  (8) 
O=C(Nc1ccccc1)c1ccc(NC[C@@H]2CCCN2C(=O)CNC(=O)c2ccc3cc(F)ccc3n2)cc1

>  <score_type>  (8) 
oracle

>  <origin>  (8) 
autodockgpu

>  <m_score__min__energy>  (8) 
-9.8599999999999994

>  <m_primary>  (8) 
energy

>  <rmsd>  (8) 
8.136607712937812

>  <m_score__min__rmsd>  (8) 
8.136607712937812

>  <meeko>  (8) 
{"free_energy": -6.61, "intermolecular_energy": -9.3, "internal_energy": -4.95, "cluster_size": 2, "cluster_id": 19, "rank_in_cluster": 1}

>  <energy>  (8) 
-9.46

>  <cluster_rmsd>  (8) 
0.0

>  <cluster>  (8) 
2

$$$$

     RDKit          3D

 67 71  0  0  0  0  0  0  0  0999 V2000
  143.8260   76.4100  216.1900 O   0  0  0  0  0  0  0  0  0  0  0  0
  143.0940   75.9700  217.1130 C   0  0  0  0  0  0  0  0  0  0  0  0
  143.0720   74.5840  217.4100 N   0  0  0  0  0  0  0  0  0  0  0  0
  143.8850   73.6590  216.6610 C   0  0  0  0  0  0  0  0  0  0  0  0
  143.3040   72.6450  215.9060 C   0  0  0  0  0  0  0  0  0  0  0  0
  144.1620   71.8000  215.2180 C   0  0  0  0  0  0  0  0  0  0  0  0
  145.5330   71.9460  215.2690 C   0  0  0  0  0  0  0  0  0  0  0  0
  146.1120   72.9500  216.0170 C   0  0  0  0  0  0  0  0  0  0  0  0
  145.2570   73.8080  216.7150 C   0  0  0  0  0  0  0  0  0  0  0  0
  142.2880   76.9470  217.8430 C   0  0  0  0  0  0  0  0  0  0  0  0
  142.9440   77.9090  218.5820 C   0  0  0  0  0  0  0  0  0  0  0  0
  142.2160   78.8580  219.2920 C   0  0  0  0  0  0  0  0  0  0  0  0
  140.8340   78.8820  219.2920 C   0  0  0  0  0  0  0  0  0  0  0  0
  140.0900   79.8580  220.0230 N   0  0  0  0  0  0  0  0  0  0  0  0
  140.8110   80.9390  220.6690 C   0  0  0  0  0  0  0  0  0  0  0  0
  140.7480   80.6570  222.1500 C   0  0  2  0  0  0  0  0  0  0  0  0
  141.7180   81.4890  222.9250 C   0  0  0  0  0  0  0  0  0  0  0  0
  142.7040   80.4890  223.5070 C   0  0  0  0  0  0  0  0  0  0  0  0
  142.5620   79.3480  222.5160 C   0  0  0  0  0  0  0  0  0  0  0  0
  141.1430   79.2280  222.4050 N   0  0  0  0  0  0  0  0  0  0  0  0
  140.1760   78.2320  222.4980 C   0  0  0  0  0  0  0  0  0  0  0  0
  139.2630   78.4350  223.4170 O   0  0  0  0  0  0  0  0  0  0  0  0
  139.9660   76.9890  221.7650 C   0  0  0  0  0  0  0  0  0  0  0  0
  141.1660   76.2360  221.5710 N   0  0  0  0  0  0  0  0  0  0  0  0
  141.0610   75.1190  220.6460 C   0  0  0  0  0  0  0  0  0  0  0  0
  139.9480   74.9520  220.1310 O   0  0  0  0  0  0  0  0  0  0  0  0
  142.2360   74.2960  220.3910 C   0  0  0  0  0  0  0  0  0  0  0  0
  143.4730   74.8840  220.5550 C   0  0  0  0  0  0  0  0  0  0  0  0
  144.6630   74.2210  220.3470 C   0  0  0  0  0  0  0  0  0  0  0  0
  144.5580   72.8870  219.9500 C   0  0  0  0  0  0  0  0  0  0  0  0
  145.7360   72.1870  219.7310 C   0  0  0  0  0  0  0  0  0  0  0  0
  145.6720   70.8720  219.3390 C   0  0  0  0  0  0  0  0  0  0  0  0
  146.7960   70.1220  219.1060 F   0  0  0  0  0  0  0  0  0  0  0  0
  144.4190   70.2810  219.1740 C   0  0  0  0  0  0  0  0  0  0  0  0
  143.2480   70.9900  219.3950 C   0  0  0  0  0  0  0  0  0  0  0  0
  143.3150   72.3220  219.7920 C   0  0  0  0  0  0  0  0  0  0  0  0
  142.1750   73.0150  220.0090 N   0  0  0  0  0  0  0  0  0  0  0  0
  140.1950   77.9070  218.5450 C   0  0  0  0  0  0  0  0  0  0  0  0
  140.9090   76.9490  217.8270 C   0  0  0  0  0  0  0  0  0  0  0  0
  142.4660   74.2120  218.1740 H   0  0  0  0  0  0  0  0  0  0  0  0
  142.2123   72.5191  215.8569 H   0  0  0  0  0  0  0  0  0  0  0  0
  143.7356   70.9870  214.6120 H   0  0  0  0  0  0  0  0  0  0  0  0
  146.1735   71.2519  214.7051 H   0  0  0  0  0  0  0  0  0  0  0  0
  147.2044   73.0709  216.0625 H   0  0  0  0  0  0  0  0  0  0  0  0
  145.6865   74.6197  217.3206 H   0  0  0  0  0  0  0  0  0  0  0  0
  144.0435   77.9258  218.6100 H   0  0  0  0  0  0  0  0  0  0  0  0
  142.7596   79.6166  219.8744 H   0  0  0  0  0  0  0  0  0  0  0  0
  139.0540   79.7450  220.0580 H   0  0  0  0  0  0  0  0  0  0  0  0
  141.8567   80.9579  220.3280 H   0  0  0  0  0  0  0  0  0  0  0  0
  140.3703   81.9174  220.4269 H   0  0  0  0  0  0  0  0  0  0  0  0
  139.7185   80.8798  222.4669 H   0  0  0  0  0  0  0  0  0  0  0  0
  142.2328   82.2017  222.2639 H   0  0  0  0  0  0  0  0  0  0  0  0
  141.2236   82.0881  223.7039 H   0  0  0  0  0  0  0  0  0  0  0  0
  143.7283   80.8898  223.5201 H   0  0  0  0  0  0  0  0  0  0  0  0
  142.5107   80.2123  224.5539 H   0  0  0  0  0  0  0  0  0  0  0  0
  143.0190   79.6000  221.5477 H   0  0  0  0  0  0  0  0  0  0  0  0
  143.0628   78.4208  222.8315 H   0  0  0  0  0  0  0  0  0  0  0  0
  139.2520   76.3689  222.3268 H   0  0  0  0  0  0  0  0  0  0  0  0
  139.5867   77.2591  220.7684 H   0  0  0  0  0  0  0  0  0  0  0  0
  142.0790   76.4400  222.0450 H   0  0  0  0  0  0  0  0  0  0  0  0
  143.5116   75.9377  220.8683 H   0  0  0  0  0  0  0  0  0  0  0  0
  145.6369   74.7133  220.4855 H   0  0  0  0  0  0  0  0  0  0  0  0
  146.7098   72.6794  219.8697 H   0  0  0  0  0  0  0  0  0  0  0  0
  144.3586   69.2281  218.8613 H   0  0  0  0  0  0  0  0  0  0  0  0
  142.2717   70.5023  219.2573 H   0  0  0  0  0  0  0  0  0  0  0  0
  139.0955   77.8879  218.5174 H   0  0  0  0  0  0  0  0  0  0  0  0
  140.3686   76.1891  217.2434 H   0  0  0  0  0  0  0  0  0  0  0  0
  1  2  2  0
  2  3  1  0
  3  4  1  0
  4  5  2  0
  5  6  1  0
  6  7  2  0
  7  8  1  0
  8  9  2  0
  2 10  1  0
 10 11  2  0
 11 12  1  0
 12 13  2  0
 13 14  1  0
 14 15  1  0
 15 16  1  0
 16 17  1  0
 17 18  1  0
 18 19  1  0
 19 20  1  0
 20 21  1  0
 21 22  2  0
 21 23  1  0
 23 24  1  0
 24 25  1  0
 25 26  2  0
 25 27  1  0
 27 28  2  0
 28 29  1  0
 29 30  2  0
 30 31  1  0
 31 32  2  0
 32 33  1  0
 32 34  1  0
 34 35  2  0
 35 36  1  0
 36 37  2  0
 13 38  1  0
 38 39  2  0
  9  4  1  0
 39 10  1  0
 20 16  1  0
 37 27  1  0
 36 30  1  0
  3 40  1  0
  5 41  1  0
  6 42  1  0
  7 43  1  0
  8 44  1  0
  9 45  1  0
 11 46  1  0
 12 47  1  0
 14 48  1  0
 15 49  1  0
 15 50  1  0
 16 51  1  1
 17 52  1  0
 17 53  1  0
 18 54  1  0
 18 55  1  0
 19 56  1  0
 19 57  1  0
 23 58  1  0
 23 59  1  0
 24 60  1  0
 28 61  1  0
 29 62  1  0
 31 63  1  0
 34 64  1  0
 35 65  1  0
 38 66  1  0
 39 67  1  0
M  END
>  <smiles>  (9) 
O=C(Nc1ccccc1)c1ccc(NC[C@@H]2CCCN2C(=O)CNC(=O)c2ccc3cc(F)ccc3n2)cc1

>  <score_type>  (9) 
oracle

>  <origin>  (9) 
autodockgpu

>  <m_score__min__energy>  (9) 
-9.8599999999999994

>  <m_primary>  (9) 
energy

>  <rmsd>  (9) 
8.097008394742513

>  <m_score__min__rmsd>  (9) 
8.097008394742513

>  <meeko>  (9) 
{"free_energy": -5.85, "intermolecular_energy": -8.53, "internal_energy": -4.98, "cluster_size": 2, "cluster_id": 19, "rank_in_cluster": 2}

>  <energy>  (9) 
-8.71

>  <cluster_rmsd>  (9) 
1.0

>  <cluster>  (9) 
2

$$$$

     RDKit          3D

 67 71  0  0  0  0  0  0  0  0999 V2000
  145.7780   70.9580  218.5970 O   0  0  0  0  0  0  0  0  0  0  0  0
  144.6690   71.0820  219.1770 C   0  0  0  0  0  0  0  0  0  0  0  0
  143.9660   69.9360  219.6260 N   0  0  0  0  0  0  0  0  0  0  0  0
  144.5080   68.6160  219.4270 C   0  0  0  0  0  0  0  0  0  0  0  0
  145.8650   68.3650  219.6000 C   0  0  0  0  0  0  0  0  0  0  0  0
  146.3000   67.0660  219.3870 C   0  0  0  0  0  0  0  0  0  0  0  0
  145.4370   66.0540  219.0200 C   0  0  0  0  0  0  0  0  0  0  0  0
  144.0900   66.2990  218.8470 C   0  0  0  0  0  0  0  0  0  0  0  0
  143.6410   67.6050  219.0590 C   0  0  0  0  0  0  0  0  0  0  0  0
  144.1620   72.4400  219.3560 C   0  0  0  0  0  0  0  0  0  0  0  0
  144.8150   73.2670  220.2450 C   0  0  0  0  0  0  0  0  0  0  0  0
  144.3650   74.5680  220.4460 C   0  0  0  0  0  0  0  0  0  0  0  0
  143.2690   75.0820  219.7800 C   0  0  0  0  0  0  0  0  0  0  0  0
  142.8100   76.4190  219.9890 N   0  0  0  0  0  0  0  0  0  0  0  0
  142.1620   77.1100  218.8900 C   0  0  0  0  0  0  0  0  0  0  0  0
  140.8340   77.5900  219.4240 C   0  0  2  0  0  0  0  0  0  0  0  0
  140.6010   79.0390  219.1370 C   0  0  0  0  0  0  0  0  0  0  0  0
  140.5760   79.7030  220.5040 C   0  0  0  0  0  0  0  0  0  0  0  0
  141.3980   78.7140  221.3100 C   0  0  0  0  0  0  0  0  0  0  0  0
  140.8220   77.4660  220.9220 N   0  0  0  0  0  0  0  0  0  0  0  0
  140.2960   76.3320  221.5340 C   0  0  0  0  0  0  0  0  0  0  0  0
  139.7250   76.5480  222.6940 O   0  0  0  0  0  0  0  0  0  0  0  0
  140.2470   74.9300  221.1380 C   0  0  0  0  0  0  0  0  0  0  0  0
  139.9560   74.0450  222.2230 N   0  0  0  0  0  0  0  0  0  0  0  0
  140.5390   72.7170  222.1210 C   0  0  0  0  0  0  0  0  0  0  0  0
  141.2220   72.5070  221.1110 O   0  0  0  0  0  0  0  0  0  0  0  0
  140.2920   71.7490  223.1830 C   0  0  0  0  0  0  0  0  0  0  0  0
  139.6050   70.6010  222.8500 C   0  0  0  0  0  0  0  0  0  0  0  0
  139.3040   69.6060  223.7550 C   0  0  0  0  0  0  0  0  0  0  0  0
  139.7400   69.8200  225.0640 C   0  0  0  0  0  0  0  0  0  0  0  0
  139.4550   68.8390  226.0040 C   0  0  0  0  0  0  0  0  0  0  0  0
  139.8680   69.0140  227.3020 C   0  0  0  0  0  0  0  0  0  0  0  0
  139.6200   68.0860  228.2810 F   0  0  0  0  0  0  0  0  0  0  0  0
  140.5630   70.1770  227.6350 C   0  0  0  0  0  0  0  0  0  0  0  0
  140.8420   71.1510  226.6870 C   0  0  0  0  0  0  0  0  0  0  0  0
  140.4230   70.9710  225.3730 C   0  0  0  0  0  0  0  0  0  0  0  0
  140.6940   71.9190  224.4480 N   0  0  0  0  0  0  0  0  0  0  0  0
  142.6260   74.2370  218.8920 C   0  0  0  0  0  0  0  0  0  0  0  0
  143.0640   72.9300  218.6790 C   0  0  0  0  0  0  0  0  0  0  0  0
  143.0450   70.0310  220.1080 H   0  0  0  0  0  0  0  0  0  0  0  0
  146.5631   69.1629  219.8933 H   0  0  0  0  0  0  0  0  0  0  0  0
  147.3678   66.8347  219.5147 H   0  0  0  0  0  0  0  0  0  0  0  0
  145.8280   65.0379  218.8632 H   0  0  0  0  0  0  0  0  0  0  0  0
  143.3966   65.4971  218.5535 H   0  0  0  0  0  0  0  0  0  0  0  0
  142.5728   67.8336  218.9300 H   0  0  0  0  0  0  0  0  0  0  0  0
  145.6926   72.8978  220.7959 H   0  0  0  0  0  0  0  0  0  0  0  0
  144.9008   75.2102  221.1605 H   0  0  0  0  0  0  0  0  0  0  0  0
  142.9660   76.8380  220.9320 H   0  0  0  0  0  0  0  0  0  0  0  0
  142.7731   77.9639  218.5622 H   0  0  0  0  0  0  0  0  0  0  0  0
  142.0310   76.4492  218.0204 H   0  0  0  0  0  0  0  0  0  0  0  0
  140.0615   76.9765  218.9374 H   0  0  0  0  0  0  0  0  0  0  0  0
  141.4155   79.4486  218.5215 H   0  0  0  0  0  0  0  0  0  0  0  0
  139.6707   79.2079  218.5748 H   0  0  0  0  0  0  0  0  0  0  0  0
  141.0461   80.6972  220.4807 H   0  0  0  0  0  0  0  0  0  0  0  0
  139.5682   79.8919  220.9023 H   0  0  0  0  0  0  0  0  0  0  0  0
  142.4629   78.7645  221.0391 H   0  0  0  0  0  0  0  0  0  0  0  0
  141.3740   78.8962  222.3945 H   0  0  0  0  0  0  0  0  0  0  0  0
  139.4670   74.8109  220.3716 H   0  0  0  0  0  0  0  0  0  0  0  0
  141.2448   74.6636  220.7593 H   0  0  0  0  0  0  0  0  0  0  0  0
  139.3660   74.2960  223.0530 H   0  0  0  0  0  0  0  0  0  0  0  0
  139.2799   70.4724  221.8070 H   0  0  0  0  0  0  0  0  0  0  0  0
  138.7540   68.6990  223.4639 H   0  0  0  0  0  0  0  0  0  0  0  0
  138.9048   67.9321  225.7126 H   0  0  0  0  0  0  0  0  0  0  0  0
  140.8973   70.3251  228.6724 H   0  0  0  0  0  0  0  0  0  0  0  0
  141.3913   72.0601  226.9729 H   0  0  0  0  0  0  0  0  0  0  0  0
  141.7482   74.6053  218.3408 H   0  0  0  0  0  0  0  0  0  0  0  0
  142.5300   72.2849  217.9658 H   0  0  0  0  0  0  0  0  0  0  0  0
  1  2  2  0
  2  3  1  0
  3  4  1  0
  4  5  2  0
  5  6  1  0
  6  7  2  0
  7  8  1  0
  8  9  2  0
  2 10  1  0
 10 11  2  0
 11 12  1  0
 12 13  2  0
 13 14  1  0
 14 15  1  0
 15 16  1  0
 16 17  1  0
 17 18  1  0
 18 19  1  0
 19 20  1  0
 20 21  1  0
 21 22  2  0
 21 23  1  0
 23 24  1  0
 24 25  1  0
 25 26  2  0
 25 27  1  0
 27 28  2  0
 28 29  1  0
 29 30  2  0
 30 31  1  0
 31 32  2  0
 32 33  1  0
 32 34  1  0
 34 35  2  0
 35 36  1  0
 36 37  2  0
 13 38  1  0
 38 39  2  0
  9  4  1  0
 39 10  1  0
 20 16  1  0
 37 27  1  0
 36 30  1  0
  3 40  1  0
  5 41  1  0
  6 42  1  0
  7 43  1  0
  8 44  1  0
  9 45  1  0
 11 46  1  0
 12 47  1  0
 14 48  1  0
 15 49  1  0
 15 50  1  0
 16 51  1  6
 17 52  1  0
 17 53  1  0
 18 54  1  0
 18 55  1  0
 19 56  1  0
 19 57  1  0
 23 58  1  0
 23 59  1  0
 24 60  1  0
 28 61  1  0
 29 62  1  0
 31 63  1  0
 34 64  1  0
 35 65  1  0
 38 66  1  0
 39 67  1  0
M  END
>  <smiles>  (10) 
O=C(Nc1ccccc1)c1ccc(NC[C@@H]2CCCN2C(=O)CNC(=O)c2ccc3cc(F)ccc3n2)cc1

>  <score_type>  (10) 
oracle

>  <origin>  (10) 
autodockgpu

>  <m_score__min__energy>  (10) 
-9.8599999999999994

>  <m_primary>  (10) 
energy

>  <rmsd>  (10) 
9.093431668955793

>  <m_score__min__rmsd>  (10) 
9.093431668955793

>  <meeko>  (10) 
{"free_energy": -9.86, "intermolecular_energy": -12.55, "internal_energy": -2.76, "cluster_size": 7, "cluster_id": 1, "rank_in_cluster": 1}

>  <energy>  (10) 
-9.12

>  <cluster_rmsd>  (10) 
0.0

>  <cluster>  (10) 
3

$$$$

     RDKit          3D

 67 71  0  0  0  0  0  0  0  0999 V2000
  138.3450   76.7720  223.0120 O   0  0  0  0  0  0  0  0  0  0  0  0
  139.1420   77.0710  222.0860 C   0  0  0  0  0  0  0  0  0  0  0  0
  139.3950   78.4300  221.7720 N   0  0  0  0  0  0  0  0  0  0  0  0
  138.7470   79.4870  222.5060 C   0  0  0  0  0  0  0  0  0  0  0  0
  139.0210   79.6950  223.8540 C   0  0  0  0  0  0  0  0  0  0  0  0
  138.3520   80.7350  224.4810 C   0  0  0  0  0  0  0  0  0  0  0  0
  137.4520   81.5380  223.8110 C   0  0  0  0  0  0  0  0  0  0  0  0
  137.1770   81.3350  222.4750 C   0  0  0  0  0  0  0  0  0  0  0  0
  137.8460   80.2900  221.8320 C   0  0  0  0  0  0  0  0  0  0  0  0
  139.7740   75.9640  221.3720 C   0  0  0  0  0  0  0  0  0  0  0  0
  140.9460   75.4460  221.8810 C   0  0  0  0  0  0  0  0  0  0  0  0
  141.5820   74.3920  221.2330 C   0  0  0  0  0  0  0  0  0  0  0  0
  141.0810   73.8270  220.0750 C   0  0  0  0  0  0  0  0  0  0  0  0
  141.7370   72.7450  219.4120 N   0  0  0  0  0  0  0  0  0  0  0  0
  142.8550   72.0990  220.0760 C   0  0  0  0  0  0  0  0  0  0  0  0
  144.0880   72.5010  219.3050 C   0  0  2  0  0  0  0  0  0  0  0  0
  145.3420   72.2660  220.0850 C   0  0  0  0  0  0  0  0  0  0  0  0
  145.9150   73.6540  220.3220 C   0  0  0  0  0  0  0  0  0  0  0  0
  144.6550   74.4960  220.2210 C   0  0  0  0  0  0  0  0  0  0  0  0
  144.0490   73.9800  219.0350 N   0  0  0  0  0  0  0  0  0  0  0  0
  143.5320   74.4680  217.8390 C   0  0  0  0  0  0  0  0  0  0  0  0
  143.4050   73.5730  216.8890 O   0  0  0  0  0  0  0  0  0  0  0  0
  143.0920   75.7930  217.4210 C   0  0  0  0  0  0  0  0  0  0  0  0
  143.1930   76.7760  218.4560 N   0  0  0  0  0  0  0  0  0  0  0  0
  141.9770   77.5260  218.7270 C   0  0  0  0  0  0  0  0  0  0  0  0
  140.9960   77.2260  218.0350 O   0  0  0  0  0  0  0  0  0  0  0  0
  141.9910   78.5490  219.7650 C   0  0  0  0  0  0  0  0  0  0  0  0
  141.7680   79.8530  219.3770 C   0  0  0  0  0  0  0  0  0  0  0  0
  141.7550   80.9160  220.2540 C   0  0  0  0  0  0  0  0  0  0  0  0
  141.9840   80.6030  221.5950 C   0  0  0  0  0  0  0  0  0  0  0  0
  141.9770   81.6490  222.5080 C   0  0  0  0  0  0  0  0  0  0  0  0
  142.1990   81.3790  223.8370 C   0  0  0  0  0  0  0  0  0  0  0  0
  142.2060   82.3630  224.7910 F   0  0  0  0  0  0  0  0  0  0  0  0
  142.4230   80.0580  224.2260 C   0  0  0  0  0  0  0  0  0  0  0  0
  142.4280   79.0220  223.3050 C   0  0  0  0  0  0  0  0  0  0  0  0
  142.2030   79.2970  221.9600 C   0  0  0  0  0  0  0  0  0  0  0  0
  142.2070   78.2870  221.0600 N   0  0  0  0  0  0  0  0  0  0  0  0
  139.9050   74.3620  219.5790 C   0  0  0  0  0  0  0  0  0  0  0  0
  139.2550   75.4180  220.2160 C   0  0  0  0  0  0  0  0  0  0  0  0
  140.0550   78.6850  221.0050 H   0  0  0  0  0  0  0  0  0  0  0  0
  139.7371   79.0620  224.3986 H   0  0  0  0  0  0  0  0  0  0  0  0
  138.5450   80.9261  225.5470 H   0  0  0  0  0  0  0  0  0  0  0  0
  136.9463   82.3523  224.3506 H   0  0  0  0  0  0  0  0  0  0  0  0
  136.4590   81.9709  221.9364 H   0  0  0  0  0  0  0  0  0  0  0  0
  137.6513   80.1023  220.7658 H   0  0  0  0  0  0  0  0  0  0  0  0
  141.3787   75.8667  222.8007 H   0  0  0  0  0  0  0  0  0  0  0  0
  142.5160   73.9943  221.6567 H   0  0  0  0  0  0  0  0  0  0  0  0
  141.3780   72.4690  218.4720 H   0  0  0  0  0  0  0  0  0  0  0  0
  142.9287   72.4404  221.1191 H   0  0  0  0  0  0  0  0  0  0  0  0
  142.7328   71.0060  220.0975 H   0  0  0  0  0  0  0  0  0  0  0  0
  144.0929   71.8975  218.3853 H   0  0  0  0  0  0  0  0  0  0  0  0
  145.1170   71.7708  221.0411 H   0  0  0  0  0  0  0  0  0  0  0  0
  146.0466   71.6103  219.5525 H   0  0  0  0  0  0  0  0  0  0  0  0
  146.3800   73.7369  221.3154 H   0  0  0  0  0  0  0  0  0  0  0  0
  146.7162   73.9436  219.6262 H   0  0  0  0  0  0  0  0  0  0  0  0
  144.0060   74.3513  221.0972 H   0  0  0  0  0  0  0  0  0  0  0  0
  144.8460   75.5788  220.1871 H   0  0  0  0  0  0  0  0  0  0  0  0
  143.7126   76.1151  216.5719 H   0  0  0  0  0  0  0  0  0  0  0  0
  142.0287   75.7128  217.1507 H   0  0  0  0  0  0  0  0  0  0  0  0
  144.0650   76.9740  219.0040 H   0  0  0  0  0  0  0  0  0  0  0  0
  141.5910   80.0558  218.3104 H   0  0  0  0  0  0  0  0  0  0  0  0
  141.5752   81.9479  219.9179 H   0  0  0  0  0  0  0  0  0  0  0  0
  141.7961   82.6806  222.1718 H   0  0  0  0  0  0  0  0  0  0  0  0
  142.5998   79.8334  225.2882 H   0  0  0  0  0  0  0  0  0  0  0  0
  142.6088   77.9886  223.6357 H   0  0  0  0  0  0  0  0  0  0  0  0
  139.4721   73.9433  218.6585 H   0  0  0  0  0  0  0  0  0  0  0  0
  138.3216   75.8189  219.7940 H   0  0  0  0  0  0  0  0  0  0  0  0
  1  2  2  0
  2  3  1  0
  3  4  1  0
  4  5  2  0
  5  6  1  0
  6  7  2  0
  7  8  1  0
  8  9  2  0
  2 10  1  0
 10 11  2  0
 11 12  1  0
 12 13  2  0
 13 14  1  0
 14 15  1  0
 15 16  1  0
 16 17  1  0
 17 18  1  0
 18 19  1  0
 19 20  1  0
 20 21  1  0
 21 22  2  0
 21 23  1  0
 23 24  1  0
 24 25  1  0
 25 26  2  0
 25 27  1  0
 27 28  2  0
 28 29  1  0
 29 30  2  0
 30 31  1  0
 31 32  2  0
 32 33  1  0
 32 34  1  0
 34 35  2  0
 35 36  1  0
 36 37  2  0
 13 38  1  0
 38 39  2  0
  9  4  1  0
 39 10  1  0
 20 16  1  0
 37 27  1  0
 36 30  1  0
  3 40  1  0
  5 41  1  0
  6 42  1  0
  7 43  1  0
  8 44  1  0
  9 45  1  0
 11 46  1  0
 12 47  1  0
 14 48  1  0
 15 49  1  0
 15 50  1  0
 16 51  1  6
 17 52  1  0
 17 53  1  0
 18 54  1  0
 18 55  1  0
 19 56  1  0
 19 57  1  0
 23 58  1  0
 23 59  1  0
 24 60  1  0
 28 61  1  0
 29 62  1  0
 31 63  1  0
 34 64  1  0
 35 65  1  0
 38 66  1  0
 39 67  1  0
M  END
>  <smiles>  (11) 
O=C(Nc1ccccc1)c1ccc(NC[C@@H]2CCCN2C(=O)CNC(=O)c2ccc3cc(F)ccc3n2)cc1

>  <score_type>  (11) 
oracle

>  <origin>  (11) 
autodockgpu

>  <m_score__min__energy>  (11) 
-9.8599999999999994

>  <m_primary>  (11) 
energy

>  <rmsd>  (11) 
7.591482881433972

>  <m_score__min__rmsd>  (11) 
7.591482881433972

>  <meeko>  (11) 
{"free_energy": -6.64, "intermolecular_energy": -9.32, "internal_energy": -5.18, "cluster_size": 2, "cluster_id": 18, "rank_in_cluster": 1}

>  <energy>  (11) 
-7.94

>  <cluster_rmsd>  (11) 
1.79

>  <cluster>  (11) 
3

$$$$

     RDKit          3D

 67 71  0  0  0  0  0  0  0  0999 V2000
  145.9240   71.6380  218.7800 O   0  0  0  0  0  0  0  0  0  0  0  0
  144.7910   71.4390  219.2880 C   0  0  0  0  0  0  0  0  0  0  0  0
  144.2720   70.1230  219.3830 N   0  0  0  0  0  0  0  0  0  0  0  0
  145.0310   68.9970  218.9020 C   0  0  0  0  0  0  0  0  0  0  0  0
  145.5400   68.9770  217.6070 C   0  0  0  0  0  0  0  0  0  0  0  0
  146.2580   67.8530  217.2270 C   0  0  0  0  0  0  0  0  0  0  0  0
  146.4690   66.7930  218.0850 C   0  0  0  0  0  0  0  0  0  0  0  0
  145.9670   66.8090  219.3700 C   0  0  0  0  0  0  0  0  0  0  0  0
  145.2410   67.9370  219.7630 C   0  0  0  0  0  0  0  0  0  0  0  0
  144.0600   72.6120  219.7620 C   0  0  0  0  0  0  0  0  0  0  0  0
  142.8630   72.4110  220.4170 C   0  0  0  0  0  0  0  0  0  0  0  0
  142.1340   73.5000  220.8840 C   0  0  0  0  0  0  0  0  0  0  0  0
  142.5630   74.8030  220.7190 C   0  0  0  0  0  0  0  0  0  0  0  0
  141.8120   75.9180  221.2000 N   0  0  0  0  0  0  0  0  0  0  0  0
  141.6790   77.0860  220.3480 C   0  0  0  0  0  0  0  0  0  0  0  0
  140.2510   77.5500  220.4940 C   0  0  2  0  0  0  0  0  0  0  0  0
  140.1620   78.9440  221.0260 C   0  0  0  0  0  0  0  0  0  0  0  0
  139.4970   78.7980  222.3840 C   0  0  0  0  0  0  0  0  0  0  0  0
  139.8600   77.3620  222.7200 C   0  0  0  0  0  0  0  0  0  0  0  0
  139.5440   76.6850  221.5030 N   0  0  0  0  0  0  0  0  0  0  0  0
  138.8060   75.5790  221.0930 C   0  0  0  0  0  0  0  0  0  0  0  0
  137.5710   75.8410  220.7390 O   0  0  0  0  0  0  0  0  0  0  0  0
  139.1350   74.1640  220.9700 C   0  0  0  0  0  0  0  0  0  0  0  0
  139.3330   73.5180  222.2310 N   0  0  0  0  0  0  0  0  0  0  0  0
  139.5400   72.0790  222.1710 C   0  0  0  0  0  0  0  0  0  0  0  0
  139.5240   71.5820  221.0380 O   0  0  0  0  0  0  0  0  0  0  0  0
  139.7480   71.3400  223.4090 C   0  0  0  0  0  0  0  0  0  0  0  0
  139.3920   70.0080  223.4230 C   0  0  0  0  0  0  0  0  0  0  0  0
  139.5350   69.1940  224.5260 C   0  0  0  0  0  0  0  0  0  0  0  0
  140.0720   69.7980  225.6650 C   0  0  0  0  0  0  0  0  0  0  0  0
  140.2310   69.0090  226.7950 C   0  0  0  0  0  0  0  0  0  0  0  0
  140.7570   69.5680  227.9340 C   0  0  0  0  0  0  0  0  0  0  0  0
  140.9410   68.8470  229.0860 F   0  0  0  0  0  0  0  0  0  0  0  0
  141.1160   70.9160  227.9170 C   0  0  0  0  0  0  0  0  0  0  0  0
  140.9520   71.6950  226.7810 C   0  0  0  0  0  0  0  0  0  0  0  0
  140.4200   71.1260  225.6280 C   0  0  0  0  0  0  0  0  0  0  0  0
  140.2600   71.8840  224.5200 N   0  0  0  0  0  0  0  0  0  0  0  0
  143.7660   74.9830  220.0590 C   0  0  0  0  0  0  0  0  0  0  0  0
  144.5100   73.9040  219.5840 C   0  0  0  0  0  0  0  0  0  0  0  0
  143.3330   69.9500  219.8030 H   0  0  0  0  0  0  0  0  0  0  0  0
  145.3797   69.8166  216.9146 H   0  0  0  0  0  0  0  0  0  0  0  0
  146.6725   67.8049  216.2092 H   0  0  0  0  0  0  0  0  0  0  0  0
  147.0459   65.9225  217.7394 H   0  0  0  0  0  0  0  0  0  0  0  0
  146.1316   65.9670  220.0584 H   0  0  0  0  0  0  0  0  0  0  0  0
  144.8273   67.9818  220.7813 H   0  0  0  0  0  0  0  0  0  0  0  0
  142.4847   71.3895  220.5702 H   0  0  0  0  0  0  0  0  0  0  0  0
  141.1817   73.3171  221.4033 H   0  0  0  0  0  0  0  0  0  0  0  0
  141.3910   75.8400  222.1510 H   0  0  0  0  0  0  0  0  0  0  0  0
  142.3722   77.8761  220.6724 H   0  0  0  0  0  0  0  0  0  0  0  0
  141.9195   76.8492  219.3011 H   0  0  0  0  0  0  0  0  0  0  0  0
  139.8009   77.4956  219.4918 H   0  0  0  0  0  0  0  0  0  0  0  0
  141.1648   79.3838  221.1306 H   0  0  0  0  0  0  0  0  0  0  0  0
  139.5976   79.6094  220.3561 H   0  0  0  0  0  0  0  0  0  0  0  0
  139.9134   79.5040  223.1176 H   0  0  0  0  0  0  0  0  0  0  0  0
  138.4177   79.0103  222.3899 H   0  0  0  0  0  0  0  0  0  0  0  0
  140.9281   77.2664  222.9652 H   0  0  0  0  0  0  0  0  0  0  0  0
  139.3320   76.9645  223.5994 H   0  0  0  0  0  0  0  0  0  0  0  0
  138.3117   73.6584  220.4440 H   0  0  0  0  0  0  0  0  0  0  0  0
  140.0833   74.0966  220.4166 H   0  0  0  0  0  0  0  0  0  0  0  0
  139.3350   74.0100  223.1570 H   0  0  0  0  0  0  0  0  0  0  0  0
  138.9714   69.5718  222.5050 H   0  0  0  0  0  0  0  0  0  0  0  0
  139.2439   68.1333  224.5102 H   0  0  0  0  0  0  0  0  0  0  0  0
  139.9393   67.9485  226.7790 H   0  0  0  0  0  0  0  0  0  0  0  0
  141.5386   71.3714  228.8248 H   0  0  0  0  0  0  0  0  0  0  0  0
  141.2408   72.7564  226.7916 H   0  0  0  0  0  0  0  0  0  0  0  0
  144.1450   76.0041  219.9052 H   0  0  0  0  0  0  0  0  0  0  0  0
  145.4623   74.0839  219.0637 H   0  0  0  0  0  0  0  0  0  0  0  0
  1  2  2  0
  2  3  1  0
  3  4  1  0
  4  5  2  0
  5  6  1  0
  6  7  2  0
  7  8  1  0
  8  9  2  0
  2 10  1  0
 10 11  2  0
 11 12  1  0
 12 13  2  0
 13 14  1  0
 14 15  1  0
 15 16  1  0
 16 17  1  0
 17 18  1  0
 18 19  1  0
 19 20  1  0
 20 21  1  0
 21 22  2  0
 21 23  1  0
 23 24  1  0
 24 25  1  0
 25 26  2  0
 25 27  1  0
 27 28  2  0
 28 29  1  0
 29 30  2  0
 30 31  1  0
 31 32  2  0
 32 33  1  0
 32 34  1  0
 34 35  2  0
 35 36  1  0
 36 37  2  0
 13 38  1  0
 38 39  2  0
  9  4  1  0
 39 10  1  0
 20 16  1  0
 37 27  1  0
 36 30  1  0
  3 40  1  0
  5 41  1  0
  6 42  1  0
  7 43  1  0
  8 44  1  0
  9 45  1  0
 11 46  1  0
 12 47  1  0
 14 48  1  0
 15 49  1  0
 15 50  1  0
 16 51  1  6
 17 52  1  0
 17 53  1  0
 18 54  1  0
 18 55  1  0
 19 56  1  0
 19 57  1  0
 23 58  1  0
 23 59  1  0
 24 60  1  0
 28 61  1  0
 29 62  1  0
 31 63  1  0
 34 64  1  0
 35 65  1  0
 38 66  1  0
 39 67  1  0
M  END
>  <smiles>  (12) 
O=C(Nc1ccccc1)c1ccc(NC[C@@H]2CCCN2C(=O)CNC(=O)c2ccc3cc(F)ccc3n2)cc1

>  <score_type>  (12) 
oracle

>  <origin>  (12) 
autodockgpu

>  <m_score__min__energy>  (12) 
-9.8599999999999994

>  <m_primary>  (12) 
energy

>  <rmsd>  (12) 
8.865679508968789

>  <m_score__min__rmsd>  (12) 
8.865679508968789

>  <meeko>  (12) 
{"free_energy": -9.47, "intermolecular_energy": -12.15, "internal_energy": -2.12, "cluster_size": 7, "cluster_id": 1, "rank_in_cluster": 5}

>  <energy>  (12) 
-8.91

>  <cluster_rmsd>  (12) 
0.0

>  <cluster>  (12) 
4

$$$$

     RDKit          3D

 67 71  0  0  0  0  0  0  0  0999 V2000
  144.0810   70.8240  217.6310 O   0  0  0  0  0  0  0  0  0  0  0  0
  144.1710   71.1940  218.8290 C   0  0  0  0  0  0  0  0  0  0  0  0
  144.4680   70.2540  219.8480 N   0  0  0  0  0  0  0  0  0  0  0  0
  144.6710   68.8640  219.5290 C   0  0  0  0  0  0  0  0  0  0  0  0
  143.5900   68.0060  219.3460 C   0  0  0  0  0  0  0  0  0  0  0  0
  143.8780   66.6840  219.0420 C   0  0  0  0  0  0  0  0  0  0  0  0
  145.1720   66.2240  218.9210 C   0  0  0  0  0  0  0  0  0  0  0  0
  146.2460   67.0700  219.1020 C   0  0  0  0  0  0  0  0  0  0  0  0
  145.9680   68.4050  219.4090 C   0  0  0  0  0  0  0  0  0  0  0  0
  143.9580   72.6140  219.1030 C   0  0  0  0  0  0  0  0  0  0  0  0
  143.9050   73.4820  218.0330 C   0  0  0  0  0  0  0  0  0  0  0  0
  143.7040   74.8420  218.2480 C   0  0  0  0  0  0  0  0  0  0  0  0
  143.5490   75.3740  219.5140 C   0  0  0  0  0  0  0  0  0  0  0  0
  143.3430   76.7710  219.7300 N   0  0  0  0  0  0  0  0  0  0  0  0
  142.0120   77.2290  220.0830 C   0  0  0  0  0  0  0  0  0  0  0  0
  141.0530   76.2290  219.4850 C   0  0  2  0  0  0  0  0  0  0  0  0
  140.4970   76.6930  218.1770 C   0  0  0  0  0  0  0  0  0  0  0  0
  139.0110   76.8820  218.4350 C   0  0  0  0  0  0  0  0  0  0  0  0
  139.0160   77.1160  219.9350 C   0  0  0  0  0  0  0  0  0  0  0  0
  139.8670   76.0660  220.3950 N   0  0  0  0  0  0  0  0  0  0  0  0
  139.8380   75.0470  221.3430 C   0  0  0  0  0  0  0  0  0  0  0  0
  139.6680   75.4500  222.5790 O   0  0  0  0  0  0  0  0  0  0  0  0
  139.9550   73.5980  221.2370 C   0  0  0  0  0  0  0  0  0  0  0  0
  139.9140   72.9330  222.5030 N   0  0  0  0  0  0  0  0  0  0  0  0
  140.1130   71.4930  222.4610 C   0  0  0  0  0  0  0  0  0  0  0  0
  140.2980   71.0100  221.3360 O   0  0  0  0  0  0  0  0  0  0  0  0
  140.0840   70.7350  223.7050 C   0  0  0  0  0  0  0  0  0  0  0  0
  139.5050   69.4840  223.6750 C   0  0  0  0  0  0  0  0  0  0  0  0
  139.4120   68.6640  224.7790 C   0  0  0  0  0  0  0  0  0  0  0  0
  139.9460   69.1720  225.9640 C   0  0  0  0  0  0  0  0  0  0  0  0
  139.8690   68.3730  227.0970 C   0  0  0  0  0  0  0  0  0  0  0  0
  140.3850   68.8390  228.2820 C   0  0  0  0  0  0  0  0  0  0  0  0
  140.3430   68.1030  229.4380 F   0  0  0  0  0  0  0  0  0  0  0  0
  140.9700   70.1050  228.3080 C   0  0  0  0  0  0  0  0  0  0  0  0
  141.0400   70.8950  227.1700 C   0  0  0  0  0  0  0  0  0  0  0  0
  140.5180   70.4210  225.9710 C   0  0  0  0  0  0  0  0  0  0  0  0
  140.5850   71.1890  224.8600 N   0  0  0  0  0  0  0  0  0  0  0  0
  143.6060   74.4870  220.5750 C   0  0  0  0  0  0  0  0  0  0  0  0
  143.8070   73.1220  220.3770 C   0  0  0  0  0  0  0  0  0  0  0  0
  144.5440   70.5540  220.8440 H   0  0  0  0  0  0  0  0  0  0  0  0
  142.5530   68.3611  219.4385 H   0  0  0  0  0  0  0  0  0  0  0  0
  143.0467   65.9793  218.8925 H   0  0  0  0  0  0  0  0  0  0  0  0
  145.3505   65.1665  218.6765 H   0  0  0  0  0  0  0  0  0  0  0  0
  147.2807   66.7084  219.0085 H   0  0  0  0  0  0  0  0  0  0  0  0
  146.8019   69.1066  219.5585 H   0  0  0  0  0  0  0  0  0  0  0  0
  144.0217   73.0990  217.0085 H   0  0  0  0  0  0  0  0  0  0  0  0
  143.6672   75.5170  217.3802 H   0  0  0  0  0  0  0  0  0  0  0  0
  144.1670   77.4010  219.6230 H   0  0  0  0  0  0  0  0  0  0  0  0
  141.8970   77.2615  221.1765 H   0  0  0  0  0  0  0  0  0  0  0  0
  141.8225   78.2440  219.7037 H   0  0  0  0  0  0  0  0  0  0  0  0
  141.6196   75.2961  219.3484 H   0  0  0  0  0  0  0  0  0  0  0  0
  140.9618   77.6424  217.8728 H   0  0  0  0  0  0  0  0  0  0  0  0
  140.6907   75.9769  217.3648 H   0  0  0  0  0  0  0  0  0  0  0  0
  138.6118   77.7503  217.8902 H   0  0  0  0  0  0  0  0  0  0  0  0
  138.3791   76.0444  218.1047 H   0  0  0  0  0  0  0  0  0  0  0  0
  139.4298   78.1043  220.1842 H   0  0  0  0  0  0  0  0  0  0  0  0
  138.0142   77.1068  220.3892 H   0  0  0  0  0  0  0  0  0  0  0  0
  139.1246   73.2249  220.6195 H   0  0  0  0  0  0  0  0  0  0  0  0
  140.9354   73.3823  220.7872 H   0  0  0  0  0  0  0  0  0  0  0  0
  139.7520   73.4130  223.4210 H   0  0  0  0  0  0  0  0  0  0  0  0
  139.0960   69.1215  222.7204 H   0  0  0  0  0  0  0  0  0  0  0  0
  138.9451   67.6693  224.7290 H   0  0  0  0  0  0  0  0  0  0  0  0
  139.4006   67.3790  227.0464 H   0  0  0  0  0  0  0  0  0  0  0  0
  141.3854   70.4857  229.2527 H   0  0  0  0  0  0  0  0  0  0  0  0
  141.5056   71.8906  227.2155 H   0  0  0  0  0  0  0  0  0  0  0  0
  143.4898   74.8688  221.6000 H   0  0  0  0  0  0  0  0  0  0  0  0
  143.8456   72.4447  221.2429 H   0  0  0  0  0  0  0  0  0  0  0  0
  1  2  2  0
  2  3  1  0
  3  4  1  0
  4  5  2  0
  5  6  1  0
  6  7  2  0
  7  8  1  0
  8  9  2  0
  2 10  1  0
 10 11  2  0
 11 12  1  0
 12 13  2  0
 13 14  1  0
 14 15  1  0
 15 16  1  0
 16 17  1  0
 17 18  1  0
 18 19  1  0
 19 20  1  0
 20 21  1  0
 21 22  2  0
 21 23  1  0
 23 24  1  0
 24 25  1  0
 25 26  2  0
 25 27  1  0
 27 28  2  0
 28 29  1  0
 29 30  2  0
 30 31  1  0
 31 32  2  0
 32 33  1  0
 32 34  1  0
 34 35  2  0
 35 36  1  0
 36 37  2  0
 13 38  1  0
 38 39  2  0
  9  4  1  0
 39 10  1  0
 20 16  1  0
 37 27  1  0
 36 30  1  0
  3 40  1  0
  5 41  1  0
  6 42  1  0
  7 43  1  0
  8 44  1  0
  9 45  1  0
 11 46  1  0
 12 47  1  0
 14 48  1  0
 15 49  1  0
 15 50  1  0
 16 51  1  6
 17 52  1  0
 17 53  1  0
 18 54  1  0
 18 55  1  0
 19 56  1  0
 19 57  1  0
 23 58  1  0
 23 59  1  0
 24 60  1  0
 28 61  1  0
 29 62  1  0
 31 63  1  0
 34 64  1  0
 35 65  1  0
 38 66  1  0
 39 67  1  0
M  END
>  <smiles>  (13) 
O=C(Nc1ccccc1)c1ccc(NC[C@@H]2CCCN2C(=O)CNC(=O)c2ccc3cc(F)ccc3n2)cc1

>  <score_type>  (13) 
oracle

>  <origin>  (13) 
autodockgpu

>  <m_score__min__energy>  (13) 
-9.8599999999999994

>  <m_primary>  (13) 
energy

>  <rmsd>  (13) 
8.686211709089164

>  <m_score__min__rmsd>  (13) 
8.686211709089164

>  <meeko>  (13) 
{"free_energy": -9.32, "intermolecular_energy": -12.01, "internal_energy": -2.84, "cluster_size": 7, "cluster_id": 1, "rank_in_cluster": 6}

>  <energy>  (13) 
-8.87

>  <cluster_rmsd>  (13) 
1.94

>  <cluster>  (13) 
4

$$$$

     RDKit          3D

 67 71  0  0  0  0  0  0  0  0999 V2000
  139.2520   81.5480  223.1660 O   0  0  0  0  0  0  0  0  0  0  0  0
  138.9270   80.3870  222.8110 C   0  0  0  0  0  0  0  0  0  0  0  0
  137.7330   79.7980  223.2980 N   0  0  0  0  0  0  0  0  0  0  0  0
  136.8750   80.5180  224.2050 C   0  0  0  0  0  0  0  0  0  0  0  0
  135.5700   80.8430  223.8490 C   0  0  0  0  0  0  0  0  0  0  0  0
  134.8150   81.5370  224.7820 C   0  0  0  0  0  0  0  0  0  0  0  0
  135.3210   81.8960  226.0140 C   0  0  0  0  0  0  0  0  0  0  0  0
  136.6140   81.5750  226.3710 C   0  0  0  0  0  0  0  0  0  0  0  0
  137.3840   80.8750  225.4380 C   0  0  0  0  0  0  0  0  0  0  0  0
  139.8290   79.6980  221.8910 C   0  0  0  0  0  0  0  0  0  0  0  0
  141.0310   79.2340  222.3830 C   0  0  0  0  0  0  0  0  0  0  0  0
  141.9200   78.5720  221.5420 C   0  0  0  0  0  0  0  0  0  0  0  0
  141.6470   78.3520  220.2050 C   0  0  0  0  0  0  0  0  0  0  0  0
  142.5630   77.6730  219.3440 N   0  0  0  0  0  0  0  0  0  0  0  0
  142.2940   76.2890  218.9990 C   0  0  0  0  0  0  0  0  0  0  0  0
  142.6570   75.4760  220.2180 C   0  0  2  0  0  0  0  0  0  0  0  0
  143.8870   74.6550  220.0030 C   0  0  0  0  0  0  0  0  0  0  0  0
  143.4080   73.2150  220.0730 C   0  0  0  0  0  0  0  0  0  0  0  0
  141.9490   73.3880  219.6900 C   0  0  0  0  0  0  0  0  0  0  0  0
  141.5570   74.4910  220.5080 N   0  0  0  0  0  0  0  0  0  0  0  0
  140.5470   74.8050  221.4120 C   0  0  0  0  0  0  0  0  0  0  0  0
  140.3080   73.8820  222.3130 O   0  0  0  0  0  0  0  0  0  0  0  0
  139.6880   75.9730  221.5670 C   0  0  0  0  0  0  0  0  0  0  0  0
  138.6570   75.7920  222.5410 N   0  0  0  0  0  0  0  0  0  0  0  0
  137.4890   76.6450  222.3820 C   0  0  0  0  0  0  0  0  0  0  0  0
  137.5220   77.4250  221.4210 O   0  0  0  0  0  0  0  0  0  0  0  0
  136.3910   76.5290  223.3320 C   0  0  0  0  0  0  0  0  0  0  0  0
  136.1560   75.2880  223.8850 C   0  0  0  0  0  0  0  0  0  0  0  0
  135.1510   75.0390  224.7950 C   0  0  0  0  0  0  0  0  0  0  0  0
  134.3570   76.1340  225.1420 C   0  0  0  0  0  0  0  0  0  0  0  0
  133.3340   75.9210  226.0560 C   0  0  0  0  0  0  0  0  0  0  0  0
  132.5320   76.9750  226.4210 C   0  0  0  0  0  0  0  0  0  0  0  0
  131.5040   76.8350  227.3180 F   0  0  0  0  0  0  0  0  0  0  0  0
  132.7730   78.2290  225.8600 C   0  0  0  0  0  0  0  0  0  0  0  0
  133.7970   78.4290  224.9460 C   0  0  0  0  0  0  0  0  0  0  0  0
  134.6090   77.3610  224.5780 C   0  0  0  0  0  0  0  0  0  0  0  0
  135.6080   77.5550  223.6880 N   0  0  0  0  0  0  0  0  0  0  0  0
  140.4360   78.8260  219.7300 C   0  0  0  0  0  0  0  0  0  0  0  0
  139.5340   79.4910  220.5590 C   0  0  0  0  0  0  0  0  0  0  0  0
  137.4570   78.8350  223.0080 H   0  0  0  0  0  0  0  0  0  0  0  0
  135.1552   80.5616  222.8698 H   0  0  0  0  0  0  0  0  0  0  0  0
  133.7792   81.8101  224.5318 H   0  0  0  0  0  0  0  0  0  0  0  0
  134.6840   82.4463  226.7221 H   0  0  0  0  0  0  0  0  0  0  0  0
  137.0232   81.8588  227.3518 H   0  0  0  0  0  0  0  0  0  0  0  0
  138.4190   80.6023  225.6917 H   0  0  0  0  0  0  0  0  0  0  0  0
  141.2872   79.3875  223.4417 H   0  0  0  0  0  0  0  0  0  0  0  0
  142.8733   78.2111  221.9555 H   0  0  0  0  0  0  0  0  0  0  0  0
  143.3890   78.2090  219.0030 H   0  0  0  0  0  0  0  0  0  0  0  0
  141.2297   76.1563  218.7546 H   0  0  0  0  0  0  0  0  0  0  0  0
  142.8735   75.9742  218.1186 H   0  0  0  0  0  0  0  0  0  0  0  0
  142.8170   76.1936  221.0362 H   0  0  0  0  0  0  0  0  0  0  0  0
  144.3290   74.8692  219.0187 H   0  0  0  0  0  0  0  0  0  0  0  0
  144.6663   74.8706  220.7488 H   0  0  0  0  0  0  0  0  0  0  0  0
  143.9425   72.5742  219.3562 H   0  0  0  0  0  0  0  0  0  0  0  0
  143.5713   72.7250  221.0442 H   0  0  0  0  0  0  0  0  0  0  0  0
  141.8416   73.6248  218.6212 H   0  0  0  0  0  0  0  0  0  0  0  0
  141.3402   72.4845  219.8416 H   0  0  0  0  0  0  0  0  0  0  0  0
  140.3111   76.8264  221.8727 H   0  0  0  0  0  0  0  0  0  0  0  0
  139.1948   76.1453  220.5990 H   0  0  0  0  0  0  0  0  0  0  0  0
  138.7000   75.1050  223.3320 H   0  0  0  0  0  0  0  0  0  0  0  0
  136.8049   74.4523  223.5840 H   0  0  0  0  0  0  0  0  0  0  0  0
  134.9847   74.0389  225.2217 H   0  0  0  0  0  0  0  0  0  0  0  0
  133.1677   74.9208  226.4826 H   0  0  0  0  0  0  0  0  0  0  0  0
  132.1367   79.0785  226.1489 H   0  0  0  0  0  0  0  0  0  0  0  0
  133.9661   79.4266  224.5145 H   0  0  0  0  0  0  0  0  0  0  0  0
  140.1791   78.6739  218.6713 H   0  0  0  0  0  0  0  0  0  0  0  0
  138.5800   79.8534  220.1484 H   0  0  0  0  0  0  0  0  0  0  0  0
  1  2  2  0
  2  3  1  0
  3  4  1  0
  4  5  2  0
  5  6  1  0
  6  7  2  0
  7  8  1  0
  8  9  2  0
  2 10  1  0
 10 11  2  0
 11 12  1  0
 12 13  2  0
 13 14  1  0
 14 15  1  0
 15 16  1  0
 16 17  1  0
 17 18  1  0
 18 19  1  0
 19 20  1  0
 20 21  1  0
 21 22  2  0
 21 23  1  0
 23 24  1  0
 24 25  1  0
 25 26  2  0
 25 27  1  0
 27 28  2  0
 28 29  1  0
 29 30  2  0
 30 31  1  0
 31 32  2  0
 32 33  1  0
 32 34  1  0
 34 35  2  0
 35 36  1  0
 36 37  2  0
 13 38  1  0
 38 39  2  0
  9  4  1  0
 39 10  1  0
 20 16  1  0
 37 27  1  0
 36 30  1  0
  3 40  1  0
  5 41  1  0
  6 42  1  0
  7 43  1  0
  8 44  1  0
  9 45  1  0
 11 46  1  0
 12 47  1  0
 14 48  1  0
 15 49  1  0
 15 50  1  0
 16 51  1  1
 17 52  1  0
 17 53  1  0
 18 54  1  0
 18 55  1  0
 19 56  1  0
 19 57  1  0
 23 58  1  0
 23 59  1  0
 24 60  1  0
 28 61  1  0
 29 62  1  0
 31 63  1  0
 34 64  1  0
 35 65  1  0
 38 66  1  0
 39 67  1  0
M  END
>  <smiles>  (14) 
O=C(Nc1ccccc1)c1ccc(NC[C@@H]2CCCN2C(=O)CNC(=O)c2ccc3cc(F)ccc3n2)cc1

>  <score_type>  (14) 
oracle

>  <origin>  (14) 
autodockgpu

>  <m_score__min__energy>  (14) 
-9.8599999999999994

>  <m_primary>  (14) 
energy

>  <rmsd>  (14) 
6.907469091756722

>  <m_score__min__rmsd>  (14) 
6.907469091756722

>  <meeko>  (14) 
{"free_energy": -7.02, "intermolecular_energy": -9.71, "internal_energy": -4.87, "cluster_size": 2, "cluster_id": 12, "rank_in_cluster": 2}

>  <energy>  (14) 
-8.84

>  <cluster_rmsd>  (14) 
0.49

>  <cluster>  (14) 
4

$$$$

     RDKit          3D

 67 71  0  0  0  0  0  0  0  0999 V2000
  138.9180   76.8200  222.3640 O   0  0  0  0  0  0  0  0  0  0  0  0
  139.9680   76.1570  222.1680 C   0  0  0  0  0  0  0  0  0  0  0  0
  141.2290   76.8040  222.1480 N   0  0  0  0  0  0  0  0  0  0  0  0
  141.3280   78.2270  222.3510 C   0  0  0  0  0  0  0  0  0  0  0  0
  141.5080   78.7580  223.6250 C   0  0  0  0  0  0  0  0  0  0  0  0
  141.5930   80.1380  223.7270 C   0  0  0  0  0  0  0  0  0  0  0  0
  141.5050   80.9630  222.6250 C   0  0  0  0  0  0  0  0  0  0  0  0
  141.3260   80.4410  221.3600 C   0  0  0  0  0  0  0  0  0  0  0  0
  141.2400   79.0500  221.2450 C   0  0  0  0  0  0  0  0  0  0  0  0
  139.8160   74.7170  221.9680 C   0  0  0  0  0  0  0  0  0  0  0  0
  138.5400   74.2040  221.8780 C   0  0  0  0  0  0  0  0  0  0  0  0
  138.3490   72.8390  221.6870 C   0  0  0  0  0  0  0  0  0  0  0  0
  139.4040   71.9540  221.5810 C   0  0  0  0  0  0  0  0  0  0  0  0
  139.2050   70.5530  221.3860 N   0  0  0  0  0  0  0  0  0  0  0  0
  139.5060   69.9830  220.0850 C   0  0  0  0  0  0  0  0  0  0  0  0
  140.0970   68.6210  220.3510 C   0  0  2  0  0  0  0  0  0  0  0  0
  141.4790   68.4870  219.7960 C   0  0  0  0  0  0  0  0  0  0  0  0
  141.3590   67.4290  218.7120 C   0  0  0  0  0  0  0  0  0  0  0  0
  139.8870   67.5550  218.3610 C   0  0  0  0  0  0  0  0  0  0  0  0
  139.2760   67.5730  219.6520 N   0  0  0  0  0  0  0  0  0  0  0  0
  138.2550   66.9090  220.3250 C   0  0  0  0  0  0  0  0  0  0  0  0
  137.0540   67.1040  219.8350 O   0  0  0  0  0  0  0  0  0  0  0  0
  138.2500   66.0220  221.4820 C   0  0  0  0  0  0  0  0  0  0  0  0
  138.9270   66.5680  222.6170 N   0  0  0  0  0  0  0  0  0  0  0  0
  138.4240   67.8480  223.0900 C   0  0  0  0  0  0  0  0  0  0  0  0
  137.4670   68.3140  222.4590 O   0  0  0  0  0  0  0  0  0  0  0  0
  139.0570   68.4790  224.2410 C   0  0  0  0  0  0  0  0  0  0  0  0
  139.2020   67.7200  225.3830 C   0  0  0  0  0  0  0  0  0  0  0  0
  139.7820   68.1920  226.5410 C   0  0  0  0  0  0  0  0  0  0  0  0
  140.2300   69.5140  226.5040 C   0  0  0  0  0  0  0  0  0  0  0  0
  140.8200   70.0230  227.6520 C   0  0  0  0  0  0  0  0  0  0  0  0
  141.2740   71.3200  227.6530 C   0  0  0  0  0  0  0  0  0  0  0  0
  141.8660   71.8870  228.7520 F   0  0  0  0  0  0  0  0  0  0  0  0
  141.1270   72.0850  226.4950 C   0  0  0  0  0  0  0  0  0  0  0  0
  140.5350   71.5650  225.3540 C   0  0  0  0  0  0  0  0  0  0  0  0
  140.0770   70.2510  225.3550 C   0  0  0  0  0  0  0  0  0  0  0  0
  139.5000   69.7420  224.2430 N   0  0  0  0  0  0  0  0  0  0  0  0
  140.6780   72.4880  221.6750 C   0  0  0  0  0  0  0  0  0  0  0  0
  140.8870   73.8530  221.8650 C   0  0  0  0  0  0  0  0  0  0  0  0
  142.1040   76.2600  221.9870 H   0  0  0  0  0  0  0  0  0  0  0  0
  141.5796   78.1112  224.5118 H   0  0  0  0  0  0  0  0  0  0  0  0
  141.7353   80.5901  224.7197 H   0  0  0  0  0  0  0  0  0  0  0  0
  141.5786   82.0526  222.7564 H   0  0  0  0  0  0  0  0  0  0  0  0
  141.2538   81.0933  220.4772 H   0  0  0  0  0  0  0  0  0  0  0  0
  141.0990   78.6008  220.2509 H   0  0  0  0  0  0  0  0  0  0  0  0
  137.6715   74.8744  221.9573 H   0  0  0  0  0  0  0  0  0  0  0  0
  137.3219   72.4513  221.6180 H   0  0  0  0  0  0  0  0  0  0  0  0
  138.8480   70.0010  222.1950 H   0  0  0  0  0  0  0  0  0  0  0  0
  138.5873   69.8903  219.4872 H   0  0  0  0  0  0  0  0  0  0  0  0
  140.2022   70.6194  219.5191 H   0  0  0  0  0  0  0  0  0  0  0  0
  140.1117   68.4954  221.4437 H   0  0  0  0  0  0  0  0  0  0  0  0
  141.8201   69.4420  219.3698 H   0  0  0  0  0  0  0  0  0  0  0  0
  142.2122   68.2104  220.5679 H   0  0  0  0  0  0  0  0  0  0  0  0
  142.0027   67.6569  217.8496 H   0  0  0  0  0  0  0  0  0  0  0  0
  141.6711   66.4203  219.0206 H   0  0  0  0  0  0  0  0  0  0  0  0
  139.6854   68.4855  217.8101 H   0  0  0  0  0  0  0  0  0  0  0  0
  139.5165   66.7532  217.7054 H   0  0  0  0  0  0  0  0  0  0  0  0
  137.2057   65.8200  221.7624 H   0  0  0  0  0  0  0  0  0  0  0  0
  138.7864   65.1063  221.1925 H   0  0  0  0  0  0  0  0  0  0  0  0
  139.7360   66.1110  223.1030 H   0  0  0  0  0  0  0  0  0  0  0  0
  138.8354   66.6830  225.3692 H   0  0  0  0  0  0  0  0  0  0  0  0
  139.8856   67.5656  227.4392 H   0  0  0  0  0  0  0  0  0  0  0  0
  140.9231   69.3962  228.5500 H   0  0  0  0  0  0  0  0  0  0  0  0
  141.4889   73.1237  226.4873 H   0  0  0  0  0  0  0  0  0  0  0  0
  140.4281   72.1875  224.4534 H   0  0  0  0  0  0  0  0  0  0  0  0
  141.5471   71.8182  221.5978 H   0  0  0  0  0  0  0  0  0  0  0  0
  141.9128   74.2442  221.9333 H   0  0  0  0  0  0  0  0  0  0  0  0
  1  2  2  0
  2  3  1  0
  3  4  1  0
  4  5  2  0
  5  6  1  0
  6  7  2  0
  7  8  1  0
  8  9  2  0
  2 10  1  0
 10 11  2  0
 11 12  1  0
 12 13  2  0
 13 14  1  0
 14 15  1  0
 15 16  1  0
 16 17  1  0
 17 18  1  0
 18 19  1  0
 19 20  1  0
 20 21  1  0
 21 22  2  0
 21 23  1  0
 23 24  1  0
 24 25  1  0
 25 26  2  0
 25 27  1  0
 27 28  2  0
 28 29  1  0
 29 30  2  0
 30 31  1  0
 31 32  2  0
 32 33  1  0
 32 34  1  0
 34 35  2  0
 35 36  1  0
 36 37  2  0
 13 38  1  0
 38 39  2  0
  9  4  1  0
 39 10  1  0
 20 16  1  0
 37 27  1  0
 36 30  1  0
  3 40  1  0
  5 41  1  0
  6 42  1  0
  7 43  1  0
  8 44  1  0
  9 45  1  0
 11 46  1  0
 12 47  1  0
 14 48  1  0
 15 49  1  0
 15 50  1  0
 16 51  1  1
 17 52  1  0
 17 53  1  0
 18 54  1  0
 18 55  1  0
 19 56  1  0
 19 57  1  0
 23 58  1  0
 23 59  1  0
 24 60  1  0
 28 61  1  0
 29 62  1  0
 31 63  1  0
 34 64  1  0
 35 65  1  0
 38 66  1  0
 39 67  1  0
M  END
>  <smiles>  (15) 
O=C(Nc1ccccc1)c1ccc(NC[C@@H]2CCCN2C(=O)CNC(=O)c2ccc3cc(F)ccc3n2)cc1

>  <score_type>  (15) 
oracle

>  <origin>  (15) 
autodockgpu

>  <m_score__min__energy>  (15) 
-9.8599999999999994

>  <m_primary>  (15) 
energy

>  <rmsd>  (15) 
4.267649574858121

>  <m_score__min__rmsd>  (15) 
4.267649574858121

>  <meeko>  (15) 
{"free_energy": -8.47, "intermolecular_energy": -11.16, "internal_energy": -3.72, "cluster_size": 9, "cluster_id": 5, "rank_in_cluster": 1}

>  <energy>  (15) 
-8.47

>  <cluster_rmsd>  (15) 
0.0

>  <cluster>  (15) 
5

$$$$

     RDKit          3D

 67 71  0  0  0  0  0  0  0  0999 V2000
  138.8980   77.5310  222.0540 O   0  0  0  0  0  0  0  0  0  0  0  0
  139.7510   76.6210  222.2170 C   0  0  0  0  0  0  0  0  0  0  0  0
  141.1100   76.9490  222.4520 N   0  0  0  0  0  0  0  0  0  0  0  0
  141.5360   78.3240  222.5090 C   0  0  0  0  0  0  0  0  0  0  0  0
  141.8360   78.9310  223.7240 C   0  0  0  0  0  0  0  0  0  0  0  0
  142.2380   80.2580  223.6850 C   0  0  0  0  0  0  0  0  0  0  0  0
  142.3400   80.9590  222.5010 C   0  0  0  0  0  0  0  0  0  0  0  0
  142.0420   80.3610  221.2940 C   0  0  0  0  0  0  0  0  0  0  0  0
  141.6370   79.0240  221.3210 C   0  0  0  0  0  0  0  0  0  0  0  0
  139.2710   75.2430  222.1510 C   0  0  0  0  0  0  0  0  0  0  0  0
  140.1980   74.2400  221.9600 C   0  0  0  0  0  0  0  0  0  0  0  0
  139.7850   72.9130  221.8920 C   0  0  0  0  0  0  0  0  0  0  0  0
  138.4580   72.5450  222.0090 C   0  0  0  0  0  0  0  0  0  0  0  0
  138.0380   71.1820  221.9380 N   0  0  0  0  0  0  0  0  0  0  0  0
  136.6830   70.8950  221.5020 C   0  0  0  0  0  0  0  0  0  0  0  0
  136.7990   70.3800  220.0880 C   0  0  2  0  0  0  0  0  0  0  0  0
  135.9630   71.1670  219.1310 C   0  0  0  0  0  0  0  0  0  0  0  0
  134.9130   70.1860  218.6380 C   0  0  0  0  0  0  0  0  0  0  0  0
  134.8820   69.2050  219.7960 C   0  0  0  0  0  0  0  0  0  0  0  0
  136.2720   68.9720  220.0240 N   0  0  0  0  0  0  0  0  0  0  0  0
  137.1350   67.8880  220.1500 C   0  0  0  0  0  0  0  0  0  0  0  0
  136.5530   66.7140  220.1170 O   0  0  0  0  0  0  0  0  0  0  0  0
  138.5820   67.7910  220.3100 C   0  0  0  0  0  0  0  0  0  0  0  0
  139.0720   68.4840  221.4610 N   0  0  0  0  0  0  0  0  0  0  0  0
  138.8340   67.8250  222.7360 C   0  0  0  0  0  0  0  0  0  0  0  0
  138.2400   66.7410  222.6770 O   0  0  0  0  0  0  0  0  0  0  0  0
  139.2990   68.4630  223.9610 C   0  0  0  0  0  0  0  0  0  0  0  0
  139.2170   67.7340  225.1280 C   0  0  0  0  0  0  0  0  0  0  0  0
  139.6200   68.2150  226.3550 C   0  0  0  0  0  0  0  0  0  0  0  0
  140.1300   69.5150  226.3640 C   0  0  0  0  0  0  0  0  0  0  0  0
  140.5460   70.0330  227.5820 C   0  0  0  0  0  0  0  0  0  0  0  0
  141.0540   71.3090  227.6290 C   0  0  0  0  0  0  0  0  0  0  0  0
  141.4830   71.8830  228.7980 F   0  0  0  0  0  0  0  0  0  0  0  0
  141.1360   72.0430  226.4460 C   0  0  0  0  0  0  0  0  0  0  0  0
  140.7160   71.5150  225.2340 C   0  0  0  0  0  0  0  0  0  0  0  0
  140.2020   70.2230  225.1890 C   0  0  0  0  0  0  0  0  0  0  0  0
  139.7930   69.7060  224.0080 N   0  0  0  0  0  0  0  0  0  0  0  0
  137.5430   73.5660  222.1990 C   0  0  0  0  0  0  0  0  0  0  0  0
  137.9400   74.9010  222.2710 C   0  0  0  0  0  0  0  0  0  0  0  0
  141.8230   76.1990  222.5880 H   0  0  0  0  0  0  0  0  0  0  0  0
  141.7579   78.3826  224.6744 H   0  0  0  0  0  0  0  0  0  0  0  0
  142.4834   80.7678  224.6283 H   0  0  0  0  0  0  0  0  0  0  0  0
  142.6637   82.0101  222.5197 H   0  0  0  0  0  0  0  0  0  0  0  0
  142.1202   80.9153  220.3471 H   0  0  0  0  0  0  0  0  0  0  0  0
  141.3930   78.5170  220.3758 H   0  0  0  0  0  0  0  0  0  0  0  0
  141.2648   74.4892  221.8613 H   0  0  0  0  0  0  0  0  0  0  0  0
  140.5415   72.1291  221.7397 H   0  0  0  0  0  0  0  0  0  0  0  0
  138.7320   70.4510  222.2060 H   0  0  0  0  0  0  0  0  0  0  0  0
  136.2269   70.1321  222.1500 H   0  0  0  0  0  0  0  0  0  0  0  0
  136.0461   71.7905  221.5528 H   0  0  0  0  0  0  0  0  0  0  0  0
  137.8619   70.4532  219.8143 H   0  0  0  0  0  0  0  0  0  0  0  0
  135.4889   72.0191  219.6402 H   0  0  0  0  0  0  0  0  0  0  0  0
  136.5584   71.5877  218.3073 H   0  0  0  0  0  0  0  0  0  0  0  0
  133.9378   70.6741  218.4936 H   0  0  0  0  0  0  0  0  0  0  0  0
  135.1336   69.7328  217.6603 H   0  0  0  0  0  0  0  0  0  0  0  0
  134.4002   69.6462  220.6810 H   0  0  0  0  0  0  0  0  0  0  0  0
  134.3070   68.2906  219.5878 H   0  0  0  0  0  0  0  0  0  0  0  0
  138.8527   66.7287  220.4007 H   0  0  0  0  0  0  0  0  0  0  0  0
  139.0395   68.2617  219.4273 H   0  0  0  0  0  0  0  0  0  0  0  0
  139.5710   69.4060  221.4320 H   0  0  0  0  0  0  0  0  0  0  0  0
  138.8081   66.7141  225.0772 H   0  0  0  0  0  0  0  0  0  0  0  0
  139.5445   67.6116  227.2716 H   0  0  0  0  0  0  0  0  0  0  0  0
  140.4701   69.4298  228.4987 H   0  0  0  0  0  0  0  0  0  0  0  0
  141.5432   73.0644  226.4747 H   0  0  0  0  0  0  0  0  0  0  0  0
  140.7889   72.1140  224.3143 H   0  0  0  0  0  0  0  0  0  0  0  0
  136.4756   73.3182  222.2957 H   0  0  0  0  0  0  0  0  0  0  0  0
  137.1861   75.6872  222.4246 H   0  0  0  0  0  0  0  0  0  0  0  0
  1  2  2  0
  2  3  1  0
  3  4  1  0
  4  5  2  0
  5  6  1  0
  6  7  2  0
  7  8  1  0
  8  9  2  0
  2 10  1  0
 10 11  2  0
 11 12  1  0
 12 13  2  0
 13 14  1  0
 14 15  1  0
 15 16  1  0
 16 17  1  0
 17 18  1  0
 18 19  1  0
 19 20  1  0
 20 21  1  0
 21 22  2  0
 21 23  1  0
 23 24  1  0
 24 25  1  0
 25 26  2  0
 25 27  1  0
 27 28  2  0
 28 29  1  0
 29 30  2  0
 30 31  1  0
 31 32  2  0
 32 33  1  0
 32 34  1  0
 34 35  2  0
 35 36  1  0
 36 37  2  0
 13 38  1  0
 38 39  2  0
  9  4  1  0
 39 10  1  0
 20 16  1  0
 37 27  1  0
 36 30  1  0
  3 40  1  0
  5 41  1  0
  6 42  1  0
  7 43  1  0
  8 44  1  0
  9 45  1  0
 11 46  1  0
 12 47  1  0
 14 48  1  0
 15 49  1  0
 15 50  1  0
 16 51  1  6
 17 52  1  0
 17 53  1  0
 18 54  1  0
 18 55  1  0
 19 56  1  0
 19 57  1  0
 23 58  1  0
 23 59  1  0
 24 60  1  0
 28 61  1  0
 29 62  1  0
 31 63  1  0
 34 64  1  0
 35 65  1  0
 38 66  1  0
 39 67  1  0
M  END
>  <smiles>  (16) 
O=C(Nc1ccccc1)c1ccc(NC[C@@H]2CCCN2C(=O)CNC(=O)c2ccc3cc(F)ccc3n2)cc1

>  <score_type>  (16) 
oracle

>  <origin>  (16) 
autodockgpu

>  <m_score__min__energy>  (16) 
-9.8599999999999994

>  <m_primary>  (16) 
energy

>  <rmsd>  (16) 
4.102766679867513

>  <m_score__min__rmsd>  (16) 
4.102766679867513

>  <meeko>  (16) 
{"free_energy": -7.69, "intermolecular_energy": -10.37, "internal_energy": -3.3, "cluster_size": 9, "cluster_id": 5, "rank_in_cluster": 7}

>  <energy>  (16) 
-8.14

>  <cluster_rmsd>  (16) 
1.13

>  <cluster>  (16) 
5

$$$$

     RDKit          3D

 67 71  0  0  0  0  0  0  0  0999 V2000
  142.7990   78.2280  218.6810 O   0  0  0  0  0  0  0  0  0  0  0  0
  142.5750   77.3900  219.5920 C   0  0  0  0  0  0  0  0  0  0  0  0
  142.0670   77.8150  220.8450 N   0  0  0  0  0  0  0  0  0  0  0  0
  141.8000   79.2090  221.0960 C   0  0  0  0  0  0  0  0  0  0  0  0
  142.4990   79.9070  222.0770 C   0  0  0  0  0  0  0  0  0  0  0  0
  142.1770   81.2440  222.2510 C   0  0  0  0  0  0  0  0  0  0  0  0
  141.2090   81.8700  221.4930 C   0  0  0  0  0  0  0  0  0  0  0  0
  140.5130   81.1820  220.5210 C   0  0  0  0  0  0  0  0  0  0  0  0
  140.8300   79.8330  220.3360 C   0  0  0  0  0  0  0  0  0  0  0  0
  142.8620   75.9900  219.2900 C   0  0  0  0  0  0  0  0  0  0  0  0
  142.0570   75.3440  218.3760 C   0  0  0  0  0  0  0  0  0  0  0  0
  142.2940   74.0100  218.0580 C   0  0  0  0  0  0  0  0  0  0  0  0
  143.3230   73.2860  218.6300 C   0  0  0  0  0  0  0  0  0  0  0  0
  143.5630   71.9170  218.3020 N   0  0  0  0  0  0  0  0  0  0  0  0
  142.4250   71.0280  218.1550 C   0  0  0  0  0  0  0  0  0  0  0  0
  142.0600   70.5820  219.5490 C   0  0  2  0  0  0  0  0  0  0  0  0
  142.0950   69.0940  219.6930 C   0  0  0  0  0  0  0  0  0  0  0  0
  140.6530   68.6980  219.9640 C   0  0  0  0  0  0  0  0  0  0  0  0
  139.9190   69.8670  219.3320 C   0  0  0  0  0  0  0  0  0  0  0  0
  140.6420   70.9850  219.8490 N   0  0  0  0  0  0  0  0  0  0  0  0
  140.3710   72.1810  220.5060 C   0  0  0  0  0  0  0  0  0  0  0  0
  139.8820   73.1290  219.7440 O   0  0  0  0  0  0  0  0  0  0  0  0
  140.5190   72.6000  221.8950 C   0  0  0  0  0  0  0  0  0  0  0  0
  139.7040   73.7250  222.2360 N   0  0  0  0  0  0  0  0  0  0  0  0
  140.2690   75.0270  221.9170 C   0  0  0  0  0  0  0  0  0  0  0  0
  141.3860   75.0100  221.3850 O   0  0  0  0  0  0  0  0  0  0  0  0
  139.5070   76.2280  222.2330 C   0  0  0  0  0  0  0  0  0  0  0  0
  138.1760   76.2510  221.8730 C   0  0  0  0  0  0  0  0  0  0  0  0
  137.3420   77.3220  222.1110 C   0  0  0  0  0  0  0  0  0  0  0  0
  137.9240   78.4170  222.7530 C   0  0  0  0  0  0  0  0  0  0  0  0
  137.1140   79.5150  223.0090 C   0  0  0  0  0  0  0  0  0  0  0  0
  137.6510   80.6110  223.6400 C   0  0  0  0  0  0  0  0  0  0  0  0
  136.9090   81.7290  223.9230 F   0  0  0  0  0  0  0  0  0  0  0  0
  138.9980   80.5840  224.0030 C   0  0  0  0  0  0  0  0  0  0  0  0
  139.7980   79.4820  223.7400 C   0  0  0  0  0  0  0  0  0  0  0  0
  139.2520   78.3730  223.1030 C   0  0  0  0  0  0  0  0  0  0  0  0
  140.0300   77.2970  222.8460 N   0  0  0  0  0  0  0  0  0  0  0  0
  144.1190   73.9520  219.5460 C   0  0  0  0  0  0  0  0  0  0  0  0
  143.8960   75.2880  219.8750 C   0  0  0  0  0  0  0  0  0  0  0  0
  141.8790   77.1260  221.6050 H   0  0  0  0  0  0  0  0  0  0  0  0
  143.2730   79.4188  222.6874 H   0  0  0  0  0  0  0  0  0  0  0  0
  142.7104   81.8245  223.0181 H   0  0  0  0  0  0  0  0  0  0  0  0
  140.9890   82.9337  221.6664 H   0  0  0  0  0  0  0  0  0  0  0  0
  139.7388   81.6754  219.9151 H   0  0  0  0  0  0  0  0  0  0  0  0
  140.2948   79.2555  219.5678 H   0  0  0  0  0  0  0  0  0  0  0  0
  141.2264   75.8836  217.8975 H   0  0  0  0  0  0  0  0  0  0  0  0
  141.6395   73.5145  217.3258 H   0  0  0  0  0  0  0  0  0  0  0  0
  144.5550   71.6180  218.1840 H   0  0  0  0  0  0  0  0  0  0  0  0
  141.5816   71.5608  217.6915 H   0  0  0  0  0  0  0  0  0  0  0  0
  142.6654   70.1709  217.5088 H   0  0  0  0  0  0  0  0  0  0  0  0
  142.7906   71.0475  220.2269 H   0  0  0  0  0  0  0  0  0  0  0  0
  142.4591   68.6233  218.7679 H   0  0  0  0  0  0  0  0  0  0  0  0
  142.7733   68.7697  220.4959 H   0  0  0  0  0  0  0  0  0  0  0  0
  140.3953   67.7460  219.4769 H   0  0  0  0  0  0  0  0  0  0  0  0
  140.4167   68.5291  221.0250 H   0  0  0  0  0  0  0  0  0  0  0  0
  139.9749   69.8278  218.2341 H   0  0  0  0  0  0  0  0  0  0  0  0
  138.8430   69.8907  219.5593 H   0  0  0  0  0  0  0  0  0  0  0  0
  140.2412   71.7575  222.5454 H   0  0  0  0  0  0  0  0  0  0  0  0
  141.5673   72.9027  222.0343 H   0  0  0  0  0  0  0  0  0  0  0  0
  138.7600   73.6600  222.6880 H   0  0  0  0  0  0  0  0  0  0  0  0
  137.7576   75.3673  221.3690 H   0  0  0  0  0  0  0  0  0  0  0  0
  136.2830   77.3147  221.8135 H   0  0  0  0  0  0  0  0  0  0  0  0
  136.0553   79.5076  222.7104 H   0  0  0  0  0  0  0  0  0  0  0  0
  139.4355   81.4569  224.5095 H   0  0  0  0  0  0  0  0  0  0  0  0
  140.8581   79.4852  224.0336 H   0  0  0  0  0  0  0  0  0  0  0  0
  144.9488   73.4131  220.0266 H   0  0  0  0  0  0  0  0  0  0  0  0
  144.5491   75.7865  220.6064 H   0  0  0  0  0  0  0  0  0  0  0  0
  1  2  2  0
  2  3  1  0
  3  4  1  0
  4  5  2  0
  5  6  1  0
  6  7  2  0
  7  8  1  0
  8  9  2  0
  2 10  1  0
 10 11  2  0
 11 12  1  0
 12 13  2  0
 13 14  1  0
 14 15  1  0
 15 16  1  0
 16 17  1  0
 17 18  1  0
 18 19  1  0
 19 20  1  0
 20 21  1  0
 21 22  2  0
 21 23  1  0
 23 24  1  0
 24 25  1  0
 25 26  2  0
 25 27  1  0
 27 28  2  0
 28 29  1  0
 29 30  2  0
 30 31  1  0
 31 32  2  0
 32 33  1  0
 32 34  1  0
 34 35  2  0
 35 36  1  0
 36 37  2  0
 13 38  1  0
 38 39  2  0
  9  4  1  0
 39 10  1  0
 20 16  1  0
 37 27  1  0
 36 30  1  0
  3 40  1  0
  5 41  1  0
  6 42  1  0
  7 43  1  0
  8 44  1  0
  9 45  1  0
 11 46  1  0
 12 47  1  0
 14 48  1  0
 15 49  1  0
 15 50  1  0
 16 51  1  1
 17 52  1  0
 17 53  1  0
 18 54  1  0
 18 55  1  0
 19 56  1  0
 19 57  1  0
 23 58  1  0
 23 59  1  0
 24 60  1  0
 28 61  1  0
 29 62  1  0
 31 63  1  0
 34 64  1  0
 35 65  1  0
 38 66  1  0
 39 67  1  0
M  END
>  <smiles>  (17) 
O=C(Nc1ccccc1)c1ccc(NC[C@@H]2CCCN2C(=O)CNC(=O)c2ccc3cc(F)ccc3n2)cc1

>  <score_type>  (17) 
oracle

>  <origin>  (17) 
autodockgpu

>  <m_score__min__energy>  (17) 
-9.8599999999999994

>  <m_primary>  (17) 
energy

>  <rmsd>  (17) 
6.081651990087243

>  <m_score__min__rmsd>  (17) 
6.081651990087243

>  <meeko>  (17) 
{"free_energy": -6.02, "intermolecular_energy": -8.71, "internal_energy": -4.97, "cluster_size": 3, "cluster_id": 15, "rank_in_cluster": 3}

>  <energy>  (17) 
-8.12

>  <cluster_rmsd>  (17) 
1.79

>  <cluster>  (17) 
5

$$$$

     RDKit          3D

 67 71  0  0  0  0  0  0  0  0999 V2000
  139.9530   80.2980  224.1240 O   0  0  0  0  0  0  0  0  0  0  0  0
  139.0820   79.6690  223.4710 C   0  0  0  0  0  0  0  0  0  0  0  0
  137.7240   80.0740  223.5160 N   0  0  0  0  0  0  0  0  0  0  0  0
  137.3210   81.2100  224.3070 C   0  0  0  0  0  0  0  0  0  0  0  0
  136.9430   82.4050  223.7030 C   0  0  0  0  0  0  0  0  0  0  0  0
  136.5710   83.4450  224.5410 C   0  0  0  0  0  0  0  0  0  0  0  0
  136.5700   83.3170  225.9140 C   0  0  0  0  0  0  0  0  0  0  0  0
  136.9450   82.1350  226.5170 C   0  0  0  0  0  0  0  0  0  0  0  0
  137.3220   81.0790  225.6820 C   0  0  0  0  0  0  0  0  0  0  0  0
  139.5380   78.5250  222.6850 C   0  0  0  0  0  0  0  0  0  0  0  0
  140.8960   78.3150  222.5700 C   0  0  0  0  0  0  0  0  0  0  0  0
  141.3750   77.2380  221.8310 C   0  0  0  0  0  0  0  0  0  0  0  0
  140.5330   76.3490  221.1920 C   0  0  0  0  0  0  0  0  0  0  0  0
  141.0280   75.2440  220.4330 N   0  0  0  0  0  0  0  0  0  0  0  0
  141.6470   74.1380  221.1400 C   0  0  0  0  0  0  0  0  0  0  0  0
  142.5640   73.4670  220.1470 C   0  0  2  0  0  0  0  0  0  0  0  0
  143.4670   72.4700  220.7970 C   0  0  0  0  0  0  0  0  0  0  0  0
  144.8650   73.0380  220.6150 C   0  0  0  0  0  0  0  0  0  0  0  0
  144.5480   74.5160  220.4680 C   0  0  0  0  0  0  0  0  0  0  0  0
  143.4720   74.4960  219.5300 N   0  0  0  0  0  0  0  0  0  0  0  0
  143.1350   75.1040  218.3250 C   0  0  0  0  0  0  0  0  0  0  0  0
  142.2400   74.4620  217.6140 O   0  0  0  0  0  0  0  0  0  0  0  0
  143.5810   76.3350  217.6830 C   0  0  0  0  0  0  0  0  0  0  0  0
  143.0810   77.5170  218.3150 N   0  0  0  0  0  0  0  0  0  0  0  0
  141.6330   77.6590  218.3190 C   0  0  0  0  0  0  0  0  0  0  0  0
  141.0030   76.7420  217.7780 O   0  0  0  0  0  0  0  0  0  0  0  0
  141.0380   78.8350  218.9400 C   0  0  0  0  0  0  0  0  0  0  0  0
  139.7140   79.1020  218.6600 C   0  0  0  0  0  0  0  0  0  0  0  0
  139.0290   80.1790  219.1790 C   0  0  0  0  0  0  0  0  0  0  0  0
  139.7570   81.0140  220.0290 C   0  0  0  0  0  0  0  0  0  0  0  0
  139.1000   82.1090  220.5710 C   0  0  0  0  0  0  0  0  0  0  0  0
  139.7850   82.9520  221.4120 C   0  0  0  0  0  0  0  0  0  0  0  0
  139.1970   84.0520  221.9820 F   0  0  0  0  0  0  0  0  0  0  0  0
  141.1230   82.6790  221.6940 C   0  0  0  0  0  0  0  0  0  0  0  0
  141.7700   81.5820  221.1450 C   0  0  0  0  0  0  0  0  0  0  0  0
  141.0750   80.7290  220.2950 C   0  0  0  0  0  0  0  0  0  0  0  0
  141.7040   79.6580  219.7590 N   0  0  0  0  0  0  0  0  0  0  0  0
  139.1730   76.5770  221.3180 C   0  0  0  0  0  0  0  0  0  0  0  0
  138.6770   77.6510  222.0550 C   0  0  0  0  0  0  0  0  0  0  0  0
  136.9950   79.5570  222.9780 H   0  0  0  0  0  0  0  0  0  0  0  0
  136.9394   82.5196  222.6090 H   0  0  0  0  0  0  0  0  0  0  0  0
  136.2666   84.4038  224.0960 H   0  0  0  0  0  0  0  0  0  0  0  0
  136.2655   84.1705  226.5375 H   0  0  0  0  0  0  0  0  0  0  0  0
  136.9474   82.0272  227.6117 H   0  0  0  0  0  0  0  0  0  0  0  0
  137.6264   80.1218  226.1304 H   0  0  0  0  0  0  0  0  0  0  0  0
  141.6014   78.9999  223.0632 H   0  0  0  0  0  0  0  0  0  0  0  0
  142.4621   77.0893  221.7529 H   0  0  0  0  0  0  0  0  0  0  0  0
  140.9210   75.2870  219.3960 H   0  0  0  0  0  0  0  0  0  0  0  0
  142.2226   74.5094  222.0006 H   0  0  0  0  0  0  0  0  0  0  0  0
  140.8933   73.4371  221.5282 H   0  0  0  0  0  0  0  0  0  0  0  0
  141.9164   72.9694  219.4101 H   0  0  0  0  0  0  0  0  0  0  0  0
  143.2262   72.3674  221.8654 H   0  0  0  0  0  0  0  0  0  0  0  0
  143.3650   71.4673  220.3564 H   0  0  0  0  0  0  0  0  0  0  0  0
  145.4992   72.8443  221.4927 H   0  0  0  0  0  0  0  0  0  0  0  0
  145.4293   72.6052  219.7758 H   0  0  0  0  0  0  0  0  0  0  0  0
  144.2346   74.9550  221.4267 H   0  0  0  0  0  0  0  0  0  0  0  0
  145.4062   75.1242  220.1461 H   0  0  0  0  0  0  0  0  0  0  0  0
  144.6803   76.3637  217.7091 H   0  0  0  0  0  0  0  0  0  0  0  0
  143.1904   76.3257  216.6547 H   0  0  0  0  0  0  0  0  0  0  0  0
  143.6810   78.2550  218.7560 H   0  0  0  0  0  0  0  0  0  0  0  0
  139.1763   78.4186  217.9864 H   0  0  0  0  0  0  0  0  0  0  0  0
  137.9727   80.3695  218.9383 H   0  0  0  0  0  0  0  0  0  0  0  0
  138.0438   82.2999  220.3304 H   0  0  0  0  0  0  0  0  0  0  0  0
  141.6780   83.3489  222.3672 H   0  0  0  0  0  0  0  0  0  0  0  0
  142.8268   81.3879  221.3807 H   0  0  0  0  0  0  0  0  0  0  0  0
  138.4666   75.8936  220.8242 H   0  0  0  0  0  0  0  0  0  0  0  0
  137.5904   77.8027  222.1348 H   0  0  0  0  0  0  0  0  0  0  0  0
  1  2  2  0
  2  3  1  0
  3  4  1  0
  4  5  2  0
  5  6  1  0
  6  7  2  0
  7  8  1  0
  8  9  2  0
  2 10  1  0
 10 11  2  0
 11 12  1  0
 12 13  2  0
 13 14  1  0
 14 15  1  0
 15 16  1  0
 16 17  1  0
 17 18  1  0
 18 19  1  0
 19 20  1  0
 20 21  1  0
 21 22  2  0
 21 23  1  0
 23 24  1  0
 24 25  1  0
 25 26  2  0
 25 27  1  0
 27 28  2  0
 28 29  1  0
 29 30  2  0
 30 31  1  0
 31 32  2  0
 32 33  1  0
 32 34  1  0
 34 35  2  0
 35 36  1  0
 36 37  2  0
 13 38  1  0
 38 39  2  0
  9  4  1  0
 39 10  1  0
 20 16  1  0
 37 27  1  0
 36 30  1  0
  3 40  1  0
  5 41  1  0
  6 42  1  0
  7 43  1  0
  8 44  1  0
  9 45  1  0
 11 46  1  0
 12 47  1  0
 14 48  1  0
 15 49  1  0
 15 50  1  0
 16 51  1  6
 17 52  1  0
 17 53  1  0
 18 54  1  0
 18 55  1  0
 19 56  1  0
 19 57  1  0
 23 58  1  0
 23 59  1  0
 24 60  1  0
 28 61  1  0
 29 62  1  0
 31 63  1  0
 34 64  1  0
 35 65  1  0
 38 66  1  0
 39 67  1  0
M  END
>  <smiles>  (18) 
O=C(Nc1ccccc1)c1ccc(NC[C@@H]2CCCN2C(=O)CNC(=O)c2ccc3cc(F)ccc3n2)cc1

>  <score_type>  (18) 
oracle

>  <origin>  (18) 
autodockgpu

>  <m_score__min__energy>  (18) 
-9.8599999999999994

>  <m_primary>  (18) 
energy

>  <rmsd>  (18) 
8.447494656741664

>  <m_score__min__rmsd>  (18) 
8.447494656741664

>  <meeko>  (18) 
{"free_energy": -5.88, "intermolecular_energy": -8.57, "internal_energy": -5.37, "cluster_size": 4, "cluster_id": 11, "rank_in_cluster": 4}

>  <energy>  (18) 
-8.05

>  <cluster_rmsd>  (18) 
1.32

>  <cluster>  (18) 
5

$$$$

     RDKit          3D

 67 71  0  0  0  0  0  0  0  0999 V2000
  139.6190   81.2510  223.4810 O   0  0  0  0  0  0  0  0  0  0  0  0
  139.1010   80.2350  222.9530 C   0  0  0  0  0  0  0  0  0  0  0  0
  137.8020   79.8140  223.3350 N   0  0  0  0  0  0  0  0  0  0  0  0
  137.0570   80.5410  224.3310 C   0  0  0  0  0  0  0  0  0  0  0  0
  137.6920   81.0880  225.4430 C   0  0  0  0  0  0  0  0  0  0  0  0
  136.8970   81.7710  226.3510 C   0  0  0  0  0  0  0  0  0  0  0  0
  135.5360   81.9110  226.1750 C   0  0  0  0  0  0  0  0  0  0  0  0
  134.9030   81.3710  225.0750 C   0  0  0  0  0  0  0  0  0  0  0  0
  135.6940   80.6800  224.1520 C   0  0  0  0  0  0  0  0  0  0  0  0
  139.8950   79.5310  221.9480 C   0  0  0  0  0  0  0  0  0  0  0  0
  141.0980   78.9830  222.3380 C   0  0  0  0  0  0  0  0  0  0  0  0
  141.8860   78.3040  221.4130 C   0  0  0  0  0  0  0  0  0  0  0  0
  141.5100   78.1510  220.0930 C   0  0  0  0  0  0  0  0  0  0  0  0
  142.3220   77.4540  219.1460 N   0  0  0  0  0  0  0  0  0  0  0  0
  142.1550   76.0180  219.0120 C   0  0  0  0  0  0  0  0  0  0  0  0
  142.5040   75.4290  220.3570 C   0  0  2  0  0  0  0  0  0  0  0  0
  143.8850   74.8580  220.3820 C   0  0  0  0  0  0  0  0  0  0  0  0
  143.6820   73.3660  220.5850 C   0  0  0  0  0  0  0  0  0  0  0  0
  142.2790   73.1970  220.0310 C   0  0  0  0  0  0  0  0  0  0  0  0
  141.5830   74.2780  220.6530 N   0  0  0  0  0  0  0  0  0  0  0  0
  140.4230   74.4720  221.3970 C   0  0  0  0  0  0  0  0  0  0  0  0
  140.2190   73.5850  222.3410 O   0  0  0  0  0  0  0  0  0  0  0  0
  139.3730   75.4820  221.3410 C   0  0  0  0  0  0  0  0  0  0  0  0
  138.3000   75.2340  222.2540 N   0  0  0  0  0  0  0  0  0  0  0  0
  137.3860   76.3450  222.4620 C   0  0  0  0  0  0  0  0  0  0  0  0
  137.6390   77.3750  221.8240 O   0  0  0  0  0  0  0  0  0  0  0  0
  136.2640   76.1800  223.3780 C   0  0  0  0  0  0  0  0  0  0  0  0
  135.4890   77.2890  223.6410 C   0  0  0  0  0  0  0  0  0  0  0  0
  134.4000   77.2730  224.4870 C   0  0  0  0  0  0  0  0  0  0  0  0
  134.1100   76.0450  225.0840 C   0  0  0  0  0  0  0  0  0  0  0  0
  133.0210   75.9900  225.9420 C   0  0  0  0  0  0  0  0  0  0  0  0
  132.7040   74.7980  226.5480 C   0  0  0  0  0  0  0  0  0  0  0  0
  131.6420   74.6730  227.4060 F   0  0  0  0  0  0  0  0  0  0  0  0
  133.4910   73.6780  226.2790 C   0  0  0  0  0  0  0  0  0  0  0  0
  134.5780   73.7450  225.4200 C   0  0  0  0  0  0  0  0  0  0  0  0
  134.8960   74.9530  224.8070 C   0  0  0  0  0  0  0  0  0  0  0  0
  135.9550   75.0200  223.9690 N   0  0  0  0  0  0  0  0  0  0  0  0
  140.2990   78.7100  219.7210 C   0  0  0  0  0  0  0  0  0  0  0  0
  139.4970   79.3920  220.6340 C   0  0  0  0  0  0  0  0  0  0  0  0
  137.3660   78.9720  222.9010 H   0  0  0  0  0  0  0  0  0  0  0  0
  138.7764   80.9829  225.5945 H   0  0  0  0  0  0  0  0  0  0  0  0
  137.3670   82.2157  227.2406 H   0  0  0  0  0  0  0  0  0  0  0  0
  134.9468   82.4615  226.9231 H   0  0  0  0  0  0  0  0  0  0  0  0
  133.8181   81.4797  224.9295 H   0  0  0  0  0  0  0  0  0  0  0  0
  135.2205   80.2371  223.2634 H   0  0  0  0  0  0  0  0  0  0  0  0
  141.4354   79.0822  223.3803 H   0  0  0  0  0  0  0  0  0  0  0  0
  142.8424   77.8739  221.7453 H   0  0  0  0  0  0  0  0  0  0  0  0
  143.0040   78.0160  218.5920 H   0  0  0  0  0  0  0  0  0  0  0  0
  141.1145   75.7776  218.7483 H   0  0  0  0  0  0  0  0  0  0  0  0
  142.7965   75.6112  218.2164 H   0  0  0  0  0  0  0  0  0  0  0  0
  142.4175   76.2462  221.0882 H   0  0  0  0  0  0  0  0  0  0  0  0
  144.4027   75.0532  219.4313 H   0  0  0  0  0  0  0  0  0  0  0  0
  144.5058   75.3049  221.1725 H   0  0  0  0  0  0  0  0  0  0  0  0
  144.4162   72.7757  220.0171 H   0  0  0  0  0  0  0  0  0  0  0  0
  143.8081   73.0243  221.6230 H   0  0  0  0  0  0  0  0  0  0  0  0
  142.2677   73.2920  218.9352 H   0  0  0  0  0  0  0  0  0  0  0  0
  141.8377   72.2099  220.2334 H   0  0  0  0  0  0  0  0  0  0  0  0
  139.8161   76.4599  221.5804 H   0  0  0  0  0  0  0  0  0  0  0  0
  138.9497   75.4560  220.3260 H   0  0  0  0  0  0  0  0  0  0  0  0
  138.1480   74.3280  222.7600 H   0  0  0  0  0  0  0  0  0  0  0  0
  135.7531   78.2372  223.1500 H   0  0  0  0  0  0  0  0  0  0  0  0
  133.7970   78.1726  224.6795 H   0  0  0  0  0  0  0  0  0  0  0  0
  132.4185   76.8899  226.1349 H   0  0  0  0  0  0  0  0  0  0  0  0
  133.2438   72.7197  226.7592 H   0  0  0  0  0  0  0  0  0  0  0  0
  135.1849   72.8487  225.2246 H   0  0  0  0  0  0  0  0  0  0  0  0
  139.9616   78.6133  218.6785 H   0  0  0  0  0  0  0  0  0  0  0  0
  138.5398   79.8226  220.3049 H   0  0  0  0  0  0  0  0  0  0  0  0
  1  2  2  0
  2  3  1  0
  3  4  1  0
  4  5  2  0
  5  6  1  0
  6  7  2  0
  7  8  1  0
  8  9  2  0
  2 10  1  0
 10 11  2  0
 11 12  1  0
 12 13  2  0
 13 14  1  0
 14 15  1  0
 15 16  1  0
 16 17  1  0
 17 18  1  0
 18 19  1  0
 19 20  1  0
 20 21  1  0
 21 22  2  0
 21 23  1  0
 23 24  1  0
 24 25  1  0
 25 26  2  0
 25 27  1  0
 27 28  2  0
 28 29  1  0
 29 30  2  0
 30 31  1  0
 31 32  2  0
 32 33  1  0
 32 34  1  0
 34 35  2  0
 35 36  1  0
 36 37  2  0
 13 38  1  0
 38 39  2  0
  9  4  1  0
 39 10  1  0
 20 16  1  0
 37 27  1  0
 36 30  1  0
  3 40  1  0
  5 41  1  0
  6 42  1  0
  7 43  1  0
  8 44  1  0
  9 45  1  0
 11 46  1  0
 12 47  1  0
 14 48  1  0
 15 49  1  0
 15 50  1  0
 16 51  1  1
 17 52  1  0
 17 53  1  0
 18 54  1  0
 18 55  1  0
 19 56  1  0
 19 57  1  0
 23 58  1  0
 23 59  1  0
 24 60  1  0
 28 61  1  0
 29 62  1  0
 31 63  1  0
 34 64  1  0
 35 65  1  0
 38 66  1  0
 39 67  1  0
M  END
>  <smiles>  (19) 
O=C(Nc1ccccc1)c1ccc(NC[C@@H]2CCCN2C(=O)CNC(=O)c2ccc3cc(F)ccc3n2)cc1

>  <score_type>  (19) 
oracle

>  <origin>  (19) 
autodockgpu

>  <m_score__min__energy>  (19) 
-9.8599999999999994

>  <m_primary>  (19) 
energy

>  <rmsd>  (19) 
6.355008778214096

>  <m_score__min__rmsd>  (19) 
6.355008778214096

>  <meeko>  (19) 
{"free_energy": -7.27, "intermolecular_energy": -9.95, "internal_energy": -4.21, "cluster_size": 2, "cluster_id": 12, "rank_in_cluster": 1}

>  <energy>  (19) 
-7.98

>  <cluster_rmsd>  (19) 
1.07

>  <cluster>  (19) 
5

$$$$

     RDKit          3D

 67 71  0  0  0  0  0  0  0  0999 V2000
  138.2370   76.9360  222.9690 O   0  0  0  0  0  0  0  0  0  0  0  0
  139.0650   77.2110  222.0640 C   0  0  0  0  0  0  0  0  0  0  0  0
  139.3740   78.5620  221.7640 N   0  0  0  0  0  0  0  0  0  0  0  0
  138.7450   79.6380  222.4890 C   0  0  0  0  0  0  0  0  0  0  0  0
  137.9420   80.5680  221.8360 C   0  0  0  0  0  0  0  0  0  0  0  0
  137.3780   81.5700  222.6110 C   0  0  0  0  0  0  0  0  0  0  0  0
  137.5930   81.6540  223.9710 C   0  0  0  0  0  0  0  0  0  0  0  0
  138.3890   80.7340  224.6220 C   0  0  0  0  0  0  0  0  0  0  0  0
  138.9630   79.7200  223.8510 C   0  0  0  0  0  0  0  0  0  0  0  0
  139.6760   76.0870  221.3570 C   0  0  0  0  0  0  0  0  0  0  0  0
  140.8380   75.5510  221.8700 C   0  0  0  0  0  0  0  0  0  0  0  0
  141.4520   74.4790  221.2290 C   0  0  0  0  0  0  0  0  0  0  0  0
  140.9400   73.9150  220.0770 C   0  0  0  0  0  0  0  0  0  0  0  0
  141.5740   72.8160  219.4210 N   0  0  0  0  0  0  0  0  0  0  0  0
  142.6580   72.1320  220.1040 C   0  0  0  0  0  0  0  0  0  0  0  0
  143.9120   72.4630  219.3330 C   0  0  2  0  0  0  0  0  0  0  0  0
  145.1500   72.1800  220.1220 C   0  0  0  0  0  0  0  0  0  0  0  0
  145.7880   73.5420  220.3420 C   0  0  0  0  0  0  0  0  0  0  0  0
  144.5710   74.4420  220.2220 C   0  0  0  0  0  0  0  0  0  0  0  0
  143.9450   73.9380  219.0410 N   0  0  0  0  0  0  0  0  0  0  0  0
  143.4570   74.4320  217.8350 C   0  0  0  0  0  0  0  0  0  0  0  0
  143.3020   73.5320  216.8940 O   0  0  0  0  0  0  0  0  0  0  0  0
  143.0720   75.7690  217.3990 C   0  0  0  0  0  0  0  0  0  0  0  0
  143.1760   76.7530  218.4320 N   0  0  0  0  0  0  0  0  0  0  0  0
  141.9550   77.4890  218.7190 C   0  0  0  0  0  0  0  0  0  0  0  0
  140.9690   77.1780  218.0410 O   0  0  0  0  0  0  0  0  0  0  0  0
  141.9710   78.5130  219.7560 C   0  0  0  0  0  0  0  0  0  0  0  0
  141.7760   79.8200  219.3640 C   0  0  0  0  0  0  0  0  0  0  0  0
  141.7680   80.8840  220.2400 C   0  0  0  0  0  0  0  0  0  0  0  0
  141.9730   80.5690  221.5840 C   0  0  0  0  0  0  0  0  0  0  0  0
  141.9710   81.6160  222.4960 C   0  0  0  0  0  0  0  0  0  0  0  0
  142.1690   81.3440  223.8280 C   0  0  0  0  0  0  0  0  0  0  0  0
  142.1790   82.3290  224.7820 F   0  0  0  0  0  0  0  0  0  0  0  0
  142.3650   80.0200  224.2220 C   0  0  0  0  0  0  0  0  0  0  0  0
  142.3660   78.9820  223.3020 C   0  0  0  0  0  0  0  0  0  0  0  0
  142.1650   79.2600  221.9530 C   0  0  0  0  0  0  0  0  0  0  0  0
  142.1650   78.2490  221.0540 N   0  0  0  0  0  0  0  0  0  0  0  0
  139.7740   74.4680  219.5770 C   0  0  0  0  0  0  0  0  0  0  0  0
  139.1440   75.5420  220.2070 C   0  0  0  0  0  0  0  0  0  0  0  0
  140.0600   78.7990  221.0150 H   0  0  0  0  0  0  0  0  0  0  0  0
  137.7624   80.5108  220.7523 H   0  0  0  0  0  0  0  0  0  0  0  0
  136.7386   82.3221  222.1257 H   0  0  0  0  0  0  0  0  0  0  0  0
  137.1230   82.4663  224.5449 H   0  0  0  0  0  0  0  0  0  0  0  0
  138.5649   80.7965  225.7060 H   0  0  0  0  0  0  0  0  0  0  0  0
  139.6028   78.9701  224.3392 H   0  0  0  0  0  0  0  0  0  0  0  0
  141.2798   75.9706  222.7858 H   0  0  0  0  0  0  0  0  0  0  0  0
  142.3782   74.0662  221.6552 H   0  0  0  0  0  0  0  0  0  0  0  0
  141.2250   72.5550  218.4740 H   0  0  0  0  0  0  0  0  0  0  0  0
  142.7418   72.4893  221.1410 H   0  0  0  0  0  0  0  0  0  0  0  0
  142.4859   71.0463  220.1452 H   0  0  0  0  0  0  0  0  0  0  0  0
  143.8916   71.8462  218.4224 H   0  0  0  0  0  0  0  0  0  0  0  0
  144.8978   71.7100  221.0840 H   0  0  0  0  0  0  0  0  0  0  0  0
  145.8245   71.4839  219.6020 H   0  0  0  0  0  0  0  0  0  0  0  0
  146.2518   73.6170  221.3366 H   0  0  0  0  0  0  0  0  0  0  0  0
  146.6055   73.7823  219.6463 H   0  0  0  0  0  0  0  0  0  0  0  0
  143.9122   74.3424  221.0973 H   0  0  0  0  0  0  0  0  0  0  0  0
  144.8146   75.5135  220.1724 H   0  0  0  0  0  0  0  0  0  0  0  0
  143.7262   76.0665  216.5663 H   0  0  0  0  0  0  0  0  0  0  0  0
  142.0147   75.7220  217.0992 H   0  0  0  0  0  0  0  0  0  0  0  0
  144.0530   76.9620  218.9680 H   0  0  0  0  0  0  0  0  0  0  0  0
  141.6183   80.0248  218.2948 H   0  0  0  0  0  0  0  0  0  0  0  0
  141.6097   81.9183  219.9006 H   0  0  0  0  0  0  0  0  0  0  0  0
  141.8128   82.6502  222.1563 H   0  0  0  0  0  0  0  0  0  0  0  0
  142.5224   79.7941  225.2870 H   0  0  0  0  0  0  0  0  0  0  0  0
  142.5246   77.9461  223.6362 H   0  0  0  0  0  0  0  0  0  0  0  0
  139.3328   74.0504  218.6599 H   0  0  0  0  0  0  0  0  0  0  0  0
  138.2172   75.9566  219.7838 H   0  0  0  0  0  0  0  0  0  0  0  0
  1  2  2  0
  2  3  1  0
  3  4  1  0
  4  5  2  0
  5  6  1  0
  6  7  2  0
  7  8  1  0
  8  9  2  0
  2 10  1  0
 10 11  2  0
 11 12  1  0
 12 13  2  0
 13 14  1  0
 14 15  1  0
 15 16  1  0
 16 17  1  0
 17 18  1  0
 18 19  1  0
 19 20  1  0
 20 21  1  0
 21 22  2  0
 21 23  1  0
 23 24  1  0
 24 25  1  0
 25 26  2  0
 25 27  1  0
 27 28  2  0
 28 29  1  0
 29 30  2  0
 30 31  1  0
 31 32  2  0
 32 33  1  0
 32 34  1  0
 34 35  2  0
 35 36  1  0
 36 37  2  0
 13 38  1  0
 38 39  2  0
  9  4  1  0
 39 10  1  0
 20 16  1  0
 37 27  1  0
 36 30  1  0
  3 40  1  0
  5 41  1  0
  6 42  1  0
  7 43  1  0
  8 44  1  0
  9 45  1  0
 11 46  1  0
 12 47  1  0
 14 48  1  0
 15 49  1  0
 15 50  1  0
 16 51  1  6
 17 52  1  0
 17 53  1  0
 18 54  1  0
 18 55  1  0
 19 56  1  0
 19 57  1  0
 23 58  1  0
 23 59  1  0
 24 60  1  0
 28 61  1  0
 29 62  1  0
 31 63  1  0
 34 64  1  0
 35 65  1  0
 38 66  1  0
 39 67  1  0
M  END
>  <smiles>  (20) 
O=C(Nc1ccccc1)c1ccc(NC[C@@H]2CCCN2C(=O)CNC(=O)c2ccc3cc(F)ccc3n2)cc1

>  <score_type>  (20) 
oracle

>  <origin>  (20) 
autodockgpu

>  <m_score__min__energy>  (20) 
-9.8599999999999994

>  <m_primary>  (20) 
energy

>  <rmsd>  (20) 
7.520579917657351

>  <m_score__min__rmsd>  (20) 
7.520579917657351

>  <meeko>  (20) 
{"free_energy": -6.6, "intermolecular_energy": -9.29, "internal_energy": -5.21, "cluster_size": 2, "cluster_id": 18, "rank_in_cluster": 2}

>  <energy>  (20) 
-7.71

>  <cluster_rmsd>  (20) 
1.53

>  <cluster>  (20) 
5

$$$$

     RDKit          3D

 67 71  0  0  0  0  0  0  0  0999 V2000
  140.7290   73.7750  222.3460 O   0  0  0  0  0  0  0  0  0  0  0  0
  140.4760   72.6240  221.9080 C   0  0  0  0  0  0  0  0  0  0  0  0
  141.3840   71.9770  221.0320 N   0  0  0  0  0  0  0  0  0  0  0  0
  142.6080   72.6260  220.6310 C   0  0  0  0  0  0  0  0  0  0  0  0
  142.5900   73.8850  220.0400 C   0  0  0  0  0  0  0  0  0  0  0  0
  143.8130   74.4340  219.6860 C   0  0  0  0  0  0  0  0  0  0  0  0
  145.0040   73.7730  219.9040 C   0  0  0  0  0  0  0  0  0  0  0  0
  145.0260   72.5240  220.4890 C   0  0  0  0  0  0  0  0  0  0  0  0
  143.7990   71.9610  220.8510 C   0  0  0  0  0  0  0  0  0  0  0  0
  139.2250   72.0080  222.3420 C   0  0  0  0  0  0  0  0  0  0  0  0
  139.1790   71.4460  223.6000 C   0  0  0  0  0  0  0  0  0  0  0  0
  138.0070   70.8480  224.0540 C   0  0  0  0  0  0  0  0  0  0  0  0
  136.8600   70.7920  223.2850 C   0  0  0  0  0  0  0  0  0  0  0  0
  135.6590   70.1770  223.7550 N   0  0  0  0  0  0  0  0  0  0  0  0
  134.4900   71.0110  223.9640 C   0  0  0  0  0  0  0  0  0  0  0  0
  134.6930   71.6880  225.2980 C   0  0  2  0  0  0  0  0  0  0  0  0
  134.1200   70.8950  226.4270 C   0  0  0  0  0  0  0  0  0  0  0  0
  132.9930   71.7560  226.9720 C   0  0  0  0  0  0  0  0  0  0  0  0
  132.6620   72.5890  225.7470 C   0  0  0  0  0  0  0  0  0  0  0  0
  133.9570   73.0000  225.3090 N   0  0  0  0  0  0  0  0  0  0  0  0
  134.6110   74.1810  224.9700 C   0  0  0  0  0  0  0  0  0  0  0  0
  134.8830   74.9700  225.9810 O   0  0  0  0  0  0  0  0  0  0  0  0
  135.0670   74.7260  223.6970 C   0  0  0  0  0  0  0  0  0  0  0  0
  136.2010   75.5870  223.8230 N   0  0  0  0  0  0  0  0  0  0  0  0
  136.9790   75.7790  222.6100 C   0  0  0  0  0  0  0  0  0  0  0  0
  136.5680   75.1790  221.6080 O   0  0  0  0  0  0  0  0  0  0  0  0
  138.1550   76.6400  222.6490 C   0  0  0  0  0  0  0  0  0  0  0  0
  139.3410   76.1190  222.1780 C   0  0  0  0  0  0  0  0  0  0  0  0
  140.5260   76.8230  222.1580 C   0  0  0  0  0  0  0  0  0  0  0  0
  140.4690   78.1280  222.6500 C   0  0  0  0  0  0  0  0  0  0  0  0
  141.6430   78.8670  222.6460 C   0  0  0  0  0  0  0  0  0  0  0  0
  141.6260   80.1560  223.1230 C   0  0  0  0  0  0  0  0  0  0  0  0
  142.7490   80.9420  223.1470 F   0  0  0  0  0  0  0  0  0  0  0  0
  140.4230   80.6800  223.5980 C   0  0  0  0  0  0  0  0  0  0  0  0
  139.2560   79.9310  223.5980 C   0  0  0  0  0  0  0  0  0  0  0  0
  139.2760   78.6270  223.1140 C   0  0  0  0  0  0  0  0  0  0  0  0
  138.1390   77.8950  223.1140 N   0  0  0  0  0  0  0  0  0  0  0  0
  136.9270   71.3610  222.0250 C   0  0  0  0  0  0  0  0  0  0  0  0
  138.0930   71.9630  221.5540 C   0  0  0  0  0  0  0  0  0  0  0  0
  141.1810   71.0230  220.6640 H   0  0  0  0  0  0  0  0  0  0  0  0
  141.6466   74.4217  219.8612 H   0  0  0  0  0  0  0  0  0  0  0  0
  143.8342   75.4284  219.2163 H   0  0  0  0  0  0  0  0  0  0  0  0
  145.9502   74.2490  219.6069 H   0  0  0  0  0  0  0  0  0  0  0  0
  145.9726   71.9917  220.6638 H   0  0  0  0  0  0  0  0  0  0  0  0
  143.7811   70.9668  221.3213 H   0  0  0  0  0  0  0  0  0  0  0  0
  140.0693   71.4702  224.2456 H   0  0  0  0  0  0  0  0  0  0  0  0
  137.9932   70.4043  225.0604 H   0  0  0  0  0  0  0  0  0  0  0  0
  135.6810   69.1490  223.9270 H   0  0  0  0  0  0  0  0  0  0  0  0
  134.4079   71.7611  223.1636 H   0  0  0  0  0  0  0  0  0  0  0  0
  133.5644   70.4168  223.9512 H   0  0  0  0  0  0  0  0  0  0  0  0
  135.7792   71.8035  225.4281 H   0  0  0  0  0  0  0  0  0  0  0  0
  133.7317   69.9312  226.0660 H   0  0  0  0  0  0  0  0  0  0  0  0
  134.8725   70.6608  227.1944 H   0  0  0  0  0  0  0  0  0  0  0  0
  132.1351   71.1465  227.2923 H   0  0  0  0  0  0  0  0  0  0  0  0
  133.2549   72.3407  227.8661 H   0  0  0  0  0  0  0  0  0  0  0  0
  132.1530   71.9870  224.9799 H   0  0  0  0  0  0  0  0  0  0  0  0
  131.9767   73.4249  225.9510 H   0  0  0  0  0  0  0  0  0  0  0  0
  135.3360   73.8893  223.0356 H   0  0  0  0  0  0  0  0  0  0  0  0
  134.2437   75.3302  223.2883 H   0  0  0  0  0  0  0  0  0  0  0  0
  136.4890   76.0650  224.7110 H   0  0  0  0  0  0  0  0  0  0  0  0
  139.3419   75.0868  221.7979 H   0  0  0  0  0  0  0  0  0  0  0  0
  141.4597   76.3831  221.7775 H   0  0  0  0  0  0  0  0  0  0  0  0
  142.5765   78.4266  222.2656 H   0  0  0  0  0  0  0  0  0  0  0  0
  140.3999   81.7108  223.9812 H   0  0  0  0  0  0  0  0  0  0  0  0
  138.3198   80.3655  223.9785 H   0  0  0  0  0  0  0  0  0  0  0  0
  136.0373   71.3376  221.3786 H   0  0  0  0  0  0  0  0  0  0  0  0
  138.1108   72.4053  220.5470 H   0  0  0  0  0  0  0  0  0  0  0  0
  1  2  2  0
  2  3  1  0
  3  4  1  0
  4  5  2  0
  5  6  1  0
  6  7  2  0
  7  8  1  0
  8  9  2  0
  2 10  1  0
 10 11  2  0
 11 12  1  0
 12 13  2  0
 13 14  1  0
 14 15  1  0
 15 16  1  0
 16 17  1  0
 17 18  1  0
 18 19  1  0
 19 20  1  0
 20 21  1  0
 21 22  2  0
 21 23  1  0
 23 24  1  0
 24 25  1  0
 25 26  2  0
 25 27  1  0
 27 28  2  0
 28 29  1  0
 29 30  2  0
 30 31  1  0
 31 32  2  0
 32 33  1  0
 32 34  1  0
 34 35  2  0
 35 36  1  0
 36 37  2  0
 13 38  1  0
 38 39  2  0
  9  4  1  0
 39 10  1  0
 20 16  1  0
 37 27  1  0
 36 30  1  0
  3 40  1  0
  5 41  1  0
  6 42  1  0
  7 43  1  0
  8 44  1  0
  9 45  1  0
 11 46  1  0
 12 47  1  0
 14 48  1  0
 15 49  1  0
 15 50  1  0
 16 51  1  1
 17 52  1  0
 17 53  1  0
 18 54  1  0
 18 55  1  0
 19 56  1  0
 19 57  1  0
 23 58  1  0
 23 59  1  0
 24 60  1  0
 28 61  1  0
 29 62  1  0
 31 63  1  0
 34 64  1  0
 35 65  1  0
 38 66  1  0
 39 67  1  0
M  END
>  <smiles>  (21) 
O=C(Nc1ccccc1)c1ccc(NC[C@@H]2CCCN2C(=O)CNC(=O)c2ccc3cc(F)ccc3n2)cc1

>  <score_type>  (21) 
oracle

>  <origin>  (21) 
autodockgpu

>  <m_score__min__energy>  (21) 
-9.8599999999999994

>  <m_primary>  (21) 
energy

>  <rmsd>  (21) 
8.517166282689862

>  <m_score__min__rmsd>  (21) 
8.517166282689862

>  <meeko>  (21) 
{"free_energy": -7.95, "intermolecular_energy": -10.64, "internal_energy": -3.1, "cluster_size": 1, "cluster_id": 8, "rank_in_cluster": 1}

>  <energy>  (21) 
-7.69

>  <cluster_rmsd>  (21) 
1.61

>  <cluster>  (21) 
5

$$$$

     RDKit          3D

 67 71  0  0  0  0  0  0  0  0999 V2000
  145.5700   71.5380  218.3400 O   0  0  0  0  0  0  0  0  0  0  0  0
  144.5840   71.6950  219.1050 C   0  0  0  0  0  0  0  0  0  0  0  0
  143.9620   70.5740  219.7090 N   0  0  0  0  0  0  0  0  0  0  0  0
  144.4470   69.2400  219.4580 C   0  0  0  0  0  0  0  0  0  0  0  0
  145.8100   68.9830  219.3470 C   0  0  0  0  0  0  0  0  0  0  0  0
  146.1870   67.6710  219.1040 C   0  0  0  0  0  0  0  0  0  0  0  0
  145.2640   66.6540  218.9760 C   0  0  0  0  0  0  0  0  0  0  0  0
  143.9120   66.9050  219.0850 C   0  0  0  0  0  0  0  0  0  0  0  0
  143.5200   68.2240  219.3300 C   0  0  0  0  0  0  0  0  0  0  0  0
  144.1290   73.0660  219.3290 C   0  0  0  0  0  0  0  0  0  0  0  0
  144.8350   73.8480  220.2180 C   0  0  0  0  0  0  0  0  0  0  0  0
  144.4370   75.1590  220.4610 C   0  0  0  0  0  0  0  0  0  0  0  0
  143.3420   75.7260  219.8380 C   0  0  0  0  0  0  0  0  0  0  0  0
  142.9360   77.0730  220.0900 N   0  0  0  0  0  0  0  0  0  0  0  0
  142.1350   77.7550  219.0910 C   0  0  0  0  0  0  0  0  0  0  0  0
  141.0130   78.4280  219.8430 C   0  0  2  0  0  0  0  0  0  0  0  0
  140.0080   79.0440  218.9240 C   0  0  0  0  0  0  0  0  0  0  0  0
  140.1130   80.5380  219.1830 C   0  0  0  0  0  0  0  0  0  0  0  0
  141.5340   80.6300  219.7100 C   0  0  0  0  0  0  0  0  0  0  0  0
  141.5670   79.5630  220.6590 N   0  0  0  0  0  0  0  0  0  0  0  0
  141.9180   79.3710  221.9910 C   0  0  0  0  0  0  0  0  0  0  0  0
  142.9930   80.0150  222.3760 O   0  0  0  0  0  0  0  0  0  0  0  0
  141.3190   78.5890  223.0670 C   0  0  0  0  0  0  0  0  0  0  0  0
  141.1620   77.2060  222.7410 N   0  0  0  0  0  0  0  0  0  0  0  0
  139.8120   76.7960  222.3850 C   0  0  0  0  0  0  0  0  0  0  0  0
  138.9580   77.6920  222.4020 O   0  0  0  0  0  0  0  0  0  0  0  0
  139.5610   75.4030  222.0400 C   0  0  0  0  0  0  0  0  0  0  0  0
  138.2570   75.0360  221.7830 C   0  0  0  0  0  0  0  0  0  0  0  0
  137.8800   73.7540  221.4460 C   0  0  0  0  0  0  0  0  0  0  0  0
  138.9100   72.8140  221.3760 C   0  0  0  0  0  0  0  0  0  0  0  0
  138.5680   71.5110  221.0400 C   0  0  0  0  0  0  0  0  0  0  0  0
  139.5550   70.5590  220.9600 C   0  0  0  0  0  0  0  0  0  0  0  0
  139.2880   69.2540  220.6340 F   0  0  0  0  0  0  0  0  0  0  0  0
  140.8730   70.9340  221.2210 C   0  0  0  0  0  0  0  0  0  0  0  0
  141.2030   72.2390  221.5570 C   0  0  0  0  0  0  0  0  0  0  0  0
  140.2020   73.2010  221.6360 C   0  0  0  0  0  0  0  0  0  0  0  0
  140.5210   74.4740  221.9630 N   0  0  0  0  0  0  0  0  0  0  0  0
  142.6460   74.9250  218.9500 C   0  0  0  0  0  0  0  0  0  0  0  0
  143.0310   73.6090  218.6940 C   0  0  0  0  0  0  0  0  0  0  0  0
  143.1440   70.6970  220.3440 H   0  0  0  0  0  0  0  0  0  0  0  0
  146.5556   69.7854  219.4476 H   0  0  0  0  0  0  0  0  0  0  0  0
  147.2569   67.4335  219.0103 H   0  0  0  0  0  0  0  0  0  0  0  0
  145.6111   65.6280  218.7842 H   0  0  0  0  0  0  0  0  0  0  0  0
  143.1711   66.0983  218.9831 H   0  0  0  0  0  0  0  0  0  0  0  0
  142.4493   68.4582  219.4230 H   0  0  0  0  0  0  0  0  0  0  0  0
  145.7135   73.4354  220.7356 H   0  0  0  0  0  0  0  0  0  0  0  0
  145.0146   75.7653  221.1743 H   0  0  0  0  0  0  0  0  0  0  0  0
  143.2400   77.5050  220.9890 H   0  0  0  0  0  0  0  0  0  0  0  0
  142.7421   78.5035  218.5607 H   0  0  0  0  0  0  0  0  0  0  0  0
  141.7493   77.0530  218.3371 H   0  0  0  0  0  0  0  0  0  0  0  0
  140.5385   77.6498  220.4588 H   0  0  0  0  0  0  0  0  0  0  0  0
  140.2489   78.8142  217.8756 H   0  0  0  0  0  0  0  0  0  0  0  0
  138.9921   78.6612  219.1015 H   0  0  0  0  0  0  0  0  0  0  0  0
  139.9845   81.1202  218.2586 H   0  0  0  0  0  0  0  0  0  0  0  0
  139.3462   80.9399  219.8616 H   0  0  0  0  0  0  0  0  0  0  0  0
  142.2693   80.4738  218.9069 H   0  0  0  0  0  0  0  0  0  0  0  0
  141.7866   81.6118  220.1368 H   0  0  0  0  0  0  0  0  0  0  0  0
  141.9626   78.6674  223.9556 H   0  0  0  0  0  0  0  0  0  0  0  0
  140.3136   78.9977  223.2461 H   0  0  0  0  0  0  0  0  0  0  0  0
  141.9380   76.5020  222.7480 H   0  0  0  0  0  0  0  0  0  0  0  0
  137.4760   75.8076  221.8506 H   0  0  0  0  0  0  0  0  0  0  0  0
  136.8319   73.4876  221.2445 H   0  0  0  0  0  0  0  0  0  0  0  0
  137.5197   71.2443  220.8403 H   0  0  0  0  0  0  0  0  0  0  0  0
  141.6691   70.1775  221.1589 H   0  0  0  0  0  0  0  0  0  0  0  0
  142.2495   72.5109  221.7596 H   0  0  0  0  0  0  0  0  0  0  0  0
  141.7667   75.3365  218.4328 H   0  0  0  0  0  0  0  0  0  0  0  0
  142.4555   73.0001  217.9812 H   0  0  0  0  0  0  0  0  0  0  0  0
  1  2  2  0
  2  3  1  0
  3  4  1  0
  4  5  2  0
  5  6  1  0
  6  7  2  0
  7  8  1  0
  8  9  2  0
  2 10  1  0
 10 11  2  0
 11 12  1  0
 12 13  2  0
 13 14  1  0
 14 15  1  0
 15 16  1  0
 16 17  1  0
 17 18  1  0
 18 19  1  0
 19 20  1  0
 20 21  1  0
 21 22  2  0
 21 23  1  0
 23 24  1  0
 24 25  1  0
 25 26  2  0
 25 27  1  0
 27 28  2  0
 28 29  1  0
 29 30  2  0
 30 31  1  0
 31 32  2  0
 32 33  1  0
 32 34  1  0
 34 35  2  0
 35 36  1  0
 36 37  2  0
 13 38  1  0
 38 39  2  0
  9  4  1  0
 39 10  1  0
 20 16  1  0
 37 27  1  0
 36 30  1  0
  3 40  1  0
  5 41  1  0
  6 42  1  0
  7 43  1  0
  8 44  1  0
  9 45  1  0
 11 46  1  0
 12 47  1  0
 14 48  1  0
 15 49  1  0
 15 50  1  0
 16 51  1  1
 17 52  1  0
 17 53  1  0
 18 54  1  0
 18 55  1  0
 19 56  1  0
 19 57  1  0
 23 58  1  0
 23 59  1  0
 24 60  1  0
 28 61  1  0
 29 62  1  0
 31 63  1  0
 34 64  1  0
 35 65  1  0
 38 66  1  0
 39 67  1  0
M  END
>  <smiles>  (22) 
O=C(Nc1ccccc1)c1ccc(NC[C@@H]2CCCN2C(=O)CNC(=O)c2ccc3cc(F)ccc3n2)cc1

>  <score_type>  (22) 
oracle

>  <origin>  (22) 
autodockgpu

>  <m_score__min__energy>  (22) 
-9.8599999999999994

>  <m_primary>  (22) 
energy

>  <rmsd>  (22) 
9.426978142318763

>  <m_score__min__rmsd>  (22) 
9.426978142318763

>  <meeko>  (22) 
{"free_energy": -8.14, "intermolecular_energy": -10.82, "internal_energy": -3.52, "cluster_size": 1, "cluster_id": 6, "rank_in_cluster": 1}

>  <energy>  (22) 
-7.62

>  <cluster_rmsd>  (22) 
0.98

>  <cluster>  (22) 
5

$$$$

     RDKit          3D

 67 71  0  0  0  0  0  0  0  0999 V2000
  137.9600   71.8140  220.7930 O   0  0  0  0  0  0  0  0  0  0  0  0
  138.0810   72.4670  221.8610 C   0  0  0  0  0  0  0  0  0  0  0  0
  137.3760   72.0700  223.0250 N   0  0  0  0  0  0  0  0  0  0  0  0
  136.5120   70.9170  223.0050 C   0  0  0  0  0  0  0  0  0  0  0  0
  135.1370   71.0480  223.1750 C   0  0  0  0  0  0  0  0  0  0  0  0
  134.3830   69.8850  223.1410 C   0  0  0  0  0  0  0  0  0  0  0  0
  134.9550   68.6450  222.9480 C   0  0  0  0  0  0  0  0  0  0  0  0
  136.3170   68.5100  222.7790 C   0  0  0  0  0  0  0  0  0  0  0  0
  137.0880   69.6760  222.8110 C   0  0  0  0  0  0  0  0  0  0  0  0
  138.9680   73.6280  221.8330 C   0  0  0  0  0  0  0  0  0  0  0  0
  138.4150   74.8730  222.0420 C   0  0  0  0  0  0  0  0  0  0  0  0
  139.2220   76.0060  222.0230 C   0  0  0  0  0  0  0  0  0  0  0  0
  140.5840   75.9390  221.7990 C   0  0  0  0  0  0  0  0  0  0  0  0
  141.4100   77.1050  221.7800 N   0  0  0  0  0  0  0  0  0  0  0  0
  140.9630   78.2840  222.4990 C   0  0  0  0  0  0  0  0  0  0  0  0
  142.0310   79.3300  222.2910 C   0  0  2  0  0  0  0  0  0  0  0  0
  142.5560   79.8650  223.5840 C   0  0  0  0  0  0  0  0  0  0  0  0
  142.1390   81.3260  223.5950 C   0  0  0  0  0  0  0  0  0  0  0  0
  140.9390   81.2810  222.6670 C   0  0  0  0  0  0  0  0  0  0  0  0
  141.4400   80.5120  221.5720 N   0  0  0  0  0  0  0  0  0  0  0  0
  141.5230   80.6120  220.1870 C   0  0  0  0  0  0  0  0  0  0  0  0
  141.8570   81.7980  219.7390 O   0  0  0  0  0  0  0  0  0  0  0  0
  141.3140   79.6460  219.1140 C   0  0  0  0  0  0  0  0  0  0  0  0
  142.2280   78.5470  219.1560 N   0  0  0  0  0  0  0  0  0  0  0  0
  141.6510   77.2430  218.8710 C   0  0  0  0  0  0  0  0  0  0  0  0
  140.4390   77.2360  218.6220 O   0  0  0  0  0  0  0  0  0  0  0  0
  142.5100   76.0660  218.8950 C   0  0  0  0  0  0  0  0  0  0  0  0
  142.3420   75.1350  217.8910 C   0  0  0  0  0  0  0  0  0  0  0  0
  143.0860   73.9790  217.7950 C   0  0  0  0  0  0  0  0  0  0  0  0
  144.0470   73.7860  218.7890 C   0  0  0  0  0  0  0  0  0  0  0  0
  144.8150   72.6330  218.7240 C   0  0  0  0  0  0  0  0  0  0  0  0
  145.7710   72.4090  219.6860 C   0  0  0  0  0  0  0  0  0  0  0  0
  146.5650   71.2910  219.6820 F   0  0  0  0  0  0  0  0  0  0  0  0
  145.9380   73.3530  220.6990 C   0  0  0  0  0  0  0  0  0  0  0  0
  145.1630   74.5020  220.7540 C   0  0  0  0  0  0  0  0  0  0  0  0
  144.1970   74.7270  219.7790 C   0  0  0  0  0  0  0  0  0  0  0  0
  143.4410   75.8470  219.8310 N   0  0  0  0  0  0  0  0  0  0  0  0
  141.1200   74.6800  221.5910 C   0  0  0  0  0  0  0  0  0  0  0  0
  140.3250   73.5350  221.6070 C   0  0  0  0  0  0  0  0  0  0  0  0
  137.4710   72.6070  223.9150 H   0  0  0  0  0  0  0  0  0  0  0  0
  134.6688   72.0313  223.3296 H   0  0  0  0  0  0  0  0  0  0  0  0
  133.2930   69.9535  223.2723 H   0  0  0  0  0  0  0  0  0  0  0  0
  134.3153   67.7503  222.9286 H   0  0  0  0  0  0  0  0  0  0  0  0
  136.7788   67.5236  222.6251 H   0  0  0  0  0  0  0  0  0  0  0  0
  138.1776   69.6038  222.6788 H   0  0  0  0  0  0  0  0  0  0  0  0
  137.3346   74.9709  222.2240 H   0  0  0  0  0  0  0  0  0  0  0  0
  138.7597   76.9897  222.1922 H   0  0  0  0  0  0  0  0  0  0  0  0
  142.3030   77.0520  221.2450 H   0  0  0  0  0  0  0  0  0  0  0  0
  140.0012   78.6349  222.0966 H   0  0  0  0  0  0  0  0  0  0  0  0
  140.8119   78.0703  223.5674 H   0  0  0  0  0  0  0  0  0  0  0  0
  142.8391   78.8440  221.7247 H   0  0  0  0  0  0  0  0  0  0  0  0
  142.1112   79.3283  224.4350 H   0  0  0  0  0  0  0  0  0  0  0  0
  143.6455   79.7426  223.6732 H   0  0  0  0  0  0  0  0  0  0  0  0
  141.8586   81.6602  224.6048 H   0  0  0  0  0  0  0  0  0  0  0  0
  142.9277   82.0290  223.2889 H   0  0  0  0  0  0  0  0  0  0  0  0
  140.0820   80.7843  223.1454 H   0  0  0  0  0  0  0  0  0  0  0  0
  140.5643   82.2739  222.3775 H   0  0  0  0  0  0  0  0  0  0  0  0
  140.2902   79.2518  219.1937 H   0  0  0  0  0  0  0  0  0  0  0  0
  141.4824   80.1735  218.1635 H   0  0  0  0  0  0  0  0  0  0  0  0
  143.2500   78.6310  219.3750 H   0  0  0  0  0  0  0  0  0  0  0  0
  141.5739   75.3253  217.1270 H   0  0  0  0  0  0  0  0  0  0  0  0
  142.9319   73.2521  216.9839 H   0  0  0  0  0  0  0  0  0  0  0  0
  144.6610   71.9066  217.9125 H   0  0  0  0  0  0  0  0  0  0  0  0
  146.7018   73.1824  221.4720 H   0  0  0  0  0  0  0  0  0  0  0  0
  145.3115   75.2311  221.5641 H   0  0  0  0  0  0  0  0  0  0  0  0
  142.2002   74.5804  221.4085 H   0  0  0  0  0  0  0  0  0  0  0  0
  140.7838   72.5497  221.4380 H   0  0  0  0  0  0  0  0  0  0  0  0
  1  2  2  0
  2  3  1  0
  3  4  1  0
  4  5  2  0
  5  6  1  0
  6  7  2  0
  7  8  1  0
  8  9  2  0
  2 10  1  0
 10 11  2  0
 11 12  1  0
 12 13  2  0
 13 14  1  0
 14 15  1  0
 15 16  1  0
 16 17  1  0
 17 18  1  0
 18 19  1  0
 19 20  1  0
 20 21  1  0
 21 22  2  0
 21 23  1  0
 23 24  1  0
 24 25  1  0
 25 26  2  0
 25 27  1  0
 27 28  2  0
 28 29  1  0
 29 30  2  0
 30 31  1  0
 31 32  2  0
 32 33  1  0
 32 34  1  0
 34 35  2  0
 35 36  1  0
 36 37  2  0
 13 38  1  0
 38 39  2  0
  9  4  1  0
 39 10  1  0
 20 16  1  0
 37 27  1  0
 36 30  1  0
  3 40  1  0
  5 41  1  0
  6 42  1  0
  7 43  1  0
  8 44  1  0
  9 45  1  0
 11 46  1  0
 12 47  1  0
 14 48  1  0
 15 49  1  0
 15 50  1  0
 16 51  1  6
 17 52  1  0
 17 53  1  0
 18 54  1  0
 18 55  1  0
 19 56  1  0
 19 57  1  0
 23 58  1  0
 23 59  1  0
 24 60  1  0
 28 61  1  0
 29 62  1  0
 31 63  1  0
 34 64  1  0
 35 65  1  0
 38 66  1  0
 39 67  1  0
M  END
>  <smiles>  (23) 
O=C(Nc1ccccc1)c1ccc(NC[C@@H]2CCCN2C(=O)CNC(=O)c2ccc3cc(F)ccc3n2)cc1

>  <score_type>  (23) 
oracle

>  <origin>  (23) 
autodockgpu

>  <m_score__min__energy>  (23) 
-9.8599999999999994

>  <m_primary>  (23) 
energy

>  <rmsd>  (23) 
9.657700899215202

>  <m_score__min__rmsd>  (23) 
9.657700899215202

>  <meeko>  (23) 
{"free_energy": -7.79, "intermolecular_energy": -10.47, "internal_energy": -3.46, "cluster_size": 3, "cluster_id": 9, "rank_in_cluster": 1}

>  <energy>  (23) 
-7.5

>  <cluster_rmsd>  (23) 
1.38

>  <cluster>  (23) 
5

$$$$

     RDKit          3D

 67 71  0  0  0  0  0  0  0  0999 V2000
  136.6780   77.5690  222.6670 O   0  0  0  0  0  0  0  0  0  0  0  0
  137.3980   76.5430  222.5680 C   0  0  0  0  0  0  0  0  0  0  0  0
  136.9630   75.3080  223.1120 N   0  0  0  0  0  0  0  0  0  0  0  0
  135.6920   75.2090  223.7850 C   0  0  0  0  0  0  0  0  0  0  0  0
  134.5130   75.0400  223.0670 C   0  0  0  0  0  0  0  0  0  0  0  0
  133.3360   74.9540  223.7970 C   0  0  0  0  0  0  0  0  0  0  0  0
  133.3200   75.0300  225.1740 C   0  0  0  0  0  0  0  0  0  0  0  0
  134.4870   75.1980  225.8900 C   0  0  0  0  0  0  0  0  0  0  0  0
  135.6790   75.2860  225.1650 C   0  0  0  0  0  0  0  0  0  0  0  0
  138.6760   76.6940  221.8770 C   0  0  0  0  0  0  0  0  0  0  0  0
  139.8140   76.8500  222.6400 C   0  0  0  0  0  0  0  0  0  0  0  0
  141.0520   76.9970  222.0230 C   0  0  0  0  0  0  0  0  0  0  0  0
  141.1980   76.9930  220.6490 C   0  0  0  0  0  0  0  0  0  0  0  0
  142.4710   77.1450  220.0190 N   0  0  0  0  0  0  0  0  0  0  0  0
  142.5690   76.9210  218.5880 C   0  0  0  0  0  0  0  0  0  0  0  0
  143.3650   75.6500  218.4170 C   0  0  2  0  0  0  0  0  0  0  0  0
  144.0640   75.5960  217.0970 C   0  0  0  0  0  0  0  0  0  0  0  0
  143.4130   74.4350  216.3630 C   0  0  0  0  0  0  0  0  0  0  0  0
  142.0630   74.3900  217.0550 C   0  0  0  0  0  0  0  0  0  0  0  0
  142.4330   74.4700  218.4320 N   0  0  0  0  0  0  0  0  0  0  0  0
  142.1860   73.7780  219.6140 C   0  0  0  0  0  0  0  0  0  0  0  0
  143.1810   73.0350  220.0350 O   0  0  0  0  0  0  0  0  0  0  0  0
  141.0270   73.7140  220.4970 C   0  0  0  0  0  0  0  0  0  0  0  0
  141.1220   72.6800  221.4800 N   0  0  0  0  0  0  0  0  0  0  0  0
  140.1080   72.7140  222.5230 C   0  0  0  0  0  0  0  0  0  0  0  0
  139.2800   73.6300  222.4360 O   0  0  0  0  0  0  0  0  0  0  0  0
  140.1300   71.6980  223.5670 C   0  0  0  0  0  0  0  0  0  0  0  0
  139.6240   70.4540  223.2570 C   0  0  0  0  0  0  0  0  0  0  0  0
  139.5840   69.4050  224.1500 C   0  0  0  0  0  0  0  0  0  0  0  0
  140.0950   69.6660  225.4220 C   0  0  0  0  0  0  0  0  0  0  0  0
  140.0710   68.6330  226.3480 C   0  0  0  0  0  0  0  0  0  0  0  0
  140.5650   68.8540  227.6110 C   0  0  0  0  0  0  0  0  0  0  0  0
  140.5720   67.8780  228.5750 F   0  0  0  0  0  0  0  0  0  0  0  0
  141.0770   70.1140  227.9220 C   0  0  0  0  0  0  0  0  0  0  0  0
  141.0950   71.1400  226.9880 C   0  0  0  0  0  0  0  0  0  0  0  0
  140.5940   70.9140  225.7100 C   0  0  0  0  0  0  0  0  0  0  0  0
  140.6110   71.9120  224.7980 N   0  0  0  0  0  0  0  0  0  0  0  0
  140.0450   76.8360  219.9000 C   0  0  0  0  0  0  0  0  0  0  0  0
  138.7960   76.6870  220.5020 C   0  0  0  0  0  0  0  0  0  0  0  0
  137.5550   74.4530  223.0330 H   0  0  0  0  0  0  0  0  0  0  0  0
  134.5135   74.9773  221.9688 H   0  0  0  0  0  0  0  0  0  0  0  0
  132.3852   74.8209  223.2601 H   0  0  0  0  0  0  0  0  0  0  0  0
  132.3620   74.9555  225.7094 H   0  0  0  0  0  0  0  0  0  0  0  0
  134.4799   75.2603  226.9882 H   0  0  0  0  0  0  0  0  0  0  0  0
  136.6280   75.4195  225.7049 H   0  0  0  0  0  0  0  0  0  0  0  0
  139.7427   76.8582  223.7377 H   0  0  0  0  0  0  0  0  0  0  0  0
  141.9465   77.1208  222.6512 H   0  0  0  0  0  0  0  0  0  0  0  0
  143.2780   77.4110  220.6240 H   0  0  0  0  0  0  0  0  0  0  0  0
  141.5666   76.8055  218.1501 H   0  0  0  0  0  0  0  0  0  0  0  0
  143.0520   77.7691  218.0806 H   0  0  0  0  0  0  0  0  0  0  0  0
  144.0981   75.6271  219.2368 H   0  0  0  0  0  0  0  0  0  0  0  0
  143.9196   76.5352  216.5429 H   0  0  0  0  0  0  0  0  0  0  0  0
  145.1504   75.4626  217.2064 H   0  0  0  0  0  0  0  0  0  0  0  0
  143.3109   74.6410  215.2873 H   0  0  0  0  0  0  0  0  0  0  0  0
  143.9794   73.4929  216.4030 H   0  0  0  0  0  0  0  0  0  0  0  0
  141.4339   75.2427  216.7599 H   0  0  0  0  0  0  0  0  0  0  0  0
  141.4666   73.4997  216.8068 H   0  0  0  0  0  0  0  0  0  0  0  0
  140.9283   74.6797  221.0143 H   0  0  0  0  0  0  0  0  0  0  0  0
  140.1516   73.4886  219.8702 H   0  0  0  0  0  0  0  0  0  0  0  0
  141.8560   71.9310  221.4870 H   0  0  0  0  0  0  0  0  0  0  0  0
  139.2311   70.2897  222.2428 H   0  0  0  0  0  0  0  0  0  0  0  0
  139.1741   68.4215  223.8766 H   0  0  0  0  0  0  0  0  0  0  0  0
  139.6616   67.6494  226.0745 H   0  0  0  0  0  0  0  0  0  0  0  0
  141.4755   70.2983  228.9306 H   0  0  0  0  0  0  0  0  0  0  0  0
  141.5028   72.1257  227.2564 H   0  0  0  0  0  0  0  0  0  0  0  0
  140.1155   76.8286  218.8023 H   0  0  0  0  0  0  0  0  0  0  0  0
  137.8998   76.5630  219.8764 H   0  0  0  0  0  0  0  0  0  0  0  0
  1  2  2  0
  2  3  1  0
  3  4  1  0
  4  5  2  0
  5  6  1  0
  6  7  2  0
  7  8  1  0
  8  9  2  0
  2 10  1  0
 10 11  2  0
 11 12  1  0
 12 13  2  0
 13 14  1  0
 14 15  1  0
 15 16  1  0
 16 17  1  0
 17 18  1  0
 18 19  1  0
 19 20  1  0
 20 21  1  0
 21 22  2  0
 21 23  1  0
 23 24  1  0
 24 25  1  0
 25 26  2  0
 25 27  1  0
 27 28  2  0
 28 29  1  0
 29 30  2  0
 30 31  1  0
 31 32  2  0
 32 33  1  0
 32 34  1  0
 34 35  2  0
 35 36  1  0
 36 37  2  0
 13 38  1  0
 38 39  2  0
  9  4  1  0
 39 10  1  0
 20 16  1  0
 37 27  1  0
 36 30  1  0
  3 40  1  0
  5 41  1  0
  6 42  1  0
  7 43  1  0
  8 44  1  0
  9 45  1  0
 11 46  1  0
 12 47  1  0
 14 48  1  0
 15 49  1  0
 15 50  1  0
 16 51  1  1
 17 52  1  0
 17 53  1  0
 18 54  1  0
 18 55  1  0
 19 56  1  0
 19 57  1  0
 23 58  1  0
 23 59  1  0
 24 60  1  0
 28 61  1  0
 29 62  1  0
 31 63  1  0
 34 64  1  0
 35 65  1  0
 38 66  1  0
 39 67  1  0
M  END
>  <smiles>  (24) 
O=C(Nc1ccccc1)c1ccc(NC[C@@H]2CCCN2C(=O)CNC(=O)c2ccc3cc(F)ccc3n2)cc1

>  <score_type>  (24) 
oracle

>  <origin>  (24) 
autodockgpu

>  <m_score__min__energy>  (24) 
-9.8599999999999994

>  <m_primary>  (24) 
energy

>  <rmsd>  (24) 
6.351901836616475

>  <m_score__min__rmsd>  (24) 
6.351901836616475

>  <meeko>  (24) 
{"free_energy": -8.0, "intermolecular_energy": -10.69, "internal_energy": -3.72, "cluster_size": 1, "cluster_id": 7, "rank_in_cluster": 1}

>  <energy>  (24) 
-8.14

>  <cluster_rmsd>  (24) 
0.0

>  <cluster>  (24) 
6

$$$$

     RDKit          3D

 67 71  0  0  0  0  0  0  0  0999 V2000
  135.5880   81.1180  224.9440 O   0  0  0  0  0  0  0  0  0  0  0  0
  136.8350   81.1470  225.0990 C   0  0  0  0  0  0  0  0  0  0  0  0
  137.4140   81.9900  226.0810 N   0  0  0  0  0  0  0  0  0  0  0  0
  136.5860   82.8240  226.9150 C   0  0  0  0  0  0  0  0  0  0  0  0
  135.8260   82.2770  227.9440 C   0  0  0  0  0  0  0  0  0  0  0  0
  135.0580   83.1540  228.6960 C   0  0  0  0  0  0  0  0  0  0  0  0
  135.0380   84.5110  228.4480 C   0  0  0  0  0  0  0  0  0  0  0  0
  135.7910   85.0570  227.4280 C   0  0  0  0  0  0  0  0  0  0  0  0
  136.5680   84.1830  226.6640 C   0  0  0  0  0  0  0  0  0  0  0  0
  137.6320   80.2840  224.2300 C   0  0  0  0  0  0  0  0  0  0  0  0
  136.9690   79.3830  223.4240 C   0  0  0  0  0  0  0  0  0  0  0  0
  137.6890   78.5420  222.5810 C   0  0  0  0  0  0  0  0  0  0  0  0
  139.0690   78.5680  222.5130 C   0  0  0  0  0  0  0  0  0  0  0  0
  139.8040   77.7030  221.6470 N   0  0  0  0  0  0  0  0  0  0  0  0
  141.1790   78.0430  221.3290 C   0  0  0  0  0  0  0  0  0  0  0  0
  141.7330   76.8700  220.5580 C   0  0  2  0  0  0  0  0  0  0  0  0
  142.2250   77.2660  219.2040 C   0  0  0  0  0  0  0  0  0  0  0  0
  141.3040   76.5470  218.2330 C   0  0  0  0  0  0  0  0  0  0  0  0
  140.0720   76.3640  219.1010 C   0  0  0  0  0  0  0  0  0  0  0  0
  140.6370   75.8690  220.3160 N   0  0  0  0  0  0  0  0  0  0  0  0
  140.4500   74.7990  221.1860 C   0  0  0  0  0  0  0  0  0  0  0  0
  139.9610   75.1230  222.3590 O   0  0  0  0  0  0  0  0  0  0  0  0
  140.6880   73.3670  221.0550 C   0  0  0  0  0  0  0  0  0  0  0  0
  140.7650   72.6890  222.3120 N   0  0  0  0  0  0  0  0  0  0  0  0
  139.9320   71.5030  222.4360 C   0  0  0  0  0  0  0  0  0  0  0  0
  139.2560   71.2170  221.4390 O   0  0  0  0  0  0  0  0  0  0  0  0
  139.9470   70.7520  223.6840 C   0  0  0  0  0  0  0  0  0  0  0  0
  139.3500   69.5090  223.6860 C   0  0  0  0  0  0  0  0  0  0  0  0
  139.2920   68.6950  224.7970 C   0  0  0  0  0  0  0  0  0  0  0  0
  139.8840   69.2010  225.9560 C   0  0  0  0  0  0  0  0  0  0  0  0
  139.8460   68.4090  227.0950 C   0  0  0  0  0  0  0  0  0  0  0  0
  140.4190   68.8740  228.2540 C   0  0  0  0  0  0  0  0  0  0  0  0
  140.4170   68.1440  229.4150 F   0  0  0  0  0  0  0  0  0  0  0  0
  141.0230   70.1320  228.2480 C   0  0  0  0  0  0  0  0  0  0  0  0
  141.0540   70.9150  227.1030 C   0  0  0  0  0  0  0  0  0  0  0  0
  140.4740   70.4420  225.9310 C   0  0  0  0  0  0  0  0  0  0  0  0
  140.5040   71.2040  224.8140 N   0  0  0  0  0  0  0  0  0  0  0  0
  139.7160   79.4790  223.3310 C   0  0  0  0  0  0  0  0  0  0  0  0
  139.0100   80.3290  224.1810 C   0  0  0  0  0  0  0  0  0  0  0  0
  138.4480   82.0200  226.2150 H   0  0  0  0  0  0  0  0  0  0  0  0
  135.8338   81.1969  228.1521 H   0  0  0  0  0  0  0  0  0  0  0  0
  134.4448   82.7543  229.5171 H   0  0  0  0  0  0  0  0  0  0  0  0
  134.4132   85.1671  229.0718 H   0  0  0  0  0  0  0  0  0  0  0  0
  135.7796   86.1380  227.2248 H   0  0  0  0  0  0  0  0  0  0  0  0
  137.1798   84.5858  225.8434 H   0  0  0  0  0  0  0  0  0  0  0  0
  135.8706   79.3290  223.4474 H   0  0  0  0  0  0  0  0  0  0  0  0
  137.1400   77.8311  221.9460 H   0  0  0  0  0  0  0  0  0  0  0  0
  139.3130   76.8600  221.2790 H   0  0  0  0  0  0  0  0  0  0  0  0
  141.2144   78.9547  220.7145 H   0  0  0  0  0  0  0  0  0  0  0  0
  141.7652   78.2385  222.2390 H   0  0  0  0  0  0  0  0  0  0  0  0
  142.5602   76.4634  221.1583 H   0  0  0  0  0  0  0  0  0  0  0  0
  142.1559   78.3556  219.0696 H   0  0  0  0  0  0  0  0  0  0  0  0
  143.2811   76.9992  219.0507 H   0  0  0  0  0  0  0  0  0  0  0  0
  141.0884   77.1623  217.3470 H   0  0  0  0  0  0  0  0  0  0  0  0
  141.7143   75.6144  217.8184 H   0  0  0  0  0  0  0  0  0  0  0  0
  139.5510   77.3193  219.2623 H   0  0  0  0  0  0  0  0  0  0  0  0
  139.3136   75.6997  218.6610 H   0  0  0  0  0  0  0  0  0  0  0  0
  139.8652   72.9283  220.4715 H   0  0  0  0  0  0  0  0  0  0  0  0
  141.6612   73.2426  220.5576 H   0  0  0  0  0  0  0  0  0  0  0  0
  141.3660   72.9930  223.1160 H   0  0  0  0  0  0  0  0  0  0  0  0
  138.8959   69.1478  222.7515 H   0  0  0  0  0  0  0  0  0  0  0  0
  138.8088   67.7071  224.7720 H   0  0  0  0  0  0  0  0  0  0  0  0
  139.3630   67.4210  227.0702 H   0  0  0  0  0  0  0  0  0  0  0  0
  141.4848   70.5113  229.1715 H   0  0  0  0  0  0  0  0  0  0  0  0
  141.5346   71.9043  227.1222 H   0  0  0  0  0  0  0  0  0  0  0  0
  140.8145   79.5333  223.3095 H   0  0  0  0  0  0  0  0  0  0  0  0
  139.5558   81.0410  224.8175 H   0  0  0  0  0  0  0  0  0  0  0  0
  1  2  2  0
  2  3  1  0
  3  4  1  0
  4  5  2  0
  5  6  1  0
  6  7  2  0
  7  8  1  0
  8  9  2  0
  2 10  1  0
 10 11  2  0
 11 12  1  0
 12 13  2  0
 13 14  1  0
 14 15  1  0
 15 16  1  0
 16 17  1  0
 17 18  1  0
 18 19  1  0
 19 20  1  0
 20 21  1  0
 21 22  2  0
 21 23  1  0
 23 24  1  0
 24 25  1  0
 25 26  2  0
 25 27  1  0
 27 28  2  0
 28 29  1  0
 29 30  2  0
 30 31  1  0
 31 32  2  0
 32 33  1  0
 32 34  1  0
 34 35  2  0
 35 36  1  0
 36 37  2  0
 13 38  1  0
 38 39  2  0
  9  4  1  0
 39 10  1  0
 20 16  1  0
 37 27  1  0
 36 30  1  0
  3 40  1  0
  5 41  1  0
  6 42  1  0
  7 43  1  0
  8 44  1  0
  9 45  1  0
 11 46  1  0
 12 47  1  0
 14 48  1  0
 15 49  1  0
 15 50  1  0
 16 51  1  1
 17 52  1  0
 17 53  1  0
 18 54  1  0
 18 55  1  0
 19 56  1  0
 19 57  1  0
 23 58  1  0
 23 59  1  0
 24 60  1  0
 28 61  1  0
 29 62  1  0
 31 63  1  0
 34 64  1  0
 35 65  1  0
 38 66  1  0
 39 67  1  0
M  END
>  <smiles>  (25) 
O=C(Nc1ccccc1)c1ccc(NC[C@@H]2CCCN2C(=O)CNC(=O)c2ccc3cc(F)ccc3n2)cc1

>  <score_type>  (25) 
oracle

>  <origin>  (25) 
autodockgpu

>  <m_score__min__energy>  (25) 
-9.8599999999999994

>  <m_primary>  (25) 
energy

>  <rmsd>  (25) 
6.26494844743955

>  <m_score__min__rmsd>  (25) 
6.26494844743955

>  <meeko>  (25) 
{"free_energy": -8.71, "intermolecular_energy": -11.4, "internal_energy": -2.48, "cluster_size": 2, "cluster_id": 2, "rank_in_cluster": 2}

>  <energy>  (25) 
-8.0

>  <cluster_rmsd>  (25) 
0.0

>  <cluster>  (25) 
7

$$$$

     RDKit          3D

 67 71  0  0  0  0  0  0  0  0999 V2000
  139.2860   77.2970  222.7060 O   0  0  0  0  0  0  0  0  0  0  0  0
  140.2180   76.6960  222.1130 C   0  0  0  0  0  0  0  0  0  0  0  0
  141.4370   77.3640  221.8360 N   0  0  0  0  0  0  0  0  0  0  0  0
  141.6290   78.7370  222.2290 C   0  0  0  0  0  0  0  0  0  0  0  0
  141.3980   79.7770  221.3330 C   0  0  0  0  0  0  0  0  0  0  0  0
  141.6080   81.0670  221.7960 C   0  0  0  0  0  0  0  0  0  0  0  0
  142.0260   81.3260  223.0840 C   0  0  0  0  0  0  0  0  0  0  0  0
  142.2560   80.2980  223.9760 C   0  0  0  0  0  0  0  0  0  0  0  0
  142.0470   78.9930  223.5200 C   0  0  0  0  0  0  0  0  0  0  0  0
  139.9770   75.3050  221.7350 C   0  0  0  0  0  0  0  0  0  0  0  0
  141.0660   74.4750  221.5810 C   0  0  0  0  0  0  0  0  0  0  0  0
  140.8820   73.1430  221.2220 C   0  0  0  0  0  0  0  0  0  0  0  0
  139.6290   72.6020  221.0080 C   0  0  0  0  0  0  0  0  0  0  0  0
  139.4440   71.2340  220.6390 N   0  0  0  0  0  0  0  0  0  0  0  0
  140.6190   70.4090  220.4240 C   0  0  0  0  0  0  0  0  0  0  0  0
  140.1160   68.9910  220.3000 C   0  0  2  0  0  0  0  0  0  0  0  0
  141.0980   68.1020  219.6080 C   0  0  0  0  0  0  0  0  0  0  0  0
  140.4080   67.6970  218.3160 C   0  0  0  0  0  0  0  0  0  0  0  0
  139.4440   68.8560  218.1390 C   0  0  0  0  0  0  0  0  0  0  0  0
  138.8780   68.9720  219.4450 N   0  0  0  0  0  0  0  0  0  0  0  0
  137.6160   69.0300  220.0270 C   0  0  0  0  0  0  0  0  0  0  0  0
  136.7970   69.8970  219.4810 O   0  0  0  0  0  0  0  0  0  0  0  0
  137.0060   68.3070  221.1380 C   0  0  0  0  0  0  0  0  0  0  0  0
  137.8110   68.3040  222.3200 N   0  0  0  0  0  0  0  0  0  0  0  0
  137.9890   69.5990  222.9590 C   0  0  0  0  0  0  0  0  0  0  0  0
  137.4220   70.5510  222.4080 O   0  0  0  0  0  0  0  0  0  0  0  0
  138.7960   69.6880  224.1690 C   0  0  0  0  0  0  0  0  0  0  0  0
  139.2510   70.9350  224.5400 C   0  0  0  0  0  0  0  0  0  0  0  0
  140.0230   71.1610  225.6590 C   0  0  0  0  0  0  0  0  0  0  0  0
  140.3330   70.0360  226.4240 C   0  0  0  0  0  0  0  0  0  0  0  0
  141.1090   70.2250  227.5590 C   0  0  0  0  0  0  0  0  0  0  0  0
  141.4340   69.1400  228.3370 C   0  0  0  0  0  0  0  0  0  0  0  0
  142.1960   69.2550  229.4710 F   0  0  0  0  0  0  0  0  0  0  0  0
  140.9710   67.8790  227.9590 C   0  0  0  0  0  0  0  0  0  0  0  0
  140.1970   67.7020  226.8210 C   0  0  0  0  0  0  0  0  0  0  0  0
  139.8690   68.8020  226.0360 C   0  0  0  0  0  0  0  0  0  0  0  0
  139.1140   68.6320  224.9270 N   0  0  0  0  0  0  0  0  0  0  0  0
  138.5480   73.4520  221.1660 C   0  0  0  0  0  0  0  0  0  0  0  0
  138.7150   74.7890  221.5260 C   0  0  0  0  0  0  0  0  0  0  0  0
  142.2150   76.8720  221.3440 H   0  0  0  0  0  0  0  0  0  0  0  0
  141.0636   79.5839  220.3030 H   0  0  0  0  0  0  0  0  0  0  0  0
  141.4354   81.9118  221.1130 H   0  0  0  0  0  0  0  0  0  0  0  0
  142.1784   82.3669  223.4055 H   0  0  0  0  0  0  0  0  0  0  0  0
  142.5904   80.4976  225.0047 H   0  0  0  0  0  0  0  0  0  0  0  0
  142.2196   78.1504  224.2057 H   0  0  0  0  0  0  0  0  0  0  0  0
  142.0817   74.8655  221.7419 H   0  0  0  0  0  0  0  0  0  0  0  0
  141.7655   72.4982  221.1045 H   0  0  0  0  0  0  0  0  0  0  0  0
  138.4640   70.8920  220.5400 H   0  0  0  0  0  0  0  0  0  0  0  0
  141.1358   70.7131  219.5018 H   0  0  0  0  0  0  0  0  0  0  0  0
  141.3384   70.5101  221.2499 H   0  0  0  0  0  0  0  0  0  0  0  0
  139.9352   68.6329  221.3243 H   0  0  0  0  0  0  0  0  0  0  0  0
  142.0307   68.6452  219.3959 H   0  0  0  0  0  0  0  0  0  0  0  0
  141.3764   67.2324  220.2214 H   0  0  0  0  0  0  0  0  0  0  0  0
  141.1196   67.6299  217.4799 H   0  0  0  0  0  0  0  0  0  0  0  0
  139.9316   66.7059  218.3431 H   0  0  0  0  0  0  0  0  0  0  0  0
  139.9733   69.7758  217.8495 H   0  0  0  0  0  0  0  0  0  0  0  0
  138.6995   68.6970  217.3450 H   0  0  0  0  0  0  0  0  0  0  0  0
  136.0408   68.7790  221.3739 H   0  0  0  0  0  0  0  0  0  0  0  0
  136.8885   67.2603  220.8207 H   0  0  0  0  0  0  0  0  0  0  0  0
  138.2600   67.4510  222.7310 H   0  0  0  0  0  0  0  0  0  0  0  0
  138.9837   71.7957  223.9093 H   0  0  0  0  0  0  0  0  0  0  0  0
  140.3735   72.1672  225.9325 H   0  0  0  0  0  0  0  0  0  0  0  0
  141.4596   71.2311  227.8325 H   0  0  0  0  0  0  0  0  0  0  0  0
  141.2254   67.0055  228.5772 H   0  0  0  0  0  0  0  0  0  0  0  0
  139.8451   66.6980  226.5416 H   0  0  0  0  0  0  0  0  0  0  0  0
  137.5319   73.0633  221.0036 H   0  0  0  0  0  0  0  0  0  0  0  0
  137.8338   75.4368  221.6441 H   0  0  0  0  0  0  0  0  0  0  0  0
  1  2  2  0
  2  3  1  0
  3  4  1  0
  4  5  2  0
  5  6  1  0
  6  7  2  0
  7  8  1  0
  8  9  2  0
  2 10  1  0
 10 11  2  0
 11 12  1  0
 12 13  2  0
 13 14  1  0
 14 15  1  0
 15 16  1  0
 16 17  1  0
 17 18  1  0
 18 19  1  0
 19 20  1  0
 20 21  1  0
 21 22  2  0
 21 23  1  0
 23 24  1  0
 24 25  1  0
 25 26  2  0
 25 27  1  0
 27 28  2  0
 28 29  1  0
 29 30  2  0
 30 31  1  0
 31 32  2  0
 32 33  1  0
 32 34  1  0
 34 35  2  0
 35 36  1  0
 36 37  2  0
 13 38  1  0
 38 39  2  0
  9  4  1  0
 39 10  1  0
 20 16  1  0
 37 27  1  0
 36 30  1  0
  3 40  1  0
  5 41  1  0
  6 42  1  0
  7 43  1  0
  8 44  1  0
  9 45  1  0
 11 46  1  0
 12 47  1  0
 14 48  1  0
 15 49  1  0
 15 50  1  0
 16 51  1  1
 17 52  1  0
 17 53  1  0
 18 54  1  0
 18 55  1  0
 19 56  1  0
 19 57  1  0
 23 58  1  0
 23 59  1  0
 24 60  1  0
 28 61  1  0
 29 62  1  0
 31 63  1  0
 34 64  1  0
 35 65  1  0
 38 66  1  0
 39 67  1  0
M  END
>  <smiles>  (26) 
O=C(Nc1ccccc1)c1ccc(NC[C@@H]2CCCN2C(=O)CNC(=O)c2ccc3cc(F)ccc3n2)cc1

>  <score_type>  (26) 
oracle

>  <origin>  (26) 
autodockgpu

>  <m_score__min__energy>  (26) 
-9.8599999999999994

>  <m_primary>  (26) 
energy

>  <rmsd>  (26) 
3.8679314676281273

>  <m_score__min__rmsd>  (26) 
3.8679314676281273

>  <meeko>  (26) 
{"free_energy": -8.05, "intermolecular_energy": -10.73, "internal_energy": -3.87, "cluster_size": 9, "cluster_id": 5, "rank_in_cluster": 4}

>  <energy>  (26) 
-7.95

>  <cluster_rmsd>  (26) 
0.0

>  <cluster>  (26) 
8

$$$$

     RDKit          3D

 67 71  0  0  0  0  0  0  0  0999 V2000
  140.8630   71.4920  222.1700 O   0  0  0  0  0  0  0  0  0  0  0  0
  139.9390   72.2070  222.6340 C   0  0  0  0  0  0  0  0  0  0  0  0
  139.0360   71.6770  223.5900 N   0  0  0  0  0  0  0  0  0  0  0  0
  139.1610   70.3150  224.0430 C   0  0  0  0  0  0  0  0  0  0  0  0
  138.7170   69.2550  223.2570 C   0  0  0  0  0  0  0  0  0  0  0  0
  138.8760   67.9780  223.7720 C   0  0  0  0  0  0  0  0  0  0  0  0
  139.4480   67.7500  225.0070 C   0  0  0  0  0  0  0  0  0  0  0  0
  139.8890   68.7980  225.7890 C   0  0  0  0  0  0  0  0  0  0  0  0
  139.7340   70.0900  225.2800 C   0  0  0  0  0  0  0  0  0  0  0  0
  139.8530   73.5810  222.1440 C   0  0  0  0  0  0  0  0  0  0  0  0
  141.0280   74.2750  221.9440 C   0  0  0  0  0  0  0  0  0  0  0  0
  140.9930   75.5850  221.4780 C   0  0  0  0  0  0  0  0  0  0  0  0
  139.8080   76.2390  221.2010 C   0  0  0  0  0  0  0  0  0  0  0  0
  139.7750   77.5850  220.7230 N   0  0  0  0  0  0  0  0  0  0  0  0
  140.0620   78.6590  221.6560 C   0  0  0  0  0  0  0  0  0  0  0  0
  141.4860   79.0790  221.3850 C   0  0  2  0  0  0  0  0  0  0  0  0
  142.2500   79.3270  222.6460 C   0  0  0  0  0  0  0  0  0  0  0  0
  142.5670   80.8130  222.6190 C   0  0  0  0  0  0  0  0  0  0  0  0
  141.4490   81.3200  221.7250 C   0  0  0  0  0  0  0  0  0  0  0  0
  141.4900   80.3880  220.6440 N   0  0  0  0  0  0  0  0  0  0  0  0
  141.5560   80.4140  219.2540 C   0  0  0  0  0  0  0  0  0  0  0  0
  140.5560   81.0270  218.6670 O   0  0  0  0  0  0  0  0  0  0  0  0
  142.5290   79.8920  218.3020 C   0  0  0  0  0  0  0  0  0  0  0  0
  142.9480   78.5560  218.5960 N   0  0  0  0  0  0  0  0  0  0  0  0
  141.9400   77.5260  218.3960 C   0  0  0  0  0  0  0  0  0  0  0  0
  140.8400   77.9240  217.9920 O   0  0  0  0  0  0  0  0  0  0  0  0
  142.2800   76.1370  218.6730 C   0  0  0  0  0  0  0  0  0  0  0  0
  141.4400   75.1640  218.1730 C   0  0  0  0  0  0  0  0  0  0  0  0
  141.6440   73.8140  218.3610 C   0  0  0  0  0  0  0  0  0  0  0  0
  142.7730   73.4650  219.1040 C   0  0  0  0  0  0  0  0  0  0  0  0
  143.0100   72.1130  219.3130 C   0  0  0  0  0  0  0  0  0  0  0  0
  144.1130   71.7320  220.0400 C   0  0  0  0  0  0  0  0  0  0  0  0
  144.4070   70.4150  220.2850 F   0  0  0  0  0  0  0  0  0  0  0  0
  144.9600   72.7190  220.5440 C   0  0  0  0  0  0  0  0  0  0  0  0
  144.7120   74.0660  220.3280 C   0  0  0  0  0  0  0  0  0  0  0  0
  143.5960   74.4500  219.5920 C   0  0  0  0  0  0  0  0  0  0  0  0
  143.3530   75.7640  219.3810 N   0  0  0  0  0  0  0  0  0  0  0  0
  138.6390   75.5260  221.4090 C   0  0  0  0  0  0  0  0  0  0  0  0
  138.6570   74.2120  221.8750 C   0  0  0  0  0  0  0  0  0  0  0  0
  138.2670   72.2650  223.9790 H   0  0  0  0  0  0  0  0  0  0  0  0
  138.2601   69.4236  222.2707 H   0  0  0  0  0  0  0  0  0  0  0  0
  138.5351   67.1181  223.1768 H   0  0  0  0  0  0  0  0  0  0  0  0
  139.5539   66.7182  225.3733 H   0  0  0  0  0  0  0  0  0  0  0  0
  140.3448   68.6231  226.7747 H   0  0  0  0  0  0  0  0  0  0  0  0
  140.0760   70.9477  225.8778 H   0  0  0  0  0  0  0  0  0  0  0  0
  141.9938   73.7919  222.1533 H   0  0  0  0  0  0  0  0  0  0  0  0
  141.9423   76.1192  221.3246 H   0  0  0  0  0  0  0  0  0  0  0  0
  139.5440   77.7320  219.7170 H   0  0  0  0  0  0  0  0  0  0  0  0
  139.3766   79.5031  221.4892 H   0  0  0  0  0  0  0  0  0  0  0  0
  139.9307   78.3321  222.6981 H   0  0  0  0  0  0  0  0  0  0  0  0
  141.9496   78.2617  220.8130 H   0  0  0  0  0  0  0  0  0  0  0  0
  141.6387   79.0767  223.5256 H   0  0  0  0  0  0  0  0  0  0  0  0
  143.1576   78.7089  222.7111 H   0  0  0  0  0  0  0  0  0  0  0  0
  142.5160   81.2572  223.6241 H   0  0  0  0  0  0  0  0  0  0  0  0
  143.5804   81.0586  222.2686 H   0  0  0  0  0  0  0  0  0  0  0  0
  140.4786   81.2903  222.2422 H   0  0  0  0  0  0  0  0  0  0  0  0
  141.5702   82.3678  221.4130 H   0  0  0  0  0  0  0  0  0  0  0  0
  142.0771   79.9035  217.2992 H   0  0  0  0  0  0  0  0  0  0  0  0
  143.4204   80.5337  218.3624 H   0  0  0  0  0  0  0  0  0  0  0  0
  143.9040   78.2940  218.9360 H   0  0  0  0  0  0  0  0  0  0  0  0
  140.5608   75.4823  217.5936 H   0  0  0  0  0  0  0  0  0  0  0  0
  140.9589   73.0576  217.9505 H   0  0  0  0  0  0  0  0  0  0  0  0
  142.3246   71.3569  218.9025 H   0  0  0  0  0  0  0  0  0  0  0  0
  145.8449   72.4220  221.1261 H   0  0  0  0  0  0  0  0  0  0  0  0
  145.3939   74.8265  220.7363 H   0  0  0  0  0  0  0  0  0  0  0  0
  137.6724   76.0083  221.2014 H   0  0  0  0  0  0  0  0  0  0  0  0
  137.7097   73.6746  222.0292 H   0  0  0  0  0  0  0  0  0  0  0  0
  1  2  2  0
  2  3  1  0
  3  4  1  0
  4  5  2  0
  5  6  1  0
  6  7  2  0
  7  8  1  0
  8  9  2  0
  2 10  1  0
 10 11  2  0
 11 12  1  0
 12 13  2  0
 13 14  1  0
 14 15  1  0
 15 16  1  0
 16 17  1  0
 17 18  1  0
 18 19  1  0
 19 20  1  0
 20 21  1  0
 21 22  2  0
 21 23  1  0
 23 24  1  0
 24 25  1  0
 25 26  2  0
 25 27  1  0
 27 28  2  0
 28 29  1  0
 29 30  2  0
 30 31  1  0
 31 32  2  0
 32 33  1  0
 32 34  1  0
 34 35  2  0
 35 36  1  0
 36 37  2  0
 13 38  1  0
 38 39  2  0
  9  4  1  0
 39 10  1  0
 20 16  1  0
 37 27  1  0
 36 30  1  0
  3 40  1  0
  5 41  1  0
  6 42  1  0
  7 43  1  0
  8 44  1  0
  9 45  1  0
 11 46  1  0
 12 47  1  0
 14 48  1  0
 15 49  1  0
 15 50  1  0
 16 51  1  6
 17 52  1  0
 17 53  1  0
 18 54  1  0
 18 55  1  0
 19 56  1  0
 19 57  1  0
 23 58  1  0
 23 59  1  0
 24 60  1  0
 28 61  1  0
 29 62  1  0
 31 63  1  0
 34 64  1  0
 35 65  1  0
 38 66  1  0
 39 67  1  0
M  END
>  <smiles>  (27) 
O=C(Nc1ccccc1)c1ccc(NC[C@@H]2CCCN2C(=O)CNC(=O)c2ccc3cc(F)ccc3n2)cc1

>  <score_type>  (27) 
oracle

>  <origin>  (27) 
autodockgpu

>  <m_score__min__energy>  (27) 
-9.8599999999999994

>  <m_primary>  (27) 
energy

>  <rmsd>  (27) 
9.671744451685466

>  <m_score__min__rmsd>  (27) 
9.671744451685466

>  <meeko>  (27) 
{"free_energy": -7.21, "intermolecular_energy": -9.89, "internal_energy": -4.28, "cluster_size": 3, "cluster_id": 9, "rank_in_cluster": 3}

>  <energy>  (27) 
-7.79

>  <cluster_rmsd>  (27) 
0.0

>  <cluster>  (27) 
9

$$$$

     RDKit          3D

 67 71  0  0  0  0  0  0  0  0999 V2000
  139.7160   81.2310  224.1290 O   0  0  0  0  0  0  0  0  0  0  0  0
  138.9680   80.2260  224.0160 C   0  0  0  0  0  0  0  0  0  0  0  0
  137.6040   80.3050  224.3910 N   0  0  0  0  0  0  0  0  0  0  0  0
  137.0530   81.5340  224.9060 C   0  0  0  0  0  0  0  0  0  0  0  0
  136.9020   81.7320  226.2750 C   0  0  0  0  0  0  0  0  0  0  0  0
  136.3630   82.9440  226.6820 C   0  0  0  0  0  0  0  0  0  0  0  0
  135.9880   83.9190  225.7810 C   0  0  0  0  0  0  0  0  0  0  0  0
  136.1350   83.7260  224.4230 C   0  0  0  0  0  0  0  0  0  0  0  0
  136.6780   82.5090  224.0020 C   0  0  0  0  0  0  0  0  0  0  0  0
  139.5730   79.0040  223.4900 C   0  0  0  0  0  0  0  0  0  0  0  0
  138.7530   78.0950  222.8550 C   0  0  0  0  0  0  0  0  0  0  0  0
  139.2870   76.9180  222.3380 C   0  0  0  0  0  0  0  0  0  0  0  0
  140.6310   76.6120  222.4340 C   0  0  0  0  0  0  0  0  0  0  0  0
  141.1750   75.4030  221.9030 N   0  0  0  0  0  0  0  0  0  0  0  0
  140.2670   74.4280  221.3270 C   0  0  0  0  0  0  0  0  0  0  0  0
  140.8140   74.1050  219.9580 C   0  0  2  0  0  0  0  0  0  0  0  0
  139.9560   73.1260  219.2240 C   0  0  0  0  0  0  0  0  0  0  0  0
  140.8260   71.8890  219.0720 C   0  0  0  0  0  0  0  0  0  0  0  0
  141.7790   72.0740  220.2390 C   0  0  0  0  0  0  0  0  0  0  0  0
  142.1570   73.4440  220.0980 N   0  0  0  0  0  0  0  0  0  0  0  0
  143.3260   74.1960  220.0370 C   0  0  0  0  0  0  0  0  0  0  0  0
  144.2780   73.8020  220.8490 O   0  0  0  0  0  0  0  0  0  0  0  0
  143.7160   75.3510  219.2370 C   0  0  0  0  0  0  0  0  0  0  0  0
  143.2030   76.5870  219.7410 N   0  0  0  0  0  0  0  0  0  0  0  0
  141.9860   77.0650  219.1030 C   0  0  0  0  0  0  0  0  0  0  0  0
  141.5340   76.3460  218.2030 O   0  0  0  0  0  0  0  0  0  0  0  0
  141.3940   78.3180  219.5520 C   0  0  0  0  0  0  0  0  0  0  0  0
  140.1330   78.6290  219.0890 C   0  0  0  0  0  0  0  0  0  0  0  0
  139.4590   79.7810  219.4340 C   0  0  0  0  0  0  0  0  0  0  0  0
  140.1310   80.6460  220.3000 C   0  0  0  0  0  0  0  0  0  0  0  0
  139.4830   81.8160  220.6690 C   0  0  0  0  0  0  0  0  0  0  0  0
  140.1130   82.6910  221.5210 C   0  0  0  0  0  0  0  0  0  0  0  0
  139.5310   83.8640  221.9260 F   0  0  0  0  0  0  0  0  0  0  0  0
  141.3890   82.3730  221.9880 C   0  0  0  0  0  0  0  0  0  0  0  0
  142.0270   81.2010  221.6110 C   0  0  0  0  0  0  0  0  0  0  0  0
  141.3870   80.3160  220.7490 C   0  0  0  0  0  0  0  0  0  0  0  0
  142.0070   79.1720  220.3810 N   0  0  0  0  0  0  0  0  0  0  0  0
  141.4370   77.5370  223.0760 C   0  0  0  0  0  0  0  0  0  0  0  0
  140.9180   78.7210  223.5990 C   0  0  0  0  0  0  0  0  0  0  0  0
  136.9770   79.4760  224.3000 H   0  0  0  0  0  0  0  0  0  0  0  0
  137.1970   80.9615  227.0026 H   0  0  0  0  0  0  0  0  0  0  0  0
  136.2305   83.1335  227.7574 H   0  0  0  0  0  0  0  0  0  0  0  0
  135.5653   84.8647  226.1511 H   0  0  0  0  0  0  0  0  0  0  0  0
  135.8366   84.4995  223.7000 H   0  0  0  0  0  0  0  0  0  0  0  0
  136.8098   82.3232  222.9259 H   0  0  0  0  0  0  0  0  0  0  0  0
  137.6767   78.3001  222.7570 H   0  0  0  0  0  0  0  0  0  0  0  0
  138.6154   76.2065  221.8353 H   0  0  0  0  0  0  0  0  0  0  0  0
  142.2090   75.2770  221.9560 H   0  0  0  0  0  0  0  0  0  0  0  0
  140.2353   73.5214  221.9492 H   0  0  0  0  0  0  0  0  0  0  0  0
  139.2409   74.8200  221.2678 H   0  0  0  0  0  0  0  0  0  0  0  0
  140.8607   75.0565  219.4080 H   0  0  0  0  0  0  0  0  0  0  0  0
  139.0497   72.8942  219.8027 H   0  0  0  0  0  0  0  0  0  0  0  0
  139.6148   73.5168  218.2540 H   0  0  0  0  0  0  0  0  0  0  0  0
  140.2380   70.9646  219.1708 H   0  0  0  0  0  0  0  0  0  0  0  0
  141.3159   71.7915  218.0920 H   0  0  0  0  0  0  0  0  0  0  0  0
  141.2741   71.8954  221.1998 H   0  0  0  0  0  0  0  0  0  0  0  0
  142.6292   71.3760  220.2328 H   0  0  0  0  0  0  0  0  0  0  0  0
  144.8143   75.4096  219.2205 H   0  0  0  0  0  0  0  0  0  0  0  0
  143.2935   75.2086  218.2314 H   0  0  0  0  0  0  0  0  0  0  0  0
  143.6430   77.1440  220.5130 H   0  0  0  0  0  0  0  0  0  0  0  0
  139.6386   77.9203  218.4083 H   0  0  0  0  0  0  0  0  0  0  0  0
  138.4528   80.0052  219.0503 H   0  0  0  0  0  0  0  0  0  0  0  0
  138.4772   82.0405  220.2843 H   0  0  0  0  0  0  0  0  0  0  0  0
  141.9003   83.0678  222.6706 H   0  0  0  0  0  0  0  0  0  0  0  0
  143.0335   80.9722  221.9913 H   0  0  0  0  0  0  0  0  0  0  0  0
  142.5133   77.3328  223.1759 H   0  0  0  0  0  0  0  0  0  0  0  0
  141.5868   79.4346  224.1024 H   0  0  0  0  0  0  0  0  0  0  0  0
  1  2  2  0
  2  3  1  0
  3  4  1  0
  4  5  2  0
  5  6  1  0
  6  7  2  0
  7  8  1  0
  8  9  2  0
  2 10  1  0
 10 11  2  0
 11 12  1  0
 12 13  2  0
 13 14  1  0
 14 15  1  0
 15 16  1  0
 16 17  1  0
 17 18  1  0
 18 19  1  0
 19 20  1  0
 20 21  1  0
 21 22  2  0
 21 23  1  0
 23 24  1  0
 24 25  1  0
 25 26  2  0
 25 27  1  0
 27 28  2  0
 28 29  1  0
 29 30  2  0
 30 31  1  0
 31 32  2  0
 32 33  1  0
 32 34  1  0
 34 35  2  0
 35 36  1  0
 36 37  2  0
 13 38  1  0
 38 39  2  0
  9  4  1  0
 39 10  1  0
 20 16  1  0
 37 27  1  0
 36 30  1  0
  3 40  1  0
  5 41  1  0
  6 42  1  0
  7 43  1  0
  8 44  1  0
  9 45  1  0
 11 46  1  0
 12 47  1  0
 14 48  1  0
 15 49  1  0
 15 50  1  0
 16 51  1  6
 17 52  1  0
 17 53  1  0
 18 54  1  0
 18 55  1  0
 19 56  1  0
 19 57  1  0
 23 58  1  0
 23 59  1  0
 24 60  1  0
 28 61  1  0
 29 62  1  0
 31 63  1  0
 34 64  1  0
 35 65  1  0
 38 66  1  0
 39 67  1  0
M  END
>  <smiles>  (28) 
O=C(Nc1ccccc1)c1ccc(NC[C@@H]2CCCN2C(=O)CNC(=O)c2ccc3cc(F)ccc3n2)cc1

>  <score_type>  (28) 
oracle

>  <origin>  (28) 
autodockgpu

>  <m_score__min__energy>  (28) 
-9.8599999999999994

>  <m_primary>  (28) 
energy

>  <rmsd>  (28) 
8.224177296549358

>  <m_score__min__rmsd>  (28) 
8.224177296549358

>  <meeko>  (28) 
{"free_energy": -6.69, "intermolecular_energy": -9.37, "internal_energy": -4.55, "cluster_size": 4, "cluster_id": 11, "rank_in_cluster": 3}

>  <energy>  (28) 
-7.22

>  <cluster_rmsd>  (28) 
1.76

>  <cluster>  (28) 
9

$$$$

     RDKit          3D

 67 71  0  0  0  0  0  0  0  0999 V2000
  138.9030   77.0930  222.4910 O   0  0  0  0  0  0  0  0  0  0  0  0
  139.8730   76.3430  222.2130 C   0  0  0  0  0  0  0  0  0  0  0  0
  141.1870   76.8710  222.1380 N   0  0  0  0  0  0  0  0  0  0  0  0
  141.4320   78.2700  222.3780 C   0  0  0  0  0  0  0  0  0  0  0  0
  141.7010   78.7410  223.6600 C   0  0  0  0  0  0  0  0  0  0  0  0
  141.9240   80.1020  223.7990 C   0  0  0  0  0  0  0  0  0  0  0  0
  141.8840   80.9660  222.7240 C   0  0  0  0  0  0  0  0  0  0  0  0
  141.6170   80.5040  221.4520 C   0  0  0  0  0  0  0  0  0  0  0  0
  141.3910   79.1330  221.3000 C   0  0  0  0  0  0  0  0  0  0  0  0
  139.5750   74.9320  221.9780 C   0  0  0  0  0  0  0  0  0  0  0  0
  140.6310   74.0690  221.7750 C   0  0  0  0  0  0  0  0  0  0  0  0
  140.3930   72.7170  221.5470 C   0  0  0  0  0  0  0  0  0  0  0  0
  139.1170   72.1870  221.5150 C   0  0  0  0  0  0  0  0  0  0  0  0
  138.8760   70.7990  221.2810 N   0  0  0  0  0  0  0  0  0  0  0  0
  139.9330   70.0020  220.6850 C   0  0  0  0  0  0  0  0  0  0  0  0
  139.4610   69.6570  219.2930 C   0  0  2  0  0  0  0  0  0  0  0  0
  139.3400   70.8670  218.4230 C   0  0  0  0  0  0  0  0  0  0  0  0
  137.8550   70.9790  218.1210 C   0  0  0  0  0  0  0  0  0  0  0  0
  137.2720   70.2460  219.3170 C   0  0  0  0  0  0  0  0  0  0  0  0
  138.0790   69.0690  219.3640 N   0  0  0  0  0  0  0  0  0  0  0  0
  137.8990   67.6900  219.4210 C   0  0  0  0  0  0  0  0  0  0  0  0
  137.8880   67.0880  218.2570 O   0  0  0  0  0  0  0  0  0  0  0  0
  137.7220   66.7630  220.5330 C   0  0  0  0  0  0  0  0  0  0  0  0
  138.4760   67.1210  221.6940 N   0  0  0  0  0  0  0  0  0  0  0  0
  137.8930   68.1660  222.5210 C   0  0  0  0  0  0  0  0  0  0  0  0
  136.8120   68.6220  222.1260 O   0  0  0  0  0  0  0  0  0  0  0  0
  138.5960   68.5950  223.7230 C   0  0  0  0  0  0  0  0  0  0  0  0
  138.6450   69.9480  223.9840 C   0  0  0  0  0  0  0  0  0  0  0  0
  139.2760   70.4880  225.0840 C   0  0  0  0  0  0  0  0  0  0  0  0
  139.8820   69.5760  225.9490 C   0  0  0  0  0  0  0  0  0  0  0  0
  140.5280   70.0830  227.0670 C   0  0  0  0  0  0  0  0  0  0  0  0
  141.1360   69.2150  227.9410 C   0  0  0  0  0  0  0  0  0  0  0  0
  141.7910   69.6480  229.0660 F   0  0  0  0  0  0  0  0  0  0  0  0
  141.0840   67.8470  227.6750 C   0  0  0  0  0  0  0  0  0  0  0  0
  140.4370   67.3510  226.5530 C   0  0  0  0  0  0  0  0  0  0  0  0
  139.8210   68.2320  225.6690 C   0  0  0  0  0  0  0  0  0  0  0  0
  139.1890   67.7500  224.5750 N   0  0  0  0  0  0  0  0  0  0  0  0
  138.0700   73.0690  221.7210 C   0  0  0  0  0  0  0  0  0  0  0  0
  138.2920   74.4270  221.9500 C   0  0  0  0  0  0  0  0  0  0  0  0
  141.9960   76.2540  221.9080 H   0  0  0  0  0  0  0  0  0  0  0  0
  141.7351   78.0626  224.5252 H   0  0  0  0  0  0  0  0  0  0  0  0
  142.1399   80.5064  224.7989 H   0  0  0  0  0  0  0  0  0  0  0  0
  142.0677   82.0387  222.8836 H   0  0  0  0  0  0  0  0  0  0  0  0
  141.5833   81.1877  220.5910 H   0  0  0  0  0  0  0  0  0  0  0  0
  141.1755   78.7319  220.2987 H   0  0  0  0  0  0  0  0  0  0  0  0
  141.6629   74.4497  221.7933 H   0  0  0  0  0  0  0  0  0  0  0  0
  141.2504   72.0468  221.3866 H   0  0  0  0  0  0  0  0  0  0  0  0
  137.9430   70.4210  221.5520 H   0  0  0  0  0  0  0  0  0  0  0  0
  140.8677   70.5801  220.6391 H   0  0  0  0  0  0  0  0  0  0  0  0
  140.1372   69.0973  221.2765 H   0  0  0  0  0  0  0  0  0  0  0  0
  140.2022   68.9597  218.8754 H   0  0  0  0  0  0  0  0  0  0  0  0
  139.6966   71.7627  218.9527 H   0  0  0  0  0  0  0  0  0  0  0  0
  139.9453   70.7837  217.5083 H   0  0  0  0  0  0  0  0  0  0  0  0
  137.5255   72.0280  218.0877 H   0  0  0  0  0  0  0  0  0  0  0  0
  137.5545   70.5728  217.1439 H   0  0  0  0  0  0  0  0  0  0  0  0
  137.3747   70.8384  220.2381 H   0  0  0  0  0  0  0  0  0  0  0  0
  136.1944   70.0426  219.2312 H   0  0  0  0  0  0  0  0  0  0  0  0
  136.6558   66.7407  220.8025 H   0  0  0  0  0  0  0  0  0  0  0  0
  138.0860   65.7803  220.1987 H   0  0  0  0  0  0  0  0  0  0  0  0
  139.3900   66.6860  221.9660 H   0  0  0  0  0  0  0  0  0  0  0  0
  138.1544   70.6329  223.2767 H   0  0  0  0  0  0  0  0  0  0  0  0
  139.3004   71.5721  225.2688 H   0  0  0  0  0  0  0  0  0  0  0  0
  140.5531   71.1671  227.2515 H   0  0  0  0  0  0  0  0  0  0  0  0
  141.5671   67.1454  228.3709 H   0  0  0  0  0  0  0  0  0  0  0  0
  140.4109   66.2679  226.3629 H   0  0  0  0  0  0  0  0  0  0  0  0
  137.0376   72.6896  221.7037 H   0  0  0  0  0  0  0  0  0  0  0  0
  137.4370   75.1004  222.1095 H   0  0  0  0  0  0  0  0  0  0  0  0
  1  2  2  0
  2  3  1  0
  3  4  1  0
  4  5  2  0
  5  6  1  0
  6  7  2  0
  7  8  1  0
  8  9  2  0
  2 10  1  0
 10 11  2  0
 11 12  1  0
 12 13  2  0
 13 14  1  0
 14 15  1  0
 15 16  1  0
 16 17  1  0
 17 18  1  0
 18 19  1  0
 19 20  1  0
 20 21  1  0
 21 22  2  0
 21 23  1  0
 23 24  1  0
 24 25  1  0
 25 26  2  0
 25 27  1  0
 27 28  2  0
 28 29  1  0
 29 30  2  0
 30 31  1  0
 31 32  2  0
 32 33  1  0
 32 34  1  0
 34 35  2  0
 35 36  1  0
 36 37  2  0
 13 38  1  0
 38 39  2  0
  9  4  1  0
 39 10  1  0
 20 16  1  0
 37 27  1  0
 36 30  1  0
  3 40  1  0
  5 41  1  0
  6 42  1  0
  7 43  1  0
  8 44  1  0
  9 45  1  0
 11 46  1  0
 12 47  1  0
 14 48  1  0
 15 49  1  0
 15 50  1  0
 16 51  1  6
 17 52  1  0
 17 53  1  0
 18 54  1  0
 18 55  1  0
 19 56  1  0
 19 57  1  0
 23 58  1  0
 23 59  1  0
 24 60  1  0
 28 61  1  0
 29 62  1  0
 31 63  1  0
 34 64  1  0
 35 65  1  0
 38 66  1  0
 39 67  1  0
M  END
>  <smiles>  (29) 
O=C(Nc1ccccc1)c1ccc(NC[C@@H]2CCCN2C(=O)CNC(=O)c2ccc3cc(F)ccc3n2)cc1

>  <score_type>  (29) 
oracle

>  <origin>  (29) 
autodockgpu

>  <m_score__min__energy>  (29) 
-9.8599999999999994

>  <m_primary>  (29) 
energy

>  <rmsd>  (29) 
4.188222770805984

>  <m_score__min__rmsd>  (29) 
4.188222770805984

>  <meeko>  (29) 
{"free_energy": -8.14, "intermolecular_energy": -10.83, "internal_energy": -2.98, "cluster_size": 9, "cluster_id": 5, "rank_in_cluster": 2}

>  <energy>  (29) 
-7.21

>  <cluster_rmsd>  (29) 
1.79

>  <cluster>  (29) 
9

$$$$

     RDKit          3D

 67 71  0  0  0  0  0  0  0  0999 V2000
  141.7680   76.1590  220.9590 O   0  0  0  0  0  0  0  0  0  0  0  0
  140.7620   75.9810  221.6930 C   0  0  0  0  0  0  0  0  0  0  0  0
  140.3470   76.9940  222.5940 N   0  0  0  0  0  0  0  0  0  0  0  0
  141.0660   78.2400  222.6830 C   0  0  0  0  0  0  0  0  0  0  0  0
  141.6890   78.6240  223.8660 C   0  0  0  0  0  0  0  0  0  0  0  0
  142.3590   79.8380  223.8620 C   0  0  0  0  0  0  0  0  0  0  0  0
  142.4150   80.6410  222.7420 C   0  0  0  0  0  0  0  0  0  0  0  0
  141.7980   80.2640  221.5670 C   0  0  0  0  0  0  0  0  0  0  0  0
  141.1200   79.0420  221.5590 C   0  0  0  0  0  0  0  0  0  0  0  0
  140.0660   74.7030  221.5670 C   0  0  0  0  0  0  0  0  0  0  0  0
  140.8140   73.5460  221.6280 C   0  0  0  0  0  0  0  0  0  0  0  0
  140.1910   72.3070  221.5130 C   0  0  0  0  0  0  0  0  0  0  0  0
  138.8270   72.1790  221.3360 C   0  0  0  0  0  0  0  0  0  0  0  0
  138.1920   70.9050  221.2170 N   0  0  0  0  0  0  0  0  0  0  0  0
  138.4710   70.0970  220.0440 C   0  0  0  0  0  0  0  0  0  0  0  0
  139.3210   68.9460  220.5220 C   0  0  2  0  0  0  0  0  0  0  0  0
  140.7760   69.1760  220.2710 C   0  0  0  0  0  0  0  0  0  0  0  0
  141.1680   68.1090  219.2640 C   0  0  0  0  0  0  0  0  0  0  0  0
  139.8250   67.8330  218.6120 C   0  0  0  0  0  0  0  0  0  0  0  0
  138.9670   67.7070  219.7470 N   0  0  0  0  0  0  0  0  0  0  0  0
  138.0310   66.8050  220.2430 C   0  0  0  0  0  0  0  0  0  0  0  0
  137.2670   66.2470  219.3340 O   0  0  0  0  0  0  0  0  0  0  0  0
  137.7240   66.3430  221.5920 C   0  0  0  0  0  0  0  0  0  0  0  0
  138.4970   66.9940  222.6030 N   0  0  0  0  0  0  0  0  0  0  0  0
  137.9390   68.2360  223.1140 C   0  0  0  0  0  0  0  0  0  0  0  0
  136.8600   68.5830  222.6190 O   0  0  0  0  0  0  0  0  0  0  0  0
  138.6630   68.9680  224.1460 C   0  0  0  0  0  0  0  0  0  0  0  0
  138.9740   70.2870  223.8910 C   0  0  0  0  0  0  0  0  0  0  0  0
  139.6550   71.0930  224.7780 C   0  0  0  0  0  0  0  0  0  0  0  0
  140.0270   70.4950  225.9840 C   0  0  0  0  0  0  0  0  0  0  0  0
  140.7140   71.2760  226.9020 C   0  0  0  0  0  0  0  0  0  0  0  0
  141.0970   70.7220  228.1000 C   0  0  0  0  0  0  0  0  0  0  0  0
  141.7780   71.4360  229.0520 F   0  0  0  0  0  0  0  0  0  0  0  0
  140.7800   69.3870  228.3540 C   0  0  0  0  0  0  0  0  0  0  0  0
  140.0940   68.6160  227.4280 C   0  0  0  0  0  0  0  0  0  0  0  0
  139.7070   69.1790  226.2160 C   0  0  0  0  0  0  0  0  0  0  0  0
  139.0370   68.4290  225.3120 N   0  0  0  0  0  0  0  0  0  0  0  0
  138.0940   73.3520  221.2760 C   0  0  0  0  0  0  0  0  0  0  0  0
  138.7010   74.6020  221.3910 C   0  0  0  0  0  0  0  0  0  0  0  0
  139.5140   76.8540  223.2060 H   0  0  0  0  0  0  0  0  0  0  0  0
  141.6517   77.9920  224.7656 H   0  0  0  0  0  0  0  0  0  0  0  0
  142.8620   80.1714  224.7817 H   0  0  0  0  0  0  0  0  0  0  0  0
  142.9594   81.5958  222.7862 H   0  0  0  0  0  0  0  0  0  0  0  0
  141.8382   80.9008  220.6709 H   0  0  0  0  0  0  0  0  0  0  0  0
  140.6183   78.7113  220.6377 H   0  0  0  0  0  0  0  0  0  0  0  0
  141.9036   73.6026  221.7676 H   0  0  0  0  0  0  0  0  0  0  0  0
  140.8067   71.3970  221.5649 H   0  0  0  0  0  0  0  0  0  0  0  0
  137.5510   70.6150  221.9870 H   0  0  0  0  0  0  0  0  0  0  0  0
  137.5337   69.7234  219.6060 H   0  0  0  0  0  0  0  0  0  0  0  0
  138.9854   70.6810  219.2666 H   0  0  0  0  0  0  0  0  0  0  0  0
  139.1324   68.8458  221.6011 H   0  0  0  0  0  0  0  0  0  0  0  0
  140.9438   70.1809  219.8562 H   0  0  0  0  0  0  0  0  0  0  0  0
  141.3717   69.1157  221.1938 H   0  0  0  0  0  0  0  0  0  0  0  0
  141.9017   68.4874  218.5370 H   0  0  0  0  0  0  0  0  0  0  0  0
  141.6545   67.2245  219.7010 H   0  0  0  0  0  0  0  0  0  0  0  0
  139.5145   68.6678  217.9664 H   0  0  0  0  0  0  0  0  0  0  0  0
  139.8233   66.9519  217.9534 H   0  0  0  0  0  0  0  0  0  0  0  0
  136.6588   66.5316  221.7915 H   0  0  0  0  0  0  0  0  0  0  0  0
  137.9705   65.2718  221.6331 H   0  0  0  0  0  0  0  0  0  0  0  0
  139.4100   66.6370  222.9760 H   0  0  0  0  0  0  0  0  0  0  0  0
  138.6621   70.7190  222.9287 H   0  0  0  0  0  0  0  0  0  0  0  0
  139.8910   72.1429  224.5499 H   0  0  0  0  0  0  0  0  0  0  0  0
  140.9494   72.3260  226.6738 H   0  0  0  0  0  0  0  0  0  0  0  0
  141.0813   68.9359  229.3109 H   0  0  0  0  0  0  0  0  0  0  0  0
  139.8571   67.5651  227.6504 H   0  0  0  0  0  0  0  0  0  0  0  0
  137.0046   73.2964  221.1339 H   0  0  0  0  0  0  0  0  0  0  0  0
  138.0877   75.5138  221.3411 H   0  0  0  0  0  0  0  0  0  0  0  0
  1  2  2  0
  2  3  1  0
  3  4  1  0
  4  5  2  0
  5  6  1  0
  6  7  2  0
  7  8  1  0
  8  9  2  0
  2 10  1  0
 10 11  2  0
 11 12  1  0
 12 13  2  0
 13 14  1  0
 14 15  1  0
 15 16  1  0
 16 17  1  0
 17 18  1  0
 18 19  1  0
 19 20  1  0
 20 21  1  0
 21 22  2  0
 21 23  1  0
 23 24  1  0
 24 25  1  0
 25 26  2  0
 25 27  1  0
 27 28  2  0
 28 29  1  0
 29 30  2  0
 30 31  1  0
 31 32  2  0
 32 33  1  0
 32 34  1  0
 34 35  2  0
 35 36  1  0
 36 37  2  0
 13 38  1  0
 38 39  2  0
  9  4  1  0
 39 10  1  0
 20 16  1  0
 37 27  1  0
 36 30  1  0
  3 40  1  0
  5 41  1  0
  6 42  1  0
  7 43  1  0
  8 44  1  0
  9 45  1  0
 11 46  1  0
 12 47  1  0
 14 48  1  0
 15 49  1  0
 15 50  1  0
 16 51  1  1
 17 52  1  0
 17 53  1  0
 18 54  1  0
 18 55  1  0
 19 56  1  0
 19 57  1  0
 23 58  1  0
 23 59  1  0
 24 60  1  0
 28 61  1  0
 29 62  1  0
 31 63  1  0
 34 64  1  0
 35 65  1  0
 38 66  1  0
 39 67  1  0
M  END
>  <smiles>  (30) 
O=C(Nc1ccccc1)c1ccc(NC[C@@H]2CCCN2C(=O)CNC(=O)c2ccc3cc(F)ccc3n2)cc1

>  <score_type>  (30) 
oracle

>  <origin>  (30) 
autodockgpu

>  <m_score__min__energy>  (30) 
-9.8599999999999994

>  <m_primary>  (30) 
energy

>  <rmsd>  (30) 
4.4244859414773625

>  <m_score__min__rmsd>  (30) 
4.4244859414773625

>  <meeko>  (30) 
{"free_energy": -7.98, "intermolecular_energy": -10.67, "internal_energy": -3.02, "cluster_size": 9, "cluster_id": 5, "rank_in_cluster": 5}

>  <energy>  (30) 
-7.72

>  <cluster_rmsd>  (30) 
0.0

>  <cluster>  (30) 
10

$$$$

     RDKit          3D

 67 71  0  0  0  0  0  0  0  0999 V2000
  139.5370   77.5950  221.3710 O   0  0  0  0  0  0  0  0  0  0  0  0
  140.3140   76.8070  221.9690 C   0  0  0  0  0  0  0  0  0  0  0  0
  141.2950   77.3090  222.8600 N   0  0  0  0  0  0  0  0  0  0  0  0
  141.4190   78.7250  223.0950 C   0  0  0  0  0  0  0  0  0  0  0  0
  142.6170   79.3900  222.8520 C   0  0  0  0  0  0  0  0  0  0  0  0
  142.6460   80.7530  223.1070 C   0  0  0  0  0  0  0  0  0  0  0  0
  141.5440   81.4340  223.5800 C   0  0  0  0  0  0  0  0  0  0  0  0
  140.3550   80.7790  223.8230 C   0  0  0  0  0  0  0  0  0  0  0  0
  140.3140   79.4050  223.5690 C   0  0  0  0  0  0  0  0  0  0  0  0
  140.1500   75.3800  221.6970 C   0  0  0  0  0  0  0  0  0  0  0  0
  138.9040   74.8210  221.8870 C   0  0  0  0  0  0  0  0  0  0  0  0
  138.7040   73.4660  221.6410 C   0  0  0  0  0  0  0  0  0  0  0  0
  139.7190   72.6370  221.2040 C   0  0  0  0  0  0  0  0  0  0  0  0
  139.5090   71.2460  220.9530 N   0  0  0  0  0  0  0  0  0  0  0  0
  140.6670   70.3790  220.8390 C   0  0  0  0  0  0  0  0  0  0  0  0
  140.3870   69.4570  219.6770 C   0  0  2  0  0  0  0  0  0  0  0  0
  141.2700   69.7420  218.5050 C   0  0  0  0  0  0  0  0  0  0  0  0
  140.3250   70.2260  217.4180 C   0  0  0  0  0  0  0  0  0  0  0  0
  139.1750   70.7470  218.2600 C   0  0  0  0  0  0  0  0  0  0  0  0
  138.9810   69.6800  219.1900 N   0  0  0  0  0  0  0  0  0  0  0  0
  137.9370   68.8880  219.6570 C   0  0  0  0  0  0  0  0  0  0  0  0
  137.5510   67.9440  218.8330 O   0  0  0  0  0  0  0  0  0  0  0  0
  137.1740   68.8930  220.8990 C   0  0  0  0  0  0  0  0  0  0  0  0
  137.9930   68.7940  222.0670 N   0  0  0  0  0  0  0  0  0  0  0  0
  137.9580   69.9450  222.9550 C   0  0  0  0  0  0  0  0  0  0  0  0
  137.2210   70.8740  222.6010 O   0  0  0  0  0  0  0  0  0  0  0  0
  138.7650   69.9310  224.1690 C   0  0  0  0  0  0  0  0  0  0  0  0
  139.2910   71.1310  224.5980 C   0  0  0  0  0  0  0  0  0  0  0  0
  140.0710   71.2580  225.7270 C   0  0  0  0  0  0  0  0  0  0  0  0
  140.3120   70.0820  226.4390 C   0  0  0  0  0  0  0  0  0  0  0  0
  141.0940   70.1720  227.5820 C   0  0  0  0  0  0  0  0  0  0  0  0
  141.3530   69.0340  228.3080 C   0  0  0  0  0  0  0  0  0  0  0  0
  142.1170   69.0510  229.4470 F   0  0  0  0  0  0  0  0  0  0  0  0
  140.8190   67.8220  227.8710 C   0  0  0  0  0  0  0  0  0  0  0  0
  140.0390   67.7440  226.7260 C   0  0  0  0  0  0  0  0  0  0  0  0
  139.7780   68.8970  225.9930 C   0  0  0  0  0  0  0  0  0  0  0  0
  139.0180   68.8230  224.8760 N   0  0  0  0  0  0  0  0  0  0  0  0
  140.9620   73.2170  221.0200 C   0  0  0  0  0  0  0  0  0  0  0  0
  141.1800   74.5720  221.2620 C   0  0  0  0  0  0  0  0  0  0  0  0
  141.9440   76.6620  223.3580 H   0  0  0  0  0  0  0  0  0  0  0  0
  143.5024   78.8578  222.4741 H   0  0  0  0  0  0  0  0  0  0  0  0
  143.5779   81.3087  222.9261 H   0  0  0  0  0  0  0  0  0  0  0  0
  141.6145   82.5158  223.7662 H   0  0  0  0  0  0  0  0  0  0  0  0
  139.4733   81.3167  224.2019 H   0  0  0  0  0  0  0  0  0  0  0  0
  139.3803   78.8526  223.7508 H   0  0  0  0  0  0  0  0  0  0  0  0
  138.0678   75.4463  222.2331 H   0  0  0  0  0  0  0  0  0  0  0  0
  137.7024   73.0400  221.8001 H   0  0  0  0  0  0  0  0  0  0  0  0
  138.5230   70.9180  220.8610 H   0  0  0  0  0  0  0  0  0  0  0  0
  141.5717   70.9739  220.6449 H   0  0  0  0  0  0  0  0  0  0  0  0
  140.8394   69.8146  221.7673 H   0  0  0  0  0  0  0  0  0  0  0  0
  140.5576   68.4332  220.0413 H   0  0  0  0  0  0  0  0  0  0  0  0
  142.0059   70.5208  218.7541 H   0  0  0  0  0  0  0  0  0  0  0  0
  141.8451   68.8578  218.1928 H   0  0  0  0  0  0  0  0  0  0  0  0
  140.7784   71.0243  216.8121 H   0  0  0  0  0  0  0  0  0  0  0  0
  140.0424   69.4585  216.6824 H   0  0  0  0  0  0  0  0  0  0  0  0
  139.4469   71.6808  218.7740 H   0  0  0  0  0  0  0  0  0  0  0  0
  138.2760   70.9966  217.6773 H   0  0  0  0  0  0  0  0  0  0  0  0
  136.6011   69.8305  220.9529 H   0  0  0  0  0  0  0  0  0  0  0  0
  136.5209   68.0080  220.8834 H   0  0  0  0  0  0  0  0  0  0  0  0
  138.5940   67.9680  222.3030 H   0  0  0  0  0  0  0  0  0  0  0  0
  139.0769   72.0345  224.0082 H   0  0  0  0  0  0  0  0  0  0  0  0
  140.4791   72.2278  226.0477 H   0  0  0  0  0  0  0  0  0  0  0  0
  141.5015   71.1420  227.9029 H   0  0  0  0  0  0  0  0  0  0  0  0
  141.0208   66.9070  228.4472 H   0  0  0  0  0  0  0  0  0  0  0  0
  139.6297   66.7764  226.4000 H   0  0  0  0  0  0  0  0  0  0  0  0
  141.7990   72.5927  220.6740 H   0  0  0  0  0  0  0  0  0  0  0  0
  142.1809   75.0005  221.1049 H   0  0  0  0  0  0  0  0  0  0  0  0
  1  2  2  0
  2  3  1  0
  3  4  1  0
  4  5  2  0
  5  6  1  0
  6  7  2  0
  7  8  1  0
  8  9  2  0
  2 10  1  0
 10 11  2  0
 11 12  1  0
 12 13  2  0
 13 14  1  0
 14 15  1  0
 15 16  1  0
 16 17  1  0
 17 18  1  0
 18 19  1  0
 19 20  1  0
 20 21  1  0
 21 22  2  0
 21 23  1  0
 23 24  1  0
 24 25  1  0
 25 26  2  0
 25 27  1  0
 27 28  2  0
 28 29  1  0
 29 30  2  0
 30 31  1  0
 31 32  2  0
 32 33  1  0
 32 34  1  0
 34 35  2  0
 35 36  1  0
 36 37  2  0
 13 38  1  0
 38 39  2  0
  9  4  1  0
 39 10  1  0
 20 16  1  0
 37 27  1  0
 36 30  1  0
  3 40  1  0
  5 41  1  0
  6 42  1  0
  7 43  1  0
  8 44  1  0
  9 45  1  0
 11 46  1  0
 12 47  1  0
 14 48  1  0
 15 49  1  0
 15 50  1  0
 16 51  1  1
 17 52  1  0
 17 53  1  0
 18 54  1  0
 18 55  1  0
 19 56  1  0
 19 57  1  0
 23 58  1  0
 23 59  1  0
 24 60  1  0
 28 61  1  0
 29 62  1  0
 31 63  1  0
 34 64  1  0
 35 65  1  0
 38 66  1  0
 39 67  1  0
M  END
>  <smiles>  (31) 
O=C(Nc1ccccc1)c1ccc(NC[C@@H]2CCCN2C(=O)CNC(=O)c2ccc3cc(F)ccc3n2)cc1

>  <score_type>  (31) 
oracle

>  <origin>  (31) 
autodockgpu

>  <m_score__min__energy>  (31) 
-9.8599999999999994

>  <m_primary>  (31) 
energy

>  <rmsd>  (31) 
4.034131685008734

>  <m_score__min__rmsd>  (31) 
4.034131685008734

>  <meeko>  (31) 
{"free_energy": -7.71, "intermolecular_energy": -10.39, "internal_energy": -3.17, "cluster_size": 9, "cluster_id": 5, "rank_in_cluster": 6}

>  <energy>  (31) 
-7.39

>  <cluster_rmsd>  (31) 
0.0

>  <cluster>  (31) 
11

$$$$

     RDKit          3D

 67 71  0  0  0  0  0  0  0  0999 V2000
  141.5080   81.4150  219.6280 O   0  0  0  0  0  0  0  0  0  0  0  0
  142.1480   80.5880  218.9290 C   0  0  0  0  0  0  0  0  0  0  0  0
  142.8640   81.0230  217.7850 N   0  0  0  0  0  0  0  0  0  0  0  0
  142.8700   82.4140  217.4060 C   0  0  0  0  0  0  0  0  0  0  0  0
  141.6800   83.1200  217.2540 C   0  0  0  0  0  0  0  0  0  0  0  0
  141.7800   84.4530  216.8870 C   0  0  0  0  0  0  0  0  0  0  0  0
  142.9970   85.0680  216.6780 C   0  0  0  0  0  0  0  0  0  0  0  0
  144.1790   84.3710  216.8280 C   0  0  0  0  0  0  0  0  0  0  0  0
  144.0910   83.0260  217.1980 C   0  0  0  0  0  0  0  0  0  0  0  0
  142.1120   79.1910  219.3530 C   0  0  0  0  0  0  0  0  0  0  0  0
  142.6800   78.2450  218.5260 C   0  0  0  0  0  0  0  0  0  0  0  0
  142.6680   76.9020  218.8910 C   0  0  0  0  0  0  0  0  0  0  0  0
  142.1000   76.4630  220.0710 C   0  0  0  0  0  0  0  0  0  0  0  0
  142.0890   75.0840  220.4430 N   0  0  0  0  0  0  0  0  0  0  0  0
  143.3270   74.3310  220.3530 C   0  0  0  0  0  0  0  0  0  0  0  0
  142.9460   72.8800  220.5190 C   0  0  2  0  0  0  0  0  0  0  0  0
  144.1350   72.0120  220.7810 C   0  0  0  0  0  0  0  0  0  0  0  0
  144.2240   71.1040  219.5650 C   0  0  0  0  0  0  0  0  0  0  0  0
  143.5130   71.9550  218.5290 C   0  0  0  0  0  0  0  0  0  0  0  0
  142.3450   72.3700  219.2380 N   0  0  0  0  0  0  0  0  0  0  0  0
  140.9670   72.3790  219.0510 C   0  0  0  0  0  0  0  0  0  0  0  0
  140.5740   72.0860  217.8350 O   0  0  0  0  0  0  0  0  0  0  0  0
  139.8500   72.6490  219.9500 C   0  0  0  0  0  0  0  0  0  0  0  0
  139.7970   71.7600  221.0690 N   0  0  0  0  0  0  0  0  0  0  0  0
  140.1170   72.3560  222.3570 C   0  0  0  0  0  0  0  0  0  0  0  0
  140.3950   73.5620  222.3350 O   0  0  0  0  0  0  0  0  0  0  0  0
  140.0900   71.5220  223.5510 C   0  0  0  0  0  0  0  0  0  0  0  0
  139.4830   70.2880  223.4520 C   0  0  0  0  0  0  0  0  0  0  0  0
  139.3880   69.4010  224.5030 C   0  0  0  0  0  0  0  0  0  0  0  0
  139.9500   69.8210  225.7100 C   0  0  0  0  0  0  0  0  0  0  0  0
  139.8730   68.9540  226.7900 C   0  0  0  0  0  0  0  0  0  0  0  0
  140.4160   69.3340  227.9940 C   0  0  0  0  0  0  0  0  0  0  0  0
  140.3750   68.5270  229.1020 F   0  0  0  0  0  0  0  0  0  0  0  0
  141.0300   70.5830  228.0900 C   0  0  0  0  0  0  0  0  0  0  0  0
  141.1000   71.4420  227.0030 C   0  0  0  0  0  0  0  0  0  0  0  0
  140.5500   71.0550  225.7850 C   0  0  0  0  0  0  0  0  0  0  0  0
  140.6180   71.8900  224.7240 N   0  0  0  0  0  0  0  0  0  0  0  0
  141.5340   77.4270  220.8870 C   0  0  0  0  0  0  0  0  0  0  0  0
  141.5370   78.7770  220.5370 C   0  0  0  0  0  0  0  0  0  0  0  0
  143.3970   80.3440  217.2000 H   0  0  0  0  0  0  0  0  0  0  0  0
  140.7033   82.6412  217.4179 H   0  0  0  0  0  0  0  0  0  0  0  0
  140.8585   85.0397  216.7582 H   0  0  0  0  0  0  0  0  0  0  0  0
  143.0259   86.1286  216.3877 H   0  0  0  0  0  0  0  0  0  0  0  0
  145.1527   84.8554  216.6627 H   0  0  0  0  0  0  0  0  0  0  0  0
  145.0142   82.4419  217.3264 H   0  0  0  0  0  0  0  0  0  0  0  0
  143.1431   78.5522  217.5767 H   0  0  0  0  0  0  0  0  0  0  0  0
  143.1269   76.1644  218.2162 H   0  0  0  0  0  0  0  0  0  0  0  0
  141.1820   74.6800  220.7620 H   0  0  0  0  0  0  0  0  0  0  0  0
  143.8015   74.4917  219.3737 H   0  0  0  0  0  0  0  0  0  0  0  0
  144.0476   74.6482  221.1212 H   0  0  0  0  0  0  0  0  0  0  0  0
  142.2471   72.8349  221.3672 H   0  0  0  0  0  0  0  0  0  0  0  0
  145.0460   72.6207  220.8783 H   0  0  0  0  0  0  0  0  0  0  0  0
  144.0382   71.4447  221.7184 H   0  0  0  0  0  0  0  0  0  0  0  0
  145.2684   70.9073  219.2811 H   0  0  0  0  0  0  0  0  0  0  0  0
  143.7921   70.1026  219.7091 H   0  0  0  0  0  0  0  0  0  0  0  0
  144.1270   72.8175  218.2304 H   0  0  0  0  0  0  0  0  0  0  0  0
  143.2971   71.4236  217.5904 H   0  0  0  0  0  0  0  0  0  0  0  0
  139.9454   73.6783  220.3260 H   0  0  0  0  0  0  0  0  0  0  0  0
  138.9248   72.5025  219.3733 H   0  0  0  0  0  0  0  0  0  0  0  0
  139.5520   70.7420  221.0090 H   0  0  0  0  0  0  0  0  0  0  0  0
  139.0517   69.9958  222.4832 H   0  0  0  0  0  0  0  0  0  0  0  0
  138.8989   68.4214  224.3970 H   0  0  0  0  0  0  0  0  0  0  0  0
  139.3835   67.9746  226.6841 H   0  0  0  0  0  0  0  0  0  0  0  0
  141.4687   70.8938  229.0497 H   0  0  0  0  0  0  0  0  0  0  0  0
  141.5873   72.4230  227.1034 H   0  0  0  0  0  0  0  0  0  0  0  0
  141.0698   77.1205  221.8360 H   0  0  0  0  0  0  0  0  0  0  0  0
  141.0779   79.5167  221.2094 H   0  0  0  0  0  0  0  0  0  0  0  0
  1  2  2  0
  2  3  1  0
  3  4  1  0
  4  5  2  0
  5  6  1  0
  6  7  2  0
  7  8  1  0
  8  9  2  0
  2 10  1  0
 10 11  2  0
 11 12  1  0
 12 13  2  0
 13 14  1  0
 14 15  1  0
 15 16  1  0
 16 17  1  0
 17 18  1  0
 18 19  1  0
 19 20  1  0
 20 21  1  0
 21 22  2  0
 21 23  1  0
 23 24  1  0
 24 25  1  0
 25 26  2  0
 25 27  1  0
 27 28  2  0
 28 29  1  0
 29 30  2  0
 30 31  1  0
 31 32  2  0
 32 33  1  0
 32 34  1  0
 34 35  2  0
 35 36  1  0
 36 37  2  0
 13 38  1  0
 38 39  2  0
  9  4  1  0
 39 10  1  0
 20 16  1  0
 37 27  1  0
 36 30  1  0
  3 40  1  0
  5 41  1  0
  6 42  1  0
  7 43  1  0
  8 44  1  0
  9 45  1  0
 11 46  1  0
 12 47  1  0
 14 48  1  0
 15 49  1  0
 15 50  1  0
 16 51  1  1
 17 52  1  0
 17 53  1  0
 18 54  1  0
 18 55  1  0
 19 56  1  0
 19 57  1  0
 23 58  1  0
 23 59  1  0
 24 60  1  0
 28 61  1  0
 29 62  1  0
 31 63  1  0
 34 64  1  0
 35 65  1  0
 38 66  1  0
 39 67  1  0
M  END
>  <smiles>  (32) 
O=C(Nc1ccccc1)c1ccc(NC[C@@H]2CCCN2C(=O)CNC(=O)c2ccc3cc(F)ccc3n2)cc1

>  <score_type>  (32) 
oracle

>  <origin>  (32) 
autodockgpu

>  <m_score__min__energy>  (32) 
-9.8599999999999994

>  <m_primary>  (32) 
energy

>  <rmsd>  (32) 
4.547614714607998

>  <m_score__min__rmsd>  (32) 
4.547614714607998

>  <meeko>  (32) 
{"free_energy": -8.91, "intermolecular_energy": -11.59, "internal_energy": -2.7, "cluster_size": 3, "cluster_id": 4, "rank_in_cluster": 1}

>  <energy>  (32) 
-6.82

>  <cluster_rmsd>  (32) 
1.38

>  <cluster>  (32) 
11

$$$$

     RDKit          3D

 67 71  0  0  0  0  0  0  0  0999 V2000
  140.0680   70.4570  222.5090 O   0  0  0  0  0  0  0  0  0  0  0  0
  139.9650   71.5390  223.1410 C   0  0  0  0  0  0  0  0  0  0  0  0
  139.9530   71.5410  224.5580 N   0  0  0  0  0  0  0  0  0  0  0  0
  140.0590   70.3080  225.2960 C   0  0  0  0  0  0  0  0  0  0  0  0
  141.0570   70.1260  226.2480 C   0  0  0  0  0  0  0  0  0  0  0  0
  141.0850   68.9080  226.9100 C   0  0  0  0  0  0  0  0  0  0  0  0
  140.1700   67.9100  226.6480 C   0  0  0  0  0  0  0  0  0  0  0  0
  139.1790   68.0850  225.7040 C   0  0  0  0  0  0  0  0  0  0  0  0
  139.1410   69.3100  225.0310 C   0  0  0  0  0  0  0  0  0  0  0  0
  139.8600   72.7630  222.3490 C   0  0  0  0  0  0  0  0  0  0  0  0
  138.6010   73.2340  222.0430 C   0  0  0  0  0  0  0  0  0  0  0  0
  138.4560   74.3960  221.2910 C   0  0  0  0  0  0  0  0  0  0  0  0
  139.5390   75.1160  220.8270 C   0  0  0  0  0  0  0  0  0  0  0  0
  139.3860   76.3080  220.0550 N   0  0  0  0  0  0  0  0  0  0  0  0
  138.6840   77.4330  220.6470 C   0  0  0  0  0  0  0  0  0  0  0  0
  139.5630   77.9320  221.7670 C   0  0  2  0  0  0  0  0  0  0  0  0
  138.8490   77.9480  223.0800 C   0  0  0  0  0  0  0  0  0  0  0  0
  138.7650   79.4190  223.4560 C   0  0  0  0  0  0  0  0  0  0  0  0
  138.8550   80.0620  222.0840 C   0  0  0  0  0  0  0  0  0  0  0  0
  139.9520   79.3600  221.4990 N   0  0  0  0  0  0  0  0  0  0  0  0
  141.1490   79.6580  220.8550 C   0  0  0  0  0  0  0  0  0  0  0  0
  141.9300   80.4900  221.5010 O   0  0  0  0  0  0  0  0  0  0  0  0
  141.7240   79.2210  219.5880 C   0  0  0  0  0  0  0  0  0  0  0  0
  142.5150   78.0350  219.7050 N   0  0  0  0  0  0  0  0  0  0  0  0
  142.2210   76.9890  218.7370 C   0  0  0  0  0  0  0  0  0  0  0  0
  141.3240   77.2480  217.9240 O   0  0  0  0  0  0  0  0  0  0  0  0
  142.9770   75.7450  218.7850 C   0  0  0  0  0  0  0  0  0  0  0  0
  142.8390   74.8750  217.7240 C   0  0  0  0  0  0  0  0  0  0  0  0
  143.4960   73.6660  217.6420 C   0  0  0  0  0  0  0  0  0  0  0  0
  144.3330   73.3520  218.7140 C   0  0  0  0  0  0  0  0  0  0  0  0
  145.0110   72.1420  218.6650 C   0  0  0  0  0  0  0  0  0  0  0  0
  145.8440   71.7990  219.7030 C   0  0  0  0  0  0  0  0  0  0  0  0
  146.5440   70.6190  219.7200 F   0  0  0  0  0  0  0  0  0  0  0  0
  145.9820   72.6820  220.7740 C   0  0  0  0  0  0  0  0  0  0  0  0
  145.2980   73.8880  220.8120 C   0  0  0  0  0  0  0  0  0  0  0  0
  144.4560   74.2330  219.7600 C   0  0  0  0  0  0  0  0  0  0  0  0
  143.7890   75.4090  219.7950 N   0  0  0  0  0  0  0  0  0  0  0  0
  140.7950   74.6270  221.1440 C   0  0  0  0  0  0  0  0  0  0  0  0
  140.9590   73.4640  221.8960 C   0  0  0  0  0  0  0  0  0  0  0  0
  139.8680   72.4350  225.0890 H   0  0  0  0  0  0  0  0  0  0  0  0
  141.7923   70.9145  226.4662 H   0  0  0  0  0  0  0  0  0  0  0  0
  141.8620   68.7321  227.6685 H   0  0  0  0  0  0  0  0  0  0  0  0
  140.2311   66.9604  227.1998 H   0  0  0  0  0  0  0  0  0  0  0  0
  138.4476   67.2919  225.4893 H   0  0  0  0  0  0  0  0  0  0  0  0
  138.3626   69.4831  224.2733 H   0  0  0  0  0  0  0  0  0  0  0  0
  137.7107   72.6912  222.3934 H   0  0  0  0  0  0  0  0  0  0  0  0
  137.4422   74.7537  221.0579 H   0  0  0  0  0  0  0  0  0  0  0  0
  139.7890   76.3130  219.0930 H   0  0  0  0  0  0  0  0  0  0  0  0
  138.5325   78.2250  219.8988 H   0  0  0  0  0  0  0  0  0  0  0  0
  137.6909   77.1377  221.0166 H   0  0  0  0  0  0  0  0  0  0  0  0
  140.4275   77.2534  221.8124 H   0  0  0  0  0  0  0  0  0  0  0  0
  137.8427   77.5152  222.9796 H   0  0  0  0  0  0  0  0  0  0  0  0
  139.3698   77.3523  223.8441 H   0  0  0  0  0  0  0  0  0  0  0  0
  137.8136   79.6569  223.9542 H   0  0  0  0  0  0  0  0  0  0  0  0
  139.5321   79.7537  224.1698 H   0  0  0  0  0  0  0  0  0  0  0  0
  137.9299   79.9084  221.5091 H   0  0  0  0  0  0  0  0  0  0  0  0
  138.9915   81.1531  222.1135 H   0  0  0  0  0  0  0  0  0  0  0  0
  140.9040   79.0255  218.8814 H   0  0  0  0  0  0  0  0  0  0  0  0
  142.3899   80.0237  219.2382 H   0  0  0  0  0  0  0  0  0  0  0  0
  143.2630   77.8870  220.4240 H   0  0  0  0  0  0  0  0  0  0  0  0
  142.1693   75.1609  216.8996 H   0  0  0  0  0  0  0  0  0  0  0  0
  143.3684   72.9897  216.7839 H   0  0  0  0  0  0  0  0  0  0  0  0
  144.8833   71.4662  217.8065 H   0  0  0  0  0  0  0  0  0  0  0  0
  146.6486   72.4157  221.6075 H   0  0  0  0  0  0  0  0  0  0  0  0
  145.4206   74.5672  221.6685 H   0  0  0  0  0  0  0  0  0  0  0  0
  141.6857   75.1694  220.7940 H   0  0  0  0  0  0  0  0  0  0  0  0
  141.9714   73.1029  222.1297 H   0  0  0  0  0  0  0  0  0  0  0  0
  1  2  2  0
  2  3  1  0
  3  4  1  0
  4  5  2  0
  5  6  1  0
  6  7  2  0
  7  8  1  0
  8  9  2  0
  2 10  1  0
 10 11  2  0
 11 12  1  0
 12 13  2  0
 13 14  1  0
 14 15  1  0
 15 16  1  0
 16 17  1  0
 17 18  1  0
 18 19  1  0
 19 20  1  0
 20 21  1  0
 21 22  2  0
 21 23  1  0
 23 24  1  0
 24 25  1  0
 25 26  2  0
 25 27  1  0
 27 28  2  0
 28 29  1  0
 29 30  2  0
 30 31  1  0
 31 32  2  0
 32 33  1  0
 32 34  1  0
 34 35  2  0
 35 36  1  0
 36 37  2  0
 13 38  1  0
 38 39  2  0
  9  4  1  0
 39 10  1  0
 20 16  1  0
 37 27  1  0
 36 30  1  0
  3 40  1  0
  5 41  1  0
  6 42  1  0
  7 43  1  0
  8 44  1  0
  9 45  1  0
 11 46  1  0
 12 47  1  0
 14 48  1  0
 15 49  1  0
 15 50  1  0
 16 51  1  1
 17 52  1  0
 17 53  1  0
 18 54  1  0
 18 55  1  0
 19 56  1  0
 19 57  1  0
 23 58  1  0
 23 59  1  0
 24 60  1  0
 28 61  1  0
 29 62  1  0
 31 63  1  0
 34 64  1  0
 35 65  1  0
 38 66  1  0
 39 67  1  0
M  END
>  <smiles>  (33) 
O=C(Nc1ccccc1)c1ccc(NC[C@@H]2CCCN2C(=O)CNC(=O)c2ccc3cc(F)ccc3n2)cc1

>  <score_type>  (33) 
oracle

>  <origin>  (33) 
autodockgpu

>  <m_score__min__energy>  (33) 
-9.8599999999999994

>  <m_primary>  (33) 
energy

>  <rmsd>  (33) 
9.77100182825085

>  <m_score__min__rmsd>  (33) 
9.77100182825085

>  <meeko>  (33) 
{"free_energy": -7.72, "intermolecular_energy": -10.4, "internal_energy": -3.59, "cluster_size": 1, "cluster_id": 10, "rank_in_cluster": 1}

>  <energy>  (33) 
-6.69

>  <cluster_rmsd>  (33) 
1.13

>  <cluster>  (33) 
11

$$$$

     RDKit          3D

 67 71  0  0  0  0  0  0  0  0999 V2000
  146.2920   71.4270  219.4020 O   0  0  0  0  0  0  0  0  0  0  0  0
  145.0460   71.5190  219.2520 C   0  0  0  0  0  0  0  0  0  0  0  0
  144.2760   70.3670  218.9530 N   0  0  0  0  0  0  0  0  0  0  0  0
  144.9050   69.0770  218.8180 C   0  0  0  0  0  0  0  0  0  0  0  0
  144.8110   68.1250  219.8290 C   0  0  0  0  0  0  0  0  0  0  0  0
  145.4470   66.9110  219.6140 C   0  0  0  0  0  0  0  0  0  0  0  0
  146.1440   66.6440  218.4540 C   0  0  0  0  0  0  0  0  0  0  0  0
  146.2390   67.5840  217.4500 C   0  0  0  0  0  0  0  0  0  0  0  0
  145.6030   68.8120  217.6550 C   0  0  0  0  0  0  0  0  0  0  0  0
  144.4560   72.8470  219.3990 C   0  0  0  0  0  0  0  0  0  0  0  0
  144.0630   73.2480  220.6580 C   0  0  0  0  0  0  0  0  0  0  0  0
  143.4960   74.5050  220.8440 C   0  0  0  0  0  0  0  0  0  0  0  0
  143.3030   75.3900  219.8010 C   0  0  0  0  0  0  0  0  0  0  0  0
  142.7200   76.6800  219.9950 N   0  0  0  0  0  0  0  0  0  0  0  0
  141.3360   76.7580  220.4240 C   0  0  0  0  0  0  0  0  0  0  0  0
  140.6020   75.6790  219.6650 C   0  0  2  0  0  0  0  0  0  0  0  0
  140.2540   76.1030  218.2750 C   0  0  0  0  0  0  0  0  0  0  0  0
  138.7350   76.1480  218.2540 C   0  0  0  0  0  0  0  0  0  0  0  0
  138.4420   76.3650  219.7280 C   0  0  0  0  0  0  0  0  0  0  0  0
  139.2900   75.3940  220.3440 N   0  0  0  0  0  0  0  0  0  0  0  0
  139.1840   74.3670  221.2760 C   0  0  0  0  0  0  0  0  0  0  0  0
  140.0100   74.4550  222.2900 O   0  0  0  0  0  0  0  0  0  0  0  0
  138.3220   73.1930  221.3570 C   0  0  0  0  0  0  0  0  0  0  0  0
  138.4460   72.4850  222.5940 N   0  0  0  0  0  0  0  0  0  0  0  0
  139.4600   71.4430  222.6180 C   0  0  0  0  0  0  0  0  0  0  0  0
  140.0990   71.2920  221.5700 O   0  0  0  0  0  0  0  0  0  0  0  0
  139.6530   70.6690  223.8380 C   0  0  0  0  0  0  0  0  0  0  0  0
  139.2250   69.3580  223.8340 C   0  0  0  0  0  0  0  0  0  0  0  0
  139.3460   68.5160  224.9190 C   0  0  0  0  0  0  0  0  0  0  0  0
  139.9390   69.0670  226.0560 C   0  0  0  0  0  0  0  0  0  0  0  0
  140.0780   68.2480  227.1680 C   0  0  0  0  0  0  0  0  0  0  0  0
  140.6570   68.7560  228.3060 C   0  0  0  0  0  0  0  0  0  0  0  0
  140.8250   68.0030  229.4400 F   0  0  0  0  0  0  0  0  0  0  0  0
  141.0890   70.0820  228.3050 C   0  0  0  0  0  0  0  0  0  0  0  0
  140.9440   70.8910  227.1880 C   0  0  0  0  0  0  0  0  0  0  0  0
  140.3580   70.3750  226.0370 C   0  0  0  0  0  0  0  0  0  0  0  0
  140.2160   71.1620  224.9470 N   0  0  0  0  0  0  0  0  0  0  0  0
  143.7030   74.9690  218.5440 C   0  0  0  0  0  0  0  0  0  0  0  0
  144.2730   73.7130  218.3400 C   0  0  0  0  0  0  0  0  0  0  0  0
  143.2430   70.4350  218.8270 H   0  0  0  0  0  0  0  0  0  0  0  0
  144.2568   68.3264  220.7576 H   0  0  0  0  0  0  0  0  0  0  0  0
  145.3938   66.1366  220.3934 H   0  0  0  0  0  0  0  0  0  0  0  0
  146.6315   65.6660  218.3281 H   0  0  0  0  0  0  0  0  0  0  0  0
  146.7939   67.3758  216.5233 H   0  0  0  0  0  0  0  0  0  0  0  0
  145.6594   69.5841  216.8736 H   0  0  0  0  0  0  0  0  0  0  0  0
  144.1978   72.5736  221.5165 H   0  0  0  0  0  0  0  0  0  0  0  0
  143.1906   74.8046  221.8574 H   0  0  0  0  0  0  0  0  0  0  0  0
  143.3240   77.5110  219.8170 H   0  0  0  0  0  0  0  0  0  0  0  0
  141.2613   76.5813  221.5071 H   0  0  0  0  0  0  0  0  0  0  0  0
  140.9085   77.7518  220.2248 H   0  0  0  0  0  0  0  0  0  0  0  0
  141.2700   74.8055  219.6392 H   0  0  0  0  0  0  0  0  0  0  0  0
  140.6745   77.0955  218.0555 H   0  0  0  0  0  0  0  0  0  0  0  0
  140.6605   75.4175  217.5168 H   0  0  0  0  0  0  0  0  0  0  0  0
  138.3622   76.9806  217.6394 H   0  0  0  0  0  0  0  0  0  0  0  0
  138.2569   75.2582  217.8186 H   0  0  0  0  0  0  0  0  0  0  0  0
  138.7076   77.3850  220.0426 H   0  0  0  0  0  0  0  0  0  0  0  0
  137.3792   76.2567  219.9902 H   0  0  0  0  0  0  0  0  0  0  0  0
  137.2773   73.5183  221.2439 H   0  0  0  0  0  0  0  0  0  0  0  0
  138.6308   72.5058  220.5555 H   0  0  0  0  0  0  0  0  0  0  0  0
  137.8640   72.6710  223.4460 H   0  0  0  0  0  0  0  0  0  0  0  0
  138.7629   68.9634  222.9171 H   0  0  0  0  0  0  0  0  0  0  0  0
  138.9964   67.4734  224.8903 H   0  0  0  0  0  0  0  0  0  0  0  0
  139.7290   67.2052  227.1387 H   0  0  0  0  0  0  0  0  0  0  0  0
  141.5556   70.4958  229.2112 H   0  0  0  0  0  0  0  0  0  0  0  0
  141.2904   71.9347  227.2122 H   0  0  0  0  0  0  0  0  0  0  0  0
  143.5677   75.6424  217.6848 H   0  0  0  0  0  0  0  0  0  0  0  0
  144.5790   73.4101  217.3278 H   0  0  0  0  0  0  0  0  0  0  0  0
  1  2  2  0
  2  3  1  0
  3  4  1  0
  4  5  2  0
  5  6  1  0
  6  7  2  0
  7  8  1  0
  8  9  2  0
  2 10  1  0
 10 11  2  0
 11 12  1  0
 12 13  2  0
 13 14  1  0
 14 15  1  0
 15 16  1  0
 16 17  1  0
 17 18  1  0
 18 19  1  0
 19 20  1  0
 20 21  1  0
 21 22  2  0
 21 23  1  0
 23 24  1  0
 24 25  1  0
 25 26  2  0
 25 27  1  0
 27 28  2  0
 28 29  1  0
 29 30  2  0
 30 31  1  0
 31 32  2  0
 32 33  1  0
 32 34  1  0
 34 35  2  0
 35 36  1  0
 36 37  2  0
 13 38  1  0
 38 39  2  0
  9  4  1  0
 39 10  1  0
 20 16  1  0
 37 27  1  0
 36 30  1  0
  3 40  1  0
  5 41  1  0
  6 42  1  0
  7 43  1  0
  8 44  1  0
  9 45  1  0
 11 46  1  0
 12 47  1  0
 14 48  1  0
 15 49  1  0
 15 50  1  0
 16 51  1  6
 17 52  1  0
 17 53  1  0
 18 54  1  0
 18 55  1  0
 19 56  1  0
 19 57  1  0
 23 58  1  0
 23 59  1  0
 24 60  1  0
 28 61  1  0
 29 62  1  0
 31 63  1  0
 34 64  1  0
 35 65  1  0
 38 66  1  0
 39 67  1  0
M  END
>  <smiles>  (34) 
O=C(Nc1ccccc1)c1ccc(NC[C@@H]2CCCN2C(=O)CNC(=O)c2ccc3cc(F)ccc3n2)cc1

>  <score_type>  (34) 
oracle

>  <origin>  (34) 
autodockgpu

>  <m_score__min__energy>  (34) 
-9.8599999999999994

>  <m_primary>  (34) 
energy

>  <rmsd>  (34) 
8.740416067553525

>  <m_score__min__rmsd>  (34) 
8.740416067553525

>  <meeko>  (34) 
{"free_energy": -9.78, "intermolecular_energy": -12.46, "internal_energy": -2.07, "cluster_size": 7, "cluster_id": 1, "rank_in_cluster": 3}

>  <energy>  (34) 
-5.88

>  <cluster_rmsd>  (34) 
1.62

>  <cluster>  (34) 
11

$$$$

     RDKit          3D

 67 71  0  0  0  0  0  0  0  0999 V2000
  139.9270   77.8760  219.7030 O   0  0  0  0  0  0  0  0  0  0  0  0
  141.0900   77.4170  219.8370 C   0  0  0  0  0  0  0  0  0  0  0  0
  142.2150   78.2710  219.7130 N   0  0  0  0  0  0  0  0  0  0  0  0
  142.0450   79.6740  219.4310 C   0  0  0  0  0  0  0  0  0  0  0  0
  141.4210   80.5180  220.3450 C   0  0  0  0  0  0  0  0  0  0  0  0
  141.3000   81.8530  219.9910 C   0  0  0  0  0  0  0  0  0  0  0  0
  141.7730   82.3400  218.7900 C   0  0  0  0  0  0  0  0  0  0  0  0
  142.3930   81.5070  217.8810 C   0  0  0  0  0  0  0  0  0  0  0  0
  142.5200   80.1580  218.2270 C   0  0  0  0  0  0  0  0  0  0  0  0
  141.2110   75.9890  220.1220 C   0  0  0  0  0  0  0  0  0  0  0  0
  141.2020   75.1110  219.0590 C   0  0  0  0  0  0  0  0  0  0  0  0
  141.3150   73.7420  219.2860 C   0  0  0  0  0  0  0  0  0  0  0  0
  141.4380   73.2110  220.5550 C   0  0  0  0  0  0  0  0  0  0  0  0
  141.5530   71.8050  220.7830 N   0  0  0  0  0  0  0  0  0  0  0  0
  140.3470   71.0450  221.0530 C   0  0  0  0  0  0  0  0  0  0  0  0
  139.5090   71.9020  221.9700 C   0  0  2  0  0  0  0  0  0  0  0  0
  139.2160   71.2210  223.2680 C   0  0  0  0  0  0  0  0  0  0  0  0
  137.7110   71.0140  223.2650 C   0  0  0  0  0  0  0  0  0  0  0  0
  137.4330   71.0140  221.7720 C   0  0  0  0  0  0  0  0  0  0  0  0
  138.1700   72.1550  221.3340 N   0  0  0  0  0  0  0  0  0  0  0  0
  137.9500   73.3050  220.5820 C   0  0  0  0  0  0  0  0  0  0  0  0
  138.5340   73.3160  219.4080 O   0  0  0  0  0  0  0  0  0  0  0  0
  137.1850   74.5210  220.8380 C   0  0  0  0  0  0  0  0  0  0  0  0
  138.0070   75.6640  221.0870 N   0  0  0  0  0  0  0  0  0  0  0  0
  137.7730   76.3390  222.3530 C   0  0  0  0  0  0  0  0  0  0  0  0
  136.8930   75.8450  223.0700 O   0  0  0  0  0  0  0  0  0  0  0  0
  138.5650   77.5160  222.6880 C   0  0  0  0  0  0  0  0  0  0  0  0
  137.8900   78.7010  222.8910 C   0  0  0  0  0  0  0  0  0  0  0  0
  138.5150   79.8860  223.2130 C   0  0  0  0  0  0  0  0  0  0  0  0
  139.9050   79.8320  223.3260 C   0  0  0  0  0  0  0  0  0  0  0  0
  140.5690   81.0080  223.6480 C   0  0  0  0  0  0  0  0  0  0  0  0
  141.9370   80.9930  223.7690 C   0  0  0  0  0  0  0  0  0  0  0  0
  142.6560   82.1170  224.0850 F   0  0  0  0  0  0  0  0  0  0  0  0
  142.6170   79.7920  223.5630 C   0  0  0  0  0  0  0  0  0  0  0  0
  141.9430   78.6240  223.2400 C   0  0  0  0  0  0  0  0  0  0  0  0
  140.5570   78.6410  223.1190 C   0  0  0  0  0  0  0  0  0  0  0  0
  139.8980   77.5030  222.8050 N   0  0  0  0  0  0  0  0  0  0  0  0
  141.4440   74.1090  221.6090 C   0  0  0  0  0  0  0  0  0  0  0  0
  141.3320   75.4830  221.4000 C   0  0  0  0  0  0  0  0  0  0  0  0
  143.1820   77.8970  219.8230 H   0  0  0  0  0  0  0  0  0  0  0  0
  141.0405   80.1423  221.3063 H   0  0  0  0  0  0  0  0  0  0  0  0
  140.8108   82.5466  220.6907 H   0  0  0  0  0  0  0  0  0  0  0  0
  141.6542   83.4077  218.5535 H   0  0  0  0  0  0  0  0  0  0  0  0
  142.7724   81.8892  216.9219 H   0  0  0  0  0  0  0  0  0  0  0  0
  143.0090   79.4666  217.5250 H   0  0  0  0  0  0  0  0  0  0  0  0
  141.1055   75.4921  218.0316 H   0  0  0  0  0  0  0  0  0  0  0  0
  141.3060   73.0589  218.4238 H   0  0  0  0  0  0  0  0  0  0  0  0
  142.5090   71.3890  220.7450 H   0  0  0  0  0  0  0  0  0  0  0  0
  139.8049   70.8439  220.1172 H   0  0  0  0  0  0  0  0  0  0  0  0
  140.5790   70.0727  221.5121 H   0  0  0  0  0  0  0  0  0  0  0  0
  140.0820   72.8245  222.1450 H   0  0  0  0  0  0  0  0  0  0  0  0
  139.7400   70.2556  223.3263 H   0  0  0  0  0  0  0  0  0  0  0  0
  139.5527   71.8117  224.1327 H   0  0  0  0  0  0  0  0  0  0  0  0
  137.4321   70.0568  223.7297 H   0  0  0  0  0  0  0  0  0  0  0  0
  137.1446   71.7643  223.8361 H   0  0  0  0  0  0  0  0  0  0  0  0
  137.8018   70.0931  221.2966 H   0  0  0  0  0  0  0  0  0  0  0  0
  136.3630   71.0530  221.5197 H   0  0  0  0  0  0  0  0  0  0  0  0
  136.5550   74.7285  219.9605 H   0  0  0  0  0  0  0  0  0  0  0  0
  136.5876   74.3454  221.7448 H   0  0  0  0  0  0  0  0  0  0  0  0
  138.7380   76.0260  220.4270 H   0  0  0  0  0  0  0  0  0  0  0  0
  136.7946   78.7003  222.7906 H   0  0  0  0  0  0  0  0  0  0  0  0
  137.9526   80.8180  223.3714 H   0  0  0  0  0  0  0  0  0  0  0  0
  140.0064   81.9402  223.8043 H   0  0  0  0  0  0  0  0  0  0  0  0
  143.7126   79.7713  223.6590 H   0  0  0  0  0  0  0  0  0  0  0  0
  142.5008   77.6895  223.0804 H   0  0  0  0  0  0  0  0  0  0  0  0
  141.5395   73.7289  222.6368 H   0  0  0  0  0  0  0  0  0  0  0  0
  141.3402   76.1686  222.2602 H   0  0  0  0  0  0  0  0  0  0  0  0
  1  2  2  0
  2  3  1  0
  3  4  1  0
  4  5  2  0
  5  6  1  0
  6  7  2  0
  7  8  1  0
  8  9  2  0
  2 10  1  0
 10 11  2  0
 11 12  1  0
 12 13  2  0
 13 14  1  0
 14 15  1  0
 15 16  1  0
 16 17  1  0
 17 18  1  0
 18 19  1  0
 19 20  1  0
 20 21  1  0
 21 22  2  0
 21 23  1  0
 23 24  1  0
 24 25  1  0
 25 26  2  0
 25 27  1  0
 27 28  2  0
 28 29  1  0
 29 30  2  0
 30 31  1  0
 31 32  2  0
 32 33  1  0
 32 34  1  0
 34 35  2  0
 35 36  1  0
 36 37  2  0
 13 38  1  0
 38 39  2  0
  9  4  1  0
 39 10  1  0
 20 16  1  0
 37 27  1  0
 36 30  1  0
  3 40  1  0
  5 41  1  0
  6 42  1  0
  7 43  1  0
  8 44  1  0
  9 45  1  0
 11 46  1  0
 12 47  1  0
 14 48  1  0
 15 49  1  0
 15 50  1  0
 16 51  1  1
 17 52  1  0
 17 53  1  0
 18 54  1  0
 18 55  1  0
 19 56  1  0
 19 57  1  0
 23 58  1  0
 23 59  1  0
 24 60  1  0
 28 61  1  0
 29 62  1  0
 31 63  1  0
 34 64  1  0
 35 65  1  0
 38 66  1  0
 39 67  1  0
M  END
>  <smiles>  (35) 
O=C(Nc1ccccc1)c1ccc(NC[C@@H]2CCCN2C(=O)CNC(=O)c2ccc3cc(F)ccc3n2)cc1

>  <score_type>  (35) 
oracle

>  <origin>  (35) 
autodockgpu

>  <m_score__min__energy>  (35) 
-9.8599999999999994

>  <m_primary>  (35) 
energy

>  <rmsd>  (35) 
6.129415287309942

>  <m_score__min__rmsd>  (35) 
6.129415287309942

>  <meeko>  (35) 
{"free_energy": -6.19, "intermolecular_energy": -8.87, "internal_energy": -4.61, "cluster_size": 3, "cluster_id": 15, "rank_in_cluster": 2}

>  <energy>  (35) 
-7.27

>  <cluster_rmsd>  (35) 
0.0

>  <cluster>  (35) 
12

$$$$

     RDKit          3D

 67 71  0  0  0  0  0  0  0  0999 V2000
  139.7040   80.6340  223.9450 O   0  0  0  0  0  0  0  0  0  0  0  0
  138.7850   79.8100  223.7020 C   0  0  0  0  0  0  0  0  0  0  0  0
  137.4430   80.1150  224.0430 N   0  0  0  0  0  0  0  0  0  0  0  0
  137.1110   81.3680  224.6720 C   0  0  0  0  0  0  0  0  0  0  0  0
  136.8340   82.5000  223.9100 C   0  0  0  0  0  0  0  0  0  0  0  0
  136.5230   83.6630  224.5980 C   0  0  0  0  0  0  0  0  0  0  0  0
  136.4860   83.7130  225.9760 C   0  0  0  0  0  0  0  0  0  0  0  0
  136.7600   82.5930  226.7350 C   0  0  0  0  0  0  0  0  0  0  0  0
  137.0740   81.4150  226.0520 C   0  0  0  0  0  0  0  0  0  0  0  0
  139.1720   78.5540  223.0640 C   0  0  0  0  0  0  0  0  0  0  0  0
  140.4970   78.3770  222.7270 C   0  0  0  0  0  0  0  0  0  0  0  0
  140.9100   77.1960  222.1180 C   0  0  0  0  0  0  0  0  0  0  0  0
  140.0320   76.1690  221.8280 C   0  0  0  0  0  0  0  0  0  0  0  0
  140.4590   74.9580  221.2020 N   0  0  0  0  0  0  0  0  0  0  0  0
  141.8820   74.7330  221.0240 C   0  0  0  0  0  0  0  0  0  0  0  0
  142.0510   73.2430  220.8550 C   0  0  2  0  0  0  0  0  0  0  0  0
  143.4900   72.8410  220.8040 C   0  0  0  0  0  0  0  0  0  0  0  0
  143.6900   72.2970  219.3990 C   0  0  0  0  0  0  0  0  0  0  0  0
  142.5750   73.0160  218.6610 C   0  0  0  0  0  0  0  0  0  0  0  0
  141.4640   72.8180  219.5370 N   0  0  0  0  0  0  0  0  0  0  0  0
  140.1550   72.3550  219.4620 C   0  0  0  0  0  0  0  0  0  0  0  0
  139.2800   73.2410  219.0500 O   0  0  0  0  0  0  0  0  0  0  0  0
  139.5470   71.0610  219.7500 C   0  0  0  0  0  0  0  0  0  0  0  0
  139.9120   70.5370  221.0290 N   0  0  0  0  0  0  0  0  0  0  0  0
  139.5900   71.3830  222.1670 C   0  0  0  0  0  0  0  0  0  0  0  0
  139.0350   72.4560  221.8970 O   0  0  0  0  0  0  0  0  0  0  0  0
  139.9290   70.9280  223.5090 C   0  0  0  0  0  0  0  0  0  0  0  0
  140.5970   71.8100  224.3310 C   0  0  0  0  0  0  0  0  0  0  0  0
  140.9770   71.5080  225.6210 C   0  0  0  0  0  0  0  0  0  0  0  0
  140.6460   70.2290  226.0720 C   0  0  0  0  0  0  0  0  0  0  0  0
  141.0130   69.8900  227.3670 C   0  0  0  0  0  0  0  0  0  0  0  0
  140.7030   68.6400  227.8450 C   0  0  0  0  0  0  0  0  0  0  0  0
  141.0350   68.2390  229.1130 F   0  0  0  0  0  0  0  0  0  0  0  0
  140.0260   67.7500  227.0100 C   0  0  0  0  0  0  0  0  0  0  0  0
  139.6650   68.1000  225.7180 C   0  0  0  0  0  0  0  0  0  0  0  0
  139.9800   69.3660  225.2360 C   0  0  0  0  0  0  0  0  0  0  0  0
  139.6280   69.7100  223.9760 N   0  0  0  0  0  0  0  0  0  0  0  0
  138.7060   76.3660  222.1730 C   0  0  0  0  0  0  0  0  0  0  0  0
  138.2760   77.5430  222.7840 C   0  0  0  0  0  0  0  0  0  0  0  0
  136.6760   79.4360  223.8440 H   0  0  0  0  0  0  0  0  0  0  0  0
  136.8607   82.4729  222.8107 H   0  0  0  0  0  0  0  0  0  0  0  0
  136.2985   84.5755  224.0263 H   0  0  0  0  0  0  0  0  0  0  0  0
  136.2345   84.6592  226.4774 H   0  0  0  0  0  0  0  0  0  0  0  0
  136.7323   82.6265  227.8341 H   0  0  0  0  0  0  0  0  0  0  0  0
  137.2969   80.5039  226.6267 H   0  0  0  0  0  0  0  0  0  0  0  0
  141.2286   79.1704  222.9398 H   0  0  0  0  0  0  0  0  0  0  0  0
  141.9721   77.0757  221.8584 H   0  0  0  0  0  0  0  0  0  0  0  0
  139.7200   74.2870  220.8990 H   0  0  0  0  0  0  0  0  0  0  0  0
  142.2435   75.2623  220.1300 H   0  0  0  0  0  0  0  0  0  0  0  0
  142.4591   75.1086  221.8818 H   0  0  0  0  0  0  0  0  0  0  0  0
  141.5543   72.7726  221.7164 H   0  0  0  0  0  0  0  0  0  0  0  0
  144.1417   73.7095  220.9799 H   0  0  0  0  0  0  0  0  0  0  0  0
  143.7423   72.0999  221.5767 H   0  0  0  0  0  0  0  0  0  0  0  0
  144.6793   72.5625  218.9980 H   0  0  0  0  0  0  0  0  0  0  0  0
  143.6559   71.2001  219.3236 H   0  0  0  0  0  0  0  0  0  0  0  0
  142.8016   74.0854  218.5381 H   0  0  0  0  0  0  0  0  0  0  0  0
  142.4067   72.6437  217.6397 H   0  0  0  0  0  0  0  0  0  0  0  0
  138.4533   71.1743  219.7183 H   0  0  0  0  0  0  0  0  0  0  0  0
  139.9125   70.3532  218.9915 H   0  0  0  0  0  0  0  0  0  0  0  0
  140.3820   69.6120  221.1800 H   0  0  0  0  0  0  0  0  0  0  0  0
  140.8397   72.8078  223.9366 H   0  0  0  0  0  0  0  0  0  0  0  0
  141.5090   72.2311  226.2567 H   0  0  0  0  0  0  0  0  0  0  0  0
  141.5453   70.6131  228.0024 H   0  0  0  0  0  0  0  0  0  0  0  0
  139.7730   66.7476  227.3857 H   0  0  0  0  0  0  0  0  0  0  0  0
  139.1327   67.3808  225.0781 H   0  0  0  0  0  0  0  0  0  0  0  0
  137.9731   75.5739  221.9597 H   0  0  0  0  0  0  0  0  0  0  0  0
  137.2145   77.6665  223.0448 H   0  0  0  0  0  0  0  0  0  0  0  0
  1  2  2  0
  2  3  1  0
  3  4  1  0
  4  5  2  0
  5  6  1  0
  6  7  2  0
  7  8  1  0
  8  9  2  0
  2 10  1  0
 10 11  2  0
 11 12  1  0
 12 13  2  0
 13 14  1  0
 14 15  1  0
 15 16  1  0
 16 17  1  0
 17 18  1  0
 18 19  1  0
 19 20  1  0
 20 21  1  0
 21 22  2  0
 21 23  1  0
 23 24  1  0
 24 25  1  0
 25 26  2  0
 25 27  1  0
 27 28  2  0
 28 29  1  0
 29 30  2  0
 30 31  1  0
 31 32  2  0
 32 33  1  0
 32 34  1  0
 34 35  2  0
 35 36  1  0
 36 37  2  0
 13 38  1  0
 38 39  2  0
  9  4  1  0
 39 10  1  0
 20 16  1  0
 37 27  1  0
 36 30  1  0
  3 40  1  0
  5 41  1  0
  6 42  1  0
  7 43  1  0
  8 44  1  0
  9 45  1  0
 11 46  1  0
 12 47  1  0
 14 48  1  0
 15 49  1  0
 15 50  1  0
 16 51  1  1
 17 52  1  0
 17 53  1  0
 18 54  1  0
 18 55  1  0
 19 56  1  0
 19 57  1  0
 23 58  1  0
 23 59  1  0
 24 60  1  0
 28 61  1  0
 29 62  1  0
 31 63  1  0
 34 64  1  0
 35 65  1  0
 38 66  1  0
 39 67  1  0
M  END
>  <smiles>  (36) 
O=C(Nc1ccccc1)c1ccc(NC[C@@H]2CCCN2C(=O)CNC(=O)c2ccc3cc(F)ccc3n2)cc1

>  <score_type>  (36) 
oracle

>  <origin>  (36) 
autodockgpu

>  <m_score__min__energy>  (36) 
-9.8599999999999994

>  <m_primary>  (36) 
energy

>  <rmsd>  (36) 
4.538133608824185

>  <m_score__min__rmsd>  (36) 
4.538133608824185

>  <meeko>  (36) 
{"free_energy": -7.94, "intermolecular_energy": -10.63, "internal_energy": -3.47, "cluster_size": 2, "cluster_id": 3, "rank_in_cluster": 2}

>  <energy>  (36) 
-7.02

>  <cluster_rmsd>  (36) 
0.8

>  <cluster>  (36) 
12

$$$$

     RDKit          3D

 67 71  0  0  0  0  0  0  0  0999 V2000
  146.3250   71.4650  219.4390 O   0  0  0  0  0  0  0  0  0  0  0  0
  145.0940   71.5660  219.2000 C   0  0  0  0  0  0  0  0  0  0  0  0
  144.3330   70.4160  218.8760 N   0  0  0  0  0  0  0  0  0  0  0  0
  144.9530   69.1160  218.8150 C   0  0  0  0  0  0  0  0  0  0  0  0
  144.8330   68.2150  219.8680 C   0  0  0  0  0  0  0  0  0  0  0  0
  145.4630   66.9880  219.7240 C   0  0  0  0  0  0  0  0  0  0  0  0
  146.1800   66.6590  218.5920 C   0  0  0  0  0  0  0  0  0  0  0  0
  146.3010   67.5500  217.5450 C   0  0  0  0  0  0  0  0  0  0  0  0
  145.6700   68.7900  217.6800 C   0  0  0  0  0  0  0  0  0  0  0  0
  144.5110   72.9040  219.2750 C   0  0  0  0  0  0  0  0  0  0  0  0
  144.1150   73.3720  220.5100 C   0  0  0  0  0  0  0  0  0  0  0  0
  143.5550   74.6410  220.6270 C   0  0  0  0  0  0  0  0  0  0  0  0
  143.3730   75.4710  219.5380 C   0  0  0  0  0  0  0  0  0  0  0  0
  142.7970   76.7730  219.6630 N   0  0  0  0  0  0  0  0  0  0  0  0
  141.3510   76.8960  219.6470 C   0  0  0  0  0  0  0  0  0  0  0  0
  140.8290   75.6210  219.0290 C   0  0  2  0  0  0  0  0  0  0  0  0
  140.0650   75.8760  217.7710 C   0  0  0  0  0  0  0  0  0  0  0  0
  138.6400   75.4540  218.0920 C   0  0  0  0  0  0  0  0  0  0  0  0
  138.6360   75.6170  219.6020 C   0  0  0  0  0  0  0  0  0  0  0  0
  139.8540   74.9710  219.9720 N   0  0  0  0  0  0  0  0  0  0  0  0
  140.2780   73.9900  220.8630 C   0  0  0  0  0  0  0  0  0  0  0  0
  140.6260   74.4330  222.0470 O   0  0  0  0  0  0  0  0  0  0  0  0
  140.4130   72.5420  220.7450 C   0  0  0  0  0  0  0  0  0  0  0  0
  140.8240   71.9120  221.9620 N   0  0  0  0  0  0  0  0  0  0  0  0
  139.7770   71.7240  222.9530 C   0  0  0  0  0  0  0  0  0  0  0  0
  138.6530   72.1270  222.6290 O   0  0  0  0  0  0  0  0  0  0  0  0
  140.1080   71.0910  224.2240 C   0  0  0  0  0  0  0  0  0  0  0  0
  140.7080   71.8740  225.1870 C   0  0  0  0  0  0  0  0  0  0  0  0
  141.0730   71.4030  226.4300 C   0  0  0  0  0  0  0  0  0  0  0  0
  140.8000   70.0560  226.6770 C   0  0  0  0  0  0  0  0  0  0  0  0
  141.1540   69.5470  227.9190 C   0  0  0  0  0  0  0  0  0  0  0  0
  140.9010   68.2260  228.1980 C   0  0  0  0  0  0  0  0  0  0  0  0
  141.2240   67.6570  229.4030 F   0  0  0  0  0  0  0  0  0  0  0  0
  140.2930   67.4370  227.2210 C   0  0  0  0  0  0  0  0  0  0  0  0
  139.9450   67.9570  225.9830 C   0  0  0  0  0  0  0  0  0  0  0  0
  140.2020   69.2950  225.7030 C   0  0  0  0  0  0  0  0  0  0  0  0
  139.8620   69.8040  224.4970 N   0  0  0  0  0  0  0  0  0  0  0  0
  143.7760   74.9830  218.3070 C   0  0  0  0  0  0  0  0  0  0  0  0
  144.3390   73.7140  218.1720 C   0  0  0  0  0  0  0  0  0  0  0  0
  143.3110   70.4910  218.6780 H   0  0  0  0  0  0  0  0  0  0  0  0
  144.2633   68.4648  220.7752 H   0  0  0  0  0  0  0  0  0  0  0  0
  145.3887   66.2529  220.5390 H   0  0  0  0  0  0  0  0  0  0  0  0
  146.6620   65.6726  218.5230 H   0  0  0  0  0  0  0  0  0  0  0  0
  146.8715   67.2944  216.6399 H   0  0  0  0  0  0  0  0  0  0  0  0
  145.7461   69.5232  216.8636 H   0  0  0  0  0  0  0  0  0  0  0  0
  144.2417   72.7424  221.4031 H   0  0  0  0  0  0  0  0  0  0  0  0
  143.2465   74.9953  221.6217 H   0  0  0  0  0  0  0  0  0  0  0  0
  143.4500   77.5800  219.7580 H   0  0  0  0  0  0  0  0  0  0  0  0
  140.9662   77.0092  220.6712 H   0  0  0  0  0  0  0  0  0  0  0  0
  141.0292   77.7800  219.0769 H   0  0  0  0  0  0  0  0  0  0  0  0
  141.7070   74.9922  218.8197 H   0  0  0  0  0  0  0  0  0  0  0  0
  140.1028   76.9424  217.5037 H   0  0  0  0  0  0  0  0  0  0  0  0
  140.4790   75.3247  216.9139 H   0  0  0  0  0  0  0  0  0  0  0  0
  137.9030   76.1135  217.6105 H   0  0  0  0  0  0  0  0  0  0  0  0
  138.3696   74.4479  217.7390 H   0  0  0  0  0  0  0  0  0  0  0  0
  138.6430   76.6787  219.8897 H   0  0  0  0  0  0  0  0  0  0  0  0
  137.7445   75.1979  220.0916 H   0  0  0  0  0  0  0  0  0  0  0  0
  139.4405   72.1237  220.4462 H   0  0  0  0  0  0  0  0  0  0  0  0
  141.1950   72.3471  219.9964 H   0  0  0  0  0  0  0  0  0  0  0  0
  141.8030   71.5940  222.1650 H   0  0  0  0  0  0  0  0  0  0  0  0
  140.9058   72.9300  224.9511 H   0  0  0  0  0  0  0  0  0  0  0  0
  141.5503   72.0489  227.1816 H   0  0  0  0  0  0  0  0  0  0  0  0
  141.6311   70.1934  228.6704 H   0  0  0  0  0  0  0  0  0  0  0  0
  140.0849   66.3787  227.4373 H   0  0  0  0  0  0  0  0  0  0  0  0
  139.4687   67.3151  225.2273 H   0  0  0  0  0  0  0  0  0  0  0  0
  143.6491   75.6114  217.4132 H   0  0  0  0  0  0  0  0  0  0  0  0
  144.6481   73.3566  217.1786 H   0  0  0  0  0  0  0  0  0  0  0  0
  1  2  2  0
  2  3  1  0
  3  4  1  0
  4  5  2  0
  5  6  1  0
  6  7  2  0
  7  8  1  0
  8  9  2  0
  2 10  1  0
 10 11  2  0
 11 12  1  0
 12 13  2  0
 13 14  1  0
 14 15  1  0
 15 16  1  0
 16 17  1  0
 17 18  1  0
 18 19  1  0
 19 20  1  0
 20 21  1  0
 21 22  2  0
 21 23  1  0
 23 24  1  0
 24 25  1  0
 25 26  2  0
 25 27  1  0
 27 28  2  0
 28 29  1  0
 29 30  2  0
 30 31  1  0
 31 32  2  0
 32 33  1  0
 32 34  1  0
 34 35  2  0
 35 36  1  0
 36 37  2  0
 13 38  1  0
 38 39  2  0
  9  4  1  0
 39 10  1  0
 20 16  1  0
 37 27  1  0
 36 30  1  0
  3 40  1  0
  5 41  1  0
  6 42  1  0
  7 43  1  0
  8 44  1  0
  9 45  1  0
 11 46  1  0
 12 47  1  0
 14 48  1  0
 15 49  1  0
 15 50  1  0
 16 51  1  6
 17 52  1  0
 17 53  1  0
 18 54  1  0
 18 55  1  0
 19 56  1  0
 19 57  1  0
 23 58  1  0
 23 59  1  0
 24 60  1  0
 28 61  1  0
 29 62  1  0
 31 63  1  0
 34 64  1  0
 35 65  1  0
 38 66  1  0
 39 67  1  0
M  END
>  <smiles>  (37) 
O=C(Nc1ccccc1)c1ccc(NC[C@@H]2CCCN2C(=O)CNC(=O)c2ccc3cc(F)ccc3n2)cc1

>  <score_type>  (37) 
oracle

>  <origin>  (37) 
autodockgpu

>  <m_score__min__energy>  (37) 
-9.8599999999999994

>  <m_primary>  (37) 
energy

>  <rmsd>  (37) 
8.558079362829545

>  <m_score__min__rmsd>  (37) 
8.558079362829545

>  <meeko>  (37) 
{"free_energy": -9.31, "intermolecular_energy": -11.99, "internal_energy": -2.22, "cluster_size": 7, "cluster_id": 1, "rank_in_cluster": 7}

>  <energy>  (37) 
-7.04

>  <cluster_rmsd>  (37) 
0.0

>  <cluster>  (37) 
13

$$$$

     RDKit          3D

 67 71  0  0  0  0  0  0  0  0999 V2000
  140.6260   71.4760  221.5240 O   0  0  0  0  0  0  0  0  0  0  0  0
  141.0460   72.2750  220.6490 C   0  0  0  0  0  0  0  0  0  0  0  0
  141.8390   71.8040  219.5720 N   0  0  0  0  0  0  0  0  0  0  0  0
  142.1750   70.4070  219.4620 C   0  0  0  0  0  0  0  0  0  0  0  0
  141.2080   69.4620  219.1310 C   0  0  0  0  0  0  0  0  0  0  0  0
  141.6200   68.1410  219.0480 C   0  0  0  0  0  0  0  0  0  0  0  0
  142.9260   67.7630  219.2800 C   0  0  0  0  0  0  0  0  0  0  0  0
  143.8870   68.6960  219.6080 C   0  0  0  0  0  0  0  0  0  0  0  0
  143.4840   70.0320  219.6950 C   0  0  0  0  0  0  0  0  0  0  0  0
  140.6790   73.6810  220.8030 C   0  0  0  0  0  0  0  0  0  0  0  0
  141.4430   74.4640  221.6430 C   0  0  0  0  0  0  0  0  0  0  0  0
  141.1290   75.8080  221.8190 C   0  0  0  0  0  0  0  0  0  0  0  0
  140.0630   76.4090  221.1760 C   0  0  0  0  0  0  0  0  0  0  0  0
  139.7440   77.7890  221.3600 N   0  0  0  0  0  0  0  0  0  0  0  0
  140.0690   78.4130  222.6290 C   0  0  0  0  0  0  0  0  0  0  0  0
  141.4500   78.9980  222.4660 C   0  0  2  0  0  0  0  0  0  0  0  0
  142.1010   79.2840  223.7810 C   0  0  0  0  0  0  0  0  0  0  0  0
  142.2480   80.7960  223.8190 C   0  0  0  0  0  0  0  0  0  0  0  0
  141.1390   81.2080  222.8680 C   0  0  0  0  0  0  0  0  0  0  0  0
  141.3520   80.3260  221.7650 N   0  0  0  0  0  0  0  0  0  0  0  0
  141.5010   80.4090  220.3850 C   0  0  0  0  0  0  0  0  0  0  0  0
  141.8420   81.5940  219.9380 O   0  0  0  0  0  0  0  0  0  0  0  0
  141.3570   79.4290  219.3150 C   0  0  0  0  0  0  0  0  0  0  0  0
  142.2480   78.3170  219.4420 N   0  0  0  0  0  0  0  0  0  0  0  0
  141.9500   77.1760  218.5920 C   0  0  0  0  0  0  0  0  0  0  0  0
  140.9630   77.2990  217.8550 O   0  0  0  0  0  0  0  0  0  0  0  0
  142.8050   75.9980  218.6580 C   0  0  0  0  0  0  0  0  0  0  0  0
  142.8540   75.1830  217.5470 C   0  0  0  0  0  0  0  0  0  0  0  0
  143.6210   74.0400  217.4750 C   0  0  0  0  0  0  0  0  0  0  0  0
  144.3690   73.7350  218.6140 C   0  0  0  0  0  0  0  0  0  0  0  0
  145.1530   72.5900  218.5790 C   0  0  0  0  0  0  0  0  0  0  0  0
  145.9030   72.2580  219.6810 C   0  0  0  0  0  0  0  0  0  0  0  0
  146.7000   71.1420  219.7140 F   0  0  0  0  0  0  0  0  0  0  0  0
  145.8520   73.0850  220.8030 C   0  0  0  0  0  0  0  0  0  0  0  0
  145.0630   74.2260  220.8270 C   0  0  0  0  0  0  0  0  0  0  0  0
  144.3050   74.5610  219.7100 C   0  0  0  0  0  0  0  0  0  0  0  0
  143.5360   75.6730  219.7310 N   0  0  0  0  0  0  0  0  0  0  0  0
  139.3090   75.6060  220.3380 C   0  0  0  0  0  0  0  0  0  0  0  0
  139.6090   74.2580  220.1500 C   0  0  0  0  0  0  0  0  0  0  0  0
  142.1910   72.4620  218.8420 H   0  0  0  0  0  0  0  0  0  0  0  0
  140.1632   69.7507  218.9436 H   0  0  0  0  0  0  0  0  0  0  0  0
  140.8809   67.3687  218.7885 H   0  0  0  0  0  0  0  0  0  0  0  0
  143.2051   66.7018  219.2022 H   0  0  0  0  0  0  0  0  0  0  0  0
  144.9301   68.4006  219.7940 H   0  0  0  0  0  0  0  0  0  0  0  0
  144.2258   70.8016  219.9548 H   0  0  0  0  0  0  0  0  0  0  0  0
  142.3009   74.0257  222.1740 H   0  0  0  0  0  0  0  0  0  0  0  0
  141.7513   76.4140  222.4939 H   0  0  0  0  0  0  0  0  0  0  0  0
  139.2880   78.2860  220.5650 H   0  0  0  0  0  0  0  0  0  0  0  0
  139.3433   79.2064  222.8613 H   0  0  0  0  0  0  0  0  0  0  0  0
  140.0351   77.6866  223.4544 H   0  0  0  0  0  0  0  0  0  0  0  0
  142.0379   78.2580  221.9031 H   0  0  0  0  0  0  0  0  0  0  0  0
  141.4688   78.9349  224.6107 H   0  0  0  0  0  0  0  0  0  0  0  0
  143.0674   78.7695  223.8872 H   0  0  0  0  0  0  0  0  0  0  0  0
  142.0834   81.1943  224.8311 H   0  0  0  0  0  0  0  0  0  0  0  0
  143.2470   81.1656  223.5444 H   0  0  0  0  0  0  0  0  0  0  0  0
  140.1476   81.0526  223.3186 H   0  0  0  0  0  0  0  0  0  0  0  0
  141.1613   82.2734  222.5951 H   0  0  0  0  0  0  0  0  0  0  0  0
  140.3239   79.0514  219.3242 H   0  0  0  0  0  0  0  0  0  0  0  0
  141.6040   79.9381  218.3717 H   0  0  0  0  0  0  0  0  0  0  0  0
  143.0700   78.2860  220.0920 H   0  0  0  0  0  0  0  0  0  0  0  0
  142.2486   75.4597  216.6712 H   0  0  0  0  0  0  0  0  0  0  0  0
  143.6425   73.4070  216.5756 H   0  0  0  0  0  0  0  0  0  0  0  0
  145.1735   71.9564  217.6800 H   0  0  0  0  0  0  0  0  0  0  0  0
  146.4508   72.8268  221.6888 H   0  0  0  0  0  0  0  0  0  0  0  0
  145.0371   74.8619  221.7242 H   0  0  0  0  0  0  0  0  0  0  0  0
  138.4507   76.0430  219.8066 H   0  0  0  0  0  0  0  0  0  0  0  0
  138.9882   73.6495  219.4760 H   0  0  0  0  0  0  0  0  0  0  0  0
  1  2  2  0
  2  3  1  0
  3  4  1  0
  4  5  2  0
  5  6  1  0
  6  7  2  0
  7  8  1  0
  8  9  2  0
  2 10  1  0
 10 11  2  0
 11 12  1  0
 12 13  2  0
 13 14  1  0
 14 15  1  0
 15 16  1  0
 16 17  1  0
 17 18  1  0
 18 19  1  0
 19 20  1  0
 20 21  1  0
 21 22  2  0
 21 23  1  0
 23 24  1  0
 24 25  1  0
 25 26  2  0
 25 27  1  0
 27 28  2  0
 28 29  1  0
 29 30  2  0
 30 31  1  0
 31 32  2  0
 32 33  1  0
 32 34  1  0
 34 35  2  0
 35 36  1  0
 36 37  2  0
 13 38  1  0
 38 39  2  0
  9  4  1  0
 39 10  1  0
 20 16  1  0
 37 27  1  0
 36 30  1  0
  3 40  1  0
  5 41  1  0
  6 42  1  0
  7 43  1  0
  8 44  1  0
  9 45  1  0
 11 46  1  0
 12 47  1  0
 14 48  1  0
 15 49  1  0
 15 50  1  0
 16 51  1  6
 17 52  1  0
 17 53  1  0
 18 54  1  0
 18 55  1  0
 19 56  1  0
 19 57  1  0
 23 58  1  0
 23 59  1  0
 24 60  1  0
 28 61  1  0
 29 62  1  0
 31 63  1  0
 34 64  1  0
 35 65  1  0
 38 66  1  0
 39 67  1  0
M  END
>  <smiles>  (38) 
O=C(Nc1ccccc1)c1ccc(NC[C@@H]2CCCN2C(=O)CNC(=O)c2ccc3cc(F)ccc3n2)cc1

>  <score_type>  (38) 
oracle

>  <origin>  (38) 
autodockgpu

>  <m_score__min__energy>  (38) 
-9.8599999999999994

>  <m_primary>  (38) 
energy

>  <rmsd>  (38) 
9.61408205432116

>  <m_score__min__rmsd>  (38) 
9.61408205432116

>  <meeko>  (38) 
{"free_energy": -6.66, "intermolecular_energy": -9.34, "internal_energy": -4.29, "cluster_size": 1, "cluster_id": 17, "rank_in_cluster": 1}

>  <energy>  (38) 
-7.03

>  <cluster_rmsd>  (38) 
0.58

>  <cluster>  (38) 
13

$$$$

     RDKit          3D

 67 71  0  0  0  0  0  0  0  0999 V2000
  140.9200   71.6160  222.0520 O   0  0  0  0  0  0  0  0  0  0  0  0
  140.0110   72.3680  222.4860 C   0  0  0  0  0  0  0  0  0  0  0  0
  139.0750   71.8830  223.4340 N   0  0  0  0  0  0  0  0  0  0  0  0
  139.1510   70.5260  223.9150 C   0  0  0  0  0  0  0  0  0  0  0  0
  138.6690   69.4680  223.1500 C   0  0  0  0  0  0  0  0  0  0  0  0
  138.7820   68.1960  223.6900 C   0  0  0  0  0  0  0  0  0  0  0  0
  139.3460   67.9730  224.9290 C   0  0  0  0  0  0  0  0  0  0  0  0
  139.8250   69.0190  225.6910 C   0  0  0  0  0  0  0  0  0  0  0  0
  139.7160   70.3060  225.1560 C   0  0  0  0  0  0  0  0  0  0  0  0
  139.9750   73.7340  221.9690 C   0  0  0  0  0  0  0  0  0  0  0  0
  138.7830   74.2070  221.4630 C   0  0  0  0  0  0  0  0  0  0  0  0
  138.7040   75.5020  220.9600 C   0  0  0  0  0  0  0  0  0  0  0  0
  139.7900   76.3560  220.9460 C   0  0  0  0  0  0  0  0  0  0  0  0
  139.7060   77.6850  220.4290 N   0  0  0  0  0  0  0  0  0  0  0  0
  139.9940   78.7950  221.3180 C   0  0  0  0  0  0  0  0  0  0  0  0
  141.4600   79.1040  221.1400 C   0  0  2  0  0  0  0  0  0  0  0  0
  142.2100   79.0480  222.4320 C   0  0  0  0  0  0  0  0  0  0  0  0
  142.6760   80.4740  222.6700 C   0  0  0  0  0  0  0  0  0  0  0  0
  141.6420   81.2430  221.8670 C   0  0  0  0  0  0  0  0  0  0  0  0
  141.6180   80.5130  220.6400 N   0  0  0  0  0  0  0  0  0  0  0  0
  141.7250   80.7730  219.2770 C   0  0  0  0  0  0  0  0  0  0  0  0
  141.0790   81.8370  218.8670 O   0  0  0  0  0  0  0  0  0  0  0  0
  142.4270   80.0920  218.1950 C   0  0  0  0  0  0  0  0  0  0  0  0
  142.8580   78.7730  218.5420 N   0  0  0  0  0  0  0  0  0  0  0  0
  141.9010   77.7110  218.2750 C   0  0  0  0  0  0  0  0  0  0  0  0
  140.8270   78.0700  217.7760 O   0  0  0  0  0  0  0  0  0  0  0  0
  142.2570   76.3360  218.6000 C   0  0  0  0  0  0  0  0  0  0  0  0
  141.4580   75.3340  218.0910 C   0  0  0  0  0  0  0  0  0  0  0  0
  141.6810   73.9930  218.3210 C   0  0  0  0  0  0  0  0  0  0  0  0
  142.7860   73.6860  219.1170 C   0  0  0  0  0  0  0  0  0  0  0  0
  143.0420   72.3460  219.3690 C   0  0  0  0  0  0  0  0  0  0  0  0
  144.1210   72.0050  220.1490 C   0  0  0  0  0  0  0  0  0  0  0  0
  144.4320   70.7010  220.4380 F   0  0  0  0  0  0  0  0  0  0  0  0
  144.9270   73.0210  220.6620 C   0  0  0  0  0  0  0  0  0  0  0  0
  144.6610   74.3580  220.4030 C   0  0  0  0  0  0  0  0  0  0  0  0
  143.5690   74.7000  219.6130 C   0  0  0  0  0  0  0  0  0  0  0  0
  143.3080   76.0030  219.3600 N   0  0  0  0  0  0  0  0  0  0  0  0
  140.9780   75.8630  221.4570 C   0  0  0  0  0  0  0  0  0  0  0  0
  141.0740   74.5670  221.9650 C   0  0  0  0  0  0  0  0  0  0  0  0
  138.3170   72.5000  223.7990 H   0  0  0  0  0  0  0  0  0  0  0  0
  138.2182   69.6337  222.1604 H   0  0  0  0  0  0  0  0  0  0  0  0
  138.4100   67.3372  223.1120 H   0  0  0  0  0  0  0  0  0  0  0  0
  139.4150   66.9455  225.3155 H   0  0  0  0  0  0  0  0  0  0  0  0
  140.2747   68.8470  226.6800 H   0  0  0  0  0  0  0  0  0  0  0  0
  140.0886   71.1628  225.7365 H   0  0  0  0  0  0  0  0  0  0  0  0
  137.8934   73.5600  221.4569 H   0  0  0  0  0  0  0  0  0  0  0  0
  137.7434   75.8582  220.5596 H   0  0  0  0  0  0  0  0  0  0  0  0
  139.4370   77.7950  219.4270 H   0  0  0  0  0  0  0  0  0  0  0  0
  139.3839   79.6693  221.0471 H   0  0  0  0  0  0  0  0  0  0  0  0
  139.7602   78.5440  222.3631 H   0  0  0  0  0  0  0  0  0  0  0  0
  141.8540   78.3537  220.4386 H   0  0  0  0  0  0  0  0  0  0  0  0
  141.5525   78.7136  223.2480 H   0  0  0  0  0  0  0  0  0  0  0  0
  143.0485   78.3369  222.3958 H   0  0  0  0  0  0  0  0  0  0  0  0
  142.6408   80.7396  223.7369 H   0  0  0  0  0  0  0  0  0  0  0  0
  143.7188   80.6691  222.3793 H   0  0  0  0  0  0  0  0  0  0  0  0
  140.6593   81.2272  222.3611 H   0  0  0  0  0  0  0  0  0  0  0  0
  141.8789   82.3101  221.7443 H   0  0  0  0  0  0  0  0  0  0  0  0
  141.7512   80.0222  217.3299 H   0  0  0  0  0  0  0  0  0  0  0  0
  143.3286   80.6807  217.9703 H   0  0  0  0  0  0  0  0  0  0  0  0
  143.7910   78.5440  218.9630 H   0  0  0  0  0  0  0  0  0  0  0  0
  140.5972   75.6197  217.4686 H   0  0  0  0  0  0  0  0  0  0  0  0
  141.0281   73.2127  217.9028 H   0  0  0  0  0  0  0  0  0  0  0  0
  142.3894   71.5660  218.9497 H   0  0  0  0  0  0  0  0  0  0  0  0
  145.7933   72.7564  221.2861 H   0  0  0  0  0  0  0  0  0  0  0  0
  145.3098   75.1423  220.8200 H   0  0  0  0  0  0  0  0  0  0  0  0
  141.8685   76.5088  221.4628 H   0  0  0  0  0  0  0  0  0  0  0  0
  142.0333   74.2071  222.3652 H   0  0  0  0  0  0  0  0  0  0  0  0
  1  2  2  0
  2  3  1  0
  3  4  1  0
  4  5  2  0
  5  6  1  0
  6  7  2  0
  7  8  1  0
  8  9  2  0
  2 10  1  0
 10 11  2  0
 11 12  1  0
 12 13  2  0
 13 14  1  0
 14 15  1  0
 15 16  1  0
 16 17  1  0
 17 18  1  0
 18 19  1  0
 19 20  1  0
 20 21  1  0
 21 22  2  0
 21 23  1  0
 23 24  1  0
 24 25  1  0
 25 26  2  0
 25 27  1  0
 27 28  2  0
 28 29  1  0
 29 30  2  0
 30 31  1  0
 31 32  2  0
 32 33  1  0
 32 34  1  0
 34 35  2  0
 35 36  1  0
 36 37  2  0
 13 38  1  0
 38 39  2  0
  9  4  1  0
 39 10  1  0
 20 16  1  0
 37 27  1  0
 36 30  1  0
  3 40  1  0
  5 41  1  0
  6 42  1  0
  7 43  1  0
  8 44  1  0
  9 45  1  0
 11 46  1  0
 12 47  1  0
 14 48  1  0
 15 49  1  0
 15 50  1  0
 16 51  1  6
 17 52  1  0
 17 53  1  0
 18 54  1  0
 18 55  1  0
 19 56  1  0
 19 57  1  0
 23 58  1  0
 23 59  1  0
 24 60  1  0
 28 61  1  0
 29 62  1  0
 31 63  1  0
 34 64  1  0
 35 65  1  0
 38 66  1  0
 39 67  1  0
M  END
>  <smiles>  (39) 
O=C(Nc1ccccc1)c1ccc(NC[C@@H]2CCCN2C(=O)CNC(=O)c2ccc3cc(F)ccc3n2)cc1

>  <score_type>  (39) 
oracle

>  <origin>  (39) 
autodockgpu

>  <m_score__min__energy>  (39) 
-9.8599999999999994

>  <m_primary>  (39) 
energy

>  <rmsd>  (39) 
9.651312499883606

>  <m_score__min__rmsd>  (39) 
9.651312499883606

>  <meeko>  (39) 
{"free_energy": -7.22, "intermolecular_energy": -9.91, "internal_energy": -4.41, "cluster_size": 3, "cluster_id": 9, "rank_in_cluster": 2}

>  <energy>  (39) 
-7.0

>  <cluster_rmsd>  (39) 
0.47

>  <cluster>  (39) 
13

$$$$

     RDKit          3D

 67 71  0  0  0  0  0  0  0  0999 V2000
  141.6530   82.0370  219.2050 O   0  0  0  0  0  0  0  0  0  0  0  0
  142.1860   80.9440  218.8880 C   0  0  0  0  0  0  0  0  0  0  0  0
  143.0260   80.8610  217.7490 N   0  0  0  0  0  0  0  0  0  0  0  0
  143.2810   82.0250  216.9380 C   0  0  0  0  0  0  0  0  0  0  0  0
  143.9970   83.1060  217.4430 C   0  0  0  0  0  0  0  0  0  0  0  0
  144.1960   84.1840  216.5930 C   0  0  0  0  0  0  0  0  0  0  0  0
  143.7120   84.1990  215.3020 C   0  0  0  0  0  0  0  0  0  0  0  0
  143.0020   83.1300  214.7970 C   0  0  0  0  0  0  0  0  0  0  0  0
  142.7950   82.0370  215.6450 C   0  0  0  0  0  0  0  0  0  0  0  0
  141.8970   79.7920  219.7400 C   0  0  0  0  0  0  0  0  0  0  0  0
  141.8340   78.5470  219.1510 C   0  0  0  0  0  0  0  0  0  0  0  0
  141.5610   77.4240  219.9260 C   0  0  0  0  0  0  0  0  0  0  0  0
  141.3470   77.5000  221.2890 C   0  0  0  0  0  0  0  0  0  0  0  0
  141.0670   76.3440  222.0800 N   0  0  0  0  0  0  0  0  0  0  0  0
  139.7560   76.2230  222.6920 C   0  0  0  0  0  0  0  0  0  0  0  0
  138.7580   76.3170  221.5640 C   0  0  2  0  0  0  0  0  0  0  0  0
  137.4800   76.9610  221.9940 C   0  0  0  0  0  0  0  0  0  0  0  0
  136.4340   75.8650  221.8690 C   0  0  0  0  0  0  0  0  0  0  0  0
  137.3080   74.6310  222.0000 C   0  0  0  0  0  0  0  0  0  0  0  0
  138.3830   74.9330  221.1100 N   0  0  0  0  0  0  0  0  0  0  0  0
  139.0480   74.3330  220.0460 C   0  0  0  0  0  0  0  0  0  0  0  0
  139.0200   75.0130  218.9250 O   0  0  0  0  0  0  0  0  0  0  0  0
  139.7870   73.0820  219.9220 C   0  0  0  0  0  0  0  0  0  0  0  0
  139.5980   72.2010  221.0330 N   0  0  0  0  0  0  0  0  0  0  0  0
  140.2980   72.5750  222.2530 C   0  0  0  0  0  0  0  0  0  0  0  0
  140.9710   73.6110  222.1890 O   0  0  0  0  0  0  0  0  0  0  0  0
  140.1630   71.7320  223.4340 C   0  0  0  0  0  0  0  0  0  0  0  0
  139.4510   70.5590  223.3020 C   0  0  0  0  0  0  0  0  0  0  0  0
  139.2480   69.6730  224.3380 C   0  0  0  0  0  0  0  0  0  0  0  0
  139.8120   70.0260  225.5640 C   0  0  0  0  0  0  0  0  0  0  0  0
  139.6280   69.1570  226.6300 C   0  0  0  0  0  0  0  0  0  0  0  0
  140.1700   69.4720  227.8530 C   0  0  0  0  0  0  0  0  0  0  0  0
  140.0260   68.6600  228.9480 F   0  0  0  0  0  0  0  0  0  0  0  0
  140.8910   70.6600  227.9830 C   0  0  0  0  0  0  0  0  0  0  0  0
  141.0670   71.5210  226.9100 C   0  0  0  0  0  0  0  0  0  0  0  0
  140.5180   71.2000  225.6730 C   0  0  0  0  0  0  0  0  0  0  0  0
  140.6900   72.0390  224.6260 N   0  0  0  0  0  0  0  0  0  0  0  0
  141.4140   78.7590  221.8610 C   0  0  0  0  0  0  0  0  0  0  0  0
  141.6860   79.8950  221.0990 C   0  0  0  0  0  0  0  0  0  0  0  0
  143.4720   79.9580  217.4790 H   0  0  0  0  0  0  0  0  0  0  0  0
  144.3880   83.1057  218.4711 H   0  0  0  0  0  0  0  0  0  0  0  0
  144.7581   85.0551  216.9608 H   0  0  0  0  0  0  0  0  0  0  0  0
  143.8950   85.0770  214.6652 H   0  0  0  0  0  0  0  0  0  0  0  0
  142.6137   83.1366  213.7678 H   0  0  0  0  0  0  0  0  0  0  0  0
  142.2326   81.1675  215.2739 H   0  0  0  0  0  0  0  0  0  0  0  0
  141.9995   78.4415  218.0687 H   0  0  0  0  0  0  0  0  0  0  0  0
  141.5139   76.4403  219.4359 H   0  0  0  0  0  0  0  0  0  0  0  0
  141.8260   75.6370  222.1820 H   0  0  0  0  0  0  0  0  0  0  0  0
  139.6621   75.2546  223.2053 H   0  0  0  0  0  0  0  0  0  0  0  0
  139.5889   77.0089  223.4433 H   0  0  0  0  0  0  0  0  0  0  0  0
  139.2364   76.9123  220.7723 H   0  0  0  0  0  0  0  0  0  0  0  0
  137.5528   77.3108  223.0344 H   0  0  0  0  0  0  0  0  0  0  0  0
  137.2331   77.8431  221.3850 H   0  0  0  0  0  0  0  0  0  0  0  0
  135.6882   75.9217  222.6756 H   0  0  0  0  0  0  0  0  0  0  0  0
  135.8351   75.9064  220.9472 H   0  0  0  0  0  0  0  0  0  0  0  0
  137.6672   74.5033  223.0318 H   0  0  0  0  0  0  0  0  0  0  0  0
  136.7871   73.6914  221.7637 H   0  0  0  0  0  0  0  0  0  0  0  0
  139.4533   72.5684  219.0083 H   0  0  0  0  0  0  0  0  0  0  0  0
  140.8564   73.3373  219.8867 H   0  0  0  0  0  0  0  0  0  0  0  0
  139.0070   71.3360  221.0120 H   0  0  0  0  0  0  0  0  0  0  0  0
  139.0224   70.3174  222.3182 H   0  0  0  0  0  0  0  0  0  0  0  0
  138.6755   68.7431  224.2060 H   0  0  0  0  0  0  0  0  0  0  0  0
  139.0553   68.2272  226.4978 H   0  0  0  0  0  0  0  0  0  0  0  0
  141.3294   70.9191  228.9580 H   0  0  0  0  0  0  0  0  0  0  0  0
  141.6377   72.4528  227.0366 H   0  0  0  0  0  0  0  0  0  0  0  0
  141.2486   78.8660  222.9432 H   0  0  0  0  0  0  0  0  0  0  0  0
  141.7326   80.8804  221.5856 H   0  0  0  0  0  0  0  0  0  0  0  0
  1  2  2  0
  2  3  1  0
  3  4  1  0
  4  5  2  0
  5  6  1  0
  6  7  2  0
  7  8  1  0
  8  9  2  0
  2 10  1  0
 10 11  2  0
 11 12  1  0
 12 13  2  0
 13 14  1  0
 14 15  1  0
 15 16  1  0
 16 17  1  0
 17 18  1  0
 18 19  1  0
 19 20  1  0
 20 21  1  0
 21 22  2  0
 21 23  1  0
 23 24  1  0
 24 25  1  0
 25 26  2  0
 25 27  1  0
 27 28  2  0
 28 29  1  0
 29 30  2  0
 30 31  1  0
 31 32  2  0
 32 33  1  0
 32 34  1  0
 34 35  2  0
 35 36  1  0
 36 37  2  0
 13 38  1  0
 38 39  2  0
  9  4  1  0
 39 10  1  0
 20 16  1  0
 37 27  1  0
 36 30  1  0
  3 40  1  0
  5 41  1  0
  6 42  1  0
  7 43  1  0
  8 44  1  0
  9 45  1  0
 11 46  1  0
 12 47  1  0
 14 48  1  0
 15 49  1  0
 15 50  1  0
 16 51  1  6
 17 52  1  0
 17 53  1  0
 18 54  1  0
 18 55  1  0
 19 56  1  0
 19 57  1  0
 23 58  1  0
 23 59  1  0
 24 60  1  0
 28 61  1  0
 29 62  1  0
 31 63  1  0
 34 64  1  0
 35 65  1  0
 38 66  1  0
 39 67  1  0
M  END
>  <smiles>  (40) 
O=C(Nc1ccccc1)c1ccc(NC[C@@H]2CCCN2C(=O)CNC(=O)c2ccc3cc(F)ccc3n2)cc1

>  <score_type>  (40) 
oracle

>  <origin>  (40) 
autodockgpu

>  <m_score__min__energy>  (40) 
-9.8599999999999994

>  <m_primary>  (40) 
energy

>  <rmsd>  (40) 
4.8023768046313915

>  <m_score__min__rmsd>  (40) 
4.8023768046313915

>  <meeko>  (40) 
{"free_energy": -8.87, "intermolecular_energy": -11.55, "internal_energy": -2.89, "cluster_size": 3, "cluster_id": 4, "rank_in_cluster": 2}

>  <energy>  (40) 
-6.98

>  <cluster_rmsd>  (40) 
0.0

>  <cluster>  (40) 
14

$$$$

     RDKit          3D

 67 71  0  0  0  0  0  0  0  0999 V2000
  137.5680   81.7600  223.5310 O   0  0  0  0  0  0  0  0  0  0  0  0
  138.0110   80.8570  224.2860 C   0  0  0  0  0  0  0  0  0  0  0  0
  137.7030   80.8680  225.6700 N   0  0  0  0  0  0  0  0  0  0  0  0
  136.8800   81.9100  226.2320 C   0  0  0  0  0  0  0  0  0  0  0  0
  136.8790   83.1910  225.6900 C   0  0  0  0  0  0  0  0  0  0  0  0
  136.0580   84.1310  226.2950 C   0  0  0  0  0  0  0  0  0  0  0  0
  135.2700   83.8240  227.3850 C   0  0  0  0  0  0  0  0  0  0  0  0
  135.2690   82.5550  227.9250 C   0  0  0  0  0  0  0  0  0  0  0  0
  136.0930   81.5990  227.3240 C   0  0  0  0  0  0  0  0  0  0  0  0
  138.8400   79.8240  223.6700 C   0  0  0  0  0  0  0  0  0  0  0  0
  138.2950   79.0780  222.6470 C   0  0  0  0  0  0  0  0  0  0  0  0
  139.0490   78.0830  222.0320 C   0  0  0  0  0  0  0  0  0  0  0  0
  140.3490   77.8030  222.4070 C   0  0  0  0  0  0  0  0  0  0  0  0
  141.1200   76.7800  221.7740 N   0  0  0  0  0  0  0  0  0  0  0  0
  140.7150   75.3970  221.9480 C   0  0  0  0  0  0  0  0  0  0  0  0
  140.9080   74.7330  220.6060 C   0  0  2  0  0  0  0  0  0  0  0  0
  139.7580   73.8500  220.2440 C   0  0  0  0  0  0  0  0  0  0  0  0
  140.3430   72.4470  220.2160 C   0  0  0  0  0  0  0  0  0  0  0  0
  141.5290   72.6210  221.1470 C   0  0  0  0  0  0  0  0  0  0  0  0
  142.1100   73.8320  220.6620 N   0  0  0  0  0  0  0  0  0  0  0  0
  143.3590   74.2930  220.2550 C   0  0  0  0  0  0  0  0  0  0  0  0
  144.3780   73.7010  220.8290 O   0  0  0  0  0  0  0  0  0  0  0  0
  143.7710   75.3150  219.3000 C   0  0  0  0  0  0  0  0  0  0  0  0
  143.3890   76.6380  219.6870 N   0  0  0  0  0  0  0  0  0  0  0  0
  142.3010   77.2240  218.9210 C   0  0  0  0  0  0  0  0  0  0  0  0
  141.8300   76.5110  218.0260 O   0  0  0  0  0  0  0  0  0  0  0  0
  141.8490   78.5710  219.2460 C   0  0  0  0  0  0  0  0  0  0  0  0
  141.1280   79.2500  218.2870 C   0  0  0  0  0  0  0  0  0  0  0  0
  140.6420   80.5270  218.4640 C   0  0  0  0  0  0  0  0  0  0  0  0
  140.9200   81.1220  219.6960 C   0  0  0  0  0  0  0  0  0  0  0  0
  140.4460   82.4080  219.9100 C   0  0  0  0  0  0  0  0  0  0  0  0
  140.7010   83.0250  221.1110 C   0  0  0  0  0  0  0  0  0  0  0  0
  140.2620   84.2940  221.3890 F   0  0  0  0  0  0  0  0  0  0  0  0
  141.4300   82.3350  222.0790 C   0  0  0  0  0  0  0  0  0  0  0  0
  141.9000   81.0490  221.8540 C   0  0  0  0  0  0  0  0  0  0  0  0
  141.6400   80.4260  220.6370 C   0  0  0  0  0  0  0  0  0  0  0  0
  142.0970   79.1730  220.4160 N   0  0  0  0  0  0  0  0  0  0  0  0
  140.8770   78.5620  223.4370 C   0  0  0  0  0  0  0  0  0  0  0  0
  140.1360   79.5620  224.0640 C   0  0  0  0  0  0  0  0  0  0  0  0
  138.0670   80.1230  226.3020 H   0  0  0  0  0  0  0  0  0  0  0  0
  137.5017   83.4472  224.8202 H   0  0  0  0  0  0  0  0  0  0  0  0
  136.0344   85.1545  225.8927 H   0  0  0  0  0  0  0  0  0  0  0  0
  134.6332   84.6028  227.8299 H   0  0  0  0  0  0  0  0  0  0  0  0
  134.6440   82.3048  228.7949 H   0  0  0  0  0  0  0  0  0  0  0  0
  136.1153   80.5767  227.7295 H   0  0  0  0  0  0  0  0  0  0  0  0
  137.2634   79.2693  222.3165 H   0  0  0  0  0  0  0  0  0  0  0  0
  138.5939   77.4988  221.2186 H   0  0  0  0  0  0  0  0  0  0  0  0
  141.9450   77.0800  221.2110 H   0  0  0  0  0  0  0  0  0  0  0  0
  141.3410   74.9086  222.7093 H   0  0  0  0  0  0  0  0  0  0  0  0
  139.6711   75.3232  222.2868 H   0  0  0  0  0  0  0  0  0  0  0  0
  141.0135   75.5422  219.8684 H   0  0  0  0  0  0  0  0  0  0  0  0
  138.9605   73.9228  220.9981 H   0  0  0  0  0  0  0  0  0  0  0  0
  139.3040   74.1310  219.2823 H   0  0  0  0  0  0  0  0  0  0  0  0
  139.6306   71.7026  220.6011 H   0  0  0  0  0  0  0  0  0  0  0  0
  140.5997   72.0782  219.2120 H   0  0  0  0  0  0  0  0  0  0  0  0
  141.2046   72.7239  222.1930 H   0  0  0  0  0  0  0  0  0  0  0  0
  142.2211   71.7661  221.1492 H   0  0  0  0  0  0  0  0  0  0  0  0
  144.8663   75.2819  219.2040 H   0  0  0  0  0  0  0  0  0  0  0  0
  143.2646   75.0949  218.3486 H   0  0  0  0  0  0  0  0  0  0  0  0
  143.8370   77.1830  220.4630 H   0  0  0  0  0  0  0  0  0  0  0  0
  140.9303   78.7455  217.3297 H   0  0  0  0  0  0  0  0  0  0  0  0
  140.0693   81.0465  217.6816 H   0  0  0  0  0  0  0  0  0  0  0  0
  139.8730   82.9275  219.1278 H   0  0  0  0  0  0  0  0  0  0  0  0
  141.6373   82.8216  223.0435 H   0  0  0  0  0  0  0  0  0  0  0  0
  142.4743   80.5254  222.6324 H   0  0  0  0  0  0  0  0  0  0  0  0
  141.9081   78.3710  223.7692 H   0  0  0  0  0  0  0  0  0  0  0  0
  140.5877   80.1467  224.8789 H   0  0  0  0  0  0  0  0  0  0  0  0
  1  2  2  0
  2  3  1  0
  3  4  1  0
  4  5  2  0
  5  6  1  0
  6  7  2  0
  7  8  1  0
  8  9  2  0
  2 10  1  0
 10 11  2  0
 11 12  1  0
 12 13  2  0
 13 14  1  0
 14 15  1  0
 15 16  1  0
 16 17  1  0
 17 18  1  0
 18 19  1  0
 19 20  1  0
 20 21  1  0
 21 22  2  0
 21 23  1  0
 23 24  1  0
 24 25  1  0
 25 26  2  0
 25 27  1  0
 27 28  2  0
 28 29  1  0
 29 30  2  0
 30 31  1  0
 31 32  2  0
 32 33  1  0
 32 34  1  0
 34 35  2  0
 35 36  1  0
 36 37  2  0
 13 38  1  0
 38 39  2  0
  9  4  1  0
 39 10  1  0
 20 16  1  0
 37 27  1  0
 36 30  1  0
  3 40  1  0
  5 41  1  0
  6 42  1  0
  7 43  1  0
  8 44  1  0
  9 45  1  0
 11 46  1  0
 12 47  1  0
 14 48  1  0
 15 49  1  0
 15 50  1  0
 16 51  1  6
 17 52  1  0
 17 53  1  0
 18 54  1  0
 18 55  1  0
 19 56  1  0
 19 57  1  0
 23 58  1  0
 23 59  1  0
 24 60  1  0
 28 61  1  0
 29 62  1  0
 31 63  1  0
 34 64  1  0
 35 65  1  0
 38 66  1  0
 39 67  1  0
M  END
>  <smiles>  (41) 
O=C(Nc1ccccc1)c1ccc(NC[C@@H]2CCCN2C(=O)CNC(=O)c2ccc3cc(F)ccc3n2)cc1

>  <score_type>  (41) 
oracle

>  <origin>  (41) 
autodockgpu

>  <m_score__min__energy>  (41) 
-9.8599999999999994

>  <m_primary>  (41) 
energy

>  <rmsd>  (41) 
8.735178667872741

>  <m_score__min__rmsd>  (41) 
8.735178667872741

>  <meeko>  (41) 
{"free_energy": -7.39, "intermolecular_energy": -10.08, "internal_energy": -3.88, "cluster_size": 4, "cluster_id": 11, "rank_in_cluster": 1}

>  <energy>  (41) 
-6.85

>  <cluster_rmsd>  (41) 
0.0

>  <cluster>  (41) 
15

$$$$

     RDKit          3D

 67 71  0  0  0  0  0  0  0  0999 V2000
  139.6440   81.2670  224.2000 O   0  0  0  0  0  0  0  0  0  0  0  0
  138.8660   80.2920  224.0360 C   0  0  0  0  0  0  0  0  0  0  0  0
  137.5170   80.3750  224.4610 N   0  0  0  0  0  0  0  0  0  0  0  0
  137.0150   81.5730  225.0850 C   0  0  0  0  0  0  0  0  0  0  0  0
  136.7030   82.6980  224.3280 C   0  0  0  0  0  0  0  0  0  0  0  0
  136.2270   83.8070  225.0120 C   0  0  0  0  0  0  0  0  0  0  0  0
  136.0620   83.8100  226.3810 C   0  0  0  0  0  0  0  0  0  0  0  0
  136.3700   82.6960  227.1360 C   0  0  0  0  0  0  0  0  0  0  0  0
  136.8510   81.5730  226.4570 C   0  0  0  0  0  0  0  0  0  0  0  0
  139.4210   79.1000  223.3980 C   0  0  0  0  0  0  0  0  0  0  0  0
  140.7910   79.0080  223.2720 C   0  0  0  0  0  0  0  0  0  0  0  0
  141.3620   77.8900  222.6710 C   0  0  0  0  0  0  0  0  0  0  0  0
  140.6020   76.8440  222.1840 C   0  0  0  0  0  0  0  0  0  0  0  0
  141.1920   75.6980  221.5680 N   0  0  0  0  0  0  0  0  0  0  0  0
  140.3480   74.8280  220.7700 C   0  0  0  0  0  0  0  0  0  0  0  0
  139.9660   73.6770  221.6700 C   0  0  2  0  0  0  0  0  0  0  0  0
  141.1150   72.7550  221.9250 C   0  0  0  0  0  0  0  0  0  0  0  0
  140.7080   71.4430  221.2760 C   0  0  0  0  0  0  0  0  0  0  0  0
  139.7240   71.9410  220.2320 C   0  0  0  0  0  0  0  0  0  0  0  0
  138.9160   72.8400  220.9930 N   0  0  0  0  0  0  0  0  0  0  0  0
  137.5650   73.0640  221.2400 C   0  0  0  0  0  0  0  0  0  0  0  0
  136.9820   73.8910  220.4060 O   0  0  0  0  0  0  0  0  0  0  0  0
  136.6490   72.5530  222.2530 C   0  0  0  0  0  0  0  0  0  0  0  0
  137.3160   72.0050  223.3940 N   0  0  0  0  0  0  0  0  0  0  0  0
  137.9190   70.6960  223.1970 C   0  0  0  0  0  0  0  0  0  0  0  0
  137.7890   70.2110  222.0660 O   0  0  0  0  0  0  0  0  0  0  0  0
  138.6170   70.0620  224.3080 C   0  0  0  0  0  0  0  0  0  0  0  0
  138.6830   68.6850  224.3150 C   0  0  0  0  0  0  0  0  0  0  0  0
  139.3110   67.9590  225.3040 C   0  0  0  0  0  0  0  0  0  0  0  0
  139.8960   68.7030  226.3300 C   0  0  0  0  0  0  0  0  0  0  0  0
  140.5370   68.0060  227.3430 C   0  0  0  0  0  0  0  0  0  0  0  0
  141.1240   68.7050  228.3700 C   0  0  0  0  0  0  0  0  0  0  0  0
  141.7740   68.0800  229.4030 F   0  0  0  0  0  0  0  0  0  0  0  0
  141.0560   70.0990  228.3600 C   0  0  0  0  0  0  0  0  0  0  0  0
  140.4110   70.7850  227.3410 C   0  0  0  0  0  0  0  0  0  0  0  0
  139.8180   70.0750  226.3030 C   0  0  0  0  0  0  0  0  0  0  0  0
  139.1880   70.7420  225.3090 N   0  0  0  0  0  0  0  0  0  0  0  0
  139.2290   76.9560  222.3200 C   0  0  0  0  0  0  0  0  0  0  0  0
  138.6410   78.0680  222.9190 C   0  0  0  0  0  0  0  0  0  0  0  0
  136.8660   79.5710  224.3280 H   0  0  0  0  0  0  0  0  0  0  0  0
  136.8283   82.7076  223.2352 H   0  0  0  0  0  0  0  0  0  0  0  0
  135.9728   84.7138  224.4436 H   0  0  0  0  0  0  0  0  0  0  0  0
  135.6794   84.7132  226.8788 H   0  0  0  0  0  0  0  0  0  0  0  0
  136.2419   82.6923  228.2285 H   0  0  0  0  0  0  0  0  0  0  0  0
  137.1050   80.6679  227.0283 H   0  0  0  0  0  0  0  0  0  0  0  0
  141.4331   79.8187  223.6467 H   0  0  0  0  0  0  0  0  0  0  0  0
  142.4570   77.8373  222.5806 H   0  0  0  0  0  0  0  0  0  0  0  0
  142.2110   75.5410  221.7230 H   0  0  0  0  0  0  0  0  0  0  0  0
  139.4490   75.3677  220.4377 H   0  0  0  0  0  0  0  0  0  0  0  0
  140.8705   74.4772  219.8678 H   0  0  0  0  0  0  0  0  0  0  0  0
  139.6174   74.1204  222.6144 H   0  0  0  0  0  0  0  0  0  0  0  0
  142.0352   73.1458  221.4661 H   0  0  0  0  0  0  0  0  0  0  0  0
  141.3264   72.6404  222.9984 H   0  0  0  0  0  0  0  0  0  0  0  0
  141.5674   70.9353  220.8138 H   0  0  0  0  0  0  0  0  0  0  0  0
  140.2976   70.6965  221.9719 H   0  0  0  0  0  0  0  0  0  0  0  0
  140.2401   72.4629  219.4127 H   0  0  0  0  0  0  0  0  0  0  0  0
  139.1539   71.1389  219.7405 H   0  0  0  0  0  0  0  0  0  0  0  0
  136.0039   73.3783  222.5887 H   0  0  0  0  0  0  0  0  0  0  0  0
  136.0726   71.7385  221.7901 H   0  0  0  0  0  0  0  0  0  0  0  0
  137.3860   72.4800  224.3260 H   0  0  0  0  0  0  0  0  0  0  0  0
  138.2093   68.1366  223.4874 H   0  0  0  0  0  0  0  0  0  0  0  0
  139.3489   66.8598  225.2859 H   0  0  0  0  0  0  0  0  0  0  0  0
  140.5751   66.9068  227.3246 H   0  0  0  0  0  0  0  0  0  0  0  0
  141.5241   70.6663  229.1780 H   0  0  0  0  0  0  0  0  0  0  0  0
  140.3690   71.8841  227.3542 H   0  0  0  0  0  0  0  0  0  0  0  0
  138.5856   76.1462  221.9455 H   0  0  0  0  0  0  0  0  0  0  0  0
  137.5462   78.1235  223.0107 H   0  0  0  0  0  0  0  0  0  0  0  0
  1  2  2  0
  2  3  1  0
  3  4  1  0
  4  5  2  0
  5  6  1  0
  6  7  2  0
  7  8  1  0
  8  9  2  0
  2 10  1  0
 10 11  2  0
 11 12  1  0
 12 13  2  0
 13 14  1  0
 14 15  1  0
 15 16  1  0
 16 17  1  0
 17 18  1  0
 18 19  1  0
 19 20  1  0
 20 21  1  0
 21 22  2  0
 21 23  1  0
 23 24  1  0
 24 25  1  0
 25 26  2  0
 25 27  1  0
 27 28  2  0
 28 29  1  0
 29 30  2  0
 30 31  1  0
 31 32  2  0
 32 33  1  0
 32 34  1  0
 34 35  2  0
 35 36  1  0
 36 37  2  0
 13 38  1  0
 38 39  2  0
  9  4  1  0
 39 10  1  0
 20 16  1  0
 37 27  1  0
 36 30  1  0
  3 40  1  0
  5 41  1  0
  6 42  1  0
  7 43  1  0
  8 44  1  0
  9 45  1  0
 11 46  1  0
 12 47  1  0
 14 48  1  0
 15 49  1  0
 15 50  1  0
 16 51  1  1
 17 52  1  0
 17 53  1  0
 18 54  1  0
 18 55  1  0
 19 56  1  0
 19 57  1  0
 23 58  1  0
 23 59  1  0
 24 60  1  0
 28 61  1  0
 29 62  1  0
 31 63  1  0
 34 64  1  0
 35 65  1  0
 38 66  1  0
 39 67  1  0
M  END
>  <smiles>  (42) 
O=C(Nc1ccccc1)c1ccc(NC[C@@H]2CCCN2C(=O)CNC(=O)c2ccc3cc(F)ccc3n2)cc1

>  <score_type>  (42) 
oracle

>  <origin>  (42) 
autodockgpu

>  <m_score__min__energy>  (42) 
-9.8599999999999994

>  <m_primary>  (42) 
energy

>  <rmsd>  (42) 
5.049135125002313

>  <m_score__min__rmsd>  (42) 
5.049135125002313

>  <meeko>  (42) 
{"free_energy": -9.12, "intermolecular_energy": -11.81, "internal_energy": -2.32, "cluster_size": 2, "cluster_id": 3, "rank_in_cluster": 1}

>  <energy>  (42) 
-6.19

>  <cluster_rmsd>  (42) 
1.55

>  <cluster>  (42) 
15

$$$$

     RDKit          3D

 67 71  0  0  0  0  0  0  0  0999 V2000
  142.1160   78.9000  219.1440 O   0  0  0  0  0  0  0  0  0  0  0  0
  142.0490   77.8260  219.7940 C   0  0  0  0  0  0  0  0  0  0  0  0
  141.8770   77.8510  221.2010 N   0  0  0  0  0  0  0  0  0  0  0  0
  141.7760   79.1030  221.9070 C   0  0  0  0  0  0  0  0  0  0  0  0
  140.7190   79.9770  221.6670 C   0  0  0  0  0  0  0  0  0  0  0  0
  140.7010   81.1590  222.3910 C   0  0  0  0  0  0  0  0  0  0  0  0
  141.6790   81.4700  223.3130 C   0  0  0  0  0  0  0  0  0  0  0  0
  142.7280   80.6070  223.5530 C   0  0  0  0  0  0  0  0  0  0  0  0
  142.7570   79.4120  222.8290 C   0  0  0  0  0  0  0  0  0  0  0  0
  142.1570   76.5830  219.0340 C   0  0  0  0  0  0  0  0  0  0  0  0
  141.0050   75.8620  218.7980 C   0  0  0  0  0  0  0  0  0  0  0  0
  141.0620   74.6730  218.0790 C   0  0  0  0  0  0  0  0  0  0  0  0
  142.2470   74.1680  217.5780 C   0  0  0  0  0  0  0  0  0  0  0  0
  142.3020   72.9460  216.8400 N   0  0  0  0  0  0  0  0  0  0  0  0
  142.6230   71.7210  217.5490 C   0  0  0  0  0  0  0  0  0  0  0  0
  144.1190   71.5570  217.4430 C   0  0  2  0  0  0  0  0  0  0  0  0
  144.5010   70.2720  216.7810 C   0  0  0  0  0  0  0  0  0  0  0  0
  145.2130   69.4780  217.8630 C   0  0  0  0  0  0  0  0  0  0  0  0
  144.6100   70.1010  219.1090 C   0  0  0  0  0  0  0  0  0  0  0  0
  144.7150   71.4960  218.8220 N   0  0  0  0  0  0  0  0  0  0  0  0
  145.2050   72.6460  219.4330 C   0  0  0  0  0  0  0  0  0  0  0  0
  145.9670   73.3930  218.6690 O   0  0  0  0  0  0  0  0  0  0  0  0
  145.0390   73.2020  220.7710 C   0  0  0  0  0  0  0  0  0  0  0  0
  143.7940   73.8840  220.9490 N   0  0  0  0  0  0  0  0  0  0  0  0
  142.6210   73.0300  221.0480 C   0  0  0  0  0  0  0  0  0  0  0  0
  142.8350   71.8140  220.9700 O   0  0  0  0  0  0  0  0  0  0  0  0
  141.3110   73.6420  221.2280 C   0  0  0  0  0  0  0  0  0  0  0  0
  140.2110   72.9290  220.8000 C   0  0  0  0  0  0  0  0  0  0  0  0
  138.9170   73.3890  220.9100 C   0  0  0  0  0  0  0  0  0  0  0  0
  138.7640   74.6490  221.4920 C   0  0  0  0  0  0  0  0  0  0  0  0
  137.4750   75.1450  221.6200 C   0  0  0  0  0  0  0  0  0  0  0  0
  137.2860   76.3820  222.1880 C   0  0  0  0  0  0  0  0  0  0  0  0
  136.0400   76.9330  222.3440 F   0  0  0  0  0  0  0  0  0  0  0  0
  138.4010   77.1000  222.6200 C   0  0  0  0  0  0  0  0  0  0  0  0
  139.6860   76.5940  222.4870 C   0  0  0  0  0  0  0  0  0  0  0  0
  139.8740   75.3420  221.9120 C   0  0  0  0  0  0  0  0  0  0  0  0
  141.1260   74.8460  221.7810 N   0  0  0  0  0  0  0  0  0  0  0  0
  143.3920   74.9050  217.8250 C   0  0  0  0  0  0  0  0  0  0  0  0
  143.3530   76.0990  218.5440 C   0  0  0  0  0  0  0  0  0  0  0  0
  141.8210   76.9640  221.7460 H   0  0  0  0  0  0  0  0  0  0  0  0
  139.9328   79.7400  220.9351 H   0  0  0  0  0  0  0  0  0  0  0  0
  139.8802   81.8722  222.2250 H   0  0  0  0  0  0  0  0  0  0  0  0
  141.6214   82.4199  223.8647 H   0  0  0  0  0  0  0  0  0  0  0  0
  143.5114   80.8500  224.2859 H   0  0  0  0  0  0  0  0  0  0  0  0
  143.5797   78.7014  222.9972 H   0  0  0  0  0  0  0  0  0  0  0  0
  140.0401   76.2279  219.1790 H   0  0  0  0  0  0  0  0  0  0  0  0
  140.1308   74.1146  217.9027 H   0  0  0  0  0  0  0  0  0  0  0  0
  142.1070   72.9940  215.8160 H   0  0  0  0  0  0  0  0  0  0  0  0
  142.3213   71.8000  218.6038 H   0  0  0  0  0  0  0  0  0  0  0  0
  142.0924   70.8577  217.1210 H   0  0  0  0  0  0  0  0  0  0  0  0
  144.4857   72.4113  216.8550 H   0  0  0  0  0  0  0  0  0  0  0  0
  143.6070   69.7353  216.4307 H   0  0  0  0  0  0  0  0  0  0  0  0
  145.1351   70.4318  215.8964 H   0  0  0  0  0  0  0  0  0  0  0  0
  144.9844   68.4042  217.7951 H   0  0  0  0  0  0  0  0  0  0  0  0
  146.3111   69.5221  217.8151 H   0  0  0  0  0  0  0  0  0  0  0  0
  143.5609   69.7975  219.2403 H   0  0  0  0  0  0  0  0  0  0  0  0
  145.1093   69.8006  220.0420 H   0  0  0  0  0  0  0  0  0  0  0  0
  145.0945   72.3802  221.5001 H   0  0  0  0  0  0  0  0  0  0  0  0
  145.8400   73.9413  220.9187 H   0  0  0  0  0  0  0  0  0  0  0  0
  143.6910   74.9260  221.0080 H   0  0  0  0  0  0  0  0  0  0  0  0
  140.3754   71.9404  220.3466 H   0  0  0  0  0  0  0  0  0  0  0  0
  138.0566   72.7994  220.5605 H   0  0  0  0  0  0  0  0  0  0  0  0
  136.6145   74.5553  221.2711 H   0  0  0  0  0  0  0  0  0  0  0  0
  138.2583   78.0905  223.0768 H   0  0  0  0  0  0  0  0  0  0  0  0
  140.5503   77.1793  222.8341 H   0  0  0  0  0  0  0  0  0  0  0  0
  144.3572   74.5396  217.4445 H   0  0  0  0  0  0  0  0  0  0  0  0
  144.2826   76.6595  218.7221 H   0  0  0  0  0  0  0  0  0  0  0  0
  1  2  2  0
  2  3  1  0
  3  4  1  0
  4  5  2  0
  5  6  1  0
  6  7  2  0
  7  8  1  0
  8  9  2  0
  2 10  1  0
 10 11  2  0
 11 12  1  0
 12 13  2  0
 13 14  1  0
 14 15  1  0
 15 16  1  0
 16 17  1  0
 17 18  1  0
 18 19  1  0
 19 20  1  0
 20 21  1  0
 21 22  2  0
 21 23  1  0
 23 24  1  0
 24 25  1  0
 25 26  2  0
 25 27  1  0
 27 28  2  0
 28 29  1  0
 29 30  2  0
 30 31  1  0
 31 32  2  0
 32 33  1  0
 32 34  1  0
 34 35  2  0
 35 36  1  0
 36 37  2  0
 13 38  1  0
 38 39  2  0
  9  4  1  0
 39 10  1  0
 20 16  1  0
 37 27  1  0
 36 30  1  0
  3 40  1  0
  5 41  1  0
  6 42  1  0
  7 43  1  0
  8 44  1  0
  9 45  1  0
 11 46  1  0
 12 47  1  0
 14 48  1  0
 15 49  1  0
 15 50  1  0
 16 51  1  6
 17 52  1  0
 17 53  1  0
 18 54  1  0
 18 55  1  0
 19 56  1  0
 19 57  1  0
 23 58  1  0
 23 59  1  0
 24 60  1  0
 28 61  1  0
 29 62  1  0
 31 63  1  0
 34 64  1  0
 35 65  1  0
 38 66  1  0
 39 67  1  0
M  END
>  <smiles>  (43) 
O=C(Nc1ccccc1)c1ccc(NC[C@@H]2CCCN2C(=O)CNC(=O)c2ccc3cc(F)ccc3n2)cc1

>  <score_type>  (43) 
oracle

>  <origin>  (43) 
autodockgpu

>  <m_score__min__energy>  (43) 
-9.8599999999999994

>  <m_primary>  (43) 
energy

>  <rmsd>  (43) 
5.625723014748919

>  <m_score__min__rmsd>  (43) 
5.625723014748919

>  <meeko>  (43) 
{"free_energy": -7.03, "intermolecular_energy": -9.71, "internal_energy": -4.77, "cluster_size": 3, "cluster_id": 13, "rank_in_cluster": 2}

>  <energy>  (43) 
-6.02

>  <cluster_rmsd>  (43) 
1.98

>  <cluster>  (43) 
15

$$$$

     RDKit          3D

 67 71  0  0  0  0  0  0  0  0999 V2000
  138.8280   77.6690  222.3090 O   0  0  0  0  0  0  0  0  0  0  0  0
  139.6530   76.7200  222.3030 C   0  0  0  0  0  0  0  0  0  0  0  0
  141.0410   76.9790  222.4320 N   0  0  0  0  0  0  0  0  0  0  0  0
  141.5270   78.3280  222.5720 C   0  0  0  0  0  0  0  0  0  0  0  0
  141.8140   78.8600  223.8260 C   0  0  0  0  0  0  0  0  0  0  0  0
  142.2770   80.1660  223.8680 C   0  0  0  0  0  0  0  0  0  0  0  0
  142.4520   80.9190  222.7250 C   0  0  0  0  0  0  0  0  0  0  0  0
  142.1690   80.3960  221.4800 C   0  0  0  0  0  0  0  0  0  0  0  0
  141.7020   79.0800  221.4270 C   0  0  0  0  0  0  0  0  0  0  0  0
  139.1120   75.3710  222.1590 C   0  0  0  0  0  0  0  0  0  0  0  0
  139.9990   74.3310  221.9770 C   0  0  0  0  0  0  0  0  0  0  0  0
  139.5260   73.0290  221.8350 C   0  0  0  0  0  0  0  0  0  0  0  0
  138.1790   72.7250  221.8690 C   0  0  0  0  0  0  0  0  0  0  0  0
  137.6980   71.3870  221.7230 N   0  0  0  0  0  0  0  0  0  0  0  0
  136.3390   71.0890  222.1370 C   0  0  0  0  0  0  0  0  0  0  0  0
  135.7000   70.3630  220.9790 C   0  0  2  0  0  0  0  0  0  0  0  0
  134.2210   70.2240  221.1480 C   0  0  0  0  0  0  0  0  0  0  0  0
  133.9860   68.7290  221.2820 C   0  0  0  0  0  0  0  0  0  0  0  0
  135.3420   68.2790  221.7970 C   0  0  0  0  0  0  0  0  0  0  0  0
  136.2340   68.9580  220.9130 N   0  0  0  0  0  0  0  0  0  0  0  0
  137.3150   68.6510  220.0930 C   0  0  0  0  0  0  0  0  0  0  0  0
  137.0740   68.7360  218.8070 O   0  0  0  0  0  0  0  0  0  0  0  0
  138.6880   68.2500  220.3790 C   0  0  0  0  0  0  0  0  0  0  0  0
  139.2170   68.8490  221.5650 N   0  0  0  0  0  0  0  0  0  0  0  0
  138.8000   68.2350  222.8160 C   0  0  0  0  0  0  0  0  0  0  0  0
  138.0400   67.2640  222.7090 O   0  0  0  0  0  0  0  0  0  0  0  0
  139.2900   68.7830  224.0740 C   0  0  0  0  0  0  0  0  0  0  0  0
  139.2350   67.9710  225.1870 C   0  0  0  0  0  0  0  0  0  0  0  0
  139.6640   68.3630  226.4360 C   0  0  0  0  0  0  0  0  0  0  0  0
  140.1730   69.6600  226.5280 C   0  0  0  0  0  0  0  0  0  0  0  0
  140.6150   70.0900  227.7710 C   0  0  0  0  0  0  0  0  0  0  0  0
  141.1220   71.3600  227.9000 C   0  0  0  0  0  0  0  0  0  0  0  0
  141.5760   71.8490  229.0980 F   0  0  0  0  0  0  0  0  0  0  0  0
  141.1770   72.1790  226.7710 C   0  0  0  0  0  0  0  0  0  0  0  0
  140.7310   71.7390  225.5340 C   0  0  0  0  0  0  0  0  0  0  0  0
  140.2190   70.4520  225.4060 C   0  0  0  0  0  0  0  0  0  0  0  0
  139.7840   70.0210  224.2000 N   0  0  0  0  0  0  0  0  0  0  0  0
  137.3050   73.7820  222.0520 C   0  0  0  0  0  0  0  0  0  0  0  0
  137.7610   75.0920  222.1960 C   0  0  0  0  0  0  0  0  0  0  0  0
  141.7310   76.1970  222.4280 H   0  0  0  0  0  0  0  0  0  0  0  0
  141.6792   78.2694  224.7442 H   0  0  0  0  0  0  0  0  0  0  0  0
  142.5124   80.6164  224.8436 H   0  0  0  0  0  0  0  0  0  0  0  0
  142.8226   81.9514  222.8077 H   0  0  0  0  0  0  0  0  0  0  0  0
  142.3056   80.9914  220.5652 H   0  0  0  0  0  0  0  0  0  0  0  0
  141.4682   78.6323  220.4498 H   0  0  0  0  0  0  0  0  0  0  0  0
  141.0804   74.5299  221.9440 H   0  0  0  0  0  0  0  0  0  0  0  0
  140.2505   72.2140  221.6907 H   0  0  0  0  0  0  0  0  0  0  0  0
  138.3540   70.6820  221.3220 H   0  0  0  0  0  0  0  0  0  0  0  0
  136.3439   70.4502  223.0325 H   0  0  0  0  0  0  0  0  0  0  0  0
  135.7860   72.0050  222.3922 H   0  0  0  0  0  0  0  0  0  0  0  0
  135.9271   70.9509  220.0775 H   0  0  0  0  0  0  0  0  0  0  0  0
  133.8826   70.7522  222.0516 H   0  0  0  0  0  0  0  0  0  0  0  0
  133.6635   70.6587  220.3052 H   0  0  0  0  0  0  0  0  0  0  0  0
  133.1844   68.5071  222.0019 H   0  0  0  0  0  0  0  0  0  0  0  0
  133.6600   68.2321  220.3564 H   0  0  0  0  0  0  0  0  0  0  0  0
  135.4975   68.5918  222.8401 H   0  0  0  0  0  0  0  0  0  0  0  0
  135.4729   67.1869  221.8074 H   0  0  0  0  0  0  0  0  0  0  0  0
  138.7148   67.1568  220.4982 H   0  0  0  0  0  0  0  0  0  0  0  0
  139.3089   68.5906  219.5373 H   0  0  0  0  0  0  0  0  0  0  0  0
  139.8620   69.6760  221.5770 H   0  0  0  0  0  0  0  0  0  0  0  0
  138.8268   66.9561  225.0714 H   0  0  0  0  0  0  0  0  0  0  0  0
  139.6089   67.6948  227.3080 H   0  0  0  0  0  0  0  0  0  0  0  0
  140.5600   69.4216  228.6429 H   0  0  0  0  0  0  0  0  0  0  0  0
  141.5835   73.1968  226.8648 H   0  0  0  0  0  0  0  0  0  0  0  0
  140.7818   72.4038  224.6591 H   0  0  0  0  0  0  0  0  0  0  0  0
  136.2234   73.5840  222.0847 H   0  0  0  0  0  0  0  0  0  0  0  0
  137.0385   75.9089  222.3401 H   0  0  0  0  0  0  0  0  0  0  0  0
  1  2  2  0
  2  3  1  0
  3  4  1  0
  4  5  2  0
  5  6  1  0
  6  7  2  0
  7  8  1  0
  8  9  2  0
  2 10  1  0
 10 11  2  0
 11 12  1  0
 12 13  2  0
 13 14  1  0
 14 15  1  0
 15 16  1  0
 16 17  1  0
 17 18  1  0
 18 19  1  0
 19 20  1  0
 20 21  1  0
 21 22  2  0
 21 23  1  0
 23 24  1  0
 24 25  1  0
 25 26  2  0
 25 27  1  0
 27 28  2  0
 28 29  1  0
 29 30  2  0
 30 31  1  0
 31 32  2  0
 32 33  1  0
 32 34  1  0
 34 35  2  0
 35 36  1  0
 36 37  2  0
 13 38  1  0
 38 39  2  0
  9  4  1  0
 39 10  1  0
 20 16  1  0
 37 27  1  0
 36 30  1  0
  3 40  1  0
  5 41  1  0
  6 42  1  0
  7 43  1  0
  8 44  1  0
  9 45  1  0
 11 46  1  0
 12 47  1  0
 14 48  1  0
 15 49  1  0
 15 50  1  0
 16 51  1  6
 17 52  1  0
 17 53  1  0
 18 54  1  0
 18 55  1  0
 19 56  1  0
 19 57  1  0
 23 58  1  0
 23 59  1  0
 24 60  1  0
 28 61  1  0
 29 62  1  0
 31 63  1  0
 34 64  1  0
 35 65  1  0
 38 66  1  0
 39 67  1  0
M  END
>  <smiles>  (44) 
O=C(Nc1ccccc1)c1ccc(NC[C@@H]2CCCN2C(=O)CNC(=O)c2ccc3cc(F)ccc3n2)cc1

>  <score_type>  (44) 
oracle

>  <origin>  (44) 
autodockgpu

>  <m_score__min__energy>  (44) 
-9.8599999999999994

>  <m_primary>  (44) 
energy

>  <rmsd>  (44) 
4.081012649988402

>  <m_score__min__rmsd>  (44) 
4.081012649988402

>  <meeko>  (44) 
{"free_energy": -8.12, "intermolecular_energy": -10.81, "internal_energy": -2.82, "cluster_size": 9, "cluster_id": 5, "rank_in_cluster": 3}

>  <energy>  (44) 
-6.84

>  <cluster_rmsd>  (44) 
0.0

>  <cluster>  (44) 
16

$$$$

     RDKit          3D

 67 71  0  0  0  0  0  0  0  0999 V2000
  142.1290   79.2540  219.2530 O   0  0  0  0  0  0  0  0  0  0  0  0
  142.1640   78.1100  219.7740 C   0  0  0  0  0  0  0  0  0  0  0  0
  141.9640   77.9530  221.1690 N   0  0  0  0  0  0  0  0  0  0  0  0
  141.7190   79.0980  222.0100 C   0  0  0  0  0  0  0  0  0  0  0  0
  140.5520   79.8440  221.8800 C   0  0  0  0  0  0  0  0  0  0  0  0
  140.3990   80.9290  222.7300 C   0  0  0  0  0  0  0  0  0  0  0  0
  141.3520   81.2660  223.6690 C   0  0  0  0  0  0  0  0  0  0  0  0
  142.5110   80.5280  223.8010 C   0  0  0  0  0  0  0  0  0  0  0  0
  142.6750   79.4330  222.9490 C   0  0  0  0  0  0  0  0  0  0  0  0
  142.4150   76.9810  218.8810 C   0  0  0  0  0  0  0  0  0  0  0  0
  141.7080   75.8160  219.0900 C   0  0  0  0  0  0  0  0  0  0  0  0
  141.9160   74.7170  218.2630 C   0  0  0  0  0  0  0  0  0  0  0  0
  142.8200   74.7390  217.2180 C   0  0  0  0  0  0  0  0  0  0  0  0
  143.0310   73.6080  216.3710 N   0  0  0  0  0  0  0  0  0  0  0  0
  142.7150   72.2880  216.8850 C   0  0  0  0  0  0  0  0  0  0  0  0
  144.0380   71.6380  217.2080 C   0  0  2  0  0  0  0  0  0  0  0  0
  144.0740   70.1990  216.8030 C   0  0  0  0  0  0  0  0  0  0  0  0
  144.1960   69.4330  218.1100 C   0  0  0  0  0  0  0  0  0  0  0  0
  143.5930   70.4350  219.0780 C   0  0  0  0  0  0  0  0  0  0  0  0
  144.2490   71.6450  218.6980 N   0  0  0  0  0  0  0  0  0  0  0  0
  144.9670   72.6700  219.3050 C   0  0  0  0  0  0  0  0  0  0  0  0
  145.9100   73.1970  218.5620 O   0  0  0  0  0  0  0  0  0  0  0  0
  144.8800   73.2910  220.6220 C   0  0  0  0  0  0  0  0  0  0  0  0
  143.6410   73.9700  220.8470 N   0  0  0  0  0  0  0  0  0  0  0  0
  142.5130   73.1160  221.1840 C   0  0  0  0  0  0  0  0  0  0  0  0
  142.7550   71.9040  221.2410 O   0  0  0  0  0  0  0  0  0  0  0  0
  141.2110   73.7240  221.4270 C   0  0  0  0  0  0  0  0  0  0  0  0
  140.0930   72.9500  221.1960 C   0  0  0  0  0  0  0  0  0  0  0  0
  138.8040   73.4000  221.3850 C   0  0  0  0  0  0  0  0  0  0  0  0
  138.6770   74.7160  221.8340 C   0  0  0  0  0  0  0  0  0  0  0  0
  137.3930   75.2040  222.0360 C   0  0  0  0  0  0  0  0  0  0  0  0
  137.2290   76.4940  222.4780 C   0  0  0  0  0  0  0  0  0  0  0  0
  135.9900   77.0390  222.6980 F   0  0  0  0  0  0  0  0  0  0  0  0
  138.3620   77.2740  222.7110 C   0  0  0  0  0  0  0  0  0  0  0  0
  139.6400   76.7760  222.5050 C   0  0  0  0  0  0  0  0  0  0  0  0
  139.8040   75.4690  222.0580 C   0  0  0  0  0  0  0  0  0  0  0  0
  141.0490   74.9810  221.8570 N   0  0  0  0  0  0  0  0  0  0  0  0
  143.5210   75.9170  217.0250 C   0  0  0  0  0  0  0  0  0  0  0  0
  143.3240   77.0280  217.8440 C   0  0  0  0  0  0  0  0  0  0  0  0
  141.9920   77.0070  221.6080 H   0  0  0  0  0  0  0  0  0  0  0  0
  139.7845   79.5847  221.1359 H   0  0  0  0  0  0  0  0  0  0  0  0
  139.4881   81.5409  222.6531 H   0  0  0  0  0  0  0  0  0  0  0  0
  141.1858   82.1355  224.3220 H   0  0  0  0  0  0  0  0  0  0  0  0
  143.2750   80.7915  224.5472 H   0  0  0  0  0  0  0  0  0  0  0  0
  143.5871   78.8232  223.0278 H   0  0  0  0  0  0  0  0  0  0  0  0
  140.9788   75.7555  219.9114 H   0  0  0  0  0  0  0  0  0  0  0  0
  141.3405   73.7979  218.4474 H   0  0  0  0  0  0  0  0  0  0  0  0
  143.4070   73.7870  215.4150 H   0  0  0  0  0  0  0  0  0  0  0  0
  142.0977   72.3690  217.7919 H   0  0  0  0  0  0  0  0  0  0  0  0
  142.1446   71.6973  216.1531 H   0  0  0  0  0  0  0  0  0  0  0  0
  144.8063   72.2062  216.6632 H   0  0  0  0  0  0  0  0  0  0  0  0
  143.1496   69.9213  216.2755 H   0  0  0  0  0  0  0  0  0  0  0  0
  144.9035   69.9813  216.1141 H   0  0  0  0  0  0  0  0  0  0  0  0
  143.6211   68.4955  218.0860 H   0  0  0  0  0  0  0  0  0  0  0  0
  145.2188   69.1142  218.3597 H   0  0  0  0  0  0  0  0  0  0  0  0
  142.5036   70.5124  218.9464 H   0  0  0  0  0  0  0  0  0  0  0  0
  143.7313   70.1685  220.1362 H   0  0  0  0  0  0  0  0  0  0  0  0
  144.9923   72.5072  221.3856 H   0  0  0  0  0  0  0  0  0  0  0  0
  145.6795   74.0443  220.6803 H   0  0  0  0  0  0  0  0  0  0  0  0
  143.5120   75.0080  220.7810 H   0  0  0  0  0  0  0  0  0  0  0  0
  140.2378   71.9186  220.8421 H   0  0  0  0  0  0  0  0  0  0  0  0
  137.9289   72.7615  221.1938 H   0  0  0  0  0  0  0  0  0  0  0  0
  136.5180   74.5655  221.8444 H   0  0  0  0  0  0  0  0  0  0  0  0
  138.2389   78.3078  223.0663 H   0  0  0  0  0  0  0  0  0  0  0  0
  140.5184   77.4106  222.6939 H   0  0  0  0  0  0  0  0  0  0  0  0
  144.2517   75.9780  216.2050 H   0  0  0  0  0  0  0  0  0  0  0  0
  143.8975   77.9489  217.6621 H   0  0  0  0  0  0  0  0  0  0  0  0
  1  2  2  0
  2  3  1  0
  3  4  1  0
  4  5  2  0
  5  6  1  0
  6  7  2  0
  7  8  1  0
  8  9  2  0
  2 10  1  0
 10 11  2  0
 11 12  1  0
 12 13  2  0
 13 14  1  0
 14 15  1  0
 15 16  1  0
 16 17  1  0
 17 18  1  0
 18 19  1  0
 19 20  1  0
 20 21  1  0
 21 22  2  0
 21 23  1  0
 23 24  1  0
 24 25  1  0
 25 26  2  0
 25 27  1  0
 27 28  2  0
 28 29  1  0
 29 30  2  0
 30 31  1  0
 31 32  2  0
 32 33  1  0
 32 34  1  0
 34 35  2  0
 35 36  1  0
 36 37  2  0
 13 38  1  0
 38 39  2  0
  9  4  1  0
 39 10  1  0
 20 16  1  0
 37 27  1  0
 36 30  1  0
  3 40  1  0
  5 41  1  0
  6 42  1  0
  7 43  1  0
  8 44  1  0
  9 45  1  0
 11 46  1  0
 12 47  1  0
 14 48  1  0
 15 49  1  0
 15 50  1  0
 16 51  1  6
 17 52  1  0
 17 53  1  0
 18 54  1  0
 18 55  1  0
 19 56  1  0
 19 57  1  0
 23 58  1  0
 23 59  1  0
 24 60  1  0
 28 61  1  0
 29 62  1  0
 31 63  1  0
 34 64  1  0
 35 65  1  0
 38 66  1  0
 39 67  1  0
M  END
>  <smiles>  (45) 
O=C(Nc1ccccc1)c1ccc(NC[C@@H]2CCCN2C(=O)CNC(=O)c2ccc3cc(F)ccc3n2)cc1

>  <score_type>  (45) 
oracle

>  <origin>  (45) 
autodockgpu

>  <m_score__min__energy>  (45) 
-9.8599999999999994

>  <m_primary>  (45) 
energy

>  <rmsd>  (45) 
5.67964916501119

>  <m_score__min__rmsd>  (45) 
5.67964916501119

>  <meeko>  (45) 
{"free_energy": -7.04, "intermolecular_energy": -9.73, "internal_energy": -4.3, "cluster_size": 3, "cluster_id": 13, "rank_in_cluster": 1}

>  <energy>  (45) 
-6.66

>  <cluster_rmsd>  (45) 
0.0

>  <cluster>  (45) 
17

$$$$

     RDKit          3D

 67 71  0  0  0  0  0  0  0  0999 V2000
  141.0690   81.2080  218.6530 O   0  0  0  0  0  0  0  0  0  0  0  0
  142.1140   80.5460  218.4270 C   0  0  0  0  0  0  0  0  0  0  0  0
  143.1650   81.1080  217.6620 N   0  0  0  0  0  0  0  0  0  0  0  0
  143.0550   82.4440  217.1300 C   0  0  0  0  0  0  0  0  0  0  0  0
  141.9600   82.8190  216.3580 C   0  0  0  0  0  0  0  0  0  0  0  0
  141.9360   84.1230  215.8880 C   0  0  0  0  0  0  0  0  0  0  0  0
  142.9460   85.0210  216.1650 C   0  0  0  0  0  0  0  0  0  0  0  0
  144.0340   84.6530  216.9290 C   0  0  0  0  0  0  0  0  0  0  0  0
  144.0680   83.3410  217.4090 C   0  0  0  0  0  0  0  0  0  0  0  0
  142.1780   79.1980  218.9870 C   0  0  0  0  0  0  0  0  0  0  0  0
  142.7150   78.1950  218.2070 C   0  0  0  0  0  0  0  0  0  0  0  0
  142.7960   76.8960  218.7000 C   0  0  0  0  0  0  0  0  0  0  0  0
  142.3540   76.5570  219.9650 C   0  0  0  0  0  0  0  0  0  0  0  0
  142.4380   75.2230  220.4670 N   0  0  0  0  0  0  0  0  0  0  0  0
  143.7270   74.5560  220.4520 C   0  0  0  0  0  0  0  0  0  0  0  0
  143.4320   73.0760  220.5040 C   0  0  2  0  0  0  0  0  0  0  0  0
  144.6690   72.2620  220.7070 C   0  0  0  0  0  0  0  0  0  0  0  0
  144.8160   71.4560  219.4270 C   0  0  0  0  0  0  0  0  0  0  0  0
  144.0580   72.3410  218.4530 C   0  0  0  0  0  0  0  0  0  0  0  0
  142.8660   72.6320  219.1830 N   0  0  0  0  0  0  0  0  0  0  0  0
  141.4900   72.5740  218.9870 C   0  0  0  0  0  0  0  0  0  0  0  0
  141.1200   72.2130  217.7820 O   0  0  0  0  0  0  0  0  0  0  0  0
  140.3560   72.8350  219.8660 C   0  0  0  0  0  0  0  0  0  0  0  0
  140.2600   71.9130  220.9550 N   0  0  0  0  0  0  0  0  0  0  0  0
  140.2950   72.5080  222.2820 C   0  0  0  0  0  0  0  0  0  0  0  0
  140.3990   73.7400  222.3160 O   0  0  0  0  0  0  0  0  0  0  0  0
  140.2060   71.6410  223.4510 C   0  0  0  0  0  0  0  0  0  0  0  0
  139.5790   70.4230  223.2930 C   0  0  0  0  0  0  0  0  0  0  0  0
  139.4250   69.5100  224.3140 C   0  0  0  0  0  0  0  0  0  0  0  0
  139.9490   69.8850  225.5530 C   0  0  0  0  0  0  0  0  0  0  0  0
  139.8130   68.9890  226.6040 C   0  0  0  0  0  0  0  0  0  0  0  0
  140.3170   69.3240  227.8380 C   0  0  0  0  0  0  0  0  0  0  0  0
  140.2170   68.4880  228.9200 F   0  0  0  0  0  0  0  0  0  0  0  0
  140.9510   70.5570  227.9930 C   0  0  0  0  0  0  0  0  0  0  0  0
  141.0800   71.4440  226.9350 C   0  0  0  0  0  0  0  0  0  0  0  0
  140.5700   71.1030  225.6870 C   0  0  0  0  0  0  0  0  0  0  0  0
  140.6950   71.9660  224.6530 N   0  0  0  0  0  0  0  0  0  0  0  0
  141.8170   77.5770  220.7320 C   0  0  0  0  0  0  0  0  0  0  0  0
  141.7290   78.8840  220.2530 C   0  0  0  0  0  0  0  0  0  0  0  0
  144.0350   80.5650  217.4710 H   0  0  0  0  0  0  0  0  0  0  0  0
  141.1488   82.1118  216.1305 H   0  0  0  0  0  0  0  0  0  0  0  0
  141.0844   84.4522  215.2746 H   0  0  0  0  0  0  0  0  0  0  0  0
  142.8828   86.0459  215.7707 H   0  0  0  0  0  0  0  0  0  0  0  0
  144.8430   85.3643  217.1517 H   0  0  0  0  0  0  0  0  0  0  0  0
  144.9206   83.0151  218.0229 H   0  0  0  0  0  0  0  0  0  0  0  0
  143.0796   78.4221  217.1943 H   0  0  0  0  0  0  0  0  0  0  0  0
  143.2269   76.1116  218.0605 H   0  0  0  0  0  0  0  0  0  0  0  0
  141.5600   74.7880  220.8240 H   0  0  0  0  0  0  0  0  0  0  0  0
  144.2748   74.8042  219.5309 H   0  0  0  0  0  0  0  0  0  0  0  0
  144.3531   74.8715  221.2996 H   0  0  0  0  0  0  0  0  0  0  0  0
  142.7349   72.9247  221.3414 H   0  0  0  0  0  0  0  0  0  0  0  0
  145.5420   72.9142  220.8570 H   0  0  0  0  0  0  0  0  0  0  0  0
  144.6026   71.6197  221.5975 H   0  0  0  0  0  0  0  0  0  0  0  0
  145.8711   71.3437  219.1369 H   0  0  0  0  0  0  0  0  0  0  0  0
  144.4446   70.4226  219.4912 H   0  0  0  0  0  0  0  0  0  0  0  0
  144.6210   73.2581  218.2248 H   0  0  0  0  0  0  0  0  0  0  0  0
  143.8760   71.8707  217.4754 H   0  0  0  0  0  0  0  0  0  0  0  0
  140.4589   73.8504  220.2763 H   0  0  0  0  0  0  0  0  0  0  0  0
  139.4434   72.7221  219.2624 H   0  0  0  0  0  0  0  0  0  0  0  0
  140.1720   70.8740  220.8490 H   0  0  0  0  0  0  0  0  0  0  0  0
  139.1809   70.1666  222.3001 H   0  0  0  0  0  0  0  0  0  0  0  0
  138.9200   68.5446  224.1622 H   0  0  0  0  0  0  0  0  0  0  0  0
  139.3085   68.0235  226.4515 H   0  0  0  0  0  0  0  0  0  0  0  0
  141.3580   70.8319  228.9773 H   0  0  0  0  0  0  0  0  0  0  0  0
  141.5826   72.4114  227.0820 H   0  0  0  0  0  0  0  0  0  0  0  0
  141.4507   77.3510  221.7443 H   0  0  0  0  0  0  0  0  0  0  0  0
  141.2982   79.6706  220.8898 H   0  0  0  0  0  0  0  0  0  0  0  0
  1  2  2  0
  2  3  1  0
  3  4  1  0
  4  5  2  0
  5  6  1  0
  6  7  2  0
  7  8  1  0
  8  9  2  0
  2 10  1  0
 10 11  2  0
 11 12  1  0
 12 13  2  0
 13 14  1  0
 14 15  1  0
 15 16  1  0
 16 17  1  0
 17 18  1  0
 18 19  1  0
 19 20  1  0
 20 21  1  0
 21 22  2  0
 21 23  1  0
 23 24  1  0
 24 25  1  0
 25 26  2  0
 25 27  1  0
 27 28  2  0
 28 29  1  0
 29 30  2  0
 30 31  1  0
 31 32  2  0
 32 33  1  0
 32 34  1  0
 34 35  2  0
 35 36  1  0
 36 37  2  0
 13 38  1  0
 38 39  2  0
  9  4  1  0
 39 10  1  0
 20 16  1  0
 37 27  1  0
 36 30  1  0
  3 40  1  0
  5 41  1  0
  6 42  1  0
  7 43  1  0
  8 44  1  0
  9 45  1  0
 11 46  1  0
 12 47  1  0
 14 48  1  0
 15 49  1  0
 15 50  1  0
 16 51  1  1
 17 52  1  0
 17 53  1  0
 18 54  1  0
 18 55  1  0
 19 56  1  0
 19 57  1  0
 23 58  1  0
 23 59  1  0
 24 60  1  0
 28 61  1  0
 29 62  1  0
 31 63  1  0
 34 64  1  0
 35 65  1  0
 38 66  1  0
 39 67  1  0
M  END
>  <smiles>  (46) 
O=C(Nc1ccccc1)c1ccc(NC[C@@H]2CCCN2C(=O)CNC(=O)c2ccc3cc(F)ccc3n2)cc1

>  <score_type>  (46) 
oracle

>  <origin>  (46) 
autodockgpu

>  <m_score__min__energy>  (46) 
-9.8599999999999994

>  <m_primary>  (46) 
energy

>  <rmsd>  (46) 
4.768281563245977

>  <m_score__min__rmsd>  (46) 
4.768281563245977

>  <meeko>  (46) 
{"free_energy": -8.84, "intermolecular_energy": -11.53, "internal_energy": -2.67, "cluster_size": 3, "cluster_id": 4, "rank_in_cluster": 3}

>  <energy>  (46) 
-6.64

>  <cluster_rmsd>  (46) 
0.0

>  <cluster>  (46) 
18

$$$$

     RDKit          3D

 67 71  0  0  0  0  0  0  0  0999 V2000
  135.6840   80.7450  225.1960 O   0  0  0  0  0  0  0  0  0  0  0  0
  136.8980   81.0630  225.2590 C   0  0  0  0  0  0  0  0  0  0  0  0
  137.3600   81.9240  226.2870 N   0  0  0  0  0  0  0  0  0  0  0  0
  136.4480   82.4460  227.2730 C   0  0  0  0  0  0  0  0  0  0  0  0
  135.9700   81.6410  228.3030 C   0  0  0  0  0  0  0  0  0  0  0  0
  135.0960   82.2260  229.2080 C   0  0  0  0  0  0  0  0  0  0  0  0
  134.7090   83.5460  229.1050 C   0  0  0  0  0  0  0  0  0  0  0  0
  135.1800   84.3470  228.0850 C   0  0  0  0  0  0  0  0  0  0  0  0
  136.0620   83.7680  227.1680 C   0  0  0  0  0  0  0  0  0  0  0  0
  137.7830   80.5090  224.2370 C   0  0  0  0  0  0  0  0  0  0  0  0
  139.0940   80.9360  224.2110 C   0  0  0  0  0  0  0  0  0  0  0  0
  139.9720   80.4340  223.2550 C   0  0  0  0  0  0  0  0  0  0  0  0
  139.5810   79.5060  222.3080 C   0  0  0  0  0  0  0  0  0  0  0  0
  140.4850   78.9930  221.3280 N   0  0  0  0  0  0  0  0  0  0  0  0
  141.4420   77.9780  221.7290 C   0  0  0  0  0  0  0  0  0  0  0  0
  141.5120   76.9950  220.5860 C   0  0  2  0  0  0  0  0  0  0  0  0
  141.5970   77.6780  219.2590 C   0  0  0  0  0  0  0  0  0  0  0  0
  140.3040   77.3080  218.5510 C   0  0  0  0  0  0  0  0  0  0  0  0
  139.4080   77.0150  219.7420 C   0  0  0  0  0  0  0  0  0  0  0  0
  140.2470   76.1840  220.5450 N   0  0  0  0  0  0  0  0  0  0  0  0
  140.1770   74.9490  221.1830 C   0  0  0  0  0  0  0  0  0  0  0  0
  141.1560   74.7060  222.0200 O   0  0  0  0  0  0  0  0  0  0  0  0
  139.2180   73.8530  221.1110 C   0  0  0  0  0  0  0  0  0  0  0  0
  139.1290   73.0980  222.3220 N   0  0  0  0  0  0  0  0  0  0  0  0
  140.0910   72.0150  222.4560 C   0  0  0  0  0  0  0  0  0  0  0  0
  140.8760   71.8750  221.5100 O   0  0  0  0  0  0  0  0  0  0  0  0
  140.0700   71.1920  223.6590 C   0  0  0  0  0  0  0  0  0  0  0  0
  139.4810   69.9490  223.5690 C   0  0  0  0  0  0  0  0  0  0  0  0
  139.3930   69.0710  224.6290 C   0  0  0  0  0  0  0  0  0  0  0  0
  139.9440   69.5120  225.8330 C   0  0  0  0  0  0  0  0  0  0  0  0
  139.8740   68.6540  226.9220 C   0  0  0  0  0  0  0  0  0  0  0  0
  140.4060   69.0530  228.1250 C   0  0  0  0  0  0  0  0  0  0  0  0
  140.3710   68.2570  229.2400 F   0  0  0  0  0  0  0  0  0  0  0  0
  141.0020   70.3120  228.2110 C   0  0  0  0  0  0  0  0  0  0  0  0
  141.0650   71.1610  227.1160 C   0  0  0  0  0  0  0  0  0  0  0  0
  140.5260   70.7540  225.9000 C   0  0  0  0  0  0  0  0  0  0  0  0
  140.5870   71.5800  224.8310 N   0  0  0  0  0  0  0  0  0  0  0  0
  138.2610   79.0910  222.3500 C   0  0  0  0  0  0  0  0  0  0  0  0
  137.3690   79.5830  223.3020 C   0  0  0  0  0  0  0  0  0  0  0  0
  138.3660   82.1920  226.3450 H   0  0  0  0  0  0  0  0  0  0  0  0
  136.2719   80.5873  228.3954 H   0  0  0  0  0  0  0  0  0  0  0  0
  134.6990   81.6177  230.0340 H   0  0  0  0  0  0  0  0  0  0  0  0
  134.0144   83.9664  229.8472 H   0  0  0  0  0  0  0  0  0  0  0  0
  134.8735   85.3998  227.9969 H   0  0  0  0  0  0  0  0  0  0  0  0
  136.4578   84.3794  226.3437 H   0  0  0  0  0  0  0  0  0  0  0  0
  139.4461   81.6741  224.9466 H   0  0  0  0  0  0  0  0  0  0  0  0
  141.0135   80.7880  223.2529 H   0  0  0  0  0  0  0  0  0  0  0  0
  140.4130   79.3780  220.3610 H   0  0  0  0  0  0  0  0  0  0  0  0
  142.4289   78.4314  221.9038 H   0  0  0  0  0  0  0  0  0  0  0  0
  141.1380   77.4859  222.6646 H   0  0  0  0  0  0  0  0  0  0  0  0
  142.4089   76.3812  220.7561 H   0  0  0  0  0  0  0  0  0  0  0  0
  141.6706   78.7680  219.3877 H   0  0  0  0  0  0  0  0  0  0  0  0
  142.4862   77.3707  218.6890 H   0  0  0  0  0  0  0  0  0  0  0  0
  139.9179   78.1434  217.9485 H   0  0  0  0  0  0  0  0  0  0  0  0
  140.3962   76.4798  217.8330 H   0  0  0  0  0  0  0  0  0  0  0  0
  139.1337   77.9385  220.2730 H   0  0  0  0  0  0  0  0  0  0  0  0
  138.4486   76.5493  219.4723 H   0  0  0  0  0  0  0  0  0  0  0  0
  138.2257   74.2716  220.8870 H   0  0  0  0  0  0  0  0  0  0  0  0
  139.5661   73.1671  220.3246 H   0  0  0  0  0  0  0  0  0  0  0  0
  138.4330   73.2780  223.0850 H   0  0  0  0  0  0  0  0  0  0  0  0
  139.0590   69.6412  222.6009 H   0  0  0  0  0  0  0  0  0  0  0  0
  138.9177   68.0838  224.5314 H   0  0  0  0  0  0  0  0  0  0  0  0
  139.3986   67.6669  226.8234 H   0  0  0  0  0  0  0  0  0  0  0  0
  141.4318   70.6386  229.1695 H   0  0  0  0  0  0  0  0  0  0  0  0
  141.5381   72.1497  227.2086 H   0  0  0  0  0  0  0  0  0  0  0  0
  137.9069   78.3545  221.6137 H   0  0  0  0  0  0  0  0  0  0  0  0
  136.3272   79.2301  223.3076 H   0  0  0  0  0  0  0  0  0  0  0  0
  1  2  2  0
  2  3  1  0
  3  4  1  0
  4  5  2  0
  5  6  1  0
  6  7  2  0
  7  8  1  0
  8  9  2  0
  2 10  1  0
 10 11  2  0
 11 12  1  0
 12 13  2  0
 13 14  1  0
 14 15  1  0
 15 16  1  0
 16 17  1  0
 17 18  1  0
 18 19  1  0
 19 20  1  0
 20 21  1  0
 21 22  2  0
 21 23  1  0
 23 24  1  0
 24 25  1  0
 25 26  2  0
 25 27  1  0
 27 28  2  0
 28 29  1  0
 29 30  2  0
 30 31  1  0
 31 32  2  0
 32 33  1  0
 32 34  1  0
 34 35  2  0
 35 36  1  0
 36 37  2  0
 13 38  1  0
 38 39  2  0
  9  4  1  0
 39 10  1  0
 20 16  1  0
 37 27  1  0
 36 30  1  0
  3 40  1  0
  5 41  1  0
  6 42  1  0
  7 43  1  0
  8 44  1  0
  9 45  1  0
 11 46  1  0
 12 47  1  0
 14 48  1  0
 15 49  1  0
 15 50  1  0
 16 51  1  1
 17 52  1  0
 17 53  1  0
 18 54  1  0
 18 55  1  0
 19 56  1  0
 19 57  1  0
 23 58  1  0
 23 59  1  0
 24 60  1  0
 28 61  1  0
 29 62  1  0
 31 63  1  0
 34 64  1  0
 35 65  1  0
 38 66  1  0
 39 67  1  0
M  END
>  <smiles>  (47) 
O=C(Nc1ccccc1)c1ccc(NC[C@@H]2CCCN2C(=O)CNC(=O)c2ccc3cc(F)ccc3n2)cc1

>  <score_type>  (47) 
oracle

>  <origin>  (47) 
autodockgpu

>  <m_score__min__energy>  (47) 
-9.8599999999999994

>  <m_primary>  (47) 
energy

>  <rmsd>  (47) 
6.600499041823899

>  <m_score__min__rmsd>  (47) 
6.600499041823899

>  <meeko>  (47) 
{"free_energy": -9.46, "intermolecular_energy": -12.14, "internal_energy": -1.59, "cluster_size": 2, "cluster_id": 2, "rank_in_cluster": 1}

>  <energy>  (47) 
-6.6

>  <cluster_rmsd>  (47) 
0.14

>  <cluster>  (47) 
18

$$$$

     RDKit          3D

 67 71  0  0  0  0  0  0  0  0999 V2000
  143.5510   77.1230  218.1920 O   0  0  0  0  0  0  0  0  0  0  0  0
  142.5980   76.8210  218.9540 C   0  0  0  0  0  0  0  0  0  0  0  0
  141.6720   77.8110  219.3670 N   0  0  0  0  0  0  0  0  0  0  0  0
  141.8060   79.1750  218.9230 C   0  0  0  0  0  0  0  0  0  0  0  0
  141.6790   80.2350  219.8150 C   0  0  0  0  0  0  0  0  0  0  0  0
  141.8230   81.5150  219.3010 C   0  0  0  0  0  0  0  0  0  0  0  0
  142.0830   81.7440  217.9650 C   0  0  0  0  0  0  0  0  0  0  0  0
  142.2100   80.6960  217.0770 C   0  0  0  0  0  0  0  0  0  0  0  0
  142.0660   79.4010  217.5850 C   0  0  0  0  0  0  0  0  0  0  0  0
  142.5030   75.4260  219.3780 C   0  0  0  0  0  0  0  0  0  0  0  0
  143.3930   74.9730  220.3290 C   0  0  0  0  0  0  0  0  0  0  0  0
  143.3380   73.6510  220.7610 C   0  0  0  0  0  0  0  0  0  0  0  0
  142.4120   72.7510  220.2710 C   0  0  0  0  0  0  0  0  0  0  0  0
  142.3590   71.3950  220.7170 N   0  0  0  0  0  0  0  0  0  0  0  0
  141.2500   70.5650  220.2840 C   0  0  0  0  0  0  0  0  0  0  0  0
  140.2520   70.5770  221.4160 C   0  0  2  0  0  0  0  0  0  0  0  0
  139.5270   69.2760  221.5430 C   0  0  0  0  0  0  0  0  0  0  0  0
  138.0800   69.6080  221.2180 C   0  0  0  0  0  0  0  0  0  0  0  0
  138.2630   70.8480  220.3620 C   0  0  0  0  0  0  0  0  0  0  0  0
  139.1920   71.6070  221.1360 N   0  0  0  0  0  0  0  0  0  0  0  0
  139.3060   72.8960  221.6470 C   0  0  0  0  0  0  0  0  0  0  0  0
  140.3470   73.0920  222.4210 O   0  0  0  0  0  0  0  0  0  0  0  0
  138.4920   74.0960  221.4920 C   0  0  0  0  0  0  0  0  0  0  0  0
  139.0060   75.2250  222.2030 N   0  0  0  0  0  0  0  0  0  0  0  0
  139.3440   76.3790  221.3850 C   0  0  0  0  0  0  0  0  0  0  0  0
  139.1450   76.2520  220.1700 O   0  0  0  0  0  0  0  0  0  0  0  0
  139.8770   77.5730  222.0280 C   0  0  0  0  0  0  0  0  0  0  0  0
  138.9750   78.4360  222.6140 C   0  0  0  0  0  0  0  0  0  0  0  0
  139.3430   79.6000  223.2540 C   0  0  0  0  0  0  0  0  0  0  0  0
  140.7120   79.8750  223.2830 C   0  0  0  0  0  0  0  0  0  0  0  0
  141.1190   81.0390  223.9200 C   0  0  0  0  0  0  0  0  0  0  0  0
  142.4590   81.3410  223.9680 C   0  0  0  0  0  0  0  0  0  0  0  0
  142.9310   82.4740  224.5810 F   0  0  0  0  0  0  0  0  0  0  0  0
  143.3680   80.4650  223.3750 C   0  0  0  0  0  0  0  0  0  0  0  0
  142.9480   79.3050  222.7400 C   0  0  0  0  0  0  0  0  0  0  0  0
  141.5920   79.0000  222.6930 C   0  0  0  0  0  0  0  0  0  0  0  0
  141.1810   77.8700  222.0750 N   0  0  0  0  0  0  0  0  0  0  0  0
  141.5280   73.2240  219.3160 C   0  0  0  0  0  0  0  0  0  0  0  0
  141.5690   74.5450  218.8720 C   0  0  0  0  0  0  0  0  0  0  0  0
  140.8780   77.5680  220.0000 H   0  0  0  0  0  0  0  0  0  0  0  0
  141.4732   80.0652  220.8822 H   0  0  0  0  0  0  0  0  0  0  0  0
  141.7269   82.3752  219.9798 H   0  0  0  0  0  0  0  0  0  0  0  0
  142.1905   82.7772  217.6031 H   0  0  0  0  0  0  0  0  0  0  0  0
  142.4165   80.8720  216.0110 H   0  0  0  0  0  0  0  0  0  0  0  0
  142.1619   78.5427  216.9037 H   0  0  0  0  0  0  0  0  0  0  0  0
  144.1468   75.6568  220.7464 H   0  0  0  0  0  0  0  0  0  0  0  0
  144.0579   73.3108  221.5200 H   0  0  0  0  0  0  0  0  0  0  0  0
  143.1280   71.0640  221.3390 H   0  0  0  0  0  0  0  0  0  0  0  0
  140.7969   70.9789  219.3711 H   0  0  0  0  0  0  0  0  0  0  0  0
  141.5806   69.5422  220.0502 H   0  0  0  0  0  0  0  0  0  0  0  0
  140.8216   70.7857  222.3336 H   0  0  0  0  0  0  0  0  0  0  0  0
  139.9254   68.5387  220.8305 H   0  0  0  0  0  0  0  0  0  0  0  0
  139.6380   68.8334  222.5439 H   0  0  0  0  0  0  0  0  0  0  0  0
  137.5937   68.7962  220.6572 H   0  0  0  0  0  0  0  0  0  0  0  0
  137.4350   69.7507  222.0975 H   0  0  0  0  0  0  0  0  0  0  0  0
  138.6775   70.5950  219.3750 H   0  0  0  0  0  0  0  0  0  0  0  0
  137.3252   71.3808  220.1461 H   0  0  0  0  0  0  0  0  0  0  0  0
  138.4440   74.3494  220.4227 H   0  0  0  0  0  0  0  0  0  0  0  0
  137.4996   73.8722  221.9105 H   0  0  0  0  0  0  0  0  0  0  0  0
  139.1460   75.2600  223.2420 H   0  0  0  0  0  0  0  0  0  0  0  0
  137.9057   78.1821  222.5683 H   0  0  0  0  0  0  0  0  0  0  0  0
  138.6032   80.2717  223.7140 H   0  0  0  0  0  0  0  0  0  0  0  0
  140.3793   81.7106  224.3801 H   0  0  0  0  0  0  0  0  0  0  0  0
  144.4422   80.6990  223.4116 H   0  0  0  0  0  0  0  0  0  0  0  0
  143.6832   78.6307  222.2766 H   0  0  0  0  0  0  0  0  0  0  0  0
  140.7747   72.5406  218.8972 H   0  0  0  0  0  0  0  0  0  0  0  0
  140.8511   74.8878  218.1123 H   0  0  0  0  0  0  0  0  0  0  0  0
  1  2  2  0
  2  3  1  0
  3  4  1  0
  4  5  2  0
  5  6  1  0
  6  7  2  0
  7  8  1  0
  8  9  2  0
  2 10  1  0
 10 11  2  0
 11 12  1  0
 12 13  2  0
 13 14  1  0
 14 15  1  0
 15 16  1  0
 16 17  1  0
 17 18  1  0
 18 19  1  0
 19 20  1  0
 20 21  1  0
 21 22  2  0
 21 23  1  0
 23 24  1  0
 24 25  1  0
 25 26  2  0
 25 27  1  0
 27 28  2  0
 28 29  1  0
 29 30  2  0
 30 31  1  0
 31 32  2  0
 32 33  1  0
 32 34  1  0
 34 35  2  0
 35 36  1  0
 36 37  2  0
 13 38  1  0
 38 39  2  0
  9  4  1  0
 39 10  1  0
 20 16  1  0
 37 27  1  0
 36 30  1  0
  3 40  1  0
  5 41  1  0
  6 42  1  0
  7 43  1  0
  8 44  1  0
  9 45  1  0
 11 46  1  0
 12 47  1  0
 14 48  1  0
 15 49  1  0
 15 50  1  0
 16 51  1  1
 17 52  1  0
 17 53  1  0
 18 54  1  0
 18 55  1  0
 19 56  1  0
 19 57  1  0
 23 58  1  0
 23 59  1  0
 24 60  1  0
 28 61  1  0
 29 62  1  0
 31 63  1  0
 34 64  1  0
 35 65  1  0
 38 66  1  0
 39 67  1  0
M  END
>  <smiles>  (48) 
O=C(Nc1ccccc1)c1ccc(NC[C@@H]2CCCN2C(=O)CNC(=O)c2ccc3cc(F)ccc3n2)cc1

>  <score_type>  (48) 
oracle

>  <origin>  (48) 
autodockgpu

>  <m_score__min__energy>  (48) 
-9.8599999999999994

>  <m_primary>  (48) 
energy

>  <rmsd>  (48) 
6.658803340814992

>  <m_score__min__rmsd>  (48) 
6.658803340814992

>  <meeko>  (48) 
{"free_energy": -6.85, "intermolecular_energy": -9.54, "internal_energy": -4.98, "cluster_size": 3, "cluster_id": 15, "rank_in_cluster": 1}

>  <energy>  (48) 
-6.61

>  <cluster_rmsd>  (48) 
0.0

>  <cluster>  (48) 
19

$$$$

     RDKit          3D

 67 71  0  0  0  0  0  0  0  0999 V2000
  136.0740   82.1110  224.2920 O   0  0  0  0  0  0  0  0  0  0  0  0
  136.8400   81.2710  224.8310 C   0  0  0  0  0  0  0  0  0  0  0  0
  137.0390   81.2820  226.2340 N   0  0  0  0  0  0  0  0  0  0  0  0
  136.3700   82.2510  227.0640 C   0  0  0  0  0  0  0  0  0  0  0  0
  136.4850   83.6140  226.8090 C   0  0  0  0  0  0  0  0  0  0  0  0
  135.8070   84.4750  227.6580 C   0  0  0  0  0  0  0  0  0  0  0  0
  135.0480   84.0170  228.7150 C   0  0  0  0  0  0  0  0  0  0  0  0
  134.9310   82.6670  228.9720 C   0  0  0  0  0  0  0  0  0  0  0  0
  135.6100   81.7890  228.1220 C   0  0  0  0  0  0  0  0  0  0  0  0
  137.4960   80.3090  223.9480 C   0  0  0  0  0  0  0  0  0  0  0  0
  138.7880   79.9310  224.2430 C   0  0  0  0  0  0  0  0  0  0  0  0
  139.4510   79.0170  223.4290 C   0  0  0  0  0  0  0  0  0  0  0  0
  138.8590   78.4580  222.3130 C   0  0  0  0  0  0  0  0  0  0  0  0
  139.5420   77.5210  221.4790 N   0  0  0  0  0  0  0  0  0  0  0  0
  140.9860   77.6140  221.3680 C   0  0  0  0  0  0  0  0  0  0  0  0
  141.4550   76.2680  220.8720 C   0  0  2  0  0  0  0  0  0  0  0  0
  142.3620   76.3880  219.6900 C   0  0  0  0  0  0  0  0  0  0  0  0
  141.5970   75.7380  218.5490 C   0  0  0  0  0  0  0  0  0  0  0  0
  140.1700   75.9040  219.0400 C   0  0  0  0  0  0  0  0  0  0  0  0
  140.2720   75.4700  220.3970 N   0  0  0  0  0  0  0  0  0  0  0  0
  139.6340   74.5760  221.2500 C   0  0  0  0  0  0  0  0  0  0  0  0
  140.3200   74.2490  222.3190 O   0  0  0  0  0  0  0  0  0  0  0  0
  138.3320   73.9200  221.1990 C   0  0  0  0  0  0  0  0  0  0  0  0
  137.5110   74.2030  222.3350 N   0  0  0  0  0  0  0  0  0  0  0  0
  136.7820   75.4600  222.2830 C   0  0  0  0  0  0  0  0  0  0  0  0
  136.9530   76.1370  221.2620 O   0  0  0  0  0  0  0  0  0  0  0  0
  135.9230   75.8290  223.4000 C   0  0  0  0  0  0  0  0  0  0  0  0
  135.6790   74.8700  224.3600 C   0  0  0  0  0  0  0  0  0  0  0  0
  134.8860   75.0850  225.4670 C   0  0  0  0  0  0  0  0  0  0  0  0
  134.3220   76.3580  225.5750 C   0  0  0  0  0  0  0  0  0  0  0  0
  133.5170   76.6110  226.6770 C   0  0  0  0  0  0  0  0  0  0  0  0
  132.9450   77.8530  226.8170 C   0  0  0  0  0  0  0  0  0  0  0  0
  132.1390   78.1710  227.8800 F   0  0  0  0  0  0  0  0  0  0  0  0
  133.1940   78.8210  225.8440 C   0  0  0  0  0  0  0  0  0  0  0  0
  134.0000   78.5560  224.7470 C   0  0  0  0  0  0  0  0  0  0  0  0
  134.5780   77.2980  224.6070 C   0  0  0  0  0  0  0  0  0  0  0  0
  135.3640   77.0380  223.5380 N   0  0  0  0  0  0  0  0  0  0  0  0
  137.5610   78.8510  222.0320 C   0  0  0  0  0  0  0  0  0  0  0  0
  136.8830   79.7650  222.8380 C   0  0  0  0  0  0  0  0  0  0  0  0
  137.6730   80.5880  226.6870 H   0  0  0  0  0  0  0  0  0  0  0  0
  137.0878   83.9920  225.9701 H   0  0  0  0  0  0  0  0  0  0  0  0
  135.8765   85.5588  227.4831 H   0  0  0  0  0  0  0  0  0  0  0  0
  134.5286   84.7390  229.3622 H   0  0  0  0  0  0  0  0  0  0  0  0
  134.3270   82.2956  229.8130 H   0  0  0  0  0  0  0  0  0  0  0  0
  135.5378   80.7058  228.2992 H   0  0  0  0  0  0  0  0  0  0  0  0
  139.2961   80.3522  225.1230 H   0  0  0  0  0  0  0  0  0  0  0  0
  140.4820   78.7299  223.6832 H   0  0  0  0  0  0  0  0  0  0  0  0
  138.9640   76.8070  220.9850 H   0  0  0  0  0  0  0  0  0  0  0  0
  141.2640   78.4024  220.6530 H   0  0  0  0  0  0  0  0  0  0  0  0
  141.4477   77.8699  222.3331 H   0  0  0  0  0  0  0  0  0  0  0  0
  141.9839   75.7919  221.7108 H   0  0  0  0  0  0  0  0  0  0  0  0
  142.5692   77.4448  219.4657 H   0  0  0  0  0  0  0  0  0  0  0  0
  143.3370   75.9092  219.8633 H   0  0  0  0  0  0  0  0  0  0  0  0
  141.7626   76.2646  217.5975 H   0  0  0  0  0  0  0  0  0  0  0  0
  141.8894   74.6994  218.3351 H   0  0  0  0  0  0  0  0  0  0  0  0
  139.8456   76.9533  218.9790 H   0  0  0  0  0  0  0  0  0  0  0  0
  139.4293   75.3449  218.4494 H   0  0  0  0  0  0  0  0  0  0  0  0
  137.8055   74.2590  220.2946 H   0  0  0  0  0  0  0  0  0  0  0  0
  138.5140   72.8352  221.1908 H   0  0  0  0  0  0  0  0  0  0  0  0
  137.4150   73.5750  223.1700 H   0  0  0  0  0  0  0  0  0  0  0  0
  136.1420   73.8799  224.2360 H   0  0  0  0  0  0  0  0  0  0  0  0
  134.7084   74.3020  226.2189 H   0  0  0  0  0  0  0  0  0  0  0  0
  133.3391   75.8277  227.4286 H   0  0  0  0  0  0  0  0  0  0  0  0
  132.7405   79.8176  225.9493 H   0  0  0  0  0  0  0  0  0  0  0  0
  134.1813   79.3354  223.9922 H   0  0  0  0  0  0  0  0  0  0  0  0
  137.0524   78.4318  221.1513 H   0  0  0  0  0  0  0  0  0  0  0  0
  135.8519   80.0544  222.5870 H   0  0  0  0  0  0  0  0  0  0  0  0
  1  2  2  0
  2  3  1  0
  3  4  1  0
  4  5  2  0
  5  6  1  0
  6  7  2  0
  7  8  1  0
  8  9  2  0
  2 10  1  0
 10 11  2  0
 11 12  1  0
 12 13  2  0
 13 14  1  0
 14 15  1  0
 15 16  1  0
 16 17  1  0
 17 18  1  0
 18 19  1  0
 19 20  1  0
 20 21  1  0
 21 22  2  0
 21 23  1  0
 23 24  1  0
 24 25  1  0
 25 26  2  0
 25 27  1  0
 27 28  2  0
 28 29  1  0
 29 30  2  0
 30 31  1  0
 31 32  2  0
 32 33  1  0
 32 34  1  0
 34 35  2  0
 35 36  1  0
 36 37  2  0
 13 38  1  0
 38 39  2  0
  9  4  1  0
 39 10  1  0
 20 16  1  0
 37 27  1  0
 36 30  1  0
  3 40  1  0
  5 41  1  0
  6 42  1  0
  7 43  1  0
  8 44  1  0
  9 45  1  0
 11 46  1  0
 12 47  1  0
 14 48  1  0
 15 49  1  0
 15 50  1  0
 16 51  1  1
 17 52  1  0
 17 53  1  0
 18 54  1  0
 18 55  1  0
 19 56  1  0
 19 57  1  0
 23 58  1  0
 23 59  1  0
 24 60  1  0
 28 61  1  0
 29 62  1  0
 31 63  1  0
 34 64  1  0
 35 65  1  0
 38 66  1  0
 39 67  1  0
M  END
>  <smiles>  (49) 
O=C(Nc1ccccc1)c1ccc(NC[C@@H]2CCCN2C(=O)CNC(=O)c2ccc3cc(F)ccc3n2)cc1

>  <score_type>  (49) 
oracle

>  <origin>  (49) 
autodockgpu

>  <m_score__min__energy>  (49) 
-9.8599999999999994

>  <m_primary>  (49) 
energy

>  <rmsd>  (49) 
7.821192653642818

>  <m_score__min__rmsd>  (49) 
7.821192653642818

>  <meeko>  (49) 
{"free_energy": -6.98, "intermolecular_energy": -9.66, "internal_energy": -3.77, "cluster_size": 1, "cluster_id": 14, "rank_in_cluster": 1}

>  <energy>  (49) 
-5.85

>  <cluster_rmsd>  (49) 
1.0

>  <cluster>  (49) 
19

$$$$

     RDKit          3D

 67 71  0  0  0  0  0  0  0  0999 V2000
  141.1770   75.8430  220.6930 O   0  0  0  0  0  0  0  0  0  0  0  0
  140.4220   75.1780  221.4480 C   0  0  0  0  0  0  0  0  0  0  0  0
  139.6970   75.8230  222.4820 N   0  0  0  0  0  0  0  0  0  0  0  0
  139.8130   77.2460  222.6840 C   0  0  0  0  0  0  0  0  0  0  0  0
  138.6880   78.0650  222.6640 C   0  0  0  0  0  0  0  0  0  0  0  0
  138.8930   79.4220  222.8670 C   0  0  0  0  0  0  0  0  0  0  0  0
  140.1480   79.9510  223.0820 C   0  0  0  0  0  0  0  0  0  0  0  0
  141.2650   79.1420  223.1020 C   0  0  0  0  0  0  0  0  0  0  0  0
  141.0720   77.7720  222.8990 C   0  0  0  0  0  0  0  0  0  0  0  0
  140.3370   73.7400  221.2040 C   0  0  0  0  0  0  0  0  0  0  0  0
  139.1230   73.2170  220.8120 C   0  0  0  0  0  0  0  0  0  0  0  0
  138.9980   71.8530  220.5680 C   0  0  0  0  0  0  0  0  0  0  0  0
  140.0590   70.9780  220.7040 C   0  0  0  0  0  0  0  0  0  0  0  0
  139.9260   69.5780  220.4540 N   0  0  0  0  0  0  0  0  0  0  0  0
  141.1010   68.8320  220.0420 C   0  0  0  0  0  0  0  0  0  0  0  0
  140.6760   67.3860  219.9710 C   0  0  2  0  0  0  0  0  0  0  0  0
  141.4840   66.6070  218.9840 C   0  0  0  0  0  0  0  0  0  0  0  0
  140.4930   66.2040  217.9050 C   0  0  0  0  0  0  0  0  0  0  0  0
  139.4450   67.2910  218.0690 C   0  0  0  0  0  0  0  0  0  0  0  0
  139.2550   67.3060  219.4850 N   0  0  0  0  0  0  0  0  0  0  0  0
  138.2000   67.2410  220.3890 C   0  0  0  0  0  0  0  0  0  0  0  0
  137.1250   67.9010  220.0320 O   0  0  0  0  0  0  0  0  0  0  0  0
  138.0420   66.5710  221.6760 C   0  0  0  0  0  0  0  0  0  0  0  0
  138.7420   67.2200  222.7410 N   0  0  0  0  0  0  0  0  0  0  0  0
  138.3880   68.6130  222.9650 C   0  0  0  0  0  0  0  0  0  0  0  0
  137.5210   69.0740  222.2110 O   0  0  0  0  0  0  0  0  0  0  0  0
  139.0540   69.3530  224.0290 C   0  0  0  0  0  0  0  0  0  0  0  0
  139.3470   70.6800  223.7950 C   0  0  0  0  0  0  0  0  0  0  0  0
  139.9740   71.4930  224.7140 C   0  0  0  0  0  0  0  0  0  0  0  0
  140.3100   70.8950  225.9300 C   0  0  0  0  0  0  0  0  0  0  0  0
  140.9430   71.6840  226.8800 C   0  0  0  0  0  0  0  0  0  0  0  0
  141.2890   71.1290  228.0890 C   0  0  0  0  0  0  0  0  0  0  0  0
  141.9160   71.8510  229.0720 F   0  0  0  0  0  0  0  0  0  0  0  0
  140.9910   69.7860  228.3220 C   0  0  0  0  0  0  0  0  0  0  0  0
  140.3590   69.0070  227.3640 C   0  0  0  0  0  0  0  0  0  0  0  0
  140.0090   69.5710  226.1410 C   0  0  0  0  0  0  0  0  0  0  0  0
  139.3920   68.8130  225.2060 N   0  0  0  0  0  0  0  0  0  0  0  0
  141.2690   71.5220  221.0990 C   0  0  0  0  0  0  0  0  0  0  0  0
  141.4120   72.8870  221.3470 C   0  0  0  0  0  0  0  0  0  0  0  0
  139.0690   75.2790  223.1120 H   0  0  0  0  0  0  0  0  0  0  0  0
  137.6815   77.6548  222.4948 H   0  0  0  0  0  0  0  0  0  0  0  0
  138.0256   80.0983  222.8561 H   0  0  0  0  0  0  0  0  0  0  0  0
  140.2601   81.0338  223.2399 H   0  0  0  0  0  0  0  0  0  0  0  0
  142.2690   79.5585  223.2711 H   0  0  0  0  0  0  0  0  0  0  0  0
  141.9417   77.0986  222.9108 H   0  0  0  0  0  0  0  0  0  0  0  0
  138.2525   73.8787  220.6921 H   0  0  0  0  0  0  0  0  0  0  0  0
  138.0203   71.4571  220.2559 H   0  0  0  0  0  0  0  0  0  0  0  0
  138.9810   69.1550  220.5790 H   0  0  0  0  0  0  0  0  0  0  0  0
  141.4459   69.1772  219.0562 H   0  0  0  0  0  0  0  0  0  0  0  0
  141.9331   68.9717  220.7477 H   0  0  0  0  0  0  0  0  0  0  0  0
  140.8082   66.9717  220.9814 H   0  0  0  0  0  0  0  0  0  0  0  0
  142.2855   67.2304  218.5610 H   0  0  0  0  0  0  0  0  0  0  0  0
  141.9751   65.7366  219.4435 H   0  0  0  0  0  0  0  0  0  0  0  0
  140.9500   66.2285  216.9047 H   0  0  0  0  0  0  0  0  0  0  0  0
  140.1069   65.1782  217.9983 H   0  0  0  0  0  0  0  0  0  0  0  0
  139.8142   68.2610  217.7046 H   0  0  0  0  0  0  0  0  0  0  0  0
  138.5223   67.1085  217.4987 H   0  0  0  0  0  0  0  0  0  0  0  0
  136.9713   66.5446  221.9269 H   0  0  0  0  0  0  0  0  0  0  0  0
  138.4683   65.5622  221.5728 H   0  0  0  0  0  0  0  0  0  0  0  0
  139.4690   66.7610  223.3410 H   0  0  0  0  0  0  0  0  0  0  0  0
  139.0654   71.1123  222.8235 H   0  0  0  0  0  0  0  0  0  0  0  0
  140.1964   72.5493  224.5024 H   0  0  0  0  0  0  0  0  0  0  0  0
  141.1651   72.7403  226.6682 H   0  0  0  0  0  0  0  0  0  0  0  0
  141.2635   69.3347  229.2874 H   0  0  0  0  0  0  0  0  0  0  0  0
  140.1358   67.9497  227.5698 H   0  0  0  0  0  0  0  0  0  0  0  0
  142.1398   70.8610  221.2204 H   0  0  0  0  0  0  0  0  0  0  0  0
  142.3884   73.2862  221.6587 H   0  0  0  0  0  0  0  0  0  0  0  0
  1  2  2  0
  2  3  1  0
  3  4  1  0
  4  5  2  0
  5  6  1  0
  6  7  2  0
  7  8  1  0
  8  9  2  0
  2 10  1  0
 10 11  2  0
 11 12  1  0
 12 13  2  0
 13 14  1  0
 14 15  1  0
 15 16  1  0
 16 17  1  0
 17 18  1  0
 18 19  1  0
 19 20  1  0
 20 21  1  0
 21 22  2  0
 21 23  1  0
 23 24  1  0
 24 25  1  0
 25 26  2  0
 25 27  1  0
 27 28  2  0
 28 29  1  0
 29 30  2  0
 30 31  1  0
 31 32  2  0
 32 33  1  0
 32 34  1  0
 34 35  2  0
 35 36  1  0
 36 37  2  0
 13 38  1  0
 38 39  2  0
  9  4  1  0
 39 10  1  0
 20 16  1  0
 37 27  1  0
 36 30  1  0
  3 40  1  0
  5 41  1  0
  6 42  1  0
  7 43  1  0
  8 44  1  0
  9 45  1  0
 11 46  1  0
 12 47  1  0
 14 48  1  0
 15 49  1  0
 15 50  1  0
 16 51  1  1
 17 52  1  0
 17 53  1  0
 18 54  1  0
 18 55  1  0
 19 56  1  0
 19 57  1  0
 23 58  1  0
 23 59  1  0
 24 60  1  0
 28 61  1  0
 29 62  1  0
 31 63  1  0
 34 64  1  0
 35 65  1  0
 38 66  1  0
 39 67  1  0
M  END
>  <smiles>  (50) 
O=C(Nc1ccccc1)c1ccc(NC[C@@H]2CCCN2C(=O)CNC(=O)c2ccc3cc(F)ccc3n2)cc1

>  <score_type>  (50) 
oracle

>  <origin>  (50) 
autodockgpu

>  <m_score__min__energy>  (50) 
-9.8599999999999994

>  <m_primary>  (50) 
energy

>  <rmsd>  (50) 
4.548233343357191

>  <m_score__min__rmsd>  (50) 
4.548233343357191

>  <meeko>  (50) 
{"free_energy": -7.5, "intermolecular_energy": -10.19, "internal_energy": -3.64, "cluster_size": 9, "cluster_id": 5, "rank_in_cluster": 9}

>  <energy>  (50) 
-6.39

>  <cluster_rmsd>  (50) 
0.0

>  <cluster>  (50) 
20

$$$$
