
 61 65  0  0  0  0  0  0  0  0999 V2000
  143.3420   68.2090  218.7700 N   0  0  0  0  0  0  0  0  0  0  0  0
  144.1050   69.0250  219.6830 C   0  0  0  0  0  0  0  0  0  0  0  0
  145.1970   68.5630  220.0740 O   0  0  0  0  0  0  0  0  0  0  0  0
  143.5230   70.3230  220.0650 C   0  0  0  0  0  0  0  0  0  0  0  0
  142.1090   70.5410  219.5920 C   0  0  0  0  0  0  0  0  0  0  0  0
  141.2090   70.7760  220.7520 C   0  0  0  0  0  0  0  0  0  0  0  0
  140.9150   72.2120  220.9860 C   0  0  0  0  0  0  0  0  0  0  0  0
  141.2520   73.1900  220.0420 C   0  0  0  0  0  0  0  0  0  0  0  0
  140.9980   74.4830  220.2610 N   0  0  0  0  0  0  0  0  0  0  0  0
  140.4030   74.9160  221.4080 C   0  0  0  0  0  0  0  0  0  0  0  0
  140.1330   76.2910  221.6440 N   0  0  0  0  0  0  0  0  0  0  0  0
  141.1570   77.3070  221.4500 C   0  0  0  0  0  0  0  0  0  0  0  0
  141.2730   78.0160  222.8000 C   0  0  0  0  0  0  0  0  0  0  0  0
  139.9330   78.6300  223.0680 C   0  0  0  0  0  0  0  0  0  0  0  0
  139.9250   79.8850  223.6790 C   0  0  0  0  0  0  0  0  0  0  0  0
  138.6870   80.4490  223.9240 C   0  0  0  0  0  0  0  0  0  0  0  0
  137.5090   79.8110  223.5850 C   0  0  0  0  0  0  0  0  0  0  0  0
  137.5370   78.5540  222.9740 C   0  0  0  0  0  0  0  0  0  0  0  0
  138.7610   78.0010  222.7340 C   0  0  0  0  0  0  0  0  0  0  0  0
  138.8170   76.6600  222.0810 C   0  0  0  0  0  0  0  0  0  0  0  0
  140.0730   74.0000  222.3220 N   0  0  0  0  0  0  0  0  0  0  0  0
  140.3150   72.6660  222.1370 C   0  0  0  0  0  0  0  0  0  0  0  0
  139.8920   71.8220  223.1970 N   0  0  0  0  0  0  0  0  0  0  0  0
  138.7690   70.9440  223.1670 C   0  0  0  0  0  0  0  0  0  0  0  0
  139.1790   69.5390  223.6210 C   0  0  0  0  0  0  0  0  0  0  0  0
  139.6690   69.6470  225.0420 C   0  0  0  0  0  0  0  0  0  0  0  0
  139.4090   68.6530  225.9690 C   0  0  0  0  0  0  0  0  0  0  0  0
  139.8570   68.7620  227.2660 C   0  0  0  0  0  0  0  0  0  0  0  0
  140.5770   69.9080  227.5940 C   0  0  0  0  0  0  0  0  0  0  0  0
  140.8310   70.9000  226.6550 C   0  0  0  0  0  0  0  0  0  0  0  0
  140.3740   70.7850  225.3460 C   0  0  0  0  0  0  0  0  0  0  0  0
  140.6860   71.8720  224.4200 C   0  0  0  0  0  0  0  0  0  0  0  0
  143.8790   67.7070  218.0290 H   0  0  0  0  0  0  0  0  0  0  0  0
  142.3040   68.1210  218.8430 H   0  0  0  0  0  0  0  0  0  0  0  0
  143.5321   70.3931  221.1627 H   0  0  0  0  0  0  0  0  0  0  0  0
  144.1368   71.0949  219.5778 H   0  0  0  0  0  0  0  0  0  0  0  0
  142.0796   71.4162  218.9263 H   0  0  0  0  0  0  0  0  0  0  0  0
  141.7699   69.6454  219.0508 H   0  0  0  0  0  0  0  0  0  0  0  0
  140.2600   70.2506  220.5696 H   0  0  0  0  0  0  0  0  0  0  0  0
  141.7261   70.3994  221.6469 H   0  0  0  0  0  0  0  0  0  0  0  0
  141.7355   72.8874  219.1014 H   0  0  0  0  0  0  0  0  0  0  0  0
  142.1151   76.8423  221.1739 H   0  0  0  0  0  0  0  0  0  0  0  0
  140.8990   78.0035  220.6387 H   0  0  0  0  0  0  0  0  0  0  0  0
  141.5256   77.2930  223.5896 H   0  0  0  0  0  0  0  0  0  0  0  0
  142.0664   78.7777  222.7851 H   0  0  0  0  0  0  0  0  0  0  0  0
  140.8579   80.3998  223.9521 H   0  0  0  0  0  0  0  0  0  0  0  0
  138.6379   81.4374  224.4042 H   0  0  0  0  0  0  0  0  0  0  0  0
  136.5442   80.2948  223.7971 H   0  0  0  0  0  0  0  0  0  0  0  0
  136.6092   78.0316  222.6977 H   0  0  0  0  0  0  0  0  0  0  0  0
  138.4654   75.9069  222.8015 H   0  0  0  0  0  0  0  0  0  0  0  0
  138.1805   76.7093  221.1852 H   0  0  0  0  0  0  0  0  0  0  0  0
  137.9891   71.3295  223.8401 H   0  0  0  0  0  0  0  0  0  0  0  0
  138.3855   70.8893  222.1375 H   0  0  0  0  0  0  0  0  0  0  0  0
  138.3139   68.8613  223.5725 H   0  0  0  0  0  0  0  0  0  0  0  0
  139.9678   69.1359  222.9688 H   0  0  0  0  0  0  0  0  0  0  0  0
  138.8367   67.7640  225.6654 H   0  0  0  0  0  0  0  0  0  0  0  0
  139.6551   67.9781  228.0108 H   0  0  0  0  0  0  0  0  0  0  0  0
  140.9534   70.0307  228.6203 H   0  0  0  0  0  0  0  0  0  0  0  0
  141.4031   71.7915  226.9516 H   0  0  0  0  0  0  0  0  0  0  0  0
  140.4924   72.8298  224.9252 H   0  0  0  0  0  0  0  0  0  0  0  0
  141.7424   71.7671  224.1320 H   0  0  0  0  0  0  0  0  0  0  0  0
  1  2  1  0
  2  3  2  0
  2  4  1  0
  4  5  1  0
  5  6  1  0
  6  7  1  0
  7  8  2  0
  8  9  1  0
  9 10  2  0
 10 11  1  0
 11 12  1  0
 12 13  1  0
 13 14  1  0
 14 15  2  0
 15 16  1  0
 16 17  2  0
 17 18  1  0
 18 19  2  0
 19 20  1  0
 10 21  1  0
 21 22  2  0
 22 23  1  0
 23 24  1  0
 24 25  1  0
 25 26  1  0
 26 27  2  0
 27 28  1  0
 28 29  2  0
 29 30  1  0
 30 31  2  0
 31 32  1  0
 22  7  1  0
 32 23  1  0
 20 11  1  0
 31 26  1  0
 19 14  1  0
  1 33  1  0
  1 34  1  0
  4 35  1  0
  4 36  1  0
  5 37  1  0
  5 38  1  0
  6 39  1  0
  6 40  1  0
  8 41  1  0
 12 42  1  0
 12 43  1  0
 13 44  1  0
 13 45  1  0
 15 46  1  0
 16 47  1  0
 17 48  1  0
 18 49  1  0
 20 50  1  0
 20 51  1  0
 24 52  1  0
 24 53  1  0
 25 54  1  0
 25 55  1  0
 27 56  1  0
 28 57  1  0
 29 58  1  0
 30 59  1  0
 32 60  1  0
 32 61  1  0
M  END
