@<TRIPOS>MOLECULE
*****
 54 58 0 0 0
SMALL
GASTEIGER

@<TRIPOS>ATOM
      1 O         139.0150   70.0660  221.6250 O.2     1  UNL1       -0.2685
      2 C         139.5820   70.6220  222.6160 C.2     1  UNL1        0.2628
      3 N         140.0930   71.9410  222.3750 N.am    1  UNL1       -0.3015
      4 C         139.9980   72.6260  221.1300 C.3     1  UNL1        0.0887
      5 C         140.3110   74.0180  221.0080 C.2     1  UNL1        0.2334
      6 O         139.7350   74.7790  221.9260 O.2     1  UNL1       -0.2739
      7 N         141.0940   74.7800  220.1270 N.am    1  UNL1       -0.2885
      8 C         142.5880   74.6790  220.2270 C.3     1  UNL1        0.0156
      9 C         143.1100   75.0070  218.8720 C.3     1  UNL1       -0.0350
     10 C         141.8950   75.2920  218.0140 C.3     1  UNL1       -0.0242
     11 C         140.8920   75.7320  219.1010 C.3     1  UNL1        0.1022
     12 C         141.3390   77.1180  219.5280 C.ar    1  UNL1        0.2164
     13 N         141.3350   77.6510  220.7480 N.ar    1  UNL1       -0.2118
     14 C         141.8150   78.9180  220.7130 C.ar    1  UNL1        0.1093
     15 C         141.9830   79.8600  221.8140 C.ar    1  UNL1        0.0034
     16 C         142.5760   79.4520  222.9910 C.ar    1  UNL1       -0.0525
     17 C         142.7530   80.3110  224.0540 C.ar    1  UNL1       -0.0611
     18 C         142.3160   81.6090  223.9130 C.ar    1  UNL1       -0.0617
     19 C         141.7280   82.0040  222.7390 C.ar    1  UNL1       -0.0611
     20 C         141.5410   81.1580  221.6610 C.ar    1  UNL1       -0.0525
     21 C         142.1180   79.1340  219.3810 C.ar    1  UNL1        0.1201
     22 O         141.8180   78.0390  218.7260 O.2     1  UNL1       -0.4453
     23 C         139.7020   69.9740  223.8940 C.ar    1  UNL1        0.1260
     24 C         139.1450   68.7240  224.0540 C.ar    1  UNL1       -0.0306
     25 C         139.2270   68.0430  225.2650 C.ar    1  UNL1       -0.0504
     26 C         139.8970   68.6860  226.3010 C.ar    1  UNL1        0.0004
     27 C         140.0410   68.1050  227.5470 C.ar    1  UNL1       -0.0526
     28 C         140.7180   68.7820  228.5510 C.ar    1  UNL1       -0.0611
     29 C         141.2650   70.0360  228.3540 C.ar    1  UNL1       -0.0597
     30 C         141.1210   70.6150  227.1100 C.ar    1  UNL1       -0.0357
     31 C         140.4430   69.9370  226.1040 C.ar    1  UNL1        0.0718
     32 N         140.3560   70.5890  224.9170 N.ar    1  UNL1       -0.2421
     33 H         140.5580   72.3750  223.2250 H       1  UNL1        0.1496
     34 H         140.6667   72.0972  220.4349 H       1  UNL1        0.0558
     35 H         138.9147   72.6135  220.9395 H       1  UNL1        0.0558
     36 H         142.9713   75.3954  220.9686 H       1  UNL1        0.0465
     37 H         142.9046   73.6764  220.5503 H       1  UNL1        0.0465
     38 H         143.7618   75.8919  218.9175 H       1  UNL1        0.0281
     39 H         143.7091   74.1813  218.4604 H       1  UNL1        0.0281
     40 H         142.0880   76.0956  217.2881 H       1  UNL1        0.0288
     41 H         141.5611   74.4489  217.3914 H       1  UNL1        0.0288
     42 H         139.8331   75.7759  218.8064 H       1  UNL1        0.0598
     43 H         142.9175   78.4105  223.0837 H       1  UNL1        0.0624
     44 H         143.2284   79.9704  224.9857 H       1  UNL1        0.0618
     45 H         142.4380   82.3258  224.7384 H       1  UNL1        0.0618
     46 H         141.3879   83.0463  222.6501 H       1  UNL1        0.0618
     47 H         141.0650   81.5018  220.7308 H       1  UNL1        0.0624
     48 H         142.5347   80.0563  218.9500 H       1  UNL1        0.1052
     49 H         138.6244   68.2542  223.2065 H       1  UNL1        0.0641
     50 H         138.7837   67.0449  225.3966 H       1  UNL1        0.0625
     51 H         139.6196   67.1078  227.7421 H       1  UNL1        0.0624
     52 H         140.8230   68.3050  229.5366 H       1  UNL1        0.0618
     53 H         141.7983   70.5559  229.1635 H       1  UNL1        0.0618
     54 H         141.5424   71.6121  226.9146 H       1  UNL1        0.0639
@<TRIPOS>BOND
     1     1     2    2
     2     2     3   am
     3     3     4    1
     4     4     5    1
     5     5     6    2
     6     5     7   am
     7     7     8    1
     8     8     9    1
     9     9    10    1
    10    10    11    1
    11    11    12    1
    12    12    13   ar
    13    13    14   ar
    14    14    15    1
    15    15    16   ar
    16    16    17   ar
    17    17    18   ar
    18    18    19   ar
    19    19    20   ar
    20    14    21   ar
    21    21    22   ar
    22     2    23    1
    23    23    24   ar
    24    24    25   ar
    25    25    26   ar
    26    26    27   ar
    27    27    28   ar
    28    28    29   ar
    29    29    30   ar
    30    30    31   ar
    31    31    32   ar
    32    11     7    1
    33    22    12   ar
    34    32    23   ar
    35    20    15   ar
    36    31    26   ar
    37     3    33    1
    38     4    34    1
    39     4    35    1
    40     8    36    1
    41     8    37    1
    42     9    38    1
    43     9    39    1
    44    10    40    1
    45    10    41    1
    46    11    42    1
    47    16    43    1
    48    17    44    1
    49    18    45    1
    50    19    46    1
    51    20    47    1
    52    21    48    1
    53    24    49    1
    54    25    50    1
    55    27    51    1
    56    28    52    1
    57    29    53    1
    58    30    54    1
