
     RDKit          3D

 73 77  0  0  0  0  0  0  0  0999 V2000
  141.3620   69.4310  228.6620 C   0  0  0  0  0  0  0  0  0  0  0  0
  141.0470   68.1860  228.1660 C   0  0  0  0  0  0  0  0  0  0  0  0
  140.3770   68.0960  226.9650 C   0  0  0  0  0  0  0  0  0  0  0  0
  139.9910   69.1790  226.2100 C   0  0  0  0  0  0  0  0  0  0  0  0
  139.2610   69.1030  224.9480 C   0  0  0  0  0  0  0  0  0  0  0  0
  138.4800   70.3590  224.5880 C   0  0  0  0  0  0  0  0  0  0  0  0
  139.1570   70.8940  223.3440 C   0  0  0  0  0  0  0  0  0  0  0  0
  138.8780   72.2490  223.0200 N   0  0  0  0  0  0  0  0  0  0  0  0
  139.7380   73.1410  222.3410 C   0  0  0  0  0  0  0  0  0  0  0  0
  140.7700   72.5800  221.6440 N   0  0  0  0  0  0  0  0  0  0  0  0
  141.6310   73.3470  220.9460 C   0  0  0  0  0  0  0  0  0  0  0  0
  142.6870   72.7130  220.2080 N   0  0  0  0  0  0  0  0  0  0  0  0
  143.7540   71.9690  220.8430 C   0  0  0  0  0  0  0  0  0  0  0  0
  145.0780   72.6470  220.4720 C   0  0  0  0  0  0  0  0  0  0  0  0
  144.7940   74.1270  220.3840 C   0  0  0  0  0  0  0  0  0  0  0  0
  144.0960   74.5570  219.2300 N   0  0  0  0  0  0  0  0  0  0  0  0
  144.4610   73.9880  217.9830 C   0  0  0  0  0  0  0  0  0  0  0  0
  143.9480   74.9200  216.8950 C   0  0  0  0  0  0  0  0  0  0  0  0
  142.6590   75.3320  217.1100 O   0  0  0  0  0  0  0  0  0  0  0  0
  142.4270   75.9480  218.3270 C   0  0  0  0  0  0  0  0  0  0  0  0
  143.7040   75.9230  219.1740 C   0  0  0  0  0  0  0  0  0  0  0  0
  141.5040   74.6930  220.9110 N   0  0  0  0  0  0  0  0  0  0  0  0
  140.4770   75.2490  221.6030 C   0  0  0  0  0  0  0  0  0  0  0  0
  140.3660   76.6580  221.5180 N   0  0  0  0  0  0  0  0  0  0  0  0
  139.0530   77.2680  221.6860 C   0  0  0  0  0  0  0  0  0  0  0  0
  139.1410   77.9780  223.0490 C   0  0  0  0  0  0  0  0  0  0  0  0
  140.2470   78.9750  222.9890 C   0  0  0  0  0  0  0  0  0  0  0  0
  140.1200   80.0900  223.7900 C   0  0  0  0  0  0  0  0  0  0  0  0
  141.1060   81.0820  223.7870 C   0  0  0  0  0  0  0  0  0  0  0  0
  142.1790   80.8680  222.9530 C   0  0  0  0  0  0  0  0  0  0  0  0
  142.3150   79.7560  222.1490 C   0  0  0  0  0  0  0  0  0  0  0  0
  141.3430   78.7830  222.1560 C   0  0  0  0  0  0  0  0  0  0  0  0
  141.4690   77.5630  221.2920 C   0  0  0  0  0  0  0  0  0  0  0  0
  139.6170   74.4730  222.3030 N   0  0  0  0  0  0  0  0  0  0  0  0
  140.3100   70.4300  226.7130 C   0  0  0  0  0  0  0  0  0  0  0  0
  140.9850   70.5450  227.9220 C   0  0  0  0  0  0  0  0  0  0  0  0
  141.8969   69.5408  229.6169 H   0  0  0  0  0  0  0  0  0  0  0  0
  141.3257   67.2772  228.7196 H   0  0  0  0  0  0  0  0  0  0  0  0
  140.1351   67.0923  226.5853 H   0  0  0  0  0  0  0  0  0  0  0  0
  139.9860   68.9082  224.1440 H   0  0  0  0  0  0  0  0  0  0  0  0
  138.5193   68.2993  225.0662 H   0  0  0  0  0  0  0  0  0  0  0  0
  137.4276   70.1147  224.3814 H   0  0  0  0  0  0  0  0  0  0  0  0
  138.4763   71.0938  225.4066 H   0  0  0  0  0  0  0  0  0  0  0  0
  140.2438   70.7977  223.4838 H   0  0  0  0  0  0  0  0  0  0  0  0
  138.7578   70.2998  222.5088 H   0  0  0  0  0  0  0  0  0  0  0  0
  137.9450   72.6470  223.3070 H   0  0  0  0  0  0  0  0  0  0  0  0
  142.6220   72.8510  219.1600 H   0  0  0  0  0  0  0  0  0  0  0  0
  143.6203   71.9798  221.9348 H   0  0  0  0  0  0  0  0  0  0  0  0
  143.7486   70.9222  220.5051 H   0  0  0  0  0  0  0  0  0  0  0  0
  145.8348   72.4510  221.2458 H   0  0  0  0  0  0  0  0  0  0  0  0
  145.4687   72.2604  219.5192 H   0  0  0  0  0  0  0  0  0  0  0  0
  144.1958   74.4079  221.2634 H   0  0  0  0  0  0  0  0  0  0  0  0
  145.7783   74.6156  220.3347 H   0  0  0  0  0  0  0  0  0  0  0  0
  145.5552   73.8971  217.9162 H   0  0  0  0  0  0  0  0  0  0  0  0
  144.0288   72.9827  217.8714 H   0  0  0  0  0  0  0  0  0  0  0  0
  144.5981   75.8065  216.8570 H   0  0  0  0  0  0  0  0  0  0  0  0
  143.9622   74.3610  215.9477 H   0  0  0  0  0  0  0  0  0  0  0  0
  142.1227   76.9912  218.1560 H   0  0  0  0  0  0  0  0  0  0  0  0
  141.6280   75.4110  218.8591 H   0  0  0  0  0  0  0  0  0  0  0  0
  144.4906   76.5296  218.7016 H   0  0  0  0  0  0  0  0  0  0  0  0
  143.5363   76.3410  220.1776 H   0  0  0  0  0  0  0  0  0  0  0  0
  138.8523   77.9907  220.8814 H   0  0  0  0  0  0  0  0  0  0  0  0
  138.2368   76.5316  221.6453 H   0  0  0  0  0  0  0  0  0  0  0  0
  138.1910   78.4893  223.2636 H   0  0  0  0  0  0  0  0  0  0  0  0
  139.3358   77.2447  223.8455 H   0  0  0  0  0  0  0  0  0  0  0  0
  139.2367   80.2002  224.4362 H   0  0  0  0  0  0  0  0  0  0  0  0
  141.0280   81.9815  224.4153 H   0  0  0  0  0  0  0  0  0  0  0  0
  142.9741   81.6276  222.9260 H   0  0  0  0  0  0  0  0  0  0  0  0
  143.1990   79.6474  221.5034 H   0  0  0  0  0  0  0  0  0  0  0  0
  141.4741   77.8685  220.2353 H   0  0  0  0  0  0  0  0  0  0  0  0
  142.4064   77.0465  221.5459 H   0  0  0  0  0  0  0  0  0  0  0  0
  140.0282   71.3344  226.1538 H   0  0  0  0  0  0  0  0  0  0  0  0
  141.2281   71.5473  228.3045 H   0  0  0  0  0  0  0  0  0  0  0  0
  1  2  2  0
  2  3  1  0
  3  4  2  0
  4  5  1  0
  5  6  1  0
  6  7  1  0
  7  8  1  0
  8  9  1  0
  9 10  2  0
 10 11  1  0
 11 12  1  0
 12 13  1  0
 13 14  1  0
 14 15  1  0
 15 16  1  0
 16 17  1  0
 17 18  1  0
 18 19  1  0
 19 20  1  0
 20 21  1  0
 11 22  2  0
 22 23  1  0
 23 24  1  0
 24 25  1  0
 25 26  1  0
 26 27  1  0
 27 28  2  0
 28 29  1  0
 29 30  2  0
 30 31  1  0
 31 32  2  0
 32 33  1  0
 23 34  2  0
  4 35  1  0
 35 36  2  0
 36  1  1  0
 34  9  1  0
 21 16  1  0
 33 24  1  0
 32 27  1  0
  1 37  1  0
  2 38  1  0
  3 39  1  0
  5 40  1  0
  5 41  1  0
  6 42  1  0
  6 43  1  0
  7 44  1  0
  7 45  1  0
  8 46  1  0
 12 47  1  0
 13 48  1  0
 13 49  1  0
 14 50  1  0
 14 51  1  0
 15 52  1  0
 15 53  1  0
 17 54  1  0
 17 55  1  0
 18 56  1  0
 18 57  1  0
 20 58  1  0
 20 59  1  0
 21 60  1  0
 21 61  1  0
 25 62  1  0
 25 63  1  0
 26 64  1  0
 26 65  1  0
 28 66  1  0
 29 67  1  0
 30 68  1  0
 31 69  1  0
 33 70  1  0
 33 71  1  0
 35 72  1  0
 36 73  1  0
M  END
>  <smiles>  (1) 
c1ccc(CCCNc2nc(NCCCN3CCOCC3)nc(N3CCc4ccccc4C3)n2)cc1

>  <score_type>  (1) 
oracle

>  <origin>  (1) 
autodockgpu

>  <m_score__min__energy>  (1) 
-9.7400000000000002

>  <m_primary>  (1) 
energy

>  <rmsd>  (1) 
5.28898629289042

>  <m_score__min__rmsd>  (1) 
5.28898629289042

>  <meeko>  (1) 
{"free_energy": -8.91, "intermolecular_energy": -12.19, "internal_energy": -1.87, "cluster_size": 6, "cluster_id": 3, "rank_in_cluster": 4}

>  <energy>  (1) 
-9.74

>  <cluster_rmsd>  (1) 
0.0

>  <cluster>  (1) 
1

$$$$

     RDKit          3D

 73 77  0  0  0  0  0  0  0  0999 V2000
  143.0190   80.6170  223.2180 C   0  0  0  0  0  0  0  0  0  0  0  0
  142.5870   80.6010  221.9110 C   0  0  0  0  0  0  0  0  0  0  0  0
  141.4040   79.9650  221.6060 C   0  0  0  0  0  0  0  0  0  0  0  0
  140.6040   79.3310  222.5290 C   0  0  0  0  0  0  0  0  0  0  0  0
  139.3600   78.6330  222.2210 C   0  0  0  0  0  0  0  0  0  0  0  0
  139.5390   77.2750  221.5570 C   0  0  0  0  0  0  0  0  0  0  0  0
  140.6040   76.5780  222.3760 C   0  0  0  0  0  0  0  0  0  0  0  0
  141.4500   75.6860  221.6630 N   0  0  0  0  0  0  0  0  0  0  0  0
  141.2420   74.3000  221.4830 C   0  0  0  0  0  0  0  0  0  0  0  0
  140.2090   73.7430  222.1830 N   0  0  0  0  0  0  0  0  0  0  0  0
  139.9180   72.4330  222.0610 C   0  0  0  0  0  0  0  0  0  0  0  0
  138.8090   71.8950  222.7970 N   0  0  0  0  0  0  0  0  0  0  0  0
  138.5710   70.4730  222.9340 C   0  0  0  0  0  0  0  0  0  0  0  0
  139.8120   69.8570  223.5910 C   0  0  0  0  0  0  0  0  0  0  0  0
  139.4190   69.4960  225.0020 C   0  0  0  0  0  0  0  0  0  0  0  0
  139.9080   70.3500  226.0190 N   0  0  0  0  0  0  0  0  0  0  0  0
  140.6480   71.4950  225.6260 C   0  0  0  0  0  0  0  0  0  0  0  0
  141.4470   71.9530  226.8370 C   0  0  0  0  0  0  0  0  0  0  0  0
  140.7040   71.9790  227.9880 O   0  0  0  0  0  0  0  0  0  0  0  0
  140.0890   70.7860  228.3240 C   0  0  0  0  0  0  0  0  0  0  0  0
  140.3420   69.7430  227.2310 C   0  0  0  0  0  0  0  0  0  0  0  0
  140.6330   71.6270  221.2440 N   0  0  0  0  0  0  0  0  0  0  0  0
  141.6580   72.1820  220.5480 C   0  0  0  0  0  0  0  0  0  0  0  0
  142.3640   71.3080  219.6860 N   0  0  0  0  0  0  0  0  0  0  0  0
  143.4040   71.8610  218.8280 C   0  0  0  0  0  0  0  0  0  0  0  0
  144.7140   71.3220  219.4320 C   0  0  0  0  0  0  0  0  0  0  0  0
  144.6650   69.8330  219.4070 C   0  0  0  0  0  0  0  0  0  0  0  0
  145.8720   69.1760  219.3020 C   0  0  0  0  0  0  0  0  0  0  0  0
  145.9170   67.7780  219.2610 C   0  0  0  0  0  0  0  0  0  0  0  0
  144.7050   67.1300  219.3320 C   0  0  0  0  0  0  0  0  0  0  0  0
  143.4930   67.7790  219.4370 C   0  0  0  0  0  0  0  0  0  0  0  0
  143.4540   69.1530  219.4780 C   0  0  0  0  0  0  0  0  0  0  0  0
  142.1490   69.8830  219.5950 C   0  0  0  0  0  0  0  0  0  0  0  0
  141.9460   73.4980  220.6770 N   0  0  0  0  0  0  0  0  0  0  0  0
  141.0420   79.3500  223.8430 C   0  0  0  0  0  0  0  0  0  0  0  0
  142.2330   79.9850  224.1750 C   0  0  0  0  0  0  0  0  0  0  0  0
  143.9590   81.1155  223.4972 H   0  0  0  0  0  0  0  0  0  0  0  0
  143.1779   81.0890  221.1219 H   0  0  0  0  0  0  0  0  0  0  0  0
  141.0772   79.9637  220.5557 H   0  0  0  0  0  0  0  0  0  0  0  0
  138.8088   78.4844  223.1613 H   0  0  0  0  0  0  0  0  0  0  0  0
  138.8215   79.2633  221.4980 H   0  0  0  0  0  0  0  0  0  0  0  0
  138.5981   76.7056  221.5808 H   0  0  0  0  0  0  0  0  0  0  0  0
  139.8243   77.3661  220.4986 H   0  0  0  0  0  0  0  0  0  0  0  0
  141.2385   77.3519  222.8326 H   0  0  0  0  0  0  0  0  0  0  0  0
  140.0612   75.9564  223.1034 H   0  0  0  0  0  0  0  0  0  0  0  0
  142.3230   76.0760  221.2200 H   0  0  0  0  0  0  0  0  0  0  0  0
  138.1740   72.6310  223.2190 H   0  0  0  0  0  0  0  0  0  0  0  0
  137.6871   70.2997  223.5654 H   0  0  0  0  0  0  0  0  0  0  0  0
  138.3868   70.0154  221.9508 H   0  0  0  0  0  0  0  0  0  0  0  0
  140.1245   68.9565  223.0420 H   0  0  0  0  0  0  0  0  0  0  0  0
  140.6563   70.5621  223.5827 H   0  0  0  0  0  0  0  0  0  0  0  0
  138.3204   69.5011  225.0573 H   0  0  0  0  0  0  0  0  0  0  0  0
  139.8743   68.5134  225.1949 H   0  0  0  0  0  0  0  0  0  0  0  0
  141.3285   71.2387  224.8007 H   0  0  0  0  0  0  0  0  0  0  0  0
  139.9759   72.2931  225.2776 H   0  0  0  0  0  0  0  0  0  0  0  0
  142.2924   71.2640  226.9806 H   0  0  0  0  0  0  0  0  0  0  0  0
  141.7852   72.9809  226.6395 H   0  0  0  0  0  0  0  0  0  0  0  0
  140.4975   70.4211  229.2779 H   0  0  0  0  0  0  0  0  0  0  0  0
  139.0061   70.9520  228.4224 H   0  0  0  0  0  0  0  0  0  0  0  0
  141.4125   69.4960  227.1755 H   0  0  0  0  0  0  0  0  0  0  0  0
  139.8065   68.8033  227.4316 H   0  0  0  0  0  0  0  0  0  0  0  0
  143.2803   71.5146  217.7913 H   0  0  0  0  0  0  0  0  0  0  0  0
  143.3782   72.9599  218.7874 H   0  0  0  0  0  0  0  0  0  0  0  0
  145.5700   71.6757  218.8385 H   0  0  0  0  0  0  0  0  0  0  0  0
  144.8289   71.6793  220.4660 H   0  0  0  0  0  0  0  0  0  0  0  0
  146.8062   69.7545  219.2501 H   0  0  0  0  0  0  0  0  0  0  0  0
  146.8663   67.2287  219.1769 H   0  0  0  0  0  0  0  0  0  0  0  0
  144.7030   66.0304  219.3033 H   0  0  0  0  0  0  0  0  0  0  0  0
  142.5596   67.1991  219.4878 H   0  0  0  0  0  0  0  0  0  0  0  0
  141.5344   69.6671  218.7086 H   0  0  0  0  0  0  0  0  0  0  0  0
  141.6370   69.5450  220.5080 H   0  0  0  0  0  0  0  0  0  0  0  0
  140.4450   78.8607  224.6267 H   0  0  0  0  0  0  0  0  0  0  0  0
  142.5630   79.9876  225.2243 H   0  0  0  0  0  0  0  0  0  0  0  0
  1  2  2  0
  2  3  1  0
  3  4  2  0
  4  5  1  0
  5  6  1  0
  6  7  1  0
  7  8  1  0
  8  9  1  0
  9 10  2  0
 10 11  1  0
 11 12  1  0
 12 13  1  0
 13 14  1  0
 14 15  1  0
 15 16  1  0
 16 17  1  0
 17 18  1  0
 18 19  1  0
 19 20  1  0
 20 21  1  0
 11 22  2  0
 22 23  1  0
 23 24  1  0
 24 25  1  0
 25 26  1  0
 26 27  1  0
 27 28  2  0
 28 29  1  0
 29 30  2  0
 30 31  1  0
 31 32  2  0
 32 33  1  0
 23 34  2  0
  4 35  1  0
 35 36  2  0
 36  1  1  0
 34  9  1  0
 21 16  1  0
 33 24  1  0
 32 27  1  0
  1 37  1  0
  2 38  1  0
  3 39  1  0
  5 40  1  0
  5 41  1  0
  6 42  1  0
  6 43  1  0
  7 44  1  0
  7 45  1  0
  8 46  1  0
 12 47  1  0
 13 48  1  0
 13 49  1  0
 14 50  1  0
 14 51  1  0
 15 52  1  0
 15 53  1  0
 17 54  1  0
 17 55  1  0
 18 56  1  0
 18 57  1  0
 20 58  1  0
 20 59  1  0
 21 60  1  0
 21 61  1  0
 25 62  1  0
 25 63  1  0
 26 64  1  0
 26 65  1  0
 28 66  1  0
 29 67  1  0
 30 68  1  0
 31 69  1  0
 33 70  1  0
 33 71  1  0
 35 72  1  0
 36 73  1  0
M  END
>  <smiles>  (2) 
c1ccc(CCCNc2nc(NCCCN3CCOCC3)nc(N3CCc4ccccc4C3)n2)cc1

>  <score_type>  (2) 
oracle

>  <origin>  (2) 
autodockgpu

>  <m_score__min__energy>  (2) 
-9.7400000000000002

>  <m_primary>  (2) 
energy

>  <rmsd>  (2) 
10.881767914678717

>  <m_score__min__rmsd>  (2) 
10.881767914678717

>  <meeko>  (2) 
{"free_energy": -9.1, "intermolecular_energy": -12.38, "internal_energy": -1.25, "cluster_size": 1, "cluster_id": 4, "rank_in_cluster": 1}

>  <energy>  (2) 
-9.71

>  <cluster_rmsd>  (2) 
1.01

>  <cluster>  (2) 
1

$$$$

     RDKit          3D

 73 77  0  0  0  0  0  0  0  0999 V2000
  140.7640   69.2880  228.3000 C   0  0  0  0  0  0  0  0  0  0  0  0
  140.4580   68.6660  227.1100 C   0  0  0  0  0  0  0  0  0  0  0  0
  140.3760   69.4240  225.9630 C   0  0  0  0  0  0  0  0  0  0  0  0
  140.5830   70.7830  225.9150 C   0  0  0  0  0  0  0  0  0  0  0  0
  140.4790   71.6060  224.7140 C   0  0  0  0  0  0  0  0  0  0  0  0
  139.9300   70.8840  223.4920 C   0  0  0  0  0  0  0  0  0  0  0  0
  140.5880   71.5630  222.3100 C   0  0  0  0  0  0  0  0  0  0  0  0
  139.7580   72.4330  221.5540 N   0  0  0  0  0  0  0  0  0  0  0  0
  139.5180   73.8000  221.8190 C   0  0  0  0  0  0  0  0  0  0  0  0
  138.2460   74.1350  222.1870 N   0  0  0  0  0  0  0  0  0  0  0  0
  137.9230   75.4100  222.4820 C   0  0  0  0  0  0  0  0  0  0  0  0
  136.5800   75.7130  222.8870 N   0  0  0  0  0  0  0  0  0  0  0  0
  135.6340   74.6960  223.2970 C   0  0  0  0  0  0  0  0  0  0  0  0
  134.9540   75.1860  224.5810 C   0  0  0  0  0  0  0  0  0  0  0  0
  134.6000   73.9550  225.3780 C   0  0  0  0  0  0  0  0  0  0  0  0
  133.5950   74.1200  226.3610 N   0  0  0  0  0  0  0  0  0  0  0  0
  133.0540   72.9540  226.9590 C   0  0  0  0  0  0  0  0  0  0  0  0
  131.7200   73.3430  227.5800 C   0  0  0  0  0  0  0  0  0  0  0  0
  131.7820   74.5120  228.2900 O   0  0  0  0  0  0  0  0  0  0  0  0
  132.2490   75.6100  227.5870 C   0  0  0  0  0  0  0  0  0  0  0  0
  132.6690   75.1840  226.1770 C   0  0  0  0  0  0  0  0  0  0  0  0
  138.8440   76.3990  222.4260 N   0  0  0  0  0  0  0  0  0  0  0  0
  140.1090   76.0650  222.0620 C   0  0  0  0  0  0  0  0  0  0  0  0
  141.0470   77.1250  222.0410 N   0  0  0  0  0  0  0  0  0  0  0  0
  141.6480   77.5030  220.7680 C   0  0  0  0  0  0  0  0  0  0  0  0
  141.0230   78.8740  220.4510 C   0  0  0  0  0  0  0  0  0  0  0  0
  141.3600   79.8120  221.5590 C   0  0  0  0  0  0  0  0  0  0  0  0
  141.4600   81.1470  221.2300 C   0  0  0  0  0  0  0  0  0  0  0  0
  141.7830   82.0950  222.2070 C   0  0  0  0  0  0  0  0  0  0  0  0
  141.9870   81.6100  223.4790 C   0  0  0  0  0  0  0  0  0  0  0  0
  141.8880   80.2770  223.8160 C   0  0  0  0  0  0  0  0  0  0  0  0
  141.5690   79.3490  222.8530 C   0  0  0  0  0  0  0  0  0  0  0  0
  141.4540   77.8930  223.1950 C   0  0  0  0  0  0  0  0  0  0  0  0
  140.4250   74.7830  221.7650 N   0  0  0  0  0  0  0  0  0  0  0  0
  140.8910   71.4050  227.1150 C   0  0  0  0  0  0  0  0  0  0  0  0
  140.9780   70.6600  228.2850 C   0  0  0  0  0  0  0  0  0  0  0  0
  140.8369   68.7143  229.2357 H   0  0  0  0  0  0  0  0  0  0  0  0
  140.2818   67.5807  227.0761 H   0  0  0  0  0  0  0  0  0  0  0  0
  140.1287   68.9086  225.0232 H   0  0  0  0  0  0  0  0  0  0  0  0
  139.8156   72.4547  224.9370 H   0  0  0  0  0  0  0  0  0  0  0  0
  141.5041   71.9124  224.4585 H   0  0  0  0  0  0  0  0  0  0  0  0
  140.1946   69.8167  223.5218 H   0  0  0  0  0  0  0  0  0  0  0  0
  138.8324   70.9341  223.4399 H   0  0  0  0  0  0  0  0  0  0  0  0
  141.4367   72.1514  222.6887 H   0  0  0  0  0  0  0  0  0  0  0  0
  140.8748   70.7532  221.6230 H   0  0  0  0  0  0  0  0  0  0  0  0
  139.2650   72.0410  220.7090 H   0  0  0  0  0  0  0  0  0  0  0  0
  136.3400   76.7430  222.8460 H   0  0  0  0  0  0  0  0  0  0  0  0
  134.8819   74.5437  222.5089 H   0  0  0  0  0  0  0  0  0  0  0  0
  136.1474   73.7392  223.4727 H   0  0  0  0  0  0  0  0  0  0  0  0
  135.6416   75.8248  225.1546 H   0  0  0  0  0  0  0  0  0  0  0  0
  134.0581   75.7820  224.3528 H   0  0  0  0  0  0  0  0  0  0  0  0
  134.2571   73.1842  224.6722 H   0  0  0  0  0  0  0  0  0  0  0  0
  135.5130   73.6861  225.9295 H   0  0  0  0  0  0  0  0  0  0  0  0
  132.9020   72.1756  226.1968 H   0  0  0  0  0  0  0  0  0  0  0  0
  133.7377   72.5540  227.7222 H   0  0  0  0  0  0  0  0  0  0  0  0
  130.9794   73.4604  226.7752 H   0  0  0  0  0  0  0  0  0  0  0  0
  131.4387   72.5451  228.2830 H   0  0  0  0  0  0  0  0  0  0  0  0
  131.4521   76.3652  227.5180 H   0  0  0  0  0  0  0  0  0  0  0  0
  133.1177   76.0342  228.1118 H   0  0  0  0  0  0  0  0  0  0  0  0
  131.7960   74.8389  225.6037 H   0  0  0  0  0  0  0  0  0  0  0  0
  133.1129   76.0183  225.6141 H   0  0  0  0  0  0  0  0  0  0  0  0
  142.7411   77.5841  220.8609 H   0  0  0  0  0  0  0  0  0  0  0  0
  141.4634   76.7614  219.9768 H   0  0  0  0  0  0  0  0  0  0  0  0
  141.4291   79.2573  219.5033 H   0  0  0  0  0  0  0  0  0  0  0  0
  139.9313   78.7787  220.3553 H   0  0  0  0  0  0  0  0  0  0  0  0
  141.2848   81.4689  220.1929 H   0  0  0  0  0  0  0  0  0  0  0  0
  141.8690   83.1662  221.9722 H   0  0  0  0  0  0  0  0  0  0  0  0
  142.2438   82.3275  224.2723 H   0  0  0  0  0  0  0  0  0  0  0  0
  142.0639   79.9564  224.8534 H   0  0  0  0  0  0  0  0  0  0  0  0
  142.4302   77.5268  223.5458 H   0  0  0  0  0  0  0  0  0  0  0  0
  140.6950   77.7749  223.9824 H   0  0  0  0  0  0  0  0  0  0  0  0
  141.0669   72.4905  227.1412 H   0  0  0  0  0  0  0  0  0  0  0  0
  141.2236   71.1723  229.2270 H   0  0  0  0  0  0  0  0  0  0  0  0
  1  2  2  0
  2  3  1  0
  3  4  2  0
  4  5  1  0
  5  6  1  0
  6  7  1  0
  7  8  1  0
  8  9  1  0
  9 10  2  0
 10 11  1  0
 11 12  1  0
 12 13  1  0
 13 14  1  0
 14 15  1  0
 15 16  1  0
 16 17  1  0
 17 18  1  0
 18 19  1  0
 19 20  1  0
 20 21  1  0
 11 22  2  0
 22 23  1  0
 23 24  1  0
 24 25  1  0
 25 26  1  0
 26 27  1  0
 27 28  2  0
 28 29  1  0
 29 30  2  0
 30 31  1  0
 31 32  2  0
 32 33  1  0
 23 34  2  0
  4 35  1  0
 35 36  2  0
 36  1  1  0
 34  9  1  0
 21 16  1  0
 33 24  1  0
 32 27  1  0
  1 37  1  0
  2 38  1  0
  3 39  1  0
  5 40  1  0
  5 41  1  0
  6 42  1  0
  6 43  1  0
  7 44  1  0
  7 45  1  0
  8 46  1  0
 12 47  1  0
 13 48  1  0
 13 49  1  0
 14 50  1  0
 14 51  1  0
 15 52  1  0
 15 53  1  0
 17 54  1  0
 17 55  1  0
 18 56  1  0
 18 57  1  0
 20 58  1  0
 20 59  1  0
 21 60  1  0
 21 61  1  0
 25 62  1  0
 25 63  1  0
 26 64  1  0
 26 65  1  0
 28 66  1  0
 29 67  1  0
 30 68  1  0
 31 69  1  0
 33 70  1  0
 33 71  1  0
 35 72  1  0
 36 73  1  0
M  END
>  <smiles>  (3) 
c1ccc(CCCNc2nc(NCCCN3CCOCC3)nc(N3CCc4ccccc4C3)n2)cc1

>  <score_type>  (3) 
oracle

>  <origin>  (3) 
autodockgpu

>  <m_score__min__energy>  (3) 
-9.7400000000000002

>  <m_primary>  (3) 
energy

>  <rmsd>  (3) 
4.94995214997316

>  <m_score__min__rmsd>  (3) 
4.94995214997316

>  <meeko>  (3) 
{"free_energy": -9.53, "intermolecular_energy": -12.81, "internal_energy": -0.99, "cluster_size": 15, "cluster_id": 1, "rank_in_cluster": 4}

>  <energy>  (3) 
-9.71

>  <cluster_rmsd>  (3) 
0.59

>  <cluster>  (3) 
1

$$$$

     RDKit          3D

 73 77  0  0  0  0  0  0  0  0999 V2000
  140.5510   70.6160  228.3230 C   0  0  0  0  0  0  0  0  0  0  0  0
  141.1420   71.7450  227.8020 C   0  0  0  0  0  0  0  0  0  0  0  0
  141.1510   71.9240  226.4360 C   0  0  0  0  0  0  0  0  0  0  0  0
  140.6040   71.0410  225.5350 C   0  0  0  0  0  0  0  0  0  0  0  0
  140.6250   71.2020  224.0840 C   0  0  0  0  0  0  0  0  0  0  0  0
  139.4610   70.5480  223.3530 C   0  0  0  0  0  0  0  0  0  0  0  0
  139.1890   71.4500  222.1690 C   0  0  0  0  0  0  0  0  0  0  0  0
  139.3860   72.8400  222.3890 N   0  0  0  0  0  0  0  0  0  0  0  0
  140.3610   73.6540  221.7700 C   0  0  0  0  0  0  0  0  0  0  0  0
  140.2570   74.9990  221.9850 N   0  0  0  0  0  0  0  0  0  0  0  0
  141.1520   75.8560  221.4550 C   0  0  0  0  0  0  0  0  0  0  0  0
  141.0180   77.2600  221.7270 N   0  0  0  0  0  0  0  0  0  0  0  0
  139.9570   78.0710  221.1690 C   0  0  0  0  0  0  0  0  0  0  0  0
  138.9080   78.2830  222.2670 C   0  0  0  0  0  0  0  0  0  0  0  0
  139.6120   78.9780  223.4070 C   0  0  0  0  0  0  0  0  0  0  0  0
  140.8720   79.5480  223.1020 N   0  0  0  0  0  0  0  0  0  0  0  0
  141.9290   79.3520  224.0270 C   0  0  0  0  0  0  0  0  0  0  0  0
  142.9780   80.4170  223.7440 C   0  0  0  0  0  0  0  0  0  0  0  0
  143.2510   80.5560  222.4090 O   0  0  0  0  0  0  0  0  0  0  0  0
  142.1580   80.8260  221.6040 C   0  0  0  0  0  0  0  0  0  0  0  0
  140.8770   80.8090  222.4440 C   0  0  0  0  0  0  0  0  0  0  0  0
  142.1810   75.4170  220.6950 N   0  0  0  0  0  0  0  0  0  0  0  0
  142.2840   74.0800  220.4830 C   0  0  0  0  0  0  0  0  0  0  0  0
  143.3900   73.6620  219.7040 N   0  0  0  0  0  0  0  0  0  0  0  0
  144.7350   73.9510  220.1860 C   0  0  0  0  0  0  0  0  0  0  0  0
  145.2920   72.5750  220.5930 C   0  0  0  0  0  0  0  0  0  0  0  0
  145.2770   71.6880  219.3950 C   0  0  0  0  0  0  0  0  0  0  0  0
  146.2380   70.7020  219.3430 C   0  0  0  0  0  0  0  0  0  0  0  0
  146.3030   69.8330  218.2490 C   0  0  0  0  0  0  0  0  0  0  0  0
  145.3650   70.0290  217.2610 C   0  0  0  0  0  0  0  0  0  0  0  0
  144.4000   71.0130  217.3060 C   0  0  0  0  0  0  0  0  0  0  0  0
  144.3390   71.8640  218.3830 C   0  0  0  0  0  0  0  0  0  0  0  0
  143.2970   72.9410  218.4560 C   0  0  0  0  0  0  0  0  0  0  0  0
  141.3810   73.2260  221.0170 N   0  0  0  0  0  0  0  0  0  0  0  0
  140.0110   69.9050  226.0630 C   0  0  0  0  0  0  0  0  0  0  0  0
  139.9890   69.7040  227.4380 C   0  0  0  0  0  0  0  0  0  0  0  0
  140.5244   70.4409  229.4087 H   0  0  0  0  0  0  0  0  0  0  0  0
  141.6000   72.4927  228.4662 H   0  0  0  0  0  0  0  0  0  0  0  0
  141.6271   72.8332  226.0401 H   0  0  0  0  0  0  0  0  0  0  0  0
  140.6092   72.2786  223.8588 H   0  0  0  0  0  0  0  0  0  0  0  0
  141.5362   70.6981  223.7294 H   0  0  0  0  0  0  0  0  0  0  0  0
  139.7348   69.5376  223.0150 H   0  0  0  0  0  0  0  0  0  0  0  0
  138.5777   70.4343  223.9987 H   0  0  0  0  0  0  0  0  0  0  0  0
  139.8549   71.1408  221.3499 H   0  0  0  0  0  0  0  0  0  0  0  0
  138.1183   71.3330  221.9457 H   0  0  0  0  0  0  0  0  0  0  0  0
  138.7560   73.3290  223.0770 H   0  0  0  0  0  0  0  0  0  0  0  0
  141.7720   77.6490  222.3610 H   0  0  0  0  0  0  0  0  0  0  0  0
  140.3591   79.0413  220.8422 H   0  0  0  0  0  0  0  0  0  0  0  0
  139.5080   77.5725  220.2973 H   0  0  0  0  0  0  0  0  0  0  0  0
  138.0856   78.9091  221.8905 H   0  0  0  0  0  0  0  0  0  0  0  0
  138.4752   77.3256  222.5925 H   0  0  0  0  0  0  0  0  0  0  0  0
  138.9558   79.7843  223.7666 H   0  0  0  0  0  0  0  0  0  0  0  0
  139.8129   78.1953  224.1534 H   0  0  0  0  0  0  0  0  0  0  0  0
  141.5538   79.4566  225.0557 H   0  0  0  0  0  0  0  0  0  0  0  0
  142.3576   78.3443  223.9223 H   0  0  0  0  0  0  0  0  0  0  0  0
  142.6128   81.3803  224.1295 H   0  0  0  0  0  0  0  0  0  0  0  0
  143.9084   80.1033  224.2399 H   0  0  0  0  0  0  0  0  0  0  0  0
  142.2796   81.8177  221.1439 H   0  0  0  0  0  0  0  0  0  0  0  0
  142.0873   80.0588  220.8189 H   0  0  0  0  0  0  0  0  0  0  0  0
  140.8886   81.6267  223.1797 H   0  0  0  0  0  0  0  0  0  0  0  0
  139.9797   80.9496  221.8235 H   0  0  0  0  0  0  0  0  0  0  0  0
  145.3470   74.4000  219.3899 H   0  0  0  0  0  0  0  0  0  0  0  0
  144.7397   74.6710  221.0176 H   0  0  0  0  0  0  0  0  0  0  0  0
  146.3229   72.6855  220.9605 H   0  0  0  0  0  0  0  0  0  0  0  0
  144.6757   72.1395  221.3933 H   0  0  0  0  0  0  0  0  0  0  0  0
  146.9589   70.5976  220.1673 H   0  0  0  0  0  0  0  0  0  0  0  0
  147.0605   69.0382  218.1820 H   0  0  0  0  0  0  0  0  0  0  0  0
  145.3864   69.3629  216.3859 H   0  0  0  0  0  0  0  0  0  0  0  0
  143.6800   71.1165  216.4808 H   0  0  0  0  0  0  0  0  0  0  0  0
  143.4452   73.6430  217.6222 H   0  0  0  0  0  0  0  0  0  0  0  0
  142.3030   72.4743  218.3921 H   0  0  0  0  0  0  0  0  0  0  0  0
  139.5568   69.1608  225.3923 H   0  0  0  0  0  0  0  0  0  0  0  0
  139.5128   68.7964  227.8374 H   0  0  0  0  0  0  0  0  0  0  0  0
  1  2  2  0
  2  3  1  0
  3  4  2  0
  4  5  1  0
  5  6  1  0
  6  7  1  0
  7  8  1  0
  8  9  1  0
  9 10  2  0
 10 11  1  0
 11 12  1  0
 12 13  1  0
 13 14  1  0
 14 15  1  0
 15 16  1  0
 16 17  1  0
 17 18  1  0
 18 19  1  0
 19 20  1  0
 20 21  1  0
 11 22  2  0
 22 23  1  0
 23 24  1  0
 24 25  1  0
 25 26  1  0
 26 27  1  0
 27 28  2  0
 28 29  1  0
 29 30  2  0
 30 31  1  0
 31 32  2  0
 32 33  1  0
 23 34  2  0
  4 35  1  0
 35 36  2  0
 36  1  1  0
 34  9  1  0
 21 16  1  0
 33 24  1  0
 32 27  1  0
  1 37  1  0
  2 38  1  0
  3 39  1  0
  5 40  1  0
  5 41  1  0
  6 42  1  0
  6 43  1  0
  7 44  1  0
  7 45  1  0
  8 46  1  0
 12 47  1  0
 13 48  1  0
 13 49  1  0
 14 50  1  0
 14 51  1  0
 15 52  1  0
 15 53  1  0
 17 54  1  0
 17 55  1  0
 18 56  1  0
 18 57  1  0
 20 58  1  0
 20 59  1  0
 21 60  1  0
 21 61  1  0
 25 62  1  0
 25 63  1  0
 26 64  1  0
 26 65  1  0
 28 66  1  0
 29 67  1  0
 30 68  1  0
 31 69  1  0
 33 70  1  0
 33 71  1  0
 35 72  1  0
 36 73  1  0
M  END
>  <smiles>  (4) 
c1ccc(CCCNc2nc(NCCCN3CCOCC3)nc(N3CCc4ccccc4C3)n2)cc1

>  <score_type>  (4) 
oracle

>  <origin>  (4) 
autodockgpu

>  <m_score__min__energy>  (4) 
-9.7400000000000002

>  <m_primary>  (4) 
energy

>  <rmsd>  (4) 
9.226328088932467

>  <m_score__min__rmsd>  (4) 
9.226328088932467

>  <meeko>  (4) 
{"free_energy": -9.16, "intermolecular_energy": -12.44, "internal_energy": -1.73, "cluster_size": 4, "cluster_id": 2, "rank_in_cluster": 4}

>  <energy>  (4) 
-9.53

>  <cluster_rmsd>  (4) 
1.24

>  <cluster>  (4) 
1

$$$$

     RDKit          3D

 73 77  0  0  0  0  0  0  0  0999 V2000
  142.2600   80.9050  222.7260 C   0  0  0  0  0  0  0  0  0  0  0  0
  141.8860   80.3400  221.5270 C   0  0  0  0  0  0  0  0  0  0  0  0
  141.4810   79.0230  221.5070 C   0  0  0  0  0  0  0  0  0  0  0  0
  141.4200   78.2140  222.6170 C   0  0  0  0  0  0  0  0  0  0  0  0
  141.0160   76.8110  222.6120 C   0  0  0  0  0  0  0  0  0  0  0  0
  139.5280   76.5770  222.3940 C   0  0  0  0  0  0  0  0  0  0  0  0
  139.4260   75.9890  221.0020 C   0  0  0  0  0  0  0  0  0  0  0  0
  140.3720   74.9780  220.6850 N   0  0  0  0  0  0  0  0  0  0  0  0
  140.3730   73.6510  221.1710 C   0  0  0  0  0  0  0  0  0  0  0  0
  140.8550   72.6930  220.3260 N   0  0  0  0  0  0  0  0  0  0  0  0
  140.9160   71.4010  220.7070 C   0  0  0  0  0  0  0  0  0  0  0  0
  141.4530   70.4310  219.7950 N   0  0  0  0  0  0  0  0  0  0  0  0
  141.8130   70.7500  218.4290 C   0  0  0  0  0  0  0  0  0  0  0  0
  142.8520   71.8770  218.4750 C   0  0  0  0  0  0  0  0  0  0  0  0
  142.2370   73.0590  217.7690 C   0  0  0  0  0  0  0  0  0  0  0  0
  142.4240   74.3180  218.3890 N   0  0  0  0  0  0  0  0  0  0  0  0
  141.7430   75.4350  217.8400 C   0  0  0  0  0  0  0  0  0  0  0  0
  142.4540   76.6850  218.3380 C   0  0  0  0  0  0  0  0  0  0  0  0
  142.7330   76.6420  219.6790 O   0  0  0  0  0  0  0  0  0  0  0  0
  143.4730   75.5490  220.0970 C   0  0  0  0  0  0  0  0  0  0  0  0
  143.7130   74.6020  218.9170 C   0  0  0  0  0  0  0  0  0  0  0  0
  140.5060   71.0100  221.9340 N   0  0  0  0  0  0  0  0  0  0  0  0
  140.0280   71.9640  222.7740 C   0  0  0  0  0  0  0  0  0  0  0  0
  139.6330   71.5150  224.0580 N   0  0  0  0  0  0  0  0  0  0  0  0
  138.3750   70.7900  224.1900 C   0  0  0  0  0  0  0  0  0  0  0  0
  138.8070   69.3450  224.4990 C   0  0  0  0  0  0  0  0  0  0  0  0
  139.6130   69.3530  225.7530 C   0  0  0  0  0  0  0  0  0  0  0  0
  139.5710   68.2100  226.5230 C   0  0  0  0  0  0  0  0  0  0  0  0
  140.2890   68.1360  227.7210 C   0  0  0  0  0  0  0  0  0  0  0  0
  141.0170   69.2530  228.0620 C   0  0  0  0  0  0  0  0  0  0  0  0
  141.0640   70.4000  227.2980 C   0  0  0  0  0  0  0  0  0  0  0  0
  140.3580   70.4680  226.1210 C   0  0  0  0  0  0  0  0  0  0  0  0
  140.3950   71.7030  225.2710 C   0  0  0  0  0  0  0  0  0  0  0  0
  139.9680   73.2580  222.3850 N   0  0  0  0  0  0  0  0  0  0  0  0
  141.7960   78.7860  223.8220 C   0  0  0  0  0  0  0  0  0  0  0  0
  142.2090   80.1130  223.8660 C   0  0  0  0  0  0  0  0  0  0  0  0
  142.5895   81.9531  222.7793 H   0  0  0  0  0  0  0  0  0  0  0  0
  141.9102   80.9309  220.5995 H   0  0  0  0  0  0  0  0  0  0  0  0
  141.1872   78.5905  220.5392 H   0  0  0  0  0  0  0  0  0  0  0  0
  141.5645   76.2996  221.8072 H   0  0  0  0  0  0  0  0  0  0  0  0
  141.2484   76.4179  223.6127 H   0  0  0  0  0  0  0  0  0  0  0  0
  139.1333   75.8730  223.1414 H   0  0  0  0  0  0  0  0  0  0  0  0
  138.9437   77.5034  222.4961 H   0  0  0  0  0  0  0  0  0  0  0  0
  138.4206   75.5565  220.8916 H   0  0  0  0  0  0  0  0  0  0  0  0
  139.6353   76.8196  220.3118 H   0  0  0  0  0  0  0  0  0  0  0  0
  141.1580   75.2200  220.0260 H   0  0  0  0  0  0  0  0  0  0  0  0
  141.5480   69.4600  220.2060 H   0  0  0  0  0  0  0  0  0  0  0  0
  142.2417   69.8643  217.9374 H   0  0  0  0  0  0  0  0  0  0  0  0
  140.9264   71.0647  217.8590 H   0  0  0  0  0  0  0  0  0  0  0  0
  143.0842   72.1368  219.5184 H   0  0  0  0  0  0  0  0  0  0  0  0
  143.7912   71.5707  217.9913 H   0  0  0  0  0  0  0  0  0  0  0  0
  142.6725   73.1125  216.7603 H   0  0  0  0  0  0  0  0  0  0  0  0
  141.1517   72.8803  217.7816 H   0  0  0  0  0  0  0  0  0  0  0  0
  141.7772   75.3945  216.7413 H   0  0  0  0  0  0  0  0  0  0  0  0
  140.6868   75.4380  218.1473 H   0  0  0  0  0  0  0  0  0  0  0  0
  143.3993   76.7943  217.7863 H   0  0  0  0  0  0  0  0  0  0  0  0
  141.7798   77.5375  218.1686 H   0  0  0  0  0  0  0  0  0  0  0  0
  144.4405   75.8926  220.4919 H   0  0  0  0  0  0  0  0  0  0  0  0
  142.9195   75.0155  220.8838 H   0  0  0  0  0  0  0  0  0  0  0  0
  144.3416   75.0877  218.1561 H   0  0  0  0  0  0  0  0  0  0  0  0
  144.2368   73.6864  219.2289 H   0  0  0  0  0  0  0  0  0  0  0  0
  137.7712   71.2016  225.0122 H   0  0  0  0  0  0  0  0  0  0  0  0
  137.7496   70.8606  223.2879 H   0  0  0  0  0  0  0  0  0  0  0  0
  137.9175   68.7119  224.6331 H   0  0  0  0  0  0  0  0  0  0  0  0
  139.4051   68.9433  223.6678 H   0  0  0  0  0  0  0  0  0  0  0  0
  138.9688   67.3507  226.1929 H   0  0  0  0  0  0  0  0  0  0  0  0
  140.2727   67.2367  228.3542 H   0  0  0  0  0  0  0  0  0  0  0  0
  141.5946   69.2295  228.9978 H   0  0  0  0  0  0  0  0  0  0  0  0
  141.6655   71.2590  227.6301 H   0  0  0  0  0  0  0  0  0  0  0  0
  139.9686   72.5437  225.8379 H   0  0  0  0  0  0  0  0  0  0  0  0
  141.4404   71.9136  225.0011 H   0  0  0  0  0  0  0  0  0  0  0  0
  141.7677   78.1890  224.7455 H   0  0  0  0  0  0  0  0  0  0  0  0
  142.5040   80.5484  224.8321 H   0  0  0  0  0  0  0  0  0  0  0  0
  1  2  2  0
  2  3  1  0
  3  4  2  0
  4  5  1  0
  5  6  1  0
  6  7  1  0
  7  8  1  0
  8  9  1  0
  9 10  2  0
 10 11  1  0
 11 12  1  0
 12 13  1  0
 13 14  1  0
 14 15  1  0
 15 16  1  0
 16 17  1  0
 17 18  1  0
 18 19  1  0
 19 20  1  0
 20 21  1  0
 11 22  2  0
 22 23  1  0
 23 24  1  0
 24 25  1  0
 25 26  1  0
 26 27  1  0
 27 28  2  0
 28 29  1  0
 29 30  2  0
 30 31  1  0
 31 32  2  0
 32 33  1  0
 23 34  2  0
  4 35  1  0
 35 36  2  0
 36  1  1  0
 34  9  1  0
 21 16  1  0
 33 24  1  0
 32 27  1  0
  1 37  1  0
  2 38  1  0
  3 39  1  0
  5 40  1  0
  5 41  1  0
  6 42  1  0
  6 43  1  0
  7 44  1  0
  7 45  1  0
  8 46  1  0
 12 47  1  0
 13 48  1  0
 13 49  1  0
 14 50  1  0
 14 51  1  0
 15 52  1  0
 15 53  1  0
 17 54  1  0
 17 55  1  0
 18 56  1  0
 18 57  1  0
 20 58  1  0
 20 59  1  0
 21 60  1  0
 21 61  1  0
 25 62  1  0
 25 63  1  0
 26 64  1  0
 26 65  1  0
 28 66  1  0
 29 67  1  0
 30 68  1  0
 31 69  1  0
 33 70  1  0
 33 71  1  0
 35 72  1  0
 36 73  1  0
M  END
>  <smiles>  (5) 
c1ccc(CCCNc2nc(NCCCN3CCOCC3)nc(N3CCc4ccccc4C3)n2)cc1

>  <score_type>  (5) 
oracle

>  <origin>  (5) 
autodockgpu

>  <m_score__min__energy>  (5) 
-9.7400000000000002

>  <m_primary>  (5) 
energy

>  <rmsd>  (5) 
11.333969790563195

>  <m_score__min__rmsd>  (5) 
11.333969790563195

>  <meeko>  (5) 
{"free_energy": -7.54, "intermolecular_energy": -10.82, "internal_energy": -3.2, "cluster_size": 11, "cluster_id": 6, "rank_in_cluster": 11}

>  <energy>  (5) 
-9.42

>  <cluster_rmsd>  (5) 
1.29

>  <cluster>  (5) 
1

$$$$

     RDKit          3D

 73 77  0  0  0  0  0  0  0  0999 V2000
  141.0780   71.5740  228.3450 C   0  0  0  0  0  0  0  0  0  0  0  0
  140.3470   70.4190  228.1820 C   0  0  0  0  0  0  0  0  0  0  0  0
  139.9920   70.0280  226.9090 C   0  0  0  0  0  0  0  0  0  0  0  0
  140.3210   70.7180  225.7660 C   0  0  0  0  0  0  0  0  0  0  0  0
  139.9350   70.3320  224.4130 C   0  0  0  0  0  0  0  0  0  0  0  0
  138.8430   71.1910  223.7910 C   0  0  0  0  0  0  0  0  0  0  0  0
  139.1780   71.2380  222.3160 C   0  0  0  0  0  0  0  0  0  0  0  0
  140.0000   72.3200  221.9000 N   0  0  0  0  0  0  0  0  0  0  0  0
  139.6860   73.6940  221.9980 C   0  0  0  0  0  0  0  0  0  0  0  0
  138.3700   74.0060  222.1890 N   0  0  0  0  0  0  0  0  0  0  0  0
  137.9740   75.2890  222.3160 C   0  0  0  0  0  0  0  0  0  0  0  0
  136.5840   75.5690  222.5410 N   0  0  0  0  0  0  0  0  0  0  0  0
  136.1100   76.8390  223.0520 C   0  0  0  0  0  0  0  0  0  0  0  0
  135.0580   76.5420  224.1260 C   0  0  0  0  0  0  0  0  0  0  0  0
  135.4600   75.2420  224.7770 C   0  0  0  0  0  0  0  0  0  0  0  0
  135.0020   74.0620  224.1420 N   0  0  0  0  0  0  0  0  0  0  0  0
  133.6070   73.8070  224.1430 C   0  0  0  0  0  0  0  0  0  0  0  0
  133.4200   72.3240  223.8600 C   0  0  0  0  0  0  0  0  0  0  0  0
  134.1990   71.8760  222.8260 O   0  0  0  0  0  0  0  0  0  0  0  0
  135.5570   72.1040  222.9620 C   0  0  0  0  0  0  0  0  0  0  0  0
  135.8240   72.9060  224.2400 C   0  0  0  0  0  0  0  0  0  0  0  0
  138.8620   76.3070  222.2600 N   0  0  0  0  0  0  0  0  0  0  0  0
  140.1690   75.9960  222.0710 C   0  0  0  0  0  0  0  0  0  0  0  0
  141.0680   77.0900  222.0430 N   0  0  0  0  0  0  0  0  0  0  0  0
  141.6600   77.4780  220.7690 C   0  0  0  0  0  0  0  0  0  0  0  0
  140.9860   78.8220  220.4370 C   0  0  0  0  0  0  0  0  0  0  0  0
  141.2840   79.7820  221.5370 C   0  0  0  0  0  0  0  0  0  0  0  0
  141.3360   81.1170  221.1970 C   0  0  0  0  0  0  0  0  0  0  0  0
  141.6210   82.0840  222.1660 C   0  0  0  0  0  0  0  0  0  0  0  0
  141.8360   81.6190  223.4430 C   0  0  0  0  0  0  0  0  0  0  0  0
  141.7860   80.2860  223.7920 C   0  0  0  0  0  0  0  0  0  0  0  0
  141.5050   79.3380  222.8360 C   0  0  0  0  0  0  0  0  0  0  0  0
  141.4420   77.8820  223.1910 C   0  0  0  0  0  0  0  0  0  0  0  0
  140.5590   74.7060  221.9420 N   0  0  0  0  0  0  0  0  0  0  0  0
  141.0570   71.8800  225.9350 C   0  0  0  0  0  0  0  0  0  0  0  0
  141.4260   72.2940  227.2090 C   0  0  0  0  0  0  0  0  0  0  0  0
  141.3780   71.9171  229.3461 H   0  0  0  0  0  0  0  0  0  0  0  0
  140.0508   69.8176  229.0541 H   0  0  0  0  0  0  0  0  0  0  0  0
  139.4069   69.1029  226.8001 H   0  0  0  0  0  0  0  0  0  0  0  0
  140.8266   70.3947  223.7718 H   0  0  0  0  0  0  0  0  0  0  0  0
  139.5241   69.3143  224.4867 H   0  0  0  0  0  0  0  0  0  0  0  0
  137.8546   70.7349  223.9491 H   0  0  0  0  0  0  0  0  0  0  0  0
  138.8005   72.1950  224.2384 H   0  0  0  0  0  0  0  0  0  0  0  0
  139.6963   70.3026  222.0582 H   0  0  0  0  0  0  0  0  0  0  0  0
  138.2180   71.3771  221.7972 H   0  0  0  0  0  0  0  0  0  0  0  0
  140.9380   72.0980  221.4750 H   0  0  0  0  0  0  0  0  0  0  0  0
  135.9390   74.7610  222.3120 H   0  0  0  0  0  0  0  0  0  0  0  0
  136.9463   77.4023  223.4916 H   0  0  0  0  0  0  0  0  0  0  0  0
  135.6757   77.4437  222.2422 H   0  0  0  0  0  0  0  0  0  0  0  0
  135.0391   77.3500  224.8722 H   0  0  0  0  0  0  0  0  0  0  0  0
  134.0522   76.4705  223.6864 H   0  0  0  0  0  0  0  0  0  0  0  0
  136.5591   75.2048  224.8039 H   0  0  0  0  0  0  0  0  0  0  0  0
  134.9854   75.2481  225.7693 H   0  0  0  0  0  0  0  0  0  0  0  0
  133.1784   74.0604  225.1239 H   0  0  0  0  0  0  0  0  0  0  0  0
  133.0983   74.4167  223.3818 H   0  0  0  0  0  0  0  0  0  0  0  0
  133.6807   71.7581  224.7665 H   0  0  0  0  0  0  0  0  0  0  0  0
  132.3694   72.1731  223.5711 H   0  0  0  0  0  0  0  0  0  0  0  0
  136.0850   71.1407  223.0186 H   0  0  0  0  0  0  0  0  0  0  0  0
  135.9179   72.6745  222.0935 H   0  0  0  0  0  0  0  0  0  0  0  0
  135.5531   72.3158  225.1278 H   0  0  0  0  0  0  0  0  0  0  0  0
  136.8872   73.1689  224.3421 H   0  0  0  0  0  0  0  0  0  0  0  0
  142.7489   77.6003  220.8653 H   0  0  0  0  0  0  0  0  0  0  0  0
  141.5064   76.7228  219.9841 H   0  0  0  0  0  0  0  0  0  0  0  0
  141.3812   79.2111  219.4871 H   0  0  0  0  0  0  0  0  0  0  0  0
  139.8989   78.6855  220.3386 H   0  0  0  0  0  0  0  0  0  0  0  0
  141.1521   81.4235  220.1567 H   0  0  0  0  0  0  0  0  0  0  0  0
  141.6705   83.1553  221.9213 H   0  0  0  0  0  0  0  0  0  0  0  0
  142.0607   82.3530  224.2309 H   0  0  0  0  0  0  0  0  0  0  0  0
  141.9704   79.9814  224.8328 H   0  0  0  0  0  0  0  0  0  0  0  0
  142.4295   77.5549  223.5485 H   0  0  0  0  0  0  0  0  0  0  0  0
  140.6850   77.7432  223.9769 H   0  0  0  0  0  0  0  0  0  0  0  0
  141.3499   72.4762  225.0582 H   0  0  0  0  0  0  0  0  0  0  0  0
  142.0108   73.2189  227.3214 H   0  0  0  0  0  0  0  0  0  0  0  0
  1  2  2  0
  2  3  1  0
  3  4  2  0
  4  5  1  0
  5  6  1  0
  6  7  1  0
  7  8  1  0
  8  9  1  0
  9 10  2  0
 10 11  1  0
 11 12  1  0
 12 13  1  0
 13 14  1  0
 14 15  1  0
 15 16  1  0
 16 17  1  0
 17 18  1  0
 18 19  1  0
 19 20  1  0
 20 21  1  0
 11 22  2  0
 22 23  1  0
 23 24  1  0
 24 25  1  0
 25 26  1  0
 26 27  1  0
 27 28  2  0
 28 29  1  0
 29 30  2  0
 30 31  1  0
 31 32  2  0
 32 33  1  0
 23 34  2  0
  4 35  1  0
 35 36  2  0
 36  1  1  0
 34  9  1  0
 21 16  1  0
 33 24  1  0
 32 27  1  0
  1 37  1  0
  2 38  1  0
  3 39  1  0
  5 40  1  0
  5 41  1  0
  6 42  1  0
  6 43  1  0
  7 44  1  0
  7 45  1  0
  8 46  1  0
 12 47  1  0
 13 48  1  0
 13 49  1  0
 14 50  1  0
 14 51  1  0
 15 52  1  0
 15 53  1  0
 17 54  1  0
 17 55  1  0
 18 56  1  0
 18 57  1  0
 20 58  1  0
 20 59  1  0
 21 60  1  0
 21 61  1  0
 25 62  1  0
 25 63  1  0
 26 64  1  0
 26 65  1  0
 28 66  1  0
 29 67  1  0
 30 68  1  0
 31 69  1  0
 33 70  1  0
 33 71  1  0
 35 72  1  0
 36 73  1  0
M  END
>  <smiles>  (6) 
c1ccc(CCCNc2nc(NCCCN3CCOCC3)nc(N3CCc4ccccc4C3)n2)cc1

>  <score_type>  (6) 
oracle

>  <origin>  (6) 
autodockgpu

>  <m_score__min__energy>  (6) 
-9.7400000000000002

>  <m_primary>  (6) 
energy

>  <rmsd>  (6) 
4.898961256211526

>  <m_score__min__rmsd>  (6) 
4.898961256211526

>  <meeko>  (6) 
{"free_energy": -8.1, "intermolecular_energy": -11.38, "internal_energy": -2.33, "cluster_size": 15, "cluster_id": 1, "rank_in_cluster": 15}

>  <energy>  (6) 
-9.37

>  <cluster_rmsd>  (6) 
0.9

>  <cluster>  (6) 
1

$$$$

     RDKit          3D

 73 77  0  0  0  0  0  0  0  0999 V2000
  140.7380   68.4570  228.1430 C   0  0  0  0  0  0  0  0  0  0  0  0
  140.4090   68.0430  226.8720 C   0  0  0  0  0  0  0  0  0  0  0  0
  140.3120   68.9810  225.8680 C   0  0  0  0  0  0  0  0  0  0  0  0
  140.5240   70.3290  226.0430 C   0  0  0  0  0  0  0  0  0  0  0  0
  140.4030   71.3400  224.9970 C   0  0  0  0  0  0  0  0  0  0  0  0
  139.2330   71.1370  224.0470 C   0  0  0  0  0  0  0  0  0  0  0  0
  139.8400   71.2020  222.6610 C   0  0  0  0  0  0  0  0  0  0  0  0
  140.3780   72.4600  222.2790 N   0  0  0  0  0  0  0  0  0  0  0  0
  139.6580   73.6650  222.1200 C   0  0  0  0  0  0  0  0  0  0  0  0
  138.2950   73.5680  222.1420 N   0  0  0  0  0  0  0  0  0  0  0  0
  137.5210   74.6640  222.0200 C   0  0  0  0  0  0  0  0  0  0  0  0
  136.0940   74.5180  222.0730 N   0  0  0  0  0  0  0  0  0  0  0  0
  135.2620   75.2490  223.0060 C   0  0  0  0  0  0  0  0  0  0  0  0
  135.7880   74.9640  224.4170 C   0  0  0  0  0  0  0  0  0  0  0  0
  135.0530   73.7440  224.9140 C   0  0  0  0  0  0  0  0  0  0  0  0
  134.1040   73.9670  225.9400 N   0  0  0  0  0  0  0  0  0  0  0  0
  133.5440   72.8330  226.5830 C   0  0  0  0  0  0  0  0  0  0  0  0
  132.2580   73.2880  227.2590 C   0  0  0  0  0  0  0  0  0  0  0  0
  132.4040   74.4640  227.9460 O   0  0  0  0  0  0  0  0  0  0  0  0
  132.8820   75.5300  227.2050 C   0  0  0  0  0  0  0  0  0  0  0  0
  133.2160   75.0660  225.7830 C   0  0  0  0  0  0  0  0  0  0  0  0
  138.0630   75.8940  221.8740 N   0  0  0  0  0  0  0  0  0  0  0  0
  139.4170   75.9900  221.8540 C   0  0  0  0  0  0  0  0  0  0  0  0
  139.9420   77.2990  221.7240 N   0  0  0  0  0  0  0  0  0  0  0  0
  139.0150   78.4130  221.5730 C   0  0  0  0  0  0  0  0  0  0  0  0
  139.1200   79.1720  222.9090 C   0  0  0  0  0  0  0  0  0  0  0  0
  140.5330   79.6060  223.0930 C   0  0  0  0  0  0  0  0  0  0  0  0
  140.7370   80.7570  223.8260 C   0  0  0  0  0  0  0  0  0  0  0  0
  142.0310   81.2420  224.0380 C   0  0  0  0  0  0  0  0  0  0  0  0
  143.0530   80.5090  223.4790 C   0  0  0  0  0  0  0  0  0  0  0  0
  142.8590   79.3580  222.7450 C   0  0  0  0  0  0  0  0  0  0  0  0
  141.5850   78.8840  222.5400 C   0  0  0  0  0  0  0  0  0  0  0  0
  141.3470   77.6330  221.7480 C   0  0  0  0  0  0  0  0  0  0  0  0
  140.1880   74.8850  221.9750 N   0  0  0  0  0  0  0  0  0  0  0  0
  140.8550   70.7420  227.3240 C   0  0  0  0  0  0  0  0  0  0  0  0
  140.9580   69.8130  228.3530 C   0  0  0  0  0  0  0  0  0  0  0  0
  140.8243   67.7353  228.9686 H   0  0  0  0  0  0  0  0  0  0  0  0
  140.2263   66.9789  226.6613 H   0  0  0  0  0  0  0  0  0  0  0  0
  140.0476   68.6291  224.8599 H   0  0  0  0  0  0  0  0  0  0  0  0
  140.2849   72.3208  225.4809 H   0  0  0  0  0  0  0  0  0  0  0  0
  141.3148   71.2647  224.3863 H   0  0  0  0  0  0  0  0  0  0  0  0
  138.7616   70.1579  224.2174 H   0  0  0  0  0  0  0  0  0  0  0  0
  138.4472   71.8933  224.1906 H   0  0  0  0  0  0  0  0  0  0  0  0
  140.6504   70.4598  222.6126 H   0  0  0  0  0  0  0  0  0  0  0  0
  139.0121   71.0074  221.9634 H   0  0  0  0  0  0  0  0  0  0  0  0
  141.4130   72.5210  222.0890 H   0  0  0  0  0  0  0  0  0  0  0  0
  135.7070   73.8190  221.3780 H   0  0  0  0  0  0  0  0  0  0  0  0
  135.3194   76.3270  222.7949 H   0  0  0  0  0  0  0  0  0  0  0  0
  134.2115   74.9357  222.9145 H   0  0  0  0  0  0  0  0  0  0  0  0
  136.8701   74.7686  224.3862 H   0  0  0  0  0  0  0  0  0  0  0  0
  135.6233   75.8242  225.0825 H   0  0  0  0  0  0  0  0  0  0  0  0
  134.5251   73.2973  224.0585 H   0  0  0  0  0  0  0  0  0  0  0  0
  135.8221   73.0943  225.3572 H   0  0  0  0  0  0  0  0  0  0  0  0
  133.3238   72.0502  225.8422 H   0  0  0  0  0  0  0  0  0  0  0  0
  134.2460   72.4157  227.3199 H   0  0  0  0  0  0  0  0  0  0  0  0
  131.4858   73.4256  226.4878 H   0  0  0  0  0  0  0  0  0  0  0  0
  131.9759   72.5132  227.9871 H   0  0  0  0  0  0  0  0  0  0  0  0
  132.1152   76.3174  227.1615 H   0  0  0  0  0  0  0  0  0  0  0  0
  133.7918   75.9243  227.6813 H   0  0  0  0  0  0  0  0  0  0  0  0
  132.3028   74.7501  225.2574 H   0  0  0  0  0  0  0  0  0  0  0  0
  133.6669   75.8726  225.1863 H   0  0  0  0  0  0  0  0  0  0  0  0
  139.3128   79.0578  220.7330 H   0  0  0  0  0  0  0  0  0  0  0  0
  137.9889   78.0821  221.3547 H   0  0  0  0  0  0  0  0  0  0  0  0
  138.4605   80.0522  222.8891 H   0  0  0  0  0  0  0  0  0  0  0  0
  138.8137   78.5193  223.7397 H   0  0  0  0  0  0  0  0  0  0  0  0
  139.8756   81.2967  224.2465 H   0  0  0  0  0  0  0  0  0  0  0  0
  142.2214   82.1569  224.6182 H   0  0  0  0  0  0  0  0  0  0  0  0
  144.0844   80.8619  223.6264 H   0  0  0  0  0  0  0  0  0  0  0  0
  143.7216   78.8203  222.3245 H   0  0  0  0  0  0  0  0  0  0  0  0
  141.6985   77.7868  220.7171 H   0  0  0  0  0  0  0  0  0  0  0  0
  141.8972   76.8066  222.2216 H   0  0  0  0  0  0  0  0  0  0  0  0
  141.0367   71.8077  227.5270 H   0  0  0  0  0  0  0  0  0  0  0  0
  141.2212   70.1613  229.3626 H   0  0  0  0  0  0  0  0  0  0  0  0
  1  2  2  0
  2  3  1  0
  3  4  2  0
  4  5  1  0
  5  6  1  0
  6  7  1  0
  7  8  1  0
  8  9  1  0
  9 10  2  0
 10 11  1  0
 11 12  1  0
 12 13  1  0
 13 14  1  0
 14 15  1  0
 15 16  1  0
 16 17  1  0
 17 18  1  0
 18 19  1  0
 19 20  1  0
 20 21  1  0
 11 22  2  0
 22 23  1  0
 23 24  1  0
 24 25  1  0
 25 26  1  0
 26 27  1  0
 27 28  2  0
 28 29  1  0
 29 30  2  0
 30 31  1  0
 31 32  2  0
 32 33  1  0
 23 34  2  0
  4 35  1  0
 35 36  2  0
 36  1  1  0
 34  9  1  0
 21 16  1  0
 33 24  1  0
 32 27  1  0
  1 37  1  0
  2 38  1  0
  3 39  1  0
  5 40  1  0
  5 41  1  0
  6 42  1  0
  6 43  1  0
  7 44  1  0
  7 45  1  0
  8 46  1  0
 12 47  1  0
 13 48  1  0
 13 49  1  0
 14 50  1  0
 14 51  1  0
 15 52  1  0
 15 53  1  0
 17 54  1  0
 17 55  1  0
 18 56  1  0
 18 57  1  0
 20 58  1  0
 20 59  1  0
 21 60  1  0
 21 61  1  0
 25 62  1  0
 25 63  1  0
 26 64  1  0
 26 65  1  0
 28 66  1  0
 29 67  1  0
 30 68  1  0
 31 69  1  0
 33 70  1  0
 33 71  1  0
 35 72  1  0
 36 73  1  0
M  END
>  <smiles>  (7) 
c1ccc(CCCNc2nc(NCCCN3CCOCC3)nc(N3CCc4ccccc4C3)n2)cc1

>  <score_type>  (7) 
oracle

>  <origin>  (7) 
autodockgpu

>  <m_score__min__energy>  (7) 
-9.7400000000000002

>  <m_primary>  (7) 
energy

>  <rmsd>  (7) 
5.740595958545382

>  <m_score__min__rmsd>  (7) 
5.740595958545382

>  <meeko>  (7) 
{"free_energy": -9.71, "intermolecular_energy": -12.99, "internal_energy": -1.19, "cluster_size": 15, "cluster_id": 1, "rank_in_cluster": 3}

>  <energy>  (7) 
-9.18

>  <cluster_rmsd>  (7) 
0.78

>  <cluster>  (7) 
1

$$$$

     RDKit          3D

 73 77  0  0  0  0  0  0  0  0999 V2000
  140.9020   71.8720  228.4100 C   0  0  0  0  0  0  0  0  0  0  0  0
  140.1620   70.7180  228.2850 C   0  0  0  0  0  0  0  0  0  0  0  0
  139.9910   70.1660  227.0340 C   0  0  0  0  0  0  0  0  0  0  0  0
  140.5170   70.6920  225.8770 C   0  0  0  0  0  0  0  0  0  0  0  0
  140.3280   70.1350  224.5410 C   0  0  0  0  0  0  0  0  0  0  0  0
  138.8830   69.8240  224.1790 C   0  0  0  0  0  0  0  0  0  0  0  0
  138.6230   70.6070  222.9090 C   0  0  0  0  0  0  0  0  0  0  0  0
  138.6640   72.0210  223.0320 N   0  0  0  0  0  0  0  0  0  0  0  0
  139.5920   72.8880  222.4130 C   0  0  0  0  0  0  0  0  0  0  0  0
  140.6850   72.3030  221.8410 N   0  0  0  0  0  0  0  0  0  0  0  0
  141.6160   73.0440  221.2080 C   0  0  0  0  0  0  0  0  0  0  0  0
  142.7360   72.3840  220.6000 N   0  0  0  0  0  0  0  0  0  0  0  0
  144.1070   72.7900  220.8280 C   0  0  0  0  0  0  0  0  0  0  0  0
  144.2650   74.2160  220.2870 C   0  0  0  0  0  0  0  0  0  0  0  0
  144.0740   74.1330  218.7930 C   0  0  0  0  0  0  0  0  0  0  0  0
  143.4520   75.2500  218.1840 N   0  0  0  0  0  0  0  0  0  0  0  0
  143.6860   75.4690  216.8030 C   0  0  0  0  0  0  0  0  0  0  0  0
  143.3400   76.9220  216.5120 C   0  0  0  0  0  0  0  0  0  0  0  0
  142.1540   77.3110  217.0770 O   0  0  0  0  0  0  0  0  0  0  0  0
  142.0600   77.1280  218.4460 C   0  0  0  0  0  0  0  0  0  0  0  0
  143.3210   76.4320  218.9650 C   0  0  0  0  0  0  0  0  0  0  0  0
  141.5000   74.3880  221.1160 N   0  0  0  0  0  0  0  0  0  0  0  0
  140.4120   74.9690  221.6840 C   0  0  0  0  0  0  0  0  0  0  0  0
  140.3180   76.3750  221.5430 N   0  0  0  0  0  0  0  0  0  0  0  0
  138.9970   76.9790  221.4170 C   0  0  0  0  0  0  0  0  0  0  0  0
  138.7960   77.7220  222.7510 C   0  0  0  0  0  0  0  0  0  0  0  0
  139.8880   78.7260  222.8990 C   0  0  0  0  0  0  0  0  0  0  0  0
  139.5920   79.8580  223.6270 C   0  0  0  0  0  0  0  0  0  0  0  0
  140.5550   80.8570  223.8060 C   0  0  0  0  0  0  0  0  0  0  0  0
  141.7790   80.6320  223.2200 C   0  0  0  0  0  0  0  0  0  0  0  0
  142.0840   79.5020  222.4900 C   0  0  0  0  0  0  0  0  0  0  0  0
  141.1340   78.5220  222.3170 C   0  0  0  0  0  0  0  0  0  0  0  0
  141.4410   77.2830  221.5300 C   0  0  0  0  0  0  0  0  0  0  0  0
  139.4830   74.2190  222.3200 N   0  0  0  0  0  0  0  0  0  0  0  0
  141.2610   71.8540  226.0070 C   0  0  0  0  0  0  0  0  0  0  0  0
  141.4460   72.4290  227.2590 C   0  0  0  0  0  0  0  0  0  0  0  0
  141.0583   72.3400  229.3932 H   0  0  0  0  0  0  0  0  0  0  0  0
  139.7139   70.2436  229.1705 H   0  0  0  0  0  0  0  0  0  0  0  0
  139.3951   69.2448  226.9555 H   0  0  0  0  0  0  0  0  0  0  0  0
  140.7158   70.8597  223.8099 H   0  0  0  0  0  0  0  0  0  0  0  0
  140.8649   69.1750  224.5264 H   0  0  0  0  0  0  0  0  0  0  0  0
  138.7513   68.7462  224.0031 H   0  0  0  0  0  0  0  0  0  0  0  0
  138.1859   70.0978  224.9846 H   0  0  0  0  0  0  0  0  0  0  0  0
  139.3816   70.3110  222.1695 H   0  0  0  0  0  0  0  0  0  0  0  0
  137.5911   70.3639  222.6158 H   0  0  0  0  0  0  0  0  0  0  0  0
  137.9410   72.4890  223.6400 H   0  0  0  0  0  0  0  0  0  0  0  0
  142.4690   71.5840  219.9590 H   0  0  0  0  0  0  0  0  0  0  0  0
  144.3296   72.7708  221.9051 H   0  0  0  0  0  0  0  0  0  0  0  0
  144.8020   72.1052  220.3200 H   0  0  0  0  0  0  0  0  0  0  0  0
  143.5057   74.8767  220.7307 H   0  0  0  0  0  0  0  0  0  0  0  0
  145.2531   74.6288  220.5386 H   0  0  0  0  0  0  0  0  0  0  0  0
  145.0655   74.0077  218.3333 H   0  0  0  0  0  0  0  0  0  0  0  0
  143.3913   73.2865  218.6277 H   0  0  0  0  0  0  0  0  0  0  0  0
  144.7430   75.2785  216.5651 H   0  0  0  0  0  0  0  0  0  0  0  0
  143.0722   74.7917  216.1911 H   0  0  0  0  0  0  0  0  0  0  0  0
  144.1435   77.5603  216.9081 H   0  0  0  0  0  0  0  0  0  0  0  0
  143.2356   77.0246  215.4218 H   0  0  0  0  0  0  0  0  0  0  0  0
  141.9539   78.1058  218.9385 H   0  0  0  0  0  0  0  0  0  0  0  0
  141.1828   76.5029  218.6690 H   0  0  0  0  0  0  0  0  0  0  0  0
  144.2000   77.0799  218.8321 H   0  0  0  0  0  0  0  0  0  0  0  0
  143.2492   76.2054  220.0390 H   0  0  0  0  0  0  0  0  0  0  0  0
  138.9675   77.6809  220.5706 H   0  0  0  0  0  0  0  0  0  0  0  0
  138.2092   76.2359  221.2244 H   0  0  0  0  0  0  0  0  0  0  0  0
  137.8209   78.2311  222.7496 H   0  0  0  0  0  0  0  0  0  0  0  0
  138.8216   77.0092  223.5884 H   0  0  0  0  0  0  0  0  0  0  0  0
  138.5923   79.9769  224.0702 H   0  0  0  0  0  0  0  0  0  0  0  0
  140.3453   81.7701  224.3824 H   0  0  0  0  0  0  0  0  0  0  0  0
  142.5598   81.3975  223.3405 H   0  0  0  0  0  0  0  0  0  0  0  0
  143.0842   79.3847  222.0474 H   0  0  0  0  0  0  0  0  0  0  0  0
  141.6663   77.5629  220.4903 H   0  0  0  0  0  0  0  0  0  0  0  0
  142.3058   76.7803  221.9875 H   0  0  0  0  0  0  0  0  0  0  0  0
  141.7064   72.3226  225.1170 H   0  0  0  0  0  0  0  0  0  0  0  0
  142.0400   73.3512  227.3409 H   0  0  0  0  0  0  0  0  0  0  0  0
  1  2  2  0
  2  3  1  0
  3  4  2  0
  4  5  1  0
  5  6  1  0
  6  7  1  0
  7  8  1  0
  8  9  1  0
  9 10  2  0
 10 11  1  0
 11 12  1  0
 12 13  1  0
 13 14  1  0
 14 15  1  0
 15 16  1  0
 16 17  1  0
 17 18  1  0
 18 19  1  0
 19 20  1  0
 20 21  1  0
 11 22  2  0
 22 23  1  0
 23 24  1  0
 24 25  1  0
 25 26  1  0
 26 27  1  0
 27 28  2  0
 28 29  1  0
 29 30  2  0
 30 31  1  0
 31 32  2  0
 32 33  1  0
 23 34  2  0
  4 35  1  0
 35 36  2  0
 36  1  1  0
 34  9  1  0
 21 16  1  0
 33 24  1  0
 32 27  1  0
  1 37  1  0
  2 38  1  0
  3 39  1  0
  5 40  1  0
  5 41  1  0
  6 42  1  0
  6 43  1  0
  7 44  1  0
  7 45  1  0
  8 46  1  0
 12 47  1  0
 13 48  1  0
 13 49  1  0
 14 50  1  0
 14 51  1  0
 15 52  1  0
 15 53  1  0
 17 54  1  0
 17 55  1  0
 18 56  1  0
 18 57  1  0
 20 58  1  0
 20 59  1  0
 21 60  1  0
 21 61  1  0
 25 62  1  0
 25 63  1  0
 26 64  1  0
 26 65  1  0
 28 66  1  0
 29 67  1  0
 30 68  1  0
 31 69  1  0
 33 70  1  0
 33 71  1  0
 35 72  1  0
 36 73  1  0
M  END
>  <smiles>  (8) 
c1ccc(CCCNc2nc(NCCCN3CCOCC3)nc(N3CCc4ccccc4C3)n2)cc1

>  <score_type>  (8) 
oracle

>  <origin>  (8) 
autodockgpu

>  <m_score__min__energy>  (8) 
-9.7400000000000002

>  <m_primary>  (8) 
energy

>  <rmsd>  (8) 
5.208459914683407

>  <m_score__min__rmsd>  (8) 
5.208459914683407

>  <meeko>  (8) 
{"free_energy": -9.12, "intermolecular_energy": -12.4, "internal_energy": -1.81, "cluster_size": 6, "cluster_id": 3, "rank_in_cluster": 2}

>  <energy>  (8) 
-9.18

>  <cluster_rmsd>  (8) 
1.81

>  <cluster>  (8) 
1

$$$$

     RDKit          3D

 73 77  0  0  0  0  0  0  0  0999 V2000
  140.5960   70.5680  228.3250 C   0  0  0  0  0  0  0  0  0  0  0  0
  140.0330   69.5870  227.5400 C   0  0  0  0  0  0  0  0  0  0  0  0
  139.9600   69.7820  226.1780 C   0  0  0  0  0  0  0  0  0  0  0  0
  140.4170   70.9050  225.5300 C   0  0  0  0  0  0  0  0  0  0  0  0
  140.3280   71.1390  224.0930 C   0  0  0  0  0  0  0  0  0  0  0  0
  138.9090   71.2240  223.5470 C   0  0  0  0  0  0  0  0  0  0  0  0
  139.0740   71.3230  222.0460 C   0  0  0  0  0  0  0  0  0  0  0  0
  139.8620   72.4090  221.5780 N   0  0  0  0  0  0  0  0  0  0  0  0
  139.5980   73.7820  221.7790 C   0  0  0  0  0  0  0  0  0  0  0  0
  138.2970   74.1220  222.0230 N   0  0  0  0  0  0  0  0  0  0  0  0
  137.9480   75.4040  222.2490 C   0  0  0  0  0  0  0  0  0  0  0  0
  136.5730   75.7130  222.5250 N   0  0  0  0  0  0  0  0  0  0  0  0
  135.8140   76.6770  221.7560 C   0  0  0  0  0  0  0  0  0  0  0  0
  134.3350   76.4970  222.1190 C   0  0  0  0  0  0  0  0  0  0  0  0
  134.1590   75.0500  222.5070 C   0  0  0  0  0  0  0  0  0  0  0  0
  134.1070   74.7830  223.8970 N   0  0  0  0  0  0  0  0  0  0  0  0
  134.1560   75.8870  224.7870 C   0  0  0  0  0  0  0  0  0  0  0  0
  134.5680   75.3490  226.1490 C   0  0  0  0  0  0  0  0  0  0  0  0
  133.8900   74.2120  226.5020 O   0  0  0  0  0  0  0  0  0  0  0  0
  133.9740   73.1660  225.6000 C   0  0  0  0  0  0  0  0  0  0  0  0
  134.7600   73.6090  224.3620 C   0  0  0  0  0  0  0  0  0  0  0  0
  138.8690   76.3950  222.2430 N   0  0  0  0  0  0  0  0  0  0  0  0
  140.1610   76.0550  222.0020 C   0  0  0  0  0  0  0  0  0  0  0  0
  141.0950   77.1190  222.0300 N   0  0  0  0  0  0  0  0  0  0  0  0
  141.7540   77.5050  220.7880 C   0  0  0  0  0  0  0  0  0  0  0  0
  141.1400   78.8760  220.4500 C   0  0  0  0  0  0  0  0  0  0  0  0
  141.4210   79.8090  221.5770 C   0  0  0  0  0  0  0  0  0  0  0  0
  141.5320   81.1460  221.2610 C   0  0  0  0  0  0  0  0  0  0  0  0
  141.8070   82.0900  222.2560 C   0  0  0  0  0  0  0  0  0  0  0  0
  141.9520   81.5990  223.5340 C   0  0  0  0  0  0  0  0  0  0  0  0
  141.8420   80.2630  223.8590 C   0  0  0  0  0  0  0  0  0  0  0  0
  141.5720   79.3400  222.8770 C   0  0  0  0  0  0  0  0  0  0  0  0
  141.4450   77.8810  223.2060 C   0  0  0  0  0  0  0  0  0  0  0  0
  140.5040   74.7660  221.7740 N   0  0  0  0  0  0  0  0  0  0  0  0
  140.9830   71.8900  226.3240 C   0  0  0  0  0  0  0  0  0  0  0  0
  141.0670   71.7160  227.7000 C   0  0  0  0  0  0  0  0  0  0  0  0
  140.6707   70.4464  229.4157 H   0  0  0  0  0  0  0  0  0  0  0  0
  139.6474   68.6618  227.9932 H   0  0  0  0  0  0  0  0  0  0  0  0
  139.5060   68.9865  225.5688 H   0  0  0  0  0  0  0  0  0  0  0  0
  140.8386   72.0871  223.8683 H   0  0  0  0  0  0  0  0  0  0  0  0
  140.7951   70.2692  223.6079 H   0  0  0  0  0  0  0  0  0  0  0  0
  138.3368   70.3235  223.8148 H   0  0  0  0  0  0  0  0  0  0  0  0
  138.3572   72.0813  223.9601 H   0  0  0  0  0  0  0  0  0  0  0  0
  139.5428   70.3913  221.6964 H   0  0  0  0  0  0  0  0  0  0  0  0
  138.0636   71.4947  221.6464 H   0  0  0  0  0  0  0  0  0  0  0  0
  140.7330   72.1900  221.0250 H   0  0  0  0  0  0  0  0  0  0  0  0
  136.1710   75.1840  223.3490 H   0  0  0  0  0  0  0  0  0  0  0  0
  136.1403   77.6972  222.0062 H   0  0  0  0  0  0  0  0  0  0  0  0
  135.9695   76.5207  220.6783 H   0  0  0  0  0  0  0  0  0  0  0  0
  134.0690   77.1511  222.9625 H   0  0  0  0  0  0  0  0  0  0  0  0
  133.6840   76.7627  221.2731 H   0  0  0  0  0  0  0  0  0  0  0  0
  133.2192   74.6934  222.0602 H   0  0  0  0  0  0  0  0  0  0  0  0
  135.0568   74.5322  222.1384 H   0  0  0  0  0  0  0  0  0  0  0  0
  134.8931   76.6233  224.4339 H   0  0  0  0  0  0  0  0  0  0  0  0
  133.1775   76.3862  224.8441 H   0  0  0  0  0  0  0  0  0  0  0  0
  135.6442   75.1226  226.1257 H   0  0  0  0  0  0  0  0  0  0  0  0
  134.3273   76.1210  226.8947 H   0  0  0  0  0  0  0  0  0  0  0  0
  134.4873   72.3161  226.0734 H   0  0  0  0  0  0  0  0  0  0  0  0
  132.9600   72.8654  225.2976 H   0  0  0  0  0  0  0  0  0  0  0  0
  135.8042   73.8299  224.6284 H   0  0  0  0  0  0  0  0  0  0  0  0
  134.7847   72.8238  223.5920 H   0  0  0  0  0  0  0  0  0  0  0  0
  142.8413   77.5885  220.9320 H   0  0  0  0  0  0  0  0  0  0  0  0
  141.6091   76.7671  219.9852 H   0  0  0  0  0  0  0  0  0  0  0  0
  141.5888   79.2659  219.5245 H   0  0  0  0  0  0  0  0  0  0  0  0
  140.0543   78.7775  220.3032 H   0  0  0  0  0  0  0  0  0  0  0  0
  141.4034   81.4731  220.2187 H   0  0  0  0  0  0  0  0  0  0  0  0
  141.9019   83.1624  222.0304 H   0  0  0  0  0  0  0  0  0  0  0  0
  142.1680   82.3131  224.3423 H   0  0  0  0  0  0  0  0  0  0  0  0
  141.9701   79.9370  224.9017 H   0  0  0  0  0  0  0  0  0  0  0  0
  142.4046   77.5153  223.6004 H   0  0  0  0  0  0  0  0  0  0  0  0
  140.6504   77.7565  223.9564 H   0  0  0  0  0  0  0  0  0  0  0  0
  141.3669   72.8123  225.8635 H   0  0  0  0  0  0  0  0  0  0  0  0
  141.5195   72.5101  228.3122 H   0  0  0  0  0  0  0  0  0  0  0  0
  1  2  2  0
  2  3  1  0
  3  4  2  0
  4  5  1  0
  5  6  1  0
  6  7  1  0
  7  8  1  0
  8  9  1  0
  9 10  2  0
 10 11  1  0
 11 12  1  0
 12 13  1  0
 13 14  1  0
 14 15  1  0
 15 16  1  0
 16 17  1  0
 17 18  1  0
 18 19  1  0
 19 20  1  0
 20 21  1  0
 11 22  2  0
 22 23  1  0
 23 24  1  0
 24 25  1  0
 25 26  1  0
 26 27  1  0
 27 28  2  0
 28 29  1  0
 29 30  2  0
 30 31  1  0
 31 32  2  0
 32 33  1  0
 23 34  2  0
  4 35  1  0
 35 36  2  0
 36  1  1  0
 34  9  1  0
 21 16  1  0
 33 24  1  0
 32 27  1  0
  1 37  1  0
  2 38  1  0
  3 39  1  0
  5 40  1  0
  5 41  1  0
  6 42  1  0
  6 43  1  0
  7 44  1  0
  7 45  1  0
  8 46  1  0
 12 47  1  0
 13 48  1  0
 13 49  1  0
 14 50  1  0
 14 51  1  0
 15 52  1  0
 15 53  1  0
 17 54  1  0
 17 55  1  0
 18 56  1  0
 18 57  1  0
 20 58  1  0
 20 59  1  0
 21 60  1  0
 21 61  1  0
 25 62  1  0
 25 63  1  0
 26 64  1  0
 26 65  1  0
 28 66  1  0
 29 67  1  0
 30 68  1  0
 31 69  1  0
 33 70  1  0
 33 71  1  0
 35 72  1  0
 36 73  1  0
M  END
>  <smiles>  (9) 
c1ccc(CCCNc2nc(NCCCN3CCOCC3)nc(N3CCc4ccccc4C3)n2)cc1

>  <score_type>  (9) 
oracle

>  <origin>  (9) 
autodockgpu

>  <m_score__min__energy>  (9) 
-9.7400000000000002

>  <m_primary>  (9) 
energy

>  <rmsd>  (9) 
4.974463663996318

>  <m_score__min__rmsd>  (9) 
4.974463663996318

>  <meeko>  (9) 
{"free_energy": -8.79, "intermolecular_energy": -12.07, "internal_energy": -1.9, "cluster_size": 15, "cluster_id": 1, "rank_in_cluster": 12}

>  <energy>  (9) 
-9.15

>  <cluster_rmsd>  (9) 
1.42

>  <cluster>  (9) 
1

$$$$

     RDKit          3D

 73 77  0  0  0  0  0  0  0  0999 V2000
  143.0650   76.8620  218.1870 C   0  0  0  0  0  0  0  0  0  0  0  0
  143.4030   75.8250  217.3460 C   0  0  0  0  0  0  0  0  0  0  0  0
  143.8970   74.6590  217.8880 C   0  0  0  0  0  0  0  0  0  0  0  0
  144.0800   74.4470  219.2350 C   0  0  0  0  0  0  0  0  0  0  0  0
  144.6230   73.2280  219.8250 C   0  0  0  0  0  0  0  0  0  0  0  0
  144.5510   71.9990  218.9310 C   0  0  0  0  0  0  0  0  0  0  0  0
  143.0750   71.8090  218.6480 C   0  0  0  0  0  0  0  0  0  0  0  0
  142.3180   71.2020  219.6850 N   0  0  0  0  0  0  0  0  0  0  0  0
  141.6770   71.8700  220.7530 C   0  0  0  0  0  0  0  0  0  0  0  0
  141.6050   73.2310  220.6650 N   0  0  0  0  0  0  0  0  0  0  0  0
  140.9950   73.9550  221.6240 C   0  0  0  0  0  0  0  0  0  0  0  0
  140.9210   75.3820  221.4790 N   0  0  0  0  0  0  0  0  0  0  0  0
  139.6960   76.0760  221.1420 C   0  0  0  0  0  0  0  0  0  0  0  0
  139.9690   77.5800  221.2610 C   0  0  0  0  0  0  0  0  0  0  0  0
  140.9370   77.7550  222.4040 C   0  0  0  0  0  0  0  0  0  0  0  0
  141.2500   79.0910  222.7530 N   0  0  0  0  0  0  0  0  0  0  0  0
  142.6030   79.4000  223.0460 C   0  0  0  0  0  0  0  0  0  0  0  0
  142.6080   80.7010  223.8350 C   0  0  0  0  0  0  0  0  0  0  0  0
  141.7880   81.6560  223.2940 O   0  0  0  0  0  0  0  0  0  0  0  0
  140.4670   81.2780  223.1250 C   0  0  0  0  0  0  0  0  0  0  0  0
  140.2920   79.8080  223.5210 C   0  0  0  0  0  0  0  0  0  0  0  0
  140.4320   73.3620  222.7010 N   0  0  0  0  0  0  0  0  0  0  0  0
  140.5030   72.0090  222.7870 C   0  0  0  0  0  0  0  0  0  0  0  0
  139.8790   71.4280  223.9170 N   0  0  0  0  0  0  0  0  0  0  0  0
  138.6810   70.6220  223.7190 C   0  0  0  0  0  0  0  0  0  0  0  0
  139.1450   69.1830  224.0090 C   0  0  0  0  0  0  0  0  0  0  0  0
  139.6630   69.1280  225.4050 C   0  0  0  0  0  0  0  0  0  0  0  0
  139.5460   67.9210  226.0610 C   0  0  0  0  0  0  0  0  0  0  0  0
  139.9960   67.7850  227.3790 C   0  0  0  0  0  0  0  0  0  0  0  0
  140.5480   68.9080  227.9510 C   0  0  0  0  0  0  0  0  0  0  0  0
  140.6700   70.1180  227.3010 C   0  0  0  0  0  0  0  0  0  0  0  0
  140.2260   70.2480  226.0060 C   0  0  0  0  0  0  0  0  0  0  0  0
  140.3490   71.5530  225.2770 C   0  0  0  0  0  0  0  0  0  0  0  0
  141.1190   71.2890  221.8210 N   0  0  0  0  0  0  0  0  0  0  0  0
  143.7390   75.4920  220.0780 C   0  0  0  0  0  0  0  0  0  0  0  0
  143.2390   76.6790  219.5540 C   0  0  0  0  0  0  0  0  0  0  0  0
  142.6688   77.8077  217.7885 H   0  0  0  0  0  0  0  0  0  0  0  0
  143.2803   75.9264  216.2576 H   0  0  0  0  0  0  0  0  0  0  0  0
  144.1626   73.8439  217.1987 H   0  0  0  0  0  0  0  0  0  0  0  0
  145.6792   73.4091  220.0732 H   0  0  0  0  0  0  0  0  0  0  0  0
  144.0018   73.0070  220.7055 H   0  0  0  0  0  0  0  0  0  0  0  0
  145.1058   72.1674  217.9962 H   0  0  0  0  0  0  0  0  0  0  0  0
  144.9988   71.1140  219.4067 H   0  0  0  0  0  0  0  0  0  0  0  0
  142.6398   72.7993  218.4484 H   0  0  0  0  0  0  0  0  0  0  0  0
  143.0220   71.1157  217.7957 H   0  0  0  0  0  0  0  0  0  0  0  0
  142.2120   70.1540  219.6760 H   0  0  0  0  0  0  0  0  0  0  0  0
  141.8460   75.8770  221.6270 H   0  0  0  0  0  0  0  0  0  0  0  0
  139.3958   75.8293  220.1129 H   0  0  0  0  0  0  0  0  0  0  0  0
  138.8825   75.7757  221.8188 H   0  0  0  0  0  0  0  0  0  0  0  0
  140.4110   77.9602  220.3282 H   0  0  0  0  0  0  0  0  0  0  0  0
  139.0385   78.1382  221.4412 H   0  0  0  0  0  0  0  0  0  0  0  0
  140.5031   77.2685  223.2900 H   0  0  0  0  0  0  0  0  0  0  0  0
  141.8825   77.3082  222.0630 H   0  0  0  0  0  0  0  0  0  0  0  0
  143.0521   78.5943  223.6453 H   0  0  0  0  0  0  0  0  0  0  0  0
  143.1887   79.5029  222.1206 H   0  0  0  0  0  0  0  0  0  0  0  0
  142.2722   80.4904  224.8611 H   0  0  0  0  0  0  0  0  0  0  0  0
  143.6343   81.0963  223.8131 H   0  0  0  0  0  0  0  0  0  0  0  0
  139.8237   81.9059  223.7590 H   0  0  0  0  0  0  0  0  0  0  0  0
  140.1854   81.4053  222.0693 H   0  0  0  0  0  0  0  0  0  0  0  0
  140.4830   79.6741  224.5960 H   0  0  0  0  0  0  0  0  0  0  0  0
  139.2683   79.4532  223.3307 H   0  0  0  0  0  0  0  0  0  0  0  0
  137.8869   70.9245  224.4174 H   0  0  0  0  0  0  0  0  0  0  0  0
  138.2585   70.7342  222.7096 H   0  0  0  0  0  0  0  0  0  0  0  0
  138.2975   68.4903  223.8997 H   0  0  0  0  0  0  0  0  0  0  0  0
  139.9347   68.8907  223.3012 H   0  0  0  0  0  0  0  0  0  0  0  0
  139.0962   67.0598  225.5452 H   0  0  0  0  0  0  0  0  0  0  0  0
  139.9132   66.8345  227.9265 H   0  0  0  0  0  0  0  0  0  0  0  0
  140.9129   68.8365  228.9862 H   0  0  0  0  0  0  0  0  0  0  0  0
  141.1217   70.9778  227.8175 H   0  0  0  0  0  0  0  0  0  0  0  0
  139.7492   72.3144  225.7971 H   0  0  0  0  0  0  0  0  0  0  0  0
  141.4088   71.8472  225.2578 H   0  0  0  0  0  0  0  0  0  0  0  0
  143.8641   75.3825  221.1654 H   0  0  0  0  0  0  0  0  0  0  0  0
  142.9736   77.4964  220.2406 H   0  0  0  0  0  0  0  0  0  0  0  0
  1  2  2  0
  2  3  1  0
  3  4  2  0
  4  5  1  0
  5  6  1  0
  6  7  1  0
  7  8  1  0
  8  9  1  0
  9 10  2  0
 10 11  1  0
 11 12  1  0
 12 13  1  0
 13 14  1  0
 14 15  1  0
 15 16  1  0
 16 17  1  0
 17 18  1  0
 18 19  1  0
 19 20  1  0
 20 21  1  0
 11 22  2  0
 22 23  1  0
 23 24  1  0
 24 25  1  0
 25 26  1  0
 26 27  1  0
 27 28  2  0
 28 29  1  0
 29 30  2  0
 30 31  1  0
 31 32  2  0
 32 33  1  0
 23 34  2  0
  4 35  1  0
 35 36  2  0
 36  1  1  0
 34  9  1  0
 21 16  1  0
 33 24  1  0
 32 27  1  0
  1 37  1  0
  2 38  1  0
  3 39  1  0
  5 40  1  0
  5 41  1  0
  6 42  1  0
  6 43  1  0
  7 44  1  0
  7 45  1  0
  8 46  1  0
 12 47  1  0
 13 48  1  0
 13 49  1  0
 14 50  1  0
 14 51  1  0
 15 52  1  0
 15 53  1  0
 17 54  1  0
 17 55  1  0
 18 56  1  0
 18 57  1  0
 20 58  1  0
 20 59  1  0
 21 60  1  0
 21 61  1  0
 25 62  1  0
 25 63  1  0
 26 64  1  0
 26 65  1  0
 28 66  1  0
 29 67  1  0
 30 68  1  0
 31 69  1  0
 33 70  1  0
 33 71  1  0
 35 72  1  0
 36 73  1  0
M  END
>  <smiles>  (10) 
c1ccc(CCCNc2nc(NCCCN3CCOCC3)nc(N3CCc4ccccc4C3)n2)cc1

>  <score_type>  (10) 
oracle

>  <origin>  (10) 
autodockgpu

>  <m_score__min__energy>  (10) 
-9.7400000000000002

>  <m_primary>  (10) 
energy

>  <rmsd>  (10) 
11.369773991368993

>  <m_score__min__rmsd>  (10) 
11.369773991368993

>  <meeko>  (10) 
{"free_energy": -8.61, "intermolecular_energy": -11.89, "internal_energy": -1.74, "cluster_size": 4, "cluster_id": 7, "rank_in_cluster": 2}

>  <energy>  (10) 
-8.89

>  <cluster_rmsd>  (10) 
1.55

>  <cluster>  (10) 
1

$$$$

     RDKit          3D

 73 77  0  0  0  0  0  0  0  0999 V2000
  141.1730   71.6860  228.3530 C   0  0  0  0  0  0  0  0  0  0  0  0
  141.4800   72.2760  227.1470 C   0  0  0  0  0  0  0  0  0  0  0  0
  141.0170   71.7000  225.9850 C   0  0  0  0  0  0  0  0  0  0  0  0
  140.2550   70.5560  225.9370 C   0  0  0  0  0  0  0  0  0  0  0  0
  139.7750   69.9180  224.7150 C   0  0  0  0  0  0  0  0  0  0  0  0
  138.2690   69.9900  224.5070 C   0  0  0  0  0  0  0  0  0  0  0  0
  138.0950   70.5510  223.1120 C   0  0  0  0  0  0  0  0  0  0  0  0
  138.4400   71.9180  222.9450 N   0  0  0  0  0  0  0  0  0  0  0  0
  139.5090   72.4230  222.1710 C   0  0  0  0  0  0  0  0  0  0  0  0
  139.7960   73.7500  222.3190 N   0  0  0  0  0  0  0  0  0  0  0  0
  140.8110   74.3190  221.6400 C   0  0  0  0  0  0  0  0  0  0  0  0
  141.0920   75.7120  221.8450 N   0  0  0  0  0  0  0  0  0  0  0  0
  140.1020   76.7510  221.6530 C   0  0  0  0  0  0  0  0  0  0  0  0
  139.0090   76.5500  222.7090 C   0  0  0  0  0  0  0  0  0  0  0  0
  137.7230   76.3060  221.9580 C   0  0  0  0  0  0  0  0  0  0  0  0
  137.0050   75.1410  222.3190 N   0  0  0  0  0  0  0  0  0  0  0  0
  136.8430   74.1300  221.3370 C   0  0  0  0  0  0  0  0  0  0  0  0
  135.6780   73.2550  221.7780 C   0  0  0  0  0  0  0  0  0  0  0  0
  135.7370   72.9200  223.1050 O   0  0  0  0  0  0  0  0  0  0  0  0
  135.8120   73.9850  223.9850 C   0  0  0  0  0  0  0  0  0  0  0  0
  135.9030   75.3000  223.2040 C   0  0  0  0  0  0  0  0  0  0  0  0
  141.5800   73.5990  220.7920 N   0  0  0  0  0  0  0  0  0  0  0  0
  141.2950   72.2790  220.6460 C   0  0  0  0  0  0  0  0  0  0  0  0
  142.1400   71.5580  219.7680 N   0  0  0  0  0  0  0  0  0  0  0  0
  143.0180   72.3010  218.8730 C   0  0  0  0  0  0  0  0  0  0  0  0
  144.4280   72.0510  219.4390 C   0  0  0  0  0  0  0  0  0  0  0  0
  144.6870   70.5840  219.4280 C   0  0  0  0  0  0  0  0  0  0  0  0
  146.0000   70.1880  219.2890 C   0  0  0  0  0  0  0  0  0  0  0  0
  146.3300   68.8290  219.2580 C   0  0  0  0  0  0  0  0  0  0  0  0
  145.2810   67.9460  219.3720 C   0  0  0  0  0  0  0  0  0  0  0  0
  143.9650   68.3340  219.5110 C   0  0  0  0  0  0  0  0  0  0  0  0
  143.6450   69.6700  219.5430 C   0  0  0  0  0  0  0  0  0  0  0  0
  142.2210   70.1170  219.6950 C   0  0  0  0  0  0  0  0  0  0  0  0
  140.2730   71.7150  221.3300 N   0  0  0  0  0  0  0  0  0  0  0  0
  139.9480   69.9650  227.1530 C   0  0  0  0  0  0  0  0  0  0  0  0
  140.4050   70.5290  228.3380 C   0  0  0  0  0  0  0  0  0  0  0  0
  141.5259   72.1187  229.3007 H   0  0  0  0  0  0  0  0  0  0  0  0
  142.0859   73.1935  227.1125 H   0  0  0  0  0  0  0  0  0  0  0  0
  141.2735   72.1869  225.0325 H   0  0  0  0  0  0  0  0  0  0  0  0
  140.2625   70.4076  223.8590 H   0  0  0  0  0  0  0  0  0  0  0  0
  140.0248   68.8504  224.8042 H   0  0  0  0  0  0  0  0  0  0  0  0
  137.8199   68.9885  224.5802 H   0  0  0  0  0  0  0  0  0  0  0  0
  137.7751   70.6119  225.2681 H   0  0  0  0  0  0  0  0  0  0  0  0
  138.7234   69.9593  222.4302 H   0  0  0  0  0  0  0  0  0  0  0  0
  137.0178   70.4881  222.8985 H   0  0  0  0  0  0  0  0  0  0  0  0
  137.8550   72.6430  223.4380 H   0  0  0  0  0  0  0  0  0  0  0  0
  142.0910   75.9110  222.1350 H   0  0  0  0  0  0  0  0  0  0  0  0
  140.5670   77.7400  221.7779 H   0  0  0  0  0  0  0  0  0  0  0  0
  139.6758   76.6964  220.6404 H   0  0  0  0  0  0  0  0  0  0  0  0
  139.2485   75.6835  223.3429 H   0  0  0  0  0  0  0  0  0  0  0  0
  138.9246   77.4292  223.3646 H   0  0  0  0  0  0  0  0  0  0  0  0
  137.0658   77.1719  222.1259 H   0  0  0  0  0  0  0  0  0  0  0  0
  138.0161   76.1601  220.9078 H   0  0  0  0  0  0  0  0  0  0  0  0
  136.6233   74.5855  220.3601 H   0  0  0  0  0  0  0  0  0  0  0  0
  137.7619   73.5339  221.2357 H   0  0  0  0  0  0  0  0  0  0  0  0
  134.7403   73.8000  221.5947 H   0  0  0  0  0  0  0  0  0  0  0  0
  135.7279   72.3213  221.1987 H   0  0  0  0  0  0  0  0  0  0  0  0
  134.9132   73.9985  224.6190 H   0  0  0  0  0  0  0  0  0  0  0  0
  136.7080   73.8737  224.6134 H   0  0  0  0  0  0  0  0  0  0  0  0
  134.9768   75.4752  222.6370 H   0  0  0  0  0  0  0  0  0  0  0  0
  136.0377   76.1631  223.8725 H   0  0  0  0  0  0  0  0  0  0  0  0
  142.9375   71.9222  217.8434 H   0  0  0  0  0  0  0  0  0  0  0  0
  142.7654   73.3705  218.8249 H   0  0  0  0  0  0  0  0  0  0  0  0
  145.1748   72.5646  218.8156 H   0  0  0  0  0  0  0  0  0  0  0  0
  144.4967   72.4388  220.4661 H   0  0  0  0  0  0  0  0  0  0  0  0
  146.7931   70.9453  219.2019 H   0  0  0  0  0  0  0  0  0  0  0  0
  147.3693   68.4857  219.1487 H   0  0  0  0  0  0  0  0  0  0  0  0
  145.5048   66.8692  219.3511 H   0  0  0  0  0  0  0  0  0  0  0  0
  143.1729   67.5755  219.5961 H   0  0  0  0  0  0  0  0  0  0  0  0
  141.6388   69.7665  218.8300 H   0  0  0  0  0  0  0  0  0  0  0  0
  141.8163   69.6937  220.6261 H   0  0  0  0  0  0  0  0  0  0  0  0
  139.3414   69.0478  227.1798 H   0  0  0  0  0  0  0  0  0  0  0  0
  140.1509   70.0447  229.2924 H   0  0  0  0  0  0  0  0  0  0  0  0
  1  2  2  0
  2  3  1  0
  3  4  2  0
  4  5  1  0
  5  6  1  0
  6  7  1  0
  7  8  1  0
  8  9  1  0
  9 10  2  0
 10 11  1  0
 11 12  1  0
 12 13  1  0
 13 14  1  0
 14 15  1  0
 15 16  1  0
 16 17  1  0
 17 18  1  0
 18 19  1  0
 19 20  1  0
 20 21  1  0
 11 22  2  0
 22 23  1  0
 23 24  1  0
 24 25  1  0
 25 26  1  0
 26 27  1  0
 27 28  2  0
 28 29  1  0
 29 30  2  0
 30 31  1  0
 31 32  2  0
 32 33  1  0
 23 34  2  0
  4 35  1  0
 35 36  2  0
 36  1  1  0
 34  9  1  0
 21 16  1  0
 33 24  1  0
 32 27  1  0
  1 37  1  0
  2 38  1  0
  3 39  1  0
  5 40  1  0
  5 41  1  0
  6 42  1  0
  6 43  1  0
  7 44  1  0
  7 45  1  0
  8 46  1  0
 12 47  1  0
 13 48  1  0
 13 49  1  0
 14 50  1  0
 14 51  1  0
 15 52  1  0
 15 53  1  0
 17 54  1  0
 17 55  1  0
 18 56  1  0
 18 57  1  0
 20 58  1  0
 20 59  1  0
 21 60  1  0
 21 61  1  0
 25 62  1  0
 25 63  1  0
 26 64  1  0
 26 65  1  0
 28 66  1  0
 29 67  1  0
 30 68  1  0
 31 69  1  0
 33 70  1  0
 33 71  1  0
 35 72  1  0
 36 73  1  0
M  END
>  <smiles>  (11) 
c1ccc(CCCNc2nc(NCCCN3CCOCC3)nc(N3CCc4ccccc4C3)n2)cc1

>  <score_type>  (11) 
oracle

>  <origin>  (11) 
autodockgpu

>  <m_score__min__energy>  (11) 
-9.7400000000000002

>  <m_primary>  (11) 
energy

>  <rmsd>  (11) 
10.412321651561737

>  <m_score__min__rmsd>  (11) 
10.412321651561737

>  <meeko>  (11) 
{"free_energy": -8.03, "intermolecular_energy": -11.31, "internal_energy": -2.71, "cluster_size": 1, "cluster_id": 11, "rank_in_cluster": 1}

>  <energy>  (11) 
-8.88

>  <cluster_rmsd>  (11) 
1.45

>  <cluster>  (11) 
1

$$$$

     RDKit          3D

 73 77  0  0  0  0  0  0  0  0999 V2000
  140.9970   71.5710  228.3780 C   0  0  0  0  0  0  0  0  0  0  0  0
  141.3890   72.2330  227.2360 C   0  0  0  0  0  0  0  0  0  0  0  0
  141.0190   71.7250  226.0090 C   0  0  0  0  0  0  0  0  0  0  0  0
  140.2710   70.5840  225.8370 C   0  0  0  0  0  0  0  0  0  0  0  0
  139.8890   70.0190  224.5470 C   0  0  0  0  0  0  0  0  0  0  0  0
  139.1310   70.9710  223.6330 C   0  0  0  0  0  0  0  0  0  0  0  0
  140.0250   71.1470  222.4240 C   0  0  0  0  0  0  0  0  0  0  0  0
  140.5530   72.4510  222.2270 N   0  0  0  0  0  0  0  0  0  0  0  0
  139.8080   73.6440  222.0980 C   0  0  0  0  0  0  0  0  0  0  0  0
  138.4490   73.5220  222.1510 N   0  0  0  0  0  0  0  0  0  0  0  0
  137.6520   74.6060  222.0590 C   0  0  0  0  0  0  0  0  0  0  0  0
  136.2290   74.4340  222.1450 N   0  0  0  0  0  0  0  0  0  0  0  0
  135.6020   73.1400  222.3150 C   0  0  0  0  0  0  0  0  0  0  0  0
  135.4740   72.8810  223.8210 C   0  0  0  0  0  0  0  0  0  0  0  0
  136.0660   71.5170  224.0760 C   0  0  0  0  0  0  0  0  0  0  0  0
  135.3060   70.6570  224.9050 N   0  0  0  0  0  0  0  0  0  0  0  0
  135.2080   69.2920  224.5300 C   0  0  0  0  0  0  0  0  0  0  0  0
  134.0010   68.7120  225.2530 C   0  0  0  0  0  0  0  0  0  0  0  0
  133.9500   69.0660  226.5750 O   0  0  0  0  0  0  0  0  0  0  0  0
  133.9690   70.4270  226.8270 C   0  0  0  0  0  0  0  0  0  0  0  0
  134.1390   71.1960  225.5130 C   0  0  0  0  0  0  0  0  0  0  0  0
  138.1690   75.8470  221.9120 N   0  0  0  0  0  0  0  0  0  0  0  0
  139.5200   75.9670  221.8600 C   0  0  0  0  0  0  0  0  0  0  0  0
  140.0190   77.2860  221.7320 N   0  0  0  0  0  0  0  0  0  0  0  0
  139.0690   78.3840  221.6010 C   0  0  0  0  0  0  0  0  0  0  0  0
  139.1800   79.1360  222.9400 C   0  0  0  0  0  0  0  0  0  0  0  0
  140.5880   79.5960  223.1060 C   0  0  0  0  0  0  0  0  0  0  0  0
  140.7810   80.7450  223.8420 C   0  0  0  0  0  0  0  0  0  0  0  0
  142.0690   81.2530  224.0380 C   0  0  0  0  0  0  0  0  0  0  0  0
  143.0960   80.5430  223.4600 C   0  0  0  0  0  0  0  0  0  0  0  0
  142.9120   79.3930  222.7220 C   0  0  0  0  0  0  0  0  0  0  0  0
  141.6440   78.8960  222.5330 C   0  0  0  0  0  0  0  0  0  0  0  0
  141.4180   77.6460  221.7360 C   0  0  0  0  0  0  0  0  0  0  0  0
  140.3130   74.8750  221.9520 N   0  0  0  0  0  0  0  0  0  0  0  0
  139.8780   69.9220  226.9880 C   0  0  0  0  0  0  0  0  0  0  0  0
  140.2400   70.4150  228.2370 C   0  0  0  0  0  0  0  0  0  0  0  0
  141.2754   71.9469  229.3736 H   0  0  0  0  0  0  0  0  0  0  0  0
  141.9882   73.1531  227.3017 H   0  0  0  0  0  0  0  0  0  0  0  0
  141.3432   72.2678  225.1089 H   0  0  0  0  0  0  0  0  0  0  0  0
  140.8053   69.7023  224.0272 H   0  0  0  0  0  0  0  0  0  0  0  0
  139.2037   69.1864  224.7641 H   0  0  0  0  0  0  0  0  0  0  0  0
  138.1639   70.5371  223.3390 H   0  0  0  0  0  0  0  0  0  0  0  0
  138.9091   71.9289  224.1262 H   0  0  0  0  0  0  0  0  0  0  0  0
  140.8718   70.4526  222.5272 H   0  0  0  0  0  0  0  0  0  0  0  0
  139.3863   70.9495  221.5504 H   0  0  0  0  0  0  0  0  0  0  0  0
  141.6000   72.5600  222.1680 H   0  0  0  0  0  0  0  0  0  0  0  0
  135.6810   75.3360  222.0600 H   0  0  0  0  0  0  0  0  0  0  0  0
  134.6057   73.1418  221.8487 H   0  0  0  0  0  0  0  0  0  0  0  0
  136.2044   72.3531  221.8376 H   0  0  0  0  0  0  0  0  0  0  0  0
  136.0266   73.6462  224.3860 H   0  0  0  0  0  0  0  0  0  0  0  0
  134.4230   72.9236  224.1428 H   0  0  0  0  0  0  0  0  0  0  0  0
  136.1962   71.0192  223.1038 H   0  0  0  0  0  0  0  0  0  0  0  0
  137.0061   71.6977  224.6178 H   0  0  0  0  0  0  0  0  0  0  0  0
  135.0711   69.2091  223.4417 H   0  0  0  0  0  0  0  0  0  0  0  0
  136.1241   68.7463  224.7999 H   0  0  0  0  0  0  0  0  0  0  0  0
  133.0880   69.0737  224.7575 H   0  0  0  0  0  0  0  0  0  0  0  0
  134.0849   67.6161  225.2081 H   0  0  0  0  0  0  0  0  0  0  0  0
  133.0230   70.7233  227.3037 H   0  0  0  0  0  0  0  0  0  0  0  0
  134.8104   70.6607  227.4959 H   0  0  0  0  0  0  0  0  0  0  0  0
  133.2635   71.0464  224.8641 H   0  0  0  0  0  0  0  0  0  0  0  0
  134.2308   72.2789  225.6831 H   0  0  0  0  0  0  0  0  0  0  0  0
  139.3426   79.0393  220.7609 H   0  0  0  0  0  0  0  0  0  0  0  0
  138.0461   78.0359  221.3950 H   0  0  0  0  0  0  0  0  0  0  0  0
  138.5038   80.0036  222.9360 H   0  0  0  0  0  0  0  0  0  0  0  0
  138.8989   78.4721  223.7708 H   0  0  0  0  0  0  0  0  0  0  0  0
  139.9160   81.2661  224.2782 H   0  0  0  0  0  0  0  0  0  0  0  0
  142.2507   82.1680  224.6210 H   0  0  0  0  0  0  0  0  0  0  0  0
  144.1227   80.9141  223.5944 H   0  0  0  0  0  0  0  0  0  0  0  0
  143.7780   78.8741  222.2852 H   0  0  0  0  0  0  0  0  0  0  0  0
  141.7503   77.8133  220.7008 H   0  0  0  0  0  0  0  0  0  0  0  0
  141.9915   76.8270  222.1946 H   0  0  0  0  0  0  0  0  0  0  0  0
  139.2776   69.0033  226.9142 H   0  0  0  0  0  0  0  0  0  0  0  0
  139.9177   69.8740  229.1389 H   0  0  0  0  0  0  0  0  0  0  0  0
  1  2  2  0
  2  3  1  0
  3  4  2  0
  4  5  1  0
  5  6  1  0
  6  7  1  0
  7  8  1  0
  8  9  1  0
  9 10  2  0
 10 11  1  0
 11 12  1  0
 12 13  1  0
 13 14  1  0
 14 15  1  0
 15 16  1  0
 16 17  1  0
 17 18  1  0
 18 19  1  0
 19 20  1  0
 20 21  1  0
 11 22  2  0
 22 23  1  0
 23 24  1  0
 24 25  1  0
 25 26  1  0
 26 27  1  0
 27 28  2  0
 28 29  1  0
 29 30  2  0
 30 31  1  0
 31 32  2  0
 32 33  1  0
 23 34  2  0
  4 35  1  0
 35 36  2  0
 36  1  1  0
 34  9  1  0
 21 16  1  0
 33 24  1  0
 32 27  1  0
  1 37  1  0
  2 38  1  0
  3 39  1  0
  5 40  1  0
  5 41  1  0
  6 42  1  0
  6 43  1  0
  7 44  1  0
  7 45  1  0
  8 46  1  0
 12 47  1  0
 13 48  1  0
 13 49  1  0
 14 50  1  0
 14 51  1  0
 15 52  1  0
 15 53  1  0
 17 54  1  0
 17 55  1  0
 18 56  1  0
 18 57  1  0
 20 58  1  0
 20 59  1  0
 21 60  1  0
 21 61  1  0
 25 62  1  0
 25 63  1  0
 26 64  1  0
 26 65  1  0
 28 66  1  0
 29 67  1  0
 30 68  1  0
 31 69  1  0
 33 70  1  0
 33 71  1  0
 35 72  1  0
 36 73  1  0
M  END
>  <smiles>  (12) 
c1ccc(CCCNc2nc(NCCCN3CCOCC3)nc(N3CCc4ccccc4C3)n2)cc1

>  <score_type>  (12) 
oracle

>  <origin>  (12) 
autodockgpu

>  <m_score__min__energy>  (12) 
-9.7400000000000002

>  <m_primary>  (12) 
energy

>  <rmsd>  (12) 
5.740342872263002

>  <m_score__min__rmsd>  (12) 
5.740342872263002

>  <meeko>  (12) 
{"free_energy": -9.18, "intermolecular_energy": -12.46, "internal_energy": -1.55, "cluster_size": 15, "cluster_id": 1, "rank_in_cluster": 8}

>  <energy>  (12) 
-8.79

>  <cluster_rmsd>  (12) 
1.42

>  <cluster>  (12) 
1

$$$$

     RDKit          3D

 73 77  0  0  0  0  0  0  0  0999 V2000
  140.5260   70.3730  228.3190 C   0  0  0  0  0  0  0  0  0  0  0  0
  141.0900   71.5600  227.9070 C   0  0  0  0  0  0  0  0  0  0  0  0
  141.0970   71.8660  226.5640 C   0  0  0  0  0  0  0  0  0  0  0  0
  140.5710   71.0590  225.5820 C   0  0  0  0  0  0  0  0  0  0  0  0
  140.5900   71.3550  224.1540 C   0  0  0  0  0  0  0  0  0  0  0  0
  139.4560   70.7250  223.3570 C   0  0  0  0  0  0  0  0  0  0  0  0
  139.2950   71.6120  222.1400 C   0  0  0  0  0  0  0  0  0  0  0  0
  138.9220   72.9580  222.3990 N   0  0  0  0  0  0  0  0  0  0  0  0
  139.5770   74.1150  221.9200 C   0  0  0  0  0  0  0  0  0  0  0  0
  140.2030   74.0040  220.7110 N   0  0  0  0  0  0  0  0  0  0  0  0
  140.8370   75.0590  220.1610 C   0  0  0  0  0  0  0  0  0  0  0  0
  141.4610   74.9040  218.8770 N   0  0  0  0  0  0  0  0  0  0  0  0
  141.8340   76.0270  218.0430 C   0  0  0  0  0  0  0  0  0  0  0  0
  143.3320   76.2790  218.2480 C   0  0  0  0  0  0  0  0  0  0  0  0
  143.6950   75.6660  219.5780 C   0  0  0  0  0  0  0  0  0  0  0  0
  144.4780   74.4880  219.5260 N   0  0  0  0  0  0  0  0  0  0  0  0
  144.3960   73.6880  218.3570 C   0  0  0  0  0  0  0  0  0  0  0  0
  144.9100   72.3030  218.7220 C   0  0  0  0  0  0  0  0  0  0  0  0
  146.0710   72.3400  219.4490 O   0  0  0  0  0  0  0  0  0  0  0  0
  146.0200   73.0840  220.6150 C   0  0  0  0  0  0  0  0  0  0  0  0
  144.6530   73.7640  220.7370 C   0  0  0  0  0  0  0  0  0  0  0  0
  140.8750   76.2580  220.7830 N   0  0  0  0  0  0  0  0  0  0  0  0
  140.2520   76.3680  221.9840 C   0  0  0  0  0  0  0  0  0  0  0  0
  140.2940   77.6480  222.5880 N   0  0  0  0  0  0  0  0  0  0  0  0
  141.4540   78.0010  223.3980 C   0  0  0  0  0  0  0  0  0  0  0  0
  142.1910   79.0580  222.5560 C   0  0  0  0  0  0  0  0  0  0  0  0
  141.2670   80.2040  222.3250 C   0  0  0  0  0  0  0  0  0  0  0  0
  141.8460   81.4450  222.1670 C   0  0  0  0  0  0  0  0  0  0  0  0
  141.0520   82.5760  221.9570 C   0  0  0  0  0  0  0  0  0  0  0  0
  139.6930   82.3650  221.9210 C   0  0  0  0  0  0  0  0  0  0  0  0
  139.1040   81.1280  222.0780 C   0  0  0  0  0  0  0  0  0  0  0  0
  139.8890   80.0180  222.2830 C   0  0  0  0  0  0  0  0  0  0  0  0
  139.2740   78.6610  222.4540 C   0  0  0  0  0  0  0  0  0  0  0  0
  139.6180   75.3050  222.5310 N   0  0  0  0  0  0  0  0  0  0  0  0
  140.0040   69.8650  226.0000 C   0  0  0  0  0  0  0  0  0  0  0  0
  139.9860   69.5350  227.3510 C   0  0  0  0  0  0  0  0  0  0  0  0
  140.5037   70.0964  229.3834 H   0  0  0  0  0  0  0  0  0  0  0  0
  141.5284   72.2535  228.6397 H   0  0  0  0  0  0  0  0  0  0  0  0
  141.5533   72.8185  226.2565 H   0  0  0  0  0  0  0  0  0  0  0  0
  140.5306   72.4464  224.0298 H   0  0  0  0  0  0  0  0  0  0  0  0
  141.5223   70.9239  223.7604 H   0  0  0  0  0  0  0  0  0  0  0  0
  139.7172   69.6996  223.0566 H   0  0  0  0  0  0  0  0  0  0  0  0
  138.5278   70.6538  223.9431 H   0  0  0  0  0  0  0  0  0  0  0  0
  140.2551   71.6255  221.6033 H   0  0  0  0  0  0  0  0  0  0  0  0
  138.4648   71.1785  221.5631 H   0  0  0  0  0  0  0  0  0  0  0  0
  138.0770   73.1320  223.0050 H   0  0  0  0  0  0  0  0  0  0  0  0
  141.6100   73.8950  218.5900 H   0  0  0  0  0  0  0  0  0  0  0  0
  141.6341   75.7927  216.9870 H   0  0  0  0  0  0  0  0  0  0  0  0
  141.2514   76.9198  218.3140 H   0  0  0  0  0  0  0  0  0  0  0  0
  143.9104   75.8050  217.4413 H   0  0  0  0  0  0  0  0  0  0  0  0
  143.5586   77.3553  218.2326 H   0  0  0  0  0  0  0  0  0  0  0  0
  144.2558   76.4176  220.1530 H   0  0  0  0  0  0  0  0  0  0  0  0
  142.7409   75.3675  220.0369 H   0  0  0  0  0  0  0  0  0  0  0  0
  143.3520   73.6247  218.0162 H   0  0  0  0  0  0  0  0  0  0  0  0
  144.9936   74.1241  217.5429 H   0  0  0  0  0  0  0  0  0  0  0  0
  144.1403   71.7881  219.3156 H   0  0  0  0  0  0  0  0  0  0  0  0
  145.1252   71.7725  217.7827 H   0  0  0  0  0  0  0  0  0  0  0  0
  146.1764   72.4208  221.4785 H   0  0  0  0  0  0  0  0  0  0  0  0
  146.8070   73.8522  220.5905 H   0  0  0  0  0  0  0  0  0  0  0  0
  143.8588   73.0119  220.8532 H   0  0  0  0  0  0  0  0  0  0  0  0
  144.6025   74.4227  221.6165 H   0  0  0  0  0  0  0  0  0  0  0  0
  141.1417   78.4207  224.3656 H   0  0  0  0  0  0  0  0  0  0  0  0
  142.0860   77.1317  223.6325 H   0  0  0  0  0  0  0  0  0  0  0  0
  143.0851   79.4046  223.0948 H   0  0  0  0  0  0  0  0  0  0  0  0
  142.5029   78.6245  221.5943 H   0  0  0  0  0  0  0  0  0  0  0  0
  142.9406   81.5459  222.2065 H   0  0  0  0  0  0  0  0  0  0  0  0
  141.4887   83.5773  221.8279 H   0  0  0  0  0  0  0  0  0  0  0  0
  139.0381   83.2335  221.7575 H   0  0  0  0  0  0  0  0  0  0  0  0
  138.0091   81.0296  222.0393 H   0  0  0  0  0  0  0  0  0  0  0  0
  138.6455   78.6613  223.3567 H   0  0  0  0  0  0  0  0  0  0  0  0
  138.6675   78.4346  221.5646 H   0  0  0  0  0  0  0  0  0  0  0  0
  139.5672   69.1768  225.2613 H   0  0  0  0  0  0  0  0  0  0  0  0
  139.5311   68.5831  227.6622 H   0  0  0  0  0  0  0  0  0  0  0  0
  1  2  2  0
  2  3  1  0
  3  4  2  0
  4  5  1  0
  5  6  1  0
  6  7  1  0
  7  8  1  0
  8  9  1  0
  9 10  2  0
 10 11  1  0
 11 12  1  0
 12 13  1  0
 13 14  1  0
 14 15  1  0
 15 16  1  0
 16 17  1  0
 17 18  1  0
 18 19  1  0
 19 20  1  0
 20 21  1  0
 11 22  2  0
 22 23  1  0
 23 24  1  0
 24 25  1  0
 25 26  1  0
 26 27  1  0
 27 28  2  0
 28 29  1  0
 29 30  2  0
 30 31  1  0
 31 32  2  0
 32 33  1  0
 23 34  2  0
  4 35  1  0
 35 36  2  0
 36  1  1  0
 34  9  1  0
 21 16  1  0
 33 24  1  0
 32 27  1  0
  1 37  1  0
  2 38  1  0
  3 39  1  0
  5 40  1  0
  5 41  1  0
  6 42  1  0
  6 43  1  0
  7 44  1  0
  7 45  1  0
  8 46  1  0
 12 47  1  0
 13 48  1  0
 13 49  1  0
 14 50  1  0
 14 51  1  0
 15 52  1  0
 15 53  1  0
 17 54  1  0
 17 55  1  0
 18 56  1  0
 18 57  1  0
 20 58  1  0
 20 59  1  0
 21 60  1  0
 21 61  1  0
 25 62  1  0
 25 63  1  0
 26 64  1  0
 26 65  1  0
 28 66  1  0
 29 67  1  0
 30 68  1  0
 31 69  1  0
 33 70  1  0
 33 71  1  0
 35 72  1  0
 36 73  1  0
M  END
>  <smiles>  (13) 
c1ccc(CCCNc2nc(NCCCN3CCOCC3)nc(N3CCc4ccccc4C3)n2)cc1

>  <score_type>  (13) 
oracle

>  <origin>  (13) 
autodockgpu

>  <m_score__min__energy>  (13) 
-9.7400000000000002

>  <m_primary>  (13) 
energy

>  <rmsd>  (13) 
5.151901427430234

>  <m_score__min__rmsd>  (13) 
5.151901427430234

>  <meeko>  (13) 
{"free_energy": -9.39, "intermolecular_energy": -12.67, "internal_energy": -1.36, "cluster_size": 6, "cluster_id": 3, "rank_in_cluster": 1}

>  <energy>  (13) 
-8.79

>  <cluster_rmsd>  (13) 
1.45

>  <cluster>  (13) 
1

$$$$

     RDKit          3D

 73 77  0  0  0  0  0  0  0  0999 V2000
  146.1590   66.7310  218.8060 C   0  0  0  0  0  0  0  0  0  0  0  0
  146.0650   68.0230  219.2730 C   0  0  0  0  0  0  0  0  0  0  0  0
  144.8240   68.5310  219.5890 C   0  0  0  0  0  0  0  0  0  0  0  0
  143.6470   67.8290  219.4720 C   0  0  0  0  0  0  0  0  0  0  0  0
  142.3220   68.3580  219.7800 C   0  0  0  0  0  0  0  0  0  0  0  0
  141.2900   68.1750  218.6770 C   0  0  0  0  0  0  0  0  0  0  0  0
  140.6180   69.5250  218.5440 C   0  0  0  0  0  0  0  0  0  0  0  0
  141.3860   70.6440  218.9650 N   0  0  0  0  0  0  0  0  0  0  0  0
  141.1960   71.3910  220.1490 C   0  0  0  0  0  0  0  0  0  0  0  0
  141.5740   72.7030  220.1100 N   0  0  0  0  0  0  0  0  0  0  0  0
  141.4130   73.5020  221.1830 C   0  0  0  0  0  0  0  0  0  0  0  0
  141.8020   74.8810  221.0890 N   0  0  0  0  0  0  0  0  0  0  0  0
  141.6240   75.6680  219.8870 C   0  0  0  0  0  0  0  0  0  0  0  0
  143.0040   76.1860  219.4640 C   0  0  0  0  0  0  0  0  0  0  0  0
  144.0220   75.2950  220.1310 C   0  0  0  0  0  0  0  0  0  0  0  0
  144.1510   73.9900  219.5960 N   0  0  0  0  0  0  0  0  0  0  0  0
  144.7410   72.9940  220.4150 C   0  0  0  0  0  0  0  0  0  0  0  0
  145.2000   71.8700  219.4960 C   0  0  0  0  0  0  0  0  0  0  0  0
  144.2580   71.5240  218.5640 O   0  0  0  0  0  0  0  0  0  0  0  0
  143.8070   72.5580  217.7620 C   0  0  0  0  0  0  0  0  0  0  0  0
  144.4440   73.8780  218.2090 C   0  0  0  0  0  0  0  0  0  0  0  0
  140.8730   73.0360  222.3320 N   0  0  0  0  0  0  0  0  0  0  0  0
  140.4970   71.7320  222.3690 C   0  0  0  0  0  0  0  0  0  0  0  0
  139.9130   71.2920  223.5820 N   0  0  0  0  0  0  0  0  0  0  0  0
  138.7130   70.4660  223.5220 C   0  0  0  0  0  0  0  0  0  0  0  0
  139.1940   69.0740  223.9700 C   0  0  0  0  0  0  0  0  0  0  0  0
  139.7570   69.1910  225.3450 C   0  0  0  0  0  0  0  0  0  0  0  0
  139.6670   68.0730  226.1480 C   0  0  0  0  0  0  0  0  0  0  0  0
  140.1600   68.0990  227.4560 C   0  0  0  0  0  0  0  0  0  0  0  0
  140.7240   69.2850  227.8690 C   0  0  0  0  0  0  0  0  0  0  0  0
  140.8180   70.4070  227.0730 C   0  0  0  0  0  0  0  0  0  0  0  0
  140.3330   70.3770  225.7870 C   0  0  0  0  0  0  0  0  0  0  0  0
  140.4250   71.5830  224.9010 C   0  0  0  0  0  0  0  0  0  0  0  0
  140.6630   70.9350  221.2890 N   0  0  0  0  0  0  0  0  0  0  0  0
  143.7450   66.5290  219.0020 C   0  0  0  0  0  0  0  0  0  0  0  0
  144.9860   65.9960  218.6760 C   0  0  0  0  0  0  0  0  0  0  0  0
  147.1334   66.2933  218.5435 H   0  0  0  0  0  0  0  0  0  0  0  0
  146.9676   68.6404  219.3920 H   0  0  0  0  0  0  0  0  0  0  0  0
  144.7710   69.5655  219.9590 H   0  0  0  0  0  0  0  0  0  0  0  0
  141.9519   67.8498  220.6827 H   0  0  0  0  0  0  0  0  0  0  0  0
  142.4448   69.4431  219.9125 H   0  0  0  0  0  0  0  0  0  0  0  0
  141.7785   67.8913  217.7332 H   0  0  0  0  0  0  0  0  0  0  0  0
  140.5711   67.3760  218.9111 H   0  0  0  0  0  0  0  0  0  0  0  0
  140.3620   69.6713  217.4843 H   0  0  0  0  0  0  0  0  0  0  0  0
  139.7471   69.4918  219.2152 H   0  0  0  0  0  0  0  0  0  0  0  0
  142.1770   70.9650  218.3470 H   0  0  0  0  0  0  0  0  0  0  0  0
  142.2420   75.2650  221.9730 H   0  0  0  0  0  0  0  0  0  0  0  0
  141.1972   75.0428  219.0890 H   0  0  0  0  0  0  0  0  0  0  0  0
  140.9365   76.5065  220.0722 H   0  0  0  0  0  0  0  0  0  0  0  0
  143.1108   76.1320  218.3705 H   0  0  0  0  0  0  0  0  0  0  0  0
  143.1414   77.2363  219.7606 H   0  0  0  0  0  0  0  0  0  0  0  0
  145.0022   75.7883  220.0547 H   0  0  0  0  0  0  0  0  0  0  0  0
  143.6655   75.1584  221.1626 H   0  0  0  0  0  0  0  0  0  0  0  0
  145.6016   73.4129  220.9571 H   0  0  0  0  0  0  0  0  0  0  0  0
  144.0202   72.6216  221.1579 H   0  0  0  0  0  0  0  0  0  0  0  0
  146.1100   72.1958  218.9708 H   0  0  0  0  0  0  0  0  0  0  0  0
  145.3834   70.9853  220.1235 H   0  0  0  0  0  0  0  0  0  0  0  0
  144.0820   72.3556  216.7163 H   0  0  0  0  0  0  0  0  0  0  0  0
  142.7132   72.6348  217.8496 H   0  0  0  0  0  0  0  0  0  0  0  0
  145.5317   73.8546  218.0464 H   0  0  0  0  0  0  0  0  0  0  0  0
  144.0534   74.7337  217.6387 H   0  0  0  0  0  0  0  0  0  0  0  0
  137.9398   70.8502  224.2035 H   0  0  0  0  0  0  0  0  0  0  0  0
  138.2579   70.4539  222.5206 H   0  0  0  0  0  0  0  0  0  0  0  0
  138.3473   68.3718  223.9737 H   0  0  0  0  0  0  0  0  0  0  0  0
  139.9620   68.6985  223.2777 H   0  0  0  0  0  0  0  0  0  0  0  0
  139.2043   67.1550  225.7566 H   0  0  0  0  0  0  0  0  0  0  0  0
  140.1006   67.2220  228.1173 H   0  0  0  0  0  0  0  0  0  0  0  0
  141.1225   69.3408  228.8928 H   0  0  0  0  0  0  0  0  0  0  0  0
  141.2802   71.3244  227.4663 H   0  0  0  0  0  0  0  0  0  0  0  0
  139.8374   72.4009  225.3434 H   0  0  0  0  0  0  0  0  0  0  0  0
  141.4819   71.8748  224.8120 H   0  0  0  0  0  0  0  0  0  0  0  0
  142.8379   65.9175  218.8867 H   0  0  0  0  0  0  0  0  0  0  0  0
  145.0421   64.9623  218.3042 H   0  0  0  0  0  0  0  0  0  0  0  0
  1  2  2  0
  2  3  1  0
  3  4  2  0
  4  5  1  0
  5  6  1  0
  6  7  1  0
  7  8  1  0
  8  9  1  0
  9 10  2  0
 10 11  1  0
 11 12  1  0
 12 13  1  0
 13 14  1  0
 14 15  1  0
 15 16  1  0
 16 17  1  0
 17 18  1  0
 18 19  1  0
 19 20  1  0
 20 21  1  0
 11 22  2  0
 22 23  1  0
 23 24  1  0
 24 25  1  0
 25 26  1  0
 26 27  1  0
 27 28  2  0
 28 29  1  0
 29 30  2  0
 30 31  1  0
 31 32  2  0
 32 33  1  0
 23 34  2  0
  4 35  1  0
 35 36  2  0
 36  1  1  0
 34  9  1  0
 21 16  1  0
 33 24  1  0
 32 27  1  0
  1 37  1  0
  2 38  1  0
  3 39  1  0
  5 40  1  0
  5 41  1  0
  6 42  1  0
  6 43  1  0
  7 44  1  0
  7 45  1  0
  8 46  1  0
 12 47  1  0
 13 48  1  0
 13 49  1  0
 14 50  1  0
 14 51  1  0
 15 52  1  0
 15 53  1  0
 17 54  1  0
 17 55  1  0
 18 56  1  0
 18 57  1  0
 20 58  1  0
 20 59  1  0
 21 60  1  0
 21 61  1  0
 25 62  1  0
 25 63  1  0
 26 64  1  0
 26 65  1  0
 28 66  1  0
 29 67  1  0
 30 68  1  0
 31 69  1  0
 33 70  1  0
 33 71  1  0
 35 72  1  0
 36 73  1  0
M  END
>  <smiles>  (14) 
c1ccc(CCCNc2nc(NCCCN3CCOCC3)nc(N3CCc4ccccc4C3)n2)cc1

>  <score_type>  (14) 
oracle

>  <origin>  (14) 
autodockgpu

>  <m_score__min__energy>  (14) 
-9.7400000000000002

>  <m_primary>  (14) 
energy

>  <rmsd>  (14) 
11.203832374926723

>  <m_score__min__rmsd>  (14) 
11.203832374926723

>  <meeko>  (14) 
{"free_energy": -7.53, "intermolecular_energy": -10.81, "internal_energy": -2.91, "cluster_size": 2, "cluster_id": 5, "rank_in_cluster": 2}

>  <energy>  (14) 
-8.73

>  <cluster_rmsd>  (14) 
1.0

>  <cluster>  (14) 
1

$$$$

     RDKit          3D

 73 77  0  0  0  0  0  0  0  0999 V2000
  140.5000   70.3410  228.3450 C   0  0  0  0  0  0  0  0  0  0  0  0
  141.0250   71.5620  227.9860 C   0  0  0  0  0  0  0  0  0  0  0  0
  141.0480   71.9130  226.6540 C   0  0  0  0  0  0  0  0  0  0  0  0
  140.5750   71.1190  225.6350 C   0  0  0  0  0  0  0  0  0  0  0  0
  140.6120   71.4640  224.2170 C   0  0  0  0  0  0  0  0  0  0  0  0
  139.2860   71.3050  223.4880 C   0  0  0  0  0  0  0  0  0  0  0  0
  139.6390   71.3740  222.0170 C   0  0  0  0  0  0  0  0  0  0  0  0
  140.3770   72.5180  221.6100 N   0  0  0  0  0  0  0  0  0  0  0  0
  140.0180   73.8670  221.8310 C   0  0  0  0  0  0  0  0  0  0  0  0
  138.7270   74.1000  222.2100 N   0  0  0  0  0  0  0  0  0  0  0  0
  138.2950   75.3510  222.4660 C   0  0  0  0  0  0  0  0  0  0  0  0
  136.9360   75.5460  222.8850 N   0  0  0  0  0  0  0  0  0  0  0  0
  136.1350   76.6750  222.4580 C   0  0  0  0  0  0  0  0  0  0  0  0
  134.7630   76.1360  222.0370 C   0  0  0  0  0  0  0  0  0  0  0  0
  134.6840   74.7160  222.5380 C   0  0  0  0  0  0  0  0  0  0  0  0
  134.4270   74.5600  223.9220 N   0  0  0  0  0  0  0  0  0  0  0  0
  134.2440   75.7330  224.6980 C   0  0  0  0  0  0  0  0  0  0  0  0
  134.4690   75.3490  226.1540 C   0  0  0  0  0  0  0  0  0  0  0  0
  133.8330   74.1870  226.5040 O   0  0  0  0  0  0  0  0  0  0  0  0
  134.1450   73.0820  225.7310 C   0  0  0  0  0  0  0  0  0  0  0  0
  135.0850   73.4930  224.5930 C   0  0  0  0  0  0  0  0  0  0  0  0
  139.1220   76.4150  222.3570 N   0  0  0  0  0  0  0  0  0  0  0  0
  140.4050   76.1830  221.9810 C   0  0  0  0  0  0  0  0  0  0  0  0
  141.2430   77.3220  221.9040 N   0  0  0  0  0  0  0  0  0  0  0  0
  141.8290   77.6740  220.6170 C   0  0  0  0  0  0  0  0  0  0  0  0
  141.0880   78.9600  220.2070 C   0  0  0  0  0  0  0  0  0  0  0  0
  141.3190   79.9910  221.2580 C   0  0  0  0  0  0  0  0  0  0  0  0
  141.3020   81.3070  220.8480 C   0  0  0  0  0  0  0  0  0  0  0  0
  141.5210   82.3390  221.7670 C   0  0  0  0  0  0  0  0  0  0  0  0
  141.7460   81.9540  223.0680 C   0  0  0  0  0  0  0  0  0  0  0  0
  141.7640   80.6400  223.4880 C   0  0  0  0  0  0  0  0  0  0  0  0
  141.5470   79.6300  222.5810 C   0  0  0  0  0  0  0  0  0  0  0  0
  141.5590   78.1930  223.0120 C   0  0  0  0  0  0  0  0  0  0  0  0
  140.8320   74.9240  221.7250 N   0  0  0  0  0  0  0  0  0  0  0  0
  140.0480   69.8910  226.0010 C   0  0  0  0  0  0  0  0  0  0  0  0
  140.0150   69.5150  227.3390 C   0  0  0  0  0  0  0  0  0  0  0  0
  140.4656   70.0283  229.3990 H   0  0  0  0  0  0  0  0  0  0  0  0
  141.4200   72.2468  228.7509 H   0  0  0  0  0  0  0  0  0  0  0  0
  141.4724   72.8923  226.3878 H   0  0  0  0  0  0  0  0  0  0  0  0
  140.9278   72.5139  224.1282 H   0  0  0  0  0  0  0  0  0  0  0  0
  141.3121   70.7593  223.7445 H   0  0  0  0  0  0  0  0  0  0  0  0
  138.8250   70.3361  223.7303 H   0  0  0  0  0  0  0  0  0  0  0  0
  138.5597   72.0792  223.7762 H   0  0  0  0  0  0  0  0  0  0  0  0
  140.2353   70.4830  221.7711 H   0  0  0  0  0  0  0  0  0  0  0  0
  138.6794   71.4325  221.4825 H   0  0  0  0  0  0  0  0  0  0  0  0
  141.2820   72.3680  221.0900 H   0  0  0  0  0  0  0  0  0  0  0  0
  136.5780   74.7990  223.5450 H   0  0  0  0  0  0  0  0  0  0  0  0
  136.0196   77.3883  223.2874 H   0  0  0  0  0  0  0  0  0  0  0  0
  136.6190   77.1975  221.6197 H   0  0  0  0  0  0  0  0  0  0  0  0
  133.9630   76.7421  222.4872 H   0  0  0  0  0  0  0  0  0  0  0  0
  134.6391   76.1781  220.9448 H   0  0  0  0  0  0  0  0  0  0  0  0
  133.8785   74.2088  221.9867 H   0  0  0  0  0  0  0  0  0  0  0  0
  135.6828   74.2864  222.3713 H   0  0  0  0  0  0  0  0  0  0  0  0
  134.9692   76.5025  224.3948 H   0  0  0  0  0  0  0  0  0  0  0  0
  133.2335   76.1429  224.5539 H   0  0  0  0  0  0  0  0  0  0  0  0
  135.5489   75.2218  226.3205 H   0  0  0  0  0  0  0  0  0  0  0  0
  134.0506   76.1541  226.7759 H   0  0  0  0  0  0  0  0  0  0  0  0
  134.6397   72.3257  226.3581 H   0  0  0  0  0  0  0  0  0  0  0  0
  133.2208   72.6640  225.3054 H   0  0  0  0  0  0  0  0  0  0  0  0
  136.0515   73.8302  224.9958 H   0  0  0  0  0  0  0  0  0  0  0  0
  135.2955   72.6530  223.9147 H   0  0  0  0  0  0  0  0  0  0  0  0
  142.9085   77.8602  220.7171 H   0  0  0  0  0  0  0  0  0  0  0  0
  141.7259   76.8712  219.8721 H   0  0  0  0  0  0  0  0  0  0  0  0
  141.4745   79.3200  219.2421 H   0  0  0  0  0  0  0  0  0  0  0  0
  140.0113   78.7595  220.1042 H   0  0  0  0  0  0  0  0  0  0  0  0
  141.1150   81.5474  219.7910 H   0  0  0  0  0  0  0  0  0  0  0  0
  141.5136   83.3971  221.4663 H   0  0  0  0  0  0  0  0  0  0  0  0
  141.9219   82.7397  223.8175 H   0  0  0  0  0  0  0  0  0  0  0  0
  141.9514   80.4012  224.5453 H   0  0  0  0  0  0  0  0  0  0  0  0
  142.5584   77.9401  223.3958 H   0  0  0  0  0  0  0  0  0  0  0  0
  140.8007   78.0542  223.7967 H   0  0  0  0  0  0  0  0  0  0  0  0
  139.6546   69.2115  225.2306 H   0  0  0  0  0  0  0  0  0  0  0  0
  139.5929   68.5357  227.6087 H   0  0  0  0  0  0  0  0  0  0  0  0
  1  2  2  0
  2  3  1  0
  3  4  2  0
  4  5  1  0
  5  6  1  0
  6  7  1  0
  7  8  1  0
  8  9  1  0
  9 10  2  0
 10 11  1  0
 11 12  1  0
 12 13  1  0
 13 14  1  0
 14 15  1  0
 15 16  1  0
 16 17  1  0
 17 18  1  0
 18 19  1  0
 19 20  1  0
 20 21  1  0
 11 22  2  0
 22 23  1  0
 23 24  1  0
 24 25  1  0
 25 26  1  0
 26 27  1  0
 27 28  2  0
 28 29  1  0
 29 30  2  0
 30 31  1  0
 31 32  2  0
 32 33  1  0
 23 34  2  0
  4 35  1  0
 35 36  2  0
 36  1  1  0
 34  9  1  0
 21 16  1  0
 33 24  1  0
 32 27  1  0
  1 37  1  0
  2 38  1  0
  3 39  1  0
  5 40  1  0
  5 41  1  0
  6 42  1  0
  6 43  1  0
  7 44  1  0
  7 45  1  0
  8 46  1  0
 12 47  1  0
 13 48  1  0
 13 49  1  0
 14 50  1  0
 14 51  1  0
 15 52  1  0
 15 53  1  0
 17 54  1  0
 17 55  1  0
 18 56  1  0
 18 57  1  0
 20 58  1  0
 20 59  1  0
 21 60  1  0
 21 61  1  0
 25 62  1  0
 25 63  1  0
 26 64  1  0
 26 65  1  0
 28 66  1  0
 29 67  1  0
 30 68  1  0
 31 69  1  0
 33 70  1  0
 33 71  1  0
 35 72  1  0
 36 73  1  0
M  END
>  <smiles>  (15) 
c1ccc(CCCNc2nc(NCCCN3CCOCC3)nc(N3CCc4ccccc4C3)n2)cc1

>  <score_type>  (15) 
oracle

>  <origin>  (15) 
autodockgpu

>  <m_score__min__energy>  (15) 
-9.7400000000000002

>  <m_primary>  (15) 
energy

>  <rmsd>  (15) 
4.7988343258103034

>  <m_score__min__rmsd>  (15) 
4.7988343258103034

>  <meeko>  (15) 
{"free_energy": -8.88, "intermolecular_energy": -12.16, "internal_energy": -1.75, "cluster_size": 15, "cluster_id": 1, "rank_in_cluster": 11}

>  <energy>  (15) 
-8.1

>  <cluster_rmsd>  (15) 
1.64

>  <cluster>  (15) 
1

$$$$

     RDKit          3D

 73 77  0  0  0  0  0  0  0  0999 V2000
  144.7580   74.7720  220.4750 C   0  0  0  0  0  0  0  0  0  0  0  0
  145.5960   73.9000  221.1330 C   0  0  0  0  0  0  0  0  0  0  0  0
  145.7870   72.6380  220.6140 C   0  0  0  0  0  0  0  0  0  0  0  0
  145.1920   72.1750  219.4640 C   0  0  0  0  0  0  0  0  0  0  0  0
  145.3640   70.8350  218.9120 C   0  0  0  0  0  0  0  0  0  0  0  0
  144.0960   70.2090  218.3510 C   0  0  0  0  0  0  0  0  0  0  0  0
  143.1420   70.1410  219.5250 C   0  0  0  0  0  0  0  0  0  0  0  0
  142.0790   71.0820  219.5160 N   0  0  0  0  0  0  0  0  0  0  0  0
  141.5570   71.7660  220.6370 C   0  0  0  0  0  0  0  0  0  0  0  0
  141.5980   73.1300  220.5930 N   0  0  0  0  0  0  0  0  0  0  0  0
  141.1060   73.8710  221.6050 C   0  0  0  0  0  0  0  0  0  0  0  0
  141.1480   75.3030  221.5050 N   0  0  0  0  0  0  0  0  0  0  0  0
  139.9950   76.1000  221.1410 C   0  0  0  0  0  0  0  0  0  0  0  0
  140.0180   77.3680  222.0020 C   0  0  0  0  0  0  0  0  0  0  0  0
  141.3940   77.9680  221.8520 C   0  0  0  0  0  0  0  0  0  0  0  0
  141.5760   79.2540  222.4150 N   0  0  0  0  0  0  0  0  0  0  0  0
  140.7470   80.3060  221.9470 C   0  0  0  0  0  0  0  0  0  0  0  0
  141.4290   81.6150  222.3150 C   0  0  0  0  0  0  0  0  0  0  0  0
  141.8960   81.6300  223.6030 O   0  0  0  0  0  0  0  0  0  0  0  0
  142.7640   80.6030  223.9330 C   0  0  0  0  0  0  0  0  0  0  0  0
  142.9030   79.6400  222.7490 C   0  0  0  0  0  0  0  0  0  0  0  0
  140.5540   73.2920  222.6960 N   0  0  0  0  0  0  0  0  0  0  0  0
  140.5120   71.9360  222.7380 C   0  0  0  0  0  0  0  0  0  0  0  0
  139.9040   71.3720  223.8860 N   0  0  0  0  0  0  0  0  0  0  0  0
  138.7180   70.5430  223.7130 C   0  0  0  0  0  0  0  0  0  0  0  0
  139.2070   69.1190  224.0350 C   0  0  0  0  0  0  0  0  0  0  0  0
  139.7330   69.1060  225.4290 C   0  0  0  0  0  0  0  0  0  0  0  0
  139.6380   67.9140  226.1160 C   0  0  0  0  0  0  0  0  0  0  0  0
  140.0970   67.8160  227.4330 C   0  0  0  0  0  0  0  0  0  0  0  0
  140.6330   68.9620  227.9750 C   0  0  0  0  0  0  0  0  0  0  0  0
  140.7320   70.1580  227.2960 C   0  0  0  0  0  0  0  0  0  0  0  0
  140.2800   70.2490  226.0010 C   0  0  0  0  0  0  0  0  0  0  0  0
  140.3780   71.5380  225.2400 C   0  0  0  0  0  0  0  0  0  0  0  0
  141.0110   71.1990  221.7190 N   0  0  0  0  0  0  0  0  0  0  0  0
  144.3490   73.0560  218.8050 C   0  0  0  0  0  0  0  0  0  0  0  0
  144.1410   74.3340  219.3100 C   0  0  0  0  0  0  0  0  0  0  0  0
  144.5820   75.7869  220.8609 H   0  0  0  0  0  0  0  0  0  0  0  0
  146.1052   74.2061  222.0588 H   0  0  0  0  0  0  0  0  0  0  0  0
  146.4596   71.9562  221.1551 H   0  0  0  0  0  0  0  0  0  0  0  0
  146.1055   70.8913  218.1014 H   0  0  0  0  0  0  0  0  0  0  0  0
  145.6824   70.1942  219.7475 H   0  0  0  0  0  0  0  0  0  0  0  0
  143.6780   70.8345  217.5485 H   0  0  0  0  0  0  0  0  0  0  0  0
  144.2830   69.2180  217.9118 H   0  0  0  0  0  0  0  0  0  0  0  0
  142.7002   69.1338  219.5423 H   0  0  0  0  0  0  0  0  0  0  0  0
  143.7451   70.3820  220.4128 H   0  0  0  0  0  0  0  0  0  0  0  0
  141.6200   71.3070  218.5940 H   0  0  0  0  0  0  0  0  0  0  0  0
  142.0990   75.7200  221.7080 H   0  0  0  0  0  0  0  0  0  0  0  0
  140.0461   76.3690  220.0756 H   0  0  0  0  0  0  0  0  0  0  0  0
  139.0661   75.5353  221.3094 H   0  0  0  0  0  0  0  0  0  0  0  0
  139.2544   78.0781  221.6518 H   0  0  0  0  0  0  0  0  0  0  0  0
  139.7999   77.1357  223.0548 H   0  0  0  0  0  0  0  0  0  0  0  0
  142.1122   77.2864  222.3311 H   0  0  0  0  0  0  0  0  0  0  0  0
  141.5455   78.0944  220.7698 H   0  0  0  0  0  0  0  0  0  0  0  0
  140.6298   80.2361  220.8555 H   0  0  0  0  0  0  0  0  0  0  0  0
  139.7469   80.2460  222.4011 H   0  0  0  0  0  0  0  0  0  0  0  0
  142.2771   81.7727  221.6325 H   0  0  0  0  0  0  0  0  0  0  0  0
  140.6782   82.4141  222.2271 H   0  0  0  0  0  0  0  0  0  0  0  0
  143.7502   81.0234  224.1795 H   0  0  0  0  0  0  0  0  0  0  0  0
  142.3666   80.0564  224.8009 H   0  0  0  0  0  0  0  0  0  0  0  0
  143.3824   80.1447  221.8973 H   0  0  0  0  0  0  0  0  0  0  0  0
  143.5293   78.7715  223.0009 H   0  0  0  0  0  0  0  0  0  0  0  0
  137.9223   70.8494  224.4079 H   0  0  0  0  0  0  0  0  0  0  0  0
  138.2887   70.6245  222.7035 H   0  0  0  0  0  0  0  0  0  0  0  0
  138.3704   68.4102  223.9470 H   0  0  0  0  0  0  0  0  0  0  0  0
  139.9977   68.8226  223.3301 H   0  0  0  0  0  0  0  0  0  0  0  0
  139.1979   67.0339  225.6242 H   0  0  0  0  0  0  0  0  0  0  0  0
  140.0334   66.8774  228.0030 H   0  0  0  0  0  0  0  0  0  0  0  0
  141.0039   68.9214  229.0098 H   0  0  0  0  0  0  0  0  0  0  0  0
  141.1717   71.0373  227.7895 H   0  0  0  0  0  0  0  0  0  0  0  0
  139.7680   72.3018  225.7445 H   0  0  0  0  0  0  0  0  0  0  0  0
  141.4326   71.8493  225.2085 H   0  0  0  0  0  0  0  0  0  0  0  0
  143.8432   72.7428  217.8797 H   0  0  0  0  0  0  0  0  0  0  0  0
  143.4686   75.0182  218.7718 H   0  0  0  0  0  0  0  0  0  0  0  0
  1  2  2  0
  2  3  1  0
  3  4  2  0
  4  5  1  0
  5  6  1  0
  6  7  1  0
  7  8  1  0
  8  9  1  0
  9 10  2  0
 10 11  1  0
 11 12  1  0
 12 13  1  0
 13 14  1  0
 14 15  1  0
 15 16  1  0
 16 17  1  0
 17 18  1  0
 18 19  1  0
 19 20  1  0
 20 21  1  0
 11 22  2  0
 22 23  1  0
 23 24  1  0
 24 25  1  0
 25 26  1  0
 26 27  1  0
 27 28  2  0
 28 29  1  0
 29 30  2  0
 30 31  1  0
 31 32  2  0
 32 33  1  0
 23 34  2  0
  4 35  1  0
 35 36  2  0
 36  1  1  0
 34  9  1  0
 21 16  1  0
 33 24  1  0
 32 27  1  0
  1 37  1  0
  2 38  1  0
  3 39  1  0
  5 40  1  0
  5 41  1  0
  6 42  1  0
  6 43  1  0
  7 44  1  0
  7 45  1  0
  8 46  1  0
 12 47  1  0
 13 48  1  0
 13 49  1  0
 14 50  1  0
 14 51  1  0
 15 52  1  0
 15 53  1  0
 17 54  1  0
 17 55  1  0
 18 56  1  0
 18 57  1  0
 20 58  1  0
 20 59  1  0
 21 60  1  0
 21 61  1  0
 25 62  1  0
 25 63  1  0
 26 64  1  0
 26 65  1  0
 28 66  1  0
 29 67  1  0
 30 68  1  0
 31 69  1  0
 33 70  1  0
 33 71  1  0
 35 72  1  0
 36 73  1  0
M  END
>  <smiles>  (16) 
c1ccc(CCCNc2nc(NCCCN3CCOCC3)nc(N3CCc4ccccc4C3)n2)cc1

>  <score_type>  (16) 
oracle

>  <origin>  (16) 
autodockgpu

>  <m_score__min__energy>  (16) 
-9.7400000000000002

>  <m_primary>  (16) 
energy

>  <rmsd>  (16) 
11.37704523645402

>  <m_score__min__rmsd>  (16) 
11.37704523645402

>  <meeko>  (16) 
{"free_energy": -9.26, "intermolecular_energy": -12.54, "internal_energy": -1.62, "cluster_size": 4, "cluster_id": 2, "rank_in_cluster": 3}

>  <energy>  (16) 
-9.72

>  <cluster_rmsd>  (16) 
0.0

>  <cluster>  (16) 
2

$$$$

     RDKit          3D

 73 77  0  0  0  0  0  0  0  0999 V2000
  141.1110   71.6870  228.3830 C   0  0  0  0  0  0  0  0  0  0  0  0
  141.4580   72.3090  227.2040 C   0  0  0  0  0  0  0  0  0  0  0  0
  141.0300   71.7670  226.0120 C   0  0  0  0  0  0  0  0  0  0  0  0
  140.2660   70.6280  225.9080 C   0  0  0  0  0  0  0  0  0  0  0  0
  139.8230   70.0270  224.6550 C   0  0  0  0  0  0  0  0  0  0  0  0
  139.1710   70.9950  223.6780 C   0  0  0  0  0  0  0  0  0  0  0  0
  140.3130   71.5350  222.8440 C   0  0  0  0  0  0  0  0  0  0  0  0
  139.9470   72.3830  221.7650 N   0  0  0  0  0  0  0  0  0  0  0  0
  139.6590   73.7640  221.8470 C   0  0  0  0  0  0  0  0  0  0  0  0
  138.3410   74.1060  221.9520 N   0  0  0  0  0  0  0  0  0  0  0  0
  137.9670   75.3970  222.0580 C   0  0  0  0  0  0  0  0  0  0  0  0
  136.5720   75.7100  222.1920 N   0  0  0  0  0  0  0  0  0  0  0  0
  135.5260   74.9220  221.5720 C   0  0  0  0  0  0  0  0  0  0  0  0
  134.7670   74.1990  222.6900 C   0  0  0  0  0  0  0  0  0  0  0  0
  135.4170   74.6070  223.9880 C   0  0  0  0  0  0  0  0  0  0  0  0
  134.6020   74.5250  225.1430 N   0  0  0  0  0  0  0  0  0  0  0  0
  134.2160   73.2370  225.5920 C   0  0  0  0  0  0  0  0  0  0  0  0
  133.0050   73.4180  226.4960 C   0  0  0  0  0  0  0  0  0  0  0  0
  133.1580   74.4410  227.3940 O   0  0  0  0  0  0  0  0  0  0  0  0
  133.4540   75.6760  226.8430 C   0  0  0  0  0  0  0  0  0  0  0  0
  133.6250   75.5420  225.3270 C   0  0  0  0  0  0  0  0  0  0  0  0
  138.8800   76.3950  222.0640 N   0  0  0  0  0  0  0  0  0  0  0  0
  140.1890   76.0530  221.9600 C   0  0  0  0  0  0  0  0  0  0  0  0
  141.1130   77.1260  221.9960 N   0  0  0  0  0  0  0  0  0  0  0  0
  141.7880   77.5100  220.7620 C   0  0  0  0  0  0  0  0  0  0  0  0
  141.1670   78.8730  220.4030 C   0  0  0  0  0  0  0  0  0  0  0  0
  141.4200   79.8160  221.5280 C   0  0  0  0  0  0  0  0  0  0  0  0
  141.5230   81.1520  221.2040 C   0  0  0  0  0  0  0  0  0  0  0  0
  141.7720   82.1050  222.1970 C   0  0  0  0  0  0  0  0  0  0  0  0
  141.9010   81.6250  223.4800 C   0  0  0  0  0  0  0  0  0  0  0  0
  141.7990   80.2910  223.8140 C   0  0  0  0  0  0  0  0  0  0  0  0
  141.5540   79.3580  222.8340 C   0  0  0  0  0  0  0  0  0  0  0  0
  141.4360   77.9010  223.1710 C   0  0  0  0  0  0  0  0  0  0  0  0
  140.5570   74.7560  221.8530 N   0  0  0  0  0  0  0  0  0  0  0  0
  139.9190   70.0050  227.0970 C   0  0  0  0  0  0  0  0  0  0  0  0
  140.3400   70.5340  228.3110 C   0  0  0  0  0  0  0  0  0  0  0  0
  141.4350   72.0916  229.3532 H   0  0  0  0  0  0  0  0  0  0  0  0
  142.0676   73.2246  227.2141 H   0  0  0  0  0  0  0  0  0  0  0  0
  141.3183   72.2789  225.0820 H   0  0  0  0  0  0  0  0  0  0  0  0
  140.6987   69.5805  224.1613 H   0  0  0  0  0  0  0  0  0  0  0  0
  139.0516   69.2893  224.9212 H   0  0  0  0  0  0  0  0  0  0  0  0
  138.4418   70.4710  223.0426 H   0  0  0  0  0  0  0  0  0  0  0  0
  138.6202   71.7955  224.1936 H   0  0  0  0  0  0  0  0  0  0  0  0
  140.9767   72.1053  223.5105 H   0  0  0  0  0  0  0  0  0  0  0  0
  140.7868   70.6555  222.3836 H   0  0  0  0  0  0  0  0  0  0  0  0
  139.8760   71.9610  220.8020 H   0  0  0  0  0  0  0  0  0  0  0  0
  136.3780   76.5740  222.7720 H   0  0  0  0  0  0  0  0  0  0  0  0
  134.8402   75.5790  221.0170 H   0  0  0  0  0  0  0  0  0  0  0  0
  135.9557   74.1971  220.8650 H   0  0  0  0  0  0  0  0  0  0  0  0
  133.7086   74.4988  222.6852 H   0  0  0  0  0  0  0  0  0  0  0  0
  134.8055   73.1082  222.5536 H   0  0  0  0  0  0  0  0  0  0  0  0
  136.2906   73.9574  224.1457 H   0  0  0  0  0  0  0  0  0  0  0  0
  135.6635   75.6730  223.8740 H   0  0  0  0  0  0  0  0  0  0  0  0
  133.9533   72.6019  224.7332 H   0  0  0  0  0  0  0  0  0  0  0  0
  135.0393   72.7508  226.1359 H   0  0  0  0  0  0  0  0  0  0  0  0
  132.1271   73.6305  225.8682 H   0  0  0  0  0  0  0  0  0  0  0  0
  132.8814   72.4890  227.0720 H   0  0  0  0  0  0  0  0  0  0  0  0
  132.6339   76.3771  227.0571 H   0  0  0  0  0  0  0  0  0  0  0  0
  134.3895   76.0537  227.2813 H   0  0  0  0  0  0  0  0  0  0  0  0
  132.6740   75.2509  224.8571 H   0  0  0  0  0  0  0  0  0  0  0  0
  133.9330   76.4919  224.8656 H   0  0  0  0  0  0  0  0  0  0  0  0
  142.8720   77.6050  220.9230 H   0  0  0  0  0  0  0  0  0  0  0  0
  141.6624   76.7650  219.9625 H   0  0  0  0  0  0  0  0  0  0  0  0
  141.6282   79.2605  219.4826 H   0  0  0  0  0  0  0  0  0  0  0  0
  140.0850   78.7635  220.2377 H   0  0  0  0  0  0  0  0  0  0  0  0
  141.4086   81.4707  220.1574 H   0  0  0  0  0  0  0  0  0  0  0  0
  141.8597   83.1768  221.9655 H   0  0  0  0  0  0  0  0  0  0  0  0
  142.0969   82.3474  224.2861 H   0  0  0  0  0  0  0  0  0  0  0  0
  141.9133   79.9742  224.8612 H   0  0  0  0  0  0  0  0  0  0  0  0
  142.3925   77.5480  223.5838 H   0  0  0  0  0  0  0  0  0  0  0  0
  140.6298   77.7745  223.9086 H   0  0  0  0  0  0  0  0  0  0  0  0
  139.3090   69.0898  227.0793 H   0  0  0  0  0  0  0  0  0  0  0  0
  140.0541   70.0243  229.2429 H   0  0  0  0  0  0  0  0  0  0  0  0
  1  2  2  0
  2  3  1  0
  3  4  2  0
  4  5  1  0
  5  6  1  0
  6  7  1  0
  7  8  1  0
  8  9  1  0
  9 10  2  0
 10 11  1  0
 11 12  1  0
 12 13  1  0
 13 14  1  0
 14 15  1  0
 15 16  1  0
 16 17  1  0
 17 18  1  0
 18 19  1  0
 19 20  1  0
 20 21  1  0
 11 22  2  0
 22 23  1  0
 23 24  1  0
 24 25  1  0
 25 26  1  0
 26 27  1  0
 27 28  2  0
 28 29  1  0
 29 30  2  0
 30 31  1  0
 31 32  2  0
 32 33  1  0
 23 34  2  0
  4 35  1  0
 35 36  2  0
 36  1  1  0
 34  9  1  0
 21 16  1  0
 33 24  1  0
 32 27  1  0
  1 37  1  0
  2 38  1  0
  3 39  1  0
  5 40  1  0
  5 41  1  0
  6 42  1  0
  6 43  1  0
  7 44  1  0
  7 45  1  0
  8 46  1  0
 12 47  1  0
 13 48  1  0
 13 49  1  0
 14 50  1  0
 14 51  1  0
 15 52  1  0
 15 53  1  0
 17 54  1  0
 17 55  1  0
 18 56  1  0
 18 57  1  0
 20 58  1  0
 20 59  1  0
 21 60  1  0
 21 61  1  0
 25 62  1  0
 25 63  1  0
 26 64  1  0
 26 65  1  0
 28 66  1  0
 29 67  1  0
 30 68  1  0
 31 69  1  0
 33 70  1  0
 33 71  1  0
 35 72  1  0
 36 73  1  0
M  END
>  <smiles>  (17) 
c1ccc(CCCNc2nc(NCCCN3CCOCC3)nc(N3CCc4ccccc4C3)n2)cc1

>  <score_type>  (17) 
oracle

>  <origin>  (17) 
autodockgpu

>  <m_score__min__energy>  (17) 
-9.7400000000000002

>  <m_primary>  (17) 
energy

>  <rmsd>  (17) 
4.944974318553561

>  <m_score__min__rmsd>  (17) 
4.944974318553561

>  <meeko>  (17) 
{"free_energy": -9.42, "intermolecular_energy": -12.7, "internal_energy": -1.15, "cluster_size": 15, "cluster_id": 1, "rank_in_cluster": 5}

>  <energy>  (17) 
-9.26

>  <cluster_rmsd>  (17) 
1.24

>  <cluster>  (17) 
2

$$$$

     RDKit          3D

 73 77  0  0  0  0  0  0  0  0999 V2000
  141.0680   71.5150  228.3210 C   0  0  0  0  0  0  0  0  0  0  0  0
  141.4280   72.2790  227.2330 C   0  0  0  0  0  0  0  0  0  0  0  0
  141.0380   71.8750  225.9750 C   0  0  0  0  0  0  0  0  0  0  0  0
  140.2990   70.7440  225.7190 C   0  0  0  0  0  0  0  0  0  0  0  0
  139.8960   70.2880  224.3920 C   0  0  0  0  0  0  0  0  0  0  0  0
  138.8440   71.1540  223.7130 C   0  0  0  0  0  0  0  0  0  0  0  0
  139.2660   71.2110  222.2600 C   0  0  0  0  0  0  0  0  0  0  0  0
  140.0970   72.3040  221.8970 N   0  0  0  0  0  0  0  0  0  0  0  0
  139.7620   73.6740  221.9870 C   0  0  0  0  0  0  0  0  0  0  0  0
  138.4400   73.9690  222.1600 N   0  0  0  0  0  0  0  0  0  0  0  0
  138.0240   75.2450  222.2780 C   0  0  0  0  0  0  0  0  0  0  0  0
  136.6280   75.5070  222.4820 N   0  0  0  0  0  0  0  0  0  0  0  0
  135.7350   75.8960  221.4110 C   0  0  0  0  0  0  0  0  0  0  0  0
  134.4440   75.0830  221.5650 C   0  0  0  0  0  0  0  0  0  0  0  0
  134.7760   73.9130  222.4580 C   0  0  0  0  0  0  0  0  0  0  0  0
  134.5800   74.1160  223.8450 N   0  0  0  0  0  0  0  0  0  0  0  0
  134.5100   72.9710  224.6790 C   0  0  0  0  0  0  0  0  0  0  0  0
  133.8340   73.3980  225.9740 C   0  0  0  0  0  0  0  0  0  0  0  0
  134.3230   74.5780  226.4680 O   0  0  0  0  0  0  0  0  0  0  0  0
  134.2710   75.6540  225.5980 C   0  0  0  0  0  0  0  0  0  0  0  0
  133.7410   75.1950  224.2360 C   0  0  0  0  0  0  0  0  0  0  0  0
  138.8990   76.2760  222.2300 N   0  0  0  0  0  0  0  0  0  0  0  0
  140.2130   75.9820  222.0600 C   0  0  0  0  0  0  0  0  0  0  0  0
  141.0970   77.0890  222.0420 N   0  0  0  0  0  0  0  0  0  0  0  0
  141.6920   77.4880  220.7720 C   0  0  0  0  0  0  0  0  0  0  0  0
  141.0030   78.8230  220.4390 C   0  0  0  0  0  0  0  0  0  0  0  0
  141.2790   79.7840  221.5440 C   0  0  0  0  0  0  0  0  0  0  0  0
  141.3160   81.1210  221.2070 C   0  0  0  0  0  0  0  0  0  0  0  0
  141.5800   82.0900  222.1810 C   0  0  0  0  0  0  0  0  0  0  0  0
  141.7930   81.6250  223.4580 C   0  0  0  0  0  0  0  0  0  0  0  0
  141.7580   80.2900  223.8030 C   0  0  0  0  0  0  0  0  0  0  0  0
  141.4970   79.3410  222.8430 C   0  0  0  0  0  0  0  0  0  0  0  0
  141.4520   77.8830  223.1940 C   0  0  0  0  0  0  0  0  0  0  0  0
  140.6230   74.6980  221.9410 N   0  0  0  0  0  0  0  0  0  0  0  0
  139.9390   69.9780  226.8160 C   0  0  0  0  0  0  0  0  0  0  0  0
  140.3220   70.3650  228.0950 C   0  0  0  0  0  0  0  0  0  0  0  0
  141.3627   71.8070  229.3397 H   0  0  0  0  0  0  0  0  0  0  0  0
  142.0179   73.1978  227.3665 H   0  0  0  0  0  0  0  0  0  0  0  0
  141.3374   72.4980  225.1193 H   0  0  0  0  0  0  0  0  0  0  0  0
  140.7895   70.2685  223.7506 H   0  0  0  0  0  0  0  0  0  0  0  0
  139.4398   69.2966  224.5299 H   0  0  0  0  0  0  0  0  0  0  0  0
  137.8472   70.6989  223.8090 H   0  0  0  0  0  0  0  0  0  0  0  0
  138.7767   72.1548  224.1645 H   0  0  0  0  0  0  0  0  0  0  0  0
  139.8106   70.2831  222.0307 H   0  0  0  0  0  0  0  0  0  0  0  0
  138.3369   71.3403  221.6854 H   0  0  0  0  0  0  0  0  0  0  0  0
  141.0590   72.0950  221.5220 H   0  0  0  0  0  0  0  0  0  0  0  0
  136.3140   75.4040  223.4880 H   0  0  0  0  0  0  0  0  0  0  0  0
  135.5118   76.9709  221.4805 H   0  0  0  0  0  0  0  0  0  0  0  0
  136.1986   75.7029  220.4323 H   0  0  0  0  0  0  0  0  0  0  0  0
  133.6588   75.7009  222.0251 H   0  0  0  0  0  0  0  0  0  0  0  0
  134.0701   74.7431  220.5880 H   0  0  0  0  0  0  0  0  0  0  0  0
  134.1467   73.0651  222.1497 H   0  0  0  0  0  0  0  0  0  0  0  0
  135.8553   73.7413  222.3329 H   0  0  0  0  0  0  0  0  0  0  0  0
  133.9203   72.1828  224.1882 H   0  0  0  0  0  0  0  0  0  0  0  0
  135.5150   72.5701  224.8770 H   0  0  0  0  0  0  0  0  0  0  0  0
  132.7569   73.5165  225.7848 H   0  0  0  0  0  0  0  0  0  0  0  0
  134.0354   72.6184  226.7234 H   0  0  0  0  0  0  0  0  0  0  0  0
  133.6021   76.4243  226.0094 H   0  0  0  0  0  0  0  0  0  0  0  0
  135.2819   76.0692  225.4731 H   0  0  0  0  0  0  0  0  0  0  0  0
  132.6975   74.8582  224.3233 H   0  0  0  0  0  0  0  0  0  0  0  0
  133.7543   76.0102  223.4975 H   0  0  0  0  0  0  0  0  0  0  0  0
  142.7786   77.6243  220.8754 H   0  0  0  0  0  0  0  0  0  0  0  0
  141.5531   76.7327  219.9844 H   0  0  0  0  0  0  0  0  0  0  0  0
  141.4004   79.2203  219.4934 H   0  0  0  0  0  0  0  0  0  0  0  0
  139.9187   78.6720  220.3318 H   0  0  0  0  0  0  0  0  0  0  0  0
  141.1368   81.4273  220.1658 H   0  0  0  0  0  0  0  0  0  0  0  0
  141.6152   83.1626  221.9394 H   0  0  0  0  0  0  0  0  0  0  0  0
  142.0032   82.3598  224.2491 H   0  0  0  0  0  0  0  0  0  0  0  0
  141.9386   79.9851  224.8444 H   0  0  0  0  0  0  0  0  0  0  0  0
  142.4416   77.5689  223.5574 H   0  0  0  0  0  0  0  0  0  0  0  0
  140.6917   77.7316  223.9744 H   0  0  0  0  0  0  0  0  0  0  0  0
  139.3483   69.0609  226.6744 H   0  0  0  0  0  0  0  0  0  0  0  0
  140.0260   69.7430  228.9526 H   0  0  0  0  0  0  0  0  0  0  0  0
  1  2  2  0
  2  3  1  0
  3  4  2  0
  4  5  1  0
  5  6  1  0
  6  7  1  0
  7  8  1  0
  8  9  1  0
  9 10  2  0
 10 11  1  0
 11 12  1  0
 12 13  1  0
 13 14  1  0
 14 15  1  0
 15 16  1  0
 16 17  1  0
 17 18  1  0
 18 19  1  0
 19 20  1  0
 20 21  1  0
 11 22  2  0
 22 23  1  0
 23 24  1  0
 24 25  1  0
 25 26  1  0
 26 27  1  0
 27 28  2  0
 28 29  1  0
 29 30  2  0
 30 31  1  0
 31 32  2  0
 32 33  1  0
 23 34  2  0
  4 35  1  0
 35 36  2  0
 36  1  1  0
 34  9  1  0
 21 16  1  0
 33 24  1  0
 32 27  1  0
  1 37  1  0
  2 38  1  0
  3 39  1  0
  5 40  1  0
  5 41  1  0
  6 42  1  0
  6 43  1  0
  7 44  1  0
  7 45  1  0
  8 46  1  0
 12 47  1  0
 13 48  1  0
 13 49  1  0
 14 50  1  0
 14 51  1  0
 15 52  1  0
 15 53  1  0
 17 54  1  0
 17 55  1  0
 18 56  1  0
 18 57  1  0
 20 58  1  0
 20 59  1  0
 21 60  1  0
 21 61  1  0
 25 62  1  0
 25 63  1  0
 26 64  1  0
 26 65  1  0
 28 66  1  0
 29 67  1  0
 30 68  1  0
 31 69  1  0
 33 70  1  0
 33 71  1  0
 35 72  1  0
 36 73  1  0
M  END
>  <smiles>  (18) 
c1ccc(CCCNc2nc(NCCCN3CCOCC3)nc(N3CCc4ccccc4C3)n2)cc1

>  <score_type>  (18) 
oracle

>  <origin>  (18) 
autodockgpu

>  <m_score__min__energy>  (18) 
-9.7400000000000002

>  <m_primary>  (18) 
energy

>  <rmsd>  (18) 
4.901688886045909

>  <m_score__min__rmsd>  (18) 
4.901688886045909

>  <meeko>  (18) 
{"free_energy": -8.79, "intermolecular_energy": -12.07, "internal_energy": -1.99, "cluster_size": 15, "cluster_id": 1, "rank_in_cluster": 13}

>  <energy>  (18) 
-9.26

>  <cluster_rmsd>  (18) 
1.94

>  <cluster>  (18) 
2

$$$$

     RDKit          3D

 73 77  0  0  0  0  0  0  0  0999 V2000
  141.1010   70.7770  228.0930 C   0  0  0  0  0  0  0  0  0  0  0  0
  141.3370   71.8400  227.2500 C   0  0  0  0  0  0  0  0  0  0  0  0
  140.6930   71.8830  226.0330 C   0  0  0  0  0  0  0  0  0  0  0  0
  139.8110   70.9250  225.5880 C   0  0  0  0  0  0  0  0  0  0  0  0
  139.1370   70.9420  224.2940 C   0  0  0  0  0  0  0  0  0  0  0  0
  139.8620   70.1890  223.1880 C   0  0  0  0  0  0  0  0  0  0  0  0
  139.8710   71.1410  222.0100 C   0  0  0  0  0  0  0  0  0  0  0  0
  140.3530   72.4510  222.2750 N   0  0  0  0  0  0  0  0  0  0  0  0
  139.6140   73.6500  222.1750 C   0  0  0  0  0  0  0  0  0  0  0  0
  138.2580   73.5420  222.2950 N   0  0  0  0  0  0  0  0  0  0  0  0
  137.4680   74.6320  222.2360 C   0  0  0  0  0  0  0  0  0  0  0  0
  136.0490   74.4740  222.3910 N   0  0  0  0  0  0  0  0  0  0  0  0
  135.1960   75.5140  222.9290 C   0  0  0  0  0  0  0  0  0  0  0  0
  135.4140   75.5540  224.4460 C   0  0  0  0  0  0  0  0  0  0  0  0
  135.0780   74.1780  224.9670 C   0  0  0  0  0  0  0  0  0  0  0  0
  134.0930   74.1230  225.9820 N   0  0  0  0  0  0  0  0  0  0  0  0
  133.7260   72.8470  226.4810 C   0  0  0  0  0  0  0  0  0  0  0  0
  132.3740   73.0020  227.1620 C   0  0  0  0  0  0  0  0  0  0  0  0
  132.3100   74.1010  227.9770 O   0  0  0  0  0  0  0  0  0  0  0  0
  132.6090   75.3090  227.3690 C   0  0  0  0  0  0  0  0  0  0  0  0
  133.0330   75.0690  225.9170 C   0  0  0  0  0  0  0  0  0  0  0  0
  137.9880   75.8680  222.0560 N   0  0  0  0  0  0  0  0  0  0  0  0
  139.3360   75.9740  221.9380 C   0  0  0  0  0  0  0  0  0  0  0  0
  139.8400   77.2880  221.7770 N   0  0  0  0  0  0  0  0  0  0  0  0
  138.8950   78.3860  221.6150 C   0  0  0  0  0  0  0  0  0  0  0  0
  139.0040   79.1720  222.9340 C   0  0  0  0  0  0  0  0  0  0  0  0
  140.4130   79.6300  223.0930 C   0  0  0  0  0  0  0  0  0  0  0  0
  140.6080   80.7980  223.8010 C   0  0  0  0  0  0  0  0  0  0  0  0
  141.8970   81.3060  223.9880 C   0  0  0  0  0  0  0  0  0  0  0  0
  142.9230   80.5780  223.4320 C   0  0  0  0  0  0  0  0  0  0  0  0
  142.7380   79.4090  222.7230 C   0  0  0  0  0  0  0  0  0  0  0  0
  141.4680   78.9130  222.5420 C   0  0  0  0  0  0  0  0  0  0  0  0
  141.2400   77.6430  221.7770 C   0  0  0  0  0  0  0  0  0  0  0  0
  140.1230   74.8750  221.9970 N   0  0  0  0  0  0  0  0  0  0  0  0
  139.5760   69.8570  226.4400 C   0  0  0  0  0  0  0  0  0  0  0  0
  140.2160   69.7920  227.6720 C   0  0  0  0  0  0  0  0  0  0  0  0
  141.5988   70.7096  229.0716 H   0  0  0  0  0  0  0  0  0  0  0  0
  142.0293   72.6427  227.5440 H   0  0  0  0  0  0  0  0  0  0  0  0
  140.8972   72.7394  225.3736 H   0  0  0  0  0  0  0  0  0  0  0  0
  138.1419   70.4904  224.4203 H   0  0  0  0  0  0  0  0  0  0  0  0
  139.0982   71.9950  223.9784 H   0  0  0  0  0  0  0  0  0  0  0  0
  140.8893   69.9441  223.4956 H   0  0  0  0  0  0  0  0  0  0  0  0
  139.3711   69.2349  222.9458 H   0  0  0  0  0  0  0  0  0  0  0  0
  140.5045   70.7009  221.2258 H   0  0  0  0  0  0  0  0  0  0  0  0
  138.8175   71.2645  221.7188 H   0  0  0  0  0  0  0  0  0  0  0  0
  141.3580   72.5600  222.5750 H   0  0  0  0  0  0  0  0  0  0  0  0
  135.6860   73.5260  222.0900 H   0  0  0  0  0  0  0  0  0  0  0  0
  135.4632   76.4847  222.4860 H   0  0  0  0  0  0  0  0  0  0  0  0
  134.1411   75.3074  222.6957 H   0  0  0  0  0  0  0  0  0  0  0  0
  136.4620   75.8000  224.6724 H   0  0  0  0  0  0  0  0  0  0  0  0
  134.7823   76.3214  224.9172 H   0  0  0  0  0  0  0  0  0  0  0  0
  134.7217   73.5747  224.1190 H   0  0  0  0  0  0  0  0  0  0  0  0
  136.0024   73.8019  225.4297 H   0  0  0  0  0  0  0  0  0  0  0  0
  133.6508   72.1261  225.6536 H   0  0  0  0  0  0  0  0  0  0  0  0
  134.4797   72.4733  227.1898 H   0  0  0  0  0  0  0  0  0  0  0  0
  131.5992   73.0945  226.3867 H   0  0  0  0  0  0  0  0  0  0  0  0
  132.2186   72.1142  227.7926 H   0  0  0  0  0  0  0  0  0  0  0  0
  131.7202   75.9568  227.3874 H   0  0  0  0  0  0  0  0  0  0  0  0
  133.4332   75.7944  227.9122 H   0  0  0  0  0  0  0  0  0  0  0  0
  132.1928   74.6654  225.3329 H   0  0  0  0  0  0  0  0  0  0  0  0
  133.3474   76.0009  225.4244 H   0  0  0  0  0  0  0  0  0  0  0  0
  139.1740   79.0184  220.7593 H   0  0  0  0  0  0  0  0  0  0  0  0
  137.8714   78.0363  221.4150 H   0  0  0  0  0  0  0  0  0  0  0  0
  138.3315   80.0420  222.9048 H   0  0  0  0  0  0  0  0  0  0  0  0
  138.7168   78.5313  223.7808 H   0  0  0  0  0  0  0  0  0  0  0  0
  139.7436   81.3331  224.2211 H   0  0  0  0  0  0  0  0  0  0  0  0
  142.0802   82.2350  224.5479 H   0  0  0  0  0  0  0  0  0  0  0  0
  143.9505   80.9493  223.5600 H   0  0  0  0  0  0  0  0  0  0  0  0
  143.6036   78.8752  222.3037 H   0  0  0  0  0  0  0  0  0  0  0  0
  141.5767   77.7819  220.7391 H   0  0  0  0  0  0  0  0  0  0  0  0
  141.8086   76.8342  222.2593 H   0  0  0  0  0  0  0  0  0  0  0  0
  138.8811   69.0588  226.1402 H   0  0  0  0  0  0  0  0  0  0  0  0
  140.0161   68.9358  228.3330 H   0  0  0  0  0  0  0  0  0  0  0  0
  1  2  2  0
  2  3  1  0
  3  4  2  0
  4  5  1  0
  5  6  1  0
  6  7  1  0
  7  8  1  0
  8  9  1  0
  9 10  2  0
 10 11  1  0
 11 12  1  0
 12 13  1  0
 13 14  1  0
 14 15  1  0
 15 16  1  0
 16 17  1  0
 17 18  1  0
 18 19  1  0
 19 20  1  0
 20 21  1  0
 11 22  2  0
 22 23  1  0
 23 24  1  0
 24 25  1  0
 25 26  1  0
 26 27  1  0
 27 28  2  0
 28 29  1  0
 29 30  2  0
 30 31  1  0
 31 32  2  0
 32 33  1  0
 23 34  2  0
  4 35  1  0
 35 36  2  0
 36  1  1  0
 34  9  1  0
 21 16  1  0
 33 24  1  0
 32 27  1  0
  1 37  1  0
  2 38  1  0
  3 39  1  0
  5 40  1  0
  5 41  1  0
  6 42  1  0
  6 43  1  0
  7 44  1  0
  7 45  1  0
  8 46  1  0
 12 47  1  0
 13 48  1  0
 13 49  1  0
 14 50  1  0
 14 51  1  0
 15 52  1  0
 15 53  1  0
 17 54  1  0
 17 55  1  0
 18 56  1  0
 18 57  1  0
 20 58  1  0
 20 59  1  0
 21 60  1  0
 21 61  1  0
 25 62  1  0
 25 63  1  0
 26 64  1  0
 26 65  1  0
 28 66  1  0
 29 67  1  0
 30 68  1  0
 31 69  1  0
 33 70  1  0
 33 71  1  0
 35 72  1  0
 36 73  1  0
M  END
>  <smiles>  (19) 
c1ccc(CCCNc2nc(NCCCN3CCOCC3)nc(N3CCc4ccccc4C3)n2)cc1

>  <score_type>  (19) 
oracle

>  <origin>  (19) 
autodockgpu

>  <m_score__min__energy>  (19) 
-9.7400000000000002

>  <m_primary>  (19) 
energy

>  <rmsd>  (19) 
5.719608431489937

>  <m_score__min__rmsd>  (19) 
5.719608431489937

>  <meeko>  (19) 
{"free_energy": -9.18, "intermolecular_energy": -12.46, "internal_energy": -1.36, "cluster_size": 15, "cluster_id": 1, "rank_in_cluster": 7}

>  <energy>  (19) 
-9.16

>  <cluster_rmsd>  (19) 
1.36

>  <cluster>  (19) 
2

$$$$

     RDKit          3D

 73 77  0  0  0  0  0  0  0  0999 V2000
  142.0870   81.0910  222.8310 C   0  0  0  0  0  0  0  0  0  0  0  0
  141.4480   80.6560  221.6920 C   0  0  0  0  0  0  0  0  0  0  0  0
  141.0180   79.3490  221.6250 C   0  0  0  0  0  0  0  0  0  0  0  0
  141.1810   78.4270  222.6330 C   0  0  0  0  0  0  0  0  0  0  0  0
  140.7530   77.0330  222.5710 C   0  0  0  0  0  0  0  0  0  0  0  0
  139.2470   76.8250  222.6490 C   0  0  0  0  0  0  0  0  0  0  0  0
  138.8640   76.2490  221.3020 C   0  0  0  0  0  0  0  0  0  0  0  0
  139.8090   75.3700  220.7110 N   0  0  0  0  0  0  0  0  0  0  0  0
  140.2880   74.1610  221.2650 C   0  0  0  0  0  0  0  0  0  0  0  0
  141.3700   73.5960  220.6510 N   0  0  0  0  0  0  0  0  0  0  0  0
  141.9130   72.4550  221.1190 C   0  0  0  0  0  0  0  0  0  0  0  0
  143.0640   71.9090  220.4580 N   0  0  0  0  0  0  0  0  0  0  0  0
  144.4210   72.2490  220.8320 C   0  0  0  0  0  0  0  0  0  0  0  0
  144.5570   73.7740  220.7480 C   0  0  0  0  0  0  0  0  0  0  0  0
  144.3890   74.1420  219.2940 C   0  0  0  0  0  0  0  0  0  0  0  0
  143.3880   75.1020  219.0090 N   0  0  0  0  0  0  0  0  0  0  0  0
  142.6750   74.9730  217.7900 C   0  0  0  0  0  0  0  0  0  0  0  0
  142.0420   76.3250  217.4930 C   0  0  0  0  0  0  0  0  0  0  0  0
  141.4360   76.8820  218.5870 O   0  0  0  0  0  0  0  0  0  0  0  0
  142.2450   77.0380  219.7000 C   0  0  0  0  0  0  0  0  0  0  0  0
  143.6280   76.4410  219.4240 C   0  0  0  0  0  0  0  0  0  0  0  0
  141.4080   71.8310  222.2080 N   0  0  0  0  0  0  0  0  0  0  0  0
  140.3330   72.3940  222.8170 C   0  0  0  0  0  0  0  0  0  0  0  0
  139.8530   71.7230  223.9670 N   0  0  0  0  0  0  0  0  0  0  0  0
  138.5370   71.0970  223.9140 C   0  0  0  0  0  0  0  0  0  0  0  0
  138.8400   69.5870  223.9200 C   0  0  0  0  0  0  0  0  0  0  0  0
  139.5930   69.2640  225.1650 C   0  0  0  0  0  0  0  0  0  0  0  0
  139.4310   67.9930  225.6740 C   0  0  0  0  0  0  0  0  0  0  0  0
  140.0920   67.6090  226.8450 C   0  0  0  0  0  0  0  0  0  0  0  0
  140.8910   68.5630  227.4320 C   0  0  0  0  0  0  0  0  0  0  0  0
  141.0600   69.8360  226.9290 C   0  0  0  0  0  0  0  0  0  0  0  0
  140.4090   70.2090  225.7770 C   0  0  0  0  0  0  0  0  0  0  0  0
  140.5770   71.5870  225.2090 C   0  0  0  0  0  0  0  0  0  0  0  0
  139.7930   73.5390  222.3410 N   0  0  0  0  0  0  0  0  0  0  0  0
  141.8250   78.8680  223.7780 C   0  0  0  0  0  0  0  0  0  0  0  0
  142.2680   80.1830  223.8670 C   0  0  0  0  0  0  0  0  0  0  0  0
  142.4441   82.1277  222.9185 H   0  0  0  0  0  0  0  0  0  0  0  0
  141.2832   81.3418  220.8479 H   0  0  0  0  0  0  0  0  0  0  0  0
  140.5112   79.0211  220.7054 H   0  0  0  0  0  0  0  0  0  0  0  0
  141.1088   76.6074  221.6211 H   0  0  0  0  0  0  0  0  0  0  0  0
  141.1809   76.5374  223.4549 H   0  0  0  0  0  0  0  0  0  0  0  0
  138.9945   76.1221  223.4566 H   0  0  0  0  0  0  0  0  0  0  0  0
  138.7102   77.7599  222.8678 H   0  0  0  0  0  0  0  0  0  0  0  0
  137.9219   75.6953  221.4280 H   0  0  0  0  0  0  0  0  0  0  0  0
  138.7919   77.1095  220.6205 H   0  0  0  0  0  0  0  0  0  0  0  0
  140.2050   75.6260  219.7680 H   0  0  0  0  0  0  0  0  0  0  0  0
  142.8320   71.2470  219.6650 H   0  0  0  0  0  0  0  0  0  0  0  0
  144.6230   71.9104  221.8589 H   0  0  0  0  0  0  0  0  0  0  0  0
  145.1411   71.7594  220.1599 H   0  0  0  0  0  0  0  0  0  0  0  0
  143.7779   74.2586  221.3547 H   0  0  0  0  0  0  0  0  0  0  0  0
  145.5327   74.1072  221.1315 H   0  0  0  0  0  0  0  0  0  0  0  0
  145.3493   74.5400  218.9343 H   0  0  0  0  0  0  0  0  0  0  0  0
  144.0674   73.2190  218.7894 H   0  0  0  0  0  0  0  0  0  0  0  0
  143.3631   74.6928  216.9788 H   0  0  0  0  0  0  0  0  0  0  0  0
  141.9057   74.1907  217.8687 H   0  0  0  0  0  0  0  0  0  0  0  0
  142.8270   77.0100  217.1400 H   0  0  0  0  0  0  0  0  0  0  0  0
  141.2648   76.1651  216.7311 H   0  0  0  0  0  0  0  0  0  0  0  0
  142.3486   78.1089  219.9289 H   0  0  0  0  0  0  0  0  0  0  0  0
  141.7894   76.5184  220.5558 H   0  0  0  0  0  0  0  0  0  0  0  0
  144.1382   77.0043  218.6288 H   0  0  0  0  0  0  0  0  0  0  0  0
  144.2753   76.4831  220.3124 H   0  0  0  0  0  0  0  0  0  0  0  0
  137.9351   71.3782  224.7907 H   0  0  0  0  0  0  0  0  0  0  0  0
  137.9563   71.4080  223.0331 H   0  0  0  0  0  0  0  0  0  0  0  0
  137.8983   69.0189  223.8973 H   0  0  0  0  0  0  0  0  0  0  0  0
  139.4369   69.3174  223.0362 H   0  0  0  0  0  0  0  0  0  0  0  0
  138.7774   67.2761  225.1555 H   0  0  0  0  0  0  0  0  0  0  0  0
  139.9796   66.6017  227.2724 H   0  0  0  0  0  0  0  0  0  0  0  0
  141.4256   68.2951  228.3553 H   0  0  0  0  0  0  0  0  0  0  0  0
  141.7144   70.5515  227.4485 H   0  0  0  0  0  0  0  0  0  0  0  0
  140.1951   72.3235  225.9313 H   0  0  0  0  0  0  0  0  0  0  0  0
  141.6458   71.7594  225.0141 H   0  0  0  0  0  0  0  0  0  0  0  0
  141.9861   78.1764  224.6181 H   0  0  0  0  0  0  0  0  0  0  0  0
  142.7766   80.5141  224.7844 H   0  0  0  0  0  0  0  0  0  0  0  0
  1  2  2  0
  2  3  1  0
  3  4  2  0
  4  5  1  0
  5  6  1  0
  6  7  1  0
  7  8  1  0
  8  9  1  0
  9 10  2  0
 10 11  1  0
 11 12  1  0
 12 13  1  0
 13 14  1  0
 14 15  1  0
 15 16  1  0
 16 17  1  0
 17 18  1  0
 18 19  1  0
 19 20  1  0
 20 21  1  0
 11 22  2  0
 22 23  1  0
 23 24  1  0
 24 25  1  0
 25 26  1  0
 26 27  1  0
 27 28  2  0
 28 29  1  0
 29 30  2  0
 30 31  1  0
 31 32  2  0
 32 33  1  0
 23 34  2  0
  4 35  1  0
 35 36  2  0
 36  1  1  0
 34  9  1  0
 21 16  1  0
 33 24  1  0
 32 27  1  0
  1 37  1  0
  2 38  1  0
  3 39  1  0
  5 40  1  0
  5 41  1  0
  6 42  1  0
  6 43  1  0
  7 44  1  0
  7 45  1  0
  8 46  1  0
 12 47  1  0
 13 48  1  0
 13 49  1  0
 14 50  1  0
 14 51  1  0
 15 52  1  0
 15 53  1  0
 17 54  1  0
 17 55  1  0
 18 56  1  0
 18 57  1  0
 20 58  1  0
 20 59  1  0
 21 60  1  0
 21 61  1  0
 25 62  1  0
 25 63  1  0
 26 64  1  0
 26 65  1  0
 28 66  1  0
 29 67  1  0
 30 68  1  0
 31 69  1  0
 33 70  1  0
 33 71  1  0
 35 72  1  0
 36 73  1  0
M  END
>  <smiles>  (20) 
c1ccc(CCCNc2nc(NCCCN3CCOCC3)nc(N3CCc4ccccc4C3)n2)cc1

>  <score_type>  (20) 
oracle

>  <origin>  (20) 
autodockgpu

>  <m_score__min__energy>  (20) 
-9.7400000000000002

>  <m_primary>  (20) 
energy

>  <rmsd>  (20) 
11.233896817308613

>  <m_score__min__rmsd>  (20) 
11.233896817308613

>  <meeko>  (20) 
{"free_energy": -8.45, "intermolecular_energy": -11.73, "internal_energy": -2.88, "cluster_size": 11, "cluster_id": 6, "rank_in_cluster": 5}

>  <energy>  (20) 
-9.39

>  <cluster_rmsd>  (20) 
0.0

>  <cluster>  (20) 
3

$$$$

     RDKit          3D

 73 77  0  0  0  0  0  0  0  0999 V2000
  142.4620   81.4910  223.9900 C   0  0  0  0  0  0  0  0  0  0  0  0
  142.5770   80.1230  224.0820 C   0  0  0  0  0  0  0  0  0  0  0  0
  141.9690   79.3350  223.1280 C   0  0  0  0  0  0  0  0  0  0  0  0
  141.2420   79.8240  222.0690 C   0  0  0  0  0  0  0  0  0  0  0  0
  140.5720   79.0060  221.0630 C   0  0  0  0  0  0  0  0  0  0  0  0
  139.5800   77.9960  221.6200 C   0  0  0  0  0  0  0  0  0  0  0  0
  140.4170   76.7900  221.9880 C   0  0  0  0  0  0  0  0  0  0  0  0
  140.1760   75.6130  221.2300 N   0  0  0  0  0  0  0  0  0  0  0  0
  140.5040   74.2920  221.6090 C   0  0  0  0  0  0  0  0  0  0  0  0
  141.5050   73.6860  220.9040 N   0  0  0  0  0  0  0  0  0  0  0  0
  141.9040   72.4340  221.2050 C   0  0  0  0  0  0  0  0  0  0  0  0
  142.9770   71.8460  220.4540 N   0  0  0  0  0  0  0  0  0  0  0  0
  144.3690   72.1720  220.6820 C   0  0  0  0  0  0  0  0  0  0  0  0
  144.5230   73.6880  220.5130 C   0  0  0  0  0  0  0  0  0  0  0  0
  144.1860   73.9990  219.0760 C   0  0  0  0  0  0  0  0  0  0  0  0
  143.0580   74.8300  218.8690 N   0  0  0  0  0  0  0  0  0  0  0  0
  141.9820   74.3080  218.1060 C   0  0  0  0  0  0  0  0  0  0  0  0
  141.1540   75.4920  217.6260 C   0  0  0  0  0  0  0  0  0  0  0  0
  140.9150   76.4110  218.6130 O   0  0  0  0  0  0  0  0  0  0  0  0
  142.0400   76.9180  219.2400 C   0  0  0  0  0  0  0  0  0  0  0  0
  143.2940   76.2220  218.6990 C   0  0  0  0  0  0  0  0  0  0  0  0
  141.3310   71.7370  222.2120 N   0  0  0  0  0  0  0  0  0  0  0  0
  140.3370   72.3410  222.9130 C   0  0  0  0  0  0  0  0  0  0  0  0
  139.7820   71.5850  223.9740 N   0  0  0  0  0  0  0  0  0  0  0  0
  138.5800   70.8010  223.7210 C   0  0  0  0  0  0  0  0  0  0  0  0
  139.0690   69.3410  223.7630 C   0  0  0  0  0  0  0  0  0  0  0  0
  139.6660   69.0830  225.1040 C   0  0  0  0  0  0  0  0  0  0  0  0
  139.5940   67.7900  225.5750 C   0  0  0  0  0  0  0  0  0  0  0  0
  140.1190   67.4620  226.8290 C   0  0  0  0  0  0  0  0  0  0  0  0
  140.6940   68.4930  227.5340 C   0  0  0  0  0  0  0  0  0  0  0  0
  140.7710   69.7900  227.0710 C   0  0  0  0  0  0  0  0  0  0  0  0
  140.2540   70.1080  225.8370 C   0  0  0  0  0  0  0  0  0  0  0  0
  140.3270   71.5100  225.3090 C   0  0  0  0  0  0  0  0  0  0  0  0
  139.9400   73.5970  222.6040 N   0  0  0  0  0  0  0  0  0  0  0  0
  141.1280   81.2030  221.9790 C   0  0  0  0  0  0  0  0  0  0  0  0
  141.7330   82.0170  222.9300 C   0  0  0  0  0  0  0  0  0  0  0  0
  142.9336   82.1496  224.7342 H   0  0  0  0  0  0  0  0  0  0  0  0
  143.1457   79.6648  224.9046 H   0  0  0  0  0  0  0  0  0  0  0  0
  142.0725   78.2438  223.2204 H   0  0  0  0  0  0  0  0  0  0  0  0
  140.0301   79.6778  220.3811 H   0  0  0  0  0  0  0  0  0  0  0  0
  141.3596   78.4233  220.5628 H   0  0  0  0  0  0  0  0  0  0  0  0
  139.0731   78.4009  222.5083 H   0  0  0  0  0  0  0  0  0  0  0  0
  138.7914   77.7469  220.8947 H   0  0  0  0  0  0  0  0  0  0  0  0
  141.4751   77.0624  221.8603 H   0  0  0  0  0  0  0  0  0  0  0  0
  140.1399   76.5397  223.0227 H   0  0  0  0  0  0  0  0  0  0  0  0
  139.7100   75.7130  220.2890 H   0  0  0  0  0  0  0  0  0  0  0  0
  142.6570   71.1620  219.7110 H   0  0  0  0  0  0  0  0  0  0  0  0
  144.6617   71.8763  221.7003 H   0  0  0  0  0  0  0  0  0  0  0  0
  145.0133   71.6361  219.9695 H   0  0  0  0  0  0  0  0  0  0  0  0
  143.8334   74.2169  221.1874 H   0  0  0  0  0  0  0  0  0  0  0  0
  145.5448   74.0124  220.7595 H   0  0  0  0  0  0  0  0  0  0  0  0
  145.0577   74.4965  218.6259 H   0  0  0  0  0  0  0  0  0  0  0  0
  143.9315   73.0331  218.6152 H   0  0  0  0  0  0  0  0  0  0  0  0
  142.3695   73.7450  217.2441 H   0  0  0  0  0  0  0  0  0  0  0  0
  141.3699   73.6236  218.7117 H   0  0  0  0  0  0  0  0  0  0  0  0
  141.6945   75.9892  216.8071 H   0  0  0  0  0  0  0  0  0  0  0  0
  140.1800   75.1013  217.2962 H   0  0  0  0  0  0  0  0  0  0  0  0
  142.1100   77.9986  219.0467 H   0  0  0  0  0  0  0  0  0  0  0  0
  141.9639   76.7393  220.3227 H   0  0  0  0  0  0  0  0  0  0  0  0
  143.4375   76.4606  217.6348 H   0  0  0  0  0  0  0  0  0  0  0  0
  144.2024   76.5496  219.2257 H   0  0  0  0  0  0  0  0  0  0  0  0
  137.8243   70.9824  224.4994 H   0  0  0  0  0  0  0  0  0  0  0  0
  138.1009   71.0588  222.7649 H   0  0  0  0  0  0  0  0  0  0  0  0
  138.2210   68.6603  223.5967 H   0  0  0  0  0  0  0  0  0  0  0  0
  139.8190   69.1709  222.9765 H   0  0  0  0  0  0  0  0  0  0  0  0
  139.1203   67.0104  224.9603 H   0  0  0  0  0  0  0  0  0  0  0  0
  140.0745   66.4380  227.2284 H   0  0  0  0  0  0  0  0  0  0  0  0
  141.1171   68.2705  228.5247 H   0  0  0  0  0  0  0  0  0  0  0  0
  141.2448   70.5682  227.6874 H   0  0  0  0  0  0  0  0  0  0  0  0
  139.7525   72.1748  225.9708 H   0  0  0  0  0  0  0  0  0  0  0  0
  141.3820   71.8197  225.2767 H   0  0  0  0  0  0  0  0  0  0  0  0
  140.5577   81.6539  221.1535 H   0  0  0  0  0  0  0  0  0  0  0  0
  141.6318   83.1087  222.8409 H   0  0  0  0  0  0  0  0  0  0  0  0
  1  2  2  0
  2  3  1  0
  3  4  2  0
  4  5  1  0
  5  6  1  0
  6  7  1  0
  7  8  1  0
  8  9  1  0
  9 10  2  0
 10 11  1  0
 11 12  1  0
 12 13  1  0
 13 14  1  0
 14 15  1  0
 15 16  1  0
 16 17  1  0
 17 18  1  0
 18 19  1  0
 19 20  1  0
 20 21  1  0
 11 22  2  0
 22 23  1  0
 23 24  1  0
 24 25  1  0
 25 26  1  0
 26 27  1  0
 27 28  2  0
 28 29  1  0
 29 30  2  0
 30 31  1  0
 31 32  2  0
 32 33  1  0
 23 34  2  0
  4 35  1  0
 35 36  2  0
 36  1  1  0
 34  9  1  0
 21 16  1  0
 33 24  1  0
 32 27  1  0
  1 37  1  0
  2 38  1  0
  3 39  1  0
  5 40  1  0
  5 41  1  0
  6 42  1  0
  6 43  1  0
  7 44  1  0
  7 45  1  0
  8 46  1  0
 12 47  1  0
 13 48  1  0
 13 49  1  0
 14 50  1  0
 14 51  1  0
 15 52  1  0
 15 53  1  0
 17 54  1  0
 17 55  1  0
 18 56  1  0
 18 57  1  0
 20 58  1  0
 20 59  1  0
 21 60  1  0
 21 61  1  0
 25 62  1  0
 25 63  1  0
 26 64  1  0
 26 65  1  0
 28 66  1  0
 29 67  1  0
 30 68  1  0
 31 69  1  0
 33 70  1  0
 33 71  1  0
 35 72  1  0
 36 73  1  0
M  END
>  <smiles>  (21) 
c1ccc(CCCNc2nc(NCCCN3CCOCC3)nc(N3CCc4ccccc4C3)n2)cc1

>  <score_type>  (21) 
oracle

>  <origin>  (21) 
autodockgpu

>  <m_score__min__energy>  (21) 
-9.7400000000000002

>  <m_primary>  (21) 
energy

>  <rmsd>  (21) 
11.33164242399357

>  <m_score__min__rmsd>  (21) 
11.33164242399357

>  <meeko>  (21) 
{"free_energy": -8.18, "intermolecular_energy": -11.46, "internal_energy": -2.3, "cluster_size": 11, "cluster_id": 6, "rank_in_cluster": 10}

>  <energy>  (21) 
-9.12

>  <cluster_rmsd>  (21) 
1.84

>  <cluster>  (21) 
3

$$$$

     RDKit          3D

 73 77  0  0  0  0  0  0  0  0999 V2000
  140.8770   71.1940  228.3110 C   0  0  0  0  0  0  0  0  0  0  0  0
  141.3480   72.0770  227.3650 C   0  0  0  0  0  0  0  0  0  0  0  0
  141.0380   71.8640  226.0400 C   0  0  0  0  0  0  0  0  0  0  0  0
  140.2770   70.8150  225.5800 C   0  0  0  0  0  0  0  0  0  0  0  0
  139.9580   70.5610  224.1790 C   0  0  0  0  0  0  0  0  0  0  0  0
  140.6820   71.4590  223.1870 C   0  0  0  0  0  0  0  0  0  0  0  0
  139.6080   71.9280  222.2290 C   0  0  0  0  0  0  0  0  0  0  0  0
  139.2080   73.2850  222.3610 N   0  0  0  0  0  0  0  0  0  0  0  0
  139.9540   74.4190  221.9690 C   0  0  0  0  0  0  0  0  0  0  0  0
  140.8480   74.2380  220.9530 N   0  0  0  0  0  0  0  0  0  0  0  0
  141.5920   75.2650  220.4940 C   0  0  0  0  0  0  0  0  0  0  0  0
  142.5020   75.0350  219.4080 N   0  0  0  0  0  0  0  0  0  0  0  0
  142.1330   75.2220  218.0200 C   0  0  0  0  0  0  0  0  0  0  0  0
  142.9030   76.4390  217.4950 C   0  0  0  0  0  0  0  0  0  0  0  0
  143.0610   77.3840  218.6610 C   0  0  0  0  0  0  0  0  0  0  0  0
  142.1950   78.5050  218.6720 N   0  0  0  0  0  0  0  0  0  0  0  0
  140.7980   78.2640  218.6510 C   0  0  0  0  0  0  0  0  0  0  0  0
  140.1260   79.5480  218.1880 C   0  0  0  0  0  0  0  0  0  0  0  0
  140.6210   80.6640  218.8100 O   0  0  0  0  0  0  0  0  0  0  0  0
  141.9880   80.8480  218.7000 C   0  0  0  0  0  0  0  0  0  0  0  0
  142.6150   79.6630  217.9600 C   0  0  0  0  0  0  0  0  0  0  0  0
  141.4780   76.5050  221.0210 N   0  0  0  0  0  0  0  0  0  0  0  0
  140.5870   76.6840  222.0300 C   0  0  0  0  0  0  0  0  0  0  0  0
  140.4820   78.0020  222.5350 N   0  0  0  0  0  0  0  0  0  0  0  0
  141.5170   78.4920  223.4360 C   0  0  0  0  0  0  0  0  0  0  0  0
  142.2780   79.5370  222.6000 C   0  0  0  0  0  0  0  0  0  0  0  0
  141.3170   80.5960  222.1820 C   0  0  0  0  0  0  0  0  0  0  0  0
  141.8330   81.8600  221.9920 C   0  0  0  0  0  0  0  0  0  0  0  0
  140.9980   82.9160  221.6110 C   0  0  0  0  0  0  0  0  0  0  0  0
  139.6680   82.6080  221.4430 C   0  0  0  0  0  0  0  0  0  0  0  0
  139.1440   81.3470  221.6300 C   0  0  0  0  0  0  0  0  0  0  0  0
  139.9670   80.3120  222.0050 C   0  0  0  0  0  0  0  0  0  0  0  0
  139.4220   78.9300  222.2120 C   0  0  0  0  0  0  0  0  0  0  0  0
  139.8460   75.6480  222.4870 N   0  0  0  0  0  0  0  0  0  0  0  0
  139.8050   69.9290  226.5350 C   0  0  0  0  0  0  0  0  0  0  0  0
  140.1050   70.1220  227.8780 C   0  0  0  0  0  0  0  0  0  0  0  0
  141.1050   71.3329  229.3781 H   0  0  0  0  0  0  0  0  0  0  0  0
  141.9625   72.9393  227.6630 H   0  0  0  0  0  0  0  0  0  0  0  0
  141.4249   72.5806  225.3006 H   0  0  0  0  0  0  0  0  0  0  0  0
  140.2217   69.5175  223.9517 H   0  0  0  0  0  0  0  0  0  0  0  0
  138.8849   70.7727  224.0624 H   0  0  0  0  0  0  0  0  0  0  0  0
  141.1405   72.3152  223.7034 H   0  0  0  0  0  0  0  0  0  0  0  0
  141.4965   70.9313  222.6692 H   0  0  0  0  0  0  0  0  0  0  0  0
  139.9841   71.7856  221.2052 H   0  0  0  0  0  0  0  0  0  0  0  0
  138.7157   71.3303  222.4666 H   0  0  0  0  0  0  0  0  0  0  0  0
  138.2670   73.4860  222.7910 H   0  0  0  0  0  0  0  0  0  0  0  0
  143.4610   74.7050  219.7130 H   0  0  0  0  0  0  0  0  0  0  0  0
  142.4012   74.3285  217.4371 H   0  0  0  0  0  0  0  0  0  0  0  0
  141.0486   75.3817  217.9270 H   0  0  0  0  0  0  0  0  0  0  0  0
  143.8900   76.1308  217.1196 H   0  0  0  0  0  0  0  0  0  0  0  0
  142.3664   76.9201  216.6639 H   0  0  0  0  0  0  0  0  0  0  0  0
  142.8839   76.8125  219.5841 H   0  0  0  0  0  0  0  0  0  0  0  0
  144.0778   77.7948  218.5748 H   0  0  0  0  0  0  0  0  0  0  0  0
  140.5674   77.4454  217.9534 H   0  0  0  0  0  0  0  0  0  0  0  0
  140.4373   77.9727  219.6485 H   0  0  0  0  0  0  0  0  0  0  0  0
  140.2798   79.6533  217.1039 H   0  0  0  0  0  0  0  0  0  0  0  0
  139.0591   79.4730  218.4452 H   0  0  0  0  0  0  0  0  0  0  0  0
  142.1877   81.7741  218.1410 H   0  0  0  0  0  0  0  0  0  0  0  0
  142.4261   80.9196  219.7064 H   0  0  0  0  0  0  0  0  0  0  0  0
  142.2572   79.6260  216.9205 H   0  0  0  0  0  0  0  0  0  0  0  0
  143.7114   79.7415  217.9189 H   0  0  0  0  0  0  0  0  0  0  0  0
  141.0707   78.9554  224.3283 H   0  0  0  0  0  0  0  0  0  0  0  0
  142.1713   77.6882  223.8046 H   0  0  0  0  0  0  0  0  0  0  0  0
  143.0818   79.9825  223.2046 H   0  0  0  0  0  0  0  0  0  0  0  0
  142.7236   79.0604  221.7144 H   0  0  0  0  0  0  0  0  0  0  0  0
  142.9080   82.0396  222.1409 H   0  0  0  0  0  0  0  0  0  0  0  0
  141.3832   83.9344  221.4547 H   0  0  0  0  0  0  0  0  0  0  0  0
  138.9832   83.4145  221.1421 H   0  0  0  0  0  0  0  0  0  0  0  0
  138.0690   81.1692  221.4794 H   0  0  0  0  0  0  0  0  0  0  0  0
  138.6956   78.9490  223.0378 H   0  0  0  0  0  0  0  0  0  0  0  0
  138.9366   78.6000  221.2817 H   0  0  0  0  0  0  0  0  0  0  0  0
  139.1905   69.0696  226.2289 H   0  0  0  0  0  0  0  0  0  0  0  0
  139.7207   69.4062  228.6196 H   0  0  0  0  0  0  0  0  0  0  0  0
  1  2  2  0
  2  3  1  0
  3  4  2  0
  4  5  1  0
  5  6  1  0
  6  7  1  0
  7  8  1  0
  8  9  1  0
  9 10  2  0
 10 11  1  0
 11 12  1  0
 12 13  1  0
 13 14  1  0
 14 15  1  0
 15 16  1  0
 16 17  1  0
 17 18  1  0
 18 19  1  0
 19 20  1  0
 20 21  1  0
 11 22  2  0
 22 23  1  0
 23 24  1  0
 24 25  1  0
 25 26  1  0
 26 27  1  0
 27 28  2  0
 28 29  1  0
 29 30  2  0
 30 31  1  0
 31 32  2  0
 32 33  1  0
 23 34  2  0
  4 35  1  0
 35 36  2  0
 36  1  1  0
 34  9  1  0
 21 16  1  0
 33 24  1  0
 32 27  1  0
  1 37  1  0
  2 38  1  0
  3 39  1  0
  5 40  1  0
  5 41  1  0
  6 42  1  0
  6 43  1  0
  7 44  1  0
  7 45  1  0
  8 46  1  0
 12 47  1  0
 13 48  1  0
 13 49  1  0
 14 50  1  0
 14 51  1  0
 15 52  1  0
 15 53  1  0
 17 54  1  0
 17 55  1  0
 18 56  1  0
 18 57  1  0
 20 58  1  0
 20 59  1  0
 21 60  1  0
 21 61  1  0
 25 62  1  0
 25 63  1  0
 26 64  1  0
 26 65  1  0
 28 66  1  0
 29 67  1  0
 30 68  1  0
 31 69  1  0
 33 70  1  0
 33 71  1  0
 35 72  1  0
 36 73  1  0
M  END
>  <smiles>  (22) 
c1ccc(CCCNc2nc(NCCCN3CCOCC3)nc(N3CCc4ccccc4C3)n2)cc1

>  <score_type>  (22) 
oracle

>  <origin>  (22) 
autodockgpu

>  <m_score__min__energy>  (22) 
-9.7400000000000002

>  <m_primary>  (22) 
energy

>  <rmsd>  (22) 
5.242759876730054

>  <m_score__min__rmsd>  (22) 
5.242759876730054

>  <meeko>  (22) 
{"free_energy": -8.11, "intermolecular_energy": -11.39, "internal_energy": -2.36, "cluster_size": 3, "cluster_id": 8, "rank_in_cluster": 2}

>  <energy>  (22) 
-8.93

>  <cluster_rmsd>  (22) 
1.98

>  <cluster>  (22) 
3

$$$$

     RDKit          3D

 73 77  0  0  0  0  0  0  0  0999 V2000
  141.0710   71.8680  228.1810 C   0  0  0  0  0  0  0  0  0  0  0  0
  141.4490   72.1940  226.8980 C   0  0  0  0  0  0  0  0  0  0  0  0
  141.0180   71.4050  225.8540 C   0  0  0  0  0  0  0  0  0  0  0  0
  140.2220   70.2930  226.0000 C   0  0  0  0  0  0  0  0  0  0  0  0
  139.7750   69.4320  224.9090 C   0  0  0  0  0  0  0  0  0  0  0  0
  139.8950   70.0470  223.5220 C   0  0  0  0  0  0  0  0  0  0  0  0
  138.6500   70.8940  223.3620 C   0  0  0  0  0  0  0  0  0  0  0  0
  138.8570   72.2180  222.8890 N   0  0  0  0  0  0  0  0  0  0  0  0
  139.8820   72.6420  222.0140 C   0  0  0  0  0  0  0  0  0  0  0  0
  140.1620   73.9790  222.0060 N   0  0  0  0  0  0  0  0  0  0  0  0
  141.1370   74.4770  221.2200 C   0  0  0  0  0  0  0  0  0  0  0  0
  141.4140   75.8850  221.2620 N   0  0  0  0  0  0  0  0  0  0  0  0
  140.7400   76.8450  220.4120 C   0  0  0  0  0  0  0  0  0  0  0  0
  140.0410   77.8610  221.3230 C   0  0  0  0  0  0  0  0  0  0  0  0
  140.7580   77.8150  222.6500 C   0  0  0  0  0  0  0  0  0  0  0  0
  141.3490   79.0280  223.0780 N   0  0  0  0  0  0  0  0  0  0  0  0
  140.4890   80.0610  223.5310 C   0  0  0  0  0  0  0  0  0  0  0  0
  141.2750   81.3630  223.4650 C   0  0  0  0  0  0  0  0  0  0  0  0
  142.5400   81.2490  223.9780 O   0  0  0  0  0  0  0  0  0  0  0  0
  143.3250   80.2610  223.4090 C   0  0  0  0  0  0  0  0  0  0  0  0
  142.5060   79.4740  222.3810 C   0  0  0  0  0  0  0  0  0  0  0  0
  141.8700   73.6750  220.4150 N   0  0  0  0  0  0  0  0  0  0  0  0
  141.5910   72.3460  220.4250 C   0  0  0  0  0  0  0  0  0  0  0  0
  142.3990   71.5390  219.5870 N   0  0  0  0  0  0  0  0  0  0  0  0
  143.4120   72.1840  218.7600 C   0  0  0  0  0  0  0  0  0  0  0  0
  144.7450   71.7640  219.4050 C   0  0  0  0  0  0  0  0  0  0  0  0
  144.8310   70.2770  219.3840 C   0  0  0  0  0  0  0  0  0  0  0  0
  146.0950   69.7300  219.3180 C   0  0  0  0  0  0  0  0  0  0  0  0
  146.2660   68.3420  219.2820 C   0  0  0  0  0  0  0  0  0  0  0  0
  145.1160   67.5880  219.3170 C   0  0  0  0  0  0  0  0  0  0  0  0
  143.8480   68.1260  219.3830 C   0  0  0  0  0  0  0  0  0  0  0  0
  143.6840   69.4910  219.4190 C   0  0  0  0  0  0  0  0  0  0  0  0
  142.3160   70.1010  219.4940 C   0  0  0  0  0  0  0  0  0  0  0  0
  140.6100   71.8530  221.2150 N   0  0  0  0  0  0  0  0  0  0  0  0
  139.8430   69.9680  227.2930 C   0  0  0  0  0  0  0  0  0  0  0  0
  140.2670   70.7490  228.3620 C   0  0  0  0  0  0  0  0  0  0  0  0
  141.3960   72.4758  229.0383 H   0  0  0  0  0  0  0  0  0  0  0  0
  142.0855   73.0711  226.7092 H   0  0  0  0  0  0  0  0  0  0  0  0
  141.3312   71.6827  224.8368 H   0  0  0  0  0  0  0  0  0  0  0  0
  140.3784   68.5125  224.9292 H   0  0  0  0  0  0  0  0  0  0  0  0
  138.7030   69.2507  225.0762 H   0  0  0  0  0  0  0  0  0  0  0  0
  140.7987   70.6703  223.4519 H   0  0  0  0  0  0  0  0  0  0  0  0
  139.9792   69.2822  222.7359 H   0  0  0  0  0  0  0  0  0  0  0  0
  137.9834   70.3827  222.6519 H   0  0  0  0  0  0  0  0  0  0  0  0
  138.2307   71.0012  224.3733 H   0  0  0  0  0  0  0  0  0  0  0  0
  138.1940   72.9710  223.2120 H   0  0  0  0  0  0  0  0  0  0  0  0
  142.1630   76.1560  221.9600 H   0  0  0  0  0  0  0  0  0  0  0  0
  141.4724   77.3576  219.7711 H   0  0  0  0  0  0  0  0  0  0  0  0
  140.0085   76.3402  219.7638 H   0  0  0  0  0  0  0  0  0  0  0  0
  140.1094   78.8696  220.8894 H   0  0  0  0  0  0  0  0  0  0  0  0
  138.9740   77.6206  221.4401 H   0  0  0  0  0  0  0  0  0  0  0  0
  140.0304   77.5067  223.4152 H   0  0  0  0  0  0  0  0  0  0  0  0
  141.5919   77.1110  222.5124 H   0  0  0  0  0  0  0  0  0  0  0  0
  139.6016   80.1233  222.8840 H   0  0  0  0  0  0  0  0  0  0  0  0
  140.1479   79.8626  224.5578 H   0  0  0  0  0  0  0  0  0  0  0  0
  141.3498   81.6748  222.4128 H   0  0  0  0  0  0  0  0  0  0  0  0
  140.7373   82.1042  224.0745 H   0  0  0  0  0  0  0  0  0  0  0  0
  144.1894   80.7236  222.9101 H   0  0  0  0  0  0  0  0  0  0  0  0
  143.6736   79.5763  224.1962 H   0  0  0  0  0  0  0  0  0  0  0  0
  142.2215   80.1218  221.5387 H   0  0  0  0  0  0  0  0  0  0  0  0
  143.0780   78.6340  221.9601 H   0  0  0  0  0  0  0  0  0  0  0  0
  143.3519   71.8288  217.7206 H   0  0  0  0  0  0  0  0  0  0  0  0
  143.2893   73.2763  218.7165 H   0  0  0  0  0  0  0  0  0  0  0  0
  145.5837   72.1925  218.8367 H   0  0  0  0  0  0  0  0  0  0  0  0
  144.7950   72.1304  220.4410 H   0  0  0  0  0  0  0  0  0  0  0  0
  146.9750   70.3896  219.2935 H   0  0  0  0  0  0  0  0  0  0  0  0
  147.2629   67.8801  219.2288 H   0  0  0  0  0  0  0  0  0  0  0  0
  145.2135   66.4926  219.2908 H   0  0  0  0  0  0  0  0  0  0  0  0
  142.9694   67.4646  219.4068 H   0  0  0  0  0  0  0  0  0  0  0  0
  141.7507   69.8304  218.5900 H   0  0  0  0  0  0  0  0  0  0  0  0
  141.8089   69.7188  220.3923 H   0  0  0  0  0  0  0  0  0  0  0  0
  139.2053   69.0901  227.4737 H   0  0  0  0  0  0  0  0  0  0  0  0
  139.9571   70.4733  229.3808 H   0  0  0  0  0  0  0  0  0  0  0  0
  1  2  2  0
  2  3  1  0
  3  4  2  0
  4  5  1  0
  5  6  1  0
  6  7  1  0
  7  8  1  0
  8  9  1  0
  9 10  2  0
 10 11  1  0
 11 12  1  0
 12 13  1  0
 13 14  1  0
 14 15  1  0
 15 16  1  0
 16 17  1  0
 17 18  1  0
 18 19  1  0
 19 20  1  0
 20 21  1  0
 11 22  2  0
 22 23  1  0
 23 24  1  0
 24 25  1  0
 25 26  1  0
 26 27  1  0
 27 28  2  0
 28 29  1  0
 29 30  2  0
 30 31  1  0
 31 32  2  0
 32 33  1  0
 23 34  2  0
  4 35  1  0
 35 36  2  0
 36  1  1  0
 34  9  1  0
 21 16  1  0
 33 24  1  0
 32 27  1  0
  1 37  1  0
  2 38  1  0
  3 39  1  0
  5 40  1  0
  5 41  1  0
  6 42  1  0
  6 43  1  0
  7 44  1  0
  7 45  1  0
  8 46  1  0
 12 47  1  0
 13 48  1  0
 13 49  1  0
 14 50  1  0
 14 51  1  0
 15 52  1  0
 15 53  1  0
 17 54  1  0
 17 55  1  0
 18 56  1  0
 18 57  1  0
 20 58  1  0
 20 59  1  0
 21 60  1  0
 21 61  1  0
 25 62  1  0
 25 63  1  0
 26 64  1  0
 26 65  1  0
 28 66  1  0
 29 67  1  0
 30 68  1  0
 31 69  1  0
 33 70  1  0
 33 71  1  0
 35 72  1  0
 36 73  1  0
M  END
>  <smiles>  (23) 
c1ccc(CCCNc2nc(NCCCN3CCOCC3)nc(N3CCc4ccccc4C3)n2)cc1

>  <score_type>  (23) 
oracle

>  <origin>  (23) 
autodockgpu

>  <m_score__min__energy>  (23) 
-9.7400000000000002

>  <m_primary>  (23) 
energy

>  <rmsd>  (23) 
10.652754129539241

>  <m_score__min__rmsd>  (23) 
10.652754129539241

>  <meeko>  (23) 
{"free_energy": -9.72, "intermolecular_energy": -13.0, "internal_energy": -1.25, "cluster_size": 4, "cluster_id": 2, "rank_in_cluster": 1}

>  <energy>  (23) 
-8.91

>  <cluster_rmsd>  (23) 
1.62

>  <cluster>  (23) 
3

$$$$

     RDKit          3D

 73 77  0  0  0  0  0  0  0  0999 V2000
  141.9280   80.8730  223.8400 C   0  0  0  0  0  0  0  0  0  0  0  0
  142.0480   81.2790  222.5300 C   0  0  0  0  0  0  0  0  0  0  0  0
  142.0230   80.3290  221.5310 C   0  0  0  0  0  0  0  0  0  0  0  0
  141.8830   78.9790  221.7490 C   0  0  0  0  0  0  0  0  0  0  0  0
  141.8770   77.9570  220.7070 C   0  0  0  0  0  0  0  0  0  0  0  0
  140.4940   77.4700  220.3000 C   0  0  0  0  0  0  0  0  0  0  0  0
  140.1710   76.3550  221.2710 C   0  0  0  0  0  0  0  0  0  0  0  0
  141.1600   75.3430  221.4050 N   0  0  0  0  0  0  0  0  0  0  0  0
  140.9230   73.9630  221.5900 C   0  0  0  0  0  0  0  0  0  0  0  0
  141.2280   73.1460  220.5390 N   0  0  0  0  0  0  0  0  0  0  0  0
  141.0580   71.8120  220.6260 C   0  0  0  0  0  0  0  0  0  0  0  0
  141.4130   70.9900  219.5040 N   0  0  0  0  0  0  0  0  0  0  0  0
  142.3400   69.8820  219.6040 C   0  0  0  0  0  0  0  0  0  0  0  0
  143.7350   70.4650  219.8550 C   0  0  0  0  0  0  0  0  0  0  0  0
  144.0090   71.4280  218.7260 C   0  0  0  0  0  0  0  0  0  0  0  0
  143.8860   72.8030  219.0410 N   0  0  0  0  0  0  0  0  0  0  0  0
  143.1150   73.6160  218.1710 C   0  0  0  0  0  0  0  0  0  0  0  0
  143.5220   75.0610  218.4250 C   0  0  0  0  0  0  0  0  0  0  0  0
  143.6030   75.3660  219.7570 O   0  0  0  0  0  0  0  0  0  0  0  0
  144.4480   74.5600  220.5020 C   0  0  0  0  0  0  0  0  0  0  0  0
  145.0170   73.4460  219.6170 C   0  0  0  0  0  0  0  0  0  0  0  0
  140.5830   71.2370  221.7540 N   0  0  0  0  0  0  0  0  0  0  0  0
  140.2820   72.0490  222.7990 C   0  0  0  0  0  0  0  0  0  0  0  0
  139.8130   71.4030  223.9690 N   0  0  0  0  0  0  0  0  0  0  0  0
  138.6870   70.4830  223.8570 C   0  0  0  0  0  0  0  0  0  0  0  0
  139.3130   69.0960  224.0900 C   0  0  0  0  0  0  0  0  0  0  0  0
  139.9450   69.0860  225.4390 C   0  0  0  0  0  0  0  0  0  0  0  0
  140.0010   67.8710  226.0880 C   0  0  0  0  0  0  0  0  0  0  0  0
  140.5680   67.7740  227.3630 C   0  0  0  0  0  0  0  0  0  0  0  0
  141.0500   68.9430  227.9030 C   0  0  0  0  0  0  0  0  0  0  0  0
  140.9990   70.1630  227.2620 C   0  0  0  0  0  0  0  0  0  0  0  0
  140.4420   70.2540  226.0080 C   0  0  0  0  0  0  0  0  0  0  0  0
  140.3760   71.5680  225.2880 C   0  0  0  0  0  0  0  0  0  0  0  0
  140.4540   73.3880  222.7040 N   0  0  0  0  0  0  0  0  0  0  0  0
  141.7620   78.5740  223.0690 C   0  0  0  0  0  0  0  0  0  0  0  0
  141.7860   79.5140  224.0930 C   0  0  0  0  0  0  0  0  0  0  0  0
  141.9440   81.6032  224.6625 H   0  0  0  0  0  0  0  0  0  0  0  0
  142.1621   82.3451  222.2840 H   0  0  0  0  0  0  0  0  0  0  0  0
  142.1216   80.6741  220.4912 H   0  0  0  0  0  0  0  0  0  0  0  0
  142.3692   78.3737  219.8159 H   0  0  0  0  0  0  0  0  0  0  0  0
  142.4022   77.0853  221.1246 H   0  0  0  0  0  0  0  0  0  0  0  0
  139.7573   78.2824  220.3850 H   0  0  0  0  0  0  0  0  0  0  0  0
  140.4667   77.1289  219.2546 H   0  0  0  0  0  0  0  0  0  0  0  0
  140.0137   76.8060  222.2619 H   0  0  0  0  0  0  0  0  0  0  0  0
  139.2831   75.8513  220.8614 H   0  0  0  0  0  0  0  0  0  0  0  0
  142.1730   75.6300  221.3670 H   0  0  0  0  0  0  0  0  0  0  0  0
  140.9480   71.2750  218.5970 H   0  0  0  0  0  0  0  0  0  0  0  0
  142.0519   69.2263  220.4389 H   0  0  0  0  0  0  0  0  0  0  0  0
  142.3312   69.2867  218.6790 H   0  0  0  0  0  0  0  0  0  0  0  0
  143.7574   70.9941  220.8191 H   0  0  0  0  0  0  0  0  0  0  0  0
  144.4958   69.6714  219.8931 H   0  0  0  0  0  0  0  0  0  0  0  0
  145.0372   71.2532  218.3763 H   0  0  0  0  0  0  0  0  0  0  0  0
  143.2366   71.2263  217.9693 H   0  0  0  0  0  0  0  0  0  0  0  0
  143.3182   73.3458  217.1242 H   0  0  0  0  0  0  0  0  0  0  0  0
  142.0399   73.4752  218.3562 H   0  0  0  0  0  0  0  0  0  0  0  0
  144.5060   75.2344  217.9649 H   0  0  0  0  0  0  0  0  0  0  0  0
  142.7453   75.7044  217.9860 H   0  0  0  0  0  0  0  0  0  0  0  0
  145.2739   75.1672  220.9009 H   0  0  0  0  0  0  0  0  0  0  0  0
  143.8830   74.1112  221.3323 H   0  0  0  0  0  0  0  0  0  0  0  0
  145.6598   73.8697  218.8314 H   0  0  0  0  0  0  0  0  0  0  0  0
  145.6364   72.7431  220.1935 H   0  0  0  0  0  0  0  0  0  0  0  0
  137.9262   70.7017  224.6208 H   0  0  0  0  0  0  0  0  0  0  0  0
  138.1746   70.5580  222.8865 H   0  0  0  0  0  0  0  0  0  0  0  0
  138.5322   68.3228  224.0398 H   0  0  0  0  0  0  0  0  0  0  0  0
  140.0678   68.8874  223.3175 H   0  0  0  0  0  0  0  0  0  0  0  0
  139.5971   66.9718  225.5999 H   0  0  0  0  0  0  0  0  0  0  0  0
  140.6250   66.8172  227.9028 H   0  0  0  0  0  0  0  0  0  0  0  0
  141.5027   68.9028  228.9047 H   0  0  0  0  0  0  0  0  0  0  0  0
  141.4028   71.0610  227.7525 H   0  0  0  0  0  0  0  0  0  0  0  0
  139.7476   72.2634  225.8638 H   0  0  0  0  0  0  0  0  0  0  0  0
  141.3964   71.9665  225.1881 H   0  0  0  0  0  0  0  0  0  0  0  0
  141.6467   77.5062  223.3070 H   0  0  0  0  0  0  0  0  0  0  0  0
  141.6898   79.1720  225.1340 H   0  0  0  0  0  0  0  0  0  0  0  0
  1  2  2  0
  2  3  1  0
  3  4  2  0
  4  5  1  0
  5  6  1  0
  6  7  1  0
  7  8  1  0
  8  9  1  0
  9 10  2  0
 10 11  1  0
 11 12  1  0
 12 13  1  0
 13 14  1  0
 14 15  1  0
 15 16  1  0
 16 17  1  0
 17 18  1  0
 18 19  1  0
 19 20  1  0
 20 21  1  0
 11 22  2  0
 22 23  1  0
 23 24  1  0
 24 25  1  0
 25 26  1  0
 26 27  1  0
 27 28  2  0
 28 29  1  0
 29 30  2  0
 30 31  1  0
 31 32  2  0
 32 33  1  0
 23 34  2  0
  4 35  1  0
 35 36  2  0
 36  1  1  0
 34  9  1  0
 21 16  1  0
 33 24  1  0
 32 27  1  0
  1 37  1  0
  2 38  1  0
  3 39  1  0
  5 40  1  0
  5 41  1  0
  6 42  1  0
  6 43  1  0
  7 44  1  0
  7 45  1  0
  8 46  1  0
 12 47  1  0
 13 48  1  0
 13 49  1  0
 14 50  1  0
 14 51  1  0
 15 52  1  0
 15 53  1  0
 17 54  1  0
 17 55  1  0
 18 56  1  0
 18 57  1  0
 20 58  1  0
 20 59  1  0
 21 60  1  0
 21 61  1  0
 25 62  1  0
 25 63  1  0
 26 64  1  0
 26 65  1  0
 28 66  1  0
 29 67  1  0
 30 68  1  0
 31 69  1  0
 33 70  1  0
 33 71  1  0
 35 72  1  0
 36 73  1  0
M  END
>  <smiles>  (24) 
c1ccc(CCCNc2nc(NCCCN3CCOCC3)nc(N3CCc4ccccc4C3)n2)cc1

>  <score_type>  (24) 
oracle

>  <origin>  (24) 
autodockgpu

>  <m_score__min__energy>  (24) 
-9.7400000000000002

>  <m_primary>  (24) 
energy

>  <rmsd>  (24) 
11.382759790443822

>  <m_score__min__rmsd>  (24) 
11.382759790443822

>  <meeko>  (24) 
{"free_energy": -8.52, "intermolecular_energy": -11.81, "internal_energy": -2.64, "cluster_size": 11, "cluster_id": 6, "rank_in_cluster": 3}

>  <energy>  (24) 
-8.79

>  <cluster_rmsd>  (24) 
1.51

>  <cluster>  (24) 
3

$$$$

     RDKit          3D

 73 77  0  0  0  0  0  0  0  0999 V2000
  140.8440   70.1390  228.3110 C   0  0  0  0  0  0  0  0  0  0  0  0
  140.4890   69.2470  227.3240 C   0  0  0  0  0  0  0  0  0  0  0  0
  140.3680   69.6990  226.0280 C   0  0  0  0  0  0  0  0  0  0  0  0
  140.5810   71.0000  225.6370 C   0  0  0  0  0  0  0  0  0  0  0  0
  140.4370   71.5010  224.2750 C   0  0  0  0  0  0  0  0  0  0  0  0
  139.3420   70.8270  223.4600 C   0  0  0  0  0  0  0  0  0  0  0  0
  139.2270   71.6560  222.1990 C   0  0  0  0  0  0  0  0  0  0  0  0
  138.8690   73.0190  222.3830 N   0  0  0  0  0  0  0  0  0  0  0  0
  139.6150   74.1430  221.9650 C   0  0  0  0  0  0  0  0  0  0  0  0
  140.3930   73.9800  220.8550 N   0  0  0  0  0  0  0  0  0  0  0  0
  141.1250   75.0010  220.3660 C   0  0  0  0  0  0  0  0  0  0  0  0
  141.9090   74.7920  219.1820 N   0  0  0  0  0  0  0  0  0  0  0  0
  143.3210   75.1050  219.1080 C   0  0  0  0  0  0  0  0  0  0  0  0
  143.4790   76.6030  219.3920 C   0  0  0  0  0  0  0  0  0  0  0  0
  142.8810   77.3310  218.2140 C   0  0  0  0  0  0  0  0  0  0  0  0
  142.3390   78.6100  218.4850 N   0  0  0  0  0  0  0  0  0  0  0  0
  141.1320   78.6750  219.2280 C   0  0  0  0  0  0  0  0  0  0  0  0
  140.5190   80.0450  218.9740 C   0  0  0  0  0  0  0  0  0  0  0  0
  141.4330   81.0620  219.0580 O   0  0  0  0  0  0  0  0  0  0  0  0
  142.5350   80.9410  218.2300 C   0  0  0  0  0  0  0  0  0  0  0  0
  142.4780   79.6070  217.4800 C   0  0  0  0  0  0  0  0  0  0  0  0
  141.1140   76.2180  220.9550 N   0  0  0  0  0  0  0  0  0  0  0  0
  140.3390   76.3800  222.0580 C   0  0  0  0  0  0  0  0  0  0  0  0
  140.3370   77.6760  222.6270 N   0  0  0  0  0  0  0  0  0  0  0  0
  141.4660   78.0780  223.4580 C   0  0  0  0  0  0  0  0  0  0  0  0
  142.2020   79.1280  222.6060 C   0  0  0  0  0  0  0  0  0  0  0  0
  141.2590   80.2460  222.3190 C   0  0  0  0  0  0  0  0  0  0  0  0
  141.8160   81.4950  222.1420 C   0  0  0  0  0  0  0  0  0  0  0  0
  141.0020   82.6020  221.8800 C   0  0  0  0  0  0  0  0  0  0  0  0
  139.6500   82.3590  221.8130 C   0  0  0  0  0  0  0  0  0  0  0  0
  139.0850   81.1140  221.9890 C   0  0  0  0  0  0  0  0  0  0  0  0
  139.8880   80.0280  222.2450 C   0  0  0  0  0  0  0  0  0  0  0  0
  139.2980   78.6620  222.4380 C   0  0  0  0  0  0  0  0  0  0  0  0
  139.6080   75.3500  222.5440 N   0  0  0  0  0  0  0  0  0  0  0  0
  140.9390   71.8940  226.6340 C   0  0  0  0  0  0  0  0  0  0  0  0
  141.0660   71.4620  227.9490 C   0  0  0  0  0  0  0  0  0  0  0  0
  140.9489   69.8135  229.3565 H   0  0  0  0  0  0  0  0  0  0  0  0
  140.3049   68.1900  227.5664 H   0  0  0  0  0  0  0  0  0  0  0  0
  140.0820   68.9707  225.2548 H   0  0  0  0  0  0  0  0  0  0  0  0
  140.2117   72.5764  224.3278 H   0  0  0  0  0  0  0  0  0  0  0  0
  141.3849   71.2813  223.7621 H   0  0  0  0  0  0  0  0  0  0  0  0
  139.6221   69.7912  223.2177 H   0  0  0  0  0  0  0  0  0  0  0  0
  138.3903   70.7752  224.0091 H   0  0  0  0  0  0  0  0  0  0  0  0
  140.2008   71.6293  221.6881 H   0  0  0  0  0  0  0  0  0  0  0  0
  138.4050   71.2075  221.6217 H   0  0  0  0  0  0  0  0  0  0  0  0
  137.9630   73.2320  222.8770 H   0  0  0  0  0  0  0  0  0  0  0  0
  141.3600   74.4010  218.3660 H   0  0  0  0  0  0  0  0  0  0  0  0
  143.8746   74.5206  219.8577 H   0  0  0  0  0  0  0  0  0  0  0  0
  143.7204   74.8560  218.1138 H   0  0  0  0  0  0  0  0  0  0  0  0
  142.9453   76.8725  220.3153 H   0  0  0  0  0  0  0  0  0  0  0  0
  144.5371   76.8712  219.5283 H   0  0  0  0  0  0  0  0  0  0  0  0
  143.6705   77.4534  217.4579 H   0  0  0  0  0  0  0  0  0  0  0  0
  142.0328   76.7135  217.8833 H   0  0  0  0  0  0  0  0  0  0  0  0
  140.4418   77.8859  218.8950 H   0  0  0  0  0  0  0  0  0  0  0  0
  141.3259   78.5273  220.3007 H   0  0  0  0  0  0  0  0  0  0  0  0
  140.0788   80.0511  217.9659 H   0  0  0  0  0  0  0  0  0  0  0  0
  139.7613   80.2171  219.7527 H   0  0  0  0  0  0  0  0  0  0  0  0
  142.5388   81.7677  217.5044 H   0  0  0  0  0  0  0  0  0  0  0  0
  143.4510   80.9764  218.8380 H   0  0  0  0  0  0  0  0  0  0  0  0
  141.6160   79.5868  216.7970 H   0  0  0  0  0  0  0  0  0  0  0  0
  143.3771   79.4453  216.8672 H   0  0  0  0  0  0  0  0  0  0  0  0
  141.1177   78.5172  224.4045 H   0  0  0  0  0  0  0  0  0  0  0  0
  142.1105   77.2305  223.7344 H   0  0  0  0  0  0  0  0  0  0  0  0
  143.0736   79.5096  223.1580 H   0  0  0  0  0  0  0  0  0  0  0  0
  142.5491   78.6755  221.6654 H   0  0  0  0  0  0  0  0  0  0  0  0
  142.9067   81.6215  222.2072 H   0  0  0  0  0  0  0  0  0  0  0  0
  141.4195   83.6094  221.7358 H   0  0  0  0  0  0  0  0  0  0  0  0
  138.9807   83.2073  221.6070 H   0  0  0  0  0  0  0  0  0  0  0  0
  137.9939   80.9898  221.9247 H   0  0  0  0  0  0  0  0  0  0  0  0
  138.6458   78.6728  223.3237 H   0  0  0  0  0  0  0  0  0  0  0  0
  138.7203   78.3975  221.5400 H   0  0  0  0  0  0  0  0  0  0  0  0
  141.1233   72.9492  226.3836 H   0  0  0  0  0  0  0  0  0  0  0  0
  141.3503   72.1880  228.7250 H   0  0  0  0  0  0  0  0  0  0  0  0
  1  2  2  0
  2  3  1  0
  3  4  2  0
  4  5  1  0
  5  6  1  0
  6  7  1  0
  7  8  1  0
  8  9  1  0
  9 10  2  0
 10 11  1  0
 11 12  1  0
 12 13  1  0
 13 14  1  0
 14 15  1  0
 15 16  1  0
 16 17  1  0
 17 18  1  0
 18 19  1  0
 19 20  1  0
 20 21  1  0
 11 22  2  0
 22 23  1  0
 23 24  1  0
 24 25  1  0
 25 26  1  0
 26 27  1  0
 27 28  2  0
 28 29  1  0
 29 30  2  0
 30 31  1  0
 31 32  2  0
 32 33  1  0
 23 34  2  0
  4 35  1  0
 35 36  2  0
 36  1  1  0
 34  9  1  0
 21 16  1  0
 33 24  1  0
 32 27  1  0
  1 37  1  0
  2 38  1  0
  3 39  1  0
  5 40  1  0
  5 41  1  0
  6 42  1  0
  6 43  1  0
  7 44  1  0
  7 45  1  0
  8 46  1  0
 12 47  1  0
 13 48  1  0
 13 49  1  0
 14 50  1  0
 14 51  1  0
 15 52  1  0
 15 53  1  0
 17 54  1  0
 17 55  1  0
 18 56  1  0
 18 57  1  0
 20 58  1  0
 20 59  1  0
 21 60  1  0
 21 61  1  0
 25 62  1  0
 25 63  1  0
 26 64  1  0
 26 65  1  0
 28 66  1  0
 29 67  1  0
 30 68  1  0
 31 69  1  0
 33 70  1  0
 33 71  1  0
 35 72  1  0
 36 73  1  0
M  END
>  <smiles>  (25) 
c1ccc(CCCNc2nc(NCCCN3CCOCC3)nc(N3CCc4ccccc4C3)n2)cc1

>  <score_type>  (25) 
oracle

>  <origin>  (25) 
autodockgpu

>  <m_score__min__energy>  (25) 
-9.7400000000000002

>  <m_primary>  (25) 
energy

>  <rmsd>  (25) 
5.1574703092846494

>  <m_score__min__rmsd>  (25) 
5.1574703092846494

>  <meeko>  (25) 
{"free_energy": -8.44, "intermolecular_energy": -11.72, "internal_energy": -2.26, "cluster_size": 3, "cluster_id": 8, "rank_in_cluster": 1}

>  <energy>  (25) 
-8.64

>  <cluster_rmsd>  (25) 
1.67

>  <cluster>  (25) 
3

$$$$

     RDKit          3D

 73 77  0  0  0  0  0  0  0  0999 V2000
  142.3130   80.2490  223.8530 C   0  0  0  0  0  0  0  0  0  0  0  0
  141.8140   79.0160  224.2090 C   0  0  0  0  0  0  0  0  0  0  0  0
  141.4230   78.1420  223.2180 C   0  0  0  0  0  0  0  0  0  0  0  0
  141.4970   78.4130  221.8720 C   0  0  0  0  0  0  0  0  0  0  0  0
  141.0670   77.5100  220.8100 C   0  0  0  0  0  0  0  0  0  0  0  0
  142.1700   77.0810  219.8520 C   0  0  0  0  0  0  0  0  0  0  0  0
  142.2790   75.5810  220.0310 C   0  0  0  0  0  0  0  0  0  0  0  0
  141.7690   75.0630  221.2510 N   0  0  0  0  0  0  0  0  0  0  0  0
  141.1380   73.8110  221.4280 C   0  0  0  0  0  0  0  0  0  0  0  0
  140.9730   73.0470  220.3070 N   0  0  0  0  0  0  0  0  0  0  0  0
  140.4010   71.8290  220.3780 C   0  0  0  0  0  0  0  0  0  0  0  0
  140.2710   71.0500  219.1790 N   0  0  0  0  0  0  0  0  0  0  0  0
  140.7730   71.4930  217.8950 C   0  0  0  0  0  0  0  0  0  0  0  0
  142.0840   70.7450  217.6260 C   0  0  0  0  0  0  0  0  0  0  0  0
  142.8630   70.7620  218.9180 C   0  0  0  0  0  0  0  0  0  0  0  0
  143.9760   71.6350  218.9590 N   0  0  0  0  0  0  0  0  0  0  0  0
  144.5180   71.9590  220.2290 C   0  0  0  0  0  0  0  0  0  0  0  0
  145.3380   73.2300  220.0580 C   0  0  0  0  0  0  0  0  0  0  0  0
  146.1480   73.1980  218.9540 O   0  0  0  0  0  0  0  0  0  0  0  0
  145.5060   72.9540  217.7520 C   0  0  0  0  0  0  0  0  0  0  0  0
  144.0180   72.6870  218.0030 C   0  0  0  0  0  0  0  0  0  0  0  0
  139.9720   71.3210  221.5550 N   0  0  0  0  0  0  0  0  0  0  0  0
  140.1370   72.0800  222.6680 C   0  0  0  0  0  0  0  0  0  0  0  0
  139.6980   71.5000  223.8830 N   0  0  0  0  0  0  0  0  0  0  0  0
  138.4440   70.7560  223.8900 C   0  0  0  0  0  0  0  0  0  0  0  0
  138.8800   69.2900  224.0680 C   0  0  0  0  0  0  0  0  0  0  0  0
  139.6360   69.1760  225.3470 C   0  0  0  0  0  0  0  0  0  0  0  0
  139.5780   67.9600  225.9940 C   0  0  0  0  0  0  0  0  0  0  0  0
  140.2490   67.7700  227.2070 C   0  0  0  0  0  0  0  0  0  0  0  0
  140.9500   68.8510  227.6890 C   0  0  0  0  0  0  0  0  0  0  0  0
  141.0140   70.0710  227.0480 C   0  0  0  0  0  0  0  0  0  0  0  0
  140.3530   70.2530  225.8560 C   0  0  0  0  0  0  0  0  0  0  0  0
  140.4090   71.5690  225.1380 C   0  0  0  0  0  0  0  0  0  0  0  0
  140.7110   73.3030  222.5900 N   0  0  0  0  0  0  0  0  0  0  0  0
  141.9990   79.6550  221.5170 C   0  0  0  0  0  0  0  0  0  0  0  0
  142.3990   80.5540  222.5000 C   0  0  0  0  0  0  0  0  0  0  0  0
  142.6343   80.9717  224.6175 H   0  0  0  0  0  0  0  0  0  0  0  0
  141.7288   78.7330  225.2685 H   0  0  0  0  0  0  0  0  0  0  0  0
  141.0255   77.1630  223.5239 H   0  0  0  0  0  0  0  0  0  0  0  0
  140.6489   76.6063  221.2775 H   0  0  0  0  0  0  0  0  0  0  0  0
  140.3330   78.0662  220.2085 H   0  0  0  0  0  0  0  0  0  0  0  0
  141.8998   77.3285  218.8148 H   0  0  0  0  0  0  0  0  0  0  0  0
  143.1212   77.5933  220.0591 H   0  0  0  0  0  0  0  0  0  0  0  0
  141.7305   75.1025  219.2063 H   0  0  0  0  0  0  0  0  0  0  0  0
  143.3565   75.3601  220.0413 H   0  0  0  0  0  0  0  0  0  0  0  0
  141.8590   75.6530  222.1190 H   0  0  0  0  0  0  0  0  0  0  0  0
  139.7640   70.1310  219.3160 H   0  0  0  0  0  0  0  0  0  0  0  0
  140.0413   71.2627  217.1066 H   0  0  0  0  0  0  0  0  0  0  0  0
  140.9428   72.5798  217.9010 H   0  0  0  0  0  0  0  0  0  0  0  0
  141.8743   69.7086  217.3229 H   0  0  0  0  0  0  0  0  0  0  0  0
  142.6527   71.2210  216.8136 H   0  0  0  0  0  0  0  0  0  0  0  0
  142.1738   71.0571  219.7229 H   0  0  0  0  0  0  0  0  0  0  0  0
  143.2763   69.7486  219.0289 H   0  0  0  0  0  0  0  0  0  0  0  0
  143.7071   72.1283  220.9527 H   0  0  0  0  0  0  0  0  0  0  0  0
  145.1450   71.1379  220.6068 H   0  0  0  0  0  0  0  0  0  0  0  0
  144.6488   74.0820  219.9629 H   0  0  0  0  0  0  0  0  0  0  0  0
  145.9874   73.3248  220.9408 H   0  0  0  0  0  0  0  0  0  0  0  0
  145.6142   73.8302  217.0958 H   0  0  0  0  0  0  0  0  0  0  0  0
  145.9570   72.0732  217.2716 H   0  0  0  0  0  0  0  0  0  0  0  0
  143.5277   73.5877  218.4009 H   0  0  0  0  0  0  0  0  0  0  0  0
  143.4901   72.4173  217.0764 H   0  0  0  0  0  0  0  0  0  0  0  0
  137.8036   71.0773  224.7247 H   0  0  0  0  0  0  0  0  0  0  0  0
  137.8538   70.9135  222.9752 H   0  0  0  0  0  0  0  0  0  0  0  0
  137.9931   68.6401  224.1015 H   0  0  0  0  0  0  0  0  0  0  0  0
  139.5147   68.9795  223.2249 H   0  0  0  0  0  0  0  0  0  0  0  0
  139.0005   67.1338  225.5538 H   0  0  0  0  0  0  0  0  0  0  0  0
  140.2177   66.8108  227.7446 H   0  0  0  0  0  0  0  0  0  0  0  0
  141.4906   68.7361  228.6401 H   0  0  0  0  0  0  0  0  0  0  0  0
  141.5924   70.8961  227.4893 H   0  0  0  0  0  0  0  0  0  0  0  0
  139.9507   72.3441  225.7698 H   0  0  0  0  0  0  0  0  0  0  0  0
  141.4616   71.8141  224.9334 H   0  0  0  0  0  0  0  0  0  0  0  0
  142.0813   79.9305  220.4552 H   0  0  0  0  0  0  0  0  0  0  0  0
  142.7949   81.5348  222.1977 H   0  0  0  0  0  0  0  0  0  0  0  0
  1  2  2  0
  2  3  1  0
  3  4  2  0
  4  5  1  0
  5  6  1  0
  6  7  1  0
  7  8  1  0
  8  9  1  0
  9 10  2  0
 10 11  1  0
 11 12  1  0
 12 13  1  0
 13 14  1  0
 14 15  1  0
 15 16  1  0
 16 17  1  0
 17 18  1  0
 18 19  1  0
 19 20  1  0
 20 21  1  0
 11 22  2  0
 22 23  1  0
 23 24  1  0
 24 25  1  0
 25 26  1  0
 26 27  1  0
 27 28  2  0
 28 29  1  0
 29 30  2  0
 30 31  1  0
 31 32  2  0
 32 33  1  0
 23 34  2  0
  4 35  1  0
 35 36  2  0
 36  1  1  0
 34  9  1  0
 21 16  1  0
 33 24  1  0
 32 27  1  0
  1 37  1  0
  2 38  1  0
  3 39  1  0
  5 40  1  0
  5 41  1  0
  6 42  1  0
  6 43  1  0
  7 44  1  0
  7 45  1  0
  8 46  1  0
 12 47  1  0
 13 48  1  0
 13 49  1  0
 14 50  1  0
 14 51  1  0
 15 52  1  0
 15 53  1  0
 17 54  1  0
 17 55  1  0
 18 56  1  0
 18 57  1  0
 20 58  1  0
 20 59  1  0
 21 60  1  0
 21 61  1  0
 25 62  1  0
 25 63  1  0
 26 64  1  0
 26 65  1  0
 28 66  1  0
 29 67  1  0
 30 68  1  0
 31 69  1  0
 33 70  1  0
 33 71  1  0
 35 72  1  0
 36 73  1  0
M  END
>  <smiles>  (26) 
c1ccc(CCCNc2nc(NCCCN3CCOCC3)nc(N3CCc4ccccc4C3)n2)cc1

>  <score_type>  (26) 
oracle

>  <origin>  (26) 
autodockgpu

>  <m_score__min__energy>  (26) 
-9.7400000000000002

>  <m_primary>  (26) 
energy

>  <rmsd>  (26) 
11.30492249246988

>  <m_score__min__rmsd>  (26) 
11.30492249246988

>  <meeko>  (26) 
{"free_energy": -8.99, "intermolecular_energy": -12.27, "internal_energy": -1.66, "cluster_size": 11, "cluster_id": 6, "rank_in_cluster": 1}

>  <energy>  (26) 
-9.1

>  <cluster_rmsd>  (26) 
0.0

>  <cluster>  (26) 
4

$$$$

     RDKit          3D

 73 77  0  0  0  0  0  0  0  0999 V2000
  143.3200   76.0960  218.4930 C   0  0  0  0  0  0  0  0  0  0  0  0
  143.5730   75.0200  217.6720 C   0  0  0  0  0  0  0  0  0  0  0  0
  144.2090   73.9150  218.1960 C   0  0  0  0  0  0  0  0  0  0  0  0
  144.6180   73.8040  219.5040 C   0  0  0  0  0  0  0  0  0  0  0  0
  145.3120   72.6520  220.0700 C   0  0  0  0  0  0  0  0  0  0  0  0
  145.0090   71.3260  219.3890 C   0  0  0  0  0  0  0  0  0  0  0  0
  143.7900   70.7880  220.1090 C   0  0  0  0  0  0  0  0  0  0  0  0
  142.5630   71.4480  219.8300 N   0  0  0  0  0  0  0  0  0  0  0  0
  141.7110   72.0630  220.7730 C   0  0  0  0  0  0  0  0  0  0  0  0
  141.2800   73.3250  220.4730 N   0  0  0  0  0  0  0  0  0  0  0  0
  140.4470   73.9870  221.3000 C   0  0  0  0  0  0  0  0  0  0  0  0
  140.0000   75.3010  220.9340 N   0  0  0  0  0  0  0  0  0  0  0  0
  140.8010   76.4900  221.1390 C   0  0  0  0  0  0  0  0  0  0  0  0
  140.1970   77.2570  222.3210 C   0  0  0  0  0  0  0  0  0  0  0  0
  141.3520   77.8770  223.0680 C   0  0  0  0  0  0  0  0  0  0  0  0
  141.4070   79.2920  223.0610 N   0  0  0  0  0  0  0  0  0  0  0  0
  142.6200   79.9110  223.4560 C   0  0  0  0  0  0  0  0  0  0  0  0
  142.2930   81.3500  223.8270 C   0  0  0  0  0  0  0  0  0  0  0  0
  141.4750   81.9630  222.9150 O   0  0  0  0  0  0  0  0  0  0  0  0
  140.2770   81.3170  222.6620 C   0  0  0  0  0  0  0  0  0  0  0  0
  140.2270   79.9940  223.4330 C   0  0  0  0  0  0  0  0  0  0  0  0
  140.0090   73.4280  222.4510 N   0  0  0  0  0  0  0  0  0  0  0  0
  140.4360   72.1740  222.7480 C   0  0  0  0  0  0  0  0  0  0  0  0
  139.9340   71.6170  223.9490 N   0  0  0  0  0  0  0  0  0  0  0  0
  138.7230   70.8070  223.8920 C   0  0  0  0  0  0  0  0  0  0  0  0
  139.2180   69.3750  224.1630 C   0  0  0  0  0  0  0  0  0  0  0  0
  139.8770   69.3500  225.5000 C   0  0  0  0  0  0  0  0  0  0  0  0
  139.8300   68.1590  226.1910 C   0  0  0  0  0  0  0  0  0  0  0  0
  140.4140   68.0510  227.4580 C   0  0  0  0  0  0  0  0  0  0  0  0
  141.0180   69.1860  227.9460 C   0  0  0  0  0  0  0  0  0  0  0  0
  141.0700   70.3820  227.2610 C   0  0  0  0  0  0  0  0  0  0  0  0
  140.4960   70.4830  226.0160 C   0  0  0  0  0  0  0  0  0  0  0  0
  140.5400   71.7720  225.2500 C   0  0  0  0  0  0  0  0  0  0  0  0
  141.2740   71.5160  221.9130 N   0  0  0  0  0  0  0  0  0  0  0  0
  144.3610   74.8890  220.3270 C   0  0  0  0  0  0  0  0  0  0  0  0
  143.7210   76.0140  219.8210 C   0  0  0  0  0  0  0  0  0  0  0  0
  142.8151   76.9946  218.1088 H   0  0  0  0  0  0  0  0  0  0  0  0
  143.2722   75.0418  216.6142 H   0  0  0  0  0  0  0  0  0  0  0  0
  144.4020   73.0662  217.5235 H   0  0  0  0  0  0  0  0  0  0  0  0
  146.3942   72.8347  219.9967 H   0  0  0  0  0  0  0  0  0  0  0  0
  144.9569   72.5556  221.1066 H   0  0  0  0  0  0  0  0  0  0  0  0
  144.7916   71.4798  218.3217 H   0  0  0  0  0  0  0  0  0  0  0  0
  145.8600   70.6307  219.4390 H   0  0  0  0  0  0  0  0  0  0  0  0
  143.6743   69.7299  219.8314 H   0  0  0  0  0  0  0  0  0  0  0  0
  143.9799   70.9528  221.1799 H   0  0  0  0  0  0  0  0  0  0  0  0
  142.2390   71.4920  218.8280 H   0  0  0  0  0  0  0  0  0  0  0  0
  139.0290   75.3230  220.5120 H   0  0  0  0  0  0  0  0  0  0  0  0
  141.8397   76.2081  221.3661 H   0  0  0  0  0  0  0  0  0  0  0  0
  140.8040   77.1149  220.2337 H   0  0  0  0  0  0  0  0  0  0  0  0
  139.5161   78.0405  221.9569 H   0  0  0  0  0  0  0  0  0  0  0  0
  139.6163   76.5879  222.9730 H   0  0  0  0  0  0  0  0  0  0  0  0
  141.2910   77.5476  224.1157 H   0  0  0  0  0  0  0  0  0  0  0  0
  142.2589   77.5421  222.5433 H   0  0  0  0  0  0  0  0  0  0  0  0
  143.0456   79.3858  224.3238 H   0  0  0  0  0  0  0  0  0  0  0  0
  143.3583   79.8767  222.6413 H   0  0  0  0  0  0  0  0  0  0  0  0
  141.7924   81.3548  224.8065 H   0  0  0  0  0  0  0  0  0  0  0  0
  143.2403   81.9087  223.8487 H   0  0  0  0  0  0  0  0  0  0  0  0
  139.4421   81.9577  222.9820 H   0  0  0  0  0  0  0  0  0  0  0  0
  140.1956   81.1123  221.5843 H   0  0  0  0  0  0  0  0  0  0  0  0
  140.2166   80.1810  224.5169 H   0  0  0  0  0  0  0  0  0  0  0  0
  139.3191   79.4190  223.1981 H   0  0  0  0  0  0  0  0  0  0  0  0
  138.0041   71.1242  224.6618 H   0  0  0  0  0  0  0  0  0  0  0  0
  138.1984   70.8980  222.9294 H   0  0  0  0  0  0  0  0  0  0  0  0
  138.3656   68.6797  224.1559 H   0  0  0  0  0  0  0  0  0  0  0  0
  139.9316   69.0680  223.3841 H   0  0  0  0  0  0  0  0  0  0  0  0
  139.3301   67.2872  225.7437 H   0  0  0  0  0  0  0  0  0  0  0  0
  140.3913   67.1122  228.0308 H   0  0  0  0  0  0  0  0  0  0  0  0
  141.4867   69.1372  228.9400 H   0  0  0  0  0  0  0  0  0  0  0  0
  141.5697   71.2531  227.7099 H   0  0  0  0  0  0  0  0  0  0  0  0
  139.9943   72.5442  225.8121 H   0  0  0  0  0  0  0  0  0  0  0  0
  141.5914   72.0664  225.1160 H   0  0  0  0  0  0  0  0  0  0  0  0
  144.6645   74.8596  221.3839 H   0  0  0  0  0  0  0  0  0  0  0  0
  143.5262   76.8643  220.4911 H   0  0  0  0  0  0  0  0  0  0  0  0
  1  2  2  0
  2  3  1  0
  3  4  2  0
  4  5  1  0
  5  6  1  0
  6  7  1  0
  7  8  1  0
  8  9  1  0
  9 10  2  0
 10 11  1  0
 11 12  1  0
 12 13  1  0
 13 14  1  0
 14 15  1  0
 15 16  1  0
 16 17  1  0
 17 18  1  0
 18 19  1  0
 19 20  1  0
 20 21  1  0
 11 22  2  0
 22 23  1  0
 23 24  1  0
 24 25  1  0
 25 26  1  0
 26 27  1  0
 27 28  2  0
 28 29  1  0
 29 30  2  0
 30 31  1  0
 31 32  2  0
 32 33  1  0
 23 34  2  0
  4 35  1  0
 35 36  2  0
 36  1  1  0
 34  9  1  0
 21 16  1  0
 33 24  1  0
 32 27  1  0
  1 37  1  0
  2 38  1  0
  3 39  1  0
  5 40  1  0
  5 41  1  0
  6 42  1  0
  6 43  1  0
  7 44  1  0
  7 45  1  0
  8 46  1  0
 12 47  1  0
 13 48  1  0
 13 49  1  0
 14 50  1  0
 14 51  1  0
 15 52  1  0
 15 53  1  0
 17 54  1  0
 17 55  1  0
 18 56  1  0
 18 57  1  0
 20 58  1  0
 20 59  1  0
 21 60  1  0
 21 61  1  0
 25 62  1  0
 25 63  1  0
 26 64  1  0
 26 65  1  0
 28 66  1  0
 29 67  1  0
 30 68  1  0
 31 69  1  0
 33 70  1  0
 33 71  1  0
 35 72  1  0
 36 73  1  0
M  END
>  <smiles>  (27) 
c1ccc(CCCNc2nc(NCCCN3CCOCC3)nc(N3CCc4ccccc4C3)n2)cc1

>  <score_type>  (27) 
oracle

>  <origin>  (27) 
autodockgpu

>  <m_score__min__energy>  (27) 
-9.7400000000000002

>  <m_primary>  (27) 
energy

>  <rmsd>  (27) 
11.213395334744174

>  <m_score__min__rmsd>  (27) 
11.213395334744174

>  <meeko>  (27) 
{"free_energy": -8.67, "intermolecular_energy": -11.95, "internal_energy": -1.85, "cluster_size": 4, "cluster_id": 7, "rank_in_cluster": 1}

>  <energy>  (27) 
-9.03

>  <cluster_rmsd>  (27) 
0.0

>  <cluster>  (27) 
5

$$$$

     RDKit          3D

 73 77  0  0  0  0  0  0  0  0999 V2000
  141.1780   71.4780  228.3500 C   0  0  0  0  0  0  0  0  0  0  0  0
  141.4640   72.2020  227.2140 C   0  0  0  0  0  0  0  0  0  0  0  0
  141.0010   71.7490  225.9980 C   0  0  0  0  0  0  0  0  0  0  0  0
  140.2560   70.6050  225.8300 C   0  0  0  0  0  0  0  0  0  0  0  0
  139.7760   70.0970  224.5490 C   0  0  0  0  0  0  0  0  0  0  0  0
  139.1360   71.1430  223.6480 C   0  0  0  0  0  0  0  0  0  0  0  0
  139.9910   71.1580  222.3990 C   0  0  0  0  0  0  0  0  0  0  0  0
  140.4720   72.4310  221.9910 N   0  0  0  0  0  0  0  0  0  0  0  0
  139.7510   73.6450  222.0190 C   0  0  0  0  0  0  0  0  0  0  0  0
  138.4100   73.5520  222.2590 N   0  0  0  0  0  0  0  0  0  0  0  0
  137.6400   74.6570  222.3270 C   0  0  0  0  0  0  0  0  0  0  0  0
  136.2390   74.5130  222.6060 N   0  0  0  0  0  0  0  0  0  0  0  0
  135.3080   75.6210  222.5480 C   0  0  0  0  0  0  0  0  0  0  0  0
  135.4230   76.3930  223.8670 C   0  0  0  0  0  0  0  0  0  0  0  0
  134.0560   76.3670  224.5040 C   0  0  0  0  0  0  0  0  0  0  0  0
  133.8090   75.2970  225.3980 N   0  0  0  0  0  0  0  0  0  0  0  0
  134.6810   74.1800  225.3530 C   0  0  0  0  0  0  0  0  0  0  0  0
  133.9570   73.0160  226.0140 C   0  0  0  0  0  0  0  0  0  0  0  0
  133.3500   73.3650  227.1910 O   0  0  0  0  0  0  0  0  0  0  0  0
  132.4540   74.4180  227.1090 C   0  0  0  0  0  0  0  0  0  0  0  0
  132.4510   74.9870  225.6870 C   0  0  0  0  0  0  0  0  0  0  0  0
  138.1660   75.8910  222.1600 N   0  0  0  0  0  0  0  0  0  0  0  0
  139.4990   75.9830  221.9220 C   0  0  0  0  0  0  0  0  0  0  0  0
  140.0130   77.2940  221.7780 N   0  0  0  0  0  0  0  0  0  0  0  0
  139.0760   78.4020  221.6410 C   0  0  0  0  0  0  0  0  0  0  0  0
  139.2010   79.1660  222.9720 C   0  0  0  0  0  0  0  0  0  0  0  0
  140.6140   79.6100  223.1280 C   0  0  0  0  0  0  0  0  0  0  0  0
  140.8240   80.7640  223.8530 C   0  0  0  0  0  0  0  0  0  0  0  0
  142.1180   81.2590  224.0390 C   0  0  0  0  0  0  0  0  0  0  0  0
  143.1350   80.5320  223.4640 C   0  0  0  0  0  0  0  0  0  0  0  0
  142.9350   79.3770  222.7380 C   0  0  0  0  0  0  0  0  0  0  0  0
  141.6600   78.8930  222.5580 C   0  0  0  0  0  0  0  0  0  0  0  0
  141.4160   77.6380  221.7740 C   0  0  0  0  0  0  0  0  0  0  0  0
  140.2660   74.8690  221.8540 N   0  0  0  0  0  0  0  0  0  0  0  0
  139.9700   69.8790  226.9760 C   0  0  0  0  0  0  0  0  0  0  0  0
  140.4280   70.3170  228.2130 C   0  0  0  0  0  0  0  0  0  0  0  0
  141.5331   71.8094  229.3369 H   0  0  0  0  0  0  0  0  0  0  0  0
  142.0536   73.1286  227.2766 H   0  0  0  0  0  0  0  0  0  0  0  0
  141.2430   72.3409  225.1030 H   0  0  0  0  0  0  0  0  0  0  0  0
  140.6307   69.6596  224.0122 H   0  0  0  0  0  0  0  0  0  0  0  0
  138.9889   69.3645  224.7812 H   0  0  0  0  0  0  0  0  0  0  0  0
  138.1005   70.8627  223.4047 H   0  0  0  0  0  0  0  0  0  0  0  0
  139.0893   72.1310  224.1293 H   0  0  0  0  0  0  0  0  0  0  0  0
  140.8619   70.5106  222.5791 H   0  0  0  0  0  0  0  0  0  0  0  0
  139.3356   70.8130  221.5857 H   0  0  0  0  0  0  0  0  0  0  0  0
  141.4590   72.4970  221.6280 H   0  0  0  0  0  0  0  0  0  0  0  0
  135.9520   73.5290  222.8710 H   0  0  0  0  0  0  0  0  0  0  0  0
  135.5614   76.2800  221.7045 H   0  0  0  0  0  0  0  0  0  0  0  0
  134.2808   75.2551  222.4031 H   0  0  0  0  0  0  0  0  0  0  0  0
  136.1582   75.9091  224.5268 H   0  0  0  0  0  0  0  0  0  0  0  0
  135.7594   77.4258  223.6934 H   0  0  0  0  0  0  0  0  0  0  0  0
  133.9256   77.3072  225.0599 H   0  0  0  0  0  0  0  0  0  0  0  0
  133.3449   76.2321  223.6757 H   0  0  0  0  0  0  0  0  0  0  0  0
  134.9203   73.9307  224.3087 H   0  0  0  0  0  0  0  0  0  0  0  0
  135.6240   74.3999  225.8749 H   0  0  0  0  0  0  0  0  0  0  0  0
  133.1895   72.6410  225.3210 H   0  0  0  0  0  0  0  0  0  0  0  0
  134.7096   72.2480  226.2459 H   0  0  0  0  0  0  0  0  0  0  0  0
  131.4451   74.0595  227.3610 H   0  0  0  0  0  0  0  0  0  0  0  0
  132.7543   75.2063  227.8150 H   0  0  0  0  0  0  0  0  0  0  0  0
  132.0673   74.2411  224.9754 H   0  0  0  0  0  0  0  0  0  0  0  0
  131.8039   75.8726  225.6035 H   0  0  0  0  0  0  0  0  0  0  0  0
  139.3538   79.0459  220.7935 H   0  0  0  0  0  0  0  0  0  0  0  0
  138.0482   78.0638  221.4432 H   0  0  0  0  0  0  0  0  0  0  0  0
  138.5354   80.0417  222.9617 H   0  0  0  0  0  0  0  0  0  0  0  0
  138.9149   78.5140  223.8105 H   0  0  0  0  0  0  0  0  0  0  0  0
  139.9670   81.2990  224.2882 H   0  0  0  0  0  0  0  0  0  0  0  0
  142.3122   82.1774  224.6124 H   0  0  0  0  0  0  0  0  0  0  0  0
  144.1664   80.8929  223.5908 H   0  0  0  0  0  0  0  0  0  0  0  0
  143.7933   78.8436  222.3036 H   0  0  0  0  0  0  0  0  0  0  0  0
  141.7465   77.7914  220.7361 H   0  0  0  0  0  0  0  0  0  0  0  0
  141.9812   76.8168  222.2390 H   0  0  0  0  0  0  0  0  0  0  0  0
  139.3790   68.9539  226.9060 H   0  0  0  0  0  0  0  0  0  0  0  0
  140.1894   69.7267  229.1100 H   0  0  0  0  0  0  0  0  0  0  0  0
  1  2  2  0
  2  3  1  0
  3  4  2  0
  4  5  1  0
  5  6  1  0
  6  7  1  0
  7  8  1  0
  8  9  1  0
  9 10  2  0
 10 11  1  0
 11 12  1  0
 12 13  1  0
 13 14  1  0
 14 15  1  0
 15 16  1  0
 16 17  1  0
 17 18  1  0
 18 19  1  0
 19 20  1  0
 20 21  1  0
 11 22  2  0
 22 23  1  0
 23 24  1  0
 24 25  1  0
 25 26  1  0
 26 27  1  0
 27 28  2  0
 28 29  1  0
 29 30  2  0
 30 31  1  0
 31 32  2  0
 32 33  1  0
 23 34  2  0
  4 35  1  0
 35 36  2  0
 36  1  1  0
 34  9  1  0
 21 16  1  0
 33 24  1  0
 32 27  1  0
  1 37  1  0
  2 38  1  0
  3 39  1  0
  5 40  1  0
  5 41  1  0
  6 42  1  0
  6 43  1  0
  7 44  1  0
  7 45  1  0
  8 46  1  0
 12 47  1  0
 13 48  1  0
 13 49  1  0
 14 50  1  0
 14 51  1  0
 15 52  1  0
 15 53  1  0
 17 54  1  0
 17 55  1  0
 18 56  1  0
 18 57  1  0
 20 58  1  0
 20 59  1  0
 21 60  1  0
 21 61  1  0
 25 62  1  0
 25 63  1  0
 26 64  1  0
 26 65  1  0
 28 66  1  0
 29 67  1  0
 30 68  1  0
 31 69  1  0
 33 70  1  0
 33 71  1  0
 35 72  1  0
 36 73  1  0
M  END
>  <smiles>  (28) 
c1ccc(CCCNc2nc(NCCCN3CCOCC3)nc(N3CCc4ccccc4C3)n2)cc1

>  <score_type>  (28) 
oracle

>  <origin>  (28) 
autodockgpu

>  <m_score__min__energy>  (28) 
-9.7400000000000002

>  <m_primary>  (28) 
energy

>  <rmsd>  (28) 
5.759858238682364

>  <m_score__min__rmsd>  (28) 
5.759858238682364

>  <meeko>  (28) 
{"free_energy": -9.37, "intermolecular_energy": -12.65, "internal_energy": -1.21, "cluster_size": 15, "cluster_id": 1, "rank_in_cluster": 6}

>  <energy>  (28) 
-7.53

>  <cluster_rmsd>  (28) 
0.69

>  <cluster>  (28) 
5

$$$$

     RDKit          3D

 73 77  0  0  0  0  0  0  0  0999 V2000
  141.6720   81.2460  223.5270 C   0  0  0  0  0  0  0  0  0  0  0  0
  140.3970   80.7370  223.6240 C   0  0  0  0  0  0  0  0  0  0  0  0
  140.1860   79.4050  223.3420 C   0  0  0  0  0  0  0  0  0  0  0  0
  141.1760   78.5270  222.9630 C   0  0  0  0  0  0  0  0  0  0  0  0
  140.9680   77.1200  222.6380 C   0  0  0  0  0  0  0  0  0  0  0  0
  139.5140   76.6720  222.6400 C   0  0  0  0  0  0  0  0  0  0  0  0
  139.2600   76.1640  221.2370 C   0  0  0  0  0  0  0  0  0  0  0  0
  140.2190   75.2480  220.7260 N   0  0  0  0  0  0  0  0  0  0  0  0
  140.5680   74.0010  221.2910 C   0  0  0  0  0  0  0  0  0  0  0  0
  141.5930   73.3260  220.6920 N   0  0  0  0  0  0  0  0  0  0  0  0
  142.0130   72.1380  221.1710 C   0  0  0  0  0  0  0  0  0  0  0  0
  143.1100   71.4750  220.5240 N   0  0  0  0  0  0  0  0  0  0  0  0
  144.3720   72.1290  220.2480 C   0  0  0  0  0  0  0  0  0  0  0  0
  144.1250   73.1650  219.1450 C   0  0  0  0  0  0  0  0  0  0  0  0
  144.0220   74.5060  219.8280 C   0  0  0  0  0  0  0  0  0  0  0  0
  143.0430   75.3910  219.3140 N   0  0  0  0  0  0  0  0  0  0  0  0
  142.2860   74.9640  218.1940 C   0  0  0  0  0  0  0  0  0  0  0  0
  141.6880   76.2080  217.5530 C   0  0  0  0  0  0  0  0  0  0  0  0
  141.1360   77.0650  218.4680 O   0  0  0  0  0  0  0  0  0  0  0  0
  141.9850   77.4860  219.4770 C   0  0  0  0  0  0  0  0  0  0  0  0
  143.3390   76.7820  219.3430 C   0  0  0  0  0  0  0  0  0  0  0  0
  141.4380   71.5750  222.2570 N   0  0  0  0  0  0  0  0  0  0  0  0
  140.4200   72.2470  222.8530 C   0  0  0  0  0  0  0  0  0  0  0  0
  139.8630   71.6350  224.0020 N   0  0  0  0  0  0  0  0  0  0  0  0
  138.5960   70.9260  223.8730 C   0  0  0  0  0  0  0  0  0  0  0  0
  138.9790   69.4430  224.0290 C   0  0  0  0  0  0  0  0  0  0  0  0
  139.6200   69.2610  225.3630 C   0  0  0  0  0  0  0  0  0  0  0  0
  139.4760   68.0240  225.9550 C   0  0  0  0  0  0  0  0  0  0  0  0
  140.0360   67.7700  227.2110 C   0  0  0  0  0  0  0  0  0  0  0  0
  140.7180   68.8140  227.7930 C   0  0  0  0  0  0  0  0  0  0  0  0
  140.8670   70.0540  227.2090 C   0  0  0  0  0  0  0  0  0  0  0  0
  140.3160   70.2980  225.9730 C   0  0  0  0  0  0  0  0  0  0  0  0
  140.4650   71.6380  225.3150 C   0  0  0  0  0  0  0  0  0  0  0  0
  140.0020   73.4390  222.3660 N   0  0  0  0  0  0  0  0  0  0  0  0
  142.4580   79.0440  222.8670 C   0  0  0  0  0  0  0  0  0  0  0  0
  142.6940   80.3850  223.1460 C   0  0  0  0  0  0  0  0  0  0  0  0
  141.8763   82.3047  223.7449 H   0  0  0  0  0  0  0  0  0  0  0  0
  139.5589   81.3840  223.9222 H   0  0  0  0  0  0  0  0  0  0  0  0
  139.1597   79.0181  223.4251 H   0  0  0  0  0  0  0  0  0  0  0  0
  141.3813   76.9359  221.6353 H   0  0  0  0  0  0  0  0  0  0  0  0
  141.4706   76.5426  223.4279 H   0  0  0  0  0  0  0  0  0  0  0  0
  139.3574   75.8698  223.3761 H   0  0  0  0  0  0  0  0  0  0  0  0
  138.8299   77.4885  222.9145 H   0  0  0  0  0  0  0  0  0  0  0  0
  138.2801   75.6642  221.2316 H   0  0  0  0  0  0  0  0  0  0  0  0
  139.3159   77.0484  220.5852 H   0  0  0  0  0  0  0  0  0  0  0  0
  140.7310   75.5050  219.8420 H   0  0  0  0  0  0  0  0  0  0  0  0
  142.9080   70.4710  220.2560 H   0  0  0  0  0  0  0  0  0  0  0  0
  144.7423   72.6282  221.1556 H   0  0  0  0  0  0  0  0  0  0  0  0
  145.1258   71.3949  219.9271 H   0  0  0  0  0  0  0  0  0  0  0  0
  144.9618   73.1660  218.4311 H   0  0  0  0  0  0  0  0  0  0  0  0
  143.2079   72.9348  218.5829 H   0  0  0  0  0  0  0  0  0  0  0  0
  143.7902   74.3267  220.8882 H   0  0  0  0  0  0  0  0  0  0  0  0
  144.9890   75.0014  219.6562 H   0  0  0  0  0  0  0  0  0  0  0  0
  142.9371   74.4455  217.4748 H   0  0  0  0  0  0  0  0  0  0  0  0
  141.4944   74.2649  218.5018 H   0  0  0  0  0  0  0  0  0  0  0  0
  142.4828   76.7394  217.0090 H   0  0  0  0  0  0  0  0  0  0  0  0
  140.8822   75.8786  216.8805 H   0  0  0  0  0  0  0  0  0  0  0  0
  142.1300   78.5738  219.4022 H   0  0  0  0  0  0  0  0  0  0  0  0
  141.5413   77.2376  220.4524 H   0  0  0  0  0  0  0  0  0  0  0  0
  143.8409   77.0877  218.4131 H   0  0  0  0  0  0  0  0  0  0  0  0
  144.0158   77.0380  220.1715 H   0  0  0  0  0  0  0  0  0  0  0  0
  137.8942   71.2333  224.6624 H   0  0  0  0  0  0  0  0  0  0  0  0
  138.0909   71.1337  222.9182 H   0  0  0  0  0  0  0  0  0  0  0  0
  138.0769   68.8171  223.9617 H   0  0  0  0  0  0  0  0  0  0  0  0
  139.6755   69.1463  223.2310 H   0  0  0  0  0  0  0  0  0  0  0  0
  138.9169   67.2317  225.4358 H   0  0  0  0  0  0  0  0  0  0  0  0
  139.9371   66.7922  227.7052 H   0  0  0  0  0  0  0  0  0  0  0  0
  141.1707   68.6496  228.7819 H   0  0  0  0  0  0  0  0  0  0  0  0
  141.4250   70.8458  227.7303 H   0  0  0  0  0  0  0  0  0  0  0  0
  139.9726   72.4012  225.9356 H   0  0  0  0  0  0  0  0  0  0  0  0
  141.5369   71.8621  225.2107 H   0  0  0  0  0  0  0  0  0  0  0  0
  143.2916   78.3910  222.5691 H   0  0  0  0  0  0  0  0  0  0  0  0
  143.7189   80.7758  223.0628 H   0  0  0  0  0  0  0  0  0  0  0  0
  1  2  2  0
  2  3  1  0
  3  4  2  0
  4  5  1  0
  5  6  1  0
  6  7  1  0
  7  8  1  0
  8  9  1  0
  9 10  2  0
 10 11  1  0
 11 12  1  0
 12 13  1  0
 13 14  1  0
 14 15  1  0
 15 16  1  0
 16 17  1  0
 17 18  1  0
 18 19  1  0
 19 20  1  0
 20 21  1  0
 11 22  2  0
 22 23  1  0
 23 24  1  0
 24 25  1  0
 25 26  1  0
 26 27  1  0
 27 28  2  0
 28 29  1  0
 29 30  2  0
 30 31  1  0
 31 32  2  0
 32 33  1  0
 23 34  2  0
  4 35  1  0
 35 36  2  0
 36  1  1  0
 34  9  1  0
 21 16  1  0
 33 24  1  0
 32 27  1  0
  1 37  1  0
  2 38  1  0
  3 39  1  0
  5 40  1  0
  5 41  1  0
  6 42  1  0
  6 43  1  0
  7 44  1  0
  7 45  1  0
  8 46  1  0
 12 47  1  0
 13 48  1  0
 13 49  1  0
 14 50  1  0
 14 51  1  0
 15 52  1  0
 15 53  1  0
 17 54  1  0
 17 55  1  0
 18 56  1  0
 18 57  1  0
 20 58  1  0
 20 59  1  0
 21 60  1  0
 21 61  1  0
 25 62  1  0
 25 63  1  0
 26 64  1  0
 26 65  1  0
 28 66  1  0
 29 67  1  0
 30 68  1  0
 31 69  1  0
 33 70  1  0
 33 71  1  0
 35 72  1  0
 36 73  1  0
M  END
>  <smiles>  (29) 
c1ccc(CCCNc2nc(NCCCN3CCOCC3)nc(N3CCc4ccccc4C3)n2)cc1

>  <score_type>  (29) 
oracle

>  <origin>  (29) 
autodockgpu

>  <m_score__min__energy>  (29) 
-9.7400000000000002

>  <m_primary>  (29) 
energy

>  <rmsd>  (29) 
11.291057913394415

>  <m_score__min__rmsd>  (29) 
11.291057913394415

>  <meeko>  (29) 
{"free_energy": -8.4, "intermolecular_energy": -11.68, "internal_energy": -3.01, "cluster_size": 11, "cluster_id": 6, "rank_in_cluster": 6}

>  <energy>  (29) 
-8.99

>  <cluster_rmsd>  (29) 
0.0

>  <cluster>  (29) 
6

$$$$

     RDKit          3D

 73 77  0  0  0  0  0  0  0  0999 V2000
  140.7890   71.5330  228.3470 C   0  0  0  0  0  0  0  0  0  0  0  0
  140.0670   70.4010  228.0400 C   0  0  0  0  0  0  0  0  0  0  0  0
  139.9200   70.0410  226.7180 C   0  0  0  0  0  0  0  0  0  0  0  0
  140.4510   70.7410  225.6600 C   0  0  0  0  0  0  0  0  0  0  0  0
  140.2860   70.3890  224.2540 C   0  0  0  0  0  0  0  0  0  0  0  0
  138.8450   70.1750  223.8150 C   0  0  0  0  0  0  0  0  0  0  0  0
  138.7020   70.9800  222.5400 C   0  0  0  0  0  0  0  0  0  0  0  0
  138.6960   72.3930  222.6960 N   0  0  0  0  0  0  0  0  0  0  0  0
  139.6660   73.2920  222.2000 C   0  0  0  0  0  0  0  0  0  0  0  0
  140.8170   72.7410  221.7130 N   0  0  0  0  0  0  0  0  0  0  0  0
  141.7920   73.5150  221.1980 C   0  0  0  0  0  0  0  0  0  0  0  0
  142.9740   72.8910  220.6750 N   0  0  0  0  0  0  0  0  0  0  0  0
  144.2150   73.6080  220.4650 C   0  0  0  0  0  0  0  0  0  0  0  0
  145.2890   72.5770  220.0980 C   0  0  0  0  0  0  0  0  0  0  0  0
  144.7880   71.8480  218.8760 C   0  0  0  0  0  0  0  0  0  0  0  0
  143.9440   70.7370  219.1190 N   0  0  0  0  0  0  0  0  0  0  0  0
  144.5550   69.4850  219.3850 C   0  0  0  0  0  0  0  0  0  0  0  0
  143.5090   68.4100  219.1300 C   0  0  0  0  0  0  0  0  0  0  0  0
  142.2910   68.7100  219.6810 O   0  0  0  0  0  0  0  0  0  0  0  0
  141.7450   69.9200  219.2910 C   0  0  0  0  0  0  0  0  0  0  0  0
  142.7280   70.6670  218.3850 C   0  0  0  0  0  0  0  0  0  0  0  0
  141.6660   74.8610  221.1450 N   0  0  0  0  0  0  0  0  0  0  0  0
  140.5220   75.4080  221.6280 C   0  0  0  0  0  0  0  0  0  0  0  0
  140.4200   76.8170  221.5290 N   0  0  0  0  0  0  0  0  0  0  0  0
  139.1100   77.4370  221.6830 C   0  0  0  0  0  0  0  0  0  0  0  0
  139.1940   78.1590  223.0400 C   0  0  0  0  0  0  0  0  0  0  0  0
  140.3070   79.1480  222.9780 C   0  0  0  0  0  0  0  0  0  0  0  0
  140.1820   80.2710  223.7680 C   0  0  0  0  0  0  0  0  0  0  0  0
  141.1750   81.2560  223.7620 C   0  0  0  0  0  0  0  0  0  0  0  0
  142.2520   81.0280  222.9370 C   0  0  0  0  0  0  0  0  0  0  0  0
  142.3860   79.9070  222.1440 C   0  0  0  0  0  0  0  0  0  0  0  0
  141.4070   78.9410  222.1540 C   0  0  0  0  0  0  0  0  0  0  0  0
  141.5310   77.7130  221.3020 C   0  0  0  0  0  0  0  0  0  0  0  0
  139.5470   74.6240  222.1450 N   0  0  0  0  0  0  0  0  0  0  0  0
  141.1770   71.8790  225.9730 C   0  0  0  0  0  0  0  0  0  0  0  0
  141.3380   72.2620  227.3000 C   0  0  0  0  0  0  0  0  0  0  0  0
  140.9268   71.8505  229.3911 H   0  0  0  0  0  0  0  0  0  0  0  0
  139.6147   69.7936  228.8378 H   0  0  0  0  0  0  0  0  0  0  0  0
  139.3396   69.1338  226.4942 H   0  0  0  0  0  0  0  0  0  0  0  0
  140.7122   71.2004  223.6457 H   0  0  0  0  0  0  0  0  0  0  0  0
  140.7989   69.4261  224.1135 H   0  0  0  0  0  0  0  0  0  0  0  0
  138.6532   69.1090  223.6231 H   0  0  0  0  0  0  0  0  0  0  0  0
  138.1263   70.4897  224.5860 H   0  0  0  0  0  0  0  0  0  0  0  0
  139.5414   70.7173  221.8794 H   0  0  0  0  0  0  0  0  0  0  0  0
  137.7133   70.7209  222.1333 H   0  0  0  0  0  0  0  0  0  0  0  0
  137.9010   72.8310  223.2310 H   0  0  0  0  0  0  0  0  0  0  0  0
  142.8530   71.8650  220.4450 H   0  0  0  0  0  0  0  0  0  0  0  0
  144.0955   74.3330  219.6464 H   0  0  0  0  0  0  0  0  0  0  0  0
  144.5018   74.1585  221.3731 H   0  0  0  0  0  0  0  0  0  0  0  0
  146.2400   73.0828  219.8748 H   0  0  0  0  0  0  0  0  0  0  0  0
  145.4696   71.8797  220.9293 H   0  0  0  0  0  0  0  0  0  0  0  0
  144.2283   72.5677  218.2605 H   0  0  0  0  0  0  0  0  0  0  0  0
  145.6840   71.4386  218.3865 H   0  0  0  0  0  0  0  0  0  0  0  0
  145.4173   69.3373  218.7182 H   0  0  0  0  0  0  0  0  0  0  0  0
  144.9161   69.4397  220.4231 H   0  0  0  0  0  0  0  0  0  0  0  0
  143.3835   68.2931  218.0435 H   0  0  0  0  0  0  0  0  0  0  0  0
  143.8660   67.4832  219.6029 H   0  0  0  0  0  0  0  0  0  0  0  0
  140.8092   69.7380  218.7422 H   0  0  0  0  0  0  0  0  0  0  0  0
  141.5399   70.5295  220.1835 H   0  0  0  0  0  0  0  0  0  0  0  0
  142.8780   70.1167  217.4444 H   0  0  0  0  0  0  0  0  0  0  0  0
  142.3559   71.6666  218.1160 H   0  0  0  0  0  0  0  0  0  0  0  0
  138.9191   78.1535  220.8705 H   0  0  0  0  0  0  0  0  0  0  0  0
  138.2893   76.7056  221.6438 H   0  0  0  0  0  0  0  0  0  0  0  0
  138.2461   78.6786  223.2437 H   0  0  0  0  0  0  0  0  0  0  0  0
  139.3787   77.4318  223.8444 H   0  0  0  0  0  0  0  0  0  0  0  0
  139.2953   80.3932  224.4074 H   0  0  0  0  0  0  0  0  0  0  0  0
  141.0991   82.1616  224.3818 H   0  0  0  0  0  0  0  0  0  0  0  0
  143.0519   81.7825  222.9079 H   0  0  0  0  0  0  0  0  0  0  0  0
  143.2735   79.7861  221.5054 H   0  0  0  0  0  0  0  0  0  0  0  0
  141.5451   78.0089  220.2426 H   0  0  0  0  0  0  0  0  0  0  0  0
  142.4634   77.1928  221.5665 H   0  0  0  0  0  0  0  0  0  0  0  0
  141.6271   72.4809  225.1698 H   0  0  0  0  0  0  0  0  0  0  0  0
  141.9172   73.1691  227.5272 H   0  0  0  0  0  0  0  0  0  0  0  0
  1  2  2  0
  2  3  1  0
  3  4  2  0
  4  5  1  0
  5  6  1  0
  6  7  1  0
  7  8  1  0
  8  9  1  0
  9 10  2  0
 10 11  1  0
 11 12  1  0
 12 13  1  0
 13 14  1  0
 14 15  1  0
 15 16  1  0
 16 17  1  0
 17 18  1  0
 18 19  1  0
 19 20  1  0
 20 21  1  0
 11 22  2  0
 22 23  1  0
 23 24  1  0
 24 25  1  0
 25 26  1  0
 26 27  1  0
 27 28  2  0
 28 29  1  0
 29 30  2  0
 30 31  1  0
 31 32  2  0
 32 33  1  0
 23 34  2  0
  4 35  1  0
 35 36  2  0
 36  1  1  0
 34  9  1  0
 21 16  1  0
 33 24  1  0
 32 27  1  0
  1 37  1  0
  2 38  1  0
  3 39  1  0
  5 40  1  0
  5 41  1  0
  6 42  1  0
  6 43  1  0
  7 44  1  0
  7 45  1  0
  8 46  1  0
 12 47  1  0
 13 48  1  0
 13 49  1  0
 14 50  1  0
 14 51  1  0
 15 52  1  0
 15 53  1  0
 17 54  1  0
 17 55  1  0
 18 56  1  0
 18 57  1  0
 20 58  1  0
 20 59  1  0
 21 60  1  0
 21 61  1  0
 25 62  1  0
 25 63  1  0
 26 64  1  0
 26 65  1  0
 28 66  1  0
 29 67  1  0
 30 68  1  0
 31 69  1  0
 33 70  1  0
 33 71  1  0
 35 72  1  0
 36 73  1  0
M  END
>  <smiles>  (30) 
c1ccc(CCCNc2nc(NCCCN3CCOCC3)nc(N3CCc4ccccc4C3)n2)cc1

>  <score_type>  (30) 
oracle

>  <origin>  (30) 
autodockgpu

>  <m_score__min__energy>  (30) 
-9.7400000000000002

>  <m_primary>  (30) 
energy

>  <rmsd>  (30) 
5.323454408780168

>  <m_score__min__rmsd>  (30) 
5.323454408780168

>  <meeko>  (30) 
{"free_energy": -8.93, "intermolecular_energy": -12.21, "internal_energy": -2.13, "cluster_size": 6, "cluster_id": 3, "rank_in_cluster": 3}

>  <energy>  (30) 
-8.89

>  <cluster_rmsd>  (30) 
1.77

>  <cluster>  (30) 
6

$$$$

     RDKit          3D

 73 77  0  0  0  0  0  0  0  0999 V2000
  141.1060   71.5140  228.3400 C   0  0  0  0  0  0  0  0  0  0  0  0
  141.4240   72.2560  227.2250 C   0  0  0  0  0  0  0  0  0  0  0  0
  140.9310   71.8630  226.0000 C   0  0  0  0  0  0  0  0  0  0  0  0
  140.1280   70.7640  225.8030 C   0  0  0  0  0  0  0  0  0  0  0  0
  139.6150   70.3200  224.5110 C   0  0  0  0  0  0  0  0  0  0  0  0
  140.3130   70.9310  223.3040 C   0  0  0  0  0  0  0  0  0  0  0  0
  139.2480   71.7600  222.6170 C   0  0  0  0  0  0  0  0  0  0  0  0
  139.7120   72.9040  221.9130 N   0  0  0  0  0  0  0  0  0  0  0  0
  139.1690   74.2060  221.9850 C   0  0  0  0  0  0  0  0  0  0  0  0
  137.8340   74.2960  222.2600 N   0  0  0  0  0  0  0  0  0  0  0  0
  137.2290   75.4950  222.3700 C   0  0  0  0  0  0  0  0  0  0  0  0
  135.8290   75.5430  222.6840 N   0  0  0  0  0  0  0  0  0  0  0  0
  135.3230   76.0380  223.9480 C   0  0  0  0  0  0  0  0  0  0  0  0
  135.3310   74.8690  224.9400 C   0  0  0  0  0  0  0  0  0  0  0  0
  134.3260   75.2070  226.0130 C   0  0  0  0  0  0  0  0  0  0  0  0
  133.5310   74.1330  226.4790 N   0  0  0  0  0  0  0  0  0  0  0  0
  133.9560   72.8140  226.1770 C   0  0  0  0  0  0  0  0  0  0  0  0
  132.7480   71.9030  226.3400 C   0  0  0  0  0  0  0  0  0  0  0  0
  132.0430   72.1510  227.4880 O   0  0  0  0  0  0  0  0  0  0  0  0
  131.6040   73.4540  227.6460 C   0  0  0  0  0  0  0  0  0  0  0  0
  132.1210   74.3200  226.4930 C   0  0  0  0  0  0  0  0  0  0  0  0
  137.9190   76.6470  222.2130 N   0  0  0  0  0  0  0  0  0  0  0  0
  139.2460   76.5570  221.9410 C   0  0  0  0  0  0  0  0  0  0  0  0
  139.9350   77.7870  221.8100 N   0  0  0  0  0  0  0  0  0  0  0  0
  139.1660   78.9950  221.5350 C   0  0  0  0  0  0  0  0  0  0  0  0
  139.2490   79.7990  222.8450 C   0  0  0  0  0  0  0  0  0  0  0  0
  140.6840   80.0730  223.1390 C   0  0  0  0  0  0  0  0  0  0  0  0
  140.9630   81.2250  223.8420 C   0  0  0  0  0  0  0  0  0  0  0  0
  142.2840   81.5640  224.1510 C   0  0  0  0  0  0  0  0  0  0  0  0
  143.2530   80.6910  223.7150 C   0  0  0  0  0  0  0  0  0  0  0  0
  142.9830   79.5360  223.0110 C   0  0  0  0  0  0  0  0  0  0  0  0
  141.6830   79.2060  222.7100 C   0  0  0  0  0  0  0  0  0  0  0  0
  141.3630   77.9540  221.9470 C   0  0  0  0  0  0  0  0  0  0  0  0
  139.8470   75.3500  221.8310 N   0  0  0  0  0  0  0  0  0  0  0  0
  139.8100   70.0200  226.9290 C   0  0  0  0  0  0  0  0  0  0  0  0
  140.2970   70.3970  228.1750 C   0  0  0  0  0  0  0  0  0  0  0  0
  141.4821   71.7978  229.3340 H   0  0  0  0  0  0  0  0  0  0  0  0
  142.0615   73.1483  227.3107 H   0  0  0  0  0  0  0  0  0  0  0  0
  141.1973   72.4685  225.1211 H   0  0  0  0  0  0  0  0  0  0  0  0
  139.7279   69.2272  224.4550 H   0  0  0  0  0  0  0  0  0  0  0  0
  138.5669   70.6505  224.4633 H   0  0  0  0  0  0  0  0  0  0  0  0
  141.1524   71.5664  223.6228 H   0  0  0  0  0  0  0  0  0  0  0  0
  140.7353   70.1644  222.6376 H   0  0  0  0  0  0  0  0  0  0  0  0
  138.7262   71.1106  221.8987 H   0  0  0  0  0  0  0  0  0  0  0  0
  138.6047   72.1455  223.4217 H   0  0  0  0  0  0  0  0  0  0  0  0
  140.5380   72.7910  221.2690 H   0  0  0  0  0  0  0  0  0  0  0  0
  135.2020   75.1710  221.9160 H   0  0  0  0  0  0  0  0  0  0  0  0
  135.9675   76.8488  224.3184 H   0  0  0  0  0  0  0  0  0  0  0  0
  134.3045   76.4356  223.8275 H   0  0  0  0  0  0  0  0  0  0  0  0
  135.0436   73.9373  224.4308 H   0  0  0  0  0  0  0  0  0  0  0  0
  136.3331   74.7192  225.3682 H   0  0  0  0  0  0  0  0  0  0  0  0
  134.8766   75.6160  226.8730 H   0  0  0  0  0  0  0  0  0  0  0  0
  133.6243   75.9159  225.5493 H   0  0  0  0  0  0  0  0  0  0  0  0
  134.3277   72.7654  225.1429 H   0  0  0  0  0  0  0  0  0  0  0  0
  134.7718   72.5039  226.8466 H   0  0  0  0  0  0  0  0  0  0  0  0
  132.0792   72.0498  225.4791 H   0  0  0  0  0  0  0  0  0  0  0  0
  133.1201   70.8695  226.3985 H   0  0  0  0  0  0  0  0  0  0  0  0
  130.5041   73.4707  227.6503 H   0  0  0  0  0  0  0  0  0  0  0  0
  131.9848   73.8523  228.5980 H   0  0  0  0  0  0  0  0  0  0  0  0
  131.6805   73.9933  225.5395 H   0  0  0  0  0  0  0  0  0  0  0  0
  131.8513   75.3782  226.6250 H   0  0  0  0  0  0  0  0  0  0  0  0
  139.6100   79.5593  220.7017 H   0  0  0  0  0  0  0  0  0  0  0  0
  138.1294   78.7773  221.2382 H   0  0  0  0  0  0  0  0  0  0  0  0
  138.7049   80.7484  222.7332 H   0  0  0  0  0  0  0  0  0  0  0  0
  138.7971   79.2269  223.6687 H   0  0  0  0  0  0  0  0  0  0  0  0
  140.1411   81.8822  224.1622 H   0  0  0  0  0  0  0  0  0  0  0  0
  142.5339   82.4772  224.7111 H   0  0  0  0  0  0  0  0  0  0  0  0
  144.3034   80.9273  223.9406 H   0  0  0  0  0  0  0  0  0  0  0  0
  143.8063   78.8803  222.6911 H   0  0  0  0  0  0  0  0  0  0  0  0
  141.8164   78.0156  220.9467 H   0  0  0  0  0  0  0  0  0  0  0  0
  141.7672   77.0923  222.4985 H   0  0  0  0  0  0  0  0  0  0  0  0
  139.1709   69.1295  226.8360 H   0  0  0  0  0  0  0  0  0  0  0  0
  140.0341   69.7932  229.0561 H   0  0  0  0  0  0  0  0  0  0  0  0
  1  2  2  0
  2  3  1  0
  3  4  2  0
  4  5  1  0
  5  6  1  0
  6  7  1  0
  7  8  1  0
  8  9  1  0
  9 10  2  0
 10 11  1  0
 11 12  1  0
 12 13  1  0
 13 14  1  0
 14 15  1  0
 15 16  1  0
 16 17  1  0
 17 18  1  0
 18 19  1  0
 19 20  1  0
 20 21  1  0
 11 22  2  0
 22 23  1  0
 23 24  1  0
 24 25  1  0
 25 26  1  0
 26 27  1  0
 27 28  2  0
 28 29  1  0
 29 30  2  0
 30 31  1  0
 31 32  2  0
 32 33  1  0
 23 34  2  0
  4 35  1  0
 35 36  2  0
 36  1  1  0
 34  9  1  0
 21 16  1  0
 33 24  1  0
 32 27  1  0
  1 37  1  0
  2 38  1  0
  3 39  1  0
  5 40  1  0
  5 41  1  0
  6 42  1  0
  6 43  1  0
  7 44  1  0
  7 45  1  0
  8 46  1  0
 12 47  1  0
 13 48  1  0
 13 49  1  0
 14 50  1  0
 14 51  1  0
 15 52  1  0
 15 53  1  0
 17 54  1  0
 17 55  1  0
 18 56  1  0
 18 57  1  0
 20 58  1  0
 20 59  1  0
 21 60  1  0
 21 61  1  0
 25 62  1  0
 25 63  1  0
 26 64  1  0
 26 65  1  0
 28 66  1  0
 29 67  1  0
 30 68  1  0
 31 69  1  0
 33 70  1  0
 33 71  1  0
 35 72  1  0
 36 73  1  0
M  END
>  <smiles>  (31) 
c1ccc(CCCNc2nc(NCCCN3CCOCC3)nc(N3CCc4ccccc4C3)n2)cc1

>  <score_type>  (31) 
oracle

>  <origin>  (31) 
autodockgpu

>  <m_score__min__energy>  (31) 
-9.7400000000000002

>  <m_primary>  (31) 
energy

>  <rmsd>  (31) 
5.962760697632264

>  <m_score__min__rmsd>  (31) 
5.962760697632264

>  <meeko>  (31) 
{"free_energy": -9.71, "intermolecular_energy": -13.0, "internal_energy": -1.06, "cluster_size": 15, "cluster_id": 1, "rank_in_cluster": 2}

>  <energy>  (31) 
-8.52

>  <cluster_rmsd>  (31) 
1.05

>  <cluster>  (31) 
6

$$$$

     RDKit          3D

 73 77  0  0  0  0  0  0  0  0999 V2000
  141.0020   71.5140  228.2180 C   0  0  0  0  0  0  0  0  0  0  0  0
  141.4060   72.2540  227.1300 C   0  0  0  0  0  0  0  0  0  0  0  0
  141.0490   71.8350  225.8670 C   0  0  0  0  0  0  0  0  0  0  0  0
  140.3010   70.7100  225.6060 C   0  0  0  0  0  0  0  0  0  0  0  0
  139.9320   70.2390  224.2750 C   0  0  0  0  0  0  0  0  0  0  0  0
  139.2010   71.2610  223.4170 C   0  0  0  0  0  0  0  0  0  0  0  0
  139.9770   71.3040  222.1170 C   0  0  0  0  0  0  0  0  0  0  0  0
  140.7730   72.4620  221.9080 N   0  0  0  0  0  0  0  0  0  0  0  0
  140.3310   73.8020  221.9610 C   0  0  0  0  0  0  0  0  0  0  0  0
  139.0030   73.9960  222.2170 N   0  0  0  0  0  0  0  0  0  0  0  0
  138.4890   75.2380  222.3080 C   0  0  0  0  0  0  0  0  0  0  0  0
  137.0930   75.3950  222.6030 N   0  0  0  0  0  0  0  0  0  0  0  0
  136.2390   76.3270  221.8960 C   0  0  0  0  0  0  0  0  0  0  0  0
  134.8800   75.6480  221.6930 C   0  0  0  0  0  0  0  0  0  0  0  0
  134.9680   74.2970  222.3590 C   0  0  0  0  0  0  0  0  0  0  0  0
  134.6660   74.2670  223.7420 N   0  0  0  0  0  0  0  0  0  0  0  0
  134.5220   75.5060  224.4170 C   0  0  0  0  0  0  0  0  0  0  0  0
  134.6870   75.2300  225.9040 C   0  0  0  0  0  0  0  0  0  0  0  0
  133.9820   74.1340  226.3250 O   0  0  0  0  0  0  0  0  0  0  0  0
  134.2570   72.9560  225.6520 C   0  0  0  0  0  0  0  0  0  0  0  0
  135.2490   73.2260  224.5160 C   0  0  0  0  0  0  0  0  0  0  0  0
  139.2670   76.3330  222.1510 N   0  0  0  0  0  0  0  0  0  0  0  0
  140.5860   76.1400  221.8970 C   0  0  0  0  0  0  0  0  0  0  0  0
  141.3690   77.3130  221.7650 N   0  0  0  0  0  0  0  0  0  0  0  0
  141.9590   77.6180  220.4680 C   0  0  0  0  0  0  0  0  0  0  0  0
  141.1630   78.8390  219.9710 C   0  0  0  0  0  0  0  0  0  0  0  0
  141.3250   79.9400  220.9620 C   0  0  0  0  0  0  0  0  0  0  0  0
  141.2520   81.2270  220.4740 C   0  0  0  0  0  0  0  0  0  0  0  0
  141.4050   82.3210  221.3330 C   0  0  0  0  0  0  0  0  0  0  0  0
  141.6250   82.0250  222.6580 C   0  0  0  0  0  0  0  0  0  0  0  0
  141.7000   80.7410  223.1550 C   0  0  0  0  0  0  0  0  0  0  0  0
  141.5480   79.6690  222.3070 C   0  0  0  0  0  0  0  0  0  0  0  0
  141.6230   78.2620  222.8230 C   0  0  0  0  0  0  0  0  0  0  0  0
  141.0950   74.8900  221.8060 N   0  0  0  0  0  0  0  0  0  0  0  0
  139.8960   69.9680  226.7040 C   0  0  0  0  0  0  0  0  0  0  0  0
  140.2460   70.3710  227.9880 C   0  0  0  0  0  0  0  0  0  0  0  0
  141.2700   71.8187  229.2404 H   0  0  0  0  0  0  0  0  0  0  0  0
  142.0050   73.1664  227.2669 H   0  0  0  0  0  0  0  0  0  0  0  0
  141.3839   72.4395  225.0112 H   0  0  0  0  0  0  0  0  0  0  0  0
  140.8521   69.9455  223.7485 H   0  0  0  0  0  0  0  0  0  0  0  0
  139.2327   69.4033  224.4249 H   0  0  0  0  0  0  0  0  0  0  0  0
  138.1629   70.9444  223.2379 H   0  0  0  0  0  0  0  0  0  0  0  0
  139.1490   72.2473  223.9013 H   0  0  0  0  0  0  0  0  0  0  0  0
  140.6426   70.4285  222.0926 H   0  0  0  0  0  0  0  0  0  0  0  0
  139.2203   71.3146  221.3187 H   0  0  0  0  0  0  0  0  0  0  0  0
  141.7960   72.3290  221.6910 H   0  0  0  0  0  0  0  0  0  0  0  0
  136.7480   74.7780  223.3920 H   0  0  0  0  0  0  0  0  0  0  0  0
  136.1146   77.2454  222.4885 H   0  0  0  0  0  0  0  0  0  0  0  0
  136.6832   76.5995  220.9273 H   0  0  0  0  0  0  0  0  0  0  0  0
  134.0831   76.2482  222.1564 H   0  0  0  0  0  0  0  0  0  0  0  0
  134.6430   75.5478  220.6235 H   0  0  0  0  0  0  0  0  0  0  0  0
  134.2664   73.6225  221.8464 H   0  0  0  0  0  0  0  0  0  0  0  0
  136.0225   73.9943  222.2786 H   0  0  0  0  0  0  0  0  0  0  0  0
  135.2936   76.2124  224.0769 H   0  0  0  0  0  0  0  0  0  0  0  0
  133.5380   75.9517  224.2094 H   0  0  0  0  0  0  0  0  0  0  0  0
  135.7538   75.0625  226.1135 H   0  0  0  0  0  0  0  0  0  0  0  0
  134.2948   76.1027  226.4468 H   0  0  0  0  0  0  0  0  0  0  0  0
  134.6933   72.2287  226.3525 H   0  0  0  0  0  0  0  0  0  0  0  0
  133.3244   72.5522  225.2311 H   0  0  0  0  0  0  0  0  0  0  0  0
  136.2201   73.5462  224.9216 H   0  0  0  0  0  0  0  0  0  0  0  0
  135.4348   72.3246  223.9136 H   0  0  0  0  0  0  0  0  0  0  0  0
  143.0261   77.8637  220.5725 H   0  0  0  0  0  0  0  0  0  0  0  0
  141.9082   76.7686  219.7709 H   0  0  0  0  0  0  0  0  0  0  0  0
  141.5482   79.1604  218.9921 H   0  0  0  0  0  0  0  0  0  0  0  0
  140.0994   78.5794  219.8644 H   0  0  0  0  0  0  0  0  0  0  0  0
  141.0722   81.3953  219.4019 H   0  0  0  0  0  0  0  0  0  0  0  0
  141.3524   83.3579  220.9695 H   0  0  0  0  0  0  0  0  0  0  0  0
  141.7483   82.8611  223.3621 H   0  0  0  0  0  0  0  0  0  0  0  0
  141.8810   80.5745  224.2272 H   0  0  0  0  0  0  0  0  0  0  0  0
  142.6269   78.0822  223.2352 H   0  0  0  0  0  0  0  0  0  0  0  0
  140.8592   78.1319  223.6038 H   0  0  0  0  0  0  0  0  0  0  0  0
  139.2959   69.0575  226.5595 H   0  0  0  0  0  0  0  0  0  0  0  0
  139.9150   69.7677  228.8462 H   0  0  0  0  0  0  0  0  0  0  0  0
  1  2  2  0
  2  3  1  0
  3  4  2  0
  4  5  1  0
  5  6  1  0
  6  7  1  0
  7  8  1  0
  8  9  1  0
  9 10  2  0
 10 11  1  0
 11 12  1  0
 12 13  1  0
 13 14  1  0
 14 15  1  0
 15 16  1  0
 16 17  1  0
 17 18  1  0
 18 19  1  0
 19 20  1  0
 20 21  1  0
 11 22  2  0
 22 23  1  0
 23 24  1  0
 24 25  1  0
 25 26  1  0
 26 27  1  0
 27 28  2  0
 28 29  1  0
 29 30  2  0
 30 31  1  0
 31 32  2  0
 32 33  1  0
 23 34  2  0
  4 35  1  0
 35 36  2  0
 36  1  1  0
 34  9  1  0
 21 16  1  0
 33 24  1  0
 32 27  1  0
  1 37  1  0
  2 38  1  0
  3 39  1  0
  5 40  1  0
  5 41  1  0
  6 42  1  0
  6 43  1  0
  7 44  1  0
  7 45  1  0
  8 46  1  0
 12 47  1  0
 13 48  1  0
 13 49  1  0
 14 50  1  0
 14 51  1  0
 15 52  1  0
 15 53  1  0
 17 54  1  0
 17 55  1  0
 18 56  1  0
 18 57  1  0
 20 58  1  0
 20 59  1  0
 21 60  1  0
 21 61  1  0
 25 62  1  0
 25 63  1  0
 26 64  1  0
 26 65  1  0
 28 66  1  0
 29 67  1  0
 30 68  1  0
 31 69  1  0
 33 70  1  0
 33 71  1  0
 35 72  1  0
 36 73  1  0
M  END
>  <smiles>  (32) 
c1ccc(CCCNc2nc(NCCCN3CCOCC3)nc(N3CCc4ccccc4C3)n2)cc1

>  <score_type>  (32) 
oracle

>  <origin>  (32) 
autodockgpu

>  <m_score__min__energy>  (32) 
-9.7400000000000002

>  <m_primary>  (32) 
energy

>  <rmsd>  (32) 
4.595930281835451

>  <m_score__min__rmsd>  (32) 
4.595930281835451

>  <meeko>  (32) 
{"free_energy": -8.89, "intermolecular_energy": -12.17, "internal_energy": -1.85, "cluster_size": 15, "cluster_id": 1, "rank_in_cluster": 10}

>  <energy>  (32) 
-8.47

>  <cluster_rmsd>  (32) 
1.83

>  <cluster>  (32) 
6

$$$$

     RDKit          3D

 73 77  0  0  0  0  0  0  0  0999 V2000
  142.7710   76.4800  218.3710 C   0  0  0  0  0  0  0  0  0  0  0  0
  143.3190   76.5700  219.6310 C   0  0  0  0  0  0  0  0  0  0  0  0
  144.0910   75.5290  220.0990 C   0  0  0  0  0  0  0  0  0  0  0  0
  144.3620   74.3840  219.3870 C   0  0  0  0  0  0  0  0  0  0  0  0
  145.1580   73.2620  219.8750 C   0  0  0  0  0  0  0  0  0  0  0  0
  144.4320   72.3380  220.8420 C   0  0  0  0  0  0  0  0  0  0  0  0
  143.7700   71.2970  219.9640 C   0  0  0  0  0  0  0  0  0  0  0  0
  142.3520   71.2430  220.0250 N   0  0  0  0  0  0  0  0  0  0  0  0
  141.5310   71.8990  220.9700 C   0  0  0  0  0  0  0  0  0  0  0  0
  141.0950   73.1490  220.6340 N   0  0  0  0  0  0  0  0  0  0  0  0
  140.2890   73.8470  221.4590 C   0  0  0  0  0  0  0  0  0  0  0  0
  139.8350   75.1470  221.0550 N   0  0  0  0  0  0  0  0  0  0  0  0
  140.6500   76.3380  221.1740 C   0  0  0  0  0  0  0  0  0  0  0  0
  140.1240   77.1420  222.3680 C   0  0  0  0  0  0  0  0  0  0  0  0
  141.3320   77.6120  223.1390 C   0  0  0  0  0  0  0  0  0  0  0  0
  141.4380   79.0100  223.3350 N   0  0  0  0  0  0  0  0  0  0  0  0
  140.2650   79.7920  223.1810 C   0  0  0  0  0  0  0  0  0  0  0  0
  140.7080   81.2310  222.9600 C   0  0  0  0  0  0  0  0  0  0  0  0
  141.6870   81.6280  223.8310 O   0  0  0  0  0  0  0  0  0  0  0  0
  142.8260   80.8410  223.8450 C   0  0  0  0  0  0  0  0  0  0  0  0
  142.6390   79.6420  222.9090 C   0  0  0  0  0  0  0  0  0  0  0  0
  139.8860   73.3350  222.6440 N   0  0  0  0  0  0  0  0  0  0  0  0
  140.3190   72.0930  222.9770 C   0  0  0  0  0  0  0  0  0  0  0  0
  139.8520   71.5850  224.2140 N   0  0  0  0  0  0  0  0  0  0  0  0
  138.6350   70.7830  224.2270 C   0  0  0  0  0  0  0  0  0  0  0  0
  139.1290   69.3580  224.5370 C   0  0  0  0  0  0  0  0  0  0  0  0
  139.8310   69.3790  225.8510 C   0  0  0  0  0  0  0  0  0  0  0  0
  139.7990   68.2150  226.5880 C   0  0  0  0  0  0  0  0  0  0  0  0
  140.4230   68.1500  227.8380 C   0  0  0  0  0  0  0  0  0  0  0  0
  141.0510   69.2980  228.2630 C   0  0  0  0  0  0  0  0  0  0  0  0
  141.0880   70.4670  227.5320 C   0  0  0  0  0  0  0  0  0  0  0  0
  140.4740   70.5260  226.3030 C   0  0  0  0  0  0  0  0  0  0  0  0
  140.5020   71.7850  225.4880 C   0  0  0  0  0  0  0  0  0  0  0  0
  141.1280   71.3990  222.1440 N   0  0  0  0  0  0  0  0  0  0  0  0
  143.8090   74.2970  218.1200 C   0  0  0  0  0  0  0  0  0  0  0  0
  143.0260   75.3350  217.6270 C   0  0  0  0  0  0  0  0  0  0  0  0
  142.1491   77.2915  217.9652 H   0  0  0  0  0  0  0  0  0  0  0  0
  143.1432   77.4592  220.2543 H   0  0  0  0  0  0  0  0  0  0  0  0
  144.5186   75.6197  221.1084 H   0  0  0  0  0  0  0  0  0  0  0  0
  145.4780   72.6663  219.0074 H   0  0  0  0  0  0  0  0  0  0  0  0
  145.9981   73.6985  220.4351 H   0  0  0  0  0  0  0  0  0  0  0  0
  145.1445   71.8645  221.5335 H   0  0  0  0  0  0  0  0  0  0  0  0
  143.7035   72.8792  221.4636 H   0  0  0  0  0  0  0  0  0  0  0  0
  144.0546   71.5051  218.9220 H   0  0  0  0  0  0  0  0  0  0  0  0
  144.1207   70.3246  220.3402 H   0  0  0  0  0  0  0  0  0  0  0  0
  141.8440   70.6630  219.3070 H   0  0  0  0  0  0  0  0  0  0  0  0
  138.8470   75.1580  220.6740 H   0  0  0  0  0  0  0  0  0  0  0  0
  141.7003   76.0584  221.3435 H   0  0  0  0  0  0  0  0  0  0  0  0
  140.5972   76.9359  220.2522 H   0  0  0  0  0  0  0  0  0  0  0  0
  139.5394   78.0048  222.0162 H   0  0  0  0  0  0  0  0  0  0  0  0
  139.4654   76.5278  222.9997 H   0  0  0  0  0  0  0  0  0  0  0  0
  141.3057   77.1344  224.1296 H   0  0  0  0  0  0  0  0  0  0  0  0
  142.2019   77.3317  222.5269 H   0  0  0  0  0  0  0  0  0  0  0  0
  139.6876   79.4383  222.3141 H   0  0  0  0  0  0  0  0  0  0  0  0
  139.6242   79.7136  224.0717 H   0  0  0  0  0  0  0  0  0  0  0  0
  141.0920   81.3261  221.9336 H   0  0  0  0  0  0  0  0  0  0  0  0
  139.8331   81.8752  223.1317 H   0  0  0  0  0  0  0  0  0  0  0  0
  143.6864   81.4374  223.5073 H   0  0  0  0  0  0  0  0  0  0  0  0
  143.0052   80.4790  224.8682 H   0  0  0  0  0  0  0  0  0  0  0  0
  142.5467   79.9794  221.8661 H   0  0  0  0  0  0  0  0  0  0  0  0
  143.4975   78.9555  222.9493 H   0  0  0  0  0  0  0  0  0  0  0  0
  137.9434   71.1350  225.0067 H   0  0  0  0  0  0  0  0  0  0  0  0
  138.0804   70.8411  223.2788 H   0  0  0  0  0  0  0  0  0  0  0  0
  138.2721   68.6699  224.5846 H   0  0  0  0  0  0  0  0  0  0  0  0
  139.8145   69.0156  223.7478 H   0  0  0  0  0  0  0  0  0  0  0  0
  139.2791   67.3309  226.1904 H   0  0  0  0  0  0  0  0  0  0  0  0
  140.4123   67.2336  228.4464 H   0  0  0  0  0  0  0  0  0  0  0  0
  141.5523   69.2826  229.2420 H   0  0  0  0  0  0  0  0  0  0  0  0
  141.6077   71.3504  227.9314 H   0  0  0  0  0  0  0  0  0  0  0  0
  139.9805   72.5823  226.0378 H   0  0  0  0  0  0  0  0  0  0  0  0
  141.5503   72.0663  225.3090 H   0  0  0  0  0  0  0  0  0  0  0  0
  143.9897   73.4048  217.5025 H   0  0  0  0  0  0  0  0  0  0  0  0
  142.5960   75.2468  216.6184 H   0  0  0  0  0  0  0  0  0  0  0  0
  1  2  2  0
  2  3  1  0
  3  4  2  0
  4  5  1  0
  5  6  1  0
  6  7  1  0
  7  8  1  0
  8  9  1  0
  9 10  2  0
 10 11  1  0
 11 12  1  0
 12 13  1  0
 13 14  1  0
 14 15  1  0
 15 16  1  0
 16 17  1  0
 17 18  1  0
 18 19  1  0
 19 20  1  0
 20 21  1  0
 11 22  2  0
 22 23  1  0
 23 24  1  0
 24 25  1  0
 25 26  1  0
 26 27  1  0
 27 28  2  0
 28 29  1  0
 29 30  2  0
 30 31  1  0
 31 32  2  0
 32 33  1  0
 23 34  2  0
  4 35  1  0
 35 36  2  0
 36  1  1  0
 34  9  1  0
 21 16  1  0
 33 24  1  0
 32 27  1  0
  1 37  1  0
  2 38  1  0
  3 39  1  0
  5 40  1  0
  5 41  1  0
  6 42  1  0
  6 43  1  0
  7 44  1  0
  7 45  1  0
  8 46  1  0
 12 47  1  0
 13 48  1  0
 13 49  1  0
 14 50  1  0
 14 51  1  0
 15 52  1  0
 15 53  1  0
 17 54  1  0
 17 55  1  0
 18 56  1  0
 18 57  1  0
 20 58  1  0
 20 59  1  0
 21 60  1  0
 21 61  1  0
 25 62  1  0
 25 63  1  0
 26 64  1  0
 26 65  1  0
 28 66  1  0
 29 67  1  0
 30 68  1  0
 31 69  1  0
 33 70  1  0
 33 71  1  0
 35 72  1  0
 36 73  1  0
M  END
>  <smiles>  (33) 
c1ccc(CCCNc2nc(NCCCN3CCOCC3)nc(N3CCc4ccccc4C3)n2)cc1

>  <score_type>  (33) 
oracle

>  <origin>  (33) 
autodockgpu

>  <m_score__min__energy>  (33) 
-9.7400000000000002

>  <m_primary>  (33) 
energy

>  <rmsd>  (33) 
11.36689417529126

>  <m_score__min__rmsd>  (33) 
11.36689417529126

>  <meeko>  (33) 
{"free_energy": -8.58, "intermolecular_energy": -11.87, "internal_energy": -1.9, "cluster_size": 4, "cluster_id": 7, "rank_in_cluster": 3}

>  <energy>  (33) 
-8.45

>  <cluster_rmsd>  (33) 
1.85

>  <cluster>  (33) 
6

$$$$

     RDKit          3D

 73 77  0  0  0  0  0  0  0  0999 V2000
  146.2740   66.7100  219.2320 C   0  0  0  0  0  0  0  0  0  0  0  0
  145.0470   66.1360  218.9850 C   0  0  0  0  0  0  0  0  0  0  0  0
  143.9300   66.9420  218.9350 C   0  0  0  0  0  0  0  0  0  0  0  0
  143.9500   68.3050  219.1170 C   0  0  0  0  0  0  0  0  0  0  0  0
  142.7760   69.1720  219.0910 C   0  0  0  0  0  0  0  0  0  0  0  0
  141.4590   68.4700  219.3910 C   0  0  0  0  0  0  0  0  0  0  0  0
  140.3890   69.4730  219.0160 C   0  0  0  0  0  0  0  0  0  0  0  0
  140.7260   70.8400  219.2050 N   0  0  0  0  0  0  0  0  0  0  0  0
  140.7060   71.5450  220.4290 C   0  0  0  0  0  0  0  0  0  0  0  0
  141.1350   72.8410  220.3930 N   0  0  0  0  0  0  0  0  0  0  0  0
  141.1330   73.6030  221.5050 C   0  0  0  0  0  0  0  0  0  0  0  0
  141.5690   74.9680  221.4160 N   0  0  0  0  0  0  0  0  0  0  0  0
  141.2240   75.8330  220.3080 C   0  0  0  0  0  0  0  0  0  0  0  0
  142.1870   75.5190  219.1570 C   0  0  0  0  0  0  0  0  0  0  0  0
  143.5810   75.5940  219.7270 C   0  0  0  0  0  0  0  0  0  0  0  0
  144.3740   74.4300  219.5840 N   0  0  0  0  0  0  0  0  0  0  0  0
  144.1920   73.6430  218.4180 C   0  0  0  0  0  0  0  0  0  0  0  0
  144.7600   72.2620  218.7130 C   0  0  0  0  0  0  0  0  0  0  0  0
  145.9840   72.3080  219.3260 O   0  0  0  0  0  0  0  0  0  0  0  0
  146.0330   73.0370  220.5020 C   0  0  0  0  0  0  0  0  0  0  0  0
  144.6740   73.6930  220.7630 C   0  0  0  0  0  0  0  0  0  0  0  0
  140.7070   73.1130  222.6910 N   0  0  0  0  0  0  0  0  0  0  0  0
  140.2790   71.8250  222.7260 C   0  0  0  0  0  0  0  0  0  0  0  0
  139.8180   71.3600  223.9810 N   0  0  0  0  0  0  0  0  0  0  0  0
  138.6380   70.5050  224.0210 C   0  0  0  0  0  0  0  0  0  0  0  0
  139.1910   69.1210  224.4090 C   0  0  0  0  0  0  0  0  0  0  0  0
  139.8730   69.2400  225.7290 C   0  0  0  0  0  0  0  0  0  0  0  0
  139.8830   68.1140  226.5240 C   0  0  0  0  0  0  0  0  0  0  0  0
  140.4910   68.1420  227.7830 C   0  0  0  0  0  0  0  0  0  0  0  0
  141.0600   69.3370  228.1560 C   0  0  0  0  0  0  0  0  0  0  0  0
  141.0550   70.4680  227.3670 C   0  0  0  0  0  0  0  0  0  0  0  0
  140.4570   70.4370  226.1300 C   0  0  0  0  0  0  0  0  0  0  0  0
  140.4400   71.6530  225.2510 C   0  0  0  0  0  0  0  0  0  0  0  0
  140.2860   71.0660  221.6060 N   0  0  0  0  0  0  0  0  0  0  0  0
  145.1860   68.8790  219.3660 C   0  0  0  0  0  0  0  0  0  0  0  0
  146.3260   68.0860  219.4210 C   0  0  0  0  0  0  0  0  0  0  0  0
  147.1865   66.0974  219.2784 H   0  0  0  0  0  0  0  0  0  0  0  0
  144.9595   65.0505  218.8299 H   0  0  0  0  0  0  0  0  0  0  0  0
  142.9594   66.4639  218.7366 H   0  0  0  0  0  0  0  0  0  0  0  0
  142.9195   69.9653  219.8394 H   0  0  0  0  0  0  0  0  0  0  0  0
  142.6961   69.5554  218.0631 H   0  0  0  0  0  0  0  0  0  0  0  0
  141.3613   67.5558  218.7871 H   0  0  0  0  0  0  0  0  0  0  0  0
  141.3854   68.1600  220.4438 H   0  0  0  0  0  0  0  0  0  0  0  0
  140.1501   69.3288  217.9520 H   0  0  0  0  0  0  0  0  0  0  0  0
  139.5466   69.2775  219.6958 H   0  0  0  0  0  0  0  0  0  0  0  0
  141.0220   71.4010  218.3630 H   0  0  0  0  0  0  0  0  0  0  0  0
  142.1760   75.2790  222.2260 H   0  0  0  0  0  0  0  0  0  0  0  0
  140.1876   75.6428  219.9923 H   0  0  0  0  0  0  0  0  0  0  0  0
  141.3061   76.8896  220.6028 H   0  0  0  0  0  0  0  0  0  0  0  0
  141.9918   74.5104  218.7636 H   0  0  0  0  0  0  0  0  0  0  0  0
  142.0591   76.2309  218.3282 H   0  0  0  0  0  0  0  0  0  0  0  0
  144.1050   76.4216  219.2266 H   0  0  0  0  0  0  0  0  0  0  0  0
  143.4510   75.7327  220.8105 H   0  0  0  0  0  0  0  0  0  0  0  0
  143.1211   73.5666  218.1784 H   0  0  0  0  0  0  0  0  0  0  0  0
  144.7018   74.0986  217.5563 H   0  0  0  0  0  0  0  0  0  0  0  0
  144.0584   71.7272  219.3701 H   0  0  0  0  0  0  0  0  0  0  0  0
  144.8928   71.7475  217.7499 H   0  0  0  0  0  0  0  0  0  0  0  0
  146.2810   72.3659  221.3375 H   0  0  0  0  0  0  0  0  0  0  0  0
  146.8022   73.8183  220.4131 H   0  0  0  0  0  0  0  0  0  0  0  0
  143.9057   72.9267  220.9431 H   0  0  0  0  0  0  0  0  0  0  0  0
  144.6974   74.3392  221.6528 H   0  0  0  0  0  0  0  0  0  0  0  0
  137.9207   70.8641  224.7737 H   0  0  0  0  0  0  0  0  0  0  0  0
  138.0945   70.4899  223.0647 H   0  0  0  0  0  0  0  0  0  0  0  0
  138.3652   68.3979  224.4814 H   0  0  0  0  0  0  0  0  0  0  0  0
  139.9022   68.7708  223.6464 H   0  0  0  0  0  0  0  0  0  0  0  0
  139.4098   67.1878  226.1659 H   0  0  0  0  0  0  0  0  0  0  0  0
  140.5128   67.2583  228.4377 H   0  0  0  0  0  0  0  0  0  0  0  0
  141.5473   69.3941  229.1405 H   0  0  0  0  0  0  0  0  0  0  0  0
  141.5287   71.3932  227.7270 H   0  0  0  0  0  0  0  0  0  0  0  0
  139.8756   72.4527  225.7529 H   0  0  0  0  0  0  0  0  0  0  0  0
  141.4773   71.9714  225.0701 H   0  0  0  0  0  0  0  0  0  0  0  0
  145.2653   69.9652  219.5206 H   0  0  0  0  0  0  0  0  0  0  0  0
  147.2979   68.5612  219.6200 H   0  0  0  0  0  0  0  0  0  0  0  0
  1  2  2  0
  2  3  1  0
  3  4  2  0
  4  5  1  0
  5  6  1  0
  6  7  1  0
  7  8  1  0
  8  9  1  0
  9 10  2  0
 10 11  1  0
 11 12  1  0
 12 13  1  0
 13 14  1  0
 14 15  1  0
 15 16  1  0
 16 17  1  0
 17 18  1  0
 18 19  1  0
 19 20  1  0
 20 21  1  0
 11 22  2  0
 22 23  1  0
 23 24  1  0
 24 25  1  0
 25 26  1  0
 26 27  1  0
 27 28  2  0
 28 29  1  0
 29 30  2  0
 30 31  1  0
 31 32  2  0
 32 33  1  0
 23 34  2  0
  4 35  1  0
 35 36  2  0
 36  1  1  0
 34  9  1  0
 21 16  1  0
 33 24  1  0
 32 27  1  0
  1 37  1  0
  2 38  1  0
  3 39  1  0
  5 40  1  0
  5 41  1  0
  6 42  1  0
  6 43  1  0
  7 44  1  0
  7 45  1  0
  8 46  1  0
 12 47  1  0
 13 48  1  0
 13 49  1  0
 14 50  1  0
 14 51  1  0
 15 52  1  0
 15 53  1  0
 17 54  1  0
 17 55  1  0
 18 56  1  0
 18 57  1  0
 20 58  1  0
 20 59  1  0
 21 60  1  0
 21 61  1  0
 25 62  1  0
 25 63  1  0
 26 64  1  0
 26 65  1  0
 28 66  1  0
 29 67  1  0
 30 68  1  0
 31 69  1  0
 33 70  1  0
 33 71  1  0
 35 72  1  0
 36 73  1  0
M  END
>  <smiles>  (34) 
c1ccc(CCCNc2nc(NCCCN3CCOCC3)nc(N3CCc4ccccc4C3)n2)cc1

>  <score_type>  (34) 
oracle

>  <origin>  (34) 
autodockgpu

>  <m_score__min__energy>  (34) 
-9.7400000000000002

>  <m_primary>  (34) 
energy

>  <rmsd>  (34) 
11.360653730336567

>  <m_score__min__rmsd>  (34) 
11.360653730336567

>  <meeko>  (34) 
{"free_energy": -9.03, "intermolecular_energy": -12.31, "internal_energy": -1.99, "cluster_size": 2, "cluster_id": 5, "rank_in_cluster": 1}

>  <energy>  (34) 
-8.4

>  <cluster_rmsd>  (34) 
1.87

>  <cluster>  (34) 
6

$$$$

     RDKit          3D

 73 77  0  0  0  0  0  0  0  0999 V2000
  140.7250   68.1720  228.0110 C   0  0  0  0  0  0  0  0  0  0  0  0
  141.0300   69.4520  228.4150 C   0  0  0  0  0  0  0  0  0  0  0  0
  140.9890   70.4730  227.4900 C   0  0  0  0  0  0  0  0  0  0  0  0
  140.6590   70.3050  226.1660 C   0  0  0  0  0  0  0  0  0  0  0  0
  140.6330   71.3690  225.1670 C   0  0  0  0  0  0  0  0  0  0  0  0
  139.5300   71.2400  224.1270 C   0  0  0  0  0  0  0  0  0  0  0  0
  140.2530   71.1520  222.8000 C   0  0  0  0  0  0  0  0  0  0  0  0
  140.6860   72.3870  222.2460 N   0  0  0  0  0  0  0  0  0  0  0  0
  139.9060   73.5560  222.0980 C   0  0  0  0  0  0  0  0  0  0  0  0
  138.5500   73.3920  222.1270 N   0  0  0  0  0  0  0  0  0  0  0  0
  137.7220   74.4500  222.0150 C   0  0  0  0  0  0  0  0  0  0  0  0
  136.3040   74.2330  222.0750 N   0  0  0  0  0  0  0  0  0  0  0  0
  135.5690   73.5450  221.0340 C   0  0  0  0  0  0  0  0  0  0  0  0
  134.3360   72.9060  221.6830 C   0  0  0  0  0  0  0  0  0  0  0  0
  133.5940   74.0160  222.3860 C   0  0  0  0  0  0  0  0  0  0  0  0
  133.8440   74.1480  223.7730 N   0  0  0  0  0  0  0  0  0  0  0  0
  134.1480   75.4410  224.2710 C   0  0  0  0  0  0  0  0  0  0  0  0
  134.8310   75.2560  225.6190 C   0  0  0  0  0  0  0  0  0  0  0  0
  134.1940   74.3440  226.4180 O   0  0  0  0  0  0  0  0  0  0  0  0
  134.0210   73.0870  225.8650 C   0  0  0  0  0  0  0  0  0  0  0  0
  134.5270   73.0810  224.4190 C   0  0  0  0  0  0  0  0  0  0  0  0
  138.2020   75.7060  221.8730 N   0  0  0  0  0  0  0  0  0  0  0  0
  139.5500   75.8680  221.8470 C   0  0  0  0  0  0  0  0  0  0  0  0
  140.0100   77.2020  221.7230 N   0  0  0  0  0  0  0  0  0  0  0  0
  139.0280   78.2720  221.6000 C   0  0  0  0  0  0  0  0  0  0  0  0
  139.1210   79.0210  222.9420 C   0  0  0  0  0  0  0  0  0  0  0  0
  140.5150   79.5210  223.1060 C   0  0  0  0  0  0  0  0  0  0  0  0
  140.6780   80.6720  223.8470 C   0  0  0  0  0  0  0  0  0  0  0  0
  141.9510   81.2170  224.0410 C   0  0  0  0  0  0  0  0  0  0  0  0
  142.9960   80.5400  223.4560 C   0  0  0  0  0  0  0  0  0  0  0  0
  142.8430   79.3880  222.7130 C   0  0  0  0  0  0  0  0  0  0  0  0
  141.5900   78.8550  222.5260 C   0  0  0  0  0  0  0  0  0  0  0  0
  141.3970   77.6020  221.7240 C   0  0  0  0  0  0  0  0  0  0  0  0
  140.3750   74.8010  221.9570 N   0  0  0  0  0  0  0  0  0  0  0  0
  140.3530   69.0150  225.7620 C   0  0  0  0  0  0  0  0  0  0  0  0
  140.3890   67.9700  226.6780 C   0  0  0  0  0  0  0  0  0  0  0  0
  140.7466   67.3335  228.7227 H   0  0  0  0  0  0  0  0  0  0  0  0
  141.3025   69.6571  229.4608 H   0  0  0  0  0  0  0  0  0  0  0  0
  141.2364   71.4883  227.8335 H   0  0  0  0  0  0  0  0  0  0  0  0
  140.4994   72.3271  225.6907 H   0  0  0  0  0  0  0  0  0  0  0  0
  141.5847   71.3032  224.6193 H   0  0  0  0  0  0  0  0  0  0  0  0
  138.9352   70.3318  224.3045 H   0  0  0  0  0  0  0  0  0  0  0  0
  138.8286   72.0867  224.1606 H   0  0  0  0  0  0  0  0  0  0  0  0
  141.1397   70.5164  222.9408 H   0  0  0  0  0  0  0  0  0  0  0  0
  139.5192   70.7471  222.0875 H   0  0  0  0  0  0  0  0  0  0  0  0
  141.6810   72.4590  221.9060 H   0  0  0  0  0  0  0  0  0  0  0  0
  135.8440   74.6340  222.9400 H   0  0  0  0  0  0  0  0  0  0  0  0
  135.2567   74.2609  220.2594 H   0  0  0  0  0  0  0  0  0  0  0  0
  136.1979   72.7772  220.5597 H   0  0  0  0  0  0  0  0  0  0  0  0
  133.6959   72.4496  220.9136 H   0  0  0  0  0  0  0  0  0  0  0  0
  134.6254   72.1135  222.3888 H   0  0  0  0  0  0  0  0  0  0  0  0
  133.8704   74.9646  221.9024 H   0  0  0  0  0  0  0  0  0  0  0  0
  132.5275   73.7609  222.2998 H   0  0  0  0  0  0  0  0  0  0  0  0
  134.8216   75.9636  223.5759 H   0  0  0  0  0  0  0  0  0  0  0  0
  133.2337   76.0434  224.3763 H   0  0  0  0  0  0  0  0  0  0  0  0
  135.8615   74.9121  225.4462 H   0  0  0  0  0  0  0  0  0  0  0  0
  134.8049   76.2253  226.1383 H   0  0  0  0  0  0  0  0  0  0  0  0
  134.5864   72.3488  226.4526 H   0  0  0  0  0  0  0  0  0  0  0  0
  132.9515   72.8298  225.8762 H   0  0  0  0  0  0  0  0  0  0  0  0
  135.6139   73.2477  224.3914 H   0  0  0  0  0  0  0  0  0  0  0  0
  134.3380   72.1168  223.9245 H   0  0  0  0  0  0  0  0  0  0  0  0
  139.2796   78.9388  220.7621 H   0  0  0  0  0  0  0  0  0  0  0  0
  138.0151   77.8948  221.3956 H   0  0  0  0  0  0  0  0  0  0  0  0
  138.4197   79.8685  222.9438 H   0  0  0  0  0  0  0  0  0  0  0  0
  138.8619   78.3455  223.7706 H   0  0  0  0  0  0  0  0  0  0  0  0
  139.7999   81.1655  224.2890 H   0  0  0  0  0  0  0  0  0  0  0  0
  142.1078   82.1342  224.6276 H   0  0  0  0  0  0  0  0  0  0  0  0
  144.0120   80.9404  223.5884 H   0  0  0  0  0  0  0  0  0  0  0  0
  143.7223   78.8967  222.2709 H   0  0  0  0  0  0  0  0  0  0  0  0
  141.7207   77.7833  220.6885 H   0  0  0  0  0  0  0  0  0  0  0  0
  141.9953   76.7979  222.1772 H   0  0  0  0  0  0  0  0  0  0  0  0
  140.0811   68.8177  224.7145 H   0  0  0  0  0  0  0  0  0  0  0  0
  140.1443   66.9531  226.3375 H   0  0  0  0  0  0  0  0  0  0  0  0
  1  2  2  0
  2  3  1  0
  3  4  2  0
  4  5  1  0
  5  6  1  0
  6  7  1  0
  7  8  1  0
  8  9  1  0
  9 10  2  0
 10 11  1  0
 11 12  1  0
 12 13  1  0
 13 14  1  0
 14 15  1  0
 15 16  1  0
 16 17  1  0
 17 18  1  0
 18 19  1  0
 19 20  1  0
 20 21  1  0
 11 22  2  0
 22 23  1  0
 23 24  1  0
 24 25  1  0
 25 26  1  0
 26 27  1  0
 27 28  2  0
 28 29  1  0
 29 30  2  0
 30 31  1  0
 31 32  2  0
 32 33  1  0
 23 34  2  0
  4 35  1  0
 35 36  2  0
 36  1  1  0
 34  9  1  0
 21 16  1  0
 33 24  1  0
 32 27  1  0
  1 37  1  0
  2 38  1  0
  3 39  1  0
  5 40  1  0
  5 41  1  0
  6 42  1  0
  6 43  1  0
  7 44  1  0
  7 45  1  0
  8 46  1  0
 12 47  1  0
 13 48  1  0
 13 49  1  0
 14 50  1  0
 14 51  1  0
 15 52  1  0
 15 53  1  0
 17 54  1  0
 17 55  1  0
 18 56  1  0
 18 57  1  0
 20 58  1  0
 20 59  1  0
 21 60  1  0
 21 61  1  0
 25 62  1  0
 25 63  1  0
 26 64  1  0
 26 65  1  0
 28 66  1  0
 29 67  1  0
 30 68  1  0
 31 69  1  0
 33 70  1  0
 33 71  1  0
 35 72  1  0
 36 73  1  0
M  END
>  <smiles>  (35) 
c1ccc(CCCNc2nc(NCCCN3CCOCC3)nc(N3CCc4ccccc4C3)n2)cc1

>  <score_type>  (35) 
oracle

>  <origin>  (35) 
autodockgpu

>  <m_score__min__energy>  (35) 
-9.7400000000000002

>  <m_primary>  (35) 
energy

>  <rmsd>  (35) 
5.703195538355631

>  <m_score__min__rmsd>  (35) 
5.703195538355631

>  <meeko>  (35) 
{"free_energy": -8.73, "intermolecular_energy": -12.01, "internal_energy": -1.81, "cluster_size": 15, "cluster_id": 1, "rank_in_cluster": 14}

>  <energy>  (35) 
-8.34

>  <cluster_rmsd>  (35) 
1.04

>  <cluster>  (35) 
6

$$$$

     RDKit          3D

 73 77  0  0  0  0  0  0  0  0999 V2000
  140.9900   71.4770  228.4200 C   0  0  0  0  0  0  0  0  0  0  0  0
  141.4270   72.2580  227.3740 C   0  0  0  0  0  0  0  0  0  0  0  0
  141.0860   71.9010  226.0870 C   0  0  0  0  0  0  0  0  0  0  0  0
  140.3250   70.8020  225.7630 C   0  0  0  0  0  0  0  0  0  0  0  0
  139.9740   70.3970  224.4060 C   0  0  0  0  0  0  0  0  0  0  0  0
  139.6310   71.5440  223.4660 C   0  0  0  0  0  0  0  0  0  0  0  0
  140.6940   71.4950  222.3890 C   0  0  0  0  0  0  0  0  0  0  0  0
  140.6700   72.5570  221.4450 N   0  0  0  0  0  0  0  0  0  0  0  0
  140.2570   73.8850  221.6920 C   0  0  0  0  0  0  0  0  0  0  0  0
  138.9530   74.0590  222.0600 N   0  0  0  0  0  0  0  0  0  0  0  0
  138.4700   75.2870  222.3370 C   0  0  0  0  0  0  0  0  0  0  0  0
  137.0990   75.4200  222.7440 N   0  0  0  0  0  0  0  0  0  0  0  0
  136.0610   75.9110  221.8630 C   0  0  0  0  0  0  0  0  0  0  0  0
  136.3570   77.3880  221.5760 C   0  0  0  0  0  0  0  0  0  0  0  0
  136.5470   78.0580  222.9150 C   0  0  0  0  0  0  0  0  0  0  0  0
  137.1290   79.3480  222.8860 N   0  0  0  0  0  0  0  0  0  0  0  0
  136.9290   80.1400  221.7260 C   0  0  0  0  0  0  0  0  0  0  0  0
  138.0050   81.2170  221.7250 C   0  0  0  0  0  0  0  0  0  0  0  0
  138.1620   81.8160  222.9470 O   0  0  0  0  0  0  0  0  0  0  0  0
  138.4350   80.9580  223.9990 C   0  0  0  0  0  0  0  0  0  0  0  0
  138.3980   79.5070  223.5090 C   0  0  0  0  0  0  0  0  0  0  0  0
  139.2560   76.3850  222.2620 N   0  0  0  0  0  0  0  0  0  0  0  0
  140.5510   76.2100  221.8970 C   0  0  0  0  0  0  0  0  0  0  0  0
  141.3450   77.3820  221.8550 N   0  0  0  0  0  0  0  0  0  0  0  0
  141.9370   77.7820  220.5850 C   0  0  0  0  0  0  0  0  0  0  0  0
  141.1530   79.0450  220.1860 C   0  0  0  0  0  0  0  0  0  0  0  0
  141.3260   80.0650  221.2590 C   0  0  0  0  0  0  0  0  0  0  0  0
  141.2650   81.3870  220.8730 C   0  0  0  0  0  0  0  0  0  0  0  0
  141.4290   82.4080  221.8150 C   0  0  0  0  0  0  0  0  0  0  0  0
  141.6470   82.0080  223.1130 C   0  0  0  0  0  0  0  0  0  0  0  0
  141.7090   80.6880  223.5080 C   0  0  0  0  0  0  0  0  0  0  0  0
  141.5470   79.6870  222.5790 C   0  0  0  0  0  0  0  0  0  0  0  0
  141.6080   78.2440  222.9840 C   0  0  0  0  0  0  0  0  0  0  0  0
  141.0290   74.9760  221.6180 N   0  0  0  0  0  0  0  0  0  0  0  0
  139.8880   70.0190  226.8190 C   0  0  0  0  0  0  0  0  0  0  0  0
  140.2200   70.3580  228.1250 C   0  0  0  0  0  0  0  0  0  0  0  0
  141.2430   71.7313  229.4599 H   0  0  0  0  0  0  0  0  0  0  0  0
  142.0386   73.1527  227.5622 H   0  0  0  0  0  0  0  0  0  0  0  0
  141.4462   72.5369  225.2649 H   0  0  0  0  0  0  0  0  0  0  0  0
  140.8281   69.8497  223.9806 H   0  0  0  0  0  0  0  0  0  0  0  0
  139.0646   69.7841  224.4913 H   0  0  0  0  0  0  0  0  0  0  0  0
  138.6312   71.4015  223.0300 H   0  0  0  0  0  0  0  0  0  0  0  0
  139.6113   72.5136  223.9851 H   0  0  0  0  0  0  0  0  0  0  0  0
  141.6762   71.5062  222.8841 H   0  0  0  0  0  0  0  0  0  0  0  0
  140.4924   70.5798  221.8130 H   0  0  0  0  0  0  0  0  0  0  0  0
  140.9860   72.3550  220.4600 H   0  0  0  0  0  0  0  0  0  0  0  0
  136.9200   75.1400  223.7500 H   0  0  0  0  0  0  0  0  0  0  0  0
  136.0643   75.3384  220.9238 H   0  0  0  0  0  0  0  0  0  0  0  0
  135.0719   75.7990  222.3312 H   0  0  0  0  0  0  0  0  0  0  0  0
  137.2714   77.4814  220.9718 H   0  0  0  0  0  0  0  0  0  0  0  0
  135.5360   77.8547  221.0119 H   0  0  0  0  0  0  0  0  0  0  0  0
  135.5592   78.1450  223.3910 H   0  0  0  0  0  0  0  0  0  0  0  0
  137.2576   77.4242  223.4657 H   0  0  0  0  0  0  0  0  0  0  0  0
  137.0188   79.5167  220.8241 H   0  0  0  0  0  0  0  0  0  0  0  0
  135.9256   80.5907  221.7292 H   0  0  0  0  0  0  0  0  0  0  0  0
  138.9611   80.7574  221.4342 H   0  0  0  0  0  0  0  0  0  0  0  0
  137.6915   81.9956  221.0140 H   0  0  0  0  0  0  0  0  0  0  0  0
  139.4335   81.1816  224.4028 H   0  0  0  0  0  0  0  0  0  0  0  0
  137.6778   81.0951  224.7850 H   0  0  0  0  0  0  0  0  0  0  0  0
  139.2067   79.3248  222.7859 H   0  0  0  0  0  0  0  0  0  0  0  0
  138.5393   78.7940  224.3346 H   0  0  0  0  0  0  0  0  0  0  0  0
  143.0065   78.0086  220.7070 H   0  0  0  0  0  0  0  0  0  0  0  0
  141.8774   76.9903  219.8237 H   0  0  0  0  0  0  0  0  0  0  0  0
  141.5405   79.4376  219.2343 H   0  0  0  0  0  0  0  0  0  0  0  0
  140.0869   78.8044  220.0618 H   0  0  0  0  0  0  0  0  0  0  0  0
  141.0862   81.6406  219.8177 H   0  0  0  0  0  0  0  0  0  0  0  0
  141.3861   83.4706  221.5338 H   0  0  0  0  0  0  0  0  0  0  0  0
  141.7795   82.7854  223.8798 H   0  0  0  0  0  0  0  0  0  0  0  0
  141.8876   80.4364  224.5638 H   0  0  0  0  0  0  0  0  0  0  0  0
  142.6099   78.0230  223.3806 H   0  0  0  0  0  0  0  0  0  0  0  0
  140.8426   78.0612  223.7526 H   0  0  0  0  0  0  0  0  0  0  0  0
  139.2762   69.1261  226.6230 H   0  0  0  0  0  0  0  0  0  0  0  0
  139.8632   69.7226  228.9490 H   0  0  0  0  0  0  0  0  0  0  0  0
  1  2  2  0
  2  3  1  0
  3  4  2  0
  4  5  1  0
  5  6  1  0
  6  7  1  0
  7  8  1  0
  8  9  1  0
  9 10  2  0
 10 11  1  0
 11 12  1  0
 12 13  1  0
 13 14  1  0
 14 15  1  0
 15 16  1  0
 16 17  1  0
 17 18  1  0
 18 19  1  0
 19 20  1  0
 20 21  1  0
 11 22  2  0
 22 23  1  0
 23 24  1  0
 24 25  1  0
 25 26  1  0
 26 27  1  0
 27 28  2  0
 28 29  1  0
 29 30  2  0
 30 31  1  0
 31 32  2  0
 32 33  1  0
 23 34  2  0
  4 35  1  0
 35 36  2  0
 36  1  1  0
 34  9  1  0
 21 16  1  0
 33 24  1  0
 32 27  1  0
  1 37  1  0
  2 38  1  0
  3 39  1  0
  5 40  1  0
  5 41  1  0
  6 42  1  0
  6 43  1  0
  7 44  1  0
  7 45  1  0
  8 46  1  0
 12 47  1  0
 13 48  1  0
 13 49  1  0
 14 50  1  0
 14 51  1  0
 15 52  1  0
 15 53  1  0
 17 54  1  0
 17 55  1  0
 18 56  1  0
 18 57  1  0
 20 58  1  0
 20 59  1  0
 21 60  1  0
 21 61  1  0
 25 62  1  0
 25 63  1  0
 26 64  1  0
 26 65  1  0
 28 66  1  0
 29 67  1  0
 30 68  1  0
 31 69  1  0
 33 70  1  0
 33 71  1  0
 35 72  1  0
 36 73  1  0
M  END
>  <smiles>  (36) 
c1ccc(CCCNc2nc(NCCCN3CCOCC3)nc(N3CCc4ccccc4C3)n2)cc1

>  <score_type>  (36) 
oracle

>  <origin>  (36) 
autodockgpu

>  <m_score__min__energy>  (36) 
-9.7400000000000002

>  <m_primary>  (36) 
energy

>  <rmsd>  (36) 
4.839243581222099

>  <m_score__min__rmsd>  (36) 
4.839243581222099

>  <meeko>  (36) 
{"free_energy": -8.06, "intermolecular_energy": -11.35, "internal_energy": -2.36, "cluster_size": 1, "cluster_id": 10, "rank_in_cluster": 1}

>  <energy>  (36) 
-8.28

>  <cluster_rmsd>  (36) 
1.06

>  <cluster>  (36) 
6

$$$$

     RDKit          3D

 73 77  0  0  0  0  0  0  0  0999 V2000
  145.9980   72.6270  220.7380 C   0  0  0  0  0  0  0  0  0  0  0  0
  145.4880   72.2050  219.5300 C   0  0  0  0  0  0  0  0  0  0  0  0
  144.6310   73.0350  218.8410 C   0  0  0  0  0  0  0  0  0  0  0  0
  144.2390   74.2790  219.2770 C   0  0  0  0  0  0  0  0  0  0  0  0
  143.3150   75.1620  218.5720 C   0  0  0  0  0  0  0  0  0  0  0  0
  142.8120   76.3430  219.3900 C   0  0  0  0  0  0  0  0  0  0  0  0
  141.4900   75.8840  219.9670 C   0  0  0  0  0  0  0  0  0  0  0  0
  141.5600   75.1910  221.2050 N   0  0  0  0  0  0  0  0  0  0  0  0
  141.2480   73.8310  221.4210 C   0  0  0  0  0  0  0  0  0  0  0  0
  141.5760   72.9630  220.4180 N   0  0  0  0  0  0  0  0  0  0  0  0
  141.3380   71.6420  220.5390 C   0  0  0  0  0  0  0  0  0  0  0  0
  141.7210   70.7640  219.4700 N   0  0  0  0  0  0  0  0  0  0  0  0
  140.9350   70.6040  218.2640 C   0  0  0  0  0  0  0  0  0  0  0  0
  141.8420   69.9740  217.2000 C   0  0  0  0  0  0  0  0  0  0  0  0
  142.3140   68.6560  217.7610 C   0  0  0  0  0  0  0  0  0  0  0  0
  143.5800   68.6690  218.3950 N   0  0  0  0  0  0  0  0  0  0  0  0
  144.5680   69.5490  217.8850 C   0  0  0  0  0  0  0  0  0  0  0  0
  145.9170   69.0480  218.3810 C   0  0  0  0  0  0  0  0  0  0  0  0
  145.9090   68.7230  219.7110 O   0  0  0  0  0  0  0  0  0  0  0  0
  144.9570   67.7920  220.0900 C   0  0  0  0  0  0  0  0  0  0  0  0
  144.0770   67.4310  218.8890 C   0  0  0  0  0  0  0  0  0  0  0  0
  140.7690   71.1310  221.6540 N   0  0  0  0  0  0  0  0  0  0  0  0
  140.4450   71.9930  222.6510 C   0  0  0  0  0  0  0  0  0  0  0  0
  139.8750   71.4120  223.8100 N   0  0  0  0  0  0  0  0  0  0  0  0
  138.6710   70.6020  223.6680 C   0  0  0  0  0  0  0  0  0  0  0  0
  139.1520   69.1650  223.9390 C   0  0  0  0  0  0  0  0  0  0  0  0
  139.7340   69.1150  225.3100 C   0  0  0  0  0  0  0  0  0  0  0  0
  139.6500   67.9090  225.9740 C   0  0  0  0  0  0  0  0  0  0  0  0
  140.1610   67.7770  227.2700 C   0  0  0  0  0  0  0  0  0  0  0  0
  140.7350   68.9020  227.8140 C   0  0  0  0  0  0  0  0  0  0  0  0
  140.8230   70.1120  227.1570 C   0  0  0  0  0  0  0  0  0  0  0  0
  140.3210   70.2380  225.8840 C   0  0  0  0  0  0  0  0  0  0  0  0
  140.4060   71.5420  225.1470 C   0  0  0  0  0  0  0  0  0  0  0  0
  140.6850   73.3180  222.5220 N   0  0  0  0  0  0  0  0  0  0  0  0
  144.7540   74.7000  220.4930 C   0  0  0  0  0  0  0  0  0  0  0  0
  145.6200   73.8790  221.2070 C   0  0  0  0  0  0  0  0  0  0  0  0
  146.6851   71.9907  221.3151 H   0  0  0  0  0  0  0  0  0  0  0  0
  145.7608   71.2206  219.1218 H   0  0  0  0  0  0  0  0  0  0  0  0
  144.2341   72.6792  217.8788 H   0  0  0  0  0  0  0  0  0  0  0  0
  143.8290   75.5557  217.6827 H   0  0  0  0  0  0  0  0  0  0  0  0
  142.4308   74.5546  218.3286 H   0  0  0  0  0  0  0  0  0  0  0  0
  143.5215   76.5864  220.1946 H   0  0  0  0  0  0  0  0  0  0  0  0
  142.7038   77.2522  218.7803 H   0  0  0  0  0  0  0  0  0  0  0  0
  140.8596   76.7734  220.1139 H   0  0  0  0  0  0  0  0  0  0  0  0
  141.0849   75.1609  219.2438 H   0  0  0  0  0  0  0  0  0  0  0  0
  141.8730   75.7270  222.0580 H   0  0  0  0  0  0  0  0  0  0  0  0
  142.6210   70.2360  219.6490 H   0  0  0  0  0  0  0  0  0  0  0  0
  140.0753   69.9467  218.4610 H   0  0  0  0  0  0  0  0  0  0  0  0
  140.5532   71.5765  217.9197 H   0  0  0  0  0  0  0  0  0  0  0  0
  141.2784   69.8104  216.2696 H   0  0  0  0  0  0  0  0  0  0  0  0
  142.6917   70.6314  216.9636 H   0  0  0  0  0  0  0  0  0  0  0  0
  141.5713   68.3192  218.4992 H   0  0  0  0  0  0  0  0  0  0  0  0
  142.4230   67.9869  216.8947 H   0  0  0  0  0  0  0  0  0  0  0  0
  144.5454   69.5441  216.7852 H   0  0  0  0  0  0  0  0  0  0  0  0
  144.3855   70.5793  218.2243 H   0  0  0  0  0  0  0  0  0  0  0  0
  146.1934   68.1539  217.8030 H   0  0  0  0  0  0  0  0  0  0  0  0
  146.6422   69.8639  218.2452 H   0  0  0  0  0  0  0  0  0  0  0  0
  145.4593   66.8860  220.4601 H   0  0  0  0  0  0  0  0  0  0  0  0
  144.3284   68.2186  220.8856 H   0  0  0  0  0  0  0  0  0  0  0  0
  144.6711   66.9200  218.1171 H   0  0  0  0  0  0  0  0  0  0  0  0
  143.2622   66.7481  219.1713 H   0  0  0  0  0  0  0  0  0  0  0  0
  137.9086   70.9036  224.4014 H   0  0  0  0  0  0  0  0  0  0  0  0
  138.2026   70.7112  222.6787 H   0  0  0  0  0  0  0  0  0  0  0  0
  138.3024   68.4696  223.8704 H   0  0  0  0  0  0  0  0  0  0  0  0
  139.9088   68.8731  223.1960 H   0  0  0  0  0  0  0  0  0  0  0  0
  139.1784   67.0457  225.4818 H   0  0  0  0  0  0  0  0  0  0  0  0
  140.1066   66.8272  227.8223 H   0  0  0  0  0  0  0  0  0  0  0  0
  141.1477   68.8332  228.8313 H   0  0  0  0  0  0  0  0  0  0  0  0
  141.2942   70.9744  227.6513 H   0  0  0  0  0  0  0  0  0  0  0  0
  139.8278   72.3025  225.6922 H   0  0  0  0  0  0  0  0  0  0  0  0
  141.4627   71.8399  225.0789 H   0  0  0  0  0  0  0  0  0  0  0  0
  144.4770   75.6860  220.8943 H   0  0  0  0  0  0  0  0  0  0  0  0
  146.0171   74.2309  222.1706 H   0  0  0  0  0  0  0  0  0  0  0  0
  1  2  2  0
  2  3  1  0
  3  4  2  0
  4  5  1  0
  5  6  1  0
  6  7  1  0
  7  8  1  0
  8  9  1  0
  9 10  2  0
 10 11  1  0
 11 12  1  0
 12 13  1  0
 13 14  1  0
 14 15  1  0
 15 16  1  0
 16 17  1  0
 17 18  1  0
 18 19  1  0
 19 20  1  0
 20 21  1  0
 11 22  2  0
 22 23  1  0
 23 24  1  0
 24 25  1  0
 25 26  1  0
 26 27  1  0
 27 28  2  0
 28 29  1  0
 29 30  2  0
 30 31  1  0
 31 32  2  0
 32 33  1  0
 23 34  2  0
  4 35  1  0
 35 36  2  0
 36  1  1  0
 34  9  1  0
 21 16  1  0
 33 24  1  0
 32 27  1  0
  1 37  1  0
  2 38  1  0
  3 39  1  0
  5 40  1  0
  5 41  1  0
  6 42  1  0
  6 43  1  0
  7 44  1  0
  7 45  1  0
  8 46  1  0
 12 47  1  0
 13 48  1  0
 13 49  1  0
 14 50  1  0
 14 51  1  0
 15 52  1  0
 15 53  1  0
 17 54  1  0
 17 55  1  0
 18 56  1  0
 18 57  1  0
 20 58  1  0
 20 59  1  0
 21 60  1  0
 21 61  1  0
 25 62  1  0
 25 63  1  0
 26 64  1  0
 26 65  1  0
 28 66  1  0
 29 67  1  0
 30 68  1  0
 31 69  1  0
 33 70  1  0
 33 71  1  0
 35 72  1  0
 36 73  1  0
M  END
>  <smiles>  (37) 
c1ccc(CCCNc2nc(NCCCN3CCOCC3)nc(N3CCc4ccccc4C3)n2)cc1

>  <score_type>  (37) 
oracle

>  <origin>  (37) 
autodockgpu

>  <m_score__min__energy>  (37) 
-9.7400000000000002

>  <m_primary>  (37) 
energy

>  <rmsd>  (37) 
11.318659604665443

>  <m_score__min__rmsd>  (37) 
11.318659604665443

>  <meeko>  (37) 
{"free_energy": -8.23, "intermolecular_energy": -11.51, "internal_energy": -2.92, "cluster_size": 2, "cluster_id": 9, "rank_in_cluster": 1}

>  <energy>  (37) 
-8.27

>  <cluster_rmsd>  (37) 
1.02

>  <cluster>  (37) 
6

$$$$

     RDKit          3D

 73 77  0  0  0  0  0  0  0  0999 V2000
  142.2630   81.1930  223.6870 C   0  0  0  0  0  0  0  0  0  0  0  0
  143.0740   80.2490  223.0990 C   0  0  0  0  0  0  0  0  0  0  0  0
  142.5210   79.0560  222.6870 C   0  0  0  0  0  0  0  0  0  0  0  0
  141.1910   78.7320  222.8200 C   0  0  0  0  0  0  0  0  0  0  0  0
  140.5910   77.4670  222.4100 C   0  0  0  0  0  0  0  0  0  0  0  0
  139.0720   77.4290  222.4780 C   0  0  0  0  0  0  0  0  0  0  0  0
  138.6760   76.2070  221.6770 C   0  0  0  0  0  0  0  0  0  0  0  0
  139.7460   75.4580  221.1180 N   0  0  0  0  0  0  0  0  0  0  0  0
  140.1840   74.1840  221.5400 C   0  0  0  0  0  0  0  0  0  0  0  0
  141.1870   73.6110  220.8100 N   0  0  0  0  0  0  0  0  0  0  0  0
  141.6880   72.4060  221.1470 C   0  0  0  0  0  0  0  0  0  0  0  0
  142.7580   71.8530  220.3660 N   0  0  0  0  0  0  0  0  0  0  0  0
  144.1450   71.9150  220.7760 C   0  0  0  0  0  0  0  0  0  0  0  0
  144.8710   72.8640  219.8150 C   0  0  0  0  0  0  0  0  0  0  0  0
  144.6370   74.2620  220.3310 C   0  0  0  0  0  0  0  0  0  0  0  0
  143.5950   74.9870  219.7050 N   0  0  0  0  0  0  0  0  0  0  0  0
  143.0120   74.4360  218.5350 C   0  0  0  0  0  0  0  0  0  0  0  0
  142.3050   75.5690  217.8060 C   0  0  0  0  0  0  0  0  0  0  0  0
  141.5550   76.3550  218.6410 O   0  0  0  0  0  0  0  0  0  0  0  0
  142.2400   76.9110  219.7080 C   0  0  0  0  0  0  0  0  0  0  0  0
  143.6870   76.4070  219.7170 C   0  0  0  0  0  0  0  0  0  0  0  0
  141.2190   71.7250  222.2170 N   0  0  0  0  0  0  0  0  0  0  0  0
  140.2240   72.2950  222.9430 C   0  0  0  0  0  0  0  0  0  0  0  0
  139.7800   71.5590  224.0680 N   0  0  0  0  0  0  0  0  0  0  0  0
  138.5150   70.8400  223.9800 C   0  0  0  0  0  0  0  0  0  0  0  0
  138.9290   69.3570  223.9520 C   0  0  0  0  0  0  0  0  0  0  0  0
  139.6890   69.0570  225.1980 C   0  0  0  0  0  0  0  0  0  0  0  0
  139.6140   67.7640  225.6720 C   0  0  0  0  0  0  0  0  0  0  0  0
  140.2870   67.3980  226.8420 C   0  0  0  0  0  0  0  0  0  0  0  0
  141.0060   68.3930  227.4650 C   0  0  0  0  0  0  0  0  0  0  0  0
  141.0860   69.6880  226.9980 C   0  0  0  0  0  0  0  0  0  0  0  0
  140.4240   70.0430  225.8470 C   0  0  0  0  0  0  0  0  0  0  0  0
  140.4970   71.4440  225.3170 C   0  0  0  0  0  0  0  0  0  0  0  0
  139.7240   73.5040  222.5970 N   0  0  0  0  0  0  0  0  0  0  0  0
  140.3780   79.6860  223.4110 C   0  0  0  0  0  0  0  0  0  0  0  0
  140.9140   80.8960  223.8360 C   0  0  0  0  0  0  0  0  0  0  0  0
  142.6714   82.1553  224.0292 H   0  0  0  0  0  0  0  0  0  0  0  0
  144.1476   80.4440  222.9601 H   0  0  0  0  0  0  0  0  0  0  0  0
  143.1867   78.3144  222.2213 H   0  0  0  0  0  0  0  0  0  0  0  0
  140.8920   77.2664  221.3712 H   0  0  0  0  0  0  0  0  0  0  0  0
  140.9515   76.7089  223.1208 H   0  0  0  0  0  0  0  0  0  0  0  0
  138.7336   77.3347  223.5204 H   0  0  0  0  0  0  0  0  0  0  0  0
  138.6169   78.3488  222.0819 H   0  0  0  0  0  0  0  0  0  0  0  0
  138.1074   75.5388  222.3405 H   0  0  0  0  0  0  0  0  0  0  0  0
  138.0990   76.5864  220.8208 H   0  0  0  0  0  0  0  0  0  0  0  0
  140.2770   75.8770  220.3090 H   0  0  0  0  0  0  0  0  0  0  0  0
  142.4420   71.4090  219.4580 H   0  0  0  0  0  0  0  0  0  0  0  0
  144.2151   72.2974  221.8050 H   0  0  0  0  0  0  0  0  0  0  0  0
  144.6009   70.9143  220.7484 H   0  0  0  0  0  0  0  0  0  0  0  0
  145.9478   72.6397  219.8015 H   0  0  0  0  0  0  0  0  0  0  0  0
  144.4947   72.7523  218.7874 H   0  0  0  0  0  0  0  0  0  0  0  0
  144.4005   74.1902  221.4029 H   0  0  0  0  0  0  0  0  0  0  0  0
  145.5600   74.8184  220.1106 H   0  0  0  0  0  0  0  0  0  0  0  0
  143.7934   74.0044  217.8923 H   0  0  0  0  0  0  0  0  0  0  0  0
  142.3026   73.6358  218.7928 H   0  0  0  0  0  0  0  0  0  0  0  0
  143.0630   76.1992  217.3179 H   0  0  0  0  0  0  0  0  0  0  0  0
  141.6188   75.1143  217.0764 H   0  0  0  0  0  0  0  0  0  0  0  0
  142.2359   78.0069  219.6131 H   0  0  0  0  0  0  0  0  0  0  0  0
  141.7481   76.6177  220.6471 H   0  0  0  0  0  0  0  0  0  0  0  0
  144.2243   76.7650  218.8264 H   0  0  0  0  0  0  0  0  0  0  0  0
  144.2411   76.7727  220.5941 H   0  0  0  0  0  0  0  0  0  0  0  0
  137.8829   71.0528  224.8547 H   0  0  0  0  0  0  0  0  0  0  0  0
  137.9238   71.1307  223.0991 H   0  0  0  0  0  0  0  0  0  0  0  0
  138.0323   68.7219  223.9018 H   0  0  0  0  0  0  0  0  0  0  0  0
  139.5549   69.1560  223.0700 H   0  0  0  0  0  0  0  0  0  0  0  0
  139.0208   67.0156  225.1261 H   0  0  0  0  0  0  0  0  0  0  0  0
  140.2443   66.3740  227.2415 H   0  0  0  0  0  0  0  0  0  0  0  0
  141.5478   68.1405  228.3884 H   0  0  0  0  0  0  0  0  0  0  0  0
  141.6786   70.4356  227.5457 H   0  0  0  0  0  0  0  0  0  0  0  0
  140.0528   72.1311  226.0522 H   0  0  0  0  0  0  0  0  0  0  0  0
  141.5524   71.6998  225.1420 H   0  0  0  0  0  0  0  0  0  0  0  0
  139.3048   79.4850  223.5442 H   0  0  0  0  0  0  0  0  0  0  0  0
  140.2515   81.6393  224.3035 H   0  0  0  0  0  0  0  0  0  0  0  0
  1  2  2  0
  2  3  1  0
  3  4  2  0
  4  5  1  0
  5  6  1  0
  6  7  1  0
  7  8  1  0
  8  9  1  0
  9 10  2  0
 10 11  1  0
 11 12  1  0
 12 13  1  0
 13 14  1  0
 14 15  1  0
 15 16  1  0
 16 17  1  0
 17 18  1  0
 18 19  1  0
 19 20  1  0
 20 21  1  0
 11 22  2  0
 22 23  1  0
 23 24  1  0
 24 25  1  0
 25 26  1  0
 26 27  1  0
 27 28  2  0
 28 29  1  0
 29 30  2  0
 30 31  1  0
 31 32  2  0
 32 33  1  0
 23 34  2  0
  4 35  1  0
 35 36  2  0
 36  1  1  0
 34  9  1  0
 21 16  1  0
 33 24  1  0
 32 27  1  0
  1 37  1  0
  2 38  1  0
  3 39  1  0
  5 40  1  0
  5 41  1  0
  6 42  1  0
  6 43  1  0
  7 44  1  0
  7 45  1  0
  8 46  1  0
 12 47  1  0
 13 48  1  0
 13 49  1  0
 14 50  1  0
 14 51  1  0
 15 52  1  0
 15 53  1  0
 17 54  1  0
 17 55  1  0
 18 56  1  0
 18 57  1  0
 20 58  1  0
 20 59  1  0
 21 60  1  0
 21 61  1  0
 25 62  1  0
 25 63  1  0
 26 64  1  0
 26 65  1  0
 28 66  1  0
 29 67  1  0
 30 68  1  0
 31 69  1  0
 33 70  1  0
 33 71  1  0
 35 72  1  0
 36 73  1  0
M  END
>  <smiles>  (38) 
c1ccc(CCCNc2nc(NCCCN3CCOCC3)nc(N3CCc4ccccc4C3)n2)cc1

>  <score_type>  (38) 
oracle

>  <origin>  (38) 
autodockgpu

>  <m_score__min__energy>  (38) 
-9.7400000000000002

>  <m_primary>  (38) 
energy

>  <rmsd>  (38) 
11.399138566383296

>  <m_score__min__rmsd>  (38) 
11.399138566383296

>  <meeko>  (38) 
{"free_energy": -8.89, "intermolecular_energy": -12.17, "internal_energy": -2.64, "cluster_size": 11, "cluster_id": 6, "rank_in_cluster": 2}

>  <energy>  (38) 
-8.18

>  <cluster_rmsd>  (38) 
1.8

>  <cluster>  (38) 
6

$$$$

     RDKit          3D

 73 77  0  0  0  0  0  0  0  0999 V2000
  141.0720   68.2020  228.2050 C   0  0  0  0  0  0  0  0  0  0  0  0
  141.0060   69.5710  228.3340 C   0  0  0  0  0  0  0  0  0  0  0  0
  140.4520   70.3110  227.3120 C   0  0  0  0  0  0  0  0  0  0  0  0
  139.9490   69.7740  226.1500 C   0  0  0  0  0  0  0  0  0  0  0  0
  139.3810   70.5430  225.0480 C   0  0  0  0  0  0  0  0  0  0  0  0
  140.3480   71.5080  224.3770 C   0  0  0  0  0  0  0  0  0  0  0  0
  140.1740   71.2660  222.8930 C   0  0  0  0  0  0  0  0  0  0  0  0
  140.3690   72.3950  222.0530 N   0  0  0  0  0  0  0  0  0  0  0  0
  139.5990   73.5790  222.0520 C   0  0  0  0  0  0  0  0  0  0  0  0
  138.2590   73.4350  222.2710 N   0  0  0  0  0  0  0  0  0  0  0  0
  137.4440   74.5070  222.3100 C   0  0  0  0  0  0  0  0  0  0  0  0
  136.0450   74.3110  222.5680 N   0  0  0  0  0  0  0  0  0  0  0  0
  135.3170   75.0590  223.5710 C   0  0  0  0  0  0  0  0  0  0  0  0
  135.0800   74.1250  224.7640 C   0  0  0  0  0  0  0  0  0  0  0  0
  134.1460   73.0420  224.2840 C   0  0  0  0  0  0  0  0  0  0  0  0
  134.0900   71.8730  225.0830 N   0  0  0  0  0  0  0  0  0  0  0  0
  133.6350   72.0050  226.4190 C   0  0  0  0  0  0  0  0  0  0  0  0
  134.1130   70.7770  227.1810 C   0  0  0  0  0  0  0  0  0  0  0  0
  133.9030   69.6090  226.4960 O   0  0  0  0  0  0  0  0  0  0  0  0
  134.4600   69.5550  225.2300 C   0  0  0  0  0  0  0  0  0  0  0  0
  135.1090   70.9000  224.8890 C   0  0  0  0  0  0  0  0  0  0  0  0
  137.9220   75.7600  222.1350 N   0  0  0  0  0  0  0  0  0  0  0  0
  139.2550   75.9030  221.9180 C   0  0  0  0  0  0  0  0  0  0  0  0
  139.7170   77.2320  221.7660 N   0  0  0  0  0  0  0  0  0  0  0  0
  138.7400   78.3130  221.7190 C   0  0  0  0  0  0  0  0  0  0  0  0
  138.9370   79.0550  223.0530 C   0  0  0  0  0  0  0  0  0  0  0  0
  140.3440   79.5410  223.1170 C   0  0  0  0  0  0  0  0  0  0  0  0
  140.5710   80.6870  223.8490 C   0  0  0  0  0  0  0  0  0  0  0  0
  141.8600   81.2190  223.9520 C   0  0  0  0  0  0  0  0  0  0  0  0
  142.8540   80.5350  223.2910 C   0  0  0  0  0  0  0  0  0  0  0  0
  142.6360   79.3870  222.5570 C   0  0  0  0  0  0  0  0  0  0  0  0
  141.3670   78.8680  222.4590 C   0  0  0  0  0  0  0  0  0  0  0  0
  141.1050   77.6200  221.6690 C   0  0  0  0  0  0  0  0  0  0  0  0
  140.0670   74.8210  221.8790 N   0  0  0  0  0  0  0  0  0  0  0  0
  140.0180   68.3950  226.0250 C   0  0  0  0  0  0  0  0  0  0  0  0
  140.5730   67.6280  227.0420 C   0  0  0  0  0  0  0  0  0  0  0  0
  141.5077   67.5797  229.0005 H   0  0  0  0  0  0  0  0  0  0  0  0
  141.3893   70.0662  229.2383 H   0  0  0  0  0  0  0  0  0  0  0  0
  140.4092   71.4034  227.4336 H   0  0  0  0  0  0  0  0  0  0  0  0
  139.0208   69.8352  224.2869 H   0  0  0  0  0  0  0  0  0  0  0  0
  138.5798   71.1595  225.4817 H   0  0  0  0  0  0  0  0  0  0  0  0
  140.0958   72.5480  224.6316 H   0  0  0  0  0  0  0  0  0  0  0  0
  141.3861   71.3474  224.7035 H   0  0  0  0  0  0  0  0  0  0  0  0
  140.8954   70.4925  222.5908 H   0  0  0  0  0  0  0  0  0  0  0  0
  139.1216   70.9746  222.7604 H   0  0  0  0  0  0  0  0  0  0  0  0
  141.1590   72.3660  221.3560 H   0  0  0  0  0  0  0  0  0  0  0  0
  135.5980   73.5610  221.9670 H   0  0  0  0  0  0  0  0  0  0  0  0
  135.9060   75.9318  223.8891 H   0  0  0  0  0  0  0  0  0  0  0  0
  134.3598   75.4188  223.1657 H   0  0  0  0  0  0  0  0  0  0  0  0
  136.0318   73.6854  225.0969 H   0  0  0  0  0  0  0  0  0  0  0  0
  134.6496   74.6712  225.6163 H   0  0  0  0  0  0  0  0  0  0  0  0
  133.1326   73.4673  224.2377 H   0  0  0  0  0  0  0  0  0  0  0  0
  134.5420   72.7179  223.3103 H   0  0  0  0  0  0  0  0  0  0  0  0
  134.0539   72.9159  226.8715 H   0  0  0  0  0  0  0  0  0  0  0  0
  132.5382   72.0824  226.4520 H   0  0  0  0  0  0  0  0  0  0  0  0
  135.1908   70.8815  227.3744 H   0  0  0  0  0  0  0  0  0  0  0  0
  133.5331   70.7212  228.1141 H   0  0  0  0  0  0  0  0  0  0  0  0
  135.2235   68.7636  225.2007 H   0  0  0  0  0  0  0  0  0  0  0  0
  133.6706   69.3369  224.4957 H   0  0  0  0  0  0  0  0  0  0  0  0
  135.9605   71.0965  225.5571 H   0  0  0  0  0  0  0  0  0  0  0  0
  135.4986   70.9163  223.8605 H   0  0  0  0  0  0  0  0  0  0  0  0
  138.9374   78.9811  220.8677 H   0  0  0  0  0  0  0  0  0  0  0  0
  137.7111   77.9469  221.5874 H   0  0  0  0  0  0  0  0  0  0  0  0
  138.2460   79.9090  223.1087 H   0  0  0  0  0  0  0  0  0  0  0  0
  138.7319   78.3785  223.8958 H   0  0  0  0  0  0  0  0  0  0  0  0
  139.7320   81.1864  224.3557 H   0  0  0  0  0  0  0  0  0  0  0  0
  142.0675   82.1324  224.5287 H   0  0  0  0  0  0  0  0  0  0  0  0
  143.8807   80.9254  223.3510 H   0  0  0  0  0  0  0  0  0  0  0  0
  143.4760   78.8883  222.0514 H   0  0  0  0  0  0  0  0  0  0  0  0
  141.3553   77.8024  220.6135 H   0  0  0  0  0  0  0  0  0  0  0  0
  141.7266   76.8088  222.0759 H   0  0  0  0  0  0  0  0  0  0  0  0
  139.6322   67.9066  225.1180 H   0  0  0  0  0  0  0  0  0  0  0  0
  140.6187   66.5354  226.9232 H   0  0  0  0  0  0  0  0  0  0  0  0
  1  2  2  0
  2  3  1  0
  3  4  2  0
  4  5  1  0
  5  6  1  0
  6  7  1  0
  7  8  1  0
  8  9  1  0
  9 10  2  0
 10 11  1  0
 11 12  1  0
 12 13  1  0
 13 14  1  0
 14 15  1  0
 15 16  1  0
 16 17  1  0
 17 18  1  0
 18 19  1  0
 19 20  1  0
 20 21  1  0
 11 22  2  0
 22 23  1  0
 23 24  1  0
 24 25  1  0
 25 26  1  0
 26 27  1  0
 27 28  2  0
 28 29  1  0
 29 30  2  0
 30 31  1  0
 31 32  2  0
 32 33  1  0
 23 34  2  0
  4 35  1  0
 35 36  2  0
 36  1  1  0
 34  9  1  0
 21 16  1  0
 33 24  1  0
 32 27  1  0
  1 37  1  0
  2 38  1  0
  3 39  1  0
  5 40  1  0
  5 41  1  0
  6 42  1  0
  6 43  1  0
  7 44  1  0
  7 45  1  0
  8 46  1  0
 12 47  1  0
 13 48  1  0
 13 49  1  0
 14 50  1  0
 14 51  1  0
 15 52  1  0
 15 53  1  0
 17 54  1  0
 17 55  1  0
 18 56  1  0
 18 57  1  0
 20 58  1  0
 20 59  1  0
 21 60  1  0
 21 61  1  0
 25 62  1  0
 25 63  1  0
 26 64  1  0
 26 65  1  0
 28 66  1  0
 29 67  1  0
 30 68  1  0
 31 69  1  0
 33 70  1  0
 33 71  1  0
 35 72  1  0
 36 73  1  0
M  END
>  <smiles>  (39) 
c1ccc(CCCNc2nc(NCCCN3CCOCC3)nc(N3CCc4ccccc4C3)n2)cc1

>  <score_type>  (39) 
oracle

>  <origin>  (39) 
autodockgpu

>  <m_score__min__energy>  (39) 
-9.7400000000000002

>  <m_primary>  (39) 
energy

>  <rmsd>  (39) 
5.679514293995277

>  <m_score__min__rmsd>  (39) 
5.679514293995277

>  <meeko>  (39) 
{"free_energy": -9.15, "intermolecular_energy": -12.44, "internal_energy": -1.31, "cluster_size": 15, "cluster_id": 1, "rank_in_cluster": 9}

>  <energy>  (39) 
-7.54

>  <cluster_rmsd>  (39) 
1.5

>  <cluster>  (39) 
6

$$$$

     RDKit          3D

 73 77  0  0  0  0  0  0  0  0999 V2000
  146.0190   73.8760  220.6160 C   0  0  0  0  0  0  0  0  0  0  0  0
  146.2810   73.3760  219.3600 C   0  0  0  0  0  0  0  0  0  0  0  0
  145.4890   72.3630  218.8660 C   0  0  0  0  0  0  0  0  0  0  0  0
  144.4330   71.8030  219.5470 C   0  0  0  0  0  0  0  0  0  0  0  0
  143.5980   70.7140  219.0500 C   0  0  0  0  0  0  0  0  0  0  0  0
  142.9470   70.9760  217.6990 C   0  0  0  0  0  0  0  0  0  0  0  0
  141.5790   71.5380  218.0280 C   0  0  0  0  0  0  0  0  0  0  0  0
  140.9610   71.0200  219.1980 N   0  0  0  0  0  0  0  0  0  0  0  0
  140.8150   71.6910  220.4330 C   0  0  0  0  0  0  0  0  0  0  0  0
  141.1090   73.0240  220.4410 N   0  0  0  0  0  0  0  0  0  0  0  0
  140.9800   73.7550  221.5660 C   0  0  0  0  0  0  0  0  0  0  0  0
  141.2770   75.1590  221.5230 N   0  0  0  0  0  0  0  0  0  0  0  0
  140.2510   76.1780  221.4530 C   0  0  0  0  0  0  0  0  0  0  0  0
  140.9160   77.5260  221.7570 C   0  0  0  0  0  0  0  0  0  0  0  0
  141.8220   77.8330  220.5910 C   0  0  0  0  0  0  0  0  0  0  0  0
  142.1380   76.7410  219.7470 N   0  0  0  0  0  0  0  0  0  0  0  0
  143.4830   76.2930  219.7180 C   0  0  0  0  0  0  0  0  0  0  0  0
  143.6630   75.4880  218.4390 C   0  0  0  0  0  0  0  0  0  0  0  0
  142.6400   74.6040  218.2170 O   0  0  0  0  0  0  0  0  0  0  0  0
  141.3720   75.1590  218.1840 C   0  0  0  0  0  0  0  0  0  0  0  0
  141.4500   76.6540  218.5050 C   0  0  0  0  0  0  0  0  0  0  0  0
  140.5560   73.1960  222.7220 N   0  0  0  0  0  0  0  0  0  0  0  0
  140.2620   71.8710  222.7130 C   0  0  0  0  0  0  0  0  0  0  0  0
  139.7970   71.3320  223.9370 N   0  0  0  0  0  0  0  0  0  0  0  0
  138.6270   70.4620  223.9190 C   0  0  0  0  0  0  0  0  0  0  0  0
  139.1940   69.0660  224.2350 C   0  0  0  0  0  0  0  0  0  0  0  0
  139.8640   69.1200  225.5650 C   0  0  0  0  0  0  0  0  0  0  0  0
  139.8820   67.9520  226.2970 C   0  0  0  0  0  0  0  0  0  0  0  0
  140.4800   67.9170  227.5610 C   0  0  0  0  0  0  0  0  0  0  0  0
  141.0320   69.0970  228.0040 C   0  0  0  0  0  0  0  0  0  0  0  0
  141.0190   70.2690  227.2790 C   0  0  0  0  0  0  0  0  0  0  0  0
  140.4310   70.2990  226.0360 C   0  0  0  0  0  0  0  0  0  0  0  0
  140.4060   71.5620  225.2260 C   0  0  0  0  0  0  0  0  0  0  0  0
  140.3960   71.1430  221.5800 N   0  0  0  0  0  0  0  0  0  0  0  0
  144.1730   72.3090  220.8100 C   0  0  0  0  0  0  0  0  0  0  0  0
  144.9590   73.3300  221.3300 C   0  0  0  0  0  0  0  0  0  0  0  0
  146.6312   74.6845  221.0420 H   0  0  0  0  0  0  0  0  0  0  0  0
  147.1102   73.7794  218.7603 H   0  0  0  0  0  0  0  0  0  0  0  0
  145.7157   71.9766  217.8614 H   0  0  0  0  0  0  0  0  0  0  0  0
  144.2257   69.8152  218.9592 H   0  0  0  0  0  0  0  0  0  0  0  0
  142.7770   70.5978  219.7728 H   0  0  0  0  0  0  0  0  0  0  0  0
  143.5353   71.7034  217.1204 H   0  0  0  0  0  0  0  0  0  0  0  0
  142.8839   70.0648  217.0860 H   0  0  0  0  0  0  0  0  0  0  0  0
  141.6829   72.6257  218.1550 H   0  0  0  0  0  0  0  0  0  0  0  0
  140.9273   71.2445  217.1919 H   0  0  0  0  0  0  0  0  0  0  0  0
  140.5680   70.0430  219.1620 H   0  0  0  0  0  0  0  0  0  0  0  0
  142.3130   75.3800  221.5330 H   0  0  0  0  0  0  0  0  0  0  0  0
  139.8086   76.1965  220.4461 H   0  0  0  0  0  0  0  0  0  0  0  0
  139.4496   75.9702  222.1772 H   0  0  0  0  0  0  0  0  0  0  0  0
  140.1524   78.3109  221.8611 H   0  0  0  0  0  0  0  0  0  0  0  0
  141.4824   77.4851  222.6991 H   0  0  0  0  0  0  0  0  0  0  0  0
  141.3312   78.6023  219.9767 H   0  0  0  0  0  0  0  0  0  0  0  0
  142.7772   78.1524  221.0333 H   0  0  0  0  0  0  0  0  0  0  0  0
  144.1671   77.1544  219.7203 H   0  0  0  0  0  0  0  0  0  0  0  0
  143.7081   75.6773  220.6013 H   0  0  0  0  0  0  0  0  0  0  0  0
  143.7149   76.1853  217.5898 H   0  0  0  0  0  0  0  0  0  0  0  0
  144.5881   74.9024  218.5449 H   0  0  0  0  0  0  0  0  0  0  0  0
  140.9402   75.0231  217.1815 H   0  0  0  0  0  0  0  0  0  0  0  0
  140.7383   74.6602  218.9321 H   0  0  0  0  0  0  0  0  0  0  0  0
  142.0057   77.1873  217.7196 H   0  0  0  0  0  0  0  0  0  0  0  0
  140.4515   77.1123  218.5588 H   0  0  0  0  0  0  0  0  0  0  0  0
  137.8990   70.7703  224.6838 H   0  0  0  0  0  0  0  0  0  0  0  0
  138.0916   70.4933  222.9586 H   0  0  0  0  0  0  0  0  0  0  0  0
  138.3767   68.3302  224.2604 H   0  0  0  0  0  0  0  0  0  0  0  0
  139.9155   68.7671  223.4604 H   0  0  0  0  0  0  0  0  0  0  0  0
  139.4231   67.0415  225.8843 H   0  0  0  0  0  0  0  0  0  0  0  0
  140.5074   66.9988  228.1662 H   0  0  0  0  0  0  0  0  0  0  0  0
  141.5114   69.1054  228.9940 H   0  0  0  0  0  0  0  0  0  0  0  0
  141.4780   71.1786  227.6936 H   0  0  0  0  0  0  0  0  0  0  0  0
  139.8282   72.3260  225.7668 H   0  0  0  0  0  0  0  0  0  0  0  0
  141.4405   71.9027  225.0717 H   0  0  0  0  0  0  0  0  0  0  0  0
  143.3414   71.9011  221.4033 H   0  0  0  0  0  0  0  0  0  0  0  0
  144.7360   73.7171  222.3352 H   0  0  0  0  0  0  0  0  0  0  0  0
  1  2  2  0
  2  3  1  0
  3  4  2  0
  4  5  1  0
  5  6  1  0
  6  7  1  0
  7  8  1  0
  8  9  1  0
  9 10  2  0
 10 11  1  0
 11 12  1  0
 12 13  1  0
 13 14  1  0
 14 15  1  0
 15 16  1  0
 16 17  1  0
 17 18  1  0
 18 19  1  0
 19 20  1  0
 20 21  1  0
 11 22  2  0
 22 23  1  0
 23 24  1  0
 24 25  1  0
 25 26  1  0
 26 27  1  0
 27 28  2  0
 28 29  1  0
 29 30  2  0
 30 31  1  0
 31 32  2  0
 32 33  1  0
 23 34  2  0
  4 35  1  0
 35 36  2  0
 36  1  1  0
 34  9  1  0
 21 16  1  0
 33 24  1  0
 32 27  1  0
  1 37  1  0
  2 38  1  0
  3 39  1  0
  5 40  1  0
  5 41  1  0
  6 42  1  0
  6 43  1  0
  7 44  1  0
  7 45  1  0
  8 46  1  0
 12 47  1  0
 13 48  1  0
 13 49  1  0
 14 50  1  0
 14 51  1  0
 15 52  1  0
 15 53  1  0
 17 54  1  0
 17 55  1  0
 18 56  1  0
 18 57  1  0
 20 58  1  0
 20 59  1  0
 21 60  1  0
 21 61  1  0
 25 62  1  0
 25 63  1  0
 26 64  1  0
 26 65  1  0
 28 66  1  0
 29 67  1  0
 30 68  1  0
 31 69  1  0
 33 70  1  0
 33 71  1  0
 35 72  1  0
 36 73  1  0
M  END
>  <smiles>  (40) 
c1ccc(CCCNc2nc(NCCCN3CCOCC3)nc(N3CCc4ccccc4C3)n2)cc1

>  <score_type>  (40) 
oracle

>  <origin>  (40) 
autodockgpu

>  <m_score__min__energy>  (40) 
-9.7400000000000002

>  <m_primary>  (40) 
energy

>  <rmsd>  (40) 
11.392893903423383

>  <m_score__min__rmsd>  (40) 
11.392893903423383

>  <meeko>  (40) 
{"free_energy": -7.36, "intermolecular_energy": -10.64, "internal_energy": -3.14, "cluster_size": 2, "cluster_id": 9, "rank_in_cluster": 2}

>  <energy>  (40) 
-8.67

>  <cluster_rmsd>  (40) 
0.0

>  <cluster>  (40) 
7

$$$$

     RDKit          3D

 73 77  0  0  0  0  0  0  0  0999 V2000
  140.2770   68.1630  228.1960 C   0  0  0  0  0  0  0  0  0  0  0  0
  139.7720   69.4010  228.5240 C   0  0  0  0  0  0  0  0  0  0  0  0
  140.0020   70.4620  227.6760 C   0  0  0  0  0  0  0  0  0  0  0  0
  140.7120   70.3760  226.5020 C   0  0  0  0  0  0  0  0  0  0  0  0
  140.9840   71.4930  225.6030 C   0  0  0  0  0  0  0  0  0  0  0  0
  140.7760   71.1890  224.1260 C   0  0  0  0  0  0  0  0  0  0  0  0
  139.2740   71.2010  223.9340 C   0  0  0  0  0  0  0  0  0  0  0  0
  138.7620   72.2430  223.1150 N   0  0  0  0  0  0  0  0  0  0  0  0
  139.5130   73.0840  222.2640 C   0  0  0  0  0  0  0  0  0  0  0  0
  140.2970   72.4650  221.3330 N   0  0  0  0  0  0  0  0  0  0  0  0
  141.0340   73.1820  220.4610 C   0  0  0  0  0  0  0  0  0  0  0  0
  141.8250   72.4890  219.4830 N   0  0  0  0  0  0  0  0  0  0  0  0
  141.3970   72.3090  218.1110 C   0  0  0  0  0  0  0  0  0  0  0  0
  142.3660   73.0930  217.2170 C   0  0  0  0  0  0  0  0  0  0  0  0
  143.1210   74.0350  218.1220 C   0  0  0  0  0  0  0  0  0  0  0  0
  144.2460   73.4880  218.7860 N   0  0  0  0  0  0  0  0  0  0  0  0
  144.6820   72.1950  218.3980 C   0  0  0  0  0  0  0  0  0  0  0  0
  145.5400   71.6510  219.5310 C   0  0  0  0  0  0  0  0  0  0  0  0
  146.4430   72.5660  220.0040 O   0  0  0  0  0  0  0  0  0  0  0  0
  145.9030   73.7660  220.4330 C   0  0  0  0  0  0  0  0  0  0  0  0
  144.3930   73.7800  220.1700 C   0  0  0  0  0  0  0  0  0  0  0  0
  141.0240   74.5340  220.4780 N   0  0  0  0  0  0  0  0  0  0  0  0
  140.2440   75.1480  221.4030 C   0  0  0  0  0  0  0  0  0  0  0  0
  140.2430   76.5640  221.3690 N   0  0  0  0  0  0  0  0  0  0  0  0
  138.9700   77.2660  221.4780 C   0  0  0  0  0  0  0  0  0  0  0  0
  139.0200   77.9180  222.8720 C   0  0  0  0  0  0  0  0  0  0  0  0
  140.1970   78.8290  222.9230 C   0  0  0  0  0  0  0  0  0  0  0  0
  140.0990   79.9210  223.7590 C   0  0  0  0  0  0  0  0  0  0  0  0
  141.1540   80.8340  223.8590 C   0  0  0  0  0  0  0  0  0  0  0  0
  142.2610   80.5690  223.0860 C   0  0  0  0  0  0  0  0  0  0  0  0
  142.3680   79.4800  222.2480 C   0  0  0  0  0  0  0  0  0  0  0  0
  141.3290   78.5840  222.1530 C   0  0  0  0  0  0  0  0  0  0  0  0
  141.4220   77.3900  221.2500 C   0  0  0  0  0  0  0  0  0  0  0  0
  139.5080   74.4230  222.2760 N   0  0  0  0  0  0  0  0  0  0  0  0
  141.2190   69.1290  226.1750 C   0  0  0  0  0  0  0  0  0  0  0  0
  141.0000   68.0430  227.0150 C   0  0  0  0  0  0  0  0  0  0  0  0
  140.1130   67.2937  228.8498 H   0  0  0  0  0  0  0  0  0  0  0  0
  139.1936   69.5409  229.4492 H   0  0  0  0  0  0  0  0  0  0  0  0
  139.5904   71.4427  227.9568 H   0  0  0  0  0  0  0  0  0  0  0  0
  140.3179   72.3239  225.8784 H   0  0  0  0  0  0  0  0  0  0  0  0
  142.0506   71.7339  225.7223 H   0  0  0  0  0  0  0  0  0  0  0  0
  141.2522   71.9592  223.5015 H   0  0  0  0  0  0  0  0  0  0  0  0
  141.2233   70.2274  223.8339 H   0  0  0  0  0  0  0  0  0  0  0  0
  138.9845   70.2419  223.4797 H   0  0  0  0  0  0  0  0  0  0  0  0
  138.8472   71.3706  224.9335 H   0  0  0  0  0  0  0  0  0  0  0  0
  137.7240   72.4230  223.1310 H   0  0  0  0  0  0  0  0  0  0  0  0
  142.7400   72.1120  219.8580 H   0  0  0  0  0  0  0  0  0  0  0  0
  141.4230   71.2415  217.8468 H   0  0  0  0  0  0  0  0  0  0  0  0
  140.3673   72.6718  217.9765 H   0  0  0  0  0  0  0  0  0  0  0  0
  143.0641   72.4044  216.7186 H   0  0  0  0  0  0  0  0  0  0  0  0
  141.8253   73.6439  216.4333 H   0  0  0  0  0  0  0  0  0  0  0  0
  143.4688   74.8817  217.5120 H   0  0  0  0  0  0  0  0  0  0  0  0
  142.4137   74.3142  218.9168 H   0  0  0  0  0  0  0  0  0  0  0  0
  143.8149   71.5385  218.2331 H   0  0  0  0  0  0  0  0  0  0  0  0
  145.2561   72.2412  217.4608 H   0  0  0  0  0  0  0  0  0  0  0  0
  144.8797   71.3502  220.3577 H   0  0  0  0  0  0  0  0  0  0  0  0
  146.1114   70.7999  219.1322 H   0  0  0  0  0  0  0  0  0  0  0  0
  146.0869   73.8845  221.5110 H   0  0  0  0  0  0  0  0  0  0  0  0
  146.3749   74.5936  219.8831 H   0  0  0  0  0  0  0  0  0  0  0  0
  143.8894   73.0155  220.7799 H   0  0  0  0  0  0  0  0  0  0  0  0
  143.9418   74.7481  220.4331 H   0  0  0  0  0  0  0  0  0  0  0  0
  138.8768   78.0303  220.6924 H   0  0  0  0  0  0  0  0  0  0  0  0
  138.1062   76.5961  221.3556 H   0  0  0  0  0  0  0  0  0  0  0  0
  138.0981   78.4920  223.0469 H   0  0  0  0  0  0  0  0  0  0  0  0
  139.1075   77.1437  223.6484 H   0  0  0  0  0  0  0  0  0  0  0  0
  139.1850   80.0753  224.3513 H   0  0  0  0  0  0  0  0  0  0  0  0
  141.1017   81.7134  224.5178 H   0  0  0  0  0  0  0  0  0  0  0  0
  143.1097   81.2667  223.1400 H   0  0  0  0  0  0  0  0  0  0  0  0
  143.2827   79.3278  221.6563 H   0  0  0  0  0  0  0  0  0  0  0  0
  141.5193   77.7318  220.2090 H   0  0  0  0  0  0  0  0  0  0  0  0
  142.3002   76.7951  221.5413 H   0  0  0  0  0  0  0  0  0  0  0  0
  141.7965   68.9976  225.2481 H   0  0  0  0  0  0  0  0  0  0  0  0
  141.4105   67.0610  226.7371 H   0  0  0  0  0  0  0  0  0  0  0  0
  1  2  2  0
  2  3  1  0
  3  4  2  0
  4  5  1  0
  5  6  1  0
  6  7  1  0
  7  8  1  0
  8  9  1  0
  9 10  2  0
 10 11  1  0
 11 12  1  0
 12 13  1  0
 13 14  1  0
 14 15  1  0
 15 16  1  0
 16 17  1  0
 17 18  1  0
 18 19  1  0
 19 20  1  0
 20 21  1  0
 11 22  2  0
 22 23  1  0
 23 24  1  0
 24 25  1  0
 25 26  1  0
 26 27  1  0
 27 28  2  0
 28 29  1  0
 29 30  2  0
 30 31  1  0
 31 32  2  0
 32 33  1  0
 23 34  2  0
  4 35  1  0
 35 36  2  0
 36  1  1  0
 34  9  1  0
 21 16  1  0
 33 24  1  0
 32 27  1  0
  1 37  1  0
  2 38  1  0
  3 39  1  0
  5 40  1  0
  5 41  1  0
  6 42  1  0
  6 43  1  0
  7 44  1  0
  7 45  1  0
  8 46  1  0
 12 47  1  0
 13 48  1  0
 13 49  1  0
 14 50  1  0
 14 51  1  0
 15 52  1  0
 15 53  1  0
 17 54  1  0
 17 55  1  0
 18 56  1  0
 18 57  1  0
 20 58  1  0
 20 59  1  0
 21 60  1  0
 21 61  1  0
 25 62  1  0
 25 63  1  0
 26 64  1  0
 26 65  1  0
 28 66  1  0
 29 67  1  0
 30 68  1  0
 31 69  1  0
 33 70  1  0
 33 71  1  0
 35 72  1  0
 36 73  1  0
M  END
>  <smiles>  (41) 
c1ccc(CCCNc2nc(NCCCN3CCOCC3)nc(N3CCc4ccccc4C3)n2)cc1

>  <score_type>  (41) 
oracle

>  <origin>  (41) 
autodockgpu

>  <m_score__min__energy>  (41) 
-9.7400000000000002

>  <m_primary>  (41) 
energy

>  <rmsd>  (41) 
5.2858171824379

>  <m_score__min__rmsd>  (41) 
5.2858171824379

>  <meeko>  (41) 
{"free_energy": -8.79, "intermolecular_energy": -12.08, "internal_energy": -1.73, "cluster_size": 6, "cluster_id": 3, "rank_in_cluster": 5}

>  <energy>  (41) 
-8.61

>  <cluster_rmsd>  (41) 
0.89

>  <cluster>  (41) 
7

$$$$

     RDKit          3D

 73 77  0  0  0  0  0  0  0  0999 V2000
  140.4750   70.2590  228.2730 C   0  0  0  0  0  0  0  0  0  0  0  0
  139.8670   69.5050  227.2940 C   0  0  0  0  0  0  0  0  0  0  0  0
  139.8800   69.9620  225.9940 C   0  0  0  0  0  0  0  0  0  0  0  0
  140.4680   71.1380  225.5920 C   0  0  0  0  0  0  0  0  0  0  0  0
  140.4720   71.6490  224.2250 C   0  0  0  0  0  0  0  0  0  0  0  0
  139.9490   70.6750  223.1790 C   0  0  0  0  0  0  0  0  0  0  0  0
  139.3940   71.5510  222.0750 C   0  0  0  0  0  0  0  0  0  0  0  0
  139.1050   72.8940  222.4340 N   0  0  0  0  0  0  0  0  0  0  0  0
  139.7730   74.0470  221.9650 C   0  0  0  0  0  0  0  0  0  0  0  0
  140.4880   73.9100  220.8100 N   0  0  0  0  0  0  0  0  0  0  0  0
  141.1420   74.9580  220.2710 C   0  0  0  0  0  0  0  0  0  0  0  0
  141.8610   74.7740  219.0420 N   0  0  0  0  0  0  0  0  0  0  0  0
  143.0620   75.5130  218.7140 C   0  0  0  0  0  0  0  0  0  0  0  0
  142.6520   76.6920  217.8240 C   0  0  0  0  0  0  0  0  0  0  0  0
  142.9370   77.9470  218.6110 C   0  0  0  0  0  0  0  0  0  0  0  0
  142.0080   79.0030  218.4520 N   0  0  0  0  0  0  0  0  0  0  0  0
  142.5170   80.3180  218.2990 C   0  0  0  0  0  0  0  0  0  0  0  0
  141.3870   81.2810  218.6320 C   0  0  0  0  0  0  0  0  0  0  0  0
  140.1990   80.9330  218.0440 O   0  0  0  0  0  0  0  0  0  0  0  0
  139.7500   79.6540  218.3250 C   0  0  0  0  0  0  0  0  0  0  0  0
  140.7870   78.9140  219.1770 C   0  0  0  0  0  0  0  0  0  0  0  0
  141.1120   76.1790  220.8520 N   0  0  0  0  0  0  0  0  0  0  0  0
  140.4000   76.3150  222.0000 C   0  0  0  0  0  0  0  0  0  0  0  0
  140.3750   77.6150  222.5610 N   0  0  0  0  0  0  0  0  0  0  0  0
  141.4710   78.0230  223.4320 C   0  0  0  0  0  0  0  0  0  0  0  0
  142.2380   79.0690  222.6020 C   0  0  0  0  0  0  0  0  0  0  0  0
  141.3060   80.1830  222.2730 C   0  0  0  0  0  0  0  0  0  0  0  0
  141.8670   81.4320  222.1090 C   0  0  0  0  0  0  0  0  0  0  0  0
  141.0630   82.5370  221.8100 C   0  0  0  0  0  0  0  0  0  0  0  0
  139.7140   82.2920  221.6930 C   0  0  0  0  0  0  0  0  0  0  0  0
  139.1440   81.0460  221.8540 C   0  0  0  0  0  0  0  0  0  0  0  0
  139.9380   79.9630  222.1480 C   0  0  0  0  0  0  0  0  0  0  0  0
  139.3430   78.5980  222.3260 C   0  0  0  0  0  0  0  0  0  0  0  0
  139.7480   75.2580  222.5360 N   0  0  0  0  0  0  0  0  0  0  0  0
  141.0790   71.8940  226.5800 C   0  0  0  0  0  0  0  0  0  0  0  0
  141.0770   71.4540  227.8980 C   0  0  0  0  0  0  0  0  0  0  0  0
  140.4839   69.9251  229.3211 H   0  0  0  0  0  0  0  0  0  0  0  0
  139.3783   68.5523  227.5460 H   0  0  0  0  0  0  0  0  0  0  0  0
  139.3876   69.3454  225.2276 H   0  0  0  0  0  0  0  0  0  0  0  0
  139.8451   72.5524  224.1954 H   0  0  0  0  0  0  0  0  0  0  0  0
  141.5242   71.8429  223.9695 H   0  0  0  0  0  0  0  0  0  0  0  0
  140.7637   70.0417  222.7981 H   0  0  0  0  0  0  0  0  0  0  0  0
  139.1887   69.9945  223.5898 H   0  0  0  0  0  0  0  0  0  0  0  0
  140.1310   71.5717  221.2587 H   0  0  0  0  0  0  0  0  0  0  0  0
  138.4284   71.1032  221.7972 H   0  0  0  0  0  0  0  0  0  0  0  0
  138.3210   73.0690  223.1160 H   0  0  0  0  0  0  0  0  0  0  0  0
  141.4260   74.0590  218.3920 H   0  0  0  0  0  0  0  0  0  0  0  0
  143.5367   75.8848  219.6340 H   0  0  0  0  0  0  0  0  0  0  0  0
  143.7827   74.8668  218.1915 H   0  0  0  0  0  0  0  0  0  0  0  0
  143.2382   76.6865  216.8933 H   0  0  0  0  0  0  0  0  0  0  0  0
  141.5888   76.6297  217.5488 H   0  0  0  0  0  0  0  0  0  0  0  0
  142.9611   77.6775  219.6772 H   0  0  0  0  0  0  0  0  0  0  0  0
  143.8918   78.3307  218.2222 H   0  0  0  0  0  0  0  0  0  0  0  0
  143.3619   80.4770  218.9852 H   0  0  0  0  0  0  0  0  0  0  0  0
  142.8772   80.4797  217.2723 H   0  0  0  0  0  0  0  0  0  0  0  0
  141.2478   81.2949  219.7231 H   0  0  0  0  0  0  0  0  0  0  0  0
  141.6707   82.2700  218.2429 H   0  0  0  0  0  0  0  0  0  0  0  0
  138.8001   79.7136  218.8764 H   0  0  0  0  0  0  0  0  0  0  0  0
  139.5984   79.1076  217.3824 H   0  0  0  0  0  0  0  0  0  0  0  0
  140.8887   79.3939  220.1616 H   0  0  0  0  0  0  0  0  0  0  0  0
  140.4954   77.8690  219.3584 H   0  0  0  0  0  0  0  0  0  0  0  0
  141.0866   78.4674  224.3619 H   0  0  0  0  0  0  0  0  0  0  0  0
  142.1052   77.1780  223.7380 H   0  0  0  0  0  0  0  0  0  0  0  0
  143.0876   79.4551  223.1843 H   0  0  0  0  0  0  0  0  0  0  0  0
  142.6213   78.6114  221.6781 H   0  0  0  0  0  0  0  0  0  0  0  0
  142.9544   81.5603  222.2140 H   0  0  0  0  0  0  0  0  0  0  0  0
  141.4849   83.5440  221.6761 H   0  0  0  0  0  0  0  0  0  0  0  0
  139.0520   83.1383  221.4575 H   0  0  0  0  0  0  0  0  0  0  0  0
  138.0565   80.9194  221.7474 H   0  0  0  0  0  0  0  0  0  0  0  0
  138.6569   78.6130  223.1856 H   0  0  0  0  0  0  0  0  0  0  0  0
  138.8009   78.3273  221.4079 H   0  0  0  0  0  0  0  0  0  0  0  0
  141.5669   72.8450  226.3200 H   0  0  0  0  0  0  0  0  0  0  0  0
  141.5663   72.0697  228.6671 H   0  0  0  0  0  0  0  0  0  0  0  0
  1  2  2  0
  2  3  1  0
  3  4  2  0
  4  5  1  0
  5  6  1  0
  6  7  1  0
  7  8  1  0
  8  9  1  0
  9 10  2  0
 10 11  1  0
 11 12  1  0
 12 13  1  0
 13 14  1  0
 14 15  1  0
 15 16  1  0
 16 17  1  0
 17 18  1  0
 18 19  1  0
 19 20  1  0
 20 21  1  0
 11 22  2  0
 22 23  1  0
 23 24  1  0
 24 25  1  0
 25 26  1  0
 26 27  1  0
 27 28  2  0
 28 29  1  0
 29 30  2  0
 30 31  1  0
 31 32  2  0
 32 33  1  0
 23 34  2  0
  4 35  1  0
 35 36  2  0
 36  1  1  0
 34  9  1  0
 21 16  1  0
 33 24  1  0
 32 27  1  0
  1 37  1  0
  2 38  1  0
  3 39  1  0
  5 40  1  0
  5 41  1  0
  6 42  1  0
  6 43  1  0
  7 44  1  0
  7 45  1  0
  8 46  1  0
 12 47  1  0
 13 48  1  0
 13 49  1  0
 14 50  1  0
 14 51  1  0
 15 52  1  0
 15 53  1  0
 17 54  1  0
 17 55  1  0
 18 56  1  0
 18 57  1  0
 20 58  1  0
 20 59  1  0
 21 60  1  0
 21 61  1  0
 25 62  1  0
 25 63  1  0
 26 64  1  0
 26 65  1  0
 28 66  1  0
 29 67  1  0
 30 68  1  0
 31 69  1  0
 33 70  1  0
 33 71  1  0
 35 72  1  0
 36 73  1  0
M  END
>  <smiles>  (42) 
c1ccc(CCCNc2nc(NCCCN3CCOCC3)nc(N3CCc4ccccc4C3)n2)cc1

>  <score_type>  (42) 
oracle

>  <origin>  (42) 
autodockgpu

>  <m_score__min__energy>  (42) 
-9.7400000000000002

>  <m_primary>  (42) 
energy

>  <rmsd>  (42) 
5.105512219773174

>  <m_score__min__rmsd>  (42) 
5.105512219773174

>  <meeko>  (42) 
{"free_energy": -7.85, "intermolecular_energy": -11.13, "internal_energy": -2.46, "cluster_size": 3, "cluster_id": 8, "rank_in_cluster": 3}

>  <energy>  (42) 
-8.58

>  <cluster_rmsd>  (42) 
0.52

>  <cluster>  (42) 
7

$$$$

     RDKit          3D

 73 77  0  0  0  0  0  0  0  0999 V2000
  142.0630   80.8450  223.8400 C   0  0  0  0  0  0  0  0  0  0  0  0
  141.8700   79.5310  224.2020 C   0  0  0  0  0  0  0  0  0  0  0  0
  141.7990   78.5710  223.2170 C   0  0  0  0  0  0  0  0  0  0  0  0
  141.9100   78.8320  221.8710 C   0  0  0  0  0  0  0  0  0  0  0  0
  141.8150   77.8310  220.8120 C   0  0  0  0  0  0  0  0  0  0  0  0
  140.4000   77.3610  220.5050 C   0  0  0  0  0  0  0  0  0  0  0  0
  140.1790   76.1710  221.4140 C   0  0  0  0  0  0  0  0  0  0  0  0
  141.0990   75.0990  221.2690 N   0  0  0  0  0  0  0  0  0  0  0  0
  140.8410   73.7340  221.5260 C   0  0  0  0  0  0  0  0  0  0  0  0
  141.0860   72.8640  220.5030 N   0  0  0  0  0  0  0  0  0  0  0  0
  140.8920   71.5390  220.6580 C   0  0  0  0  0  0  0  0  0  0  0  0
  141.1860   70.6590  219.5640 N   0  0  0  0  0  0  0  0  0  0  0  0
  142.3900   69.8570  219.5000 C   0  0  0  0  0  0  0  0  0  0  0  0
  143.5170   70.6610  220.1600 C   0  0  0  0  0  0  0  0  0  0  0  0
  144.1340   71.5080  219.0750 C   0  0  0  0  0  0  0  0  0  0  0  0
  143.9610   72.9070  219.2060 N   0  0  0  0  0  0  0  0  0  0  0  0
  143.1940   73.5760  218.2180 C   0  0  0  0  0  0  0  0  0  0  0  0
  143.5500   75.0540  218.2950 C   0  0  0  0  0  0  0  0  0  0  0  0
  143.5800   75.5290  219.5790 O   0  0  0  0  0  0  0  0  0  0  0  0
  144.4230   74.8540  220.4440 C   0  0  0  0  0  0  0  0  0  0  0  0
  145.0530   73.6560  219.7260 C   0  0  0  0  0  0  0  0  0  0  0  0
  140.4490   71.0270  221.8290 N   0  0  0  0  0  0  0  0  0  0  0  0
  140.2060   71.8930  222.8460 C   0  0  0  0  0  0  0  0  0  0  0  0
  139.7690   71.3120  224.0610 N   0  0  0  0  0  0  0  0  0  0  0  0
  138.6020   70.4390  224.0400 C   0  0  0  0  0  0  0  0  0  0  0  0
  139.1790   69.0350  224.2970 C   0  0  0  0  0  0  0  0  0  0  0  0
  139.8770   69.0480  225.6130 C   0  0  0  0  0  0  0  0  0  0  0  0
  139.9140   67.8560  226.3060 C   0  0  0  0  0  0  0  0  0  0  0  0
  140.5390   67.7820  227.5550 C   0  0  0  0  0  0  0  0  0  0  0  0
  141.0970   68.9480  228.0250 C   0  0  0  0  0  0  0  0  0  0  0  0
  141.0650   70.1440  227.3400 C   0  0  0  0  0  0  0  0  0  0  0  0
  140.4500   70.2130  226.1120 C   0  0  0  0  0  0  0  0  0  0  0  0
  140.4040   71.5010  225.3450 C   0  0  0  0  0  0  0  0  0  0  0  0
  140.4030   73.2220  222.6820 N   0  0  0  0  0  0  0  0  0  0  0  0
  142.1040   80.1560  221.5110 C   0  0  0  0  0  0  0  0  0  0  0  0
  142.1780   81.1420  222.4880 C   0  0  0  0  0  0  0  0  0  0  0  0
  142.1245   81.6377  224.6002 H   0  0  0  0  0  0  0  0  0  0  0  0
  141.7739   79.2520  225.2617 H   0  0  0  0  0  0  0  0  0  0  0  0
  141.6433   77.5271  223.5270 H   0  0  0  0  0  0  0  0  0  0  0  0
  142.2393   78.2628  219.8935 H   0  0  0  0  0  0  0  0  0  0  0  0
  142.3647   76.9478  221.1696 H   0  0  0  0  0  0  0  0  0  0  0  0
  139.6720   78.1560  220.7243 H   0  0  0  0  0  0  0  0  0  0  0  0
  140.2710   77.1012  219.4439 H   0  0  0  0  0  0  0  0  0  0  0  0
  140.2366   76.5260  222.4536 H   0  0  0  0  0  0  0  0  0  0  0  0
  139.1979   75.7606  221.1330 H   0  0  0  0  0  0  0  0  0  0  0  0
  142.0750   75.3230  220.9380 H   0  0  0  0  0  0  0  0  0  0  0  0
  140.4500   70.6580  218.8020 H   0  0  0  0  0  0  0  0  0  0  0  0
  142.2392   68.9100  220.0390 H   0  0  0  0  0  0  0  0  0  0  0  0
  142.6430   69.6218  218.4556 H   0  0  0  0  0  0  0  0  0  0  0  0
  143.1103   71.3015  220.9565 H   0  0  0  0  0  0  0  0  0  0  0  0
  144.2641   69.9955  220.6171 H   0  0  0  0  0  0  0  0  0  0  0  0
  145.2145   71.3024  219.0610 H   0  0  0  0  0  0  0  0  0  0  0  0
  143.6109   71.2300  218.1482 H   0  0  0  0  0  0  0  0  0  0  0  0
  143.4377   73.1812  217.2206 H   0  0  0  0  0  0  0  0  0  0  0  0
  142.1182   73.4243  218.3903 H   0  0  0  0  0  0  0  0  0  0  0  0
  144.5424   75.1999  217.8436 H   0  0  0  0  0  0  0  0  0  0  0  0
  142.7690   75.6100  217.7556 H   0  0  0  0  0  0  0  0  0  0  0  0
  145.2173   75.5344  220.7849 H   0  0  0  0  0  0  0  0  0  0  0  0
  143.8450   74.4961  221.3087 H   0  0  0  0  0  0  0  0  0  0  0  0
  145.7078   73.9974  218.9107 H   0  0  0  0  0  0  0  0  0  0  0  0
  145.6741   73.0537  220.4053 H   0  0  0  0  0  0  0  0  0  0  0  0
  137.8902   70.7194  224.8304 H   0  0  0  0  0  0  0  0  0  0  0  0
  138.0459   70.5001  223.0929 H   0  0  0  0  0  0  0  0  0  0  0  0
  138.3643   68.2961  224.3157 H   0  0  0  0  0  0  0  0  0  0  0  0
  139.8841   68.7636  223.4975 H   0  0  0  0  0  0  0  0  0  0  0  0
  139.4490   66.9578  225.8736 H   0  0  0  0  0  0  0  0  0  0  0  0
  140.5819   66.8445  228.1289 H   0  0  0  0  0  0  0  0  0  0  0  0
  141.5978   68.9249  229.0041 H   0  0  0  0  0  0  0  0  0  0  0  0
  141.5303   71.0409  227.7747 H   0  0  0  0  0  0  0  0  0  0  0  0
  139.8350   72.2444  225.9226 H   0  0  0  0  0  0  0  0  0  0  0  0
  141.4341   71.8500  225.1806 H   0  0  0  0  0  0  0  0  0  0  0  0
  142.1997   80.4274  220.4493 H   0  0  0  0  0  0  0  0  0  0  0  0
  142.3320   82.1872  222.1817 H   0  0  0  0  0  0  0  0  0  0  0  0
  1  2  2  0
  2  3  1  0
  3  4  2  0
  4  5  1  0
  5  6  1  0
  6  7  1  0
  7  8  1  0
  8  9  1  0
  9 10  2  0
 10 11  1  0
 11 12  1  0
 12 13  1  0
 13 14  1  0
 14 15  1  0
 15 16  1  0
 16 17  1  0
 17 18  1  0
 18 19  1  0
 19 20  1  0
 20 21  1  0
 11 22  2  0
 22 23  1  0
 23 24  1  0
 24 25  1  0
 25 26  1  0
 26 27  1  0
 27 28  2  0
 28 29  1  0
 29 30  2  0
 30 31  1  0
 31 32  2  0
 32 33  1  0
 23 34  2  0
  4 35  1  0
 35 36  2  0
 36  1  1  0
 34  9  1  0
 21 16  1  0
 33 24  1  0
 32 27  1  0
  1 37  1  0
  2 38  1  0
  3 39  1  0
  5 40  1  0
  5 41  1  0
  6 42  1  0
  6 43  1  0
  7 44  1  0
  7 45  1  0
  8 46  1  0
 12 47  1  0
 13 48  1  0
 13 49  1  0
 14 50  1  0
 14 51  1  0
 15 52  1  0
 15 53  1  0
 17 54  1  0
 17 55  1  0
 18 56  1  0
 18 57  1  0
 20 58  1  0
 20 59  1  0
 21 60  1  0
 21 61  1  0
 25 62  1  0
 25 63  1  0
 26 64  1  0
 26 65  1  0
 28 66  1  0
 29 67  1  0
 30 68  1  0
 31 69  1  0
 33 70  1  0
 33 71  1  0
 35 72  1  0
 36 73  1  0
M  END
>  <smiles>  (43) 
c1ccc(CCCNc2nc(NCCCN3CCOCC3)nc(N3CCc4ccccc4C3)n2)cc1

>  <score_type>  (43) 
oracle

>  <origin>  (43) 
autodockgpu

>  <m_score__min__energy>  (43) 
-9.7400000000000002

>  <m_primary>  (43) 
energy

>  <rmsd>  (43) 
11.491003492724579

>  <m_score__min__rmsd>  (43) 
11.491003492724579

>  <meeko>  (43) 
{"free_energy": -8.28, "intermolecular_energy": -11.56, "internal_energy": -2.67, "cluster_size": 11, "cluster_id": 6, "rank_in_cluster": 8}

>  <energy>  (43) 
-8.57

>  <cluster_rmsd>  (43) 
1.16

>  <cluster>  (43) 
7

$$$$

     RDKit          3D

 73 77  0  0  0  0  0  0  0  0999 V2000
  141.1250   68.5740  228.4140 C   0  0  0  0  0  0  0  0  0  0  0  0
  140.9490   69.9330  228.2840 C   0  0  0  0  0  0  0  0  0  0  0  0
  140.3400   70.4220  227.1490 C   0  0  0  0  0  0  0  0  0  0  0  0
  139.8850   69.6380  226.1150 C   0  0  0  0  0  0  0  0  0  0  0  0
  139.2590   70.1390  224.8950 C   0  0  0  0  0  0  0  0  0  0  0  0
  140.1430   71.0450  224.0500 C   0  0  0  0  0  0  0  0  0  0  0  0
  139.2030   71.6870  223.0520 C   0  0  0  0  0  0  0  0  0  0  0  0
  139.6190   72.9380  222.5240 N   0  0  0  0  0  0  0  0  0  0  0  0
  140.6610   73.1470  221.5920 C   0  0  0  0  0  0  0  0  0  0  0  0
  141.0840   74.4360  221.4310 N   0  0  0  0  0  0  0  0  0  0  0  0
  142.0870   74.7340  220.5810 C   0  0  0  0  0  0  0  0  0  0  0  0
  142.5160   76.0990  220.4620 N   0  0  0  0  0  0  0  0  0  0  0  0
  142.9160   76.6910  219.2020 C   0  0  0  0  0  0  0  0  0  0  0  0
  142.1850   78.0320  219.0670 C   0  0  0  0  0  0  0  0  0  0  0  0
  141.1490   78.0710  220.1630 C   0  0  0  0  0  0  0  0  0  0  0  0
  141.5830   78.5840  221.4090 N   0  0  0  0  0  0  0  0  0  0  0  0
  141.0480   78.0040  222.5880 C   0  0  0  0  0  0  0  0  0  0  0  0
  141.2680   78.9980  223.7190 C   0  0  0  0  0  0  0  0  0  0  0  0
  142.5320   79.5260  223.7260 O   0  0  0  0  0  0  0  0  0  0  0  0
  142.9260   80.1420  222.5510 C   0  0  0  0  0  0  0  0  0  0  0  0
  141.8340   79.9820  221.4890 C   0  0  0  0  0  0  0  0  0  0  0  0
  142.7070   73.7720  219.8620 N   0  0  0  0  0  0  0  0  0  0  0  0
  142.2870   72.4920  220.0230 C   0  0  0  0  0  0  0  0  0  0  0  0
  142.9800   71.5140  219.2700 N   0  0  0  0  0  0  0  0  0  0  0  0
  144.1320   71.9270  218.4770 C   0  0  0  0  0  0  0  0  0  0  0  0
  145.3350   71.3150  219.2180 C   0  0  0  0  0  0  0  0  0  0  0  0
  145.1570   69.8370  219.2650 C   0  0  0  0  0  0  0  0  0  0  0  0
  146.3050   69.0750  219.2970 C   0  0  0  0  0  0  0  0  0  0  0  0
  146.2300   67.6790  219.3310 C   0  0  0  0  0  0  0  0  0  0  0  0
  144.9640   67.1400  219.3300 C   0  0  0  0  0  0  0  0  0  0  0  0
  143.8090   67.8940  219.2980 C   0  0  0  0  0  0  0  0  0  0  0  0
  143.8890   69.2660  219.2660 C   0  0  0  0  0  0  0  0  0  0  0  0
  142.6480   70.1080  219.2330 C   0  0  0  0  0  0  0  0  0  0  0  0
  141.2780   72.2000  220.8770 N   0  0  0  0  0  0  0  0  0  0  0  0
  140.0640   68.2710  226.2490 C   0  0  0  0  0  0  0  0  0  0  0  0
  140.6770   67.7550  227.3860 C   0  0  0  0  0  0  0  0  0  0  0  0
  141.6068   68.1489  229.3068 H   0  0  0  0  0  0  0  0  0  0  0  0
  141.2894   70.6182  229.0743 H   0  0  0  0  0  0  0  0  0  0  0  0
  140.2092   71.5109  227.0644 H   0  0  0  0  0  0  0  0  0  0  0  0
  138.9677   69.2747  224.2800 H   0  0  0  0  0  0  0  0  0  0  0  0
  138.4035   70.7519  225.2150 H   0  0  0  0  0  0  0  0  0  0  0  0
  140.6235   71.8107  224.6768 H   0  0  0  0  0  0  0  0  0  0  0  0
  140.9536   70.4888  223.5564 H   0  0  0  0  0  0  0  0  0  0  0  0
  139.0786   70.9904  222.2099 H   0  0  0  0  0  0  0  0  0  0  0  0
  138.2750   71.8915  223.6061 H   0  0  0  0  0  0  0  0  0  0  0  0
  139.1160   73.8060  222.8450 H   0  0  0  0  0  0  0  0  0  0  0  0
  142.5260   76.6290  221.3790 H   0  0  0  0  0  0  0  0  0  0  0  0
  144.0038   76.8542  219.1928 H   0  0  0  0  0  0  0  0  0  0  0  0
  142.6604   76.0256  218.3642 H   0  0  0  0  0  0  0  0  0  0  0  0
  142.8943   78.8644  219.1855 H   0  0  0  0  0  0  0  0  0  0  0  0
  141.7178   78.1309  218.0761 H   0  0  0  0  0  0  0  0  0  0  0  0
  140.3135   78.6958  219.8143 H   0  0  0  0  0  0  0  0  0  0  0  0
  140.8779   77.0219  220.3524 H   0  0  0  0  0  0  0  0  0  0  0  0
  139.9726   77.8121  222.4590 H   0  0  0  0  0  0  0  0  0  0  0  0
  141.5404   77.0456  222.8095 H   0  0  0  0  0  0  0  0  0  0  0  0
  140.5449   79.8197  223.6098 H   0  0  0  0  0  0  0  0  0  0  0  0
  141.1314   78.4559  224.6663 H   0  0  0  0  0  0  0  0  0  0  0  0
  143.0978   81.2120  222.7396 H   0  0  0  0  0  0  0  0  0  0  0  0
  143.8543   79.6751  222.1901 H   0  0  0  0  0  0  0  0  0  0  0  0
  140.9229   80.5195  221.7906 H   0  0  0  0  0  0  0  0  0  0  0  0
  142.1447   80.3968  220.5187 H   0  0  0  0  0  0  0  0  0  0  0  0
  144.0626   71.5329  217.4524 H   0  0  0  0  0  0  0  0  0  0  0  0
  144.2076   73.0200  218.3786 H   0  0  0  0  0  0  0  0  0  0  0  0
  146.2645   71.5603  218.6832 H   0  0  0  0  0  0  0  0  0  0  0  0
  145.3959   71.7206  220.2387 H   0  0  0  0  0  0  0  0  0  0  0  0
  147.2879   69.5688  219.2958 H   0  0  0  0  0  0  0  0  0  0  0  0
  147.1309   67.0484  219.3570 H   0  0  0  0  0  0  0  0  0  0  0  0
  144.8672   66.0446  219.3562 H   0  0  0  0  0  0  0  0  0  0  0  0
  142.8268   67.3987  219.2981 H   0  0  0  0  0  0  0  0  0  0  0  0
  142.0911   69.8933  218.3090 H   0  0  0  0  0  0  0  0  0  0  0  0
  142.0354   69.8673  220.1144 H   0  0  0  0  0  0  0  0  0  0  0  0
  139.7206   67.5921  225.4546 H   0  0  0  0  0  0  0  0  0  0  0  0
  140.8108   66.6667  227.4733 H   0  0  0  0  0  0  0  0  0  0  0  0
  1  2  2  0
  2  3  1  0
  3  4  2  0
  4  5  1  0
  5  6  1  0
  6  7  1  0
  7  8  1  0
  8  9  1  0
  9 10  2  0
 10 11  1  0
 11 12  1  0
 12 13  1  0
 13 14  1  0
 14 15  1  0
 15 16  1  0
 16 17  1  0
 17 18  1  0
 18 19  1  0
 19 20  1  0
 20 21  1  0
 11 22  2  0
 22 23  1  0
 23 24  1  0
 24 25  1  0
 25 26  1  0
 26 27  1  0
 27 28  2  0
 28 29  1  0
 29 30  2  0
 30 31  1  0
 31 32  2  0
 32 33  1  0
 23 34  2  0
  4 35  1  0
 35 36  2  0
 36  1  1  0
 34  9  1  0
 21 16  1  0
 33 24  1  0
 32 27  1  0
  1 37  1  0
  2 38  1  0
  3 39  1  0
  5 40  1  0
  5 41  1  0
  6 42  1  0
  6 43  1  0
  7 44  1  0
  7 45  1  0
  8 46  1  0
 12 47  1  0
 13 48  1  0
 13 49  1  0
 14 50  1  0
 14 51  1  0
 15 52  1  0
 15 53  1  0
 17 54  1  0
 17 55  1  0
 18 56  1  0
 18 57  1  0
 20 58  1  0
 20 59  1  0
 21 60  1  0
 21 61  1  0
 25 62  1  0
 25 63  1  0
 26 64  1  0
 26 65  1  0
 28 66  1  0
 29 67  1  0
 30 68  1  0
 31 69  1  0
 33 70  1  0
 33 71  1  0
 35 72  1  0
 36 73  1  0
M  END
>  <smiles>  (44) 
c1ccc(CCCNc2nc(NCCCN3CCOCC3)nc(N3CCc4ccccc4C3)n2)cc1

>  <score_type>  (44) 
oracle

>  <origin>  (44) 
autodockgpu

>  <m_score__min__energy>  (44) 
-9.7400000000000002

>  <m_primary>  (44) 
energy

>  <rmsd>  (44) 
11.02329757245449

>  <m_score__min__rmsd>  (44) 
11.02329757245449

>  <meeko>  (44) 
{"free_energy": -9.26, "intermolecular_energy": -12.55, "internal_energy": -1.71, "cluster_size": 4, "cluster_id": 2, "rank_in_cluster": 2}

>  <energy>  (44) 
-8.44

>  <cluster_rmsd>  (44) 
0.0

>  <cluster>  (44) 
8

$$$$

     RDKit          3D

 73 77  0  0  0  0  0  0  0  0999 V2000
  141.8580   80.5630  223.8200 C   0  0  0  0  0  0  0  0  0  0  0  0
  141.5200   79.2760  224.1750 C   0  0  0  0  0  0  0  0  0  0  0  0
  141.5100   78.2970  223.2060 C   0  0  0  0  0  0  0  0  0  0  0  0
  141.8210   78.5120  221.8830 C   0  0  0  0  0  0  0  0  0  0  0  0
  141.7940   77.4930  220.8390 C   0  0  0  0  0  0  0  0  0  0  0  0
  140.4130   77.1960  220.2730 C   0  0  0  0  0  0  0  0  0  0  0  0
  139.9900   75.9020  220.9360 C   0  0  0  0  0  0  0  0  0  0  0  0
  140.9870   74.8940  221.0220 N   0  0  0  0  0  0  0  0  0  0  0  0
  140.7920   73.5570  221.4360 C   0  0  0  0  0  0  0  0  0  0  0  0
  141.1040   72.5870  220.5270 N   0  0  0  0  0  0  0  0  0  0  0  0
  140.9720   71.2810  220.8360 C   0  0  0  0  0  0  0  0  0  0  0  0
  141.3350   70.2940  219.8580 N   0  0  0  0  0  0  0  0  0  0  0  0
  142.7060   69.8970  219.6120 C   0  0  0  0  0  0  0  0  0  0  0  0
  143.1740   70.6120  218.3390 C   0  0  0  0  0  0  0  0  0  0  0  0
  144.4670   71.3070  218.6860 C   0  0  0  0  0  0  0  0  0  0  0  0
  144.3450   72.6000  219.2500 N   0  0  0  0  0  0  0  0  0  0  0  0
  143.3710   73.4740  218.7020 C   0  0  0  0  0  0  0  0  0  0  0  0
  143.7510   74.8880  219.1160 C   0  0  0  0  0  0  0  0  0  0  0  0
  144.0910   74.9840  220.4390 O   0  0  0  0  0  0  0  0  0  0  0  0
  145.1090   74.1430  220.8530 C   0  0  0  0  0  0  0  0  0  0  0  0
  145.5370   73.2350  219.6960 C   0  0  0  0  0  0  0  0  0  0  0  0
  140.5290   70.8880  222.0510 N   0  0  0  0  0  0  0  0  0  0  0  0
  140.2200   71.8530  222.9540 C   0  0  0  0  0  0  0  0  0  0  0  0
  139.7850   71.3970  224.2220 N   0  0  0  0  0  0  0  0  0  0  0  0
  138.5790   70.5810  224.2960 C   0  0  0  0  0  0  0  0  0  0  0  0
  139.0990   69.1780  224.6610 C   0  0  0  0  0  0  0  0  0  0  0  0
  139.8260   69.2680  225.9580 C   0  0  0  0  0  0  0  0  0  0  0  0
  139.8250   68.1390  226.7480 C   0  0  0  0  0  0  0  0  0  0  0  0
  140.4740   68.1400  227.9870 C   0  0  0  0  0  0  0  0  0  0  0  0
  141.0940   69.3140  228.3470 C   0  0  0  0  0  0  0  0  0  0  0  0
  141.1000   70.4490  227.5630 C   0  0  0  0  0  0  0  0  0  0  0  0
  140.4620   70.4430  226.3450 C   0  0  0  0  0  0  0  0  0  0  0  0
  140.4560   71.6630  225.4730 C   0  0  0  0  0  0  0  0  0  0  0  0
  140.3530   73.1620  222.6370 N   0  0  0  0  0  0  0  0  0  0  0  0
  142.1610   79.8080  221.5300 C   0  0  0  0  0  0  0  0  0  0  0  0
  142.1770   80.8130  222.4910 C   0  0  0  0  0  0  0  0  0  0  0  0
  141.8749   81.3700  224.5673 H   0  0  0  0  0  0  0  0  0  0  0  0
  141.2620   79.0335  225.2165 H   0  0  0  0  0  0  0  0  0  0  0  0
  141.2353   77.2761  223.5099 H   0  0  0  0  0  0  0  0  0  0  0  0
  142.4367   77.8320  220.0132 H   0  0  0  0  0  0  0  0  0  0  0  0
  142.1441   76.5610  221.3068 H   0  0  0  0  0  0  0  0  0  0  0  0
  139.7108   78.0055  220.5211 H   0  0  0  0  0  0  0  0  0  0  0  0
  140.4238   77.1149  219.1760 H   0  0  0  0  0  0  0  0  0  0  0  0
  139.6614   76.1391  221.9587 H   0  0  0  0  0  0  0  0  0  0  0  0
  139.1990   75.4843  220.2958 H   0  0  0  0  0  0  0  0  0  0  0  0
  141.9750   75.1480  220.7570 H   0  0  0  0  0  0  0  0  0  0  0  0
  140.5130   69.8940  219.3250 H   0  0  0  0  0  0  0  0  0  0  0  0
  143.3398   70.1906  220.4618 H   0  0  0  0  0  0  0  0  0  0  0  0
  142.7766   68.8060  219.4906 H   0  0  0  0  0  0  0  0  0  0  0  0
  143.3398   69.8822  217.5329 H   0  0  0  0  0  0  0  0  0  0  0  0
  142.4192   71.3307  217.9872 H   0  0  0  0  0  0  0  0  0  0  0  0
  145.0058   70.6748  219.4071 H   0  0  0  0  0  0  0  0  0  0  0  0
  144.9930   71.4488  217.7304 H   0  0  0  0  0  0  0  0  0  0  0  0
  143.3650   73.3913  217.6051 H   0  0  0  0  0  0  0  0  0  0  0  0
  142.3660   73.2170  219.0678 H   0  0  0  0  0  0  0  0  0  0  0  0
  144.6090   75.2126  218.5089 H   0  0  0  0  0  0  0  0  0  0  0  0
  142.8699   75.5265  218.9551 H   0  0  0  0  0  0  0  0  0  0  0  0
  145.9689   74.7452  221.1816 H   0  0  0  0  0  0  0  0  0  0  0  0
  144.7498   73.5223  221.6871 H   0  0  0  0  0  0  0  0  0  0  0  0
  145.9822   73.8299  218.8849 H   0  0  0  0  0  0  0  0  0  0  0  0
  146.2958   72.5034  220.0107 H   0  0  0  0  0  0  0  0  0  0  0  0
  137.8980   70.9596  225.0724 H   0  0  0  0  0  0  0  0  0  0  0  0
  138.0050   70.5885  223.3577 H   0  0  0  0  0  0  0  0  0  0  0  0
  138.2529   68.4817  224.7571 H   0  0  0  0  0  0  0  0  0  0  0  0
  139.7738   68.8090  223.8746 H   0  0  0  0  0  0  0  0  0  0  0  0
  139.3102   67.2306  226.4018 H   0  0  0  0  0  0  0  0  0  0  0  0
  140.4878   67.2524  228.6366 H   0  0  0  0  0  0  0  0  0  0  0  0
  141.6147   69.3498  229.3153 H   0  0  0  0  0  0  0  0  0  0  0  0
  141.6141   71.3569  227.9115 H   0  0  0  0  0  0  0  0  0  0  0  0
  139.9336   72.4775  225.9962 H   0  0  0  0  0  0  0  0  0  0  0  0
  141.4966   71.9492  225.2606 H   0  0  0  0  0  0  0  0  0  0  0  0
  142.4190   80.0426  220.4867 H   0  0  0  0  0  0  0  0  0  0  0  0
  142.4501   81.8353  222.1904 H   0  0  0  0  0  0  0  0  0  0  0  0
  1  2  2  0
  2  3  1  0
  3  4  2  0
  4  5  1  0
  5  6  1  0
  6  7  1  0
  7  8  1  0
  8  9  1  0
  9 10  2  0
 10 11  1  0
 11 12  1  0
 12 13  1  0
 13 14  1  0
 14 15  1  0
 15 16  1  0
 16 17  1  0
 17 18  1  0
 18 19  1  0
 19 20  1  0
 20 21  1  0
 11 22  2  0
 22 23  1  0
 23 24  1  0
 24 25  1  0
 25 26  1  0
 26 27  1  0
 27 28  2  0
 28 29  1  0
 29 30  2  0
 30 31  1  0
 31 32  2  0
 32 33  1  0
 23 34  2  0
  4 35  1  0
 35 36  2  0
 36  1  1  0
 34  9  1  0
 21 16  1  0
 33 24  1  0
 32 27  1  0
  1 37  1  0
  2 38  1  0
  3 39  1  0
  5 40  1  0
  5 41  1  0
  6 42  1  0
  6 43  1  0
  7 44  1  0
  7 45  1  0
  8 46  1  0
 12 47  1  0
 13 48  1  0
 13 49  1  0
 14 50  1  0
 14 51  1  0
 15 52  1  0
 15 53  1  0
 17 54  1  0
 17 55  1  0
 18 56  1  0
 18 57  1  0
 20 58  1  0
 20 59  1  0
 21 60  1  0
 21 61  1  0
 25 62  1  0
 25 63  1  0
 26 64  1  0
 26 65  1  0
 28 66  1  0
 29 67  1  0
 30 68  1  0
 31 69  1  0
 33 70  1  0
 33 71  1  0
 35 72  1  0
 36 73  1  0
M  END
>  <smiles>  (45) 
c1ccc(CCCNc2nc(NCCCN3CCOCC3)nc(N3CCc4ccccc4C3)n2)cc1

>  <score_type>  (45) 
oracle

>  <origin>  (45) 
autodockgpu

>  <m_score__min__energy>  (45) 
-9.7400000000000002

>  <m_primary>  (45) 
energy

>  <rmsd>  (45) 
11.479216417767198

>  <m_score__min__rmsd>  (45) 
11.479216417767198

>  <meeko>  (45) 
{"free_energy": -8.27, "intermolecular_energy": -11.56, "internal_energy": -2.48, "cluster_size": 11, "cluster_id": 6, "rank_in_cluster": 9}

>  <energy>  (45) 
-8.11

>  <cluster_rmsd>  (45) 
0.78

>  <cluster>  (45) 
8

$$$$

     RDKit          3D

 73 77  0  0  0  0  0  0  0  0999 V2000
  140.8690   71.8050  228.3620 C   0  0  0  0  0  0  0  0  0  0  0  0
  140.1140   70.6620  228.2310 C   0  0  0  0  0  0  0  0  0  0  0  0
  139.9420   70.1130  226.9790 C   0  0  0  0  0  0  0  0  0  0  0  0
  140.4810   70.6330  225.8250 C   0  0  0  0  0  0  0  0  0  0  0  0
  140.2920   70.0790  224.4880 C   0  0  0  0  0  0  0  0  0  0  0  0
  138.8620   69.6720  224.1630 C   0  0  0  0  0  0  0  0  0  0  0  0
  138.4840   70.5050  222.9570 C   0  0  0  0  0  0  0  0  0  0  0  0
  138.6380   71.9100  223.1000 N   0  0  0  0  0  0  0  0  0  0  0  0
  139.5200   72.7340  222.3660 C   0  0  0  0  0  0  0  0  0  0  0  0
  140.5090   72.0990  221.6690 N   0  0  0  0  0  0  0  0  0  0  0  0
  141.3870   72.7970  220.9220 C   0  0  0  0  0  0  0  0  0  0  0  0
  142.3950   72.0870  220.1860 N   0  0  0  0  0  0  0  0  0  0  0  0
  143.3170   71.1600  220.8090 C   0  0  0  0  0  0  0  0  0  0  0  0
  144.0780   70.4400  219.6900 C   0  0  0  0  0  0  0  0  0  0  0  0
  145.0330   71.4480  219.1010 C   0  0  0  0  0  0  0  0  0  0  0  0
  144.5500   72.7750  218.9980 N   0  0  0  0  0  0  0  0  0  0  0  0
  144.0740   73.2120  217.7350 C   0  0  0  0  0  0  0  0  0  0  0  0
  144.0770   74.7330  217.7540 C   0  0  0  0  0  0  0  0  0  0  0  0
  143.5470   75.2540  218.9040 O   0  0  0  0  0  0  0  0  0  0  0  0
  144.1380   74.8240  220.0790 C   0  0  0  0  0  0  0  0  0  0  0  0
  145.2090   73.7730  219.7680 C   0  0  0  0  0  0  0  0  0  0  0  0
  141.3200   74.1450  220.8350 N   0  0  0  0  0  0  0  0  0  0  0  0
  140.3360   74.7740  221.5270 C   0  0  0  0  0  0  0  0  0  0  0  0
  140.2870   76.1830  221.3880 N   0  0  0  0  0  0  0  0  0  0  0  0
  138.9850   76.8390  221.3690 C   0  0  0  0  0  0  0  0  0  0  0  0
  138.9260   77.5910  222.7110 C   0  0  0  0  0  0  0  0  0  0  0  0
  140.0650   78.5500  222.7640 C   0  0  0  0  0  0  0  0  0  0  0  0
  139.8770   79.6950  223.5090 C   0  0  0  0  0  0  0  0  0  0  0  0
  140.8900   80.6540  223.6030 C   0  0  0  0  0  0  0  0  0  0  0  0
  142.0520   80.3790  222.9190 C   0  0  0  0  0  0  0  0  0  0  0  0
  142.2490   79.2370  222.1710 C   0  0  0  0  0  0  0  0  0  0  0  0
  141.2500   78.2960  222.0820 C   0  0  0  0  0  0  0  0  0  0  0  0
  141.4410   77.0440  221.2770 C   0  0  0  0  0  0  0  0  0  0  0  0
  139.4590   74.0670  222.2760 N   0  0  0  0  0  0  0  0  0  0  0  0
  141.2410   71.7840  225.9600 C   0  0  0  0  0  0  0  0  0  0  0  0
  141.4270   72.3550  227.2140 C   0  0  0  0  0  0  0  0  0  0  0  0
  141.0263   72.2698  229.3465 H   0  0  0  0  0  0  0  0  0  0  0  0
  139.6542   70.1932  229.1135 H   0  0  0  0  0  0  0  0  0  0  0  0
  139.3343   69.1998  226.8969 H   0  0  0  0  0  0  0  0  0  0  0  0
  140.6071   70.8369  223.7557 H   0  0  0  0  0  0  0  0  0  0  0  0
  140.8934   69.1589  224.4458 H   0  0  0  0  0  0  0  0  0  0  0  0
  138.8097   68.5995  223.9242 H   0  0  0  0  0  0  0  0  0  0  0  0
  138.1814   69.8386  225.0109 H   0  0  0  0  0  0  0  0  0  0  0  0
  139.1118   70.1813  222.1137 H   0  0  0  0  0  0  0  0  0  0  0  0
  137.4074   70.3376  222.8054 H   0  0  0  0  0  0  0  0  0  0  0  0
  138.0460   72.4040  223.8180 H   0  0  0  0  0  0  0  0  0  0  0  0
  142.4110   72.3120  219.1520 H   0  0  0  0  0  0  0  0  0  0  0  0
  144.0231   71.7076  221.4506 H   0  0  0  0  0  0  0  0  0  0  0  0
  142.7735   70.4362  221.4340 H   0  0  0  0  0  0  0  0  0  0  0  0
  144.6345   69.5839  220.0993 H   0  0  0  0  0  0  0  0  0  0  0  0
  143.3878   70.0536  218.9257 H   0  0  0  0  0  0  0  0  0  0  0  0
  145.9342   71.4660  219.7315 H   0  0  0  0  0  0  0  0  0  0  0  0
  145.2128   71.1171  218.0675 H   0  0  0  0  0  0  0  0  0  0  0  0
  144.7340   72.8439  216.9357 H   0  0  0  0  0  0  0  0  0  0  0  0
  143.0616   72.8262  217.5448 H   0  0  0  0  0  0  0  0  0  0  0  0
  145.1153   75.0829  217.6565 H   0  0  0  0  0  0  0  0  0  0  0  0
  143.4489   75.0741  216.9178 H   0  0  0  0  0  0  0  0  0  0  0  0
  144.6041   75.6806  220.5879 H   0  0  0  0  0  0  0  0  0  0  0  0
  143.3707   74.3787  220.7293 H   0  0  0  0  0  0  0  0  0  0  0  0
  146.0320   74.2216  219.1923 H   0  0  0  0  0  0  0  0  0  0  0  0
  145.6497   73.3557  220.6854 H   0  0  0  0  0  0  0  0  0  0  0  0
  138.9130   77.5402  220.5246 H   0  0  0  0  0  0  0  0  0  0  0  0
  138.1549   76.1279  221.2458 H   0  0  0  0  0  0  0  0  0  0  0  0
  137.9753   78.1389  222.7882 H   0  0  0  0  0  0  0  0  0  0  0  0
  138.9930   76.8785  223.5464 H   0  0  0  0  0  0  0  0  0  0  0  0
  138.9232   79.8550  224.0331 H   0  0  0  0  0  0  0  0  0  0  0  0
  140.7653   81.5758  224.1902 H   0  0  0  0  0  0  0  0  0  0  0  0
  142.8706   81.1119  222.9718 H   0  0  0  0  0  0  0  0  0  0  0  0
  143.2031   79.0792  221.6468 H   0  0  0  0  0  0  0  0  0  0  0  0
  141.5900   77.3133  220.2209 H   0  0  0  0  0  0  0  0  0  0  0  0
  142.3203   76.5072  221.6625 H   0  0  0  0  0  0  0  0  0  0  0  0
  141.6981   72.2469  225.0730 H   0  0  0  0  0  0  0  0  0  0  0  0
  142.0335   73.2687  227.3000 H   0  0  0  0  0  0  0  0  0  0  0  0
  1  2  2  0
  2  3  1  0
  3  4  2  0
  4  5  1  0
  5  6  1  0
  6  7  1  0
  7  8  1  0
  8  9  1  0
  9 10  2  0
 10 11  1  0
 11 12  1  0
 12 13  1  0
 13 14  1  0
 14 15  1  0
 15 16  1  0
 16 17  1  0
 17 18  1  0
 18 19  1  0
 19 20  1  0
 20 21  1  0
 11 22  2  0
 22 23  1  0
 23 24  1  0
 24 25  1  0
 25 26  1  0
 26 27  1  0
 27 28  2  0
 28 29  1  0
 29 30  2  0
 30 31  1  0
 31 32  2  0
 32 33  1  0
 23 34  2  0
  4 35  1  0
 35 36  2  0
 36  1  1  0
 34  9  1  0
 21 16  1  0
 33 24  1  0
 32 27  1  0
  1 37  1  0
  2 38  1  0
  3 39  1  0
  5 40  1  0
  5 41  1  0
  6 42  1  0
  6 43  1  0
  7 44  1  0
  7 45  1  0
  8 46  1  0
 12 47  1  0
 13 48  1  0
 13 49  1  0
 14 50  1  0
 14 51  1  0
 15 52  1  0
 15 53  1  0
 17 54  1  0
 17 55  1  0
 18 56  1  0
 18 57  1  0
 20 58  1  0
 20 59  1  0
 21 60  1  0
 21 61  1  0
 25 62  1  0
 25 63  1  0
 26 64  1  0
 26 65  1  0
 28 66  1  0
 29 67  1  0
 30 68  1  0
 31 69  1  0
 33 70  1  0
 33 71  1  0
 35 72  1  0
 36 73  1  0
M  END
>  <smiles>  (46) 
c1ccc(CCCNc2nc(NCCCN3CCOCC3)nc(N3CCc4ccccc4C3)n2)cc1

>  <score_type>  (46) 
oracle

>  <origin>  (46) 
autodockgpu

>  <m_score__min__energy>  (46) 
-9.7400000000000002

>  <m_primary>  (46) 
energy

>  <rmsd>  (46) 
5.132794261421525

>  <m_score__min__rmsd>  (46) 
5.132794261421525

>  <meeko>  (46) 
{"free_energy": -8.64, "intermolecular_energy": -11.92, "internal_energy": -2.26, "cluster_size": 6, "cluster_id": 3, "rank_in_cluster": 6}

>  <energy>  (46) 
-7.85

>  <cluster_rmsd>  (46) 
0.51

>  <cluster>  (46) 
8

$$$$

     RDKit          3D

 73 77  0  0  0  0  0  0  0  0999 V2000
  142.1880   78.4670  218.9930 C   0  0  0  0  0  0  0  0  0  0  0  0
  142.7610   78.0030  217.8300 C   0  0  0  0  0  0  0  0  0  0  0  0
  143.2860   76.7300  217.8070 C   0  0  0  0  0  0  0  0  0  0  0  0
  143.2820   75.8690  218.8790 C   0  0  0  0  0  0  0  0  0  0  0  0
  143.8530   74.5260  218.8800 C   0  0  0  0  0  0  0  0  0  0  0  0
  144.5320   74.1230  220.1810 C   0  0  0  0  0  0  0  0  0  0  0  0
  144.4560   72.6110  220.2080 C   0  0  0  0  0  0  0  0  0  0  0  0
  143.1480   72.0550  220.1840 N   0  0  0  0  0  0  0  0  0  0  0  0
  142.0500   72.4670  220.9720 C   0  0  0  0  0  0  0  0  0  0  0  0
  141.3880   73.5870  220.5570 N   0  0  0  0  0  0  0  0  0  0  0  0
  140.3140   74.0460  221.2300 C   0  0  0  0  0  0  0  0  0  0  0  0
  139.6340   75.2130  220.7440 N   0  0  0  0  0  0  0  0  0  0  0  0
  138.9950   76.1730  221.6200 C   0  0  0  0  0  0  0  0  0  0  0  0
  140.0820   76.7790  222.5150 C   0  0  0  0  0  0  0  0  0  0  0  0
  139.7330   78.2360  222.6920 C   0  0  0  0  0  0  0  0  0  0  0  0
  140.8220   79.1400  222.6850 N   0  0  0  0  0  0  0  0  0  0  0  0
  141.8410   78.9580  223.6550 C   0  0  0  0  0  0  0  0  0  0  0  0
  142.6000   80.2730  223.7630 C   0  0  0  0  0  0  0  0  0  0  0  0
  142.9040   80.8140  222.5420 O   0  0  0  0  0  0  0  0  0  0  0  0
  141.8260   81.0260  221.7000 C   0  0  0  0  0  0  0  0  0  0  0  0
  140.5460   80.4950  222.3520 C   0  0  0  0  0  0  0  0  0  0  0  0
  139.8570   73.4160  222.3360 N   0  0  0  0  0  0  0  0  0  0  0  0
  140.5150   72.3020  222.7470 C   0  0  0  0  0  0  0  0  0  0  0  0
  139.9870   71.6600  223.8930 N   0  0  0  0  0  0  0  0  0  0  0  0
  138.6540   71.0740  223.8160 C   0  0  0  0  0  0  0  0  0  0  0  0
  138.9100   69.5560  223.8460 C   0  0  0  0  0  0  0  0  0  0  0  0
  139.6230   69.2240  225.1120 C   0  0  0  0  0  0  0  0  0  0  0  0
  139.4090   67.9650  225.6310 C   0  0  0  0  0  0  0  0  0  0  0  0
  140.0300   67.5750  226.8220 C   0  0  0  0  0  0  0  0  0  0  0  0
  140.8450   68.5110  227.4170 C   0  0  0  0  0  0  0  0  0  0  0  0
  141.0650   69.7720  226.9040 C   0  0  0  0  0  0  0  0  0  0  0  0
  140.4530   70.1510  225.7330 C   0  0  0  0  0  0  0  0  0  0  0  0
  140.6780   71.5160  225.1530 C   0  0  0  0  0  0  0  0  0  0  0  0
  141.5930   71.8480  222.0670 N   0  0  0  0  0  0  0  0  0  0  0  0
  142.7040   76.3400  220.0480 C   0  0  0  0  0  0  0  0  0  0  0  0
  142.1680   77.6210  220.0960 C   0  0  0  0  0  0  0  0  0  0  0  0
  141.7584   79.4782  219.0477 H   0  0  0  0  0  0  0  0  0  0  0  0
  142.7988   78.6391  216.9334 H   0  0  0  0  0  0  0  0  0  0  0  0
  143.7388   76.3785  216.8682 H   0  0  0  0  0  0  0  0  0  0  0  0
  143.0427   73.8093  218.6805 H   0  0  0  0  0  0  0  0  0  0  0  0
  144.6359   74.5215  218.1074 H   0  0  0  0  0  0  0  0  0  0  0  0
  145.5797   74.4581  220.1907 H   0  0  0  0  0  0  0  0  0  0  0  0
  144.0488   74.5776  221.0584 H   0  0  0  0  0  0  0  0  0  0  0  0
  145.0002   72.2304  219.3311 H   0  0  0  0  0  0  0  0  0  0  0  0
  144.8908   72.3081  221.1719 H   0  0  0  0  0  0  0  0  0  0  0  0
  142.9590   71.2580  219.5220 H   0  0  0  0  0  0  0  0  0  0  0  0
  139.6300   75.3000  219.6890 H   0  0  0  0  0  0  0  0  0  0  0  0
  138.5159   76.9637  221.0240 H   0  0  0  0  0  0  0  0  0  0  0  0
  138.2208   75.6842  222.2296 H   0  0  0  0  0  0  0  0  0  0  0  0
  140.0968   76.2712  223.4907 H   0  0  0  0  0  0  0  0  0  0  0  0
  141.0781   76.6621  222.0632 H   0  0  0  0  0  0  0  0  0  0  0  0
  139.0537   78.5210  221.8751 H   0  0  0  0  0  0  0  0  0  0  0  0
  139.2885   78.3148  223.6951 H   0  0  0  0  0  0  0  0  0  0  0  0
  141.3946   78.6997  224.6266 H   0  0  0  0  0  0  0  0  0  0  0  0
  142.5164   78.1403  223.3630 H   0  0  0  0  0  0  0  0  0  0  0  0
  141.9809   80.9910  224.3208 H   0  0  0  0  0  0  0  0  0  0  0  0
  143.5495   80.0651  224.2780 H   0  0  0  0  0  0  0  0  0  0  0  0
  141.7184   82.1039  221.5089 H   0  0  0  0  0  0  0  0  0  0  0  0
  141.9968   80.4965  220.7511 H   0  0  0  0  0  0  0  0  0  0  0  0
  140.3079   81.0724  223.2575 H   0  0  0  0  0  0  0  0  0  0  0  0
  139.6798   80.5813  221.6795 H   0  0  0  0  0  0  0  0  0  0  0  0
  138.0408   71.3838  224.6751 H   0  0  0  0  0  0  0  0  0  0  0  0
  138.1037   71.3921  222.9182 H   0  0  0  0  0  0  0  0  0  0  0  0
  137.9520   69.0169  223.8068 H   0  0  0  0  0  0  0  0  0  0  0  0
  139.5193   69.2583  222.9799 H   0  0  0  0  0  0  0  0  0  0  0  0
  138.7456   67.2626  225.1051 H   0  0  0  0  0  0  0  0  0  0  0  0
  139.8758   66.5771  227.2583 H   0  0  0  0  0  0  0  0  0  0  0  0
  141.3497   68.2376  228.3554 H   0  0  0  0  0  0  0  0  0  0  0  0
  141.7289   70.4732  227.4309 H   0  0  0  0  0  0  0  0  0  0  0  0
  140.3037   72.2731  225.8578 H   0  0  0  0  0  0  0  0  0  0  0  0
  141.7559   71.6517  224.9806 H   0  0  0  0  0  0  0  0  0  0  0  0
  142.6697   75.6975  220.9402 H   0  0  0  0  0  0  0  0  0  0  0  0
  141.7149   77.9759  221.0334 H   0  0  0  0  0  0  0  0  0  0  0  0
  1  2  2  0
  2  3  1  0
  3  4  2  0
  4  5  1  0
  5  6  1  0
  6  7  1  0
  7  8  1  0
  8  9  1  0
  9 10  2  0
 10 11  1  0
 11 12  1  0
 12 13  1  0
 13 14  1  0
 14 15  1  0
 15 16  1  0
 16 17  1  0
 17 18  1  0
 18 19  1  0
 19 20  1  0
 20 21  1  0
 11 22  2  0
 22 23  1  0
 23 24  1  0
 24 25  1  0
 25 26  1  0
 26 27  1  0
 27 28  2  0
 28 29  1  0
 29 30  2  0
 30 31  1  0
 31 32  2  0
 32 33  1  0
 23 34  2  0
  4 35  1  0
 35 36  2  0
 36  1  1  0
 34  9  1  0
 21 16  1  0
 33 24  1  0
 32 27  1  0
  1 37  1  0
  2 38  1  0
  3 39  1  0
  5 40  1  0
  5 41  1  0
  6 42  1  0
  6 43  1  0
  7 44  1  0
  7 45  1  0
  8 46  1  0
 12 47  1  0
 13 48  1  0
 13 49  1  0
 14 50  1  0
 14 51  1  0
 15 52  1  0
 15 53  1  0
 17 54  1  0
 17 55  1  0
 18 56  1  0
 18 57  1  0
 20 58  1  0
 20 59  1  0
 21 60  1  0
 21 61  1  0
 25 62  1  0
 25 63  1  0
 26 64  1  0
 26 65  1  0
 28 66  1  0
 29 67  1  0
 30 68  1  0
 31 69  1  0
 33 70  1  0
 33 71  1  0
 35 72  1  0
 36 73  1  0
M  END
>  <smiles>  (47) 
c1ccc(CCCNc2nc(NCCCN3CCOCC3)nc(N3CCc4ccccc4C3)n2)cc1

>  <score_type>  (47) 
oracle

>  <origin>  (47) 
autodockgpu

>  <m_score__min__energy>  (47) 
-9.7400000000000002

>  <m_primary>  (47) 
energy

>  <rmsd>  (47) 
11.244989483756475

>  <m_score__min__rmsd>  (47) 
11.244989483756475

>  <meeko>  (47) 
{"free_energy": -8.57, "intermolecular_energy": -11.85, "internal_energy": -2.19, "cluster_size": 4, "cluster_id": 7, "rank_in_cluster": 4}

>  <energy>  (47) 
-8.23

>  <cluster_rmsd>  (47) 
0.0

>  <cluster>  (47) 
9

$$$$

     RDKit          3D

 73 77  0  0  0  0  0  0  0  0999 V2000
  140.2560   68.4070  228.3210 C   0  0  0  0  0  0  0  0  0  0  0  0
  140.8850   67.9480  227.1850 C   0  0  0  0  0  0  0  0  0  0  0  0
  141.1310   68.8310  226.1560 C   0  0  0  0  0  0  0  0  0  0  0  0
  140.7910   70.1630  226.1790 C   0  0  0  0  0  0  0  0  0  0  0  0
  141.0230   71.1070  225.0910 C   0  0  0  0  0  0  0  0  0  0  0  0
  139.7830   71.4760  224.2910 C   0  0  0  0  0  0  0  0  0  0  0  0
  140.1900   71.3110  222.8420 C   0  0  0  0  0  0  0  0  0  0  0  0
  140.6010   72.4960  222.1740 N   0  0  0  0  0  0  0  0  0  0  0  0
  139.8440   73.6800  222.0310 C   0  0  0  0  0  0  0  0  0  0  0  0
  138.4850   73.5410  222.0450 N   0  0  0  0  0  0  0  0  0  0  0  0
  137.6770   74.6140  221.9360 C   0  0  0  0  0  0  0  0  0  0  0  0
  136.2550   74.4240  221.9800 N   0  0  0  0  0  0  0  0  0  0  0  0
  135.5460   74.0700  223.1920 C   0  0  0  0  0  0  0  0  0  0  0  0
  135.0960   75.3740  223.8630 C   0  0  0  0  0  0  0  0  0  0  0  0
  135.3440   75.2060  225.3410 C   0  0  0  0  0  0  0  0  0  0  0  0
  134.2780   74.6500  226.0900 N   0  0  0  0  0  0  0  0  0  0  0  0
  134.0980   73.2440  226.0440 C   0  0  0  0  0  0  0  0  0  0  0  0
  132.6730   72.9580  226.4950 C   0  0  0  0  0  0  0  0  0  0  0  0
  132.3160   73.6600  227.6160 O   0  0  0  0  0  0  0  0  0  0  0  0
  132.4540   75.0340  227.5260 C   0  0  0  0  0  0  0  0  0  0  0  0
  133.0760   75.4060  226.1760 C   0  0  0  0  0  0  0  0  0  0  0  0
  138.1820   75.8630  221.8110 N   0  0  0  0  0  0  0  0  0  0  0  0
  139.5320   76.0010  221.7990 C   0  0  0  0  0  0  0  0  0  0  0  0
  140.0170   77.3270  221.6930 N   0  0  0  0  0  0  0  0  0  0  0  0
  139.0560   78.4180  221.5870 C   0  0  0  0  0  0  0  0  0  0  0  0
  139.1650   79.1460  222.9390 C   0  0  0  0  0  0  0  0  0  0  0  0
  140.5690   79.6170  223.1070 C   0  0  0  0  0  0  0  0  0  0  0  0
  140.7540   80.7540  223.8640 C   0  0  0  0  0  0  0  0  0  0  0  0
  142.0380   81.2720  224.0630 C   0  0  0  0  0  0  0  0  0  0  0  0
  143.0690   80.5830  223.4670 C   0  0  0  0  0  0  0  0  0  0  0  0
  142.8940   79.4440  222.7090 C   0  0  0  0  0  0  0  0  0  0  0  0
  141.6300   78.9390  222.5160 C   0  0  0  0  0  0  0  0  0  0  0  0
  141.4120   77.7010  221.6980 C   0  0  0  0  0  0  0  0  0  0  0  0
  140.3370   74.9180  221.9070 N   0  0  0  0  0  0  0  0  0  0  0  0
  140.1590   70.6210  227.3250 C   0  0  0  0  0  0  0  0  0  0  0  0
  139.8990   69.7480  228.3750 C   0  0  0  0  0  0  0  0  0  0  0  0
  140.0424   67.7306  229.1617 H   0  0  0  0  0  0  0  0  0  0  0  0
  141.1862   66.8934  227.1004 H   0  0  0  0  0  0  0  0  0  0  0  0
  141.6327   68.4445  225.2566 H   0  0  0  0  0  0  0  0  0  0  0  0
  141.4395   72.0296  225.5215 H   0  0  0  0  0  0  0  0  0  0  0  0
  141.7072   70.6081  224.3889 H   0  0  0  0  0  0  0  0  0  0  0  0
  138.9489   70.8026  224.5377 H   0  0  0  0  0  0  0  0  0  0  0  0
  139.4379   72.4972  224.5102 H   0  0  0  0  0  0  0  0  0  0  0  0
  141.0257   70.5966  222.8059 H   0  0  0  0  0  0  0  0  0  0  0  0
  139.2859   70.9709  222.3157 H   0  0  0  0  0  0  0  0  0  0  0  0
  141.5590   72.5130  221.7350 H   0  0  0  0  0  0  0  0  0  0  0  0
  135.7750   74.5510  221.0450 H   0  0  0  0  0  0  0  0  0  0  0  0
  134.6695   73.4522  222.9471 H   0  0  0  0  0  0  0  0  0  0  0  0
  136.1964   73.4930  223.8658 H   0  0  0  0  0  0  0  0  0  0  0  0
  135.6792   76.2218  223.4743 H   0  0  0  0  0  0  0  0  0  0  0  0
  134.0345   75.5789  223.6597 H   0  0  0  0  0  0  0  0  0  0  0  0
  136.2189   74.5506  225.4631 H   0  0  0  0  0  0  0  0  0  0  0  0
  135.4850   76.2230  225.7356 H   0  0  0  0  0  0  0  0  0  0  0  0
  134.2492   72.8780  225.0177 H   0  0  0  0  0  0  0  0  0  0  0  0
  134.8235   72.7358  226.6962 H   0  0  0  0  0  0  0  0  0  0  0  0
  131.9862   73.2273  225.6790 H   0  0  0  0  0  0  0  0  0  0  0  0
  132.6148   71.8881  226.7439 H   0  0  0  0  0  0  0  0  0  0  0  0
  131.4649   75.5069  227.6150 H   0  0  0  0  0  0  0  0  0  0  0  0
  133.1081   75.3871  228.3368 H   0  0  0  0  0  0  0  0  0  0  0  0
  132.3956   75.1412  225.3532 H   0  0  0  0  0  0  0  0  0  0  0  0
  133.2671   76.4865  226.0987 H   0  0  0  0  0  0  0  0  0  0  0  0
  139.3196   79.0916  220.7583 H   0  0  0  0  0  0  0  0  0  0  0  0
  138.0356   78.0635  221.3791 H   0  0  0  0  0  0  0  0  0  0  0  0
  138.4800   80.0066  222.9540 H   0  0  0  0  0  0  0  0  0  0  0  0
  138.8941   78.4642  223.7586 H   0  0  0  0  0  0  0  0  0  0  0  0
  139.8860   81.2574  224.3147 H   0  0  0  0  0  0  0  0  0  0  0  0
  142.2133   82.1781  224.6616 H   0  0  0  0  0  0  0  0  0  0  0  0
  144.0925   80.9626  223.6029 H   0  0  0  0  0  0  0  0  0  0  0  0
  143.7633   78.9412  222.2602 H   0  0  0  0  0  0  0  0  0  0  0  0
  141.7382   77.8898  220.6646 H   0  0  0  0  0  0  0  0  0  0  0  0
  141.9950   76.8797  222.1403 H   0  0  0  0  0  0  0  0  0  0  0  0
  139.8627   71.6774  227.4034 H   0  0  0  0  0  0  0  0  0  0  0  0
  139.3957   70.1306  229.2752 H   0  0  0  0  0  0  0  0  0  0  0  0
  1  2  2  0
  2  3  1  0
  3  4  2  0
  4  5  1  0
  5  6  1  0
  6  7  1  0
  7  8  1  0
  8  9  1  0
  9 10  2  0
 10 11  1  0
 11 12  1  0
 12 13  1  0
 13 14  1  0
 14 15  1  0
 15 16  1  0
 16 17  1  0
 17 18  1  0
 18 19  1  0
 19 20  1  0
 20 21  1  0
 11 22  2  0
 22 23  1  0
 23 24  1  0
 24 25  1  0
 25 26  1  0
 26 27  1  0
 27 28  2  0
 28 29  1  0
 29 30  2  0
 30 31  1  0
 31 32  2  0
 32 33  1  0
 23 34  2  0
  4 35  1  0
 35 36  2  0
 36  1  1  0
 34  9  1  0
 21 16  1  0
 33 24  1  0
 32 27  1  0
  1 37  1  0
  2 38  1  0
  3 39  1  0
  5 40  1  0
  5 41  1  0
  6 42  1  0
  6 43  1  0
  7 44  1  0
  7 45  1  0
  8 46  1  0
 12 47  1  0
 13 48  1  0
 13 49  1  0
 14 50  1  0
 14 51  1  0
 15 52  1  0
 15 53  1  0
 17 54  1  0
 17 55  1  0
 18 56  1  0
 18 57  1  0
 20 58  1  0
 20 59  1  0
 21 60  1  0
 21 61  1  0
 25 62  1  0
 25 63  1  0
 26 64  1  0
 26 65  1  0
 28 66  1  0
 29 67  1  0
 30 68  1  0
 31 69  1  0
 33 70  1  0
 33 71  1  0
 35 72  1  0
 36 73  1  0
M  END
>  <smiles>  (48) 
c1ccc(CCCNc2nc(NCCCN3CCOCC3)nc(N3CCc4ccccc4C3)n2)cc1

>  <score_type>  (48) 
oracle

>  <origin>  (48) 
autodockgpu

>  <m_score__min__energy>  (48) 
-9.7400000000000002

>  <m_primary>  (48) 
energy

>  <rmsd>  (48) 
5.742436103196678

>  <m_score__min__rmsd>  (48) 
5.742436103196678

>  <meeko>  (48) 
{"free_energy": -9.74, "intermolecular_energy": -13.02, "internal_energy": -1.1, "cluster_size": 15, "cluster_id": 1, "rank_in_cluster": 1}

>  <energy>  (48) 
-7.36

>  <cluster_rmsd>  (48) 
1.68

>  <cluster>  (48) 
9

$$$$

     RDKit          3D

 73 77  0  0  0  0  0  0  0  0999 V2000
  142.5000   81.1860  223.9310 C   0  0  0  0  0  0  0  0  0  0  0  0
  143.2340   80.2430  223.2480 C   0  0  0  0  0  0  0  0  0  0  0  0
  142.5720   79.3030  222.4890 C   0  0  0  0  0  0  0  0  0  0  0  0
  141.2040   79.2350  222.3590 C   0  0  0  0  0  0  0  0  0  0  0  0
  140.4850   78.2330  221.5780 C   0  0  0  0  0  0  0  0  0  0  0  0
  140.2070   76.9300  222.3140 C   0  0  0  0  0  0  0  0  0  0  0  0
  139.3510   76.1210  221.3630 C   0  0  0  0  0  0  0  0  0  0  0  0
  139.9920   75.0190  220.7360 N   0  0  0  0  0  0  0  0  0  0  0  0
  140.4300   73.8350  221.3690 C   0  0  0  0  0  0  0  0  0  0  0  0
  141.5390   73.2370  220.8420 N   0  0  0  0  0  0  0  0  0  0  0  0
  142.0470   72.1140  221.3890 C   0  0  0  0  0  0  0  0  0  0  0  0
  143.2290   71.5330  220.8180 N   0  0  0  0  0  0  0  0  0  0  0  0
  143.3830   71.3020  219.3970 C   0  0  0  0  0  0  0  0  0  0  0  0
  144.6540   72.0300  218.9450 C   0  0  0  0  0  0  0  0  0  0  0  0
  144.7010   73.3310  219.7080 C   0  0  0  0  0  0  0  0  0  0  0  0
  143.7340   74.2990  219.3430 N   0  0  0  0  0  0  0  0  0  0  0  0
  143.1230   74.1790  218.0690 C   0  0  0  0  0  0  0  0  0  0  0  0
  142.5280   75.5370  217.7250 C   0  0  0  0  0  0  0  0  0  0  0  0
  141.8360   76.0950  218.7680 O   0  0  0  0  0  0  0  0  0  0  0  0
  142.5510   76.2420  219.9440 C   0  0  0  0  0  0  0  0  0  0  0  0
  143.9480   75.6350  219.7820 C   0  0  0  0  0  0  0  0  0  0  0  0
  141.4780   71.5430  222.4760 N   0  0  0  0  0  0  0  0  0  0  0  0
  140.3760   72.1390  222.9990 C   0  0  0  0  0  0  0  0  0  0  0  0
  139.8280   71.5230  224.1500 N   0  0  0  0  0  0  0  0  0  0  0  0
  138.6260   70.7120  224.0050 C   0  0  0  0  0  0  0  0  0  0  0  0
  139.1170   69.2700  224.2270 C   0  0  0  0  0  0  0  0  0  0  0  0
  139.7220   69.1830  225.5860 C   0  0  0  0  0  0  0  0  0  0  0  0
  139.6540   67.9590  226.2170 C   0  0  0  0  0  0  0  0  0  0  0  0
  140.1860   67.7920  227.5000 C   0  0  0  0  0  0  0  0  0  0  0  0
  140.7640   68.9050  228.0660 C   0  0  0  0  0  0  0  0  0  0  0  0
  140.8360   70.1330  227.4430 C   0  0  0  0  0  0  0  0  0  0  0  0
  140.3130   70.2920  226.1820 C   0  0  0  0  0  0  0  0  0  0  0  0
  140.3810   71.6170  225.4810 C   0  0  0  0  0  0  0  0  0  0  0  0
  139.8710   73.2650  222.4430 N   0  0  0  0  0  0  0  0  0  0  0  0
  140.4690   80.1860  223.0480 C   0  0  0  0  0  0  0  0  0  0  0  0
  141.1150   81.1430  223.8210 C   0  0  0  0  0  0  0  0  0  0  0  0
  142.9952   81.9517  224.5462 H   0  0  0  0  0  0  0  0  0  0  0  0
  144.3324   80.2400  223.3073 H   0  0  0  0  0  0  0  0  0  0  0  0
  143.1769   78.5578  221.9516 H   0  0  0  0  0  0  0  0  0  0  0  0
  139.5211   78.6652  221.2710 H   0  0  0  0  0  0  0  0  0  0  0  0
  141.1354   77.9766  220.7287 H   0  0  0  0  0  0  0  0  0  0  0  0
  141.1464   76.4017  222.5340 H   0  0  0  0  0  0  0  0  0  0  0  0
  139.7079   77.0980  223.2797 H   0  0  0  0  0  0  0  0  0  0  0  0
  138.4917   75.7332  221.9298 H   0  0  0  0  0  0  0  0  0  0  0  0
  139.0781   76.8091  220.5493 H   0  0  0  0  0  0  0  0  0  0  0  0
  140.1680   75.0720  219.6980 H   0  0  0  0  0  0  0  0  0  0  0  0
  143.9700   71.2780  221.5300 H   0  0  0  0  0  0  0  0  0  0  0  0
  143.4780   70.2239  219.2002 H   0  0  0  0  0  0  0  0  0  0  0  0
  142.5068   71.6763  218.8472 H   0  0  0  0  0  0  0  0  0  0  0  0
  145.5416   71.4226  219.1758 H   0  0  0  0  0  0  0  0  0  0  0  0
  144.6445   72.2072  217.8594 H   0  0  0  0  0  0  0  0  0  0  0  0
  144.5614   73.1011  220.7746 H   0  0  0  0  0  0  0  0  0  0  0  0
  145.6761   73.7805  219.4688 H   0  0  0  0  0  0  0  0  0  0  0  0
  143.8734   73.8948  217.3165 H   0  0  0  0  0  0  0  0  0  0  0  0
  142.3433   73.4031  218.0816 H   0  0  0  0  0  0  0  0  0  0  0  0
  143.3451   76.2169  217.4421 H   0  0  0  0  0  0  0  0  0  0  0  0
  141.8168   75.3866  216.8995 H   0  0  0  0  0  0  0  0  0  0  0  0
  142.6433   77.3116  220.1839 H   0  0  0  0  0  0  0  0  0  0  0  0
  142.0222   75.7236  220.7574 H   0  0  0  0  0  0  0  0  0  0  0  0
  144.5269   76.1971  219.0344 H   0  0  0  0  0  0  0  0  0  0  0  0
  144.5189   75.6690  220.7216 H   0  0  0  0  0  0  0  0  0  0  0  0
  137.8747   70.9891  224.7591 H   0  0  0  0  0  0  0  0  0  0  0  0
  138.1411   70.8470  223.0269 H   0  0  0  0  0  0  0  0  0  0  0  0
  138.2691   68.5732  224.1526 H   0  0  0  0  0  0  0  0  0  0  0  0
  139.8626   69.0029  223.4636 H   0  0  0  0  0  0  0  0  0  0  0  0
  139.1781   67.1078  225.7080 H   0  0  0  0  0  0  0  0  0  0  0  0
  140.1446   66.8268  228.0259 H   0  0  0  0  0  0  0  0  0  0  0  0
  141.1937   68.8096  229.0741 H   0  0  0  0  0  0  0  0  0  0  0  0
  141.3109   70.9834  227.9541 H   0  0  0  0  0  0  0  0  0  0  0  0
  139.8094   72.3594  226.0572 H   0  0  0  0  0  0  0  0  0  0  0  0
  141.4354   71.9209  225.4037 H   0  0  0  0  0  0  0  0  0  0  0  0
  139.3709   80.1835  222.9829 H   0  0  0  0  0  0  0  0  0  0  0  0
  140.5129   81.8882  224.3616 H   0  0  0  0  0  0  0  0  0  0  0  0
  1  2  2  0
  2  3  1  0
  3  4  2  0
  4  5  1  0
  5  6  1  0
  6  7  1  0
  7  8  1  0
  8  9  1  0
  9 10  2  0
 10 11  1  0
 11 12  1  0
 12 13  1  0
 13 14  1  0
 14 15  1  0
 15 16  1  0
 16 17  1  0
 17 18  1  0
 18 19  1  0
 19 20  1  0
 20 21  1  0
 11 22  2  0
 22 23  1  0
 23 24  1  0
 24 25  1  0
 25 26  1  0
 26 27  1  0
 27 28  2  0
 28 29  1  0
 29 30  2  0
 30 31  1  0
 31 32  2  0
 32 33  1  0
 23 34  2  0
  4 35  1  0
 35 36  2  0
 36  1  1  0
 34  9  1  0
 21 16  1  0
 33 24  1  0
 32 27  1  0
  1 37  1  0
  2 38  1  0
  3 39  1  0
  5 40  1  0
  5 41  1  0
  6 42  1  0
  6 43  1  0
  7 44  1  0
  7 45  1  0
  8 46  1  0
 12 47  1  0
 13 48  1  0
 13 49  1  0
 14 50  1  0
 14 51  1  0
 15 52  1  0
 15 53  1  0
 17 54  1  0
 17 55  1  0
 18 56  1  0
 18 57  1  0
 20 58  1  0
 20 59  1  0
 21 60  1  0
 21 61  1  0
 25 62  1  0
 25 63  1  0
 26 64  1  0
 26 65  1  0
 28 66  1  0
 29 67  1  0
 30 68  1  0
 31 69  1  0
 33 70  1  0
 33 71  1  0
 35 72  1  0
 36 73  1  0
M  END
>  <smiles>  (49) 
c1ccc(CCCNc2nc(NCCCN3CCOCC3)nc(N3CCc4ccccc4C3)n2)cc1

>  <score_type>  (49) 
oracle

>  <origin>  (49) 
autodockgpu

>  <m_score__min__energy>  (49) 
-9.7400000000000002

>  <m_primary>  (49) 
energy

>  <rmsd>  (49) 
11.430290595785424

>  <m_score__min__rmsd>  (49) 
11.430290595785424

>  <meeko>  (49) 
{"free_energy": -8.47, "intermolecular_energy": -11.75, "internal_energy": -2.43, "cluster_size": 11, "cluster_id": 6, "rank_in_cluster": 4}

>  <energy>  (49) 
-8.06

>  <cluster_rmsd>  (49) 
0.0

>  <cluster>  (49) 
10

$$$$

     RDKit          3D

 73 77  0  0  0  0  0  0  0  0999 V2000
  142.2260   81.0310  222.7010 C   0  0  0  0  0  0  0  0  0  0  0  0
  142.2110   80.3050  223.8710 C   0  0  0  0  0  0  0  0  0  0  0  0
  141.7060   79.0240  223.8560 C   0  0  0  0  0  0  0  0  0  0  0  0
  141.2060   78.4010  222.7370 C   0  0  0  0  0  0  0  0  0  0  0  0
  140.6460   77.0540  222.7060 C   0  0  0  0  0  0  0  0  0  0  0  0
  139.8270   76.7310  221.4650 C   0  0  0  0  0  0  0  0  0  0  0  0
  140.7990   76.0520  220.5230 C   0  0  0  0  0  0  0  0  0  0  0  0
  141.6320   75.0580  221.1020 N   0  0  0  0  0  0  0  0  0  0  0  0
  141.2800   73.7120  221.3510 C   0  0  0  0  0  0  0  0  0  0  0  0
  141.6000   72.8090  220.3780 N   0  0  0  0  0  0  0  0  0  0  0  0
  141.3240   71.4980  220.5320 C   0  0  0  0  0  0  0  0  0  0  0  0
  141.7000   70.5800  219.4940 N   0  0  0  0  0  0  0  0  0  0  0  0
  141.8900   70.9850  218.1170 C   0  0  0  0  0  0  0  0  0  0  0  0
  143.2600   70.4650  217.6670 C   0  0  0  0  0  0  0  0  0  0  0  0
  144.1710   71.6640  217.5830 C   0  0  0  0  0  0  0  0  0  0  0  0
  144.2270   72.4830  218.7370 N   0  0  0  0  0  0  0  0  0  0  0  0
  143.7710   73.8210  218.6230 C   0  0  0  0  0  0  0  0  0  0  0  0
  144.3630   74.5990  219.7890 C   0  0  0  0  0  0  0  0  0  0  0  0
  144.2550   73.9370  220.9830 O   0  0  0  0  0  0  0  0  0  0  0  0
  144.8050   72.6670  221.0100 C   0  0  0  0  0  0  0  0  0  0  0  0
  145.3270   72.2970  219.6180 C   0  0  0  0  0  0  0  0  0  0  0  0
  140.7240   71.0340  221.6520 N   0  0  0  0  0  0  0  0  0  0  0  0
  140.4080   71.9320  222.6190 C   0  0  0  0  0  0  0  0  0  0  0  0
  139.8050   71.4000  223.7840 N   0  0  0  0  0  0  0  0  0  0  0  0
  138.5540   70.6630  223.6510 C   0  0  0  0  0  0  0  0  0  0  0  0
  138.9470   69.2030  223.9380 C   0  0  0  0  0  0  0  0  0  0  0  0
  139.5250   69.1320  225.3100 C   0  0  0  0  0  0  0  0  0  0  0  0
  139.3690   67.9420  225.9870 C   0  0  0  0  0  0  0  0  0  0  0  0
  139.8710   67.7930  227.2840 C   0  0  0  0  0  0  0  0  0  0  0  0
  140.5120   68.8880  227.8160 C   0  0  0  0  0  0  0  0  0  0  0  0
  140.6730   70.0830  227.1460 C   0  0  0  0  0  0  0  0  0  0  0  0
  140.1790   70.2240  225.8710 C   0  0  0  0  0  0  0  0  0  0  0  0
  140.3430   71.5120  225.1200 C   0  0  0  0  0  0  0  0  0  0  0  0
  140.6860   73.2470  222.4560 N   0  0  0  0  0  0  0  0  0  0  0  0
  141.2220   79.1340  221.5610 C   0  0  0  0  0  0  0  0  0  0  0  0
  141.7270   80.4290  221.5520 C   0  0  0  0  0  0  0  0  0  0  0  0
  142.6213   82.0572  222.6765 H   0  0  0  0  0  0  0  0  0  0  0  0
  142.5968   80.7419  224.8039 H   0  0  0  0  0  0  0  0  0  0  0  0
  141.7024   78.4621  224.8017 H   0  0  0  0  0  0  0  0  0  0  0  0
  141.4777   76.3364  222.7632 H   0  0  0  0  0  0  0  0  0  0  0  0
  139.9547   76.9867  223.5590 H   0  0  0  0  0  0  0  0  0  0  0  0
  138.9950   76.0563  221.7151 H   0  0  0  0  0  0  0  0  0  0  0  0
  139.3781   77.6308  221.0191 H   0  0  0  0  0  0  0  0  0  0  0  0
  140.2150   75.5770  219.7209 H   0  0  0  0  0  0  0  0  0  0  0  0
  141.4784   76.8439  220.1746 H   0  0  0  0  0  0  0  0  0  0  0  0
  142.6120   75.3300  221.3810 H   0  0  0  0  0  0  0  0  0  0  0  0
  141.8110   69.5800  219.8240 H   0  0  0  0  0  0  0  0  0  0  0  0
  141.0990   70.5532  217.4863 H   0  0  0  0  0  0  0  0  0  0  0  0
  141.8430   72.0802  218.0259 H   0  0  0  0  0  0  0  0  0  0  0  0
  143.6505   69.7424  218.3987 H   0  0  0  0  0  0  0  0  0  0  0  0
  143.1898   69.9520  216.6965 H   0  0  0  0  0  0  0  0  0  0  0  0
  145.1887   71.2998  217.3790 H   0  0  0  0  0  0  0  0  0  0  0  0
  143.7527   72.2993  216.7884 H   0  0  0  0  0  0  0  0  0  0  0  0
  144.1091   74.2545  217.6702 H   0  0  0  0  0  0  0  0  0  0  0  0
  142.6720   73.8621  218.6440 H   0  0  0  0  0  0  0  0  0  0  0  0
  145.4283   74.7812  219.5842 H   0  0  0  0  0  0  0  0  0  0  0  0
  143.7964   75.5374  219.8803 H   0  0  0  0  0  0  0  0  0  0  0  0
  145.6367   72.6446  221.7296 H   0  0  0  0  0  0  0  0  0  0  0  0
  144.0333   71.9437  221.3122 H   0  0  0  0  0  0  0  0  0  0  0  0
  146.1623   72.9539  219.3337 H   0  0  0  0  0  0  0  0  0  0  0  0
  145.7052   71.2646  219.5856 H   0  0  0  0  0  0  0  0  0  0  0  0
  137.8118   71.0184  224.3809 H   0  0  0  0  0  0  0  0  0  0  0  0
  138.0925   70.7894  222.6605 H   0  0  0  0  0  0  0  0  0  0  0  0
  138.0569   68.5597  223.8762 H   0  0  0  0  0  0  0  0  0  0  0  0
  139.6850   68.8581  223.1988 H   0  0  0  0  0  0  0  0  0  0  0  0
  138.8460   67.1034  225.5041 H   0  0  0  0  0  0  0  0  0  0  0  0
  139.7597   66.8542  227.8464 H   0  0  0  0  0  0  0  0  0  0  0  0
  140.9196   68.8058  228.8344 H   0  0  0  0  0  0  0  0  0  0  0  0
  141.1954   70.9209  227.6308 H   0  0  0  0  0  0  0  0  0  0  0  0
  139.8121   72.3122  225.6565 H   0  0  0  0  0  0  0  0  0  0  0  0
  141.4159   71.7443  225.0493 H   0  0  0  0  0  0  0  0  0  0  0  0
  140.8341   78.6899  220.6324 H   0  0  0  0  0  0  0  0  0  0  0  0
  141.7318   80.9938  220.6081 H   0  0  0  0  0  0  0  0  0  0  0  0
  1  2  2  0
  2  3  1  0
  3  4  2  0
  4  5  1  0
  5  6  1  0
  6  7  1  0
  7  8  1  0
  8  9  1  0
  9 10  2  0
 10 11  1  0
 11 12  1  0
 12 13  1  0
 13 14  1  0
 14 15  1  0
 15 16  1  0
 16 17  1  0
 17 18  1  0
 18 19  1  0
 19 20  1  0
 20 21  1  0
 11 22  2  0
 22 23  1  0
 23 24  1  0
 24 25  1  0
 25 26  1  0
 26 27  1  0
 27 28  2  0
 28 29  1  0
 29 30  2  0
 30 31  1  0
 31 32  2  0
 32 33  1  0
 23 34  2  0
  4 35  1  0
 35 36  2  0
 36  1  1  0
 34  9  1  0
 21 16  1  0
 33 24  1  0
 32 27  1  0
  1 37  1  0
  2 38  1  0
  3 39  1  0
  5 40  1  0
  5 41  1  0
  6 42  1  0
  6 43  1  0
  7 44  1  0
  7 45  1  0
  8 46  1  0
 12 47  1  0
 13 48  1  0
 13 49  1  0
 14 50  1  0
 14 51  1  0
 15 52  1  0
 15 53  1  0
 17 54  1  0
 17 55  1  0
 18 56  1  0
 18 57  1  0
 20 58  1  0
 20 59  1  0
 21 60  1  0
 21 61  1  0
 25 62  1  0
 25 63  1  0
 26 64  1  0
 26 65  1  0
 28 66  1  0
 29 67  1  0
 30 68  1  0
 31 69  1  0
 33 70  1  0
 33 71  1  0
 35 72  1  0
 36 73  1  0
M  END
>  <smiles>  (50) 
c1ccc(CCCNc2nc(NCCCN3CCOCC3)nc(N3CCc4ccccc4C3)n2)cc1

>  <score_type>  (50) 
oracle

>  <origin>  (50) 
autodockgpu

>  <m_score__min__energy>  (50) 
-9.7400000000000002

>  <m_primary>  (50) 
energy

>  <rmsd>  (50) 
11.325736580884207

>  <m_score__min__rmsd>  (50) 
11.325736580884207

>  <meeko>  (50) 
{"free_energy": -8.34, "intermolecular_energy": -11.63, "internal_energy": -2.43, "cluster_size": 11, "cluster_id": 6, "rank_in_cluster": 7}

>  <energy>  (50) 
-8.03

>  <cluster_rmsd>  (50) 
0.0

>  <cluster>  (50) 
11

$$$$
