
 52 55  0  0  0  0  0  0  0  0999 V2000
  140.0170   71.5740  221.0870 O   0  0  0  0  0  0  0  0  0  0  0  0
  139.8600   72.1120  222.2260 C   0  0  0  0  0  0  0  0  0  0  0  0
  139.6790   73.5240  222.3580 N   0  0  0  0  0  0  0  0  0  0  0  0
  139.6680   74.3940  221.2010 C   0  0  0  0  0  0  0  0  0  0  0  0
  140.3920   75.6800  221.5140 C   0  0  0  0  0  0  0  0  0  0  0  0
  140.1790   76.1420  222.6660 O   0  0  0  0  0  0  0  0  0  0  0  0
  141.2460   76.3050  220.5630 N   0  0  0  0  0  0  0  0  0  0  0  0
  141.5780   75.6860  219.2930 C   0  0  0  0  0  0  0  0  0  0  0  0
  142.5330   76.7080  218.6680 C   0  0  2  0  0  0  0  0  0  0  0  0
  143.8510   76.4150  219.0350 O   0  0  0  0  0  0  0  0  0  0  0  0
  142.1790   78.0210  219.3490 C   0  0  0  0  0  0  0  0  0  0  0  0
  141.8630   77.5730  220.7390 C   0  0  1  0  0  0  0  0  0  0  0  0
  141.1490   78.5770  221.5640 C   0  0  0  0  0  0  0  0  0  0  0  0
  141.2590   79.9930  221.1330 C   0  0  0  0  0  0  0  0  0  0  0  0
  140.6390   80.7080  222.3440 C   0  0  0  0  0  0  0  0  0  0  0  0
  141.2400   79.9620  223.5210 C   0  0  0  0  0  0  0  0  0  0  0  0
  141.7780   78.6480  222.9630 C   0  0  0  0  0  0  0  0  0  0  0  0
  139.8630   71.2810  223.4210 C   0  0  0  0  0  0  0  0  0  0  0  0
  139.3850   69.9870  223.3680 C   0  0  0  0  0  0  0  0  0  0  0  0
  139.3620   69.1530  224.4670 C   0  0  0  0  0  0  0  0  0  0  0  0
  139.8490   69.6740  225.6530 C   0  0  0  0  0  0  0  0  0  0  0  0
  139.8520   68.8850  226.7830 C   0  0  0  0  0  0  0  0  0  0  0  0
  140.3290   69.3960  227.9480 C   0  0  0  0  0  0  0  0  0  0  0  0
  140.3390   68.6290  229.0770 F   0  0  0  0  0  0  0  0  0  0  0  0
  140.8110   70.6880  228.0200 C   0  0  0  0  0  0  0  0  0  0  0  0
  140.8220   71.5010  226.9090 C   0  0  0  0  0  0  0  0  0  0  0  0
  140.3330   70.9820  225.7090 C   0  0  0  0  0  0  0  0  0  0  0  0
  140.3260   71.7520  224.5860 N   0  0  0  0  0  0  0  0  0  0  0  0
  139.5550   73.8970  223.3340 H   0  0  0  0  0  0  0  0  0  0  0  0
  140.1685   73.8895  220.3614 H   0  0  0  0  0  0  0  0  0  0  0  0
  138.6263   74.6230  220.9320 H   0  0  0  0  0  0  0  0  0  0  0  0
  142.0749   74.7158  219.4411 H   0  0  0  0  0  0  0  0  0  0  0  0
  140.6996   75.4663  218.6684 H   0  0  0  0  0  0  0  0  0  0  0  0
  142.4488   76.7209  217.5713 H   0  0  0  0  0  0  0  0  0  0  0  0
  144.4370   76.3220  218.2460 H   0  0  0  0  0  0  0  0  0  0  0  0
  143.0288   78.7194  219.3374 H   0  0  0  0  0  0  0  0  0  0  0  0
  141.3583   78.5672  218.8611 H   0  0  0  0  0  0  0  0  0  0  0  0
  142.7570   77.4655  221.3708 H   0  0  0  0  0  0  0  0  0  0  0  0
  140.1080   78.2285  221.4947 H   0  0  0  0  0  0  0  0  0  0  0  0
  142.3070   80.2899  220.9798 H   0  0  0  0  0  0  0  0  0  0  0  0
  140.7727   80.2170  220.1721 H   0  0  0  0  0  0  0  0  0  0  0  0
  140.9211   81.7710  222.3632 H   0  0  0  0  0  0  0  0  0  0  0  0
  139.5391   80.6980  222.3386 H   0  0  0  0  0  0  0  0  0  0  0  0
  142.0560   80.5489  223.9679 H   0  0  0  0  0  0  0  0  0  0  0  0
  140.4920   79.7865  224.3082 H   0  0  0  0  0  0  0  0  0  0  0  0
  142.8761   78.6659  222.9013 H   0  0  0  0  0  0  0  0  0  0  0  0
  141.5314   77.7795  223.5913 H   0  0  0  0  0  0  0  0  0  0  0  0
  139.0063   69.6045  222.4087 H   0  0  0  0  0  0  0  0  0  0  0  0
  138.9757   68.1250  224.4036 H   0  0  0  0  0  0  0  0  0  0  0  0
  139.4725   67.8533  226.7421 H   0  0  0  0  0  0  0  0  0  0  0  0
  141.1912   71.0728  228.9778 H   0  0  0  0  0  0  0  0  0  0  0  0
  141.2053   72.5305  226.9654 H   0  0  0  0  0  0  0  0  0  0  0  0
  1  2  2  0
  2  3  1  0
  3  4  1  0
  4  5  1  0
  5  6  2  0
  5  7  1  0
  7  8  1  0
  8  9  1  0
  9 10  1  0
  9 11  1  0
 11 12  1  0
 12 13  1  0
 13 14  1  0
 14 15  1  0
 15 16  1  0
 16 17  1  0
  2 18  1  0
 18 19  2  0
 19 20  1  0
 20 21  2  0
 21 22  1  0
 22 23  2  0
 23 24  1  0
 23 25  1  0
 25 26  2  0
 26 27  1  0
 27 28  2  0
 12  7  1  0
 17 13  1  0
 28 18  1  0
 27 21  1  0
  3 29  1  0
  4 30  1  0
  4 31  1  0
  8 32  1  0
  8 33  1  0
  9 34  1  6
 10 35  1  0
 11 36  1  0
 11 37  1  0
 12 38  1  1
 13 39  1  0
 14 40  1  0
 14 41  1  0
 15 42  1  0
 15 43  1  0
 16 44  1  0
 16 45  1  0
 17 46  1  0
 17 47  1  0
 19 48  1  0
 20 49  1  0
 22 50  1  0
 25 51  1  0
 26 52  1  0
M  END
