@<TRIPOS>MOLECULE
*****
 63 67 0 0 0
SMALL
GASTEIGER

@<TRIPOS>ATOM
      1 O         140.3860   71.2130  221.2750 O.2     1  UNL1       -0.2685
      2 C         140.0930   71.8450  222.3240 C.2     1  UNL1        0.2628
      3 N         139.8030   73.2440  222.3310 N.am    1  UNL1       -0.3015
      4 C         139.8560   73.9390  221.0770 C.3     1  UNL1        0.0887
      5 C         140.7020   75.1320  221.1770 C.2     1  UNL1        0.2330
      6 O         140.9910   75.5840  222.3150 O.2     1  UNL1       -0.2739
      7 N         141.1950   75.7770  220.0180 N.am    1  UNL1       -0.2957
      8 C         140.6930   75.6060  218.6770 C.3     1  UNL1        0.0151
      9 C         141.5790   76.3720  217.7470 C.3     1  UNL1       -0.0354
     10 C         142.8110   76.6510  218.5800 C.3     1  UNL1       -0.0314
     11 C         142.3110   76.7380  219.9680 C.3     1  UNL1        0.0415
     12 C         141.7920   78.0510  220.4130 C.3     1  UNL1        0.0277
     13 N         141.4830   78.1010  221.8080 N.pl3   1  UNL1       -0.3421
     14 C         140.5750   78.9340  222.4650 C.ar    1  UNL1        0.0272
     15 C         140.8790   80.0670  223.1830 C.ar    1  UNL1       -0.0403
     16 C         139.9430   80.8500  223.8210 C.ar    1  UNL1       -0.0523
     17 C         138.6050   80.5200  223.7680 C.ar    1  UNL1       -0.0178
     18 C         137.6230   81.3530  224.4470 C.ar    1  UNL1       -0.0179
     19 C         137.3450   81.0980  225.7870 C.ar    1  UNL1       -0.0540
     20 C         136.4110   81.8680  226.4870 C.ar    1  UNL1       -0.0612
     21 C         135.7570   82.9000  225.8240 C.ar    1  UNL1       -0.0617
     22 C         136.0330   83.1580  224.4800 C.ar    1  UNL1       -0.0612
     23 C         136.9600   82.3940  223.7840 C.ar    1  UNL1       -0.0540
     24 C         138.2630   79.3910  223.0560 C.ar    1  UNL1       -0.0523
     25 C         139.2070   78.6140  222.4220 C.ar    1  UNL1       -0.0403
     26 C         140.0400   71.1370  223.5970 C.ar    1  UNL1        0.1260
     27 C         139.5150   69.8540  223.6810 C.ar    1  UNL1       -0.0306
     28 C         139.4580   69.1690  224.8870 C.ar    1  UNL1       -0.0504
     29 C         139.9230   69.7420  226.0530 C.ar    1  UNL1        0.0004
     30 C         139.8900   69.1050  227.2770 C.ar    1  UNL1       -0.0526
     31 C         140.3880   69.7840  228.3830 C.ar    1  UNL1       -0.0611
     32 C         140.9070   71.0660  228.2700 C.ar    1  UNL1       -0.0597
     33 C         140.9440   71.7160  227.0350 C.ar    1  UNL1       -0.0357
     34 C         140.4420   71.0250  225.9370 C.ar    1  UNL1        0.0718
     35 N         140.4850   71.6680  224.7500 N.ar    1  UNL1       -0.2421
     36 H         139.5620   73.7330  223.2370 H       1  UNL1        0.1496
     37 H         140.2691   73.2675  220.3099 H       1  UNL1        0.0558
     38 H         138.8372   74.2517  220.8045 H       1  UNL1        0.0558
     39 H         140.7039   74.5394  218.4082 H       1  UNL1        0.0465
     40 H         139.6589   75.9747  218.6077 H       1  UNL1        0.0465
     41 H         141.8316   75.7711  216.8609 H       1  UNL1        0.0281
     42 H         141.1060   77.2877  217.3627 H       1  UNL1        0.0281
     43 H         143.5403   75.8335  218.4805 H       1  UNL1        0.0284
     44 H         143.3284   77.5691  218.2648 H       1  UNL1        0.0284
     45 H         143.1623   76.5434  220.6369 H       1  UNL1        0.0516
     46 H         142.5519   78.8166  220.1974 H       1  UNL1        0.0479
     47 H         140.8532   78.2285  219.8679 H       1  UNL1        0.0479
     48 H         142.0210   77.4110  222.4180 H       1  UNL1        0.1461
     49 H         141.9353   80.3662  223.2519 H       1  UNL1        0.0636
     50 H         140.2643   81.7437  224.3760 H       1  UNL1        0.0624
     51 H         137.8677   80.2789  226.3027 H       1  UNL1        0.0624
     52 H         136.1971   81.6603  227.5458 H       1  UNL1        0.0618
     53 H         135.0196   83.5154  226.3601 H       1  UNL1        0.0618
     54 H         135.5092   83.9773  223.9658 H       1  UNL1        0.0618
     55 H         137.1713   82.6034  222.7250 H       1  UNL1        0.0624
     56 H         137.2037   79.1014  222.9920 H       1  UNL1        0.0624
     57 H         138.8823   77.7208  221.8682 H       1  UNL1        0.0636
     58 H         139.1351   69.3688  222.7698 H       1  UNL1        0.0641
     59 H         139.0356   68.1537  224.9136 H       1  UNL1        0.0625
     60 H         139.4811   68.0885  227.3745 H       1  UNL1        0.0624
     61 H         140.3703   69.2950  229.3682 H       1  UNL1        0.0618
     62 H         141.2939   71.5763  229.1644 H       1  UNL1        0.0618
     63 H         141.3530   72.7322  226.9344 H       1  UNL1        0.0639
@<TRIPOS>BOND
     1     1     2    2
     2     2     3   am
     3     3     4    1
     4     4     5    1
     5     5     6    2
     6     5     7   am
     7     7     8    1
     8     8     9    1
     9     9    10    1
    10    10    11    1
    11    11    12    1
    12    12    13    1
    13    13    14    1
    14    14    15   ar
    15    15    16   ar
    16    16    17   ar
    17    17    18    1
    18    18    19   ar
    19    19    20   ar
    20    20    21   ar
    21    21    22   ar
    22    22    23   ar
    23    17    24   ar
    24    24    25   ar
    25     2    26    1
    26    26    27   ar
    27    27    28   ar
    28    28    29   ar
    29    29    30   ar
    30    30    31   ar
    31    31    32   ar
    32    32    33   ar
    33    33    34   ar
    34    34    35   ar
    35    11     7    1
    36    25    14   ar
    37    35    26   ar
    38    23    18   ar
    39    34    29   ar
    40     3    36    1
    41     4    37    1
    42     4    38    1
    43     8    39    1
    44     8    40    1
    45     9    41    1
    46     9    42    1
    47    10    43    1
    48    10    44    1
    49    11    45    1
    50    12    46    1
    51    12    47    1
    52    13    48    1
    53    15    49    1
    54    16    50    1
    55    19    51    1
    56    20    52    1
    57    21    53    1
    58    22    54    1
    59    23    55    1
    60    24    56    1
    61    25    57    1
    62    27    58    1
    63    28    59    1
    64    30    60    1
    65    31    61    1
    66    32    62    1
    67    33    63    1
