
     RDKit          3D

 79 85  0  0  1  0  0  0  0  0999 V2000
  142.5220   78.2930  215.2150 C   0  0  0  0  0  0  0  0  0  0  0  0
  142.7870   77.5990  216.4940 C   0  0  0  0  0  0  0  0  0  0  0  0
  142.6020   78.2850  217.6940 C   0  0  0  0  0  0  0  0  0  0  0  0
  142.8640   77.5930  218.8590 C   0  0  0  0  0  0  0  0  0  0  0  0
  143.2800   76.3160  218.8810 N   0  0  0  0  0  0  0  0  0  0  0  0
  143.4500   75.6810  217.7020 C   0  0  0  0  0  0  0  0  0  0  0  0
  143.8930   74.3320  217.7660 N   0  0  0  0  0  0  0  0  0  0  0  0
  143.8740   73.5200  216.5660 C   0  0  0  0  0  0  0  0  0  0  0  0
  142.8430   72.4440  216.7900 C   0  0  0  0  0  0  0  0  0  0  0  0
  142.4950   72.2450  218.2370 C   0  0  0  0  0  0  0  0  0  0  0  0
  143.7470   72.3370  219.0860 C   0  0  2  0  0  0  0  0  0  0  0  0
  143.4750   72.0620  220.4730 N   0  0  0  0  0  0  0  0  0  0  0  0
  142.3430   72.5560  221.1750 C   0  0  0  0  0  0  0  0  0  0  0  0
  141.8880   73.8150  221.0550 N   0  0  0  0  0  0  0  0  0  0  0  0
  140.8010   74.2020  221.7620 C   0  0  0  0  0  0  0  0  0  0  0  0
  140.3280   75.5270  221.6350 N   0  0  0  0  0  0  0  0  0  0  0  0
  138.9130   75.8640  221.7320 C   0  0  0  0  0  0  0  0  0  0  0  0
  138.6870   76.9840  222.7220 C   0  0  0  0  0  0  0  0  0  0  0  0
  139.6950   78.0280  222.5770 N   0  0  0  0  0  0  0  0  0  0  0  0
  139.2980   79.3840  222.4410 C   0  0  0  0  0  0  0  0  0  0  0  0
  140.0340   80.3430  221.7920 C   0  0  0  0  0  0  0  0  0  0  0  0
  139.6280   81.6660  221.6730 C   0  0  0  0  0  0  0  0  0  0  0  0
  138.4230   82.0150  222.2400 C   0  0  0  0  0  0  0  0  0  0  0  0
  137.7140   81.0310  222.8790 C   0  0  0  0  0  0  0  0  0  0  0  0
  138.1280   79.7690  222.9800 N   0  0  0  0  0  0  0  0  0  0  0  0
  141.0750   77.5850  222.5860 C   0  0  0  0  0  0  0  0  0  0  0  0
  141.2340   76.6380  221.3920 C   0  0  0  0  0  0  0  0  0  0  0  0
  140.1520   73.3600  222.5890 N   0  0  0  0  0  0  0  0  0  0  0  0
  140.5920   72.0970  222.7210 C   0  0  0  0  0  0  0  0  0  0  0  0
  139.9580   71.1430  223.5710 N   0  0  0  0  0  0  0  0  0  0  0  0
  139.2590   70.0290  222.9740 C   0  0  0  0  0  0  0  0  0  0  0  0
  138.8820   68.9330  223.8960 C   0  0  0  0  0  0  0  0  0  0  0  0
  139.5150   68.9540  225.2210 C   0  0  0  0  0  0  0  0  0  0  0  0
  139.5330   67.7470  225.9320 C   0  0  0  0  0  0  0  0  0  0  0  0
  140.1200   67.7620  227.1680 C   0  0  0  0  0  0  0  0  0  0  0  0
  140.6830   68.8860  227.7360 C   0  0  0  0  0  0  0  0  0  0  0  0
  140.6550   70.0760  227.0140 C   0  0  0  0  0  0  0  0  0  0  0  0
  140.0710   70.0800  225.7730 C   0  0  0  0  0  0  0  0  0  0  0  0
  140.0390   71.3310  225.0060 C   0  0  0  0  0  0  0  0  0  0  0  0
  141.6700   71.7470  222.0080 N   0  0  0  0  0  0  0  0  0  0  0  0
  144.3730   73.7160  219.0000 C   0  0  0  0  0  0  0  0  0  0  0  0
  143.2050   76.3200  216.5450 N   0  0  0  0  0  0  0  0  0  0  0  0
  142.1364   79.3028  215.4188 H   0  0  0  0  0  0  0  0  0  0  0  0
  143.4553   78.3665  214.6375 H   0  0  0  0  0  0  0  0  0  0  0  0
  141.7772   77.7258  214.6375 H   0  0  0  0  0  0  0  0  0  0  0  0
  142.2624   79.3311  217.7112 H   0  0  0  0  0  0  0  0  0  0  0  0
  142.7251   78.1135  219.8180 H   0  0  0  0  0  0  0  0  0  0  0  0
  143.5983   74.1345  215.6963 H   0  0  0  0  0  0  0  0  0  0  0  0
  144.8643   73.0848  216.3660 H   0  0  0  0  0  0  0  0  0  0  0  0
  141.9276   72.7192  216.2457 H   0  0  0  0  0  0  0  0  0  0  0  0
  143.2743   71.4996  216.4264 H   0  0  0  0  0  0  0  0  0  0  0  0
  141.7833   73.0226  218.5512 H   0  0  0  0  0  0  0  0  0  0  0  0
  142.0414   71.2513  218.3671 H   0  0  0  0  0  0  0  0  0  0  0  0
  144.4397   71.5810  218.6877 H   0  0  0  0  0  0  0  0  0  0  0  0
  144.1650   71.4590  220.9800 H   0  0  0  0  0  0  0  0  0  0  0  0
  138.5503   76.1802  220.7428 H   0  0  0  0  0  0  0  0  0  0  0  0
  138.3651   74.9754  222.0786 H   0  0  0  0  0  0  0  0  0  0  0  0
  137.6918   77.4198  222.5496 H   0  0  0  0  0  0  0  0  0  0  0  0
  138.7585   76.5698  223.7385 H   0  0  0  0  0  0  0  0  0  0  0  0
  140.9943   80.0492  221.3432 H   0  0  0  0  0  0  0  0  0  0  0  0
  140.2462   82.4072  221.1454 H   0  0  0  0  0  0  0  0  0  0  0  0
  138.0430   83.0457  222.1824 H   0  0  0  0  0  0  0  0  0  0  0  0
  136.7489   81.2987  223.3339 H   0  0  0  0  0  0  0  0  0  0  0  0
  141.7515   78.4460  222.4812 H   0  0  0  0  0  0  0  0  0  0  0  0
  141.3253   77.0804  223.5308 H   0  0  0  0  0  0  0  0  0  0  0  0
  140.9648   77.1528  220.4579 H   0  0  0  0  0  0  0  0  0  0  0  0
  142.2735   76.2935  221.2880 H   0  0  0  0  0  0  0  0  0  0  0  0
  138.3370   70.4161  222.5157 H   0  0  0  0  0  0  0  0  0  0  0  0
  139.9645   69.5849  222.2563 H   0  0  0  0  0  0  0  0  0  0  0  0
  137.7929   68.9782  224.0436 H   0  0  0  0  0  0  0  0  0  0  0  0
  139.2357   68.0090  223.4153 H   0  0  0  0  0  0  0  0  0  0  0  0
  139.0948   66.8282  225.5153 H   0  0  0  0  0  0  0  0  0  0  0  0
  140.1443   66.8238  227.7417 H   0  0  0  0  0  0  0  0  0  0  0  0
  141.1426   68.8431  228.7345 H   0  0  0  0  0  0  0  0  0  0  0  0
  141.0927   70.9951  227.4307 H   0  0  0  0  0  0  0  0  0  0  0  0
  139.1622   71.9117  225.3284 H   0  0  0  0  0  0  0  0  0  0  0  0
  140.9884   71.8497  225.2050 H   0  0  0  0  0  0  0  0  0  0  0  0
  144.0700   74.3222  219.8665 H   0  0  0  0  0  0  0  0  0  0  0  0
  145.4708   73.6472  219.0007 H   0  0  0  0  0  0  0  0  0  0  0  0
  1  2  1  0
  2  3  2  0
  3  4  1  0
  4  5  2  0
  5  6  1  0
  6  7  1  0
  7  8  1  0
  8  9  1  0
  9 10  1  0
 10 11  1  0
 11 12  1  0
 12 13  1  0
 13 14  2  0
 14 15  1  0
 15 16  1  0
 16 17  1  0
 17 18  1  0
 18 19  1  0
 19 20  1  0
 20 21  2  0
 21 22  1  0
 22 23  2  0
 23 24  1  0
 24 25  2  0
 19 26  1  0
 26 27  1  0
 15 28  2  0
 28 29  1  0
 29 30  1  0
 30 31  1  0
 31 32  1  0
 32 33  1  0
 33 34  2  0
 34 35  1  0
 35 36  2  0
 36 37  1  0
 37 38  2  0
 38 39  1  0
 29 40  2  0
 11 41  1  0
  6 42  2  0
 42  2  1  0
 41  7  1  0
 40 13  1  0
 27 16  1  0
 39 30  1  0
 25 20  1  0
 38 33  1  0
  1 43  1  0
  1 44  1  0
  1 45  1  0
  3 46  1  0
  4 47  1  0
  8 48  1  0
  8 49  1  0
  9 50  1  0
  9 51  1  0
 10 52  1  0
 10 53  1  0
 11 54  1  6
 12 55  1  0
 17 56  1  0
 17 57  1  0
 18 58  1  0
 18 59  1  0
 21 60  1  0
 22 61  1  0
 23 62  1  0
 24 63  1  0
 26 64  1  0
 26 65  1  0
 27 66  1  0
 27 67  1  0
 31 68  1  0
 31 69  1  0
 32 70  1  0
 32 71  1  0
 34 72  1  0
 35 73  1  0
 36 74  1  0
 37 75  1  0
 39 76  1  0
 39 77  1  0
 41 78  1  0
 41 79  1  0
M  END
>  <smiles>  (1) 
Cc1ccnc(N2CCCC(Nc3nc(N4CCN(c5ccccn5)CC4)nc(N4CCc5ccccc5C4)n3)C2)n1

>  <score_type>  (1) 
oracle

>  <origin>  (1) 
autodockgpu

>  <m_score__min__energy>  (1) 
-10.5

>  <m_primary>  (1) 
energy

>  <rmsd>  (1) 
8.43554624160611

>  <m_score__min__rmsd>  (1) 
8.43554624160611

>  <meeko>  (1) 
{"free_energy": -8.7, "intermolecular_energy": -10.49, "internal_energy": -1.98, "cluster_size": 10, "cluster_id": 9, "rank_in_cluster": 5}

>  <energy>  (1) 
-10.5

>  <cluster_rmsd>  (1) 
0.0

>  <cluster>  (1) 
1

$$$$

     RDKit          3D

 79 85  0  0  1  0  0  0  0  0999 V2000
  141.1430   68.0640  228.9140 C   0  0  0  0  0  0  0  0  0  0  0  0
  140.8380   69.2150  228.0360 C   0  0  0  0  0  0  0  0  0  0  0  0
  141.4020   70.4590  228.3190 C   0  0  0  0  0  0  0  0  0  0  0  0
  141.0840   71.5000  227.4700 C   0  0  0  0  0  0  0  0  0  0  0  0
  140.2730   71.3640  226.4080 N   0  0  0  0  0  0  0  0  0  0  0  0
  139.7430   70.1470  226.1630 C   0  0  0  0  0  0  0  0  0  0  0  0
  138.8890   70.0440  225.0310 N   0  0  0  0  0  0  0  0  0  0  0  0
  138.8590   68.8090  224.2730 C   0  0  0  0  0  0  0  0  0  0  0  0
  139.4360   69.1210  222.9170 C   0  0  0  0  0  0  0  0  0  0  0  0
  139.4410   70.5880  222.5960 C   0  0  0  0  0  0  0  0  0  0  0  0
  138.1550   71.2270  223.0810 C   0  0  2  0  0  0  0  0  0  0  0  0
  138.0750   72.6170  222.7130 N   0  0  0  0  0  0  0  0  0  0  0  0
  139.1330   73.3380  222.0950 C   0  0  0  0  0  0  0  0  0  0  0  0
  140.1020   72.7550  221.3700 N   0  0  0  0  0  0  0  0  0  0  0  0
  141.0720   73.5190  220.8170 C   0  0  0  0  0  0  0  0  0  0  0  0
  142.0900   72.9020  220.0570 N   0  0  0  0  0  0  0  0  0  0  0  0
  143.5070   73.1410  220.3070 C   0  0  0  0  0  0  0  0  0  0  0  0
  144.2620   71.8380  220.4490 C   0  0  0  0  0  0  0  0  0  0  0  0
  143.8340   70.8690  219.4460 N   0  0  0  0  0  0  0  0  0  0  0  0
  144.7990   70.2090  218.6400 C   0  0  0  0  0  0  0  0  0  0  0  0
  145.1800   70.6290  217.3910 C   0  0  0  0  0  0  0  0  0  0  0  0
  146.1250   69.9660  216.6180 C   0  0  0  0  0  0  0  0  0  0  0  0
  146.6970   68.8320  217.1480 C   0  0  0  0  0  0  0  0  0  0  0  0
  146.2920   68.4410  218.3980 C   0  0  0  0  0  0  0  0  0  0  0  0
  145.3830   69.0960  219.1180 N   0  0  0  0  0  0  0  0  0  0  0  0
  142.4060   70.6440  219.3480 C   0  0  0  0  0  0  0  0  0  0  0  0
  141.7800   71.9900  218.9670 C   0  0  0  0  0  0  0  0  0  0  0  0
  141.1000   74.8560  220.9690 N   0  0  0  0  0  0  0  0  0  0  0  0
  140.1380   75.4570  221.6910 C   0  0  0  0  0  0  0  0  0  0  0  0
  140.0930   76.8680  221.8940 N   0  0  0  0  0  0  0  0  0  0  0  0
  138.9090   77.4520  222.4820 C   0  0  0  0  0  0  0  0  0  0  0  0
  139.0380   78.8570  222.9330 C   0  0  0  0  0  0  0  0  0  0  0  0
  140.4040   79.3890  223.0160 C   0  0  0  0  0  0  0  0  0  0  0  0
  140.5970   80.5150  223.8280 C   0  0  0  0  0  0  0  0  0  0  0  0
  141.8680   81.0150  223.9060 C   0  0  0  0  0  0  0  0  0  0  0  0
  142.9470   80.4750  223.2370 C   0  0  0  0  0  0  0  0  0  0  0  0
  142.7360   79.3580  222.4350 C   0  0  0  0  0  0  0  0  0  0  0  0
  141.4680   78.8430  222.3440 C   0  0  0  0  0  0  0  0  0  0  0  0
  141.2380   77.6630  221.5000 C   0  0  0  0  0  0  0  0  0  0  0  0
  139.1940   74.6720  222.2240 N   0  0  0  0  0  0  0  0  0  0  0  0
  138.0270   71.1380  224.5890 C   0  0  0  0  0  0  0  0  0  0  0  0
  140.0280   69.1070  226.9650 N   0  0  0  0  0  0  0  0  0  0  0  0
  141.0609   68.3737  229.9663 H   0  0  0  0  0  0  0  0  0  0  0  0
  140.4293   67.2512  228.7143 H   0  0  0  0  0  0  0  0  0  0  0  0
  142.1656   67.7113  228.7143 H   0  0  0  0  0  0  0  0  0  0  0  0
  142.0705   70.6040  229.1805 H   0  0  0  0  0  0  0  0  0  0  0  0
  141.5165   72.4907  227.6734 H   0  0  0  0  0  0  0  0  0  0  0  0
  139.4649   68.0407  224.7755 H   0  0  0  0  0  0  0  0  0  0  0  0
  137.8331   68.4214  224.1875 H   0  0  0  0  0  0  0  0  0  0  0  0
  140.4723   68.7534  222.8857 H   0  0  0  0  0  0  0  0  0  0  0  0
  138.7976   68.6265  222.1700 H   0  0  0  0  0  0  0  0  0  0  0  0
  140.2967   71.0673  223.0939 H   0  0  0  0  0  0  0  0  0  0  0  0
  139.5225   70.7200  221.5070 H   0  0  0  0  0  0  0  0  0  0  0  0
  137.3393   70.6687  222.5984 H   0  0  0  0  0  0  0  0  0  0  0  0
  137.1760   73.1110  222.9210 H   0  0  0  0  0  0  0  0  0  0  0  0
  143.9291   73.7110  219.4662 H   0  0  0  0  0  0  0  0  0  0  0  0
  143.6058   73.7063  221.2455 H   0  0  0  0  0  0  0  0  0  0  0  0
  145.3378   72.0312  220.3253 H   0  0  0  0  0  0  0  0  0  0  0  0
  144.0551   71.4221  221.4461 H   0  0  0  0  0  0  0  0  0  0  0  0
  144.7136   71.5368  216.9806 H   0  0  0  0  0  0  0  0  0  0  0  0
  146.4055   70.3336  215.6199 H   0  0  0  0  0  0  0  0  0  0  0  0
  147.4520   68.2599  216.5888 H   0  0  0  0  0  0  0  0  0  0  0  0
  146.7430   67.5357  218.8305 H   0  0  0  0  0  0  0  0  0  0  0  0
  142.1917   69.8923  218.5740 H   0  0  0  0  0  0  0  0  0  0  0  0
  141.9959   70.2683  220.2970 H   0  0  0  0  0  0  0  0  0  0  0  0
  142.2126   72.3593  218.0255 H   0  0  0  0  0  0  0  0  0  0  0  0
  140.6943   71.8996  218.8151 H   0  0  0  0  0  0  0  0  0  0  0  0
  138.1048   77.4108  221.7326 H   0  0  0  0  0  0  0  0  0  0  0  0
  138.7060   76.8648  223.3897 H   0  0  0  0  0  0  0  0  0  0  0  0
  138.4743   79.4881  222.2301 H   0  0  0  0  0  0  0  0  0  0  0  0
  138.6536   78.8715  223.9635 H   0  0  0  0  0  0  0  0  0  0  0  0
  139.7635   80.9762  224.3781 H   0  0  0  0  0  0  0  0  0  0  0  0
  142.0395   81.8984  224.5385 H   0  0  0  0  0  0  0  0  0  0  0  0
  143.9496   80.9168  223.3353 H   0  0  0  0  0  0  0  0  0  0  0  0
  143.5695   78.8970  221.8848 H   0  0  0  0  0  0  0  0  0  0  0  0
  141.0828   78.0032  220.4655 H   0  0  0  0  0  0  0  0  0  0  0  0
  142.1233   77.0190  221.6072 H   0  0  0  0  0  0  0  0  0  0  0  0
  138.3496   72.0826  225.0512 H   0  0  0  0  0  0  0  0  0  0  0  0
  136.9827   70.9559  224.8826 H   0  0  0  0  0  0  0  0  0  0  0  0
  1  2  1  0
  2  3  2  0
  3  4  1  0
  4  5  2  0
  5  6  1  0
  6  7  1  0
  7  8  1  0
  8  9  1  0
  9 10  1  0
 10 11  1  0
 11 12  1  0
 12 13  1  0
 13 14  2  0
 14 15  1  0
 15 16  1  0
 16 17  1  0
 17 18  1  0
 18 19  1  0
 19 20  1  0
 20 21  2  0
 21 22  1  0
 22 23  2  0
 23 24  1  0
 24 25  2  0
 19 26  1  0
 26 27  1  0
 15 28  2  0
 28 29  1  0
 29 30  1  0
 30 31  1  0
 31 32  1  0
 32 33  1  0
 33 34  2  0
 34 35  1  0
 35 36  2  0
 36 37  1  0
 37 38  2  0
 38 39  1  0
 29 40  2  0
 11 41  1  0
  6 42  2  0
 42  2  1  0
 41  7  1  0
 40 13  1  0
 27 16  1  0
 39 30  1  0
 25 20  1  0
 38 33  1  0
  1 43  1  0
  1 44  1  0
  1 45  1  0
  3 46  1  0
  4 47  1  0
  8 48  1  0
  8 49  1  0
  9 50  1  0
  9 51  1  0
 10 52  1  0
 10 53  1  0
 11 54  1  6
 12 55  1  0
 17 56  1  0
 17 57  1  0
 18 58  1  0
 18 59  1  0
 21 60  1  0
 22 61  1  0
 23 62  1  0
 24 63  1  0
 26 64  1  0
 26 65  1  0
 27 66  1  0
 27 67  1  0
 31 68  1  0
 31 69  1  0
 32 70  1  0
 32 71  1  0
 34 72  1  0
 35 73  1  0
 36 74  1  0
 37 75  1  0
 39 76  1  0
 39 77  1  0
 41 78  1  0
 41 79  1  0
M  END
>  <smiles>  (2) 
Cc1ccnc(N2CCCC(Nc3nc(N4CCN(c5ccccn5)CC4)nc(N4CCc5ccccc5C4)n3)C2)n1

>  <score_type>  (2) 
oracle

>  <origin>  (2) 
autodockgpu

>  <m_score__min__energy>  (2) 
-10.5

>  <m_primary>  (2) 
energy

>  <rmsd>  (2) 
7.334571164204677

>  <m_score__min__rmsd>  (2) 
7.334571164204677

>  <meeko>  (2) 
{"free_energy": -9.58, "intermolecular_energy": -11.37, "internal_energy": -1.16, "cluster_size": 9, "cluster_id": 1, "rank_in_cluster": 2}

>  <energy>  (2) 
-9.58

>  <cluster_rmsd>  (2) 
0.97

>  <cluster>  (2) 
1

$$$$

     RDKit          3D

 79 85  0  0  1  0  0  0  0  0999 V2000
  141.0860   71.7430  226.3860 C   0  0  0  0  0  0  0  0  0  0  0  0
  140.3410   71.3030  225.1870 C   0  0  0  0  0  0  0  0  0  0  0  0
  139.2310   70.4710  225.3400 C   0  0  0  0  0  0  0  0  0  0  0  0
  138.5710   70.0880  224.1900 C   0  0  0  0  0  0  0  0  0  0  0  0
  138.9460   70.4760  222.9590 N   0  0  0  0  0  0  0  0  0  0  0  0
  140.0240   71.2810  222.8460 C   0  0  0  0  0  0  0  0  0  0  0  0
  140.3910   71.6690  221.5290 N   0  0  0  0  0  0  0  0  0  0  0  0
  141.7530   71.4620  221.0800 C   0  0  0  0  0  0  0  0  0  0  0  0
  142.3550   72.8280  220.8840 C   0  0  0  0  0  0  0  0  0  0  0  0
  141.3290   73.9180  220.7620 C   0  0  0  0  0  0  0  0  0  0  0  0
  140.1600   73.4360  219.9270 C   0  0  2  0  0  0  0  0  0  0  0  0
  139.1920   74.4790  219.7060 N   0  0  0  0  0  0  0  0  0  0  0  0
  138.5890   75.2360  220.7470 C   0  0  0  0  0  0  0  0  0  0  0  0
  137.5260   74.8110  221.4510 N   0  0  0  0  0  0  0  0  0  0  0  0
  137.0140   75.5990  222.4250 C   0  0  0  0  0  0  0  0  0  0  0  0
  135.8960   75.1500  223.1620 N   0  0  0  0  0  0  0  0  0  0  0  0
  135.4980   73.7480  223.2020 C   0  0  0  0  0  0  0  0  0  0  0  0
  135.3170   73.2730  224.6260 C   0  0  0  0  0  0  0  0  0  0  0  0
  134.6190   74.2700  225.4300 N   0  0  0  0  0  0  0  0  0  0  0  0
  133.4840   73.8970  226.1960 C   0  0  0  0  0  0  0  0  0  0  0  0
  132.3620   74.6730  226.3440 C   0  0  0  0  0  0  0  0  0  0  0  0
  131.2630   74.2880  227.1010 C   0  0  0  0  0  0  0  0  0  0  0  0
  131.3190   73.0650  227.7280 C   0  0  0  0  0  0  0  0  0  0  0  0
  132.4550   72.3160  227.5580 C   0  0  0  0  0  0  0  0  0  0  0  0
  133.4960   72.7090  226.8260 N   0  0  0  0  0  0  0  0  0  0  0  0
  135.1590   75.6140  225.3860 C   0  0  0  0  0  0  0  0  0  0  0  0
  135.0680   76.0700  223.9250 C   0  0  0  0  0  0  0  0  0  0  0  0
  137.5390   76.8050  222.7160 N   0  0  0  0  0  0  0  0  0  0  0  0
  138.6010   77.2460  222.0220 C   0  0  0  0  0  0  0  0  0  0  0  0
  139.2180   78.5070  222.2720 N   0  0  0  0  0  0  0  0  0  0  0  0
  138.5090   79.4880  223.0620 C   0  0  0  0  0  0  0  0  0  0  0  0
  139.3100   80.6440  223.5270 C   0  0  0  0  0  0  0  0  0  0  0  0
  140.7680   80.5160  223.4020 C   0  0  0  0  0  0  0  0  0  0  0  0
  141.5480   81.3580  224.2050 C   0  0  0  0  0  0  0  0  0  0  0  0
  142.9070   81.2440  224.0890 C   0  0  0  0  0  0  0  0  0  0  0  0
  143.5320   80.3570  223.2370 C   0  0  0  0  0  0  0  0  0  0  0  0
  142.7400   79.5290  222.4470 C   0  0  0  0  0  0  0  0  0  0  0  0
  141.3760   79.6300  222.5500 C   0  0  0  0  0  0  0  0  0  0  0  0
  140.5340   78.7580  221.7200 C   0  0  0  0  0  0  0  0  0  0  0  0
  139.0830   76.4430  221.0650 N   0  0  0  0  0  0  0  0  0  0  0  0
  139.4480   72.2750  220.5920 C   0  0  0  0  0  0  0  0  0  0  0  0
  140.6940   71.6770  223.9420 N   0  0  0  0  0  0  0  0  0  0  0  0
  140.5466   71.4244  227.2902 H   0  0  0  0  0  0  0  0  0  0  0  0
  142.0895   71.2926  226.3799 H   0  0  0  0  0  0  0  0  0  0  0  0
  141.1761   72.8393  226.3799 H   0  0  0  0  0  0  0  0  0  0  0  0
  138.8970   70.1354  226.3329 H   0  0  0  0  0  0  0  0  0  0  0  0
  137.6934   69.4318  224.2858 H   0  0  0  0  0  0  0  0  0  0  0  0
  142.3212   70.9022  221.8375 H   0  0  0  0  0  0  0  0  0  0  0  0
  141.7784   70.8803  220.1468 H   0  0  0  0  0  0  0  0  0  0  0  0
  143.0010   73.0516  221.7458 H   0  0  0  0  0  0  0  0  0  0  0  0
  142.9177   72.8033  219.9391 H   0  0  0  0  0  0  0  0  0  0  0  0
  140.9711   74.1956  221.7644 H   0  0  0  0  0  0  0  0  0  0  0  0
  141.7858   74.7919  220.2745 H   0  0  0  0  0  0  0  0  0  0  0  0
  140.5865   73.1179  218.9643 H   0  0  0  0  0  0  0  0  0  0  0  0
  138.9290   74.6780  218.7140 H   0  0  0  0  0  0  0  0  0  0  0  0
  134.5481   73.6288  222.6602 H   0  0  0  0  0  0  0  0  0  0  0  0
  136.2900   73.1468  222.7316 H   0  0  0  0  0  0  0  0  0  0  0  0
  134.7317   72.3416  224.6219 H   0  0  0  0  0  0  0  0  0  0  0  0
  136.3110   73.1046  225.0660 H   0  0  0  0  0  0  0  0  0  0  0  0
  132.3314   75.6490  225.8376 H   0  0  0  0  0  0  0  0  0  0  0  0
  130.3802   74.9373  227.1956 H   0  0  0  0  0  0  0  0  0  0  0  0
  130.4830   72.7011  228.3433 H   0  0  0  0  0  0  0  0  0  0  0  0
  132.5096   71.3357  228.0540 H   0  0  0  0  0  0  0  0  0  0  0  0
  134.5690   76.2822  226.0305 H   0  0  0  0  0  0  0  0  0  0  0  0
  136.1977   75.6382  225.7471 H   0  0  0  0  0  0  0  0  0  0  0  0
  134.0260   76.0251  223.5755 H   0  0  0  0  0  0  0  0  0  0  0  0
  135.4088   77.1092  223.8069 H   0  0  0  0  0  0  0  0  0  0  0  0
  137.6793   79.8758  222.4528 H   0  0  0  0  0  0  0  0  0  0  0  0
  138.1881   78.9617  223.9731 H   0  0  0  0  0  0  0  0  0  0  0  0
  138.9993   81.5236  222.9441 H   0  0  0  0  0  0  0  0  0  0  0  0
  139.1132   80.7229  224.6064 H   0  0  0  0  0  0  0  0  0  0  0  0
  141.0889   82.0786  224.8978 H   0  0  0  0  0  0  0  0  0  0  0  0
  143.5370   81.8971  224.7108 H   0  0  0  0  0  0  0  0  0  0  0  0
  144.6295   80.3055  223.1834 H   0  0  0  0  0  0  0  0  0  0  0  0
  143.1986   78.8082  221.7541 H   0  0  0  0  0  0  0  0  0  0  0  0
  140.4108   79.2323  220.7352 H   0  0  0  0  0  0  0  0  0  0  0  0
  141.0446   77.7854  221.6622 H   0  0  0  0  0  0  0  0  0  0  0  0
  138.5603   72.6366  221.1317 H   0  0  0  0  0  0  0  0  0  0  0  0
  139.1152   71.5408  219.8435 H   0  0  0  0  0  0  0  0  0  0  0  0
  1  2  1  0
  2  3  2  0
  3  4  1  0
  4  5  2  0
  5  6  1  0
  6  7  1  0
  7  8  1  0
  8  9  1  0
  9 10  1  0
 10 11  1  0
 11 12  1  0
 12 13  1  0
 13 14  2  0
 14 15  1  0
 15 16  1  0
 16 17  1  0
 17 18  1  0
 18 19  1  0
 19 20  1  0
 20 21  2  0
 21 22  1  0
 22 23  2  0
 23 24  1  0
 24 25  2  0
 19 26  1  0
 26 27  1  0
 15 28  2  0
 28 29  1  0
 29 30  1  0
 30 31  1  0
 31 32  1  0
 32 33  1  0
 33 34  2  0
 34 35  1  0
 35 36  2  0
 36 37  1  0
 37 38  2  0
 38 39  1  0
 29 40  2  0
 11 41  1  0
  6 42  2  0
 42  2  1  0
 41  7  1  0
 40 13  1  0
 27 16  1  0
 39 30  1  0
 25 20  1  0
 38 33  1  0
  1 43  1  0
  1 44  1  0
  1 45  1  0
  3 46  1  0
  4 47  1  0
  8 48  1  0
  8 49  1  0
  9 50  1  0
  9 51  1  0
 10 52  1  0
 10 53  1  0
 11 54  1  6
 12 55  1  0
 17 56  1  0
 17 57  1  0
 18 58  1  0
 18 59  1  0
 21 60  1  0
 22 61  1  0
 23 62  1  0
 24 63  1  0
 26 64  1  0
 26 65  1  0
 27 66  1  0
 27 67  1  0
 31 68  1  0
 31 69  1  0
 32 70  1  0
 32 71  1  0
 34 72  1  0
 35 73  1  0
 36 74  1  0
 37 75  1  0
 39 76  1  0
 39 77  1  0
 41 78  1  0
 41 79  1  0
M  END
>  <smiles>  (3) 
Cc1ccnc(N2CCCC(Nc3nc(N4CCN(c5ccccn5)CC4)nc(N4CCc5ccccc5C4)n3)C2)n1

>  <score_type>  (3) 
oracle

>  <origin>  (3) 
autodockgpu

>  <m_score__min__energy>  (3) 
-10.5

>  <m_primary>  (3) 
energy

>  <rmsd>  (3) 
8.076348155765489

>  <m_score__min__rmsd>  (3) 
8.076348155765489

>  <meeko>  (3) 
{"free_energy": -9.17, "intermolecular_energy": -10.96, "internal_energy": -1.88, "cluster_size": 4, "cluster_id": 4, "rank_in_cluster": 3}

>  <energy>  (3) 
-9.31

>  <cluster_rmsd>  (3) 
1.3

>  <cluster>  (3) 
1

$$$$

     RDKit          3D

 79 85  0  0  1  0  0  0  0  0999 V2000
  141.0430   70.6240  228.1980 C   0  0  0  0  0  0  0  0  0  0  0  0
  140.3980   69.6230  227.3220 C   0  0  0  0  0  0  0  0  0  0  0  0
  140.4430   68.2740  227.6760 C   0  0  0  0  0  0  0  0  0  0  0  0
  139.8270   67.3810  226.8240 C   0  0  0  0  0  0  0  0  0  0  0  0
  139.1990   67.7500  225.6950 N   0  0  0  0  0  0  0  0  0  0  0  0
  139.1740   69.0630  225.3810 C   0  0  0  0  0  0  0  0  0  0  0  0
  138.5030   69.4140  224.1780 N   0  0  0  0  0  0  0  0  0  0  0  0
  138.4680   68.4680  223.0810 C   0  0  0  0  0  0  0  0  0  0  0  0
  139.2790   69.0710  221.9650 C   0  0  0  0  0  0  0  0  0  0  0  0
  139.4840   70.5510  222.1110 C   0  0  0  0  0  0  0  0  0  0  0  0
  138.2100   71.2020  222.6100 C   0  0  2  0  0  0  0  0  0  0  0  0
  138.3310   72.6350  222.6780 N   0  0  0  0  0  0  0  0  0  0  0  0
  139.3310   73.3820  221.9980 C   0  0  0  0  0  0  0  0  0  0  0  0
  140.2450   72.8260  221.1840 N   0  0  0  0  0  0  0  0  0  0  0  0
  141.1630   73.6140  220.5770 C   0  0  0  0  0  0  0  0  0  0  0  0
  142.1230   73.0260  219.7240 N   0  0  0  0  0  0  0  0  0  0  0  0
  143.4650   73.5740  219.5620 C   0  0  0  0  0  0  0  0  0  0  0  0
  144.5170   72.5070  219.7630 C   0  0  0  0  0  0  0  0  0  0  0  0
  144.1350   71.2600  219.1090 N   0  0  0  0  0  0  0  0  0  0  0  0
  145.0450   70.6100  218.2340 C   0  0  0  0  0  0  0  0  0  0  0  0
  145.4340   69.3000  218.3580 C   0  0  0  0  0  0  0  0  0  0  0  0
  146.3280   68.6850  217.4910 C   0  0  0  0  0  0  0  0  0  0  0  0
  146.8390   69.4420  216.4610 C   0  0  0  0  0  0  0  0  0  0  0  0
  146.4280   70.7460  216.3680 C   0  0  0  0  0  0  0  0  0  0  0  0
  145.5690   71.3130  217.2140 N   0  0  0  0  0  0  0  0  0  0  0  0
  142.8100   70.7600  219.4160 C   0  0  0  0  0  0  0  0  0  0  0  0
  141.8220   71.8340  218.9470 C   0  0  0  0  0  0  0  0  0  0  0  0
  141.1930   74.9470  220.7630 N   0  0  0  0  0  0  0  0  0  0  0  0
  140.2860   75.5200  221.5730 C   0  0  0  0  0  0  0  0  0  0  0  0
  140.2470   76.9240  221.8170 N   0  0  0  0  0  0  0  0  0  0  0  0
  139.0560   77.5010  222.3960 C   0  0  0  0  0  0  0  0  0  0  0  0
  139.1850   78.8910  222.8910 C   0  0  0  0  0  0  0  0  0  0  0  0
  140.5530   79.4090  223.0190 C   0  0  0  0  0  0  0  0  0  0  0  0
  140.7360   80.5090  223.8680 C   0  0  0  0  0  0  0  0  0  0  0  0
  142.0090   80.9960  223.9880 C   0  0  0  0  0  0  0  0  0  0  0  0
  143.0980   80.4680  223.3260 C   0  0  0  0  0  0  0  0  0  0  0  0
  142.8960   79.3770  222.4870 C   0  0  0  0  0  0  0  0  0  0  0  0
  141.6270   78.8740  222.3540 C   0  0  0  0  0  0  0  0  0  0  0  0
  141.4070   77.7220  221.4710 C   0  0  0  0  0  0  0  0  0  0  0  0
  139.3920   74.7130  222.1580 N   0  0  0  0  0  0  0  0  0  0  0  0
  137.8380   70.7010  223.9910 C   0  0  0  0  0  0  0  0  0  0  0  0
  139.7620   69.9650  226.1850 N   0  0  0  0  0  0  0  0  0  0  0  0
  140.8701   70.3557  229.2507 H   0  0  0  0  0  0  0  0  0  0  0  0
  142.1244   70.6441  227.9976 H   0  0  0  0  0  0  0  0  0  0  0  0
  140.6144   71.6171  227.9976 H   0  0  0  0  0  0  0  0  0  0  0  0
  140.9474   67.9376  228.5938 H   0  0  0  0  0  0  0  0  0  0  0  0
  139.8512   66.3120  227.0822 H   0  0  0  0  0  0  0  0  0  0  0  0
  138.9067   67.5088  223.3932 H   0  0  0  0  0  0  0  0  0  0  0  0
  137.4344   68.2731  222.7589 H   0  0  0  0  0  0  0  0  0  0  0  0
  140.2644   68.5824  221.9464 H   0  0  0  0  0  0  0  0  0  0  0  0
  138.7185   68.9107  221.0322 H   0  0  0  0  0  0  0  0  0  0  0  0
  140.2948   70.7376  222.8305 H   0  0  0  0  0  0  0  0  0  0  0  0
  139.7492   70.9779  221.1325 H   0  0  0  0  0  0  0  0  0  0  0  0
  137.4278   70.9313  221.8855 H   0  0  0  0  0  0  0  0  0  0  0  0
  137.6310   73.1420  223.2680 H   0  0  0  0  0  0  0  0  0  0  0  0
  143.5635   73.9890  218.5481 H   0  0  0  0  0  0  0  0  0  0  0  0
  143.6151   74.3591  220.3177 H   0  0  0  0  0  0  0  0  0  0  0  0
  145.4694   72.8576  219.3387 H   0  0  0  0  0  0  0  0  0  0  0  0
  144.6195   72.3175  220.8417 H   0  0  0  0  0  0  0  0  0  0  0  0
  145.0170   68.7072  219.1855 H   0  0  0  0  0  0  0  0  0  0  0  0
  146.6171   67.6318  217.6225 H   0  0  0  0  0  0  0  0  0  0  0  0
  147.5512   69.0158  215.7391 H   0  0  0  0  0  0  0  0  0  0  0  0
  146.8301   71.3594  215.5483 H   0  0  0  0  0  0  0  0  0  0  0  0
  142.6268   69.8157  218.8824 H   0  0  0  0  0  0  0  0  0  0  0  0
  142.6992   70.5592  220.4918 H   0  0  0  0  0  0  0  0  0  0  0  0
  141.9565   72.0339  217.8737 H   0  0  0  0  0  0  0  0  0  0  0  0
  140.7801   71.5123  219.0920 H   0  0  0  0  0  0  0  0  0  0  0  0
  138.2681   77.4884  221.6285 H   0  0  0  0  0  0  0  0  0  0  0  0
  138.8296   76.8895  223.2819 H   0  0  0  0  0  0  0  0  0  0  0  0
  138.6414   79.5469  222.1951 H   0  0  0  0  0  0  0  0  0  0  0  0
  138.7780   78.8787  223.9129 H   0  0  0  0  0  0  0  0  0  0  0  0
  139.8941   80.9605  224.4133 H   0  0  0  0  0  0  0  0  0  0  0  0
  142.1736   81.8584  224.6507 H   0  0  0  0  0  0  0  0  0  0  0  0
  144.1013   80.8991  223.4583 H   0  0  0  0  0  0  0  0  0  0  0  0
  143.7378   78.9264  221.9408 H   0  0  0  0  0  0  0  0  0  0  0  0
  141.2766   78.0939  220.4440 H   0  0  0  0  0  0  0  0  0  0  0  0
  142.2851   77.0682  221.5778 H   0  0  0  0  0  0  0  0  0  0  0  0
  138.1781   71.4154  224.7552 H   0  0  0  0  0  0  0  0  0  0  0  0
  136.7474   70.5942  224.0866 H   0  0  0  0  0  0  0  0  0  0  0  0
  1  2  1  0
  2  3  2  0
  3  4  1  0
  4  5  2  0
  5  6  1  0
  6  7  1  0
  7  8  1  0
  8  9  1  0
  9 10  1  0
 10 11  1  0
 11 12  1  0
 12 13  1  0
 13 14  2  0
 14 15  1  0
 15 16  1  0
 16 17  1  0
 17 18  1  0
 18 19  1  0
 19 20  1  0
 20 21  2  0
 21 22  1  0
 22 23  2  0
 23 24  1  0
 24 25  2  0
 19 26  1  0
 26 27  1  0
 15 28  2  0
 28 29  1  0
 29 30  1  0
 30 31  1  0
 31 32  1  0
 32 33  1  0
 33 34  2  0
 34 35  1  0
 35 36  2  0
 36 37  1  0
 37 38  2  0
 38 39  1  0
 29 40  2  0
 11 41  1  0
  6 42  2  0
 42  2  1  0
 41  7  1  0
 40 13  1  0
 27 16  1  0
 39 30  1  0
 25 20  1  0
 38 33  1  0
  1 43  1  0
  1 44  1  0
  1 45  1  0
  3 46  1  0
  4 47  1  0
  8 48  1  0
  8 49  1  0
  9 50  1  0
  9 51  1  0
 10 52  1  0
 10 53  1  0
 11 54  1  6
 12 55  1  0
 17 56  1  0
 17 57  1  0
 18 58  1  0
 18 59  1  0
 21 60  1  0
 22 61  1  0
 23 62  1  0
 24 63  1  0
 26 64  1  0
 26 65  1  0
 27 66  1  0
 27 67  1  0
 31 68  1  0
 31 69  1  0
 32 70  1  0
 32 71  1  0
 34 72  1  0
 35 73  1  0
 36 74  1  0
 37 75  1  0
 39 76  1  0
 39 77  1  0
 41 78  1  0
 41 79  1  0
M  END
>  <smiles>  (4) 
Cc1ccnc(N2CCCC(Nc3nc(N4CCN(c5ccccn5)CC4)nc(N4CCc5ccccc5C4)n3)C2)n1

>  <score_type>  (4) 
oracle

>  <origin>  (4) 
autodockgpu

>  <m_score__min__energy>  (4) 
-10.5

>  <m_primary>  (4) 
energy

>  <rmsd>  (4) 
7.4063170168279076

>  <m_score__min__rmsd>  (4) 
7.4063170168279076

>  <meeko>  (4) 
{"free_energy": -10.5, "intermolecular_energy": -12.29, "internal_energy": -1.1, "cluster_size": 9, "cluster_id": 1, "rank_in_cluster": 1}

>  <energy>  (4) 
-9.09

>  <cluster_rmsd>  (4) 
1.59

>  <cluster>  (4) 
1

$$$$

     RDKit          3D

 79 85  0  0  1  0  0  0  0  0999 V2000
  141.3900   71.4190  226.0340 C   0  0  0  0  0  0  0  0  0  0  0  0
  140.3450   70.4660  225.6010 C   0  0  0  0  0  0  0  0  0  0  0  0
  140.5490   69.0990  225.7850 C   0  0  0  0  0  0  0  0  0  0  0  0
  139.5430   68.2520  225.3630 C   0  0  0  0  0  0  0  0  0  0  0  0
  138.4050   68.6840  224.7960 N   0  0  0  0  0  0  0  0  0  0  0  0
  138.2390   70.0140  224.6320 C   0  0  0  0  0  0  0  0  0  0  0  0
  137.0230   70.4310  224.0270 N   0  0  0  0  0  0  0  0  0  0  0  0
  136.1220   69.4360  223.4820 C   0  0  0  0  0  0  0  0  0  0  0  0
  136.1040   69.6400  221.9900 C   0  0  0  0  0  0  0  0  0  0  0  0
  136.6070   70.9910  221.5680 C   0  0  0  0  0  0  0  0  0  0  0  0
  136.0980   72.0520  222.5230 C   0  0  2  0  0  0  0  0  0  0  0  0
  136.4800   73.3760  222.1070 N   0  0  0  0  0  0  0  0  0  0  0  0
  137.8270   73.8090  221.9680 C   0  0  0  0  0  0  0  0  0  0  0  0
  138.8520   72.9730  221.7280 N   0  0  0  0  0  0  0  0  0  0  0  0
  140.1040   73.4720  221.6100 C   0  0  0  0  0  0  0  0  0  0  0  0
  141.1790   72.5900  221.3600 N   0  0  0  0  0  0  0  0  0  0  0  0
  141.0610   71.1460  221.5280 C   0  0  0  0  0  0  0  0  0  0  0  0
  141.5370   70.4150  220.2920 C   0  0  0  0  0  0  0  0  0  0  0  0
  142.7620   71.0080  219.7680 N   0  0  0  0  0  0  0  0  0  0  0  0
  143.8880   70.1870  219.4940 C   0  0  0  0  0  0  0  0  0  0  0  0
  143.8490   68.8170  219.4370 C   0  0  0  0  0  0  0  0  0  0  0  0
  144.9640   68.0330  219.1690 C   0  0  0  0  0  0  0  0  0  0  0  0
  146.1590   68.6800  218.9530 C   0  0  0  0  0  0  0  0  0  0  0  0
  146.1610   70.0490  219.0180 C   0  0  0  0  0  0  0  0  0  0  0  0
  145.0760   70.7780  219.2770 N   0  0  0  0  0  0  0  0  0  0  0  0
  142.7340   72.4410  219.5540 C   0  0  0  0  0  0  0  0  0  0  0  0
  142.4780   73.0780  220.9240 C   0  0  0  0  0  0  0  0  0  0  0  0
  140.3610   74.7890  221.7250 N   0  0  0  0  0  0  0  0  0  0  0  0
  139.3480   75.6390  221.9640 C   0  0  0  0  0  0  0  0  0  0  0  0
  139.5360   77.0470  222.0940 N   0  0  0  0  0  0  0  0  0  0  0  0
  138.4770   77.8440  222.6680 C   0  0  0  0  0  0  0  0  0  0  0  0
  138.8410   79.2300  223.0420 C   0  0  0  0  0  0  0  0  0  0  0  0
  140.2770   79.5360  223.0750 C   0  0  0  0  0  0  0  0  0  0  0  0
  140.6690   80.6550  223.8230 C   0  0  0  0  0  0  0  0  0  0  0  0
  142.0050   80.9450  223.8540 C   0  0  0  0  0  0  0  0  0  0  0  0
  142.9660   80.2060  223.1970 C   0  0  0  0  0  0  0  0  0  0  0  0
  142.5590   79.0990  222.4590 C   0  0  0  0  0  0  0  0  0  0  0  0
  141.2220   78.7920  222.4160 C   0  0  0  0  0  0  0  0  0  0  0  0
  140.7850   77.6250  221.6390 C   0  0  0  0  0  0  0  0  0  0  0  0
  138.1220   75.1130  222.0750 N   0  0  0  0  0  0  0  0  0  0  0  0
  136.6310   71.8350  223.9260 C   0  0  0  0  0  0  0  0  0  0  0  0
  139.1940   70.8710  225.0300 N   0  0  0  0  0  0  0  0  0  0  0  0
  141.4247   71.4507  227.1330 H   0  0  0  0  0  0  0  0  0  0  0  0
  142.3664   71.0939  225.6455 H   0  0  0  0  0  0  0  0  0  0  0  0
  141.1560   72.4212  225.6455 H   0  0  0  0  0  0  0  0  0  0  0  0
  141.4700   68.7124  226.2457 H   0  0  0  0  0  0  0  0  0  0  0  0
  139.6809   67.1691  225.4982 H   0  0  0  0  0  0  0  0  0  0  0  0
  136.4833   68.4252  223.7222 H   0  0  0  0  0  0  0  0  0  0  0  0
  135.1131   69.5399  223.9079 H   0  0  0  0  0  0  0  0  0  0  0  0
  136.7380   68.8707  221.5249 H   0  0  0  0  0  0  0  0  0  0  0  0
  135.0559   69.5667  221.6642 H   0  0  0  0  0  0  0  0  0  0  0  0
  137.7070   70.9898  221.5767 H   0  0  0  0  0  0  0  0  0  0  0  0
  136.2436   71.2122  220.5536 H   0  0  0  0  0  0  0  0  0  0  0  0
  135.0016   71.9638  222.5160 H   0  0  0  0  0  0  0  0  0  0  0  0
  135.7060   74.0490  221.8980 H   0  0  0  0  0  0  0  0  0  0  0  0
  141.6711   70.8330  222.3882 H   0  0  0  0  0  0  0  0  0  0  0  0
  140.0024   70.8983  221.6954 H   0  0  0  0  0  0  0  0  0  0  0  0
  141.7290   69.3628  220.5490 H   0  0  0  0  0  0  0  0  0  0  0  0
  140.7562   70.4894  219.5208 H   0  0  0  0  0  0  0  0  0  0  0  0
  142.8866   68.3140  219.6123 H   0  0  0  0  0  0  0  0  0  0  0  0
  144.8942   66.9359  219.1309 H   0  0  0  0  0  0  0  0  0  0  0  0
  147.0797   68.1186  218.7359 H   0  0  0  0  0  0  0  0  0  0  0  0
  147.1115   70.5755  218.8468 H   0  0  0  0  0  0  0  0  0  0  0  0
  143.6974   72.7841  219.1490 H   0  0  0  0  0  0  0  0  0  0  0  0
  141.9531   72.7212  218.8317 H   0  0  0  0  0  0  0  0  0  0  0  0
  143.2586   72.7753  221.6375 H   0  0  0  0  0  0  0  0  0  0  0  0
  142.4956   74.1763  220.8658 H   0  0  0  0  0  0  0  0  0  0  0  0
  137.6591   77.8966  221.9343 H   0  0  0  0  0  0  0  0  0  0  0  0
  138.2042   77.3436  223.6088 H   0  0  0  0  0  0  0  0  0  0  0  0
  138.3697   79.9085  222.3157 H   0  0  0  0  0  0  0  0  0  0  0  0
  138.4884   79.3585  224.0760 H   0  0  0  0  0  0  0  0  0  0  0  0
  139.9346   81.2723  224.3611 H   0  0  0  0  0  0  0  0  0  0  0  0
  142.3321   81.8186  224.4370 H   0  0  0  0  0  0  0  0  0  0  0  0
  144.0285   80.4849  223.2550 H   0  0  0  0  0  0  0  0  0  0  0  0
  143.2939   78.4823  221.9209 H   0  0  0  0  0  0  0  0  0  0  0  0
  140.6613   77.9342  220.5906 H   0  0  0  0  0  0  0  0  0  0  0  0
  141.5575   76.8520  221.7647 H   0  0  0  0  0  0  0  0  0  0  0  0
  137.5020   72.4831  224.1027 H   0  0  0  0  0  0  0  0  0  0  0  0
  135.8659   72.0818  224.6768 H   0  0  0  0  0  0  0  0  0  0  0  0
  1  2  1  0
  2  3  2  0
  3  4  1  0
  4  5  2  0
  5  6  1  0
  6  7  1  0
  7  8  1  0
  8  9  1  0
  9 10  1  0
 10 11  1  0
 11 12  1  0
 12 13  1  0
 13 14  2  0
 14 15  1  0
 15 16  1  0
 16 17  1  0
 17 18  1  0
 18 19  1  0
 19 20  1  0
 20 21  2  0
 21 22  1  0
 22 23  2  0
 23 24  1  0
 24 25  2  0
 19 26  1  0
 26 27  1  0
 15 28  2  0
 28 29  1  0
 29 30  1  0
 30 31  1  0
 31 32  1  0
 32 33  1  0
 33 34  2  0
 34 35  1  0
 35 36  2  0
 36 37  1  0
 37 38  2  0
 38 39  1  0
 29 40  2  0
 11 41  1  0
  6 42  2  0
 42  2  1  0
 41  7  1  0
 40 13  1  0
 27 16  1  0
 39 30  1  0
 25 20  1  0
 38 33  1  0
  1 43  1  0
  1 44  1  0
  1 45  1  0
  3 46  1  0
  4 47  1  0
  8 48  1  0
  8 49  1  0
  9 50  1  0
  9 51  1  0
 10 52  1  0
 10 53  1  0
 11 54  1  1
 12 55  1  0
 17 56  1  0
 17 57  1  0
 18 58  1  0
 18 59  1  0
 21 60  1  0
 22 61  1  0
 23 62  1  0
 24 63  1  0
 26 64  1  0
 26 65  1  0
 27 66  1  0
 27 67  1  0
 31 68  1  0
 31 69  1  0
 32 70  1  0
 32 71  1  0
 34 72  1  0
 35 73  1  0
 36 74  1  0
 37 75  1  0
 39 76  1  0
 39 77  1  0
 41 78  1  0
 41 79  1  0
M  END
>  <smiles>  (5) 
Cc1ccnc(N2CCCC(Nc3nc(N4CCN(c5ccccn5)CC4)nc(N4CCc5ccccc5C4)n3)C2)n1

>  <score_type>  (5) 
oracle

>  <origin>  (5) 
autodockgpu

>  <m_score__min__energy>  (5) 
-10.5

>  <m_primary>  (5) 
energy

>  <rmsd>  (5) 
6.599389428634335

>  <m_score__min__rmsd>  (5) 
6.599389428634335

>  <meeko>  (5) 
{"free_energy": -8.96, "intermolecular_energy": -10.75, "internal_energy": -2.07, "cluster_size": 9, "cluster_id": 1, "rank_in_cluster": 8}

>  <energy>  (5) 
-9.08

>  <cluster_rmsd>  (5) 
1.63

>  <cluster>  (5) 
1

$$$$

     RDKit          3D

 79 85  0  0  1  0  0  0  0  0999 V2000
  143.7190   76.2890  219.6950 C   0  0  0  0  0  0  0  0  0  0  0  0
  143.9540   74.8810  220.0820 C   0  0  0  0  0  0  0  0  0  0  0  0
  145.2140   74.5000  220.5420 C   0  0  0  0  0  0  0  0  0  0  0  0
  145.3810   73.1750  220.8900 C   0  0  0  0  0  0  0  0  0  0  0  0
  144.4010   72.2600  220.8040 N   0  0  0  0  0  0  0  0  0  0  0  0
  143.1930   72.6610  220.3540 C   0  0  0  0  0  0  0  0  0  0  0  0
  142.1820   71.6650  220.2750 N   0  0  0  0  0  0  0  0  0  0  0  0
  142.5130   70.3570  219.7440 C   0  0  0  0  0  0  0  0  0  0  0  0
  141.7570   70.2130  218.4500 C   0  0  0  0  0  0  0  0  0  0  0  0
  140.6120   71.1760  218.3190 C   0  0  0  0  0  0  0  0  0  0  0  0
  139.8970   71.3110  219.6480 C   0  0  2  0  0  0  0  0  0  0  0  0
  138.7350   72.1560  219.5480 N   0  0  0  0  0  0  0  0  0  0  0  0
  138.4870   73.2710  220.3940 C   0  0  0  0  0  0  0  0  0  0  0  0
  137.4120   73.3690  221.1940 N   0  0  0  0  0  0  0  0  0  0  0  0
  137.2550   74.4680  221.9680 C   0  0  0  0  0  0  0  0  0  0  0  0
  136.1220   74.5680  222.8060 N   0  0  0  0  0  0  0  0  0  0  0  0
  135.2570   73.4290  223.0900 C   0  0  0  0  0  0  0  0  0  0  0  0
  135.0500   73.2620  224.5790 C   0  0  0  0  0  0  0  0  0  0  0  0
  134.8270   74.5490  225.2280 N   0  0  0  0  0  0  0  0  0  0  0  0
  133.7080   74.7290  226.0830 C   0  0  0  0  0  0  0  0  0  0  0  0
  133.0500   75.9210  226.2520 C   0  0  0  0  0  0  0  0  0  0  0  0
  131.9570   76.0750  227.0960 C   0  0  0  0  0  0  0  0  0  0  0  0
  131.5270   74.9670  227.7900 C   0  0  0  0  0  0  0  0  0  0  0  0
  132.2090   73.7940  227.5960 C   0  0  0  0  0  0  0  0  0  0  0  0
  133.2550   73.6730  226.7800 N   0  0  0  0  0  0  0  0  0  0  0  0
  135.8030   75.5820  224.9440 C   0  0  0  0  0  0  0  0  0  0  0  0
  135.7480   75.8260  223.4320 C   0  0  0  0  0  0  0  0  0  0  0  0
  138.1480   75.4760  221.9650 N   0  0  0  0  0  0  0  0  0  0  0  0
  139.2290   75.3940  221.1710 C   0  0  0  0  0  0  0  0  0  0  0  0
  140.2240   76.4160  221.1140 N   0  0  0  0  0  0  0  0  0  0  0  0
  140.4060   77.1460  219.8810 C   0  0  0  0  0  0  0  0  0  0  0  0
  141.2330   78.3710  219.9720 C   0  0  0  0  0  0  0  0  0  0  0  0
  141.5120   78.8660  221.3260 C   0  0  0  0  0  0  0  0  0  0  0  0
  141.8950   80.2090  221.4420 C   0  0  0  0  0  0  0  0  0  0  0  0
  142.1580   80.6740  222.7020 C   0  0  0  0  0  0  0  0  0  0  0  0
  142.0690   79.8980  223.8400 C   0  0  0  0  0  0  0  0  0  0  0  0
  141.6880   78.5670  223.7040 C   0  0  0  0  0  0  0  0  0  0  0  0
  141.4200   78.0830  222.4490 C   0  0  0  0  0  0  0  0  0  0  0  0
  141.0170   76.6790  222.2980 C   0  0  0  0  0  0  0  0  0  0  0  0
  139.3550   74.2940  220.4190 N   0  0  0  0  0  0  0  0  0  0  0  0
  140.8070   71.8980  220.7090 C   0  0  0  0  0  0  0  0  0  0  0  0
  142.9890   73.9430  220.0060 N   0  0  0  0  0  0  0  0  0  0  0  0
  143.6161   76.9057  220.6000 H   0  0  0  0  0  0  0  0  0  0  0  0
  144.5690   76.6521  219.0986 H   0  0  0  0  0  0  0  0  0  0  0  0
  142.7972   76.3564  219.0986 H   0  0  0  0  0  0  0  0  0  0  0  0
  146.0385   75.2236  220.6239 H   0  0  0  0  0  0  0  0  0  0  0  0
  146.3665   72.8516  221.2564 H   0  0  0  0  0  0  0  0  0  0  0  0
  143.5953   70.2846  219.5611 H   0  0  0  0  0  0  0  0  0  0  0  0
  142.2406   69.5611  220.4528 H   0  0  0  0  0  0  0  0  0  0  0  0
  142.4548   70.3853  217.6173 H   0  0  0  0  0  0  0  0  0  0  0  0
  141.3322   69.1985  218.4327 H   0  0  0  0  0  0  0  0  0  0  0  0
  140.9960   72.1594  218.0099 H   0  0  0  0  0  0  0  0  0  0  0  0
  139.9059   70.7986  217.5646 H   0  0  0  0  0  0  0  0  0  0  0  0
  139.5917   70.2930  219.9318 H   0  0  0  0  0  0  0  0  0  0  0  0
  138.0400   71.9200  218.8010 H   0  0  0  0  0  0  0  0  0  0  0  0
  134.2817   73.5891  222.6072 H   0  0  0  0  0  0  0  0  0  0  0  0
  135.7365   72.5194  222.6992 H   0  0  0  0  0  0  0  0  0  0  0  0
  134.1749   72.6177  224.7496 H   0  0  0  0  0  0  0  0  0  0  0  0
  135.9555   72.8078  225.0078 H   0  0  0  0  0  0  0  0  0  0  0  0
  133.4054   76.7983  225.6916 H   0  0  0  0  0  0  0  0  0  0  0  0
  131.4538   77.0470  227.2055 H   0  0  0  0  0  0  0  0  0  0  0  0
  130.6679   75.0208  228.4749 H   0  0  0  0  0  0  0  0  0  0  0  0
  131.8736   72.9019  228.1453 H   0  0  0  0  0  0  0  0  0  0  0  0
  135.5499   76.5042  225.4875 H   0  0  0  0  0  0  0  0  0  0  0  0
  136.8107   75.2765  225.2620 H   0  0  0  0  0  0  0  0  0  0  0  0
  134.7310   76.1156  223.1289 H   0  0  0  0  0  0  0  0  0  0  0  0
  136.4237   76.6404  223.1318 H   0  0  0  0  0  0  0  0  0  0  0  0
  140.8832   76.4700  219.1561 H   0  0  0  0  0  0  0  0  0  0  0  0
  139.4025   77.4850  219.5843 H   0  0  0  0  0  0  0  0  0  0  0  0
  142.1973   78.1617  219.4859 H   0  0  0  0  0  0  0  0  0  0  0  0
  140.6426   79.1614  219.4855 H   0  0  0  0  0  0  0  0  0  0  0  0
  141.9804   80.8604  220.5597 H   0  0  0  0  0  0  0  0  0  0  0  0
  142.4575   81.7265  222.8142 H   0  0  0  0  0  0  0  0  0  0  0  0
  142.2938   80.3216  224.8300 H   0  0  0  0  0  0  0  0  0  0  0  0
  141.6033   77.9152  224.5861 H   0  0  0  0  0  0  0  0  0  0  0  0
  141.9262   76.0618  222.2491 H   0  0  0  0  0  0  0  0  0  0  0  0
  140.3846   76.4352  223.1644 H   0  0  0  0  0  0  0  0  0  0  0  0
  140.6213   72.9775  220.8097 H   0  0  0  0  0  0  0  0  0  0  0  0
  140.6210   71.4288  221.6864 H   0  0  0  0  0  0  0  0  0  0  0  0
  1  2  1  0
  2  3  2  0
  3  4  1  0
  4  5  2  0
  5  6  1  0
  6  7  1  0
  7  8  1  0
  8  9  1  0
  9 10  1  0
 10 11  1  0
 11 12  1  0
 12 13  1  0
 13 14  2  0
 14 15  1  0
 15 16  1  0
 16 17  1  0
 17 18  1  0
 18 19  1  0
 19 20  1  0
 20 21  2  0
 21 22  1  0
 22 23  2  0
 23 24  1  0
 24 25  2  0
 19 26  1  0
 26 27  1  0
 15 28  2  0
 28 29  1  0
 29 30  1  0
 30 31  1  0
 31 32  1  0
 32 33  1  0
 33 34  2  0
 34 35  1  0
 35 36  2  0
 36 37  1  0
 37 38  2  0
 38 39  1  0
 29 40  2  0
 11 41  1  0
  6 42  2  0
 42  2  1  0
 41  7  1  0
 40 13  1  0
 27 16  1  0
 39 30  1  0
 25 20  1  0
 38 33  1  0
  1 43  1  0
  1 44  1  0
  1 45  1  0
  3 46  1  0
  4 47  1  0
  8 48  1  0
  8 49  1  0
  9 50  1  0
  9 51  1  0
 10 52  1  0
 10 53  1  0
 11 54  1  1
 12 55  1  0
 17 56  1  0
 17 57  1  0
 18 58  1  0
 18 59  1  0
 21 60  1  0
 22 61  1  0
 23 62  1  0
 24 63  1  0
 26 64  1  0
 26 65  1  0
 27 66  1  0
 27 67  1  0
 31 68  1  0
 31 69  1  0
 32 70  1  0
 32 71  1  0
 34 72  1  0
 35 73  1  0
 36 74  1  0
 37 75  1  0
 39 76  1  0
 39 77  1  0
 41 78  1  0
 41 79  1  0
M  END
>  <smiles>  (6) 
Cc1ccnc(N2CCCC(Nc3nc(N4CCN(c5ccccn5)CC4)nc(N4CCc5ccccc5C4)n3)C2)n1

>  <score_type>  (6) 
oracle

>  <origin>  (6) 
autodockgpu

>  <m_score__min__energy>  (6) 
-10.5

>  <m_primary>  (6) 
energy

>  <rmsd>  (6) 
8.291246410326469

>  <m_score__min__rmsd>  (6) 
8.291246410326469

>  <meeko>  (6) 
{"free_energy": -8.38, "intermolecular_energy": -10.17, "internal_energy": -2.16, "cluster_size": 1, "cluster_id": 10, "rank_in_cluster": 1}

>  <energy>  (6) 
-9.06

>  <cluster_rmsd>  (6) 
1.59

>  <cluster>  (6) 
1

$$$$

     RDKit          3D

 79 85  0  0  1  0  0  0  0  0999 V2000
  146.9860   66.4830  215.9800 C   0  0  0  0  0  0  0  0  0  0  0  0
  146.4860   67.2000  217.1730 C   0  0  0  0  0  0  0  0  0  0  0  0
  146.7040   66.6560  218.4390 C   0  0  0  0  0  0  0  0  0  0  0  0
  146.2160   67.3650  219.5180 C   0  0  0  0  0  0  0  0  0  0  0  0
  145.5560   68.5290  219.4000 N   0  0  0  0  0  0  0  0  0  0  0  0
  145.3620   69.0280  218.1600 C   0  0  0  0  0  0  0  0  0  0  0  0
  144.6580   70.2600  218.0760 N   0  0  0  0  0  0  0  0  0  0  0  0
  145.4040   71.5000  218.0030 C   0  0  0  0  0  0  0  0  0  0  0  0
  145.1250   72.2480  219.2810 C   0  0  0  0  0  0  0  0  0  0  0  0
  143.8970   71.7640  219.9960 C   0  0  0  0  0  0  0  0  0  0  0  0
  142.8010   71.4630  218.9940 C   0  0  2  0  0  0  0  0  0  0  0  0
  141.5720   71.0830  219.6410 N   0  0  0  0  0  0  0  0  0  0  0  0
  140.9570   71.8310  220.6810 C   0  0  0  0  0  0  0  0  0  0  0  0
  140.7590   73.1590  220.6210 N   0  0  0  0  0  0  0  0  0  0  0  0
  140.1650   73.7920  221.6590 C   0  0  0  0  0  0  0  0  0  0  0  0
  139.9610   75.1890  221.5930 N   0  0  0  0  0  0  0  0  0  0  0  0
  138.6350   75.7900  221.6750 C   0  0  0  0  0  0  0  0  0  0  0  0
  138.5970   76.8830  222.7200 C   0  0  0  0  0  0  0  0  0  0  0  0
  139.7920   77.7170  222.6530 N   0  0  0  0  0  0  0  0  0  0  0  0
  139.6690   79.1290  222.5820 C   0  0  0  0  0  0  0  0  0  0  0  0
  140.7290   79.9910  222.4520 C   0  0  0  0  0  0  0  0  0  0  0  0
  140.5860   81.3710  222.3860 C   0  0  0  0  0  0  0  0  0  0  0  0
  139.3110   81.8830  222.4560 C   0  0  0  0  0  0  0  0  0  0  0  0
  138.2760   80.9920  222.5860 C   0  0  0  0  0  0  0  0  0  0  0  0
  138.4410   79.6720  222.6470 N   0  0  0  0  0  0  0  0  0  0  0  0
  141.0600   77.0140  222.6710 C   0  0  0  0  0  0  0  0  0  0  0  0
  141.0720   76.1130  221.4310 C   0  0  0  0  0  0  0  0  0  0  0  0
  139.7600   73.1310  222.7600 N   0  0  0  0  0  0  0  0  0  0  0  0
  139.9490   71.8030  222.8370 C   0  0  0  0  0  0  0  0  0  0  0  0
  139.5440   71.0300  223.9660 N   0  0  0  0  0  0  0  0  0  0  0  0
  138.8300   69.7930  223.7460 C   0  0  0  0  0  0  0  0  0  0  0  0
  138.7010   68.9040  224.9240 C   0  0  0  0  0  0  0  0  0  0  0  0
  139.5550   69.2240  226.0750 C   0  0  0  0  0  0  0  0  0  0  0  0
  139.7840   68.1950  226.9980 C   0  0  0  0  0  0  0  0  0  0  0  0
  140.5770   68.4890  228.0740 C   0  0  0  0  0  0  0  0  0  0  0  0
  141.1500   69.7260  228.2880 C   0  0  0  0  0  0  0  0  0  0  0  0
  140.9120   70.7350  227.3600 C   0  0  0  0  0  0  0  0  0  0  0  0
  140.1190   70.4580  226.2760 C   0  0  0  0  0  0  0  0  0  0  0  0
  139.8630   71.5180  225.2920 C   0  0  0  0  0  0  0  0  0  0  0  0
  140.5400   71.2070  221.7940 N   0  0  0  0  0  0  0  0  0  0  0  0
  143.2000   70.3380  218.0590 C   0  0  0  0  0  0  0  0  0  0  0  0
  145.8220   68.3690  217.0830 N   0  0  0  0  0  0  0  0  0  0  0  0
  147.5885   65.6191  216.2972 H   0  0  0  0  0  0  0  0  0  0  0  0
  146.1340   66.1346  215.3777 H   0  0  0  0  0  0  0  0  0  0  0  0
  147.6074   67.1621  215.3777 H   0  0  0  0  0  0  0  0  0  0  0  0
  147.2406   65.7049  218.5713 H   0  0  0  0  0  0  0  0  0  0  0  0
  146.3758   66.9558  220.5265 H   0  0  0  0  0  0  0  0  0  0  0  0
  146.4801   71.2905  217.9134 H   0  0  0  0  0  0  0  0  0  0  0  0
  145.1049   72.0910  217.1248 H   0  0  0  0  0  0  0  0  0  0  0  0
  145.9891   72.1287  219.9512 H   0  0  0  0  0  0  0  0  0  0  0  0
  144.9518   73.3003  219.0116 H   0  0  0  0  0  0  0  0  0  0  0  0
  144.1387   70.8496  220.5577 H   0  0  0  0  0  0  0  0  0  0  0  0
  143.5498   72.5452  220.6883 H   0  0  0  0  0  0  0  0  0  0  0  0
  142.6479   72.3921  218.4254 H   0  0  0  0  0  0  0  0  0  0  0  0
  141.1170   70.1990  219.3140 H   0  0  0  0  0  0  0  0  0  0  0  0
  138.3738   76.2191  220.6964 H   0  0  0  0  0  0  0  0  0  0  0  0
  137.9141   75.0092  221.9592 H   0  0  0  0  0  0  0  0  0  0  0  0
  137.7105   77.5116  222.5500 H   0  0  0  0  0  0  0  0  0  0  0  0
  138.5542   76.4139  223.7141 H   0  0  0  0  0  0  0  0  0  0  0  0
  141.7428   79.5677  222.3973 H   0  0  0  0  0  0  0  0  0  0  0  0
  141.4602   82.0304  222.2816 H   0  0  0  0  0  0  0  0  0  0  0  0
  139.1282   82.9667  222.4094 H   0  0  0  0  0  0  0  0  0  0  0  0
  137.2522   81.3903  222.6431 H   0  0  0  0  0  0  0  0  0  0  0  0
  141.8932   77.7309  222.6286 H   0  0  0  0  0  0  0  0  0  0  0  0
  141.1771   76.4256  223.5930 H   0  0  0  0  0  0  0  0  0  0  0  0
  140.9380   76.7152  220.5203 H   0  0  0  0  0  0  0  0  0  0  0  0
  142.0282   75.5783  221.3321 H   0  0  0  0  0  0  0  0  0  0  0  0
  137.8164   70.0453  223.4011 H   0  0  0  0  0  0  0  0  0  0  0  0
  139.4259   69.2310  223.0118 H   0  0  0  0  0  0  0  0  0  0  0  0
  137.6547   68.9436  225.2612 H   0  0  0  0  0  0  0  0  0  0  0  0
  139.0293   67.9117  224.5810 H   0  0  0  0  0  0  0  0  0  0  0  0
  139.3458   67.1950  226.8637 H   0  0  0  0  0  0  0  0  0  0  0  0
  140.7685   67.6942  228.8100 H   0  0  0  0  0  0  0  0  0  0  0  0
  141.7797   69.9099  229.1710 H   0  0  0  0  0  0  0  0  0  0  0  0
  141.3511   71.7347  227.4932 H   0  0  0  0  0  0  0  0  0  0  0  0
  139.0177   72.1243  225.6495 H   0  0  0  0  0  0  0  0  0  0  0  0
  140.7934   72.0977  225.2012 H   0  0  0  0  0  0  0  0  0  0  0  0
  142.7676   69.3880  218.4061 H   0  0  0  0  0  0  0  0  0  0  0  0
  142.8306   70.5270  217.0403 H   0  0  0  0  0  0  0  0  0  0  0  0
  1  2  1  0
  2  3  2  0
  3  4  1  0
  4  5  2  0
  5  6  1  0
  6  7  1  0
  7  8  1  0
  8  9  1  0
  9 10  1  0
 10 11  1  0
 11 12  1  0
 12 13  1  0
 13 14  2  0
 14 15  1  0
 15 16  1  0
 16 17  1  0
 17 18  1  0
 18 19  1  0
 19 20  1  0
 20 21  2  0
 21 22  1  0
 22 23  2  0
 23 24  1  0
 24 25  2  0
 19 26  1  0
 26 27  1  0
 15 28  2  0
 28 29  1  0
 29 30  1  0
 30 31  1  0
 31 32  1  0
 32 33  1  0
 33 34  2  0
 34 35  1  0
 35 36  2  0
 36 37  1  0
 37 38  2  0
 38 39  1  0
 29 40  2  0
 11 41  1  0
  6 42  2  0
 42  2  1  0
 41  7  1  0
 40 13  1  0
 27 16  1  0
 39 30  1  0
 25 20  1  0
 38 33  1  0
  1 43  1  0
  1 44  1  0
  1 45  1  0
  3 46  1  0
  4 47  1  0
  8 48  1  0
  8 49  1  0
  9 50  1  0
  9 51  1  0
 10 52  1  0
 10 53  1  0
 11 54  1  6
 12 55  1  0
 17 56  1  0
 17 57  1  0
 18 58  1  0
 18 59  1  0
 21 60  1  0
 22 61  1  0
 23 62  1  0
 24 63  1  0
 26 64  1  0
 26 65  1  0
 27 66  1  0
 27 67  1  0
 31 68  1  0
 31 69  1  0
 32 70  1  0
 32 71  1  0
 34 72  1  0
 35 73  1  0
 36 74  1  0
 37 75  1  0
 39 76  1  0
 39 77  1  0
 41 78  1  0
 41 79  1  0
M  END
>  <smiles>  (7) 
Cc1ccnc(N2CCCC(Nc3nc(N4CCN(c5ccccn5)CC4)nc(N4CCc5ccccc5C4)n3)C2)n1

>  <score_type>  (7) 
oracle

>  <origin>  (7) 
autodockgpu

>  <m_score__min__energy>  (7) 
-10.5

>  <m_primary>  (7) 
energy

>  <rmsd>  (7) 
8.281611994739801

>  <m_score__min__rmsd>  (7) 
8.281611994739801

>  <meeko>  (7) 
{"free_energy": -9.85, "intermolecular_energy": -11.64, "internal_energy": -1.43, "cluster_size": 13, "cluster_id": 2, "rank_in_cluster": 3}

>  <energy>  (7) 
-9.04

>  <cluster_rmsd>  (7) 
1.59

>  <cluster>  (7) 
1

$$$$

     RDKit          3D

 79 85  0  0  1  0  0  0  0  0999 V2000
  146.8690   66.6230  216.1570 C   0  0  0  0  0  0  0  0  0  0  0  0
  146.3580   67.4030  217.3050 C   0  0  0  0  0  0  0  0  0  0  0  0
  146.4600   66.8720  218.5910 C   0  0  0  0  0  0  0  0  0  0  0  0
  145.9680   67.6400  219.6270 C   0  0  0  0  0  0  0  0  0  0  0  0
  145.4090   68.8490  219.4500 N   0  0  0  0  0  0  0  0  0  0  0  0
  145.3260   69.3340  218.1920 C   0  0  0  0  0  0  0  0  0  0  0  0
  144.7280   70.6150  218.0440 N   0  0  0  0  0  0  0  0  0  0  0  0
  145.5720   71.7920  218.0020 C   0  0  0  0  0  0  0  0  0  0  0  0
  145.2710   72.5840  219.2480 C   0  0  0  0  0  0  0  0  0  0  0  0
  143.9660   72.2100  219.8890 C   0  0  0  0  0  0  0  0  0  0  0  0
  142.9160   71.9740  218.8230 C   0  0  2  0  0  0  0  0  0  0  0  0
  141.6220   71.7020  219.3950 N   0  0  0  0  0  0  0  0  0  0  0  0
  141.0510   72.4510  220.4600 C   0  0  0  0  0  0  0  0  0  0  0  0
  140.9600   73.7920  220.4570 N   0  0  0  0  0  0  0  0  0  0  0  0
  140.4000   74.4250  221.5140 C   0  0  0  0  0  0  0  0  0  0  0  0
  140.3090   75.8340  221.5090 N   0  0  0  0  0  0  0  0  0  0  0  0
  139.8680   76.5940  222.6730 C   0  0  0  0  0  0  0  0  0  0  0  0
  140.8470   77.6980  223.0050 C   0  0  0  0  0  0  0  0  0  0  0  0
  141.3030   78.3790  221.7980 N   0  0  0  0  0  0  0  0  0  0  0  0
  141.2400   79.7940  221.7150 C   0  0  0  0  0  0  0  0  0  0  0  0
  141.8840   80.6480  222.5750 C   0  0  0  0  0  0  0  0  0  0  0  0
  141.8070   82.0310  222.4760 C   0  0  0  0  0  0  0  0  0  0  0  0
  141.0420   82.5550  221.4590 C   0  0  0  0  0  0  0  0  0  0  0  0
  140.4130   81.6720  220.6190 C   0  0  0  0  0  0  0  0  0  0  0  0
  140.5030   80.3490  220.7360 N   0  0  0  0  0  0  0  0  0  0  0  0
  141.8070   77.5270  220.7400 C   0  0  0  0  0  0  0  0  0  0  0  0
  140.6470   76.6140  220.3280 C   0  0  0  0  0  0  0  0  0  0  0  0
  139.9250   73.7500  222.5790 N   0  0  0  0  0  0  0  0  0  0  0  0
  140.0070   72.4090  222.5980 C   0  0  0  0  0  0  0  0  0  0  0  0
  139.5230   71.6220  223.6850 N   0  0  0  0  0  0  0  0  0  0  0  0
  138.2450   70.9600  223.5550 C   0  0  0  0  0  0  0  0  0  0  0  0
  137.9400   69.9360  224.5800 C   0  0  0  0  0  0  0  0  0  0  0  0
  139.0670   69.4970  225.4140 C   0  0  0  0  0  0  0  0  0  0  0  0
  138.9290   68.2640  226.0650 C   0  0  0  0  0  0  0  0  0  0  0  0
  139.9760   67.8520  226.8440 C   0  0  0  0  0  0  0  0  0  0  0  0
  141.1360   68.5790  227.0160 C   0  0  0  0  0  0  0  0  0  0  0  0
  141.2540   69.8010  226.3620 C   0  0  0  0  0  0  0  0  0  0  0  0
  140.2150   70.2300  225.5760 C   0  0  0  0  0  0  0  0  0  0  0  0
  140.3330   71.5190  224.8820 C   0  0  0  0  0  0  0  0  0  0  0  0
  140.5660   71.8140  221.5370 N   0  0  0  0  0  0  0  0  0  0  0  0
  143.2840   70.8040  217.9320 C   0  0  0  0  0  0  0  0  0  0  0  0
  145.7940   68.6170  217.1560 N   0  0  0  0  0  0  0  0  0  0  0  0
  147.4368   65.7563  216.5263 H   0  0  0  0  0  0  0  0  0  0  0  0
  146.0238   66.2741  215.5455 H   0  0  0  0  0  0  0  0  0  0  0  0
  147.5264   67.2585  215.5455 H   0  0  0  0  0  0  0  0  0  0  0  0
  146.9122   65.8856  218.7713 H   0  0  0  0  0  0  0  0  0  0  0  0
  146.0371   67.2419  220.6501 H   0  0  0  0  0  0  0  0  0  0  0  0
  146.6320   71.4983  217.9861 H   0  0  0  0  0  0  0  0  0  0  0  0
  145.3771   72.3871  217.0976 H   0  0  0  0  0  0  0  0  0  0  0  0
  146.0788   72.4120  219.9746 H   0  0  0  0  0  0  0  0  0  0  0  0
  145.1974   73.6409  218.9522 H   0  0  0  0  0  0  0  0  0  0  0  0
  144.0996   71.2912  220.4789 H   0  0  0  0  0  0  0  0  0  0  0  0
  143.6374   73.0292  220.5454 H   0  0  0  0  0  0  0  0  0  0  0  0
  142.8725   72.9008  218.2322 H   0  0  0  0  0  0  0  0  0  0  0  0
  141.0840   70.9010  218.9910 H   0  0  0  0  0  0  0  0  0  0  0  0
  138.8843   77.0380  222.4606 H   0  0  0  0  0  0  0  0  0  0  0  0
  139.8063   75.9113  223.5333 H   0  0  0  0  0  0  0  0  0  0  0  0
  140.3547   78.4278  223.6646 H   0  0  0  0  0  0  0  0  0  0  0  0
  141.7197   77.2514  223.5039 H   0  0  0  0  0  0  0  0  0  0  0  0
  142.4917   80.2152  223.3833 H   0  0  0  0  0  0  0  0  0  0  0  0
  142.3380   82.6838  223.1845 H   0  0  0  0  0  0  0  0  0  0  0  0
  140.9389   83.6419  221.3248 H   0  0  0  0  0  0  0  0  0  0  0  0
  139.7994   82.0801  219.8024 H   0  0  0  0  0  0  0  0  0  0  0  0
  142.1337   78.1362  219.8844 H   0  0  0  0  0  0  0  0  0  0  0  0
  142.6737   76.9409  221.0796 H   0  0  0  0  0  0  0  0  0  0  0  0
  139.7833   77.2150  220.0073 H   0  0  0  0  0  0  0  0  0  0  0  0
  140.9257   75.9657  219.4842 H   0  0  0  0  0  0  0  0  0  0  0  0
  137.4604   71.7294  223.6034 H   0  0  0  0  0  0  0  0  0  0  0  0
  138.2855   70.4200  222.5975 H   0  0  0  0  0  0  0  0  0  0  0  0
  137.1693   70.3486  225.2476 H   0  0  0  0  0  0  0  0  0  0  0  0
  137.6235   69.0439  224.0197 H   0  0  0  0  0  0  0  0  0  0  0  0
  138.0199   67.6545  225.9549 H   0  0  0  0  0  0  0  0  0  0  0  0
  139.8877   66.8860  227.3627 H   0  0  0  0  0  0  0  0  0  0  0  0
  141.9479   68.2014  227.6549 H   0  0  0  0  0  0  0  0  0  0  0  0
  142.1625   70.4112  226.4730 H   0  0  0  0  0  0  0  0  0  0  0  0
  140.0260   72.3148  225.5766 H   0  0  0  0  0  0  0  0  0  0  0  0
  141.3819   71.6139  224.5647 H   0  0  0  0  0  0  0  0  0  0  0  0
  142.7580   69.8969  218.2643 H   0  0  0  0  0  0  0  0  0  0  0  0
  142.9951   71.0007  216.8890 H   0  0  0  0  0  0  0  0  0  0  0  0
  1  2  1  0
  2  3  2  0
  3  4  1  0
  4  5  2  0
  5  6  1  0
  6  7  1  0
  7  8  1  0
  8  9  1  0
  9 10  1  0
 10 11  1  0
 11 12  1  0
 12 13  1  0
 13 14  2  0
 14 15  1  0
 15 16  1  0
 16 17  1  0
 17 18  1  0
 18 19  1  0
 19 20  1  0
 20 21  2  0
 21 22  1  0
 22 23  2  0
 23 24  1  0
 24 25  2  0
 19 26  1  0
 26 27  1  0
 15 28  2  0
 28 29  1  0
 29 30  1  0
 30 31  1  0
 31 32  1  0
 32 33  1  0
 33 34  2  0
 34 35  1  0
 35 36  2  0
 36 37  1  0
 37 38  2  0
 38 39  1  0
 29 40  2  0
 11 41  1  0
  6 42  2  0
 42  2  1  0
 41  7  1  0
 40 13  1  0
 27 16  1  0
 39 30  1  0
 25 20  1  0
 38 33  1  0
  1 43  1  0
  1 44  1  0
  1 45  1  0
  3 46  1  0
  4 47  1  0
  8 48  1  0
  8 49  1  0
  9 50  1  0
  9 51  1  0
 10 52  1  0
 10 53  1  0
 11 54  1  6
 12 55  1  0
 17 56  1  0
 17 57  1  0
 18 58  1  0
 18 59  1  0
 21 60  1  0
 22 61  1  0
 23 62  1  0
 24 63  1  0
 26 64  1  0
 26 65  1  0
 27 66  1  0
 27 67  1  0
 31 68  1  0
 31 69  1  0
 32 70  1  0
 32 71  1  0
 34 72  1  0
 35 73  1  0
 36 74  1  0
 37 75  1  0
 39 76  1  0
 39 77  1  0
 41 78  1  0
 41 79  1  0
M  END
>  <smiles>  (8) 
Cc1ccnc(N2CCCC(Nc3nc(N4CCN(c5ccccn5)CC4)nc(N4CCc5ccccc5C4)n3)C2)n1

>  <score_type>  (8) 
oracle

>  <origin>  (8) 
autodockgpu

>  <m_score__min__energy>  (8) 
-10.5

>  <m_primary>  (8) 
energy

>  <rmsd>  (8) 
8.85792694063863

>  <m_score__min__rmsd>  (8) 
8.85792694063863

>  <meeko>  (8) 
{"free_energy": -9.84, "intermolecular_energy": -11.63, "internal_energy": -1.46, "cluster_size": 13, "cluster_id": 2, "rank_in_cluster": 4}

>  <energy>  (8) 
-8.96

>  <cluster_rmsd>  (8) 
1.54

>  <cluster>  (8) 
1

$$$$

     RDKit          3D

 79 85  0  0  1  0  0  0  0  0999 V2000
  142.9930   77.6380  215.2470 C   0  0  0  0  0  0  0  0  0  0  0  0
  142.9150   77.0870  216.6170 C   0  0  0  0  0  0  0  0  0  0  0  0
  143.7910   76.0680  216.9940 C   0  0  0  0  0  0  0  0  0  0  0  0
  143.6760   75.5880  218.2830 C   0  0  0  0  0  0  0  0  0  0  0  0
  142.7780   76.0530  219.1670 N   0  0  0  0  0  0  0  0  0  0  0  0
  141.9450   77.0390  218.7700 C   0  0  0  0  0  0  0  0  0  0  0  0
  141.0080   77.5030  219.7330 N   0  0  0  0  0  0  0  0  0  0  0  0
  141.2030   78.8010  220.3470 C   0  0  0  0  0  0  0  0  0  0  0  0
  141.4970   78.5490  221.8030 C   0  0  0  0  0  0  0  0  0  0  0  0
  141.0770   77.1850  222.2670 C   0  0  0  0  0  0  0  0  0  0  0  0
  139.7430   76.8170  221.6490 C   0  0  2  0  0  0  0  0  0  0  0  0
  139.2560   75.5530  222.1370 N   0  0  0  0  0  0  0  0  0  0  0  0
  139.9350   74.3170  221.9600 C   0  0  0  0  0  0  0  0  0  0  0  0
  140.8940   74.1240  221.0390 N   0  0  0  0  0  0  0  0  0  0  0  0
  141.4880   72.9120  220.9390 C   0  0  0  0  0  0  0  0  0  0  0  0
  142.4950   72.7130  219.9680 N   0  0  0  0  0  0  0  0  0  0  0  0
  143.8920   73.0550  220.2090 C   0  0  0  0  0  0  0  0  0  0  0  0
  144.8010   71.8920  219.8810 C   0  0  0  0  0  0  0  0  0  0  0  0
  144.3960   71.2380  218.6420 N   0  0  0  0  0  0  0  0  0  0  0  0
  145.3490   71.0060  217.6170 C   0  0  0  0  0  0  0  0  0  0  0  0
  145.8680   69.7730  217.3100 C   0  0  0  0  0  0  0  0  0  0  0  0
  146.8020   69.5680  216.3030 C   0  0  0  0  0  0  0  0  0  0  0  0
  147.2190   70.6680  215.5880 C   0  0  0  0  0  0  0  0  0  0  0  0
  146.6800   71.8830  215.9220 C   0  0  0  0  0  0  0  0  0  0  0  0
  145.7840   72.0520  216.8940 N   0  0  0  0  0  0  0  0  0  0  0  0
  143.0000   70.8590  218.5510 C   0  0  0  0  0  0  0  0  0  0  0  0
  142.1900   72.1560  218.6600 C   0  0  0  0  0  0  0  0  0  0  0  0
  141.1490   71.8840  221.7390 N   0  0  0  0  0  0  0  0  0  0  0  0
  140.1920   72.0590  222.6660 C   0  0  0  0  0  0  0  0  0  0  0  0
  139.7790   71.0220  223.5550 N   0  0  0  0  0  0  0  0  0  0  0  0
  139.2960   69.7780  223.0020 C   0  0  0  0  0  0  0  0  0  0  0  0
  139.1650   68.6540  223.9570 C   0  0  0  0  0  0  0  0  0  0  0  0
  139.8150   68.8320  225.2620 C   0  0  0  0  0  0  0  0  0  0  0  0
  140.0870   67.6710  225.9980 C   0  0  0  0  0  0  0  0  0  0  0  0
  140.6910   67.8330  227.2150 C   0  0  0  0  0  0  0  0  0  0  0  0
  141.0360   69.0610  227.7420 C   0  0  0  0  0  0  0  0  0  0  0  0
  140.7570   70.2020  226.9970 C   0  0  0  0  0  0  0  0  0  0  0  0
  140.1530   70.0590  225.7740 C   0  0  0  0  0  0  0  0  0  0  0  0
  139.8560   71.2600  224.9820 C   0  0  0  0  0  0  0  0  0  0  0  0
  139.6240   73.2690  222.7390 N   0  0  0  0  0  0  0  0  0  0  0  0
  139.8410   76.7240  220.1380 C   0  0  0  0  0  0  0  0  0  0  0  0
  142.0250   77.5340  217.5230 N   0  0  0  0  0  0  0  0  0  0  0  0
  143.1470   78.7260  215.2976 H   0  0  0  0  0  0  0  0  0  0  0  0
  143.8343   77.1731  214.7121 H   0  0  0  0  0  0  0  0  0  0  0  0
  142.0557   77.4248  214.7121 H   0  0  0  0  0  0  0  0  0  0  0  0
  144.5393   75.6656  216.2954 H   0  0  0  0  0  0  0  0  0  0  0  0
  144.3545   74.7834  218.6027 H   0  0  0  0  0  0  0  0  0  0  0  0
  142.0486   79.3215  219.8737 H   0  0  0  0  0  0  0  0  0  0  0  0
  140.3120   79.4347  220.2262 H   0  0  0  0  0  0  0  0  0  0  0  0
  142.5801   78.6540  221.9635 H   0  0  0  0  0  0  0  0  0  0  0  0
  140.9183   79.2826  222.3835 H   0  0  0  0  0  0  0  0  0  0  0  0
  141.8349   76.4475  221.9642 H   0  0  0  0  0  0  0  0  0  0  0  0
  140.9791   77.1898  223.3626 H   0  0  0  0  0  0  0  0  0  0  0  0
  139.0455   77.6178  221.9357 H   0  0  0  0  0  0  0  0  0  0  0  0
  138.3450   75.5630  222.6520 H   0  0  0  0  0  0  0  0  0  0  0  0
  144.1656   73.9139  219.5786 H   0  0  0  0  0  0  0  0  0  0  0  0
  144.0125   73.3034  221.2738 H   0  0  0  0  0  0  0  0  0  0  0  0
  145.8311   72.2618  219.7712 H   0  0  0  0  0  0  0  0  0  0  0  0
  144.7367   71.1588  220.6985 H   0  0  0  0  0  0  0  0  0  0  0  0
  145.5269   68.9034  217.8909 H   0  0  0  0  0  0  0  0  0  0  0  0
  147.1942   68.5637  216.0847 H   0  0  0  0  0  0  0  0  0  0  0  0
  147.9577   70.5752  214.7783 H   0  0  0  0  0  0  0  0  0  0  0  0
  147.0052   72.7684  215.3560 H   0  0  0  0  0  0  0  0  0  0  0  0
  142.8017   70.3668  217.5875 H   0  0  0  0  0  0  0  0  0  0  0  0
  142.7269   70.1508  219.3472 H   0  0  0  0  0  0  0  0  0  0  0  0
  142.4861   72.8588  217.8673 H   0  0  0  0  0  0  0  0  0  0  0  0
  141.1124   71.9678  218.5447 H   0  0  0  0  0  0  0  0  0  0  0  0
  138.3044   69.9660  222.5645 H   0  0  0  0  0  0  0  0  0  0  0  0
  140.0556   69.4617  222.2720 H   0  0  0  0  0  0  0  0  0  0  0  0
  138.0923   68.4893  224.1362 H   0  0  0  0  0  0  0  0  0  0  0  0
  139.6811   67.8051  223.4847 H   0  0  0  0  0  0  0  0  0  0  0  0
  139.8265   66.6735  225.6143 H   0  0  0  0  0  0  0  0  0  0  0  0
  140.9143   66.9332  227.8071 H   0  0  0  0  0  0  0  0  0  0  0  0
  141.5198   69.1356  228.7271 H   0  0  0  0  0  0  0  0  0  0  0  0
  141.0158   71.1997  227.3813 H   0  0  0  0  0  0  0  0  0  0  0  0
  138.8899   71.6651  225.3175 H   0  0  0  0  0  0  0  0  0  0  0  0
  140.6887   71.9606  225.1428 H   0  0  0  0  0  0  0  0  0  0  0  0
  139.9635   75.6745  219.8320 H   0  0  0  0  0  0  0  0  0  0  0  0
  138.9280   77.1118  219.6625 H   0  0  0  0  0  0  0  0  0  0  0  0
  1  2  1  0
  2  3  2  0
  3  4  1  0
  4  5  2  0
  5  6  1  0
  6  7  1  0
  7  8  1  0
  8  9  1  0
  9 10  1  0
 10 11  1  0
 11 12  1  0
 12 13  1  0
 13 14  2  0
 14 15  1  0
 15 16  1  0
 16 17  1  0
 17 18  1  0
 18 19  1  0
 19 20  1  0
 20 21  2  0
 21 22  1  0
 22 23  2  0
 23 24  1  0
 24 25  2  0
 19 26  1  0
 26 27  1  0
 15 28  2  0
 28 29  1  0
 29 30  1  0
 30 31  1  0
 31 32  1  0
 32 33  1  0
 33 34  2  0
 34 35  1  0
 35 36  2  0
 36 37  1  0
 37 38  2  0
 38 39  1  0
 29 40  2  0
 11 41  1  0
  6 42  2  0
 42  2  1  0
 41  7  1  0
 40 13  1  0
 27 16  1  0
 39 30  1  0
 25 20  1  0
 38 33  1  0
  1 43  1  0
  1 44  1  0
  1 45  1  0
  3 46  1  0
  4 47  1  0
  8 48  1  0
  8 49  1  0
  9 50  1  0
  9 51  1  0
 10 52  1  0
 10 53  1  0
 11 54  1  6
 12 55  1  0
 17 56  1  0
 17 57  1  0
 18 58  1  0
 18 59  1  0
 21 60  1  0
 22 61  1  0
 23 62  1  0
 24 63  1  0
 26 64  1  0
 26 65  1  0
 27 66  1  0
 27 67  1  0
 31 68  1  0
 31 69  1  0
 32 70  1  0
 32 71  1  0
 34 72  1  0
 35 73  1  0
 36 74  1  0
 37 75  1  0
 39 76  1  0
 39 77  1  0
 41 78  1  0
 41 79  1  0
M  END
>  <smiles>  (9) 
Cc1ccnc(N2CCCC(Nc3nc(N4CCN(c5ccccn5)CC4)nc(N4CCc5ccccc5C4)n3)C2)n1

>  <score_type>  (9) 
oracle

>  <origin>  (9) 
autodockgpu

>  <m_score__min__energy>  (9) 
-10.5

>  <m_primary>  (9) 
energy

>  <rmsd>  (9) 
8.131531813988884

>  <m_score__min__rmsd>  (9) 
8.131531813988884

>  <meeko>  (9) 
{"free_energy": -8.4, "intermolecular_energy": -10.19, "internal_energy": -2.17, "cluster_size": 2, "cluster_id": 8, "rank_in_cluster": 2}

>  <energy>  (9) 
-8.89

>  <cluster_rmsd>  (9) 
1.49

>  <cluster>  (9) 
1

$$$$

     RDKit          3D

 79 85  0  0  1  0  0  0  0  0999 V2000
  137.5180   69.3580  224.7950 C   0  0  0  0  0  0  0  0  0  0  0  0
  138.7310   70.1360  224.4620 C   0  0  0  0  0  0  0  0  0  0  0  0
  139.6180   70.4870  225.4800 C   0  0  0  0  0  0  0  0  0  0  0  0
  140.7340   71.2130  225.1170 C   0  0  0  0  0  0  0  0  0  0  0  0
  140.9940   71.5840  223.8520 N   0  0  0  0  0  0  0  0  0  0  0  0
  140.1150   71.2280  222.8910 C   0  0  0  0  0  0  0  0  0  0  0  0
  140.4230   71.6410  221.5660 N   0  0  0  0  0  0  0  0  0  0  0  0
  141.7850   71.5280  221.0850 C   0  0  0  0  0  0  0  0  0  0  0  0
  142.2880   72.9320  220.8770 C   0  0  0  0  0  0  0  0  0  0  0  0
  141.1880   73.9500  220.7820 C   0  0  0  0  0  0  0  0  0  0  0  0
  140.0350   73.3890  219.9740 C   0  0  2  0  0  0  0  0  0  0  0  0
  138.9930   74.3640  219.7780 N   0  0  0  0  0  0  0  0  0  0  0  0
  138.4060   75.1220  220.8270 C   0  0  0  0  0  0  0  0  0  0  0  0
  137.3590   74.6960  221.5530 N   0  0  0  0  0  0  0  0  0  0  0  0
  136.8630   75.4840  222.5350 C   0  0  0  0  0  0  0  0  0  0  0  0
  135.7610   75.0330  223.2940 N   0  0  0  0  0  0  0  0  0  0  0  0
  135.2640   73.6650  223.2140 C   0  0  0  0  0  0  0  0  0  0  0  0
  135.1340   73.0510  224.5910 C   0  0  0  0  0  0  0  0  0  0  0  0
  134.5600   74.0000  225.5380 N   0  0  0  0  0  0  0  0  0  0  0  0
  133.4480   73.6220  226.3360 C   0  0  0  0  0  0  0  0  0  0  0  0
  132.8930   72.3670  226.3430 C   0  0  0  0  0  0  0  0  0  0  0  0
  131.8040   72.0190  227.1310 C   0  0  0  0  0  0  0  0  0  0  0  0
  131.2650   72.9950  227.9380 C   0  0  0  0  0  0  0  0  0  0  0  0
  131.8450   74.2370  227.9060 C   0  0  0  0  0  0  0  0  0  0  0  0
  132.8910   74.5440  227.1400 N   0  0  0  0  0  0  0  0  0  0  0  0
  135.1940   75.3020  225.5980 C   0  0  0  0  0  0  0  0  0  0  0  0
  135.0500   75.9190  224.2030 C   0  0  0  0  0  0  0  0  0  0  0  0
  137.3880   76.6930  222.8120 N   0  0  0  0  0  0  0  0  0  0  0  0
  138.4360   77.1350  222.0960 C   0  0  0  0  0  0  0  0  0  0  0  0
  139.0520   78.4000  222.3310 N   0  0  0  0  0  0  0  0  0  0  0  0
  138.3760   79.3640  223.1670 C   0  0  0  0  0  0  0  0  0  0  0  0
  139.1880   80.5220  223.6060 C   0  0  0  0  0  0  0  0  0  0  0  0
  140.6380   80.4100  223.4060 C   0  0  0  0  0  0  0  0  0  0  0  0
  141.4510   81.2510  224.1790 C   0  0  0  0  0  0  0  0  0  0  0  0
  142.8030   81.1510  223.9930 C   0  0  0  0  0  0  0  0  0  0  0  0
  143.3920   80.2820  223.0990 C   0  0  0  0  0  0  0  0  0  0  0  0
  142.5690   79.4550  222.3400 C   0  0  0  0  0  0  0  0  0  0  0  0
  141.2110   79.5410  222.5120 C   0  0  0  0  0  0  0  0  0  0  0  0
  140.3360   78.6710  221.7150 C   0  0  0  0  0  0  0  0  0  0  0  0
  138.9020   76.3310  221.1330 N   0  0  0  0  0  0  0  0  0  0  0  0
  139.4190   72.1820  220.6530 C   0  0  0  0  0  0  0  0  0  0  0  0
  139.0160   70.5210  223.2030 N   0  0  0  0  0  0  0  0  0  0  0  0
  137.4138   69.2912  225.8880 H   0  0  0  0  0  0  0  0  0  0  0  0
  136.6341   69.8581  224.3723 H   0  0  0  0  0  0  0  0  0  0  0  0
  137.6039   68.3461  224.3723 H   0  0  0  0  0  0  0  0  0  0  0  0
  139.4359   70.1979  226.5256 H   0  0  0  0  0  0  0  0  0  0  0  0
  141.4469   71.5027  225.9031 H   0  0  0  0  0  0  0  0  0  0  0  0
  142.4077   71.0084  221.8282 H   0  0  0  0  0  0  0  0  0  0  0  0
  141.8280   70.9496  220.1503 H   0  0  0  0  0  0  0  0  0  0  0  0
  142.9382   73.1987  221.7232 H   0  0  0  0  0  0  0  0  0  0  0  0
  142.8277   72.9457  219.9186 H   0  0  0  0  0  0  0  0  0  0  0  0
  140.8361   74.2023  221.7932 H   0  0  0  0  0  0  0  0  0  0  0  0
  141.5723   74.8535  220.2860 H   0  0  0  0  0  0  0  0  0  0  0  0
  140.4598   73.1004  219.0013 H   0  0  0  0  0  0  0  0  0  0  0  0
  138.6590   74.5100  218.7970 H   0  0  0  0  0  0  0  0  0  0  0  0
  134.2772   73.6691  222.7279 H   0  0  0  0  0  0  0  0  0  0  0  0
  135.9798   73.0669  222.6310 H   0  0  0  0  0  0  0  0  0  0  0  0
  134.4829   72.1665  224.5298 H   0  0  0  0  0  0  0  0  0  0  0  0
  136.1372   72.7696  224.9437 H   0  0  0  0  0  0  0  0  0  0  0  0
  133.3331   71.5978  225.6914 H   0  0  0  0  0  0  0  0  0  0  0  0
  131.3875   71.0011  227.1110 H   0  0  0  0  0  0  0  0  0  0  0  0
  130.4003   72.7862  228.5851 H   0  0  0  0  0  0  0  0  0  0  0  0
  131.4232   75.0238  228.5486 H   0  0  0  0  0  0  0  0  0  0  0  0
  134.6943   75.9341  226.3468 H   0  0  0  0  0  0  0  0  0  0  0  0
  136.2514   75.2172  225.8889 H   0  0  0  0  0  0  0  0  0  0  0  0
  133.9885   75.9827  223.9216 H   0  0  0  0  0  0  0  0  0  0  0  0
  135.4591   76.9396  224.1711 H   0  0  0  0  0  0  0  0  0  0  0  0
  137.5132   79.7511  222.6051 H   0  0  0  0  0  0  0  0  0  0  0  0
  138.1070   78.8236  224.0865 H   0  0  0  0  0  0  0  0  0  0  0  0
  138.8399   81.4056  223.0510 H   0  0  0  0  0  0  0  0  0  0  0  0
  139.0451   80.5858  224.6948 H   0  0  0  0  0  0  0  0  0  0  0  0
  141.0213   81.9594  224.9025 H   0  0  0  0  0  0  0  0  0  0  0  0
  143.4579   81.8015  224.5913 H   0  0  0  0  0  0  0  0  0  0  0  0
  144.4857   80.2433  222.9883 H   0  0  0  0  0  0  0  0  0  0  0  0
  142.9991   78.7466  221.6167 H   0  0  0  0  0  0  0  0  0  0  0  0
  140.1579   79.1561  220.7440 H   0  0  0  0  0  0  0  0  0  0  0  0
  140.8521   77.7044  221.6182 H   0  0  0  0  0  0  0  0  0  0  0  0
  138.5219   72.4823  221.2143 H   0  0  0  0  0  0  0  0  0  0  0  0
  139.1188   71.4274  219.9111 H   0  0  0  0  0  0  0  0  0  0  0  0
  1  2  1  0
  2  3  2  0
  3  4  1  0
  4  5  2  0
  5  6  1  0
  6  7  1  0
  7  8  1  0
  8  9  1  0
  9 10  1  0
 10 11  1  0
 11 12  1  0
 12 13  1  0
 13 14  2  0
 14 15  1  0
 15 16  1  0
 16 17  1  0
 17 18  1  0
 18 19  1  0
 19 20  1  0
 20 21  2  0
 21 22  1  0
 22 23  2  0
 23 24  1  0
 24 25  2  0
 19 26  1  0
 26 27  1  0
 15 28  2  0
 28 29  1  0
 29 30  1  0
 30 31  1  0
 31 32  1  0
 32 33  1  0
 33 34  2  0
 34 35  1  0
 35 36  2  0
 36 37  1  0
 37 38  2  0
 38 39  1  0
 29 40  2  0
 11 41  1  0
  6 42  2  0
 42  2  1  0
 41  7  1  0
 40 13  1  0
 27 16  1  0
 39 30  1  0
 25 20  1  0
 38 33  1  0
  1 43  1  0
  1 44  1  0
  1 45  1  0
  3 46  1  0
  4 47  1  0
  8 48  1  0
  8 49  1  0
  9 50  1  0
  9 51  1  0
 10 52  1  0
 10 53  1  0
 11 54  1  6
 12 55  1  0
 17 56  1  0
 17 57  1  0
 18 58  1  0
 18 59  1  0
 21 60  1  0
 22 61  1  0
 23 62  1  0
 24 63  1  0
 26 64  1  0
 26 65  1  0
 27 66  1  0
 27 67  1  0
 31 68  1  0
 31 69  1  0
 32 70  1  0
 32 71  1  0
 34 72  1  0
 35 73  1  0
 36 74  1  0
 37 75  1  0
 39 76  1  0
 39 77  1  0
 41 78  1  0
 41 79  1  0
M  END
>  <smiles>  (10) 
Cc1ccnc(N2CCCC(Nc3nc(N4CCN(c5ccccn5)CC4)nc(N4CCc5ccccc5C4)n3)C2)n1

>  <score_type>  (10) 
oracle

>  <origin>  (10) 
autodockgpu

>  <m_score__min__energy>  (10) 
-10.5

>  <m_primary>  (10) 
energy

>  <rmsd>  (10) 
7.953125443762338

>  <m_score__min__rmsd>  (10) 
7.953125443762338

>  <meeko>  (10) 
{"free_energy": -9.2, "intermolecular_energy": -10.99, "internal_energy": -1.89, "cluster_size": 4, "cluster_id": 4, "rank_in_cluster": 2}

>  <energy>  (10) 
-9.95

>  <cluster_rmsd>  (10) 
0.0

>  <cluster>  (10) 
2

$$$$

     RDKit          3D

 79 85  0  0  1  0  0  0  0  0999 V2000
  139.0860   77.2570  218.4510 C   0  0  0  0  0  0  0  0  0  0  0  0
  140.5600   77.2650  218.3360 C   0  0  0  0  0  0  0  0  0  0  0  0
  141.2340   78.4850  218.2770 C   0  0  0  0  0  0  0  0  0  0  0  0
  142.6100   78.4380  218.1700 C   0  0  0  0  0  0  0  0  0  0  0  0
  143.3070   77.2910  218.1210 N   0  0  0  0  0  0  0  0  0  0  0  0
  142.6240   76.1270  218.1800 C   0  0  0  0  0  0  0  0  0  0  0  0
  143.3970   74.9350  218.1240 N   0  0  0  0  0  0  0  0  0  0  0  0
  143.8230   74.4240  216.8370 C   0  0  0  0  0  0  0  0  0  0  0  0
  143.1000   73.1190  216.6300 C   0  0  0  0  0  0  0  0  0  0  0  0
  142.5560   72.5320  217.9010 C   0  0  0  0  0  0  0  0  0  0  0  0
  143.5540   72.7200  219.0250 C   0  0  2  0  0  0  0  0  0  0  0  0
  143.1130   72.0920  220.2440 N   0  0  0  0  0  0  0  0  0  0  0  0
  142.0500   72.5810  221.0510 C   0  0  0  0  0  0  0  0  0  0  0  0
  141.5600   73.8280  220.9540 N   0  0  0  0  0  0  0  0  0  0  0  0
  140.5450   74.2100  221.7640 C   0  0  0  0  0  0  0  0  0  0  0  0
  140.0340   75.5230  221.6600 N   0  0  0  0  0  0  0  0  0  0  0  0
  138.6050   75.8120  221.7120 C   0  0  0  0  0  0  0  0  0  0  0  0
  138.3040   76.8910  222.7280 C   0  0  0  0  0  0  0  0  0  0  0  0
  139.2820   77.9700  222.6550 N   0  0  0  0  0  0  0  0  0  0  0  0
  138.8460   79.3170  222.5470 C   0  0  0  0  0  0  0  0  0  0  0  0
  138.3660   80.0610  223.5960 C   0  0  0  0  0  0  0  0  0  0  0  0
  137.9430   81.3770  223.4660 C   0  0  0  0  0  0  0  0  0  0  0  0
  138.0150   81.9490  222.2170 C   0  0  0  0  0  0  0  0  0  0  0  0
  138.4990   81.1770  221.1930 C   0  0  0  0  0  0  0  0  0  0  0  0
  138.8990   79.9150  221.3440 N   0  0  0  0  0  0  0  0  0  0  0  0
  140.6750   77.5720  222.7050 C   0  0  0  0  0  0  0  0  0  0  0  0
  140.9110   76.6700  221.4890 C   0  0  0  0  0  0  0  0  0  0  0  0
  140.0040   73.3750  222.6710 N   0  0  0  0  0  0  0  0  0  0  0  0
  140.4820   72.1240  222.7820 C   0  0  0  0  0  0  0  0  0  0  0  0
  139.9610   71.1780  223.7130 N   0  0  0  0  0  0  0  0  0  0  0  0
  139.3690   69.9580  223.2140 C   0  0  0  0  0  0  0  0  0  0  0  0
  139.1190   68.9020  224.2220 C   0  0  0  0  0  0  0  0  0  0  0  0
  139.7660   69.0850  225.5270 C   0  0  0  0  0  0  0  0  0  0  0  0
  139.9170   67.9420  226.3250 C   0  0  0  0  0  0  0  0  0  0  0  0
  140.5180   68.1080  227.5430 C   0  0  0  0  0  0  0  0  0  0  0  0
  140.9720   69.3230  228.0140 C   0  0  0  0  0  0  0  0  0  0  0  0
  140.8130   70.4460  227.2090 C   0  0  0  0  0  0  0  0  0  0  0  0
  140.2130   70.2990  225.9840 C   0  0  0  0  0  0  0  0  0  0  0  0
  140.0420   71.4800  225.1290 C   0  0  0  0  0  0  0  0  0  0  0  0
  141.4860   71.7780  221.9660 N   0  0  0  0  0  0  0  0  0  0  0  0
  143.7870   74.1900  219.3190 C   0  0  0  0  0  0  0  0  0  0  0  0
  141.2850   76.1300  218.2860 N   0  0  0  0  0  0  0  0  0  0  0  0
  138.8011   77.2555  219.5135 H   0  0  0  0  0  0  0  0  0  0  0  0
  138.6752   78.1529  217.9626 H   0  0  0  0  0  0  0  0  0  0  0  0
  138.6850   76.3567  217.9626 H   0  0  0  0  0  0  0  0  0  0  0  0
  140.6932   79.4422  218.3141 H   0  0  0  0  0  0  0  0  0  0  0  0
  143.1630   79.3877  218.1225 H   0  0  0  0  0  0  0  0  0  0  0  0
  143.5584   75.1348  216.0402 H   0  0  0  0  0  0  0  0  0  0  0  0
  144.9134   74.2817  216.8085 H   0  0  0  0  0  0  0  0  0  0  0  0
  142.2622   73.2902  215.9381 H   0  0  0  0  0  0  0  0  0  0  0  0
  143.8310   72.4024  216.2274 H   0  0  0  0  0  0  0  0  0  0  0  0
  141.6139   73.0365  218.1617 H   0  0  0  0  0  0  0  0  0  0  0  0
  142.3743   71.4571  217.7544 H   0  0  0  0  0  0  0  0  0  0  0  0
  144.4874   72.2497  218.6821 H   0  0  0  0  0  0  0  0  0  0  0  0
  143.6180   71.2240  220.5390 H   0  0  0  0  0  0  0  0  0  0  0  0
  138.2704   76.1494  220.7199 H   0  0  0  0  0  0  0  0  0  0  0  0
  138.0739   74.8954  222.0083 H   0  0  0  0  0  0  0  0  0  0  0  0
  137.3023   77.3005  222.5308 H   0  0  0  0  0  0  0  0  0  0  0  0
  138.3496   76.4463  223.7331 H   0  0  0  0  0  0  0  0  0  0  0  0
  138.3139   79.5911  224.5892 H   0  0  0  0  0  0  0  0  0  0  0  0
  137.5640   81.9418  224.3305 H   0  0  0  0  0  0  0  0  0  0  0  0
  137.6959   82.9878  222.0463 H   0  0  0  0  0  0  0  0  0  0  0  0
  138.5607   81.6245  220.1900 H   0  0  0  0  0  0  0  0  0  0  0  0
  141.3257   78.4574  222.6539 H   0  0  0  0  0  0  0  0  0  0  0  0
  140.9060   77.0456  223.6429 H   0  0  0  0  0  0  0  0  0  0  0  0
  140.6611   77.2065  220.5618 H   0  0  0  0  0  0  0  0  0  0  0  0
  141.9646   76.3623  221.4159 H   0  0  0  0  0  0  0  0  0  0  0  0
  138.4057   70.2159  222.7498 H   0  0  0  0  0  0  0  0  0  0  0  0
  140.1045   69.5342  222.5144 H   0  0  0  0  0  0  0  0  0  0  0  0
  138.0332   68.8491  224.3903 H   0  0  0  0  0  0  0  0  0  0  0  0
  139.5576   67.9847  223.8022 H   0  0  0  0  0  0  0  0  0  0  0  0
  139.5677   66.9553  225.9868 H   0  0  0  0  0  0  0  0  0  0  0  0
  140.6465   67.2227  228.1830 H   0  0  0  0  0  0  0  0  0  0  0  0
  141.4482   69.4015  229.0025 H   0  0  0  0  0  0  0  0  0  0  0  0
  141.1615   71.4328  227.5479 H   0  0  0  0  0  0  0  0  0  0  0  0
  139.1146   71.9911  225.4270 H   0  0  0  0  0  0  0  0  0  0  0  0
  140.9355   72.1060  225.2696 H   0  0  0  0  0  0  0  0  0  0  0  0
  143.1742   74.5049  220.1765 H   0  0  0  0  0  0  0  0  0  0  0  0
  144.8418   74.3765  219.5694 H   0  0  0  0  0  0  0  0  0  0  0  0
  1  2  1  0
  2  3  2  0
  3  4  1  0
  4  5  2  0
  5  6  1  0
  6  7  1  0
  7  8  1  0
  8  9  1  0
  9 10  1  0
 10 11  1  0
 11 12  1  0
 12 13  1  0
 13 14  2  0
 14 15  1  0
 15 16  1  0
 16 17  1  0
 17 18  1  0
 18 19  1  0
 19 20  1  0
 20 21  2  0
 21 22  1  0
 22 23  2  0
 23 24  1  0
 24 25  2  0
 19 26  1  0
 26 27  1  0
 15 28  2  0
 28 29  1  0
 29 30  1  0
 30 31  1  0
 31 32  1  0
 32 33  1  0
 33 34  2  0
 34 35  1  0
 35 36  2  0
 36 37  1  0
 37 38  2  0
 38 39  1  0
 29 40  2  0
 11 41  1  0
  6 42  2  0
 42  2  1  0
 41  7  1  0
 40 13  1  0
 27 16  1  0
 39 30  1  0
 25 20  1  0
 38 33  1  0
  1 43  1  0
  1 44  1  0
  1 45  1  0
  3 46  1  0
  4 47  1  0
  8 48  1  0
  8 49  1  0
  9 50  1  0
  9 51  1  0
 10 52  1  0
 10 53  1  0
 11 54  1  6
 12 55  1  0
 17 56  1  0
 17 57  1  0
 18 58  1  0
 18 59  1  0
 21 60  1  0
 22 61  1  0
 23 62  1  0
 24 63  1  0
 26 64  1  0
 26 65  1  0
 27 66  1  0
 27 67  1  0
 31 68  1  0
 31 69  1  0
 32 70  1  0
 32 71  1  0
 34 72  1  0
 35 73  1  0
 36 74  1  0
 37 75  1  0
 39 76  1  0
 39 77  1  0
 41 78  1  0
 41 79  1  0
M  END
>  <smiles>  (11) 
Cc1ccnc(N2CCCC(Nc3nc(N4CCN(c5ccccn5)CC4)nc(N4CCc5ccccc5C4)n3)C2)n1

>  <score_type>  (11) 
oracle

>  <origin>  (11) 
autodockgpu

>  <m_score__min__energy>  (11) 
-10.5

>  <m_primary>  (11) 
energy

>  <rmsd>  (11) 
8.37800197617877

>  <m_score__min__rmsd>  (11) 
8.37800197617877

>  <meeko>  (11) 
{"free_energy": -8.35, "intermolecular_energy": -10.14, "internal_energy": -2.44, "cluster_size": 10, "cluster_id": 9, "rank_in_cluster": 10}

>  <energy>  (11) 
-9.87

>  <cluster_rmsd>  (11) 
1.17

>  <cluster>  (11) 
2

$$$$

     RDKit          3D

 79 85  0  0  1  0  0  0  0  0999 V2000
  141.0290   83.1880  221.5130 C   0  0  0  0  0  0  0  0  0  0  0  0
  141.1750   81.8280  222.0750 C   0  0  0  0  0  0  0  0  0  0  0  0
  141.8520   81.6570  223.2830 C   0  0  0  0  0  0  0  0  0  0  0  0
  141.9620   80.3680  223.7640 C   0  0  0  0  0  0  0  0  0  0  0  0
  141.4530   79.2980  223.1300 N   0  0  0  0  0  0  0  0  0  0  0  0
  140.8030   79.4980  221.9630 C   0  0  0  0  0  0  0  0  0  0  0  0
  140.2810   78.3420  221.3220 N   0  0  0  0  0  0  0  0  0  0  0  0
  138.8480   78.1220  221.3120 C   0  0  0  0  0  0  0  0  0  0  0  0
  138.5940   76.8980  222.1520 C   0  0  0  0  0  0  0  0  0  0  0  0
  139.8180   76.0510  222.3560 C   0  0  0  0  0  0  0  0  0  0  0  0
  140.6180   75.9830  221.0720 C   0  0  2  0  0  0  0  0  0  0  0  0
  141.7550   75.1070  221.1940 N   0  0  0  0  0  0  0  0  0  0  0  0
  141.6720   73.6890  221.1620 C   0  0  0  0  0  0  0  0  0  0  0  0
  142.2320   72.9360  220.2000 N   0  0  0  0  0  0  0  0  0  0  0  0
  142.1030   71.5890  220.2470 C   0  0  0  0  0  0  0  0  0  0  0  0
  142.6920   70.8020  219.2330 N   0  0  0  0  0  0  0  0  0  0  0  0
  143.7510   71.3060  218.3670 C   0  0  0  0  0  0  0  0  0  0  0  0
  144.9310   70.3600  218.3420 C   0  0  0  0  0  0  0  0  0  0  0  0
  144.4920   68.9720  218.2540 N   0  0  0  0  0  0  0  0  0  0  0  0
  145.0350   68.1180  217.2590 C   0  0  0  0  0  0  0  0  0  0  0  0
  146.2910   67.5670  217.3150 C   0  0  0  0  0  0  0  0  0  0  0  0
  146.8030   66.7340  216.3290 C   0  0  0  0  0  0  0  0  0  0  0  0
  145.9980   66.4590  215.2470 C   0  0  0  0  0  0  0  0  0  0  0  0
  144.7500   67.0270  215.2240 C   0  0  0  0  0  0  0  0  0  0  0  0
  144.2830   67.8230  216.1840 N   0  0  0  0  0  0  0  0  0  0  0  0
  143.5010   68.5550  219.2260 C   0  0  0  0  0  0  0  0  0  0  0  0
  142.2670   69.4320  218.9910 C   0  0  0  0  0  0  0  0  0  0  0  0
  141.4270   70.9720  221.2350 N   0  0  0  0  0  0  0  0  0  0  0  0
  140.8600   71.7090  222.2050 C   0  0  0  0  0  0  0  0  0  0  0  0
  140.1320   71.1320  223.2880 N   0  0  0  0  0  0  0  0  0  0  0  0
  139.2250   70.0410  223.0180 C   0  0  0  0  0  0  0  0  0  0  0  0
  138.7310   69.3030  224.2030 C   0  0  0  0  0  0  0  0  0  0  0  0
  139.4390   69.5540  225.4650 C   0  0  0  0  0  0  0  0  0  0  0  0
  139.3030   68.5880  226.4700 C   0  0  0  0  0  0  0  0  0  0  0  0
  139.9590   68.8190  227.6480 C   0  0  0  0  0  0  0  0  0  0  0  0
  140.7320   69.9370  227.8890 C   0  0  0  0  0  0  0  0  0  0  0  0
  140.8550   70.8860  226.8790 C   0  0  0  0  0  0  0  0  0  0  0  0
  140.2040   70.6710  225.6910 C   0  0  0  0  0  0  0  0  0  0  0  0
  140.3290   71.6680  224.6200 C   0  0  0  0  0  0  0  0  0  0  0  0
  141.0060   73.0380  222.1290 N   0  0  0  0  0  0  0  0  0  0  0  0
  141.1290   77.3520  220.6650 C   0  0  0  0  0  0  0  0  0  0  0  0
  140.6740   80.7380  221.4620 N   0  0  0  0  0  0  0  0  0  0  0  0
  140.9507   83.9171  222.3329 H   0  0  0  0  0  0  0  0  0  0  0  0
  141.9069   83.4251  220.8940 H   0  0  0  0  0  0  0  0  0  0  0  0
  140.1208   83.2334  220.8940 H   0  0  0  0  0  0  0  0  0  0  0  0
  142.2792   82.5117  223.8279 H   0  0  0  0  0  0  0  0  0  0  0  0
  142.4930   80.2085  224.7141 H   0  0  0  0  0  0  0  0  0  0  0  0
  138.3277   78.9911  221.7408 H   0  0  0  0  0  0  0  0  0  0  0  0
  138.4754   77.9832  220.2864 H   0  0  0  0  0  0  0  0  0  0  0  0
  138.2252   77.2210  223.1367 H   0  0  0  0  0  0  0  0  0  0  0  0
  137.8581   76.2818  221.6146 H   0  0  0  0  0  0  0  0  0  0  0  0
  140.4388   76.4924  223.1495 H   0  0  0  0  0  0  0  0  0  0  0  0
  139.5111   75.0351  222.6456 H   0  0  0  0  0  0  0  0  0  0  0  0
  139.9300   75.5926  220.3077 H   0  0  0  0  0  0  0  0  0  0  0  0
  142.6910   75.5590  221.3130 H   0  0  0  0  0  0  0  0  0  0  0  0
  143.3577   71.4167  217.3457 H   0  0  0  0  0  0  0  0  0  0  0  0
  144.0898   72.2766  218.7583 H   0  0  0  0  0  0  0  0  0  0  0  0
  145.5597   70.5935  217.4701 H   0  0  0  0  0  0  0  0  0  0  0  0
  145.4994   70.4872  219.2751 H   0  0  0  0  0  0  0  0  0  0  0  0
  146.9238   67.7969  218.1848 H   0  0  0  0  0  0  0  0  0  0  0  0
  147.8146   66.3096  216.4097 H   0  0  0  0  0  0  0  0  0  0  0  0
  146.3430   65.8075  214.4306 H   0  0  0  0  0  0  0  0  0  0  0  0
  144.0981   66.8131  214.3642 H   0  0  0  0  0  0  0  0  0  0  0  0
  143.2474   67.4947  219.0795 H   0  0  0  0  0  0  0  0  0  0  0  0
  143.8790   68.6663  220.2530 H   0  0  0  0  0  0  0  0  0  0  0  0
  141.9109   69.3202  217.9563 H   0  0  0  0  0  0  0  0  0  0  0  0
  141.4386   69.1455  219.6556 H   0  0  0  0  0  0  0  0  0  0  0  0
  138.3525   70.4511  222.4884 H   0  0  0  0  0  0  0  0  0  0  0  0
  139.8029   69.3111  222.4321 H   0  0  0  0  0  0  0  0  0  0  0  0
  137.6752   69.5739  224.3509 H   0  0  0  0  0  0  0  0  0  0  0  0
  138.8985   68.2393  223.9781 H   0  0  0  0  0  0  0  0  0  0  0  0
  138.6955   67.6835  226.3188 H   0  0  0  0  0  0  0  0  0  0  0  0
  139.8651   68.0710  228.4491 H   0  0  0  0  0  0  0  0  0  0  0  0
  141.2383   70.0742  228.8559 H   0  0  0  0  0  0  0  0  0  0  0  0
  141.4622   71.7907  227.0302 H   0  0  0  0  0  0  0  0  0  0  0  0
  139.5790   72.4544  224.7905 H   0  0  0  0  0  0  0  0  0  0  0  0
  141.3600   72.0493  224.6597 H   0  0  0  0  0  0  0  0  0  0  0  0
  142.1731   77.4760  220.9883 H   0  0  0  0  0  0  0  0  0  0  0  0
  141.0951   77.4724  219.5721 H   0  0  0  0  0  0  0  0  0  0  0  0
  1  2  1  0
  2  3  2  0
  3  4  1  0
  4  5  2  0
  5  6  1  0
  6  7  1  0
  7  8  1  0
  8  9  1  0
  9 10  1  0
 10 11  1  0
 11 12  1  0
 12 13  1  0
 13 14  2  0
 14 15  1  0
 15 16  1  0
 16 17  1  0
 17 18  1  0
 18 19  1  0
 19 20  1  0
 20 21  2  0
 21 22  1  0
 22 23  2  0
 23 24  1  0
 24 25  2  0
 19 26  1  0
 26 27  1  0
 15 28  2  0
 28 29  1  0
 29 30  1  0
 30 31  1  0
 31 32  1  0
 32 33  1  0
 33 34  2  0
 34 35  1  0
 35 36  2  0
 36 37  1  0
 37 38  2  0
 38 39  1  0
 29 40  2  0
 11 41  1  0
  6 42  2  0
 42  2  1  0
 41  7  1  0
 40 13  1  0
 27 16  1  0
 39 30  1  0
 25 20  1  0
 38 33  1  0
  1 43  1  0
  1 44  1  0
  1 45  1  0
  3 46  1  0
  4 47  1  0
  8 48  1  0
  8 49  1  0
  9 50  1  0
  9 51  1  0
 10 52  1  0
 10 53  1  0
 11 54  1  6
 12 55  1  0
 17 56  1  0
 17 57  1  0
 18 58  1  0
 18 59  1  0
 21 60  1  0
 22 61  1  0
 23 62  1  0
 24 63  1  0
 26 64  1  0
 26 65  1  0
 27 66  1  0
 27 67  1  0
 31 68  1  0
 31 69  1  0
 32 70  1  0
 32 71  1  0
 34 72  1  0
 35 73  1  0
 36 74  1  0
 37 75  1  0
 39 76  1  0
 39 77  1  0
 41 78  1  0
 41 79  1  0
M  END
>  <smiles>  (12) 
Cc1ccnc(N2CCCC(Nc3nc(N4CCN(c5ccccn5)CC4)nc(N4CCc5ccccc5C4)n3)C2)n1

>  <score_type>  (12) 
oracle

>  <origin>  (12) 
autodockgpu

>  <m_score__min__energy>  (12) 
-10.5

>  <m_primary>  (12) 
energy

>  <rmsd>  (12) 
8.75450005994788

>  <m_score__min__rmsd>  (12) 
8.75450005994788

>  <meeko>  (12) 
{"free_energy": -9.29, "intermolecular_energy": -11.08, "internal_energy": -1.44, "cluster_size": 13, "cluster_id": 2, "rank_in_cluster": 9}

>  <energy>  (12) 
-9.85

>  <cluster_rmsd>  (12) 
1.19

>  <cluster>  (12) 
2

$$$$

     RDKit          3D

 79 85  0  0  1  0  0  0  0  0999 V2000
  148.4650   74.6600  216.0470 C   0  0  0  0  0  0  0  0  0  0  0  0
  147.0380   74.3740  216.3140 C   0  0  0  0  0  0  0  0  0  0  0  0
  146.0580   75.1300  215.6700 C   0  0  0  0  0  0  0  0  0  0  0  0
  144.7430   74.8230  215.9540 C   0  0  0  0  0  0  0  0  0  0  0  0
  144.3780   73.8500  216.8050 N   0  0  0  0  0  0  0  0  0  0  0  0
  145.3520   73.1380  217.4120 C   0  0  0  0  0  0  0  0  0  0  0  0
  144.9270   72.1180  218.3070 N   0  0  0  0  0  0  0  0  0  0  0  0
  145.6510   70.8630  218.3490 C   0  0  0  0  0  0  0  0  0  0  0  0
  144.7120   69.8070  217.8270 C   0  0  0  0  0  0  0  0  0  0  0  0
  143.2710   70.2260  217.8530 C   0  0  0  0  0  0  0  0  0  0  0  0
  142.9790   70.9910  219.1280 C   0  0  2  0  0  0  0  0  0  0  0  0
  141.5850   71.3350  219.2400 N   0  0  0  0  0  0  0  0  0  0  0  0
  141.0440   72.1300  220.2870 C   0  0  0  0  0  0  0  0  0  0  0  0
  140.9990   73.4730  220.2500 N   0  0  0  0  0  0  0  0  0  0  0  0
  140.4660   74.1510  221.2930 C   0  0  0  0  0  0  0  0  0  0  0  0
  140.4230   75.5620  221.2510 N   0  0  0  0  0  0  0  0  0  0  0  0
  140.0130   76.3650  222.3970 C   0  0  0  0  0  0  0  0  0  0  0  0
  141.0300   77.4440  222.6970 C   0  0  0  0  0  0  0  0  0  0  0  0
  141.5040   78.0770  221.4720 N   0  0  0  0  0  0  0  0  0  0  0  0
  141.4890   79.4920  221.3530 C   0  0  0  0  0  0  0  0  0  0  0  0
  141.5140   80.3570  222.4170 C   0  0  0  0  0  0  0  0  0  0  0  0
  141.4970   81.7390  222.2770 C   0  0  0  0  0  0  0  0  0  0  0  0
  141.4520   82.2490  221.0000 C   0  0  0  0  0  0  0  0  0  0  0  0
  141.4290   81.3550  219.9600 C   0  0  0  0  0  0  0  0  0  0  0  0
  141.4460   80.0330  220.1230 N   0  0  0  0  0  0  0  0  0  0  0  0
  141.9750   77.1820  220.4340 C   0  0  0  0  0  0  0  0  0  0  0  0
  140.7830   76.2990  220.0500 C   0  0  0  0  0  0  0  0  0  0  0  0
  139.9730   73.5200  222.3760 N   0  0  0  0  0  0  0  0  0  0  0  0
  140.0100   72.1780  222.4290 C   0  0  0  0  0  0  0  0  0  0  0  0
  139.5040   71.4360  223.5380 N   0  0  0  0  0  0  0  0  0  0  0  0
  138.3820   70.5480  223.3320 C   0  0  0  0  0  0  0  0  0  0  0  0
  138.0980   69.6000  224.4330 C   0  0  0  0  0  0  0  0  0  0  0  0
  139.1460   69.4570  225.4530 C   0  0  0  0  0  0  0  0  0  0  0  0
  139.1140   68.2940  226.2340 C   0  0  0  0  0  0  0  0  0  0  0  0
  140.0870   68.1580  227.1860 C   0  0  0  0  0  0  0  0  0  0  0  0
  141.0780   69.0920  227.4100 C   0  0  0  0  0  0  0  0  0  0  0  0
  141.0920   70.2400  226.6240 C   0  0  0  0  0  0  0  0  0  0  0  0
  140.1250   70.3940  225.6650 C   0  0  0  0  0  0  0  0  0  0  0  0
  140.1350   71.6040  224.8320 C   0  0  0  0  0  0  0  0  0  0  0  0
  140.5430   71.5380  221.3820 N   0  0  0  0  0  0  0  0  0  0  0  0
  143.7810   72.2760  219.1980 C   0  0  0  0  0  0  0  0  0  0  0  0
  146.6450   73.4040  217.1620 N   0  0  0  0  0  0  0  0  0  0  0  0
  149.0021   74.7677  217.0009 H   0  0  0  0  0  0  0  0  0  0  0  0
  148.9034   73.8319  215.4708 H   0  0  0  0  0  0  0  0  0  0  0  0
  148.5504   75.5931  215.4708 H   0  0  0  0  0  0  0  0  0  0  0  0
  146.3217   75.9344  214.9676 H   0  0  0  0  0  0  0  0  0  0  0  0
  143.9527   75.4053  215.4577 H   0  0  0  0  0  0  0  0  0  0  0  0
  146.5478   70.9207  217.7146 H   0  0  0  0  0  0  0  0  0  0  0  0
  145.9814   70.6296  219.3719 H   0  0  0  0  0  0  0  0  0  0  0  0
  144.9895   69.5764  216.7879 H   0  0  0  0  0  0  0  0  0  0  0  0
  144.8080   68.9320  218.4866 H   0  0  0  0  0  0  0  0  0  0  0  0
  143.0627   70.8697  216.9857 H   0  0  0  0  0  0  0  0  0  0  0  0
  142.6329   69.3308  217.8137 H   0  0  0  0  0  0  0  0  0  0  0  0
  143.2625   70.3218  219.9538 H   0  0  0  0  0  0  0  0  0  0  0  0
  140.9460   70.9700  218.4970 H   0  0  0  0  0  0  0  0  0  0  0  0
  139.0435   76.8360  222.1774 H   0  0  0  0  0  0  0  0  0  0  0  0
  139.9326   75.7066  223.2745 H   0  0  0  0  0  0  0  0  0  0  0  0
  140.5649   78.2071  223.3384 H   0  0  0  0  0  0  0  0  0  0  0  0
  141.8891   76.9815  223.2050 H   0  0  0  0  0  0  0  0  0  0  0  0
  141.5493   79.9353  223.4323 H   0  0  0  0  0  0  0  0  0  0  0  0
  141.5187   82.4013  223.1550 H   0  0  0  0  0  0  0  0  0  0  0  0
  141.4351   83.3340  220.8197 H   0  0  0  0  0  0  0  0  0  0  0  0
  141.3946   81.7517  218.9346 H   0  0  0  0  0  0  0  0  0  0  0  0
  142.3182   77.7580  219.5620 H   0  0  0  0  0  0  0  0  0  0  0  0
  142.8233   76.5760  220.7849 H   0  0  0  0  0  0  0  0  0  0  0  0
  139.9392   76.9208  219.7165 H   0  0  0  0  0  0  0  0  0  0  0  0
  141.0363   75.6198  219.2227 H   0  0  0  0  0  0  0  0  0  0  0  0
  137.4855   71.1670  223.1804 H   0  0  0  0  0  0  0  0  0  0  0  0
  138.6494   69.9262  222.4649 H   0  0  0  0  0  0  0  0  0  0  0  0
  137.1815   69.9379  224.9387 H   0  0  0  0  0  0  0  0  0  0  0  0
  138.0146   68.6121  223.9564 H   0  0  0  0  0  0  0  0  0  0  0  0
  138.3412   67.5249  226.0881 H   0  0  0  0  0  0  0  0  0  0  0  0
  140.0790   67.2515  227.8091 H   0  0  0  0  0  0  0  0  0  0  0  0
  141.8373   68.9330  228.1899 H   0  0  0  0  0  0  0  0  0  0  0  0
  141.8645   71.0094  226.7695 H   0  0  0  0  0  0  0  0  0  0  0  0
  139.6050   72.4011  225.3740 H   0  0  0  0  0  0  0  0  0  0  0  0
  141.1902   71.8495  224.6413 H   0  0  0  0  0  0  0  0  0  0  0  0
  143.1627   73.1246  218.8701 H   0  0  0  0  0  0  0  0  0  0  0  0
  144.1115   72.4748  220.2282 H   0  0  0  0  0  0  0  0  0  0  0  0
  1  2  1  0
  2  3  2  0
  3  4  1  0
  4  5  2  0
  5  6  1  0
  6  7  1  0
  7  8  1  0
  8  9  1  0
  9 10  1  0
 10 11  1  0
 11 12  1  0
 12 13  1  0
 13 14  2  0
 14 15  1  0
 15 16  1  0
 16 17  1  0
 17 18  1  0
 18 19  1  0
 19 20  1  0
 20 21  2  0
 21 22  1  0
 22 23  2  0
 23 24  1  0
 24 25  2  0
 19 26  1  0
 26 27  1  0
 15 28  2  0
 28 29  1  0
 29 30  1  0
 30 31  1  0
 31 32  1  0
 32 33  1  0
 33 34  2  0
 34 35  1  0
 35 36  2  0
 36 37  1  0
 37 38  2  0
 38 39  1  0
 29 40  2  0
 11 41  1  0
  6 42  2  0
 42  2  1  0
 41  7  1  0
 40 13  1  0
 27 16  1  0
 39 30  1  0
 25 20  1  0
 38 33  1  0
  1 43  1  0
  1 44  1  0
  1 45  1  0
  3 46  1  0
  4 47  1  0
  8 48  1  0
  8 49  1  0
  9 50  1  0
  9 51  1  0
 10 52  1  0
 10 53  1  0
 11 54  1  1
 12 55  1  0
 17 56  1  0
 17 57  1  0
 18 58  1  0
 18 59  1  0
 21 60  1  0
 22 61  1  0
 23 62  1  0
 24 63  1  0
 26 64  1  0
 26 65  1  0
 27 66  1  0
 27 67  1  0
 31 68  1  0
 31 69  1  0
 32 70  1  0
 32 71  1  0
 34 72  1  0
 35 73  1  0
 36 74  1  0
 37 75  1  0
 39 76  1  0
 39 77  1  0
 41 78  1  0
 41 79  1  0
M  END
>  <smiles>  (13) 
Cc1ccnc(N2CCCC(Nc3nc(N4CCN(c5ccccn5)CC4)nc(N4CCc5ccccc5C4)n3)C2)n1

>  <score_type>  (13) 
oracle

>  <origin>  (13) 
autodockgpu

>  <m_score__min__energy>  (13) 
-10.5

>  <m_primary>  (13) 
energy

>  <rmsd>  (13) 
8.676728630149954

>  <m_score__min__rmsd>  (13) 
8.676728630149954

>  <meeko>  (13) 
{"free_energy": -9.07, "intermolecular_energy": -10.86, "internal_energy": -1.48, "cluster_size": 4, "cluster_id": 6, "rank_in_cluster": 1}

>  <energy>  (13) 
-9.84

>  <cluster_rmsd>  (13) 
0.43

>  <cluster>  (13) 
2

$$$$

     RDKit          3D

 79 85  0  0  1  0  0  0  0  0999 V2000
  147.2750   66.6840  215.3320 C   0  0  0  0  0  0  0  0  0  0  0  0
  146.9040   67.9990  215.8970 C   0  0  0  0  0  0  0  0  0  0  0  0
  147.1850   69.1570  215.1720 C   0  0  0  0  0  0  0  0  0  0  0  0
  146.8190   70.3590  215.7440 C   0  0  0  0  0  0  0  0  0  0  0  0
  146.2180   70.4540  216.9420 N   0  0  0  0  0  0  0  0  0  0  0  0
  145.9610   69.3140  217.6180 C   0  0  0  0  0  0  0  0  0  0  0  0
  145.3260   69.4550  218.8810 N   0  0  0  0  0  0  0  0  0  0  0  0
  145.0130   68.2710  219.6560 C   0  0  0  0  0  0  0  0  0  0  0  0
  143.5110   68.1750  219.7100 C   0  0  0  0  0  0  0  0  0  0  0  0
  142.8200   69.4670  219.3830 C   0  0  0  0  0  0  0  0  0  0  0  0
  143.5670   70.6250  220.0120 C   0  0  2  0  0  0  0  0  0  0  0  0
  142.8890   71.8780  219.8010 N   0  0  0  0  0  0  0  0  0  0  0  0
  141.9480   72.4350  220.7080 C   0  0  0  0  0  0  0  0  0  0  0  0
  141.5490   73.7180  220.6670 N   0  0  0  0  0  0  0  0  0  0  0  0
  140.6470   74.1650  221.5710 C   0  0  0  0  0  0  0  0  0  0  0  0
  140.2320   75.5150  221.5260 N   0  0  0  0  0  0  0  0  0  0  0  0
  138.8320   75.9060  221.6380 C   0  0  0  0  0  0  0  0  0  0  0  0
  138.6470   76.9710  222.6960 C   0  0  0  0  0  0  0  0  0  0  0  0
  139.7000   77.9770  222.6210 N   0  0  0  0  0  0  0  0  0  0  0  0
  139.3630   79.3550  222.5700 C   0  0  0  0  0  0  0  0  0  0  0  0
  138.4530   79.9590  223.4000 C   0  0  0  0  0  0  0  0  0  0  0  0
  138.1360   81.3100  223.3300 C   0  0  0  0  0  0  0  0  0  0  0  0
  138.7770   82.0650  222.3750 C   0  0  0  0  0  0  0  0  0  0  0  0
  139.6800   81.4280  221.5630 C   0  0  0  0  0  0  0  0  0  0  0  0
  139.9650   80.1300  221.6510 N   0  0  0  0  0  0  0  0  0  0  0  0
  141.0600   77.4750  222.6090 C   0  0  0  0  0  0  0  0  0  0  0  0
  141.1870   76.5990  221.3580 C   0  0  0  0  0  0  0  0  0  0  0  0
  140.1300   73.3610  222.5200 N   0  0  0  0  0  0  0  0  0  0  0  0
  140.5170   72.0750  222.5750 C   0  0  0  0  0  0  0  0  0  0  0  0
  140.0120   71.1580  223.5450 N   0  0  0  0  0  0  0  0  0  0  0  0
  139.4390   69.9110  223.0960 C   0  0  0  0  0  0  0  0  0  0  0  0
  139.2080   68.8910  224.1450 C   0  0  0  0  0  0  0  0  0  0  0  0
  139.8550   69.1360  225.4410 C   0  0  0  0  0  0  0  0  0  0  0  0
  140.0250   68.0280  226.2820 C   0  0  0  0  0  0  0  0  0  0  0  0
  140.6260   68.2510  227.4910 C   0  0  0  0  0  0  0  0  0  0  0  0
  141.0620   69.4900  227.9130 C   0  0  0  0  0  0  0  0  0  0  0  0
  140.8840   70.5780  227.0640 C   0  0  0  0  0  0  0  0  0  0  0  0
  140.2830   70.3730  225.8480 C   0  0  0  0  0  0  0  0  0  0  0  0
  140.0930   71.5170  224.9470 C   0  0  0  0  0  0  0  0  0  0  0  0
  141.4100   71.6650  221.6670 N   0  0  0  0  0  0  0  0  0  0  0  0
  144.9670   70.7540  219.4450 C   0  0  0  0  0  0  0  0  0  0  0  0
  146.3010   68.1230  217.0950 N   0  0  0  0  0  0  0  0  0  0  0  0
  147.4746   65.9765  216.1503 H   0  0  0  0  0  0  0  0  0  0  0  0
  146.4488   66.3047  214.7127 H   0  0  0  0  0  0  0  0  0  0  0  0
  148.1776   66.7925  214.7127 H   0  0  0  0  0  0  0  0  0  0  0  0
  147.6761   69.1144  214.1887 H   0  0  0  0  0  0  0  0  0  0  0  0
  147.0301   71.2861  215.1909 H   0  0  0  0  0  0  0  0  0  0  0  0
  145.4329   67.3778  219.1703 H   0  0  0  0  0  0  0  0  0  0  0  0
  145.4425   68.3342  220.6667 H   0  0  0  0  0  0  0  0  0  0  0  0
  143.1840   67.4120  218.9883 H   0  0  0  0  0  0  0  0  0  0  0  0
  143.2388   67.9130  220.7431 H   0  0  0  0  0  0  0  0  0  0  0  0
  142.7932   69.6001  218.2914 H   0  0  0  0  0  0  0  0  0  0  0  0
  141.7944   69.4396  219.7796 H   0  0  0  0  0  0  0  0  0  0  0  0
  143.6135   70.4056  221.0889 H   0  0  0  0  0  0  0  0  0  0  0  0
  143.1160   72.3970  218.9210 H   0  0  0  0  0  0  0  0  0  0  0  0
  138.4901   76.2989  220.6691 H   0  0  0  0  0  0  0  0  0  0  0  0
  138.2443   75.0218  221.9258 H   0  0  0  0  0  0  0  0  0  0  0  0
  137.6728   77.4595  222.5470 H   0  0  0  0  0  0  0  0  0  0  0  0
  138.6931   76.4915  223.6849 H   0  0  0  0  0  0  0  0  0  0  0  0
  137.9489   79.3428  224.1591 H   0  0  0  0  0  0  0  0  0  0  0  0
  137.3998   81.7593  224.0128 H   0  0  0  0  0  0  0  0  0  0  0  0
  138.5726   83.1404  222.2668 H   0  0  0  0  0  0  0  0  0  0  0  0
  140.1980   82.0224  220.7960 H   0  0  0  0  0  0  0  0  0  0  0  0
  141.7736   78.3108  222.5622 H   0  0  0  0  0  0  0  0  0  0  0  0
  141.2815   76.9017  223.5213 H   0  0  0  0  0  0  0  0  0  0  0  0
  140.9472   77.1829  220.4571 H   0  0  0  0  0  0  0  0  0  0  0  0
  142.2114   76.2169  221.2373 H   0  0  0  0  0  0  0  0  0  0  0  0
  138.4707   70.1352  222.6247 H   0  0  0  0  0  0  0  0  0  0  0  0
  140.1798   69.4720  222.4116 H   0  0  0  0  0  0  0  0  0  0  0  0
  138.1236   68.8270  224.3180 H   0  0  0  0  0  0  0  0  0  0  0  0
  139.6604   67.9651  223.7603 H   0  0  0  0  0  0  0  0  0  0  0  0
  139.6902   67.0236  225.9835 H   0  0  0  0  0  0  0  0  0  0  0  0
  140.7697   67.3935  228.1648 H   0  0  0  0  0  0  0  0  0  0  0  0
  141.5386   69.6147  228.8965 H   0  0  0  0  0  0  0  0  0  0  0  0
  141.2186   71.5826  227.3620 H   0  0  0  0  0  0  0  0  0  0  0  0
  139.1595   72.0267  225.2277 H   0  0  0  0  0  0  0  0  0  0  0  0
  140.9782   72.1603  225.0595 H   0  0  0  0  0  0  0  0  0  0  0  0
  144.9861   71.5241  218.6598 H   0  0  0  0  0  0  0  0  0  0  0  0
  145.6799   71.0500  220.2287 H   0  0  0  0  0  0  0  0  0  0  0  0
  1  2  1  0
  2  3  2  0
  3  4  1  0
  4  5  2  0
  5  6  1  0
  6  7  1  0
  7  8  1  0
  8  9  1  0
  9 10  1  0
 10 11  1  0
 11 12  1  0
 12 13  1  0
 13 14  2  0
 14 15  1  0
 15 16  1  0
 16 17  1  0
 17 18  1  0
 18 19  1  0
 19 20  1  0
 20 21  2  0
 21 22  1  0
 22 23  2  0
 23 24  1  0
 24 25  2  0
 19 26  1  0
 26 27  1  0
 15 28  2  0
 28 29  1  0
 29 30  1  0
 30 31  1  0
 31 32  1  0
 32 33  1  0
 33 34  2  0
 34 35  1  0
 35 36  2  0
 36 37  1  0
 37 38  2  0
 38 39  1  0
 29 40  2  0
 11 41  1  0
  6 42  2  0
 42  2  1  0
 41  7  1  0
 40 13  1  0
 27 16  1  0
 39 30  1  0
 25 20  1  0
 38 33  1  0
  1 43  1  0
  1 44  1  0
  1 45  1  0
  3 46  1  0
  4 47  1  0
  8 48  1  0
  8 49  1  0
  9 50  1  0
  9 51  1  0
 10 52  1  0
 10 53  1  0
 11 54  1  1
 12 55  1  0
 17 56  1  0
 17 57  1  0
 18 58  1  0
 18 59  1  0
 21 60  1  0
 22 61  1  0
 23 62  1  0
 24 63  1  0
 26 64  1  0
 26 65  1  0
 27 66  1  0
 27 67  1  0
 31 68  1  0
 31 69  1  0
 32 70  1  0
 32 71  1  0
 34 72  1  0
 35 73  1  0
 36 74  1  0
 37 75  1  0
 39 76  1  0
 39 77  1  0
 41 78  1  0
 41 79  1  0
M  END
>  <smiles>  (14) 
Cc1ccnc(N2CCCC(Nc3nc(N4CCN(c5ccccn5)CC4)nc(N4CCc5ccccc5C4)n3)C2)n1

>  <score_type>  (14) 
oracle

>  <origin>  (14) 
autodockgpu

>  <m_score__min__energy>  (14) 
-10.5

>  <m_primary>  (14) 
energy

>  <rmsd>  (14) 
8.345536762282642

>  <m_score__min__rmsd>  (14) 
8.345536762282642

>  <meeko>  (14) 
{"free_energy": -9.11, "intermolecular_energy": -10.9, "internal_energy": -1.46, "cluster_size": 13, "cluster_id": 2, "rank_in_cluster": 11}

>  <energy>  (14) 
-9.82

>  <cluster_rmsd>  (14) 
1.11

>  <cluster>  (14) 
2

$$$$

     RDKit          3D

 79 85  0  0  1  0  0  0  0  0999 V2000
  142.9440   80.7910  224.1520 C   0  0  0  0  0  0  0  0  0  0  0  0
  142.2370   80.7310  222.8540 C   0  0  0  0  0  0  0  0  0  0  0  0
  141.7490   81.9080  222.2870 C   0  0  0  0  0  0  0  0  0  0  0  0
  141.0960   81.7970  221.0750 C   0  0  0  0  0  0  0  0  0  0  0  0
  140.9180   80.6280  220.4380 N   0  0  0  0  0  0  0  0  0  0  0  0
  141.4020   79.5070  221.0150 C   0  0  0  0  0  0  0  0  0  0  0  0
  141.1920   78.2900  220.3110 N   0  0  0  0  0  0  0  0  0  0  0  0
  140.7250   78.3340  218.9400 C   0  0  0  0  0  0  0  0  0  0  0  0
  139.3380   77.7450  218.9370 C   0  0  0  0  0  0  0  0  0  0  0  0
  139.0390   76.9210  220.1560 C   0  0  0  0  0  0  0  0  0  0  0  0
  140.2530   76.0970  220.5320 C   0  0  2  0  0  0  0  0  0  0  0  0
  139.9840   75.2210  221.6430 N   0  0  0  0  0  0  0  0  0  0  0  0
  140.3880   73.8590  221.6980 C   0  0  0  0  0  0  0  0  0  0  0  0
  141.1870   73.2860  220.7810 N   0  0  0  0  0  0  0  0  0  0  0  0
  141.5210   71.9810  220.9110 C   0  0  0  0  0  0  0  0  0  0  0  0
  142.3590   71.3820  219.9440 N   0  0  0  0  0  0  0  0  0  0  0  0
  143.6280   71.9730  219.5350 C   0  0  0  0  0  0  0  0  0  0  0  0
  144.7510   70.9630  219.6180 C   0  0  0  0  0  0  0  0  0  0  0  0
  144.3310   69.6650  219.1030 N   0  0  0  0  0  0  0  0  0  0  0  0
  145.1190   69.0010  218.1260 C   0  0  0  0  0  0  0  0  0  0  0  0
  145.4880   67.6810  218.1990 C   0  0  0  0  0  0  0  0  0  0  0  0
  146.2610   67.0510  217.2330 C   0  0  0  0  0  0  0  0  0  0  0  0
  146.6690   67.8030  216.1550 C   0  0  0  0  0  0  0  0  0  0  0  0
  146.2820   69.1180  216.1150 C   0  0  0  0  0  0  0  0  0  0  0  0
  145.5390   69.6980  217.0570 N   0  0  0  0  0  0  0  0  0  0  0  0
  143.1000   69.1310  219.6500 C   0  0  0  0  0  0  0  0  0  0  0  0
  141.9970   70.1340  219.2930 C   0  0  0  0  0  0  0  0  0  0  0  0
  141.0790   71.2310  221.9380 N   0  0  0  0  0  0  0  0  0  0  0  0
  140.2800   71.7870  222.8640 C   0  0  0  0  0  0  0  0  0  0  0  0
  139.7740   71.0630  223.9830 N   0  0  0  0  0  0  0  0  0  0  0  0
  138.9330   69.9110  223.7490 C   0  0  0  0  0  0  0  0  0  0  0  0
  138.6870   69.0410  224.9220 C   0  0  0  0  0  0  0  0  0  0  0  0
  139.5510   69.2660  226.0880 C   0  0  0  0  0  0  0  0  0  0  0  0
  139.6500   68.2170  227.0130 C   0  0  0  0  0  0  0  0  0  0  0  0
  140.4520   68.4230  228.1030 C   0  0  0  0  0  0  0  0  0  0  0  0
  141.1530   69.5890  228.3300 C   0  0  0  0  0  0  0  0  0  0  0  0
  141.0420   70.6190  227.4000 C   0  0  0  0  0  0  0  0  0  0  0  0
  140.2420   70.4310  226.3020 C   0  0  0  0  0  0  0  0  0  0  0  0
  140.1210   71.5130  225.3160 C   0  0  0  0  0  0  0  0  0  0  0  0
  139.9680   73.0800  222.7060 N   0  0  0  0  0  0  0  0  0  0  0  0
  141.4260   76.9800  220.9110 C   0  0  0  0  0  0  0  0  0  0  0  0
  142.0440   79.5730  222.1930 N   0  0  0  0  0  0  0  0  0  0  0  0
  142.2125   80.7289  224.9712 H   0  0  0  0  0  0  0  0  0  0  0  0
  143.6486   79.9494  224.2250 H   0  0  0  0  0  0  0  0  0  0  0  0
  143.4967   81.7393  224.2250 H   0  0  0  0  0  0  0  0  0  0  0  0
  141.8784   82.8813  222.7829 H   0  0  0  0  0  0  0  0  0  0  0  0
  140.7020   82.7117  220.6081 H   0  0  0  0  0  0  0  0  0  0  0  0
  140.6963   79.3738  218.5823 H   0  0  0  0  0  0  0  0  0  0  0  0
  141.3960   77.7708  218.2747 H   0  0  0  0  0  0  0  0  0  0  0  0
  138.6097   78.5677  218.8846 H   0  0  0  0  0  0  0  0  0  0  0  0
  139.2708   77.0752  218.0670 H   0  0  0  0  0  0  0  0  0  0  0  0
  138.7774   77.5872  220.9914 H   0  0  0  0  0  0  0  0  0  0  0  0
  138.1968   76.2472  219.9399 H   0  0  0  0  0  0  0  0  0  0  0  0
  140.5003   75.5003  219.6416 H   0  0  0  0  0  0  0  0  0  0  0  0
  139.4580   75.6280  222.4510 H   0  0  0  0  0  0  0  0  0  0  0  0
  143.5408   72.3289  218.4978 H   0  0  0  0  0  0  0  0  0  0  0  0
  143.8587   72.8084  220.2124 H   0  0  0  0  0  0  0  0  0  0  0  0
  145.6041   71.3253  219.0255 H   0  0  0  0  0  0  0  0  0  0  0  0
  145.0353   70.8437  220.6739 H   0  0  0  0  0  0  0  0  0  0  0  0
  145.1545   67.0926  219.0665 H   0  0  0  0  0  0  0  0  0  0  0  0
  146.5371   65.9903  217.3258 H   0  0  0  0  0  0  0  0  0  0  0  0
  147.2833   67.3651  215.3544 H   0  0  0  0  0  0  0  0  0  0  0  0
  146.6027   69.7280  215.2576 H   0  0  0  0  0  0  0  0  0  0  0  0
  142.8802   68.1494  219.2049 H   0  0  0  0  0  0  0  0  0  0  0  0
  143.1749   68.9911  220.7385 H   0  0  0  0  0  0  0  0  0  0  0  0
  141.9460   70.2731  218.2030 H   0  0  0  0  0  0  0  0  0  0  0  0
  141.0099   69.7799  219.6249 H   0  0  0  0  0  0  0  0  0  0  0  0
  137.9591   70.2725  223.3873 H   0  0  0  0  0  0  0  0  0  0  0  0
  139.4772   69.2873  223.0246 H   0  0  0  0  0  0  0  0  0  0  0  0
  137.6456   69.1944  225.2412 H   0  0  0  0  0  0  0  0  0  0  0  0
  138.9104   68.0188  224.5827 H   0  0  0  0  0  0  0  0  0  0  0  0
  139.1075   67.2709  226.8692 H   0  0  0  0  0  0  0  0  0  0  0  0
  140.5427   67.6118  228.8404 H   0  0  0  0  0  0  0  0  0  0  0  0
  141.7841   69.7022  229.2238 H   0  0  0  0  0  0  0  0  0  0  0  0
  141.5851   71.5648  227.5430 H   0  0  0  0  0  0  0  0  0  0  0  0
  139.3408   72.2080  225.6599 H   0  0  0  0  0  0  0  0  0  0  0  0
  141.1107   71.9875  225.2429 H   0  0  0  0  0  0  0  0  0  0  0  0
  141.4898   77.0727  222.0052 H   0  0  0  0  0  0  0  0  0  0  0  0
  142.3716   76.5489  220.5506 H   0  0  0  0  0  0  0  0  0  0  0  0
  1  2  1  0
  2  3  2  0
  3  4  1  0
  4  5  2  0
  5  6  1  0
  6  7  1  0
  7  8  1  0
  8  9  1  0
  9 10  1  0
 10 11  1  0
 11 12  1  0
 12 13  1  0
 13 14  2  0
 14 15  1  0
 15 16  1  0
 16 17  1  0
 17 18  1  0
 18 19  1  0
 19 20  1  0
 20 21  2  0
 21 22  1  0
 22 23  2  0
 23 24  1  0
 24 25  2  0
 19 26  1  0
 26 27  1  0
 15 28  2  0
 28 29  1  0
 29 30  1  0
 30 31  1  0
 31 32  1  0
 32 33  1  0
 33 34  2  0
 34 35  1  0
 35 36  2  0
 36 37  1  0
 37 38  2  0
 38 39  1  0
 29 40  2  0
 11 41  1  0
  6 42  2  0
 42  2  1  0
 41  7  1  0
 40 13  1  0
 27 16  1  0
 39 30  1  0
 25 20  1  0
 38 33  1  0
  1 43  1  0
  1 44  1  0
  1 45  1  0
  3 46  1  0
  4 47  1  0
  8 48  1  0
  8 49  1  0
  9 50  1  0
  9 51  1  0
 10 52  1  0
 10 53  1  0
 11 54  1  6
 12 55  1  0
 17 56  1  0
 17 57  1  0
 18 58  1  0
 18 59  1  0
 21 60  1  0
 22 61  1  0
 23 62  1  0
 24 63  1  0
 26 64  1  0
 26 65  1  0
 27 66  1  0
 27 67  1  0
 31 68  1  0
 31 69  1  0
 32 70  1  0
 32 71  1  0
 34 72  1  0
 35 73  1  0
 36 74  1  0
 37 75  1  0
 39 76  1  0
 39 77  1  0
 41 78  1  0
 41 79  1  0
M  END
>  <smiles>  (15) 
Cc1ccnc(N2CCCC(Nc3nc(N4CCN(c5ccccn5)CC4)nc(N4CCc5ccccc5C4)n3)C2)n1

>  <score_type>  (15) 
oracle

>  <origin>  (15) 
autodockgpu

>  <m_score__min__energy>  (15) 
-10.5

>  <m_primary>  (15) 
energy

>  <rmsd>  (15) 
8.091940337061672

>  <m_score__min__rmsd>  (15) 
8.091940337061672

>  <meeko>  (15) 
{"free_energy": -9.49, "intermolecular_energy": -11.28, "internal_energy": -1.36, "cluster_size": 13, "cluster_id": 2, "rank_in_cluster": 7}

>  <energy>  (15) 
-9.53

>  <cluster_rmsd>  (15) 
1.67

>  <cluster>  (15) 
2

$$$$

     RDKit          3D

 79 85  0  0  1  0  0  0  0  0999 V2000
  142.2470   78.4870  215.3700 C   0  0  0  0  0  0  0  0  0  0  0  0
  142.5400   77.7700  216.6310 C   0  0  0  0  0  0  0  0  0  0  0  0
  142.3480   78.4240  217.8480 C   0  0  0  0  0  0  0  0  0  0  0  0
  142.6360   77.7120  218.9950 C   0  0  0  0  0  0  0  0  0  0  0  0
  143.0830   76.4450  218.9840 N   0  0  0  0  0  0  0  0  0  0  0  0
  143.2580   75.8420  217.7890 C   0  0  0  0  0  0  0  0  0  0  0  0
  143.7340   74.5020  217.8180 N   0  0  0  0  0  0  0  0  0  0  0  0
  143.7370   73.7220  216.5970 C   0  0  0  0  0  0  0  0  0  0  0  0
  142.7330   72.6170  216.7880 C   0  0  0  0  0  0  0  0  0  0  0  0
  142.3860   72.3700  218.2280 C   0  0  0  0  0  0  0  0  0  0  0  0
  143.6330   72.4700  219.0830 C   0  0  2  0  0  0  0  0  0  0  0  0
  143.3640   72.1510  220.4620 N   0  0  0  0  0  0  0  0  0  0  0  0
  142.2330   72.6230  221.1820 C   0  0  0  0  0  0  0  0  0  0  0  0
  141.7550   73.8740  221.0720 N   0  0  0  0  0  0  0  0  0  0  0  0
  140.6720   74.2390  221.7970 C   0  0  0  0  0  0  0  0  0  0  0  0
  140.1740   75.5560  221.6810 N   0  0  0  0  0  0  0  0  0  0  0  0
  138.7480   75.8590  221.7210 C   0  0  0  0  0  0  0  0  0  0  0  0
  138.4520   76.9490  222.7280 C   0  0  0  0  0  0  0  0  0  0  0  0
  139.4400   78.0180  222.6530 N   0  0  0  0  0  0  0  0  0  0  0  0
  139.0180   79.3680  222.5330 C   0  0  0  0  0  0  0  0  0  0  0  0
  138.3360   80.0540  223.5060 C   0  0  0  0  0  0  0  0  0  0  0  0
  137.9310   81.3750  223.3660 C   0  0  0  0  0  0  0  0  0  0  0  0
  138.2360   82.0130  222.1850 C   0  0  0  0  0  0  0  0  0  0  0  0
  138.9190   81.2970  221.2350 C   0  0  0  0  0  0  0  0  0  0  0  0
  139.2960   80.0290  221.3950 N   0  0  0  0  0  0  0  0  0  0  0  0
  140.8290   77.6060  222.7150 C   0  0  0  0  0  0  0  0  0  0  0  0
  141.0640   76.6930  221.5070 C   0  0  0  0  0  0  0  0  0  0  0  0
  140.0500   73.3840  222.6300 N   0  0  0  0  0  0  0  0  0  0  0  0
  140.5140   72.1290  222.7510 C   0  0  0  0  0  0  0  0  0  0  0  0
  139.9090   71.1610  223.6080 N   0  0  0  0  0  0  0  0  0  0  0  0
  139.2250   70.0350  223.0170 C   0  0  0  0  0  0  0  0  0  0  0  0
  138.8810   68.9300  223.9420 C   0  0  0  0  0  0  0  0  0  0  0  0
  139.5290   68.9620  225.2590 C   0  0  0  0  0  0  0  0  0  0  0  0
  139.5800   67.7540  225.9690 C   0  0  0  0  0  0  0  0  0  0  0  0
  140.1810   67.7800  227.1980 C   0  0  0  0  0  0  0  0  0  0  0  0
  140.7280   68.9150  227.7610 C   0  0  0  0  0  0  0  0  0  0  0  0
  140.6680   70.1040  227.0410 C   0  0  0  0  0  0  0  0  0  0  0  0
  140.0690   70.0980  225.8070 C   0  0  0  0  0  0  0  0  0  0  0  0
  140.0030   71.3490  225.0420 C   0  0  0  0  0  0  0  0  0  0  0  0
  141.5870   71.7990  222.0220 N   0  0  0  0  0  0  0  0  0  0  0  0
  144.2250   73.8650  219.0370 C   0  0  0  0  0  0  0  0  0  0  0  0
  142.9880   76.5000  216.6490 N   0  0  0  0  0  0  0  0  0  0  0  0
  141.8401   79.4827  215.6004 H   0  0  0  0  0  0  0  0  0  0  0  0
  143.1729   78.5954  214.7862 H   0  0  0  0  0  0  0  0  0  0  0  0
  141.5101   77.9159  214.7862 H   0  0  0  0  0  0  0  0  0  0  0  0
  141.9834   79.4609  217.8918 H   0  0  0  0  0  0  0  0  0  0  0  0
  142.4923   78.2068  219.9669 H   0  0  0  0  0  0  0  0  0  0  0  0
  143.4487   74.3529  215.7433 H   0  0  0  0  0  0  0  0  0  0  0  0
  144.7379   73.3159  216.3890 H   0  0  0  0  0  0  0  0  0  0  0  0
  141.8126   72.8848  216.2484 H   0  0  0  0  0  0  0  0  0  0  0  0
  143.1881   71.6937  216.4002 H   0  0  0  0  0  0  0  0  0  0  0  0
  141.6543   73.1208  218.5609 H   0  0  0  0  0  0  0  0  0  0  0  0
  141.9569   71.3623  218.3296 H   0  0  0  0  0  0  0  0  0  0  0  0
  144.3450   71.7425  218.6661 H   0  0  0  0  0  0  0  0  0  0  0  0
  144.0540   71.5320  220.9480 H   0  0  0  0  0  0  0  0  0  0  0  0
  138.4233   76.1925  220.7243 H   0  0  0  0  0  0  0  0  0  0  0  0
  138.2054   74.9500  222.0196 H   0  0  0  0  0  0  0  0  0  0  0  0
  137.4553   77.3665  222.5224 H   0  0  0  0  0  0  0  0  0  0  0  0
  138.4884   76.5110  223.7364 H   0  0  0  0  0  0  0  0  0  0  0  0
  138.0980   79.5314  224.4442 H   0  0  0  0  0  0  0  0  0  0  0  0
  137.3864   81.8926  224.1695 H   0  0  0  0  0  0  0  0  0  0  0  0
  137.9428   83.0586  222.0095 H   0  0  0  0  0  0  0  0  0  0  0  0
  139.1695   81.7976  220.2881 H   0  0  0  0  0  0  0  0  0  0  0  0
  141.4890   78.4844  222.6621 H   0  0  0  0  0  0  0  0  0  0  0  0
  141.0483   77.0839  223.6580 H   0  0  0  0  0  0  0  0  0  0  0  0
  140.8255   77.2251  220.5743 H   0  0  0  0  0  0  0  0  0  0  0  0
  142.1149   76.3744  221.4428 H   0  0  0  0  0  0  0  0  0  0  0  0
  138.2900   70.4047  222.5708 H   0  0  0  0  0  0  0  0  0  0  0  0
  139.9299   69.6063  222.2895 H   0  0  0  0  0  0  0  0  0  0  0  0
  137.7930   68.9531  224.1026 H   0  0  0  0  0  0  0  0  0  0  0  0
  139.2475   68.0139  223.4557 H   0  0  0  0  0  0  0  0  0  0  0  0
  139.1558   66.8267  225.5564 H   0  0  0  0  0  0  0  0  0  0  0  0
  140.2310   66.8419  227.7703 H   0  0  0  0  0  0  0  0  0  0  0  0
  141.1996   68.8805  228.7542 H   0  0  0  0  0  0  0  0  0  0  0  0
  141.0928   71.0311  227.4534 H   0  0  0  0  0  0  0  0  0  0  0  0
  139.1186   71.9116  225.3754 H   0  0  0  0  0  0  0  0  0  0  0  0
  140.9441   71.8864  225.2306 H   0  0  0  0  0  0  0  0  0  0  0  0
  143.9042   74.4399  219.9182 H   0  0  0  0  0  0  0  0  0  0  0  0
  145.3242   73.8232  219.0405 H   0  0  0  0  0  0  0  0  0  0  0  0
  1  2  1  0
  2  3  2  0
  3  4  1  0
  4  5  2  0
  5  6  1  0
  6  7  1  0
  7  8  1  0
  8  9  1  0
  9 10  1  0
 10 11  1  0
 11 12  1  0
 12 13  1  0
 13 14  2  0
 14 15  1  0
 15 16  1  0
 16 17  1  0
 17 18  1  0
 18 19  1  0
 19 20  1  0
 20 21  2  0
 21 22  1  0
 22 23  2  0
 23 24  1  0
 24 25  2  0
 19 26  1  0
 26 27  1  0
 15 28  2  0
 28 29  1  0
 29 30  1  0
 30 31  1  0
 31 32  1  0
 32 33  1  0
 33 34  2  0
 34 35  1  0
 35 36  2  0
 36 37  1  0
 37 38  2  0
 38 39  1  0
 29 40  2  0
 11 41  1  0
  6 42  2  0
 42  2  1  0
 41  7  1  0
 40 13  1  0
 27 16  1  0
 39 30  1  0
 25 20  1  0
 38 33  1  0
  1 43  1  0
  1 44  1  0
  1 45  1  0
  3 46  1  0
  4 47  1  0
  8 48  1  0
  8 49  1  0
  9 50  1  0
  9 51  1  0
 10 52  1  0
 10 53  1  0
 11 54  1  6
 12 55  1  0
 17 56  1  0
 17 57  1  0
 18 58  1  0
 18 59  1  0
 21 60  1  0
 22 61  1  0
 23 62  1  0
 24 63  1  0
 26 64  1  0
 26 65  1  0
 27 66  1  0
 27 67  1  0
 31 68  1  0
 31 69  1  0
 32 70  1  0
 32 71  1  0
 34 72  1  0
 35 73  1  0
 36 74  1  0
 37 75  1  0
 39 76  1  0
 39 77  1  0
 41 78  1  0
 41 79  1  0
M  END
>  <smiles>  (16) 
Cc1ccnc(N2CCCC(Nc3nc(N4CCN(c5ccccn5)CC4)nc(N4CCc5ccccc5C4)n3)C2)n1

>  <score_type>  (16) 
oracle

>  <origin>  (16) 
autodockgpu

>  <m_score__min__energy>  (16) 
-10.5

>  <m_primary>  (16) 
energy

>  <rmsd>  (16) 
8.393838063537494

>  <m_score__min__rmsd>  (16) 
8.393838063537494

>  <meeko>  (16) 
{"free_energy": -8.73, "intermolecular_energy": -10.52, "internal_energy": -1.99, "cluster_size": 10, "cluster_id": 9, "rank_in_cluster": 1}

>  <energy>  (16) 
-9.49

>  <cluster_rmsd>  (16) 
1.64

>  <cluster>  (16) 
2

$$$$

     RDKit          3D

 79 85  0  0  1  0  0  0  0  0999 V2000
  142.2720   78.4630  215.3400 C   0  0  0  0  0  0  0  0  0  0  0  0
  142.5590   77.7460  216.6010 C   0  0  0  0  0  0  0  0  0  0  0  0
  142.3780   78.4050  217.8180 C   0  0  0  0  0  0  0  0  0  0  0  0
  142.6610   77.6920  218.9660 C   0  0  0  0  0  0  0  0  0  0  0  0
  143.0930   76.4200  218.9570 N   0  0  0  0  0  0  0  0  0  0  0  0
  143.2580   75.8120  217.7630 C   0  0  0  0  0  0  0  0  0  0  0  0
  143.7170   74.4670  217.7940 N   0  0  0  0  0  0  0  0  0  0  0  0
  143.7090   73.6850  216.5740 C   0  0  0  0  0  0  0  0  0  0  0  0
  142.6920   72.5910  216.7700 C   0  0  0  0  0  0  0  0  0  0  0  0
  142.3450   72.3520  218.2110 C   0  0  0  0  0  0  0  0  0  0  0  0
  143.5950   72.4390  219.0640 C   0  0  2  0  0  0  0  0  0  0  0  0
  143.3250   72.1260  220.4440 N   0  0  0  0  0  0  0  0  0  0  0  0
  142.2010   72.6120  221.1640 C   0  0  0  0  0  0  0  0  0  0  0  0
  141.7350   73.8680  221.0510 N   0  0  0  0  0  0  0  0  0  0  0  0
  140.6570   74.2470  221.7760 C   0  0  0  0  0  0  0  0  0  0  0  0
  140.1720   75.5680  221.6560 N   0  0  0  0  0  0  0  0  0  0  0  0
  138.7490   75.8850  221.6940 C   0  0  0  0  0  0  0  0  0  0  0  0
  138.4620   76.9800  222.6970 C   0  0  0  0  0  0  0  0  0  0  0  0
  139.4610   78.0400  222.6200 N   0  0  0  0  0  0  0  0  0  0  0  0
  139.0520   79.3940  222.4950 C   0  0  0  0  0  0  0  0  0  0  0  0
  139.4530   80.2320  221.4850 C   0  0  0  0  0  0  0  0  0  0  0  0
  139.0410   81.5540  221.3830 C   0  0  0  0  0  0  0  0  0  0  0  0
  138.1890   82.0320  222.3520 C   0  0  0  0  0  0  0  0  0  0  0  0
  137.8100   81.1670  223.3460 C   0  0  0  0  0  0  0  0  0  0  0  0
  138.2190   79.9020  223.4200 N   0  0  0  0  0  0  0  0  0  0  0  0
  140.8450   77.6150  222.6840 C   0  0  0  0  0  0  0  0  0  0  0  0
  141.0720   76.6960  221.4790 C   0  0  0  0  0  0  0  0  0  0  0  0
  140.0290   73.4020  222.6150 N   0  0  0  0  0  0  0  0  0  0  0  0
  140.4810   72.1420  222.7410 C   0  0  0  0  0  0  0  0  0  0  0  0
  139.8690   71.1850  223.6030 N   0  0  0  0  0  0  0  0  0  0  0  0
  139.1750   70.0600  223.0190 C   0  0  0  0  0  0  0  0  0  0  0  0
  138.8230   68.9640  223.9500 C   0  0  0  0  0  0  0  0  0  0  0  0
  139.4730   68.9980  225.2670 C   0  0  0  0  0  0  0  0  0  0  0  0
  139.5140   67.7940  225.9840 C   0  0  0  0  0  0  0  0  0  0  0  0
  140.1160   67.8220  227.2120 C   0  0  0  0  0  0  0  0  0  0  0  0
  140.6720   68.9550  227.7680 C   0  0  0  0  0  0  0  0  0  0  0  0
  140.6210   70.1410  227.0420 C   0  0  0  0  0  0  0  0  0  0  0  0
  140.0220   70.1320  225.8080 C   0  0  0  0  0  0  0  0  0  0  0  0
  139.9650   71.3800  225.0360 C   0  0  0  0  0  0  0  0  0  0  0  0
  141.5490   71.7990  222.0100 N   0  0  0  0  0  0  0  0  0  0  0  0
  144.2030   73.8270  219.0140 C   0  0  0  0  0  0  0  0  0  0  0  0
  142.9930   76.4710  216.6220 N   0  0  0  0  0  0  0  0  0  0  0  0
  141.8722   79.4619  215.5690 H   0  0  0  0  0  0  0  0  0  0  0  0
  143.1990   78.5640  214.7565 H   0  0  0  0  0  0  0  0  0  0  0  0
  141.5313   77.8965  214.7565 H   0  0  0  0  0  0  0  0  0  0  0  0
  142.0256   79.4461  217.8606 H   0  0  0  0  0  0  0  0  0  0  0  0
  142.5259   78.1907  219.9371 H   0  0  0  0  0  0  0  0  0  0  0  0
  143.4260   74.3175  215.7197 H   0  0  0  0  0  0  0  0  0  0  0  0
  144.7048   73.2676  216.3641 H   0  0  0  0  0  0  0  0  0  0  0  0
  141.7737   72.8677  216.2313 H   0  0  0  0  0  0  0  0  0  0  0  0
  143.1358   71.6615  216.3839 H   0  0  0  0  0  0  0  0  0  0  0  0
  141.6230   73.1125  218.5433 H   0  0  0  0  0  0  0  0  0  0  0  0
  141.9041   71.3497  218.3159 H   0  0  0  0  0  0  0  0  0  0  0  0
  144.2976   71.7022  218.6475 H   0  0  0  0  0  0  0  0  0  0  0  0
  144.0090   71.5010  220.9300 H   0  0  0  0  0  0  0  0  0  0  0  0
  138.4285   76.2188  220.6961 H   0  0  0  0  0  0  0  0  0  0  0  0
  138.1977   74.9820  221.9951 H   0  0  0  0  0  0  0  0  0  0  0  0
  137.4696   77.4063  222.4889 H   0  0  0  0  0  0  0  0  0  0  0  0
  138.4928   76.5447  223.7067 H   0  0  0  0  0  0  0  0  0  0  0  0
  140.1350   79.8366  220.7178 H   0  0  0  0  0  0  0  0  0  0  0  0
  139.3832   82.1957  220.5577 H   0  0  0  0  0  0  0  0  0  0  0  0
  137.8253   83.0699  222.3300 H   0  0  0  0  0  0  0  0  0  0  0  0
  137.1297   81.5390  224.1263 H   0  0  0  0  0  0  0  0  0  0  0  0
  141.5135   78.4868  222.6288 H   0  0  0  0  0  0  0  0  0  0  0  0
  141.0586   77.0936  223.6288 H   0  0  0  0  0  0  0  0  0  0  0  0
  140.8387   77.2274  220.5445 H   0  0  0  0  0  0  0  0  0  0  0  0
  142.1200   76.3676  221.4163 H   0  0  0  0  0  0  0  0  0  0  0  0
  138.2427   70.4345  222.5712 H   0  0  0  0  0  0  0  0  0  0  0  0
  139.8761   69.6212  222.2938 H   0  0  0  0  0  0  0  0  0  0  0  0
  137.7354   68.9971  224.1115 H   0  0  0  0  0  0  0  0  0  0  0  0
  139.1813   68.0422  223.4685 H   0  0  0  0  0  0  0  0  0  0  0  0
  139.0814   66.8681  225.5772 H   0  0  0  0  0  0  0  0  0  0  0  0
  140.1591   66.8867  227.7894 H   0  0  0  0  0  0  0  0  0  0  0  0
  141.1442   68.9220  228.7610 H   0  0  0  0  0  0  0  0  0  0  0  0
  141.0524   71.0672  227.4495 H   0  0  0  0  0  0  0  0  0  0  0  0
  139.0849   71.9510  225.3667 H   0  0  0  0  0  0  0  0  0  0  0  0
  140.9101   71.9114  225.2214 H   0  0  0  0  0  0  0  0  0  0  0  0
  143.8904   74.4075  219.8945 H   0  0  0  0  0  0  0  0  0  0  0  0
  145.3017   73.7727  219.0158 H   0  0  0  0  0  0  0  0  0  0  0  0
  1  2  1  0
  2  3  2  0
  3  4  1  0
  4  5  2  0
  5  6  1  0
  6  7  1  0
  7  8  1  0
  8  9  1  0
  9 10  1  0
 10 11  1  0
 11 12  1  0
 12 13  1  0
 13 14  2  0
 14 15  1  0
 15 16  1  0
 16 17  1  0
 17 18  1  0
 18 19  1  0
 19 20  1  0
 20 21  2  0
 21 22  1  0
 22 23  2  0
 23 24  1  0
 24 25  2  0
 19 26  1  0
 26 27  1  0
 15 28  2  0
 28 29  1  0
 29 30  1  0
 30 31  1  0
 31 32  1  0
 32 33  1  0
 33 34  2  0
 34 35  1  0
 35 36  2  0
 36 37  1  0
 37 38  2  0
 38 39  1  0
 29 40  2  0
 11 41  1  0
  6 42  2  0
 42  2  1  0
 41  7  1  0
 40 13  1  0
 27 16  1  0
 39 30  1  0
 25 20  1  0
 38 33  1  0
  1 43  1  0
  1 44  1  0
  1 45  1  0
  3 46  1  0
  4 47  1  0
  8 48  1  0
  8 49  1  0
  9 50  1  0
  9 51  1  0
 10 52  1  0
 10 53  1  0
 11 54  1  6
 12 55  1  0
 17 56  1  0
 17 57  1  0
 18 58  1  0
 18 59  1  0
 21 60  1  0
 22 61  1  0
 23 62  1  0
 24 63  1  0
 26 64  1  0
 26 65  1  0
 27 66  1  0
 27 67  1  0
 31 68  1  0
 31 69  1  0
 32 70  1  0
 32 71  1  0
 34 72  1  0
 35 73  1  0
 36 74  1  0
 37 75  1  0
 39 76  1  0
 39 77  1  0
 41 78  1  0
 41 79  1  0
M  END
>  <smiles>  (17) 
Cc1ccnc(N2CCCC(Nc3nc(N4CCN(c5ccccn5)CC4)nc(N4CCc5ccccc5C4)n3)C2)n1

>  <score_type>  (17) 
oracle

>  <origin>  (17) 
autodockgpu

>  <m_score__min__energy>  (17) 
-10.5

>  <m_primary>  (17) 
energy

>  <rmsd>  (17) 
8.410131660957726

>  <m_score__min__rmsd>  (17) 
8.410131660957726

>  <meeko>  (17) 
{"free_energy": -8.73, "intermolecular_energy": -10.52, "internal_energy": -1.99, "cluster_size": 10, "cluster_id": 9, "rank_in_cluster": 2}

>  <energy>  (17) 
-9.46

>  <cluster_rmsd>  (17) 
1.65

>  <cluster>  (17) 
2

$$$$

     RDKit          3D

 79 85  0  0  1  0  0  0  0  0999 V2000
  147.0140   66.1060  215.1850 C   0  0  0  0  0  0  0  0  0  0  0  0
  146.7340   67.4050  215.8340 C   0  0  0  0  0  0  0  0  0  0  0  0
  147.3110   68.5650  215.3180 C   0  0  0  0  0  0  0  0  0  0  0  0
  147.0180   69.7510  215.9610 C   0  0  0  0  0  0  0  0  0  0  0  0
  146.2180   69.8290  217.0370 N   0  0  0  0  0  0  0  0  0  0  0  0
  145.6760   68.6870  217.5120 C   0  0  0  0  0  0  0  0  0  0  0  0
  144.8360   68.8110  218.6520 N   0  0  0  0  0  0  0  0  0  0  0  0
  143.9810   67.7030  219.0280 C   0  0  0  0  0  0  0  0  0  0  0  0
  142.5620   68.1620  218.8190 C   0  0  0  0  0  0  0  0  0  0  0  0
  142.4260   69.6550  218.7390 C   0  0  0  0  0  0  0  0  0  0  0  0
  143.3330   70.3110  219.7600 C   0  0  2  0  0  0  0  0  0  0  0  0
  143.1680   71.7420  219.7840 N   0  0  0  0  0  0  0  0  0  0  0  0
  142.2380   72.4210  220.6160 C   0  0  0  0  0  0  0  0  0  0  0  0
  141.9910   73.7400  220.5290 N   0  0  0  0  0  0  0  0  0  0  0  0
  141.0890   74.3060  221.3630 C   0  0  0  0  0  0  0  0  0  0  0  0
  140.8340   75.6920  221.2690 N   0  0  0  0  0  0  0  0  0  0  0  0
  140.2490   76.4550  222.3660 C   0  0  0  0  0  0  0  0  0  0  0  0
  141.0740   77.6850  222.6740 C   0  0  0  0  0  0  0  0  0  0  0  0
  141.5080   78.3490  221.4510 N   0  0  0  0  0  0  0  0  0  0  0  0
  141.2840   79.7400  221.2800 C   0  0  0  0  0  0  0  0  0  0  0  0
  141.2300   80.6460  222.3100 C   0  0  0  0  0  0  0  0  0  0  0  0
  141.0080   82.0040  222.1210 C   0  0  0  0  0  0  0  0  0  0  0  0
  140.8360   82.4460  220.8290 C   0  0  0  0  0  0  0  0  0  0  0  0
  140.8970   81.5140  219.8250 C   0  0  0  0  0  0  0  0  0  0  0  0
  141.1110   80.2160  220.0350 N   0  0  0  0  0  0  0  0  0  0  0  0
  142.1610   77.5080  220.4680 C   0  0  0  0  0  0  0  0  0  0  0  0
  141.1380   76.4420  220.0610 C   0  0  0  0  0  0  0  0  0  0  0  0
  140.4220   73.5870  222.2860 N   0  0  0  0  0  0  0  0  0  0  0  0
  140.6560   72.2670  222.3880 C   0  0  0  0  0  0  0  0  0  0  0  0
  139.9880   71.4350  223.3340 N   0  0  0  0  0  0  0  0  0  0  0  0
  138.9550   70.5380  222.8710 C   0  0  0  0  0  0  0  0  0  0  0  0
  138.5140   69.5060  223.8380 C   0  0  0  0  0  0  0  0  0  0  0  0
  139.3670   69.3160  225.0180 C   0  0  0  0  0  0  0  0  0  0  0  0
  139.2390   68.1000  225.7020 C   0  0  0  0  0  0  0  0  0  0  0  0
  140.0310   67.9190  226.8030 C   0  0  0  0  0  0  0  0  0  0  0  0
  140.9300   68.8590  227.2630 C   0  0  0  0  0  0  0  0  0  0  0  0
  141.0430   70.0600  226.5710 C   0  0  0  0  0  0  0  0  0  0  0  0
  140.2570   70.2590  225.4650 C   0  0  0  0  0  0  0  0  0  0  0  0
  140.3710   71.5250  224.7290 C   0  0  0  0  0  0  0  0  0  0  0  0
  141.5550   71.7390  221.5480 N   0  0  0  0  0  0  0  0  0  0  0  0
  144.7920   70.0170  219.4740 C   0  0  0  0  0  0  0  0  0  0  0  0
  145.9350   67.5120  216.9140 N   0  0  0  0  0  0  0  0  0  0  0  0
  147.1793   65.3390  215.9560 H   0  0  0  0  0  0  0  0  0  0  0  0
  146.1575   65.8171  214.5581 H   0  0  0  0  0  0  0  0  0  0  0  0
  147.9135   66.1956  214.5581 H   0  0  0  0  0  0  0  0  0  0  0  0
  147.9702   68.5363  214.4379 H   0  0  0  0  0  0  0  0  0  0  0  0
  147.4623   70.6792  215.5724 H   0  0  0  0  0  0  0  0  0  0  0  0
  144.1937   66.8283  218.3957 H   0  0  0  0  0  0  0  0  0  0  0  0
  144.1518   67.4082  220.0739 H   0  0  0  0  0  0  0  0  0  0  0  0
  142.1890   67.7267  217.8802 H   0  0  0  0  0  0  0  0  0  0  0  0
  141.9801   67.8283  219.6908 H   0  0  0  0  0  0  0  0  0  0  0  0
  142.7071   69.9933  217.7308 H   0  0  0  0  0  0  0  0  0  0  0  0
  141.3831   69.9353  218.9481 H   0  0  0  0  0  0  0  0  0  0  0  0
  143.0456   69.8891  220.7344 H   0  0  0  0  0  0  0  0  0  0  0  0
  143.7780   72.3000  219.1420 H   0  0  0  0  0  0  0  0  0  0  0  0
  139.2318   76.7656  222.0853 H   0  0  0  0  0  0  0  0  0  0  0  0
  140.2248   75.8170  223.2617 H   0  0  0  0  0  0  0  0  0  0  0  0
  140.4666   78.3853  223.2662 H   0  0  0  0  0  0  0  0  0  0  0  0
  141.9665   77.3736  223.2366 H   0  0  0  0  0  0  0  0  0  0  0  0
  141.3696   80.2778  223.3371 H   0  0  0  0  0  0  0  0  0  0  0  0
  140.9710   82.7001  222.9720 H   0  0  0  0  0  0  0  0  0  0  0  0
  140.6560   83.5088  220.6096 H   0  0  0  0  0  0  0  0  0  0  0  0
  140.7617   81.8572  218.7887 H   0  0  0  0  0  0  0  0  0  0  0  0
  142.4565   78.1052  219.5928 H   0  0  0  0  0  0  0  0  0  0  0  0
  143.0724   77.0492  220.8788 H   0  0  0  0  0  0  0  0  0  0  0  0
  140.2274   76.9174  219.6676 H   0  0  0  0  0  0  0  0  0  0  0  0
  141.5333   75.7871  219.2705 H   0  0  0  0  0  0  0  0  0  0  0  0
  138.0777   71.1445  222.6016 H   0  0  0  0  0  0  0  0  0  0  0  0
  139.3953   69.9868  222.0270 H   0  0  0  0  0  0  0  0  0  0  0  0
  137.5100   69.7842  224.1910 H   0  0  0  0  0  0  0  0  0  0  0  0
  138.5536   68.5531  223.2898 H   0  0  0  0  0  0  0  0  0  0  0  0
  138.5330   67.3251  225.3687 H   0  0  0  0  0  0  0  0  0  0  0  0
  139.9461   66.9700  227.3526 H   0  0  0  0  0  0  0  0  0  0  0  0
  141.5425   68.6633  228.1555 H   0  0  0  0  0  0  0  0  0  0  0  0
  141.7489   70.8350  226.9042 H   0  0  0  0  0  0  0  0  0  0  0  0
  139.7238   72.2682  225.2177 H   0  0  0  0  0  0  0  0  0  0  0  0
  141.4336   71.8087  224.7486 H   0  0  0  0  0  0  0  0  0  0  0  0
  145.2471   70.8593  218.9322 H   0  0  0  0  0  0  0  0  0  0  0  0
  145.3521   69.8726  220.4097 H   0  0  0  0  0  0  0  0  0  0  0  0
  1  2  1  0
  2  3  2  0
  3  4  1  0
  4  5  2  0
  5  6  1  0
  6  7  1  0
  7  8  1  0
  8  9  1  0
  9 10  1  0
 10 11  1  0
 11 12  1  0
 12 13  1  0
 13 14  2  0
 14 15  1  0
 15 16  1  0
 16 17  1  0
 17 18  1  0
 18 19  1  0
 19 20  1  0
 20 21  2  0
 21 22  1  0
 22 23  2  0
 23 24  1  0
 24 25  2  0
 19 26  1  0
 26 27  1  0
 15 28  2  0
 28 29  1  0
 29 30  1  0
 30 31  1  0
 31 32  1  0
 32 33  1  0
 33 34  2  0
 34 35  1  0
 35 36  2  0
 36 37  1  0
 37 38  2  0
 38 39  1  0
 29 40  2  0
 11 41  1  0
  6 42  2  0
 42  2  1  0
 41  7  1  0
 40 13  1  0
 27 16  1  0
 39 30  1  0
 25 20  1  0
 38 33  1  0
  1 43  1  0
  1 44  1  0
  1 45  1  0
  3 46  1  0
  4 47  1  0
  8 48  1  0
  8 49  1  0
  9 50  1  0
  9 51  1  0
 10 52  1  0
 10 53  1  0
 11 54  1  1
 12 55  1  0
 17 56  1  0
 17 57  1  0
 18 58  1  0
 18 59  1  0
 21 60  1  0
 22 61  1  0
 23 62  1  0
 24 63  1  0
 26 64  1  0
 26 65  1  0
 27 66  1  0
 27 67  1  0
 31 68  1  0
 31 69  1  0
 32 70  1  0
 32 71  1  0
 34 72  1  0
 35 73  1  0
 36 74  1  0
 37 75  1  0
 39 76  1  0
 39 77  1  0
 41 78  1  0
 41 79  1  0
M  END
>  <smiles>  (18) 
Cc1ccnc(N2CCCC(Nc3nc(N4CCN(c5ccccn5)CC4)nc(N4CCc5ccccc5C4)n3)C2)n1

>  <score_type>  (18) 
oracle

>  <origin>  (18) 
autodockgpu

>  <m_score__min__energy>  (18) 
-10.5

>  <m_primary>  (18) 
energy

>  <rmsd>  (18) 
8.817997817464974

>  <m_score__min__rmsd>  (18) 
8.817997817464974

>  <meeko>  (18) 
{"free_energy": -9.09, "intermolecular_energy": -10.88, "internal_energy": -1.44, "cluster_size": 13, "cluster_id": 2, "rank_in_cluster": 12}

>  <energy>  (18) 
-9.29

>  <cluster_rmsd>  (18) 
1.83

>  <cluster>  (18) 
2

$$$$

     RDKit          3D

 79 85  0  0  1  0  0  0  0  0999 V2000
  142.5300   79.9520  218.5960 C   0  0  0  0  0  0  0  0  0  0  0  0
  142.0990   78.5610  218.3380 C   0  0  0  0  0  0  0  0  0  0  0  0
  140.7630   78.3070  218.0270 C   0  0  0  0  0  0  0  0  0  0  0  0
  140.4120   76.9920  217.7950 C   0  0  0  0  0  0  0  0  0  0  0  0
  141.2850   75.9730  217.8560 N   0  0  0  0  0  0  0  0  0  0  0  0
  142.5700   76.2530  218.1600 C   0  0  0  0  0  0  0  0  0  0  0  0
  143.4640   75.1490  218.2170 N   0  0  0  0  0  0  0  0  0  0  0  0
  144.0620   74.6550  216.9930 C   0  0  0  0  0  0  0  0  0  0  0  0
  143.5010   73.2760  216.7650 C   0  0  0  0  0  0  0  0  0  0  0  0
  142.9020   72.6660  217.9990 C   0  0  0  0  0  0  0  0  0  0  0  0
  143.7630   72.9870  219.2040 C   0  0  2  0  0  0  0  0  0  0  0  0
  143.2760   72.3450  220.3970 N   0  0  0  0  0  0  0  0  0  0  0  0
  142.1400   72.7850  221.1290 C   0  0  0  0  0  0  0  0  0  0  0  0
  141.6400   74.0300  221.0440 N   0  0  0  0  0  0  0  0  0  0  0  0
  140.5540   74.3640  221.7780 C   0  0  0  0  0  0  0  0  0  0  0  0
  140.0330   75.6740  221.6870 N   0  0  0  0  0  0  0  0  0  0  0  0
  138.6070   75.9570  221.7950 C   0  0  0  0  0  0  0  0  0  0  0  0
  138.3430   77.0420  222.8160 C   0  0  0  0  0  0  0  0  0  0  0  0
  139.3130   78.1240  222.6970 N   0  0  0  0  0  0  0  0  0  0  0  0
  138.8670   79.4690  222.5980 C   0  0  0  0  0  0  0  0  0  0  0  0
  138.0950   80.0980  223.5420 C   0  0  0  0  0  0  0  0  0  0  0  0
  137.6690   81.4150  223.4240 C   0  0  0  0  0  0  0  0  0  0  0  0
  138.0480   82.1080  222.2970 C   0  0  0  0  0  0  0  0  0  0  0  0
  138.8180   81.4470  221.3750 C   0  0  0  0  0  0  0  0  0  0  0  0
  139.2140   80.1830  221.5130 N   0  0  0  0  0  0  0  0  0  0  0  0
  140.7080   77.7320  222.6930 C   0  0  0  0  0  0  0  0  0  0  0  0
  140.8980   76.8230  221.4740 C   0  0  0  0  0  0  0  0  0  0  0  0
  139.9500   73.4830  222.5980 N   0  0  0  0  0  0  0  0  0  0  0  0
  140.4350   72.2340  222.6960 C   0  0  0  0  0  0  0  0  0  0  0  0
  139.8500   71.2410  223.5370 N   0  0  0  0  0  0  0  0  0  0  0  0
  139.1510   70.1330  222.9290 C   0  0  0  0  0  0  0  0  0  0  0  0
  138.8280   69.0010  223.8280 C   0  0  0  0  0  0  0  0  0  0  0  0
  139.5070   68.9930  225.1300 C   0  0  0  0  0  0  0  0  0  0  0  0
  139.5740   67.7650  225.8020 C   0  0  0  0  0  0  0  0  0  0  0  0
  140.2030   67.7540  227.0170 C   0  0  0  0  0  0  0  0  0  0  0  0
  140.7640   68.8710  227.6000 C   0  0  0  0  0  0  0  0  0  0  0  0
  140.6880   70.0810  226.9180 C   0  0  0  0  0  0  0  0  0  0  0  0
  140.0600   70.1120  225.6990 C   0  0  0  0  0  0  0  0  0  0  0  0
  139.9770   71.3860  224.9730 C   0  0  0  0  0  0  0  0  0  0  0  0
  141.5110   71.9360  221.9570 N   0  0  0  0  0  0  0  0  0  0  0  0
  143.8130   74.4790  219.4670 C   0  0  0  0  0  0  0  0  0  0  0  0
  142.9530   77.5210  218.3920 N   0  0  0  0  0  0  0  0  0  0  0  0
  142.5833   80.1241  219.6811 H   0  0  0  0  0  0  0  0  0  0  0  0
  143.5215   80.1175  218.1494 H   0  0  0  0  0  0  0  0  0  0  0  0
  141.8057   80.6491  218.1494 H   0  0  0  0  0  0  0  0  0  0  0  0
  140.0223   79.1182  217.9692 H   0  0  0  0  0  0  0  0  0  0  0  0
  139.3640   76.7674  217.5476 H   0  0  0  0  0  0  0  0  0  0  0  0
  143.8028   75.3140  216.1512 H   0  0  0  0  0  0  0  0  0  0  0  0
  145.1590   74.6288  217.0703 H   0  0  0  0  0  0  0  0  0  0  0  0
  142.7199   73.3403  215.9931 H   0  0  0  0  0  0  0  0  0  0  0  0
  144.3373   72.6315  216.4566 H   0  0  0  0  0  0  0  0  0  0  0  0
  141.8920   73.0734  218.1536 H   0  0  0  0  0  0  0  0  0  0  0  0
  142.8479   71.5745  217.8734 H   0  0  0  0  0  0  0  0  0  0  0  0
  144.7689   72.6110  218.9656 H   0  0  0  0  0  0  0  0  0  0  0  0
  143.8020   71.5050  220.7320 H   0  0  0  0  0  0  0  0  0  0  0  0
  138.2308   76.2864  220.8152 H   0  0  0  0  0  0  0  0  0  0  0  0
  138.0923   75.0402  222.1183 H   0  0  0  0  0  0  0  0  0  0  0  0
  137.3326   77.4466  222.6568 H   0  0  0  0  0  0  0  0  0  0  0  0
  138.4309   76.6038  223.8211 H   0  0  0  0  0  0  0  0  0  0  0  0
  137.7986   79.5311  224.4369 H   0  0  0  0  0  0  0  0  0  0  0  0
  137.0515   81.8866  224.2027 H   0  0  0  0  0  0  0  0  0  0  0  0
  137.7443   83.1538  222.1416 H   0  0  0  0  0  0  0  0  0  0  0  0
  139.1260   81.9915  220.4702 H   0  0  0  0  0  0  0  0  0  0  0  0
  141.3524   78.6196  222.6099 H   0  0  0  0  0  0  0  0  0  0  0  0
  140.9792   77.2127  223.6240 H   0  0  0  0  0  0  0  0  0  0  0  0
  140.6089   77.3528  220.5543 H   0  0  0  0  0  0  0  0  0  0  0  0
  141.9489   76.5184  221.3606 H   0  0  0  0  0  0  0  0  0  0  0  0
  138.2060   70.5161  222.5164 H   0  0  0  0  0  0  0  0  0  0  0  0
  139.8383   69.7261  222.1726 H   0  0  0  0  0  0  0  0  0  0  0  0
  137.7441   69.0195  224.0148 H   0  0  0  0  0  0  0  0  0  0  0  0
  139.1822   68.1000  223.3057 H   0  0  0  0  0  0  0  0  0  0  0  0
  139.1401   66.8504  225.3716 H   0  0  0  0  0  0  0  0  0  0  0  0
  140.2648   66.7994  227.5601 H   0  0  0  0  0  0  0  0  0  0  0  0
  141.2593   68.8066  228.5801 H   0  0  0  0  0  0  0  0  0  0  0  0
  141.1231   70.9952  227.3480 H   0  0  0  0  0  0  0  0  0  0  0  0
  139.1007   71.9383  225.3433 H   0  0  0  0  0  0  0  0  0  0  0  0
  140.9225   71.9177  225.1559 H   0  0  0  0  0  0  0  0  0  0  0  0
  143.0918   74.7477  220.2529 H   0  0  0  0  0  0  0  0  0  0  0  0
  144.8142   74.7826  219.8069 H   0  0  0  0  0  0  0  0  0  0  0  0
  1  2  1  0
  2  3  2  0
  3  4  1  0
  4  5  2  0
  5  6  1  0
  6  7  1  0
  7  8  1  0
  8  9  1  0
  9 10  1  0
 10 11  1  0
 11 12  1  0
 12 13  1  0
 13 14  2  0
 14 15  1  0
 15 16  1  0
 16 17  1  0
 17 18  1  0
 18 19  1  0
 19 20  1  0
 20 21  2  0
 21 22  1  0
 22 23  2  0
 23 24  1  0
 24 25  2  0
 19 26  1  0
 26 27  1  0
 15 28  2  0
 28 29  1  0
 29 30  1  0
 30 31  1  0
 31 32  1  0
 32 33  1  0
 33 34  2  0
 34 35  1  0
 35 36  2  0
 36 37  1  0
 37 38  2  0
 38 39  1  0
 29 40  2  0
 11 41  1  0
  6 42  2  0
 42  2  1  0
 41  7  1  0
 40 13  1  0
 27 16  1  0
 39 30  1  0
 25 20  1  0
 38 33  1  0
  1 43  1  0
  1 44  1  0
  1 45  1  0
  3 46  1  0
  4 47  1  0
  8 48  1  0
  8 49  1  0
  9 50  1  0
  9 51  1  0
 10 52  1  0
 10 53  1  0
 11 54  1  6
 12 55  1  0
 17 56  1  0
 17 57  1  0
 18 58  1  0
 18 59  1  0
 21 60  1  0
 22 61  1  0
 23 62  1  0
 24 63  1  0
 26 64  1  0
 26 65  1  0
 27 66  1  0
 27 67  1  0
 31 68  1  0
 31 69  1  0
 32 70  1  0
 32 71  1  0
 34 72  1  0
 35 73  1  0
 36 74  1  0
 37 75  1  0
 39 76  1  0
 39 77  1  0
 41 78  1  0
 41 79  1  0
M  END
>  <smiles>  (19) 
Cc1ccnc(N2CCCC(Nc3nc(N4CCN(c5ccccn5)CC4)nc(N4CCc5ccccc5C4)n3)C2)n1

>  <score_type>  (19) 
oracle

>  <origin>  (19) 
autodockgpu

>  <m_score__min__energy>  (19) 
-10.5

>  <m_primary>  (19) 
energy

>  <rmsd>  (19) 
8.45954134671843

>  <m_score__min__rmsd>  (19) 
8.45954134671843

>  <meeko>  (19) 
{"free_energy": -8.55, "intermolecular_energy": -10.34, "internal_energy": -2.21, "cluster_size": 10, "cluster_id": 9, "rank_in_cluster": 8}

>  <energy>  (19) 
-9.16

>  <cluster_rmsd>  (19) 
1.62

>  <cluster>  (19) 
2

$$$$

     RDKit          3D

 79 85  0  0  1  0  0  0  0  0999 V2000
  142.7840   79.9670  218.2370 C   0  0  0  0  0  0  0  0  0  0  0  0
  142.2840   78.5750  218.2250 C   0  0  0  0  0  0  0  0  0  0  0  0
  140.9090   78.3450  218.1770 C   0  0  0  0  0  0  0  0  0  0  0  0
  140.4940   77.0280  218.1680 C   0  0  0  0  0  0  0  0  0  0  0  0
  141.3410   75.9870  218.2020 N   0  0  0  0  0  0  0  0  0  0  0  0
  142.6660   76.2450  218.2490 C   0  0  0  0  0  0  0  0  0  0  0  0
  143.5310   75.1170  218.2860 N   0  0  0  0  0  0  0  0  0  0  0  0
  144.1190   74.6320  217.0540 C   0  0  0  0  0  0  0  0  0  0  0  0
  143.5240   73.2720  216.7980 C   0  0  0  0  0  0  0  0  0  0  0  0
  142.9050   72.6540  218.0190 C   0  0  0  0  0  0  0  0  0  0  0  0
  143.7720   72.9290  219.2320 C   0  0  2  0  0  0  0  0  0  0  0  0
  143.2650   72.2770  220.4120 N   0  0  0  0  0  0  0  0  0  0  0  0
  142.1350   72.7280  221.1460 C   0  0  0  0  0  0  0  0  0  0  0  0
  141.6410   73.9750  221.0530 N   0  0  0  0  0  0  0  0  0  0  0  0
  140.5600   74.3190  221.7900 C   0  0  0  0  0  0  0  0  0  0  0  0
  140.0450   75.6310  221.6920 N   0  0  0  0  0  0  0  0  0  0  0  0
  138.6180   75.9190  221.7720 C   0  0  0  0  0  0  0  0  0  0  0  0
  138.3370   77.0020  222.7900 C   0  0  0  0  0  0  0  0  0  0  0  0
  139.3120   78.0820  222.6930 N   0  0  0  0  0  0  0  0  0  0  0  0
  138.8730   79.4280  222.5880 C   0  0  0  0  0  0  0  0  0  0  0  0
  139.1150   80.2380  221.5070 C   0  0  0  0  0  0  0  0  0  0  0  0
  138.6770   81.5540  221.4270 C   0  0  0  0  0  0  0  0  0  0  0  0
  137.9660   82.0540  222.4940 C   0  0  0  0  0  0  0  0  0  0  0  0
  137.7430   81.2160  223.5560 C   0  0  0  0  0  0  0  0  0  0  0  0
  138.1740   79.9570  223.6080 N   0  0  0  0  0  0  0  0  0  0  0  0
  140.7060   77.6850  222.7150 C   0  0  0  0  0  0  0  0  0  0  0  0
  140.9170   76.7780  221.4980 C   0  0  0  0  0  0  0  0  0  0  0  0
  139.9550   73.4480  222.6200 N   0  0  0  0  0  0  0  0  0  0  0  0
  140.4350   72.1970  222.7250 C   0  0  0  0  0  0  0  0  0  0  0  0
  139.8490   71.2140  223.5760 N   0  0  0  0  0  0  0  0  0  0  0  0
  139.1670   70.0890  222.9790 C   0  0  0  0  0  0  0  0  0  0  0  0
  138.8440   68.9700  223.8940 C   0  0  0  0  0  0  0  0  0  0  0  0
  139.5090   68.9900  225.2040 C   0  0  0  0  0  0  0  0  0  0  0  0
  139.5780   67.7740  225.8970 C   0  0  0  0  0  0  0  0  0  0  0  0
  140.1940   67.7890  227.1180 C   0  0  0  0  0  0  0  0  0  0  0  0
  140.7390   68.9210  227.6890 C   0  0  0  0  0  0  0  0  0  0  0  0
  140.6600   70.1190  226.9860 C   0  0  0  0  0  0  0  0  0  0  0  0
  140.0450   70.1230  225.7590 C   0  0  0  0  0  0  0  0  0  0  0  0
  139.9590   71.3840  225.0110 C   0  0  0  0  0  0  0  0  0  0  0  0
  141.5060   71.8880  221.9830 N   0  0  0  0  0  0  0  0  0  0  0  0
  143.8590   74.4140  219.5240 C   0  0  0  0  0  0  0  0  0  0  0  0
  143.1110   77.5130  218.2580 N   0  0  0  0  0  0  0  0  0  0  0  0
  142.9051   80.3042  219.2770 H   0  0  0  0  0  0  0  0  0  0  0  0
  143.7546   80.0124  217.7214 H   0  0  0  0  0  0  0  0  0  0  0  0
  142.0641   80.6196  217.7214 H   0  0  0  0  0  0  0  0  0  0  0  0
  140.1879   79.1752  218.1476 H   0  0  0  0  0  0  0  0  0  0  0  0
  139.4142   76.8213  218.1311 H   0  0  0  0  0  0  0  0  0  0  0  0
  143.8784   75.3135  216.2248 H   0  0  0  0  0  0  0  0  0  0  0  0
  145.2148   74.5766  217.1329 H   0  0  0  0  0  0  0  0  0  0  0  0
  142.7476   73.3706  216.0250 H   0  0  0  0  0  0  0  0  0  0  0  0
  144.3448   72.6123  216.4799 H   0  0  0  0  0  0  0  0  0  0  0  0
  141.9058   73.0852  218.1794 H   0  0  0  0  0  0  0  0  0  0  0  0
  142.8215   71.5670  217.8722 H   0  0  0  0  0  0  0  0  0  0  0  0
  144.7684   72.5317  218.9884 H   0  0  0  0  0  0  0  0  0  0  0  0
  143.7720   71.4200  220.7350 H   0  0  0  0  0  0  0  0  0  0  0  0
  138.2630   76.2523  220.7857 H   0  0  0  0  0  0  0  0  0  0  0  0
  138.0937   75.0032  222.0826 H   0  0  0  0  0  0  0  0  0  0  0  0
  137.3310   77.4096  222.6119 H   0  0  0  0  0  0  0  0  0  0  0  0
  138.4042   76.5611  223.7955 H   0  0  0  0  0  0  0  0  0  0  0  0
  139.6843   79.8246  220.6615 H   0  0  0  0  0  0  0  0  0  0  0  0
  138.8906   82.1735  220.5435 H   0  0  0  0  0  0  0  0  0  0  0  0
  137.5905   83.0879  222.4948 H   0  0  0  0  0  0  0  0  0  0  0  0
  137.1757   81.6058  224.4140 H   0  0  0  0  0  0  0  0  0  0  0  0
  141.3549   78.5706  222.6465 H   0  0  0  0  0  0  0  0  0  0  0  0
  140.9570   77.1626  223.6499 H   0  0  0  0  0  0  0  0  0  0  0  0
  140.6471   77.3104  220.5741 H   0  0  0  0  0  0  0  0  0  0  0  0
  141.9691   76.4708  221.4042 H   0  0  0  0  0  0  0  0  0  0  0  0
  138.2235   70.4561  222.5489 H   0  0  0  0  0  0  0  0  0  0  0  0
  139.8665   69.6755  222.2375 H   0  0  0  0  0  0  0  0  0  0  0  0
  137.7580   68.9823  224.0688 H   0  0  0  0  0  0  0  0  0  0  0  0
  139.2118   68.0634  223.3912 H   0  0  0  0  0  0  0  0  0  0  0  0
  139.1557   66.8489  225.4778 H   0  0  0  0  0  0  0  0  0  0  0  0
  140.2588   66.8440  227.6773 H   0  0  0  0  0  0  0  0  0  0  0  0
  141.2238   68.8772  228.6754 H   0  0  0  0  0  0  0  0  0  0  0  0
  141.0820   71.0444  227.4051 H   0  0  0  0  0  0  0  0  0  0  0  0
  139.0740   71.9346  225.3626 H   0  0  0  0  0  0  0  0  0  0  0  0
  140.8978   71.9269  225.1952 H   0  0  0  0  0  0  0  0  0  0  0  0
  143.1423   74.6857  220.3130 H   0  0  0  0  0  0  0  0  0  0  0  0
  144.8665   74.6854  219.8723 H   0  0  0  0  0  0  0  0  0  0  0  0
  1  2  1  0
  2  3  2  0
  3  4  1  0
  4  5  2  0
  5  6  1  0
  6  7  1  0
  7  8  1  0
  8  9  1  0
  9 10  1  0
 10 11  1  0
 11 12  1  0
 12 13  1  0
 13 14  2  0
 14 15  1  0
 15 16  1  0
 16 17  1  0
 17 18  1  0
 18 19  1  0
 19 20  1  0
 20 21  2  0
 21 22  1  0
 22 23  2  0
 23 24  1  0
 24 25  2  0
 19 26  1  0
 26 27  1  0
 15 28  2  0
 28 29  1  0
 29 30  1  0
 30 31  1  0
 31 32  1  0
 32 33  1  0
 33 34  2  0
 34 35  1  0
 35 36  2  0
 36 37  1  0
 37 38  2  0
 38 39  1  0
 29 40  2  0
 11 41  1  0
  6 42  2  0
 42  2  1  0
 41  7  1  0
 40 13  1  0
 27 16  1  0
 39 30  1  0
 25 20  1  0
 38 33  1  0
  1 43  1  0
  1 44  1  0
  1 45  1  0
  3 46  1  0
  4 47  1  0
  8 48  1  0
  8 49  1  0
  9 50  1  0
  9 51  1  0
 10 52  1  0
 10 53  1  0
 11 54  1  6
 12 55  1  0
 17 56  1  0
 17 57  1  0
 18 58  1  0
 18 59  1  0
 21 60  1  0
 22 61  1  0
 23 62  1  0
 24 63  1  0
 26 64  1  0
 26 65  1  0
 27 66  1  0
 27 67  1  0
 31 68  1  0
 31 69  1  0
 32 70  1  0
 32 71  1  0
 34 72  1  0
 35 73  1  0
 36 74  1  0
 37 75  1  0
 39 76  1  0
 39 77  1  0
 41 78  1  0
 41 79  1  0
M  END
>  <smiles>  (20) 
Cc1ccnc(N2CCCC(Nc3nc(N4CCN(c5ccccn5)CC4)nc(N4CCc5ccccc5C4)n3)C2)n1

>  <score_type>  (20) 
oracle

>  <origin>  (20) 
autodockgpu

>  <m_score__min__energy>  (20) 
-10.5

>  <m_primary>  (20) 
energy

>  <rmsd>  (20) 
8.433532875637672

>  <m_score__min__rmsd>  (20) 
8.433532875637672

>  <meeko>  (20) 
{"free_energy": -8.61, "intermolecular_energy": -10.4, "internal_energy": -2.21, "cluster_size": 10, "cluster_id": 9, "rank_in_cluster": 7}

>  <energy>  (20) 
-9.11

>  <cluster_rmsd>  (20) 
1.77

>  <cluster>  (20) 
2

$$$$

     RDKit          3D

 79 85  0  0  1  0  0  0  0  0999 V2000
  141.1490   71.2610  226.1440 C   0  0  0  0  0  0  0  0  0  0  0  0
  140.0800   70.3990  225.5940 C   0  0  0  0  0  0  0  0  0  0  0  0
  140.1510   69.0190  225.7830 C   0  0  0  0  0  0  0  0  0  0  0  0
  139.1280   68.2600  225.2500 C   0  0  0  0  0  0  0  0  0  0  0  0
  138.0940   68.7860  224.5730 N   0  0  0  0  0  0  0  0  0  0  0  0
  138.0570   70.1250  224.4080 C   0  0  0  0  0  0  0  0  0  0  0  0
  136.9480   70.6440  223.6850 N   0  0  0  0  0  0  0  0  0  0  0  0
  136.1570   69.7530  222.8610 C   0  0  0  0  0  0  0  0  0  0  0  0
  136.3760   70.1780  221.4320 C   0  0  0  0  0  0  0  0  0  0  0  0
  136.9240   71.5700  221.3030 C   0  0  0  0  0  0  0  0  0  0  0  0
  136.2580   72.4820  222.3120 C   0  0  2  0  0  0  0  0  0  0  0  0
  136.6860   73.8490  222.1640 N   0  0  0  0  0  0  0  0  0  0  0  0
  138.0440   74.2460  222.0260 C   0  0  0  0  0  0  0  0  0  0  0  0
  139.0460   73.3850  221.7800 N   0  0  0  0  0  0  0  0  0  0  0  0
  140.3110   73.8500  221.6630 C   0  0  0  0  0  0  0  0  0  0  0  0
  141.3620   72.9420  221.4070 N   0  0  0  0  0  0  0  0  0  0  0  0
  141.2330   71.5100  221.6490 C   0  0  0  0  0  0  0  0  0  0  0  0
  141.6410   70.7120  220.4300 C   0  0  0  0  0  0  0  0  0  0  0  0
  142.8470   71.2610  219.8210 N   0  0  0  0  0  0  0  0  0  0  0  0
  143.9480   70.4120  219.5360 C   0  0  0  0  0  0  0  0  0  0  0  0
  145.1870   70.8560  219.1470 C   0  0  0  0  0  0  0  0  0  0  0  0
  146.2500   70.0060  218.8700 C   0  0  0  0  0  0  0  0  0  0  0  0
  146.0330   68.6540  218.9970 C   0  0  0  0  0  0  0  0  0  0  0  0
  144.7830   68.2450  219.3870 C   0  0  0  0  0  0  0  0  0  0  0  0
  143.7800   69.0820  219.6470 N   0  0  0  0  0  0  0  0  0  0  0  0
  142.8270   72.6830  219.5400 C   0  0  0  0  0  0  0  0  0  0  0  0
  142.6450   73.3890  220.8880 C   0  0  0  0  0  0  0  0  0  0  0  0
  140.6030   75.1590  221.7850 N   0  0  0  0  0  0  0  0  0  0  0  0
  139.6140   76.0350  222.0310 C   0  0  0  0  0  0  0  0  0  0  0  0
  139.8400   77.4360  222.1680 N   0  0  0  0  0  0  0  0  0  0  0  0
  138.7780   78.2680  222.6860 C   0  0  0  0  0  0  0  0  0  0  0  0
  139.1660   79.6430  223.0770 C   0  0  0  0  0  0  0  0  0  0  0  0
  140.6080   79.9040  223.1840 C   0  0  0  0  0  0  0  0  0  0  0  0
  140.9950   81.0110  223.9510 C   0  0  0  0  0  0  0  0  0  0  0  0
  142.3370   81.2590  224.0520 C   0  0  0  0  0  0  0  0  0  0  0  0
  143.3070   80.4870  223.4470 C   0  0  0  0  0  0  0  0  0  0  0  0
  142.9030   79.3920  222.6890 C   0  0  0  0  0  0  0  0  0  0  0  0
  141.5620   79.1280  222.5770 C   0  0  0  0  0  0  0  0  0  0  0  0
  141.1280   77.9730  221.7790 C   0  0  0  0  0  0  0  0  0  0  0  0
  138.3740   75.5420  222.1410 N   0  0  0  0  0  0  0  0  0  0  0  0
  136.5620   72.0520  223.7340 C   0  0  0  0  0  0  0  0  0  0  0  0
  139.0320   70.9000  224.9120 N   0  0  0  0  0  0  0  0  0  0  0  0
  141.1138   71.2326  227.2431 H   0  0  0  0  0  0  0  0  0  0  0  0
  142.1278   70.8965  225.7990 H   0  0  0  0  0  0  0  0  0  0  0  0
  141.0003   72.2948  225.7990 H   0  0  0  0  0  0  0  0  0  0  0  0
  140.9843   68.5561  226.3319 H   0  0  0  0  0  0  0  0  0  0  0  0
  139.1616   67.1691  225.3868 H   0  0  0  0  0  0  0  0  0  0  0  0
  136.4866   68.7131  223.0022 H   0  0  0  0  0  0  0  0  0  0  0  0
  135.0919   69.8049  223.1309 H   0  0  0  0  0  0  0  0  0  0  0  0
  137.0853   69.4790  220.9648 H   0  0  0  0  0  0  0  0  0  0  0  0
  135.3947   70.1672  220.9351 H   0  0  0  0  0  0  0  0  0  0  0  0
  138.0085   71.5535  221.4864 H   0  0  0  0  0  0  0  0  0  0  0  0
  136.7240   71.9452  220.2885 H   0  0  0  0  0  0  0  0  0  0  0  0
  135.1778   72.4089  222.1176 H   0  0  0  0  0  0  0  0  0  0  0  0
  135.9390   74.5820  222.1600 H   0  0  0  0  0  0  0  0  0  0  0  0
  141.8781   71.2291  222.4946 H   0  0  0  0  0  0  0  0  0  0  0  0
  140.1797   71.2877  221.8753 H   0  0  0  0  0  0  0  0  0  0  0  0
  141.8322   69.6711  220.7298 H   0  0  0  0  0  0  0  0  0  0  0  0
  140.8256   70.7593  219.6932 H   0  0  0  0  0  0  0  0  0  0  0  0
  145.3463   71.9400  219.0497 H   0  0  0  0  0  0  0  0  0  0  0  0
  147.2293   70.3998  218.5604 H   0  0  0  0  0  0  0  0  0  0  0  0
  146.8328   67.9268  218.7932 H   0  0  0  0  0  0  0  0  0  0  0  0
  144.5987   67.1655  219.4908 H   0  0  0  0  0  0  0  0  0  0  0  0
  143.7743   72.9918  219.0738 H   0  0  0  0  0  0  0  0  0  0  0  0
  142.0157   72.9399  218.8430 H   0  0  0  0  0  0  0  0  0  0  0  0
  143.4546   73.1090  221.5781 H   0  0  0  0  0  0  0  0  0  0  0  0
  142.6744   74.4829  220.7761 H   0  0  0  0  0  0  0  0  0  0  0  0
  138.0012   78.3445  221.9110 H   0  0  0  0  0  0  0  0  0  0  0  0
  138.4412   77.7789  223.6120 H   0  0  0  0  0  0  0  0  0  0  0  0
  138.7545   80.3341  222.3266 H   0  0  0  0  0  0  0  0  0  0  0  0
  138.7648   79.7851  224.0913 H   0  0  0  0  0  0  0  0  0  0  0  0
  140.2531   81.6521  224.4497 H   0  0  0  0  0  0  0  0  0  0  0  0
  142.6609   82.1236  224.6500 H   0  0  0  0  0  0  0  0  0  0  0  0
  144.3736   80.7309  223.5609 H   0  0  0  0  0  0  0  0  0  0  0  0
  143.6445   78.7511  222.1897 H   0  0  0  0  0  0  0  0  0  0  0  0
  141.0689   78.2836  220.7254 H   0  0  0  0  0  0  0  0  0  0  0  0
  141.8676   77.1760  221.9460 H   0  0  0  0  0  0  0  0  0  0  0  0
  137.3864   72.6550  224.1422 H   0  0  0  0  0  0  0  0  0  0  0  0
  135.6844   72.1945  224.3817 H   0  0  0  0  0  0  0  0  0  0  0  0
  1  2  1  0
  2  3  2  0
  3  4  1  0
  4  5  2  0
  5  6  1  0
  6  7  1  0
  7  8  1  0
  8  9  1  0
  9 10  1  0
 10 11  1  0
 11 12  1  0
 12 13  1  0
 13 14  2  0
 14 15  1  0
 15 16  1  0
 16 17  1  0
 17 18  1  0
 18 19  1  0
 19 20  1  0
 20 21  2  0
 21 22  1  0
 22 23  2  0
 23 24  1  0
 24 25  2  0
 19 26  1  0
 26 27  1  0
 15 28  2  0
 28 29  1  0
 29 30  1  0
 30 31  1  0
 31 32  1  0
 32 33  1  0
 33 34  2  0
 34 35  1  0
 35 36  2  0
 36 37  1  0
 37 38  2  0
 38 39  1  0
 29 40  2  0
 11 41  1  0
  6 42  2  0
 42  2  1  0
 41  7  1  0
 40 13  1  0
 27 16  1  0
 39 30  1  0
 25 20  1  0
 38 33  1  0
  1 43  1  0
  1 44  1  0
  1 45  1  0
  3 46  1  0
  4 47  1  0
  8 48  1  0
  8 49  1  0
  9 50  1  0
  9 51  1  0
 10 52  1  0
 10 53  1  0
 11 54  1  6
 12 55  1  0
 17 56  1  0
 17 57  1  0
 18 58  1  0
 18 59  1  0
 21 60  1  0
 22 61  1  0
 23 62  1  0
 24 63  1  0
 26 64  1  0
 26 65  1  0
 27 66  1  0
 27 67  1  0
 31 68  1  0
 31 69  1  0
 32 70  1  0
 32 71  1  0
 34 72  1  0
 35 73  1  0
 36 74  1  0
 37 75  1  0
 39 76  1  0
 39 77  1  0
 41 78  1  0
 41 79  1  0
M  END
>  <smiles>  (21) 
Cc1ccnc(N2CCCC(Nc3nc(N4CCN(c5ccccn5)CC4)nc(N4CCc5ccccc5C4)n3)C2)n1

>  <score_type>  (21) 
oracle

>  <origin>  (21) 
autodockgpu

>  <m_score__min__energy>  (21) 
-10.5

>  <m_primary>  (21) 
energy

>  <rmsd>  (21) 
6.701384138776104

>  <m_score__min__rmsd>  (21) 
6.701384138776104

>  <meeko>  (21) 
{"free_energy": -9.09, "intermolecular_energy": -10.88, "internal_energy": -1.93, "cluster_size": 9, "cluster_id": 1, "rank_in_cluster": 4}

>  <energy>  (21) 
-9.09

>  <cluster_rmsd>  (21) 
1.42

>  <cluster>  (21) 
2

$$$$

     RDKit          3D

 79 85  0  0  1  0  0  0  0  0999 V2000
  143.8580   75.7150  220.0640 C   0  0  0  0  0  0  0  0  0  0  0  0
  144.4780   74.3730  220.0480 C   0  0  0  0  0  0  0  0  0  0  0  0
  145.7910   74.2210  220.4940 C   0  0  0  0  0  0  0  0  0  0  0  0
  146.3230   72.9480  220.4580 C   0  0  0  0  0  0  0  0  0  0  0  0
  145.6430   71.8760  220.0200 N   0  0  0  0  0  0  0  0  0  0  0  0
  144.3740   72.0570  219.5950 C   0  0  0  0  0  0  0  0  0  0  0  0
  143.6870   70.8990  219.1380 N   0  0  0  0  0  0  0  0  0  0  0  0
  144.1480   70.2260  217.9400 C   0  0  0  0  0  0  0  0  0  0  0  0
  143.0690   70.4030  216.9040 C   0  0  0  0  0  0  0  0  0  0  0  0
  141.7390   70.7830  217.4880 C   0  0  0  0  0  0  0  0  0  0  0  0
  141.4960   70.0050  218.7650 C   0  0  2  0  0  0  0  0  0  0  0  0
  140.1910   70.2680  219.3140 N   0  0  0  0  0  0  0  0  0  0  0  0
  139.9570   71.0930  220.4470 C   0  0  0  0  0  0  0  0  0  0  0  0
  139.9050   72.4350  220.3890 N   0  0  0  0  0  0  0  0  0  0  0  0
  139.6770   73.1430  221.5200 C   0  0  0  0  0  0  0  0  0  0  0  0
  139.6260   74.5530  221.4550 N   0  0  0  0  0  0  0  0  0  0  0  0
  138.4010   75.3030  221.7060 C   0  0  0  0  0  0  0  0  0  0  0  0
  138.6320   76.3980  222.7250 C   0  0  0  0  0  0  0  0  0  0  0  0
  139.8930   77.0880  222.4790 N   0  0  0  0  0  0  0  0  0  0  0  0
  139.9220   78.5050  222.3970 C   0  0  0  0  0  0  0  0  0  0  0  0
  140.5970   79.3160  223.2750 C   0  0  0  0  0  0  0  0  0  0  0  0
  140.6100   80.7010  223.1770 C   0  0  0  0  0  0  0  0  0  0  0  0
  139.9070   81.2730  222.1420 C   0  0  0  0  0  0  0  0  0  0  0  0
  139.2450   80.4320  221.2840 C   0  0  0  0  0  0  0  0  0  0  0  0
  139.2480   79.1050  221.4000 N   0  0  0  0  0  0  0  0  0  0  0  0
  141.0630   76.2440  222.3350 C   0  0  0  0  0  0  0  0  0  0  0  0
  140.8010   75.3430  221.1240 C   0  0  0  0  0  0  0  0  0  0  0  0
  139.4980   72.5440  222.7120 N   0  0  0  0  0  0  0  0  0  0  0  0
  139.5460   71.2030  222.7890 C   0  0  0  0  0  0  0  0  0  0  0  0
  139.3600   70.4920  224.0120 N   0  0  0  0  0  0  0  0  0  0  0  0
  138.9350   69.1120  223.9620 C   0  0  0  0  0  0  0  0  0  0  0  0
  139.0460   68.3560  225.2300 C   0  0  0  0  0  0  0  0  0  0  0  0
  139.8430   68.9830  226.2920 C   0  0  0  0  0  0  0  0  0  0  0  0
  140.3260   68.1410  227.3030 C   0  0  0  0  0  0  0  0  0  0  0  0
  141.0660   68.7220  228.2960 C   0  0  0  0  0  0  0  0  0  0  0  0
  141.3550   70.0700  228.3490 C   0  0  0  0  0  0  0  0  0  0  0  0
  140.8660   70.8910  227.3370 C   0  0  0  0  0  0  0  0  0  0  0  0
  140.1210   70.3260  226.3330 C   0  0  0  0  0  0  0  0  0  0  0  0
  139.6040   71.1860  225.2610 C   0  0  0  0  0  0  0  0  0  0  0  0
  139.7730   70.5320  221.6530 N   0  0  0  0  0  0  0  0  0  0  0  0
  142.5230   70.3480  219.8260 C   0  0  0  0  0  0  0  0  0  0  0  0
  143.8190   73.2810  219.6150 N   0  0  0  0  0  0  0  0  0  0  0  0
  143.7089   76.0377  221.1050 H   0  0  0  0  0  0  0  0  0  0  0  0
  144.5172   76.4296  219.5494 H   0  0  0  0  0  0  0  0  0  0  0  0
  142.8865   75.6762  219.5494 H   0  0  0  0  0  0  0  0  0  0  0  0
  146.3765   75.0780  220.8583 H   0  0  0  0  0  0  0  0  0  0  0  0
  147.3566   72.8042  220.8058 H   0  0  0  0  0  0  0  0  0  0  0  0
  145.0882   70.6768  217.5895 H   0  0  0  0  0  0  0  0  0  0  0  0
  144.3411   69.1605  218.1333 H   0  0  0  0  0  0  0  0  0  0  0  0
  143.3820   71.1934  216.2059 H   0  0  0  0  0  0  0  0  0  0  0  0
  142.9383   69.4330  216.4019 H   0  0  0  0  0  0  0  0  0  0  0  0
  141.7325   71.8603  217.7103 H   0  0  0  0  0  0  0  0  0  0  0  0
  140.9449   70.5482  216.7639 H   0  0  0  0  0  0  0  0  0  0  0  0
  141.5748   68.9427  218.4907 H   0  0  0  0  0  0  0  0  0  0  0  0
  139.3760   69.8180  218.8360 H   0  0  0  0  0  0  0  0  0  0  0  0
  138.0573   75.7554  220.7641 H   0  0  0  0  0  0  0  0  0  0  0  0
  137.6427   74.6115  222.1019 H   0  0  0  0  0  0  0  0  0  0  0  0
  137.8078   77.1240  222.6650 H   0  0  0  0  0  0  0  0  0  0  0  0
  138.6735   75.9411  223.7248 H   0  0  0  0  0  0  0  0  0  0  0  0
  141.1556   78.8451  224.0974 H   0  0  0  0  0  0  0  0  0  0  0  0
  141.1624   81.3184  223.9007 H   0  0  0  0  0  0  0  0  0  0  0  0
  139.8769   82.3643  222.0074 H   0  0  0  0  0  0  0  0  0  0  0  0
  138.6795   80.8788  220.4530 H   0  0  0  0  0  0  0  0  0  0  0  0
  141.9578   76.8604  222.1639 H   0  0  0  0  0  0  0  0  0  0  0  0
  141.2395   75.6493  223.2434 H   0  0  0  0  0  0  0  0  0  0  0  0
  140.6109   75.9529  220.2285 H   0  0  0  0  0  0  0  0  0  0  0  0
  141.6676   74.7017  220.9056 H   0  0  0  0  0  0  0  0  0  0  0  0
  137.8802   69.0951  223.6505 H   0  0  0  0  0  0  0  0  0  0  0  0
  139.6183   68.6149  223.2577 H   0  0  0  0  0  0  0  0  0  0  0  0
  138.0287   68.2034  225.6197 H   0  0  0  0  0  0  0  0  0  0  0  0
  139.5771   67.4276  224.9732 H   0  0  0  0  0  0  0  0  0  0  0  0
  140.1192   67.0606  227.2982 H   0  0  0  0  0  0  0  0  0  0  0  0
  141.4530   68.0771  229.0987 H   0  0  0  0  0  0  0  0  0  0  0  0
  141.9569   70.4856  229.1706 H   0  0  0  0  0  0  0  0  0  0  0  0
  141.0727   71.9714  227.3421 H   0  0  0  0  0  0  0  0  0  0  0  0
  138.6565   71.6297  225.6006 H   0  0  0  0  0  0  0  0  0  0  0  0
  140.3779   71.9411  225.0587 H   0  0  0  0  0  0  0  0  0  0  0  0
  142.1104   71.0919  220.5234 H   0  0  0  0  0  0  0  0  0  0  0  0
  142.7987   69.4548  220.4058 H   0  0  0  0  0  0  0  0  0  0  0  0
  1  2  1  0
  2  3  2  0
  3  4  1  0
  4  5  2  0
  5  6  1  0
  6  7  1  0
  7  8  1  0
  8  9  1  0
  9 10  1  0
 10 11  1  0
 11 12  1  0
 12 13  1  0
 13 14  2  0
 14 15  1  0
 15 16  1  0
 16 17  1  0
 17 18  1  0
 18 19  1  0
 19 20  1  0
 20 21  2  0
 21 22  1  0
 22 23  2  0
 23 24  1  0
 24 25  2  0
 19 26  1  0
 26 27  1  0
 15 28  2  0
 28 29  1  0
 29 30  1  0
 30 31  1  0
 31 32  1  0
 32 33  1  0
 33 34  2  0
 34 35  1  0
 35 36  2  0
 36 37  1  0
 37 38  2  0
 38 39  1  0
 29 40  2  0
 11 41  1  0
  6 42  2  0
 42  2  1  0
 41  7  1  0
 40 13  1  0
 27 16  1  0
 39 30  1  0
 25 20  1  0
 38 33  1  0
  1 43  1  0
  1 44  1  0
  1 45  1  0
  3 46  1  0
  4 47  1  0
  8 48  1  0
  8 49  1  0
  9 50  1  0
  9 51  1  0
 10 52  1  0
 10 53  1  0
 11 54  1  6
 12 55  1  0
 17 56  1  0
 17 57  1  0
 18 58  1  0
 18 59  1  0
 21 60  1  0
 22 61  1  0
 23 62  1  0
 24 63  1  0
 26 64  1  0
 26 65  1  0
 27 66  1  0
 27 67  1  0
 31 68  1  0
 31 69  1  0
 32 70  1  0
 32 71  1  0
 34 72  1  0
 35 73  1  0
 36 74  1  0
 37 75  1  0
 39 76  1  0
 39 77  1  0
 41 78  1  0
 41 79  1  0
M  END
>  <smiles>  (22) 
Cc1ccnc(N2CCCC(Nc3nc(N4CCN(c5ccccn5)CC4)nc(N4CCc5ccccc5C4)n3)C2)n1

>  <score_type>  (22) 
oracle

>  <origin>  (22) 
autodockgpu

>  <m_score__min__energy>  (22) 
-10.5

>  <m_primary>  (22) 
energy

>  <rmsd>  (22) 
7.921478926589906

>  <m_score__min__rmsd>  (22) 
7.921478926589906

>  <meeko>  (22) 
{"free_energy": -8.93, "intermolecular_energy": -10.72, "internal_energy": -1.96, "cluster_size": 4, "cluster_id": 6, "rank_in_cluster": 3}

>  <energy>  (22) 
-8.4

>  <cluster_rmsd>  (22) 
1.85

>  <cluster>  (22) 
2

$$$$

     RDKit          3D

 79 85  0  0  1  0  0  0  0  0999 V2000
  142.1500   78.4330  219.2930 C   0  0  0  0  0  0  0  0  0  0  0  0
  142.6350   77.5910  218.1790 C   0  0  0  0  0  0  0  0  0  0  0  0
  142.7590   78.1470  216.9060 C   0  0  0  0  0  0  0  0  0  0  0  0
  143.2150   77.3190  215.9000 C   0  0  0  0  0  0  0  0  0  0  0  0
  143.5370   76.0290  216.0960 N   0  0  0  0  0  0  0  0  0  0  0  0
  143.4060   75.5220  217.3400 C   0  0  0  0  0  0  0  0  0  0  0  0
  143.7540   74.1540  217.5070 N   0  0  0  0  0  0  0  0  0  0  0  0
  143.5700   73.2340  216.4030 C   0  0  0  0  0  0  0  0  0  0  0  0
  142.4890   72.2710  216.8190 C   0  0  0  0  0  0  0  0  0  0  0  0
  142.2580   72.2410  218.3020 C   0  0  0  0  0  0  0  0  0  0  0  0
  143.5830   72.3140  219.0330 C   0  0  2  0  0  0  0  0  0  0  0  0
  143.4170   72.1970  220.4580 N   0  0  0  0  0  0  0  0  0  0  0  0
  142.2730   72.6560  221.1660 C   0  0  0  0  0  0  0  0  0  0  0  0
  141.7890   73.9060  221.0600 N   0  0  0  0  0  0  0  0  0  0  0  0
  140.6940   74.2580  221.7720 C   0  0  0  0  0  0  0  0  0  0  0  0
  140.1900   75.5730  221.6600 N   0  0  0  0  0  0  0  0  0  0  0  0
  138.7620   75.8670  221.6840 C   0  0  0  0  0  0  0  0  0  0  0  0
  138.4450   76.9470  222.6960 C   0  0  0  0  0  0  0  0  0  0  0  0
  139.4290   78.0230  222.6430 N   0  0  0  0  0  0  0  0  0  0  0  0
  139.0000   79.3710  222.5280 C   0  0  0  0  0  0  0  0  0  0  0  0
  138.2910   80.0420  223.4920 C   0  0  0  0  0  0  0  0  0  0  0  0
  137.8800   81.3620  223.3570 C   0  0  0  0  0  0  0  0  0  0  0  0
  138.2080   82.0140  222.1910 C   0  0  0  0  0  0  0  0  0  0  0  0
  138.9170   81.3130  221.2500 C   0  0  0  0  0  0  0  0  0  0  0  0
  139.3000   80.0470  221.4040 N   0  0  0  0  0  0  0  0  0  0  0  0
  140.8180   77.6190  222.7190 C   0  0  0  0  0  0  0  0  0  0  0  0
  141.0750   76.7170  221.5070 C   0  0  0  0  0  0  0  0  0  0  0  0
  140.0650   73.3920  222.5890 N   0  0  0  0  0  0  0  0  0  0  0  0
  140.5350   72.1390  222.7070 C   0  0  0  0  0  0  0  0  0  0  0  0
  139.9240   71.1610  223.5460 N   0  0  0  0  0  0  0  0  0  0  0  0
  139.2680   70.0270  222.9370 C   0  0  0  0  0  0  0  0  0  0  0  0
  138.9180   68.9150  223.8500 C   0  0  0  0  0  0  0  0  0  0  0  0
  139.5360   68.9510  225.1820 C   0  0  0  0  0  0  0  0  0  0  0  0
  139.5860   67.7410  225.8890 C   0  0  0  0  0  0  0  0  0  0  0  0
  140.1590   67.7710  227.1310 C   0  0  0  0  0  0  0  0  0  0  0  0
  140.6780   68.9100  227.7090 C   0  0  0  0  0  0  0  0  0  0  0  0
  140.6180   70.1010  226.9930 C   0  0  0  0  0  0  0  0  0  0  0  0
  140.0480   70.0920  225.7450 C   0  0  0  0  0  0  0  0  0  0  0  0
  139.9820   71.3450  224.9830 C   0  0  0  0  0  0  0  0  0  0  0  0
  141.6200   71.8220  221.9900 N   0  0  0  0  0  0  0  0  0  0  0  0
  144.2960   73.6230  218.7550 C   0  0  0  0  0  0  0  0  0  0  0  0
  142.9650   76.2960  218.3470 N   0  0  0  0  0  0  0  0  0  0  0  0
  142.4198   77.9646  220.2510 H   0  0  0  0  0  0  0  0  0  0  0  0
  142.6129   79.4288  219.2285 H   0  0  0  0  0  0  0  0  0  0  0  0
  141.0564   78.5322  219.2285 H   0  0  0  0  0  0  0  0  0  0  0  0
  142.5045   79.1994  216.7121 H   0  0  0  0  0  0  0  0  0  0  0  0
  143.3200   77.7358  214.8875 H   0  0  0  0  0  0  0  0  0  0  0  0
  143.2630   73.7818  215.4999 H   0  0  0  0  0  0  0  0  0  0  0  0
  144.5048   72.7034  216.1696 H   0  0  0  0  0  0  0  0  0  0  0  0
  141.5509   72.5650  216.3255 H   0  0  0  0  0  0  0  0  0  0  0  0
  142.8172   71.2645  216.5203 H   0  0  0  0  0  0  0  0  0  0  0  0
  141.6343   73.0997  218.5912 H   0  0  0  0  0  0  0  0  0  0  0  0
  141.7484   71.3037  218.5698 H   0  0  0  0  0  0  0  0  0  0  0  0
  144.1810   71.4695  218.6600 H   0  0  0  0  0  0  0  0  0  0  0  0
  144.1950   71.7430  220.9900 H   0  0  0  0  0  0  0  0  0  0  0  0
  138.4483   76.2067  220.6859 H   0  0  0  0  0  0  0  0  0  0  0  0
  138.2216   74.9521  221.9685 H   0  0  0  0  0  0  0  0  0  0  0  0
  137.4488   77.3604  222.4798 H   0  0  0  0  0  0  0  0  0  0  0  0
  138.4693   76.5012  223.7013 H   0  0  0  0  0  0  0  0  0  0  0  0
  138.0350   79.5076  224.4188 H   0  0  0  0  0  0  0  0  0  0  0  0
  137.3133   81.8672  224.1530 H   0  0  0  0  0  0  0  0  0  0  0  0
  137.9122   83.0596  222.0199 H   0  0  0  0  0  0  0  0  0  0  0  0
  139.1848   81.8257  220.3143 H   0  0  0  0  0  0  0  0  0  0  0  0
  141.4732   78.5018  222.6816 H   0  0  0  0  0  0  0  0  0  0  0  0
  141.0278   77.0901  223.6604 H   0  0  0  0  0  0  0  0  0  0  0  0
  140.8457   77.2550  220.5754 H   0  0  0  0  0  0  0  0  0  0  0  0
  142.1287   76.4055  221.4544 H   0  0  0  0  0  0  0  0  0  0  0  0
  138.3384   70.3857  222.4710 H   0  0  0  0  0  0  0  0  0  0  0  0
  139.9951   69.6097  222.2249 H   0  0  0  0  0  0  0  0  0  0  0  0
  137.8265   68.9233  223.9861 H   0  0  0  0  0  0  0  0  0  0  0  0
  139.3073   68.0055  223.3692 H   0  0  0  0  0  0  0  0  0  0  0  0
  139.1828   66.8099  225.4642 H   0  0  0  0  0  0  0  0  0  0  0  0
  140.2085   66.8318  227.7015 H   0  0  0  0  0  0  0  0  0  0  0  0
  141.1286   68.8777  228.7120 H   0  0  0  0  0  0  0  0  0  0  0  0
  141.0198   71.0321  227.4191 H   0  0  0  0  0  0  0  0  0  0  0  0
  139.0821   71.8938  225.2977 H   0  0  0  0  0  0  0  0  0  0  0  0
  140.9107   71.8950  225.1954 H   0  0  0  0  0  0  0  0  0  0  0  0
  144.1154   74.3322  219.5762 H   0  0  0  0  0  0  0  0  0  0  0  0
  145.3818   73.4664  218.6736 H   0  0  0  0  0  0  0  0  0  0  0  0
  1  2  1  0
  2  3  2  0
  3  4  1  0
  4  5  2  0
  5  6  1  0
  6  7  1  0
  7  8  1  0
  8  9  1  0
  9 10  1  0
 10 11  1  0
 11 12  1  0
 12 13  1  0
 13 14  2  0
 14 15  1  0
 15 16  1  0
 16 17  1  0
 17 18  1  0
 18 19  1  0
 19 20  1  0
 20 21  2  0
 21 22  1  0
 22 23  2  0
 23 24  1  0
 24 25  2  0
 19 26  1  0
 26 27  1  0
 15 28  2  0
 28 29  1  0
 29 30  1  0
 30 31  1  0
 31 32  1  0
 32 33  1  0
 33 34  2  0
 34 35  1  0
 35 36  2  0
 36 37  1  0
 37 38  2  0
 38 39  1  0
 29 40  2  0
 11 41  1  0
  6 42  2  0
 42  2  1  0
 41  7  1  0
 40 13  1  0
 27 16  1  0
 39 30  1  0
 25 20  1  0
 38 33  1  0
  1 43  1  0
  1 44  1  0
  1 45  1  0
  3 46  1  0
  4 47  1  0
  8 48  1  0
  8 49  1  0
  9 50  1  0
  9 51  1  0
 10 52  1  0
 10 53  1  0
 11 54  1  6
 12 55  1  0
 17 56  1  0
 17 57  1  0
 18 58  1  0
 18 59  1  0
 21 60  1  0
 22 61  1  0
 23 62  1  0
 24 63  1  0
 26 64  1  0
 26 65  1  0
 27 66  1  0
 27 67  1  0
 31 68  1  0
 31 69  1  0
 32 70  1  0
 32 71  1  0
 34 72  1  0
 35 73  1  0
 36 74  1  0
 37 75  1  0
 39 76  1  0
 39 77  1  0
 41 78  1  0
 41 79  1  0
M  END
>  <smiles>  (23) 
Cc1ccnc(N2CCCC(Nc3nc(N4CCN(c5ccccn5)CC4)nc(N4CCc5ccccc5C4)n3)C2)n1

>  <score_type>  (23) 
oracle

>  <origin>  (23) 
autodockgpu

>  <m_score__min__energy>  (23) 
-10.5

>  <m_primary>  (23) 
energy

>  <rmsd>  (23) 
8.388615579218921

>  <m_score__min__rmsd>  (23) 
8.388615579218921

>  <meeko>  (23) 
{"free_energy": -8.64, "intermolecular_energy": -10.43, "internal_energy": -1.94, "cluster_size": 10, "cluster_id": 9, "rank_in_cluster": 6}

>  <energy>  (23) 
-9.84

>  <cluster_rmsd>  (23) 
0.0

>  <cluster>  (23) 
3

$$$$

     RDKit          3D

 79 85  0  0  1  0  0  0  0  0999 V2000
  148.0090   74.9470  216.2390 C   0  0  0  0  0  0  0  0  0  0  0  0
  146.7320   74.2090  216.3360 C   0  0  0  0  0  0  0  0  0  0  0  0
  145.7550   74.4020  215.3590 C   0  0  0  0  0  0  0  0  0  0  0  0
  144.5800   73.6900  215.4970 C   0  0  0  0  0  0  0  0  0  0  0  0
  144.3470   72.8390  216.5100 N   0  0  0  0  0  0  0  0  0  0  0  0
  145.3130   72.6760  217.4390 C   0  0  0  0  0  0  0  0  0  0  0  0
  145.0290   71.7680  218.4960 N   0  0  0  0  0  0  0  0  0  0  0  0
  145.8890   70.6190  218.6960 C   0  0  0  0  0  0  0  0  0  0  0  0
  145.0600   69.4010  218.3830 C   0  0  0  0  0  0  0  0  0  0  0  0
  143.5820   69.6640  218.4080 C   0  0  0  0  0  0  0  0  0  0  0  0
  143.2410   70.5830  219.5630 C   0  0  2  0  0  0  0  0  0  0  0  0
  141.8210   70.7910  219.6820 N   0  0  0  0  0  0  0  0  0  0  0  0
  141.2210   71.6520  220.6400 C   0  0  0  0  0  0  0  0  0  0  0  0
  141.1360   72.9850  220.4870 N   0  0  0  0  0  0  0  0  0  0  0  0
  140.5480   73.7300  221.4510 C   0  0  0  0  0  0  0  0  0  0  0  0
  140.4620   75.1310  221.2870 N   0  0  0  0  0  0  0  0  0  0  0  0
  139.9630   76.0110  222.3370 C   0  0  0  0  0  0  0  0  0  0  0  0
  140.9270   77.1470  222.5980 C   0  0  0  0  0  0  0  0  0  0  0  0
  141.4480   77.6940  221.3500 N   0  0  0  0  0  0  0  0  0  0  0  0
  141.3940   79.0920  221.1110 C   0  0  0  0  0  0  0  0  0  0  0  0
  141.4190   79.6630  219.8630 C   0  0  0  0  0  0  0  0  0  0  0  0
  141.3670   81.0350  219.6520 C   0  0  0  0  0  0  0  0  0  0  0  0
  141.2890   81.8470  220.7600 C   0  0  0  0  0  0  0  0  0  0  0  0
  141.2670   81.2420  221.9900 C   0  0  0  0  0  0  0  0  0  0  0  0
  141.3170   79.9220  222.1650 N   0  0  0  0  0  0  0  0  0  0  0  0
  142.0040   76.7330  220.4180 C   0  0  0  0  0  0  0  0  0  0  0  0
  140.8640   75.7780  220.0490 C   0  0  0  0  0  0  0  0  0  0  0  0
  140.0390   73.1770  222.5690 N   0  0  0  0  0  0  0  0  0  0  0  0
  140.1160   71.8460  222.7390 C   0  0  0  0  0  0  0  0  0  0  0  0
  139.5970   71.1840  223.8910 N   0  0  0  0  0  0  0  0  0  0  0  0
  138.5620   70.1910  223.7200 C   0  0  0  0  0  0  0  0  0  0  0  0
  138.2800   69.3420  224.9000 C   0  0  0  0  0  0  0  0  0  0  0  0
  139.2680   69.3920  225.9860 C   0  0  0  0  0  0  0  0  0  0  0  0
  139.2740   68.3170  226.8850 C   0  0  0  0  0  0  0  0  0  0  0  0
  140.1910   68.3610  227.9000 C   0  0  0  0  0  0  0  0  0  0  0  0
  141.0910   69.3920  228.0760 C   0  0  0  0  0  0  0  0  0  0  0  0
  141.0690   70.4500  227.1730 C   0  0  0  0  0  0  0  0  0  0  0  0
  140.1570   70.4230  226.1490 C   0  0  0  0  0  0  0  0  0  0  0  0
  140.1290   71.5360  225.1920 C   0  0  0  0  0  0  0  0  0  0  0  0
  140.7040   71.1380  221.7660 N   0  0  0  0  0  0  0  0  0  0  0  0
  143.8970   71.9410  219.4020 C   0  0  0  0  0  0  0  0  0  0  0  0
  146.4720   73.3500  217.3410 N   0  0  0  0  0  0  0  0  0  0  0  0
  148.3847   75.1641  217.2498 H   0  0  0  0  0  0  0  0  0  0  0  0
  148.7457   74.3354  215.6975 H   0  0  0  0  0  0  0  0  0  0  0  0
  147.8469   75.8907  215.6975 H   0  0  0  0  0  0  0  0  0  0  0  0
  145.9137   75.0908  214.5161 H   0  0  0  0  0  0  0  0  0  0  0  0
  143.7948   73.8266  214.7389 H   0  0  0  0  0  0  0  0  0  0  0  0
  146.7559   70.6717  218.0209 H   0  0  0  0  0  0  0  0  0  0  0  0
  146.2712   70.5844  219.7269 H   0  0  0  0  0  0  0  0  0  0  0  0
  145.3334   69.0413  217.3800 H   0  0  0  0  0  0  0  0  0  0  0  0
  145.2707   68.6551  219.1635 H   0  0  0  0  0  0  0  0  0  0  0  0
  143.2800   70.1388  217.4628 H   0  0  0  0  0  0  0  0  0  0  0  0
  143.0468   68.7112  218.5333 H   0  0  0  0  0  0  0  0  0  0  0  0
  143.6191   70.0844  220.4677 H   0  0  0  0  0  0  0  0  0  0  0  0
  141.2080   70.2680  219.0140 H   0  0  0  0  0  0  0  0  0  0  0  0
  138.9931   76.4268  222.0267 H   0  0  0  0  0  0  0  0  0  0  0  0
  139.8540   75.4253  223.2617 H   0  0  0  0  0  0  0  0  0  0  0  0
  140.4032   77.9430  223.1476 H   0  0  0  0  0  0  0  0  0  0  0  0
  141.7709   76.7593  223.1875 H   0  0  0  0  0  0  0  0  0  0  0  0
  141.4834   79.0014  218.9866 H   0  0  0  0  0  0  0  0  0  0  0  0
  141.3874   81.4568  218.6363 H   0  0  0  0  0  0  0  0  0  0  0  0
  141.2459   82.9418  220.6624 H   0  0  0  0  0  0  0  0  0  0  0  0
  141.2046   81.8821  222.8824 H   0  0  0  0  0  0  0  0  0  0  0  0
  142.3761   77.2463  219.5191 H   0  0  0  0  0  0  0  0  0  0  0  0
  142.8506   76.1898  220.8632 H   0  0  0  0  0  0  0  0  0  0  0  0
  140.0204   76.3386  219.6200 H   0  0  0  0  0  0  0  0  0  0  0  0
  141.1845   75.0419  219.2971 H   0  0  0  0  0  0  0  0  0  0  0  0
  137.6328   70.7152  223.4520 H   0  0  0  0  0  0  0  0  0  0  0  0
  138.9312   69.5067  222.9419 H   0  0  0  0  0  0  0  0  0  0  0  0
  137.3100   69.6544  225.3141 H   0  0  0  0  0  0  0  0  0  0  0  0
  138.3019   68.3065  224.5296 H   0  0  0  0  0  0  0  0  0  0  0  0
  138.5732   67.4757  226.7796 H   0  0  0  0  0  0  0  0  0  0  0  0
  140.2117   67.5267  228.6165 H   0  0  0  0  0  0  0  0  0  0  0  0
  141.8083   69.3777  228.9099 H   0  0  0  0  0  0  0  0  0  0  0  0
  141.7693   71.2917  227.2782 H   0  0  0  0  0  0  0  0  0  0  0  0
  139.5067   72.3389  225.6140 H   0  0  0  0  0  0  0  0  0  0  0  0
  141.1727   71.8457  225.0348 H   0  0  0  0  0  0  0  0  0  0  0  0
  143.1797   72.6582  218.9764 H   0  0  0  0  0  0  0  0  0  0  0  0
  144.2309   72.3315  220.3746 H   0  0  0  0  0  0  0  0  0  0  0  0
  1  2  1  0
  2  3  2  0
  3  4  1  0
  4  5  2  0
  5  6  1  0
  6  7  1  0
  7  8  1  0
  8  9  1  0
  9 10  1  0
 10 11  1  0
 11 12  1  0
 12 13  1  0
 13 14  2  0
 14 15  1  0
 15 16  1  0
 16 17  1  0
 17 18  1  0
 18 19  1  0
 19 20  1  0
 20 21  2  0
 21 22  1  0
 22 23  2  0
 23 24  1  0
 24 25  2  0
 19 26  1  0
 26 27  1  0
 15 28  2  0
 28 29  1  0
 29 30  1  0
 30 31  1  0
 31 32  1  0
 32 33  1  0
 33 34  2  0
 34 35  1  0
 35 36  2  0
 36 37  1  0
 37 38  2  0
 38 39  1  0
 29 40  2  0
 11 41  1  0
  6 42  2  0
 42  2  1  0
 41  7  1  0
 40 13  1  0
 27 16  1  0
 39 30  1  0
 25 20  1  0
 38 33  1  0
  1 43  1  0
  1 44  1  0
  1 45  1  0
  3 46  1  0
  4 47  1  0
  8 48  1  0
  8 49  1  0
  9 50  1  0
  9 51  1  0
 10 52  1  0
 10 53  1  0
 11 54  1  1
 12 55  1  0
 17 56  1  0
 17 57  1  0
 18 58  1  0
 18 59  1  0
 21 60  1  0
 22 61  1  0
 23 62  1  0
 24 63  1  0
 26 64  1  0
 26 65  1  0
 27 66  1  0
 27 67  1  0
 31 68  1  0
 31 69  1  0
 32 70  1  0
 32 71  1  0
 34 72  1  0
 35 73  1  0
 36 74  1  0
 37 75  1  0
 39 76  1  0
 39 77  1  0
 41 78  1  0
 41 79  1  0
M  END
>  <smiles>  (24) 
Cc1ccnc(N2CCCC(Nc3nc(N4CCN(c5ccccn5)CC4)nc(N4CCc5ccccc5C4)n3)C2)n1

>  <score_type>  (24) 
oracle

>  <origin>  (24) 
autodockgpu

>  <m_score__min__energy>  (24) 
-10.5

>  <m_primary>  (24) 
energy

>  <rmsd>  (24) 
8.411743309217705

>  <m_score__min__rmsd>  (24) 
8.411743309217705

>  <meeko>  (24) 
{"free_energy": -9.06, "intermolecular_energy": -10.85, "internal_energy": -1.46, "cluster_size": 4, "cluster_id": 6, "rank_in_cluster": 2}

>  <energy>  (24) 
-9.3

>  <cluster_rmsd>  (24) 
0.0

>  <cluster>  (24) 
4

$$$$

     RDKit          3D

 79 85  0  0  1  0  0  0  0  0999 V2000
  142.9300   80.7900  224.2050 C   0  0  0  0  0  0  0  0  0  0  0  0
  142.2310   80.7330  222.9030 C   0  0  0  0  0  0  0  0  0  0  0  0
  141.7730   81.9160  222.3220 C   0  0  0  0  0  0  0  0  0  0  0  0
  141.1270   81.8080  221.1060 C   0  0  0  0  0  0  0  0  0  0  0  0
  140.9280   80.6380  220.4770 N   0  0  0  0  0  0  0  0  0  0  0  0
  141.3840   79.5120  221.0670 C   0  0  0  0  0  0  0  0  0  0  0  0
  141.1530   78.2940  220.3720 N   0  0  0  0  0  0  0  0  0  0  0  0
  140.6020   78.3340  219.0330 C   0  0  0  0  0  0  0  0  0  0  0  0
  139.2290   77.7190  219.1130 C   0  0  0  0  0  0  0  0  0  0  0  0
  139.0210   76.8850  220.3450 C   0  0  0  0  0  0  0  0  0  0  0  0
  140.2720   76.0820  220.6410 C   0  0  2  0  0  0  0  0  0  0  0  0
  140.0880   75.1980  221.7620 N   0  0  0  0  0  0  0  0  0  0  0  0
  140.4730   73.8290  221.7660 C   0  0  0  0  0  0  0  0  0  0  0  0
  141.2670   73.2800  220.8310 N   0  0  0  0  0  0  0  0  0  0  0  0
  141.5820   71.9670  220.9120 C   0  0  0  0  0  0  0  0  0  0  0  0
  142.4150   71.3930  219.9260 N   0  0  0  0  0  0  0  0  0  0  0  0
  143.6070   72.0650  219.4230 C   0  0  0  0  0  0  0  0  0  0  0  0
  144.8130   71.1530  219.4850 C   0  0  0  0  0  0  0  0  0  0  0  0
  144.4750   69.8030  219.0480 N   0  0  0  0  0  0  0  0  0  0  0  0
  145.2630   69.1590  218.0570 C   0  0  0  0  0  0  0  0  0  0  0  0
  145.5420   67.8160  218.0440 C   0  0  0  0  0  0  0  0  0  0  0  0
  146.3170   67.2070  217.0660 C   0  0  0  0  0  0  0  0  0  0  0  0
  146.8240   68.0070  216.0670 C   0  0  0  0  0  0  0  0  0  0  0  0
  146.5250   69.3440  216.1120 C   0  0  0  0  0  0  0  0  0  0  0  0
  145.7780   69.9030  217.0630 N   0  0  0  0  0  0  0  0  0  0  0  0
  143.3220   69.1980  219.6840 C   0  0  0  0  0  0  0  0  0  0  0  0
  142.1230   70.0910  219.3480 C   0  0  0  0  0  0  0  0  0  0  0  0
  141.1250   71.1840  221.9080 N   0  0  0  0  0  0  0  0  0  0  0  0
  140.3310   71.7160  222.8520 C   0  0  0  0  0  0  0  0  0  0  0  0
  139.8100   70.9570  223.9420 N   0  0  0  0  0  0  0  0  0  0  0  0
  139.0310   69.7730  223.6600 C   0  0  0  0  0  0  0  0  0  0  0  0
  138.7740   68.8790  224.8120 C   0  0  0  0  0  0  0  0  0  0  0  0
  139.5780   69.1260  226.0160 C   0  0  0  0  0  0  0  0  0  0  0  0
  139.6840   68.0720  226.9340 C   0  0  0  0  0  0  0  0  0  0  0  0
  140.4300   68.2980  228.0580 C   0  0  0  0  0  0  0  0  0  0  0  0
  141.0700   69.4910  228.3270 C   0  0  0  0  0  0  0  0  0  0  0  0
  140.9530   70.5260  227.4040 C   0  0  0  0  0  0  0  0  0  0  0  0
  140.2090   70.3170  226.2710 C   0  0  0  0  0  0  0  0  0  0  0  0
  140.0820   71.4050  225.2930 C   0  0  0  0  0  0  0  0  0  0  0  0
  140.0380   73.0180  222.7430 N   0  0  0  0  0  0  0  0  0  0  0  0
  141.4490   76.9860  220.9510 C   0  0  0  0  0  0  0  0  0  0  0  0
  142.0190   79.5740  222.2500 N   0  0  0  0  0  0  0  0  0  0  0  0
  142.1933   80.7299  225.0196 H   0  0  0  0  0  0  0  0  0  0  0  0
  143.6313   79.9461  224.2819 H   0  0  0  0  0  0  0  0  0  0  0  0
  143.4853   81.7364  224.2819 H   0  0  0  0  0  0  0  0  0  0  0  0
  141.9198   82.8907  222.8104 H   0  0  0  0  0  0  0  0  0  0  0  0
  140.7566   82.7270  220.6283 H   0  0  0  0  0  0  0  0  0  0  0  0
  140.5319   79.3743  218.6825 H   0  0  0  0  0  0  0  0  0  0  0  0
  141.2411   77.7860  218.3249 H   0  0  0  0  0  0  0  0  0  0  0  0
  138.4836   78.5279  219.1093 H   0  0  0  0  0  0  0  0  0  0  0  0
  139.1209   77.0509  218.2459 H   0  0  0  0  0  0  0  0  0  0  0  0
  138.7996   77.5432  221.1981 H   0  0  0  0  0  0  0  0  0  0  0  0
  138.1794   76.1965  220.1787 H   0  0  0  0  0  0  0  0  0  0  0  0
  140.4755   75.4931  219.7345 H   0  0  0  0  0  0  0  0  0  0  0  0
  139.6430   75.6030  222.6180 H   0  0  0  0  0  0  0  0  0  0  0  0
  143.4366   72.3650  218.3785 H   0  0  0  0  0  0  0  0  0  0  0  0
  143.8027   72.9465  220.0512 H   0  0  0  0  0  0  0  0  0  0  0  0
  145.6012   71.5551  218.8315 H   0  0  0  0  0  0  0  0  0  0  0  0
  145.1611   71.1053  220.5274 H   0  0  0  0  0  0  0  0  0  0  0  0
  145.1309   67.1896  218.8494 H   0  0  0  0  0  0  0  0  0  0  0  0
  146.5183   66.1258  217.0886 H   0  0  0  0  0  0  0  0  0  0  0  0
  147.4463   67.5887  215.2621 H   0  0  0  0  0  0  0  0  0  0  0  0
  146.9244   69.9920  215.3180 H   0  0  0  0  0  0  0  0  0  0  0  0
  143.1612   68.1825  219.2929 H   0  0  0  0  0  0  0  0  0  0  0  0
  143.4647   69.1153  220.7716 H   0  0  0  0  0  0  0  0  0  0  0  0
  142.0036   70.1755  218.2578 H   0  0  0  0  0  0  0  0  0  0  0  0
  141.1871   69.6744  219.7486 H   0  0  0  0  0  0  0  0  0  0  0  0
  138.0584   70.0965  223.2608 H   0  0  0  0  0  0  0  0  0  0  0  0
  139.6320   69.1824  222.9529 H   0  0  0  0  0  0  0  0  0  0  0  0
  137.7145   68.9839  225.0885 H   0  0  0  0  0  0  0  0  0  0  0  0
  139.0553   67.8716  224.4715 H   0  0  0  0  0  0  0  0  0  0  0  0
  139.1890   67.1055  226.7582 H   0  0  0  0  0  0  0  0  0  0  0  0
  140.5254   67.4821  228.7896 H   0  0  0  0  0  0  0  0  0  0  0  0
  141.6578   69.6204  229.2478 H   0  0  0  0  0  0  0  0  0  0  0  0
  141.4475   71.4927  227.5798 H   0  0  0  0  0  0  0  0  0  0  0  0
  139.2590   72.0616  225.6116 H   0  0  0  0  0  0  0  0  0  0  0  0
  141.0522   71.9226  225.2664 H   0  0  0  0  0  0  0  0  0  0  0  0
  141.5785   77.0763  222.0396 H   0  0  0  0  0  0  0  0  0  0  0  0
  142.3788   76.5744  220.5313 H   0  0  0  0  0  0  0  0  0  0  0  0
  1  2  1  0
  2  3  2  0
  3  4  1  0
  4  5  2  0
  5  6  1  0
  6  7  1  0
  7  8  1  0
  8  9  1  0
  9 10  1  0
 10 11  1  0
 11 12  1  0
 12 13  1  0
 13 14  2  0
 14 15  1  0
 15 16  1  0
 16 17  1  0
 17 18  1  0
 18 19  1  0
 19 20  1  0
 20 21  2  0
 21 22  1  0
 22 23  2  0
 23 24  1  0
 24 25  2  0
 19 26  1  0
 26 27  1  0
 15 28  2  0
 28 29  1  0
 29 30  1  0
 30 31  1  0
 31 32  1  0
 32 33  1  0
 33 34  2  0
 34 35  1  0
 35 36  2  0
 36 37  1  0
 37 38  2  0
 38 39  1  0
 29 40  2  0
 11 41  1  0
  6 42  2  0
 42  2  1  0
 41  7  1  0
 40 13  1  0
 27 16  1  0
 39 30  1  0
 25 20  1  0
 38 33  1  0
  1 43  1  0
  1 44  1  0
  1 45  1  0
  3 46  1  0
  4 47  1  0
  8 48  1  0
  8 49  1  0
  9 50  1  0
  9 51  1  0
 10 52  1  0
 10 53  1  0
 11 54  1  6
 12 55  1  0
 17 56  1  0
 17 57  1  0
 18 58  1  0
 18 59  1  0
 21 60  1  0
 22 61  1  0
 23 62  1  0
 24 63  1  0
 26 64  1  0
 26 65  1  0
 27 66  1  0
 27 67  1  0
 31 68  1  0
 31 69  1  0
 32 70  1  0
 32 71  1  0
 34 72  1  0
 35 73  1  0
 36 74  1  0
 37 75  1  0
 39 76  1  0
 39 77  1  0
 41 78  1  0
 41 79  1  0
M  END
>  <smiles>  (25) 
Cc1ccnc(N2CCCC(Nc3nc(N4CCN(c5ccccn5)CC4)nc(N4CCc5ccccc5C4)n3)C2)n1

>  <score_type>  (25) 
oracle

>  <origin>  (25) 
autodockgpu

>  <m_score__min__energy>  (25) 
-10.5

>  <m_primary>  (25) 
energy

>  <rmsd>  (25) 
8.145591602775674

>  <m_score__min__rmsd>  (25) 
8.145591602775674

>  <meeko>  (25) 
{"free_energy": -9.46, "intermolecular_energy": -11.25, "internal_energy": -1.36, "cluster_size": 13, "cluster_id": 2, "rank_in_cluster": 8}

>  <energy>  (25) 
-9.2

>  <cluster_rmsd>  (25) 
0.74

>  <cluster>  (25) 
4

$$$$

     RDKit          3D

 79 85  0  0  1  0  0  0  0  0999 V2000
  134.4120   75.5000  226.0330 C   0  0  0  0  0  0  0  0  0  0  0  0
  135.1650   74.9960  224.8650 C   0  0  0  0  0  0  0  0  0  0  0  0
  135.0180   73.6630  224.4810 C   0  0  0  0  0  0  0  0  0  0  0  0
  135.7440   73.2420  223.3850 C   0  0  0  0  0  0  0  0  0  0  0  0
  136.5650   74.0470  222.6900 N   0  0  0  0  0  0  0  0  0  0  0  0
  136.6850   75.3310  223.0880 C   0  0  0  0  0  0  0  0  0  0  0  0
  137.5640   76.1510  222.3290 N   0  0  0  0  0  0  0  0  0  0  0  0
  137.0520   76.8660  221.1770 C   0  0  0  0  0  0  0  0  0  0  0  0
  137.7160   76.2640  219.9660 C   0  0  0  0  0  0  0  0  0  0  0  0
  138.9590   75.4870  220.2930 C   0  0  0  0  0  0  0  0  0  0  0  0
  139.7540   76.2120  221.3600 C   0  0  2  0  0  0  0  0  0  0  0  0
  141.0020   75.5500  221.6410 N   0  0  0  0  0  0  0  0  0  0  0  0
  141.1820   74.1410  221.5950 C   0  0  0  0  0  0  0  0  0  0  0  0
  141.9330   73.5200  220.6700 N   0  0  0  0  0  0  0  0  0  0  0  0
  142.0490   72.1720  220.7010 C   0  0  0  0  0  0  0  0  0  0  0  0
  142.8380   71.5230  219.7250 N   0  0  0  0  0  0  0  0  0  0  0  0
  144.1000   72.0740  219.2470 C   0  0  0  0  0  0  0  0  0  0  0  0
  145.2070   71.0450  219.3240 C   0  0  0  0  0  0  0  0  0  0  0  0
  144.7440   69.7380  218.8710 N   0  0  0  0  0  0  0  0  0  0  0  0
  145.4810   69.0250  217.8900 C   0  0  0  0  0  0  0  0  0  0  0  0
  146.0410   69.5980  216.7760 C   0  0  0  0  0  0  0  0  0  0  0  0
  146.7570   68.8790  215.8270 C   0  0  0  0  0  0  0  0  0  0  0  0
  146.9010   67.5260  216.0300 C   0  0  0  0  0  0  0  0  0  0  0  0
  146.3290   66.9870  217.1530 C   0  0  0  0  0  0  0  0  0  0  0  0
  145.6460   67.7000  218.0480 N   0  0  0  0  0  0  0  0  0  0  0  0
  143.5250   69.2490  219.4830 C   0  0  0  0  0  0  0  0  0  0  0  0
  142.4280   70.2600  219.1330 C   0  0  0  0  0  0  0  0  0  0  0  0
  141.4340   71.4240  221.6370 N   0  0  0  0  0  0  0  0  0  0  0  0
  140.6790   72.0290  222.5700 C   0  0  0  0  0  0  0  0  0  0  0  0
  139.9990   71.3090  223.5980 N   0  0  0  0  0  0  0  0  0  0  0  0
  138.9540   70.3830  223.2290 C   0  0  0  0  0  0  0  0  0  0  0  0
  138.4980   69.4640  224.2970 C   0  0  0  0  0  0  0  0  0  0  0  0
  139.3480   69.3870  225.4920 C   0  0  0  0  0  0  0  0  0  0  0  0
  139.2030   68.2510  226.3000 C   0  0  0  0  0  0  0  0  0  0  0  0
  139.9910   68.1760  227.4160 C   0  0  0  0  0  0  0  0  0  0  0  0
  140.9030   69.1460  227.7770 C   0  0  0  0  0  0  0  0  0  0  0  0
  141.0330   70.2670  226.9630 C   0  0  0  0  0  0  0  0  0  0  0  0
  140.2510   70.3600  225.8400 C   0  0  0  0  0  0  0  0  0  0  0  0
  140.3830   71.5400  224.9760 C   0  0  0  0  0  0  0  0  0  0  0  0
  140.5850   73.3630  222.5110 N   0  0  0  0  0  0  0  0  0  0  0  0
  138.9780   76.3100  222.6590 C   0  0  0  0  0  0  0  0  0  0  0  0
  135.9950   75.7810  224.1500 N   0  0  0  0  0  0  0  0  0  0  0  0
  134.9062   75.1692  226.9584 H   0  0  0  0  0  0  0  0  0  0  0  0
  134.3843   76.5993  226.0049 H   0  0  0  0  0  0  0  0  0  0  0  0
  133.3852   75.1065  226.0049 H   0  0  0  0  0  0  0  0  0  0  0  0
  134.3531   72.9778  225.0273 H   0  0  0  0  0  0  0  0  0  0  0  0
  135.6453   72.1944  223.0644 H   0  0  0  0  0  0  0  0  0  0  0  0
  135.9606   76.7460  221.1103 H   0  0  0  0  0  0  0  0  0  0  0  0
  137.2649   77.9426  221.2518 H   0  0  0  0  0  0  0  0  0  0  0  0
  137.0004   75.5874  219.4760 H   0  0  0  0  0  0  0  0  0  0  0  0
  138.0154   77.0962  219.3119 H   0  0  0  0  0  0  0  0  0  0  0  0
  138.6791   74.4891  220.6615 H   0  0  0  0  0  0  0  0  0  0  0  0
  139.5742   75.3892  219.3864 H   0  0  0  0  0  0  0  0  0  0  0  0
  139.9497   77.2177  220.9597 H   0  0  0  0  0  0  0  0  0  0  0  0
  141.8150   76.1580  221.8930 H   0  0  0  0  0  0  0  0  0  0  0  0
  143.9793   72.3944  218.2016 H   0  0  0  0  0  0  0  0  0  0  0  0
  144.3720   72.9285  219.8840 H   0  0  0  0  0  0  0  0  0  0  0  0
  146.0437   71.3696  218.6879 H   0  0  0  0  0  0  0  0  0  0  0  0
  145.5286   70.9568  220.3722 H   0  0  0  0  0  0  0  0  0  0  0  0
  145.9168   70.6807  216.6269 H   0  0  0  0  0  0  0  0  0  0  0  0
  147.1926   69.3732  214.9461 H   0  0  0  0  0  0  0  0  0  0  0  0
  147.4555   66.8989  215.3164 H   0  0  0  0  0  0  0  0  0  0  0  0
  146.4399   65.9062  217.3249 H   0  0  0  0  0  0  0  0  0  0  0  0
  143.2697   68.2570  219.0821 H   0  0  0  0  0  0  0  0  0  0  0  0
  143.6395   69.1466  220.5722 H   0  0  0  0  0  0  0  0  0  0  0  0
  142.3373   70.3619  218.0415 H   0  0  0  0  0  0  0  0  0  0  0  0
  141.4482   69.9372  219.5148 H   0  0  0  0  0  0  0  0  0  0  0  0
  138.0855   70.9701  222.8959 H   0  0  0  0  0  0  0  0  0  0  0  0
  139.3872   69.7407  222.4482 H   0  0  0  0  0  0  0  0  0  0  0  0
  137.4978   69.7912  224.6170 H   0  0  0  0  0  0  0  0  0  0  0  0
  138.5242   68.4586  223.8515 H   0  0  0  0  0  0  0  0  0  0  0  0
  138.4871   67.4547  226.0480 H   0  0  0  0  0  0  0  0  0  0  0  0
  139.8916   67.2915  228.0624 H   0  0  0  0  0  0  0  0  0  0  0  0
  141.5125   69.0360  228.6861 H   0  0  0  0  0  0  0  0  0  0  0  0
  141.7490   71.0631  227.2152 H   0  0  0  0  0  0  0  0  0  0  0  0
  139.7462   72.3393  225.3829 H   0  0  0  0  0  0  0  0  0  0  0  0
  141.4493   71.8099  224.9676 H   0  0  0  0  0  0  0  0  0  0  0  0
  139.2959   75.5146  223.3491 H   0  0  0  0  0  0  0  0  0  0  0  0
  139.1585   77.2775  223.1502 H   0  0  0  0  0  0  0  0  0  0  0  0
  1  2  1  0
  2  3  2  0
  3  4  1  0
  4  5  2  0
  5  6  1  0
  6  7  1  0
  7  8  1  0
  8  9  1  0
  9 10  1  0
 10 11  1  0
 11 12  1  0
 12 13  1  0
 13 14  2  0
 14 15  1  0
 15 16  1  0
 16 17  1  0
 17 18  1  0
 18 19  1  0
 19 20  1  0
 20 21  2  0
 21 22  1  0
 22 23  2  0
 23 24  1  0
 24 25  2  0
 19 26  1  0
 26 27  1  0
 15 28  2  0
 28 29  1  0
 29 30  1  0
 30 31  1  0
 31 32  1  0
 32 33  1  0
 33 34  2  0
 34 35  1  0
 35 36  2  0
 36 37  1  0
 37 38  2  0
 38 39  1  0
 29 40  2  0
 11 41  1  0
  6 42  2  0
 42  2  1  0
 41  7  1  0
 40 13  1  0
 27 16  1  0
 39 30  1  0
 25 20  1  0
 38 33  1  0
  1 43  1  0
  1 44  1  0
  1 45  1  0
  3 46  1  0
  4 47  1  0
  8 48  1  0
  8 49  1  0
  9 50  1  0
  9 51  1  0
 10 52  1  0
 10 53  1  0
 11 54  1  6
 12 55  1  0
 17 56  1  0
 17 57  1  0
 18 58  1  0
 18 59  1  0
 21 60  1  0
 22 61  1  0
 23 62  1  0
 24 63  1  0
 26 64  1  0
 26 65  1  0
 27 66  1  0
 27 67  1  0
 31 68  1  0
 31 69  1  0
 32 70  1  0
 32 71  1  0
 34 72  1  0
 35 73  1  0
 36 74  1  0
 37 75  1  0
 39 76  1  0
 39 77  1  0
 41 78  1  0
 41 79  1  0
M  END
>  <smiles>  (26) 
Cc1ccnc(N2CCCC(Nc3nc(N4CCN(c5ccccn5)CC4)nc(N4CCc5ccccc5C4)n3)C2)n1

>  <score_type>  (26) 
oracle

>  <origin>  (26) 
autodockgpu

>  <m_score__min__energy>  (26) 
-10.5

>  <m_primary>  (26) 
energy

>  <rmsd>  (26) 
8.428786555077407

>  <m_score__min__rmsd>  (26) 
8.428786555077407

>  <meeko>  (26) 
{"free_energy": -9.01, "intermolecular_energy": -10.8, "internal_energy": -1.91, "cluster_size": 3, "cluster_id": 5, "rank_in_cluster": 2}

>  <energy>  (26) 
-9.17

>  <cluster_rmsd>  (26) 
0.48

>  <cluster>  (26) 
4

$$$$

     RDKit          3D

 79 85  0  0  1  0  0  0  0  0999 V2000
  142.8460   81.5940  217.5810 C   0  0  0  0  0  0  0  0  0  0  0  0
  142.5060   80.2640  218.1310 C   0  0  0  0  0  0  0  0  0  0  0  0
  142.9520   79.1180  217.4710 C   0  0  0  0  0  0  0  0  0  0  0  0
  142.6070   77.9020  218.0240 C   0  0  0  0  0  0  0  0  0  0  0  0
  141.8770   77.7810  219.1460 N   0  0  0  0  0  0  0  0  0  0  0  0
  141.4610   78.9100  219.7590 C   0  0  0  0  0  0  0  0  0  0  0  0
  140.6900   78.7410  220.9410 N   0  0  0  0  0  0  0  0  0  0  0  0
  141.0740   79.4480  222.1470 C   0  0  0  0  0  0  0  0  0  0  0  0
  141.5130   78.4020  223.1380 C   0  0  0  0  0  0  0  0  0  0  0  0
  141.0280   77.0220  222.8010 C   0  0  0  0  0  0  0  0  0  0  0  0
  139.6030   77.0860  222.2900 C   0  0  2  0  0  0  0  0  0  0  0  0
  139.0640   75.7740  222.0400 N   0  0  0  0  0  0  0  0  0  0  0  0
  139.8520   74.5960  221.9420 C   0  0  0  0  0  0  0  0  0  0  0  0
  140.9050   74.4760  221.1150 N   0  0  0  0  0  0  0  0  0  0  0  0
  141.6000   73.3150  221.0850 C   0  0  0  0  0  0  0  0  0  0  0  0
  142.7050   73.1920  220.2130 N   0  0  0  0  0  0  0  0  0  0  0  0
  142.9490   71.9890  219.4260 C   0  0  0  0  0  0  0  0  0  0  0  0
  143.1610   72.3270  217.9660 C   0  0  0  0  0  0  0  0  0  0  0  0
  144.0100   73.5030  217.8160 N   0  0  0  0  0  0  0  0  0  0  0  0
  145.1410   73.4570  216.9590 C   0  0  0  0  0  0  0  0  0  0  0  0
  145.6890   74.5540  216.3430 C   0  0  0  0  0  0  0  0  0  0  0  0
  146.7950   74.4850  215.5060 C   0  0  0  0  0  0  0  0  0  0  0  0
  147.3580   73.2470  215.2950 C   0  0  0  0  0  0  0  0  0  0  0  0
  146.7840   72.1740  215.9260 C   0  0  0  0  0  0  0  0  0  0  0  0
  145.7220   72.2670  216.7250 N   0  0  0  0  0  0  0  0  0  0  0  0
  143.6180   74.6720  218.5770 C   0  0  0  0  0  0  0  0  0  0  0  0
  143.6720   74.2660  220.0540 C   0  0  0  0  0  0  0  0  0  0  0  0
  141.2720   72.2670  221.8640 N   0  0  0  0  0  0  0  0  0  0  0  0
  140.2230   72.3700  222.6970 C   0  0  0  0  0  0  0  0  0  0  0  0
  139.8140   71.3080  223.5580 N   0  0  0  0  0  0  0  0  0  0  0  0
  139.3410   70.0750  222.9720 C   0  0  0  0  0  0  0  0  0  0  0  0
  139.2150   68.9260  223.8980 C   0  0  0  0  0  0  0  0  0  0  0  0
  139.8590   69.0760  225.2090 C   0  0  0  0  0  0  0  0  0  0  0  0
  140.1360   67.8990  225.9160 C   0  0  0  0  0  0  0  0  0  0  0  0
  140.7340   68.0340  227.1400 C   0  0  0  0  0  0  0  0  0  0  0  0
  141.0700   69.2500  227.6990 C   0  0  0  0  0  0  0  0  0  0  0  0
  140.7860   70.4080  226.9820 C   0  0  0  0  0  0  0  0  0  0  0  0
  140.1860   70.2920  225.7540 C   0  0  0  0  0  0  0  0  0  0  0  0
  139.8850   71.5100  224.9910 C   0  0  0  0  0  0  0  0  0  0  0  0
  139.5560   73.5310  222.7020 N   0  0  0  0  0  0  0  0  0  0  0  0
  139.5130   77.8780  221.0010 C   0  0  0  0  0  0  0  0  0  0  0  0
  141.7760   80.1140  219.2530 N   0  0  0  0  0  0  0  0  0  0  0  0
  143.0258   82.2974  218.4073 H   0  0  0  0  0  0  0  0  0  0  0  0
  143.7527   81.5145  216.9633 H   0  0  0  0  0  0  0  0  0  0  0  0
  142.0124   81.9594  216.9633 H   0  0  0  0  0  0  0  0  0  0  0  0
  143.5517   79.1814  216.5511 H   0  0  0  0  0  0  0  0  0  0  0  0
  142.9467   76.9847  217.5209 H   0  0  0  0  0  0  0  0  0  0  0  0
  141.9020   80.1401  221.9338 H   0  0  0  0  0  0  0  0  0  0  0  0
  140.2367   80.0421  222.5421 H   0  0  0  0  0  0  0  0  0  0  0  0
  142.6125   78.3881  223.1665 H   0  0  0  0  0  0  0  0  0  0  0  0
  141.0758   78.6718  224.1106 H   0  0  0  0  0  0  0  0  0  0  0  0
  141.6747   76.5878  222.0243 H   0  0  0  0  0  0  0  0  0  0  0  0
  141.0605   76.3962  223.7050 H   0  0  0  0  0  0  0  0  0  0  0  0
  139.0198   77.5814  223.0802 H   0  0  0  0  0  0  0  0  0  0  0  0
  138.0260   75.7030  221.9260 H   0  0  0  0  0  0  0  0  0  0  0  0
  143.8465   71.4832  219.8117 H   0  0  0  0  0  0  0  0  0  0  0  0
  142.0700   71.3329  219.5088 H   0  0  0  0  0  0  0  0  0  0  0  0
  143.6397   71.4724  217.4655 H   0  0  0  0  0  0  0  0  0  0  0  0
  142.1825   72.5431  217.5124 H   0  0  0  0  0  0  0  0  0  0  0  0
  145.2292   75.5373  216.5211 H   0  0  0  0  0  0  0  0  0  0  0  0
  147.2061   75.3870  215.0290 H   0  0  0  0  0  0  0  0  0  0  0  0
  148.2361   73.1232  214.6441 H   0  0  0  0  0  0  0  0  0  0  0  0
  147.2253   71.1796  215.7634 H   0  0  0  0  0  0  0  0  0  0  0  0
  144.3141   75.5018  218.3850 H   0  0  0  0  0  0  0  0  0  0  0  0
  142.6110   75.0125  218.2939 H   0  0  0  0  0  0  0  0  0  0  0  0
  144.6804   73.9136  220.3163 H   0  0  0  0  0  0  0  0  0  0  0  0
  143.4404   75.1158  220.7129 H   0  0  0  0  0  0  0  0  0  0  0  0
  138.3494   70.2673  222.5365 H   0  0  0  0  0  0  0  0  0  0  0  0
  140.1048   69.7825  222.2364 H   0  0  0  0  0  0  0  0  0  0  0  0
  138.1429   68.7489  224.0691 H   0  0  0  0  0  0  0  0  0  0  0  0
  139.7389   68.0930  223.4064 H   0  0  0  0  0  0  0  0  0  0  0  0
  139.8842   66.9099  225.5058 H   0  0  0  0  0  0  0  0  0  0  0  0
  140.9595   67.1209  227.7105 H   0  0  0  0  0  0  0  0  0  0  0  0
  141.5505   69.3025  228.6871 H   0  0  0  0  0  0  0  0  0  0  0  0
  141.0377   71.3972  227.3919 H   0  0  0  0  0  0  0  0  0  0  0  0
  138.9155   71.9012  225.3332 H   0  0  0  0  0  0  0  0  0  0  0  0
  140.7136   72.2105  225.1719 H   0  0  0  0  0  0  0  0  0  0  0  0
  139.5023   77.1948  220.1389 H   0  0  0  0  0  0  0  0  0  0  0  0
  138.5894   78.4749  220.9732 H   0  0  0  0  0  0  0  0  0  0  0  0
  1  2  1  0
  2  3  2  0
  3  4  1  0
  4  5  2  0
  5  6  1  0
  6  7  1  0
  7  8  1  0
  8  9  1  0
  9 10  1  0
 10 11  1  0
 11 12  1  0
 12 13  1  0
 13 14  2  0
 14 15  1  0
 15 16  1  0
 16 17  1  0
 17 18  1  0
 18 19  1  0
 19 20  1  0
 20 21  2  0
 21 22  1  0
 22 23  2  0
 23 24  1  0
 24 25  2  0
 19 26  1  0
 26 27  1  0
 15 28  2  0
 28 29  1  0
 29 30  1  0
 30 31  1  0
 31 32  1  0
 32 33  1  0
 33 34  2  0
 34 35  1  0
 35 36  2  0
 36 37  1  0
 37 38  2  0
 38 39  1  0
 29 40  2  0
 11 41  1  0
  6 42  2  0
 42  2  1  0
 41  7  1  0
 40 13  1  0
 27 16  1  0
 39 30  1  0
 25 20  1  0
 38 33  1  0
  1 43  1  0
  1 44  1  0
  1 45  1  0
  3 46  1  0
  4 47  1  0
  8 48  1  0
  8 49  1  0
  9 50  1  0
  9 51  1  0
 10 52  1  0
 10 53  1  0
 11 54  1  1
 12 55  1  0
 17 56  1  0
 17 57  1  0
 18 58  1  0
 18 59  1  0
 21 60  1  0
 22 61  1  0
 23 62  1  0
 24 63  1  0
 26 64  1  0
 26 65  1  0
 27 66  1  0
 27 67  1  0
 31 68  1  0
 31 69  1  0
 32 70  1  0
 32 71  1  0
 34 72  1  0
 35 73  1  0
 36 74  1  0
 37 75  1  0
 39 76  1  0
 39 77  1  0
 41 78  1  0
 41 79  1  0
M  END
>  <smiles>  (27) 
Cc1ccnc(N2CCCC(Nc3nc(N4CCN(c5ccccn5)CC4)nc(N4CCc5ccccc5C4)n3)C2)n1

>  <score_type>  (27) 
oracle

>  <origin>  (27) 
autodockgpu

>  <m_score__min__energy>  (27) 
-10.5

>  <m_primary>  (27) 
energy

>  <rmsd>  (27) 
8.577461629577876

>  <m_score__min__rmsd>  (27) 
8.577461629577876

>  <meeko>  (27) 
{"free_energy": -8.76, "intermolecular_energy": -10.55, "internal_energy": -1.89, "cluster_size": 2, "cluster_id": 8, "rank_in_cluster": 1}

>  <energy>  (27) 
-9.13

>  <cluster_rmsd>  (27) 
0.73

>  <cluster>  (27) 
4

$$$$

     RDKit          3D

 79 85  0  0  1  0  0  0  0  0999 V2000
  142.1410   78.6550  215.5840 C   0  0  0  0  0  0  0  0  0  0  0  0
  142.4510   77.8570  216.7900 C   0  0  0  0  0  0  0  0  0  0  0  0
  142.3380   78.4490  218.0480 C   0  0  0  0  0  0  0  0  0  0  0  0
  142.6400   77.6620  219.1410 C   0  0  0  0  0  0  0  0  0  0  0  0
  143.0280   76.3800  219.0420 N   0  0  0  0  0  0  0  0  0  0  0  0
  143.1280   75.8380  217.8100 C   0  0  0  0  0  0  0  0  0  0  0  0
  143.5440   74.4790  217.7460 N   0  0  0  0  0  0  0  0  0  0  0  0
  143.4800   73.7750  216.4810 C   0  0  0  0  0  0  0  0  0  0  0  0
  142.4320   72.7040  216.6360 C   0  0  0  0  0  0  0  0  0  0  0  0
  142.1130   72.3870  218.0680 C   0  0  0  0  0  0  0  0  0  0  0  0
  143.3850   72.3810  218.8920 C   0  0  2  0  0  0  0  0  0  0  0  0
  143.1400   71.9910  220.2560 N   0  0  0  0  0  0  0  0  0  0  0  0
  142.0870   72.5150  221.0550 C   0  0  0  0  0  0  0  0  0  0  0  0
  141.6360   73.7760  220.9520 N   0  0  0  0  0  0  0  0  0  0  0  0
  140.6290   74.1920  221.7550 C   0  0  0  0  0  0  0  0  0  0  0  0
  140.1590   75.5200  221.6450 N   0  0  0  0  0  0  0  0  0  0  0  0
  138.7390   75.8500  221.6600 C   0  0  0  0  0  0  0  0  0  0  0  0
  138.4430   76.9330  222.6740 C   0  0  0  0  0  0  0  0  0  0  0  0
  139.4540   77.9840  222.6330 N   0  0  0  0  0  0  0  0  0  0  0  0
  139.0610   79.3430  222.5210 C   0  0  0  0  0  0  0  0  0  0  0  0
  139.4720   80.1860  221.5190 C   0  0  0  0  0  0  0  0  0  0  0  0
  139.0760   81.5140  221.4290 C   0  0  0  0  0  0  0  0  0  0  0  0
  138.2300   81.9930  222.4030 C   0  0  0  0  0  0  0  0  0  0  0  0
  137.8400   81.1230  223.3880 C   0  0  0  0  0  0  0  0  0  0  0  0
  138.2340   79.8520  223.4510 N   0  0  0  0  0  0  0  0  0  0  0  0
  140.8320   77.5440  222.7180 C   0  0  0  0  0  0  0  0  0  0  0  0
  141.0740   76.6410  221.5030 C   0  0  0  0  0  0  0  0  0  0  0  0
  140.0570   73.3770  222.6610 N   0  0  0  0  0  0  0  0  0  0  0  0
  140.4950   72.1110  222.7770 C   0  0  0  0  0  0  0  0  0  0  0  0
  139.9380   71.1840  223.7080 N   0  0  0  0  0  0  0  0  0  0  0  0
  139.3320   69.9710  223.2090 C   0  0  0  0  0  0  0  0  0  0  0  0
  139.0440   68.9300  224.2220 C   0  0  0  0  0  0  0  0  0  0  0  0
  139.6710   69.1130  225.5370 C   0  0  0  0  0  0  0  0  0  0  0  0
  139.7850   67.9750  226.3480 C   0  0  0  0  0  0  0  0  0  0  0  0
  140.3660   68.1420  227.5750 C   0  0  0  0  0  0  0  0  0  0  0  0
  140.8350   69.3520  228.0440 C   0  0  0  0  0  0  0  0  0  0  0  0
  140.7120   70.4700  227.2250 C   0  0  0  0  0  0  0  0  0  0  0  0
  140.1320   70.3220  225.9910 C   0  0  0  0  0  0  0  0  0  0  0  0
  140.0000   71.4980  225.1210 C   0  0  0  0  0  0  0  0  0  0  0  0
  141.4920   71.7320  221.9690 N   0  0  0  0  0  0  0  0  0  0  0  0
  144.0380   73.7490  218.9110 C   0  0  0  0  0  0  0  0  0  0  0  0
  142.8430   76.5700  216.7200 N   0  0  0  0  0  0  0  0  0  0  0  0
  141.7579   79.6411  215.8853 H   0  0  0  0  0  0  0  0  0  0  0  0
  143.0545   78.7839  214.9848 H   0  0  0  0  0  0  0  0  0  0  0  0
  141.3801   78.1335  214.9848 H   0  0  0  0  0  0  0  0  0  0  0  0
  142.0223   79.4963  218.1638 H   0  0  0  0  0  0  0  0  0  0  0  0
  142.5588   78.1072  220.1436 H   0  0  0  0  0  0  0  0  0  0  0  0
  143.1977   74.4682  215.6749 H   0  0  0  0  0  0  0  0  0  0  0  0
  144.4559   73.3397  216.2198 H   0  0  0  0  0  0  0  0  0  0  0  0
  141.5106   73.0430  216.1400 H   0  0  0  0  0  0  0  0  0  0  0  0
  142.8345   71.7867  216.1816 H   0  0  0  0  0  0  0  0  0  0  0  0
  141.4250   73.1478  218.4652 H   0  0  0  0  0  0  0  0  0  0  0  0
  141.6422   71.3943  218.1224 H   0  0  0  0  0  0  0  0  0  0  0  0
  144.0516   71.6491  218.4125 H   0  0  0  0  0  0  0  0  0  0  0  0
  143.7850   71.2780  220.6680 H   0  0  0  0  0  0  0  0  0  0  0  0
  138.4412   76.2017  220.6612 H   0  0  0  0  0  0  0  0  0  0  0  0
  138.1733   74.9480  221.9364 H   0  0  0  0  0  0  0  0  0  0  0  0
  137.4592   77.3725  222.4528 H   0  0  0  0  0  0  0  0  0  0  0  0
  138.4494   76.4822  223.6774 H   0  0  0  0  0  0  0  0  0  0  0  0
  140.1493   79.7897  220.7482 H   0  0  0  0  0  0  0  0  0  0  0  0
  139.4256   82.1592  220.6095 H   0  0  0  0  0  0  0  0  0  0  0  0
  137.8796   83.0356  222.3916 H   0  0  0  0  0  0  0  0  0  0  0  0
  137.1632   81.4956  224.1710 H   0  0  0  0  0  0  0  0  0  0  0  0
  141.5101   78.4096  222.6897 H   0  0  0  0  0  0  0  0  0  0  0  0
  141.0214   77.0060  223.6586 H   0  0  0  0  0  0  0  0  0  0  0  0
  140.8649   77.1890  220.5724 H   0  0  0  0  0  0  0  0  0  0  0  0
  142.1196   76.3027  221.4557 H   0  0  0  0  0  0  0  0  0  0  0  0
  138.3823   70.2427  222.7250 H   0  0  0  0  0  0  0  0  0  0  0  0
  140.0714   69.5268  222.5264 H   0  0  0  0  0  0  0  0  0  0  0  0
  137.9546   68.8993  224.3711 H   0  0  0  0  0  0  0  0  0  0  0  0
  139.4726   68.0007  223.8187 H   0  0  0  0  0  0  0  0  0  0  0  0
  139.4234   66.9918  226.0125 H   0  0  0  0  0  0  0  0  0  0  0  0
  140.4651   67.2606  228.2256 H   0  0  0  0  0  0  0  0  0  0  0  0
  141.2946   69.4307  229.0403 H   0  0  0  0  0  0  0  0  0  0  0  0
  141.0729   71.4534  227.5607 H   0  0  0  0  0  0  0  0  0  0  0  0
  139.0780   72.0305  225.3974 H   0  0  0  0  0  0  0  0  0  0  0  0
  140.9035   72.1071  225.2714 H   0  0  0  0  0  0  0  0  0  0  0  0
  143.7669   74.2833  219.8335 H   0  0  0  0  0  0  0  0  0  0  0  0
  145.1339   73.6593  218.8801 H   0  0  0  0  0  0  0  0  0  0  0  0
  1  2  1  0
  2  3  2  0
  3  4  1  0
  4  5  2  0
  5  6  1  0
  6  7  1  0
  7  8  1  0
  8  9  1  0
  9 10  1  0
 10 11  1  0
 11 12  1  0
 12 13  1  0
 13 14  2  0
 14 15  1  0
 15 16  1  0
 16 17  1  0
 17 18  1  0
 18 19  1  0
 19 20  1  0
 20 21  2  0
 21 22  1  0
 22 23  2  0
 23 24  1  0
 24 25  2  0
 19 26  1  0
 26 27  1  0
 15 28  2  0
 28 29  1  0
 29 30  1  0
 30 31  1  0
 31 32  1  0
 32 33  1  0
 33 34  2  0
 34 35  1  0
 35 36  2  0
 36 37  1  0
 37 38  2  0
 38 39  1  0
 29 40  2  0
 11 41  1  0
  6 42  2  0
 42  2  1  0
 41  7  1  0
 40 13  1  0
 27 16  1  0
 39 30  1  0
 25 20  1  0
 38 33  1  0
  1 43  1  0
  1 44  1  0
  1 45  1  0
  3 46  1  0
  4 47  1  0
  8 48  1  0
  8 49  1  0
  9 50  1  0
  9 51  1  0
 10 52  1  0
 10 53  1  0
 11 54  1  6
 12 55  1  0
 17 56  1  0
 17 57  1  0
 18 58  1  0
 18 59  1  0
 21 60  1  0
 22 61  1  0
 23 62  1  0
 24 63  1  0
 26 64  1  0
 26 65  1  0
 27 66  1  0
 27 67  1  0
 31 68  1  0
 31 69  1  0
 32 70  1  0
 32 71  1  0
 34 72  1  0
 35 73  1  0
 36 74  1  0
 37 75  1  0
 39 76  1  0
 39 77  1  0
 41 78  1  0
 41 79  1  0
M  END
>  <smiles>  (28) 
Cc1ccnc(N2CCCC(Nc3nc(N4CCN(c5ccccn5)CC4)nc(N4CCc5ccccc5C4)n3)C2)n1

>  <score_type>  (28) 
oracle

>  <origin>  (28) 
autodockgpu

>  <m_score__min__energy>  (28) 
-10.5

>  <m_primary>  (28) 
energy

>  <rmsd>  (28) 
8.375214843832858

>  <m_score__min__rmsd>  (28) 
8.375214843832858

>  <meeko>  (28) 
{"free_energy": -8.72, "intermolecular_energy": -10.51, "internal_energy": -1.96, "cluster_size": 10, "cluster_id": 9, "rank_in_cluster": 3}

>  <energy>  (28) 
-9.13

>  <cluster_rmsd>  (28) 
0.0

>  <cluster>  (28) 
5

$$$$

     RDKit          3D

 79 85  0  0  1  0  0  0  0  0999 V2000
  140.8050   67.7970  227.4590 C   0  0  0  0  0  0  0  0  0  0  0  0
  140.5330   68.9700  226.6000 C   0  0  0  0  0  0  0  0  0  0  0  0
  141.4540   70.0170  226.5620 C   0  0  0  0  0  0  0  0  0  0  0  0
  141.1520   71.0880  225.7450 C   0  0  0  0  0  0  0  0  0  0  0  0
  140.0350   71.1590  225.0030 N   0  0  0  0  0  0  0  0  0  0  0  0
  139.1640   70.1290  225.0630 C   0  0  0  0  0  0  0  0  0  0  0  0
  137.9930   70.2410  224.2660 N   0  0  0  0  0  0  0  0  0  0  0  0
  137.4280   69.0510  223.6610 C   0  0  0  0  0  0  0  0  0  0  0  0
  137.5950   69.2030  222.1720 C   0  0  0  0  0  0  0  0  0  0  0  0
  137.8450   70.6200  221.7430 C   0  0  0  0  0  0  0  0  0  0  0  0
  136.9750   71.5640  222.5470 C   0  0  2  0  0  0  0  0  0  0  0  0
  137.1140   72.9280  222.1070 N   0  0  0  0  0  0  0  0  0  0  0  0
  138.3480   73.5140  221.7120 C   0  0  0  0  0  0  0  0  0  0  0  0
  139.3560   72.8170  221.1610 N   0  0  0  0  0  0  0  0  0  0  0  0
  140.4980   73.4570  220.8160 C   0  0  0  0  0  0  0  0  0  0  0  0
  141.5560   72.7200  220.2390 N   0  0  0  0  0  0  0  0  0  0  0  0
  142.9570   73.0550  220.4670 C   0  0  0  0  0  0  0  0  0  0  0  0
  143.7410   71.8410  220.9150 C   0  0  0  0  0  0  0  0  0  0  0  0
  143.3720   70.6610  220.1420 N   0  0  0  0  0  0  0  0  0  0  0  0
  144.3790   69.8710  219.5280 C   0  0  0  0  0  0  0  0  0  0  0  0
  145.0630   70.2330  218.3950 C   0  0  0  0  0  0  0  0  0  0  0  0
  146.0440   69.4430  217.8110 C   0  0  0  0  0  0  0  0  0  0  0  0
  146.3310   68.2380  218.4110 C   0  0  0  0  0  0  0  0  0  0  0  0
  145.6290   67.9080  219.5410 C   0  0  0  0  0  0  0  0  0  0  0  0
  144.6920   68.6860  220.0810 N   0  0  0  0  0  0  0  0  0  0  0  0
  141.9540   70.3730  220.0590 C   0  0  0  0  0  0  0  0  0  0  0  0
  141.3050   71.5800  219.3720 C   0  0  0  0  0  0  0  0  0  0  0  0
  140.6590   74.7800  221.0050 N   0  0  0  0  0  0  0  0  0  0  0  0
  139.6610   75.4930  221.5550 C   0  0  0  0  0  0  0  0  0  0  0  0
  139.7510   76.8980  221.7840 N   0  0  0  0  0  0  0  0  0  0  0  0
  138.6330   77.5800  222.3940 C   0  0  0  0  0  0  0  0  0  0  0  0
  138.8980   78.9580  222.8690 C   0  0  0  0  0  0  0  0  0  0  0  0
  140.3090   79.3570  222.9460 C   0  0  0  0  0  0  0  0  0  0  0  0
  140.6140   80.4440  223.7760 C   0  0  0  0  0  0  0  0  0  0  0  0
  141.9280   80.8210  223.8500 C   0  0  0  0  0  0  0  0  0  0  0  0
  142.9450   80.1950  223.1590 C   0  0  0  0  0  0  0  0  0  0  0  0
  142.6220   79.1180  222.3400 C   0  0  0  0  0  0  0  0  0  0  0  0
  141.3110   78.7250  222.2540 C   0  0  0  0  0  0  0  0  0  0  0  0
  140.9630   77.5890  221.3910 C   0  0  0  0  0  0  0  0  0  0  0  0
  138.5460   74.8300  221.8860 N   0  0  0  0  0  0  0  0  0  0  0  0
  137.3220   71.5150  224.0220 C   0  0  0  0  0  0  0  0  0  0  0  0
  139.4210   69.0670  225.8460 N   0  0  0  0  0  0  0  0  0  0  0  0
  140.7364   68.0929  228.5162 H   0  0  0  0  0  0  0  0  0  0  0  0
  140.0655   67.0100  227.2498 H   0  0  0  0  0  0  0  0  0  0  0  0
  141.8154   67.4157  227.2498 H   0  0  0  0  0  0  0  0  0  0  0  0
  142.3793   69.9904  227.1563 H   0  0  0  0  0  0  0  0  0  0  0  0
  141.8628   71.9262  225.6995 H   0  0  0  0  0  0  0  0  0  0  0  0
  137.9622   68.1562  224.0132 H   0  0  0  0  0  0  0  0  0  0  0  0
  136.3680   68.9345  223.9309 H   0  0  0  0  0  0  0  0  0  0  0  0
  138.4474   68.5859  221.8517 H   0  0  0  0  0  0  0  0  0  0  0  0
  136.6521   68.8831  221.7045 H   0  0  0  0  0  0  0  0  0  0  0  0
  138.9035   70.8696  221.9083 H   0  0  0  0  0  0  0  0  0  0  0  0
  137.6006   70.7233  220.6755 H   0  0  0  0  0  0  0  0  0  0  0  0
  135.9394   71.2282  222.3898 H   0  0  0  0  0  0  0  0  0  0  0  0
  136.2450   73.5090  222.0820 H   0  0  0  0  0  0  0  0  0  0  0  0
  143.3915   73.4384  219.5320 H   0  0  0  0  0  0  0  0  0  0  0  0
  143.0099   73.8169  221.2586 H   0  0  0  0  0  0  0  0  0  0  0  0
  144.8149   72.0373  220.7798 H   0  0  0  0  0  0  0  0  0  0  0  0
  143.5123   71.6496  221.9738 H   0  0  0  0  0  0  0  0  0  0  0  0
  144.8219   71.1981  217.9256 H   0  0  0  0  0  0  0  0  0  0  0  0
  146.5723   69.7680  216.9025 H   0  0  0  0  0  0  0  0  0  0  0  0
  147.0962   67.5640  217.9985 H   0  0  0  0  0  0  0  0  0  0  0  0
  145.8516   66.9476  220.0290 H   0  0  0  0  0  0  0  0  0  0  0  0
  141.7852   69.4620  219.4661 H   0  0  0  0  0  0  0  0  0  0  0  0
  141.5231   70.2036  221.0568 H   0  0  0  0  0  0  0  0  0  0  0  0
  141.7575   71.7454  218.3831 H   0  0  0  0  0  0  0  0  0  0  0  0
  140.2275   71.4227  219.2164 H   0  0  0  0  0  0  0  0  0  0  0  0
  137.8224   77.6291  221.6521 H   0  0  0  0  0  0  0  0  0  0  0  0
  138.3830   76.9976  223.2931 H   0  0  0  0  0  0  0  0  0  0  0  0
  138.3897   79.6527  222.1841 H   0  0  0  0  0  0  0  0  0  0  0  0
  138.5263   78.9893  223.9038 H   0  0  0  0  0  0  0  0  0  0  0  0
  139.8324   80.9710  224.3429 H   0  0  0  0  0  0  0  0  0  0  0  0
  142.1878   81.6716  224.4973 H   0  0  0  0  0  0  0  0  0  0  0  0
  143.9855   80.5391  223.2534 H   0  0  0  0  0  0  0  0  0  0  0  0
  143.4033   78.5916  221.7721 H   0  0  0  0  0  0  0  0  0  0  0  0
  140.8307   77.9623  220.3648 H   0  0  0  0  0  0  0  0  0  0  0  0
  141.7845   76.8624  221.4756 H   0  0  0  0  0  0  0  0  0  0  0  0
  137.9915   72.3489  224.2795 H   0  0  0  0  0  0  0  0  0  0  0  0
  136.4159   71.6035  224.6393 H   0  0  0  0  0  0  0  0  0  0  0  0
  1  2  1  0
  2  3  2  0
  3  4  1  0
  4  5  2  0
  5  6  1  0
  6  7  1  0
  7  8  1  0
  8  9  1  0
  9 10  1  0
 10 11  1  0
 11 12  1  0
 12 13  1  0
 13 14  2  0
 14 15  1  0
 15 16  1  0
 16 17  1  0
 17 18  1  0
 18 19  1  0
 19 20  1  0
 20 21  2  0
 21 22  1  0
 22 23  2  0
 23 24  1  0
 24 25  2  0
 19 26  1  0
 26 27  1  0
 15 28  2  0
 28 29  1  0
 29 30  1  0
 30 31  1  0
 31 32  1  0
 32 33  1  0
 33 34  2  0
 34 35  1  0
 35 36  2  0
 36 37  1  0
 37 38  2  0
 38 39  1  0
 29 40  2  0
 11 41  1  0
  6 42  2  0
 42  2  1  0
 41  7  1  0
 40 13  1  0
 27 16  1  0
 39 30  1  0
 25 20  1  0
 38 33  1  0
  1 43  1  0
  1 44  1  0
  1 45  1  0
  3 46  1  0
  4 47  1  0
  8 48  1  0
  8 49  1  0
  9 50  1  0
  9 51  1  0
 10 52  1  0
 10 53  1  0
 11 54  1  1
 12 55  1  0
 17 56  1  0
 17 57  1  0
 18 58  1  0
 18 59  1  0
 21 60  1  0
 22 61  1  0
 23 62  1  0
 24 63  1  0
 26 64  1  0
 26 65  1  0
 27 66  1  0
 27 67  1  0
 31 68  1  0
 31 69  1  0
 32 70  1  0
 32 71  1  0
 34 72  1  0
 35 73  1  0
 36 74  1  0
 37 75  1  0
 39 76  1  0
 39 77  1  0
 41 78  1  0
 41 79  1  0
M  END
>  <smiles>  (29) 
Cc1ccnc(N2CCCC(Nc3nc(N4CCN(c5ccccn5)CC4)nc(N4CCc5ccccc5C4)n3)C2)n1

>  <score_type>  (29) 
oracle

>  <origin>  (29) 
autodockgpu

>  <m_score__min__energy>  (29) 
-10.5

>  <m_primary>  (29) 
energy

>  <rmsd>  (29) 
6.772928617969417

>  <m_score__min__rmsd>  (29) 
6.772928617969417

>  <meeko>  (29) 
{"free_energy": -9.31, "intermolecular_energy": -11.1, "internal_energy": -1.62, "cluster_size": 9, "cluster_id": 1, "rank_in_cluster": 3}

>  <energy>  (29) 
-9.01

>  <cluster_rmsd>  (29) 
0.42

>  <cluster>  (29) 
5

$$$$

     RDKit          3D

 79 85  0  0  1  0  0  0  0  0999 V2000
  138.2700   80.5350  224.4690 C   0  0  0  0  0  0  0  0  0  0  0  0
  137.9150   80.4460  223.0360 C   0  0  0  0  0  0  0  0  0  0  0  0
  138.5410   81.2960  222.1240 C   0  0  0  0  0  0  0  0  0  0  0  0
  138.1740   81.1740  220.7990 C   0  0  0  0  0  0  0  0  0  0  0  0
  137.2600   80.2900  220.3640 N   0  0  0  0  0  0  0  0  0  0  0  0
  136.6720   79.4830  221.2740 C   0  0  0  0  0  0  0  0  0  0  0  0
  135.7100   78.5630  220.7760 N   0  0  0  0  0  0  0  0  0  0  0  0
  134.3220   78.7030  221.1710 C   0  0  0  0  0  0  0  0  0  0  0  0
  133.9890   77.4990  222.0130 C   0  0  0  0  0  0  0  0  0  0  0  0
  134.9530   76.3620  221.8340 C   0  0  0  0  0  0  0  0  0  0  0  0
  135.3310   76.2320  220.3720 C   0  0  2  0  0  0  0  0  0  0  0  0
  136.1840   75.0960  220.1370 N   0  0  0  0  0  0  0  0  0  0  0  0
  137.4430   74.9040  220.7680 C   0  0  0  0  0  0  0  0  0  0  0  0
  137.7980   73.7610  221.3800 N   0  0  0  0  0  0  0  0  0  0  0  0
  139.0190   73.6650  221.9560 C   0  0  0  0  0  0  0  0  0  0  0  0
  139.3880   72.4640  222.6010 N   0  0  0  0  0  0  0  0  0  0  0  0
  140.7310   72.2350  223.1200 C   0  0  0  0  0  0  0  0  0  0  0  0
  140.6870   71.7750  224.5600 C   0  0  0  0  0  0  0  0  0  0  0  0
  139.6300   70.7920  224.7670 N   0  0  0  0  0  0  0  0  0  0  0  0
  139.9220   69.5580  225.4050 C   0  0  0  0  0  0  0  0  0  0  0  0
  140.7450   69.4290  226.4960 C   0  0  0  0  0  0  0  0  0  0  0  0
  141.0190   68.2100  227.1040 C   0  0  0  0  0  0  0  0  0  0  0  0
  140.4280   67.0870  226.5730 C   0  0  0  0  0  0  0  0  0  0  0  0
  139.6120   67.2540  225.4840 C   0  0  0  0  0  0  0  0  0  0  0  0
  139.3650   68.4350  224.9190 N   0  0  0  0  0  0  0  0  0  0  0  0
  138.3120   71.1650  224.2920 C   0  0  0  0  0  0  0  0  0  0  0  0
  138.4410   71.3740  222.7790 C   0  0  0  0  0  0  0  0  0  0  0  0
  139.8990   74.6840  221.9350 N   0  0  0  0  0  0  0  0  0  0  0  0
  139.5610   75.8340  221.3270 C   0  0  0  0  0  0  0  0  0  0  0  0
  140.4380   76.9570  221.2570 N   0  0  0  0  0  0  0  0  0  0  0  0
  140.6020   77.6380  219.9930 C   0  0  0  0  0  0  0  0  0  0  0  0
  141.2820   78.9520  220.0510 C   0  0  0  0  0  0  0  0  0  0  0  0
  141.4350   79.5450  221.3860 C   0  0  0  0  0  0  0  0  0  0  0  0
  141.6590   80.9270  221.4430 C   0  0  0  0  0  0  0  0  0  0  0  0
  141.8040   81.4840  222.6850 C   0  0  0  0  0  0  0  0  0  0  0  0
  141.7420   80.7630  223.8590 C   0  0  0  0  0  0  0  0  0  0  0  0
  141.5180   79.3920  223.7830 C   0  0  0  0  0  0  0  0  0  0  0  0
  141.3710   78.8170  222.5470 C   0  0  0  0  0  0  0  0  0  0  0  0
  141.1340   77.3700  222.4590 C   0  0  0  0  0  0  0  0  0  0  0  0
  138.3470   75.8960  220.7680 N   0  0  0  0  0  0  0  0  0  0  0  0
  136.0560   77.4670  219.8750 C   0  0  0  0  0  0  0  0  0  0  0  0
  137.0030   79.5700  222.5730 N   0  0  0  0  0  0  0  0  0  0  0  0
  137.3833   80.3127  225.0809 H   0  0  0  0  0  0  0  0  0  0  0  0
  139.0638   79.8081  224.6959 H   0  0  0  0  0  0  0  0  0  0  0  0
  138.6269   81.5504  224.6959 H   0  0  0  0  0  0  0  0  0  0  0  0
  139.2935   82.0307  222.4464 H   0  0  0  0  0  0  0  0  0  0  0  0
  138.6541   81.8340  220.0615 H   0  0  0  0  0  0  0  0  0  0  0  0
  134.1852   79.6245  221.7560 H   0  0  0  0  0  0  0  0  0  0  0  0
  133.6643   78.7654  220.2915 H   0  0  0  0  0  0  0  0  0  0  0  0
  133.9973   77.8001  223.0710 H   0  0  0  0  0  0  0  0  0  0  0  0
  133.0002   77.1405  221.6909 H   0  0  0  0  0  0  0  0  0  0  0  0
  135.8580   76.5539  222.4291 H   0  0  0  0  0  0  0  0  0  0  0  0
  134.4784   75.4283  222.1699 H   0  0  0  0  0  0  0  0  0  0  0  0
  134.3846   76.1035  219.8263 H   0  0  0  0  0  0  0  0  0  0  0  0
  135.8400   74.3770  219.4590 H   0  0  0  0  0  0  0  0  0  0  0  0
  141.2247   71.4632  222.5112 H   0  0  0  0  0  0  0  0  0  0  0  0
  141.2901   73.1811  223.0723 H   0  0  0  0  0  0  0  0  0  0  0  0
  141.6546   71.3221  224.8218 H   0  0  0  0  0  0  0  0  0  0  0  0
  140.4818   72.6470  225.1983 H   0  0  0  0  0  0  0  0  0  0  0  0
  141.2107   70.3357  226.9095 H   0  0  0  0  0  0  0  0  0  0  0  0
  141.6840   68.1453  227.9778 H   0  0  0  0  0  0  0  0  0  0  0  0
  140.6037   66.0913  227.0063 H   0  0  0  0  0  0  0  0  0  0  0  0
  139.1341   66.3623  225.0522 H   0  0  0  0  0  0  0  0  0  0  0  0
  137.5897   70.3632  224.5052 H   0  0  0  0  0  0  0  0  0  0  0  0
  137.9510   72.0763  224.7913 H   0  0  0  0  0  0  0  0  0  0  0  0
  138.8173   70.4591  222.2981 H   0  0  0  0  0  0  0  0  0  0  0  0
  137.4684   71.6082  222.3216 H   0  0  0  0  0  0  0  0  0  0  0  0
  141.1884   76.9838  219.3310 H   0  0  0  0  0  0  0  0  0  0  0  0
  139.5839   77.8448  219.6315 H   0  0  0  0  0  0  0  0  0  0  0  0
  142.2871   78.8289  219.6213 H   0  0  0  0  0  0  0  0  0  0  0  0
  140.6329   79.6440  219.4943 H   0  0  0  0  0  0  0  0  0  0  0  0
  141.7158   81.5376  220.5298 H   0  0  0  0  0  0  0  0  0  0  0  0
  141.9799   82.5679  222.7503 H   0  0  0  0  0  0  0  0  0  0  0  0
  141.8667   81.2601  224.8323 H   0  0  0  0  0  0  0  0  0  0  0  0
  141.4600   78.7815  224.6962 H   0  0  0  0  0  0  0  0  0  0  0  0
  142.1072   76.8581  222.4880 H   0  0  0  0  0  0  0  0  0  0  0  0
  140.4878   77.1020  223.3079 H   0  0  0  0  0  0  0  0  0  0  0  0
  137.1427   77.2970  219.8883 H   0  0  0  0  0  0  0  0  0  0  0  0
  135.7616   77.7032  218.8418 H   0  0  0  0  0  0  0  0  0  0  0  0
  1  2  1  0
  2  3  2  0
  3  4  1  0
  4  5  2  0
  5  6  1  0
  6  7  1  0
  7  8  1  0
  8  9  1  0
  9 10  1  0
 10 11  1  0
 11 12  1  0
 12 13  1  0
 13 14  2  0
 14 15  1  0
 15 16  1  0
 16 17  1  0
 17 18  1  0
 18 19  1  0
 19 20  1  0
 20 21  2  0
 21 22  1  0
 22 23  2  0
 23 24  1  0
 24 25  2  0
 19 26  1  0
 26 27  1  0
 15 28  2  0
 28 29  1  0
 29 30  1  0
 30 31  1  0
 31 32  1  0
 32 33  1  0
 33 34  2  0
 34 35  1  0
 35 36  2  0
 36 37  1  0
 37 38  2  0
 38 39  1  0
 29 40  2  0
 11 41  1  0
  6 42  2  0
 42  2  1  0
 41  7  1  0
 40 13  1  0
 27 16  1  0
 39 30  1  0
 25 20  1  0
 38 33  1  0
  1 43  1  0
  1 44  1  0
  1 45  1  0
  3 46  1  0
  4 47  1  0
  8 48  1  0
  8 49  1  0
  9 50  1  0
  9 51  1  0
 10 52  1  0
 10 53  1  0
 11 54  1  6
 12 55  1  0
 17 56  1  0
 17 57  1  0
 18 58  1  0
 18 59  1  0
 21 60  1  0
 22 61  1  0
 23 62  1  0
 24 63  1  0
 26 64  1  0
 26 65  1  0
 27 66  1  0
 27 67  1  0
 31 68  1  0
 31 69  1  0
 32 70  1  0
 32 71  1  0
 34 72  1  0
 35 73  1  0
 36 74  1  0
 37 75  1  0
 39 76  1  0
 39 77  1  0
 41 78  1  0
 41 79  1  0
M  END
>  <smiles>  (30) 
Cc1ccnc(N2CCCC(Nc3nc(N4CCN(c5ccccn5)CC4)nc(N4CCc5ccccc5C4)n3)C2)n1

>  <score_type>  (30) 
oracle

>  <origin>  (30) 
autodockgpu

>  <m_score__min__energy>  (30) 
-10.5

>  <m_primary>  (30) 
energy

>  <rmsd>  (30) 
5.233786544876338

>  <m_score__min__rmsd>  (30) 
5.233786544876338

>  <meeko>  (30) 
{"free_energy": -7.74, "intermolecular_energy": -9.53, "internal_energy": -2.88, "cluster_size": 1, "cluster_id": 11, "rank_in_cluster": 1}

>  <energy>  (30) 
-8.64

>  <cluster_rmsd>  (30) 
0.57

>  <cluster>  (30) 
5

$$$$

     RDKit          3D

 79 85  0  0  1  0  0  0  0  0999 V2000
  140.9350   71.2150  226.9960 C   0  0  0  0  0  0  0  0  0  0  0  0
  140.3160   70.0590  226.3130 C   0  0  0  0  0  0  0  0  0  0  0  0
  140.2650   68.8270  226.9660 C   0  0  0  0  0  0  0  0  0  0  0  0
  139.6770   67.7800  226.2840 C   0  0  0  0  0  0  0  0  0  0  0  0
  139.1650   67.8980  225.0480 N   0  0  0  0  0  0  0  0  0  0  0  0
  139.2310   69.1050  224.4440 C   0  0  0  0  0  0  0  0  0  0  0  0
  138.6800   69.1900  223.1370 N   0  0  0  0  0  0  0  0  0  0  0  0
  138.3720   67.9720  222.4140 C   0  0  0  0  0  0  0  0  0  0  0  0
  139.3160   67.9170  221.2410 C   0  0  0  0  0  0  0  0  0  0  0  0
  139.9320   69.2450  220.9100 C   0  0  0  0  0  0  0  0  0  0  0  0
  138.8970   70.3430  221.0480 C   0  0  2  0  0  0  0  0  0  0  0  0
  139.4190   71.6250  220.6510 N   0  0  0  0  0  0  0  0  0  0  0  0
  139.0050   72.8620  221.2170 C   0  0  0  0  0  0  0  0  0  0  0  0
  137.8230   73.0360  221.8330 N   0  0  0  0  0  0  0  0  0  0  0  0
  137.5100   74.2490  222.3440 C   0  0  0  0  0  0  0  0  0  0  0  0
  136.2650   74.4280  222.9880 N   0  0  0  0  0  0  0  0  0  0  0  0
  135.3420   73.3250  223.2250 C   0  0  0  0  0  0  0  0  0  0  0  0
  134.9070   73.2810  224.6730 C   0  0  0  0  0  0  0  0  0  0  0  0
  134.6180   74.6180  225.1780 N   0  0  0  0  0  0  0  0  0  0  0  0
  133.3870   74.8780  225.8340 C   0  0  0  0  0  0  0  0  0  0  0  0
  132.4380   75.7580  225.3770 C   0  0  0  0  0  0  0  0  0  0  0  0
  131.2400   75.9990  226.0370 C   0  0  0  0  0  0  0  0  0  0  0  0
  131.0100   75.3130  227.2080 C   0  0  0  0  0  0  0  0  0  0  0  0
  131.9790   74.4430  227.6350 C   0  0  0  0  0  0  0  0  0  0  0  0
  133.1210   74.2300  226.9820 N   0  0  0  0  0  0  0  0  0  0  0  0
  135.6490   75.6150  224.9660 C   0  0  0  0  0  0  0  0  0  0  0  0
  135.8290   75.7370  223.4490 C   0  0  0  0  0  0  0  0  0  0  0  0
  138.3500   75.2980  222.2570 N   0  0  0  0  0  0  0  0  0  0  0  0
  139.5360   75.1420  221.6450 C   0  0  0  0  0  0  0  0  0  0  0  0
  140.4840   76.2010  221.5160 N   0  0  0  0  0  0  0  0  0  0  0  0
  140.8380   76.6650  220.1950 C   0  0  0  0  0  0  0  0  0  0  0  0
  141.5870   77.9410  220.1380 C   0  0  0  0  0  0  0  0  0  0  0  0
  141.6180   78.7310  221.3760 C   0  0  0  0  0  0  0  0  0  0  0  0
  141.9210   80.0940  221.2500 C   0  0  0  0  0  0  0  0  0  0  0  0
  141.9530   80.8320  222.4010 C   0  0  0  0  0  0  0  0  0  0  0  0
  141.7070   80.3110  223.6550 C   0  0  0  0  0  0  0  0  0  0  0  0
  141.4090   78.9550  223.7600 C   0  0  0  0  0  0  0  0  0  0  0  0
  141.3730   78.1990  222.6160 C   0  0  0  0  0  0  0  0  0  0  0  0
  141.0580   76.7680  222.7200 C   0  0  0  0  0  0  0  0  0  0  0  0
  139.8150   73.9300  221.1510 N   0  0  0  0  0  0  0  0  0  0  0  0
  138.4060   70.4640  222.4770 C   0  0  0  0  0  0  0  0  0  0  0  0
  139.7940   70.1490  225.0740 N   0  0  0  0  0  0  0  0  0  0  0  0
  140.8624   71.0793  228.0852 H   0  0  0  0  0  0  0  0  0  0  0  0
  141.9934   71.2889  226.7055 H   0  0  0  0  0  0  0  0  0  0  0  0
  140.4098   72.1368  226.7055 H   0  0  0  0  0  0  0  0  0  0  0  0
  140.6747   68.6956  227.9784 H   0  0  0  0  0  0  0  0  0  0  0  0
  139.6253   66.7988  226.7786 H   0  0  0  0  0  0  0  0  0  0  0  0
  138.5222   67.0969  223.0634 H   0  0  0  0  0  0  0  0  0  0  0  0
  137.3239   67.9631  222.0803 H   0  0  0  0  0  0  0  0  0  0  0  0
  140.1228   67.2070  221.4755 H   0  0  0  0  0  0  0  0  0  0  0  0
  138.7286   67.6038  220.3653 H   0  0  0  0  0  0  0  0  0  0  0  0
  140.7665   69.4418  221.5992 H   0  0  0  0  0  0  0  0  0  0  0  0
  140.3018   69.2243  219.8742 H   0  0  0  0  0  0  0  0  0  0  0  0
  138.0661   70.0604  220.3849 H   0  0  0  0  0  0  0  0  0  0  0  0
  140.1470   71.6290  219.8990 H   0  0  0  0  0  0  0  0  0  0  0  0
  134.4553   73.4551  222.5872 H   0  0  0  0  0  0  0  0  0  0  0  0
  135.8553   72.3821  222.9854 H   0  0  0  0  0  0  0  0  0  0  0  0
  134.0013   72.6623  224.7569 H   0  0  0  0  0  0  0  0  0  0  0  0
  135.7260   72.8530  225.2697 H   0  0  0  0  0  0  0  0  0  0  0  0
  132.6364   76.2999  224.4405 H   0  0  0  0  0  0  0  0  0  0  0  0
  130.5025   76.7115  225.6388 H   0  0  0  0  0  0  0  0  0  0  0  0
  130.0819   75.4579  227.7804 H   0  0  0  0  0  0  0  0  0  0  0  0
  131.8043   73.8894  228.5693 H   0  0  0  0  0  0  0  0  0  0  0  0
  135.3373   76.5806  225.3908 H   0  0  0  0  0  0  0  0  0  0  0  0
  136.5899   75.3256  225.4568 H   0  0  0  0  0  0  0  0  0  0  0  0
  134.8765   76.0118  222.9724 H   0  0  0  0  0  0  0  0  0  0  0  0
  136.5604   76.5176  223.1926 H   0  0  0  0  0  0  0  0  0  0  0  0
  141.4565   75.8894  219.7196 H   0  0  0  0  0  0  0  0  0  0  0  0
  139.8846   76.8557  219.6806 H   0  0  0  0  0  0  0  0  0  0  0  0
  142.6262   77.7081  219.8625 H   0  0  0  0  0  0  0  0  0  0  0  0
  141.0527   78.5634  219.4051 H   0  0  0  0  0  0  0  0  0  0  0  0
  142.1239   80.5494  220.2695 H   0  0  0  0  0  0  0  0  0  0  0  0
  142.1886   81.9036  222.3226 H   0  0  0  0  0  0  0  0  0  0  0  0
  141.7454   80.9508  224.5490 H   0  0  0  0  0  0  0  0  0  0  0  0
  141.2065   78.4992  224.7404 H   0  0  0  0  0  0  0  0  0  0  0  0
  141.9870   76.2252  222.9489 H   0  0  0  0  0  0  0  0  0  0  0  0
  140.3011   76.6658  223.5117 H   0  0  0  0  0  0  0  0  0  0  0  0
  138.9392   71.2772  222.9912 H   0  0  0  0  0  0  0  0  0  0  0  0
  137.3305   70.6936  222.5023 H   0  0  0  0  0  0  0  0  0  0  0  0
  1  2  1  0
  2  3  2  0
  3  4  1  0
  4  5  2  0
  5  6  1  0
  6  7  1  0
  7  8  1  0
  8  9  1  0
  9 10  1  0
 10 11  1  0
 11 12  1  0
 12 13  1  0
 13 14  2  0
 14 15  1  0
 15 16  1  0
 16 17  1  0
 17 18  1  0
 18 19  1  0
 19 20  1  0
 20 21  2  0
 21 22  1  0
 22 23  2  0
 23 24  1  0
 24 25  2  0
 19 26  1  0
 26 27  1  0
 15 28  2  0
 28 29  1  0
 29 30  1  0
 30 31  1  0
 31 32  1  0
 32 33  1  0
 33 34  2  0
 34 35  1  0
 35 36  2  0
 36 37  1  0
 37 38  2  0
 38 39  1  0
 29 40  2  0
 11 41  1  0
  6 42  2  0
 42  2  1  0
 41  7  1  0
 40 13  1  0
 27 16  1  0
 39 30  1  0
 25 20  1  0
 38 33  1  0
  1 43  1  0
  1 44  1  0
  1 45  1  0
  3 46  1  0
  4 47  1  0
  8 48  1  0
  8 49  1  0
  9 50  1  0
  9 51  1  0
 10 52  1  0
 10 53  1  0
 11 54  1  6
 12 55  1  0
 17 56  1  0
 17 57  1  0
 18 58  1  0
 18 59  1  0
 21 60  1  0
 22 61  1  0
 23 62  1  0
 24 63  1  0
 26 64  1  0
 26 65  1  0
 27 66  1  0
 27 67  1  0
 31 68  1  0
 31 69  1  0
 32 70  1  0
 32 71  1  0
 34 72  1  0
 35 73  1  0
 36 74  1  0
 37 75  1  0
 39 76  1  0
 39 77  1  0
 41 78  1  0
 41 79  1  0
M  END
>  <smiles>  (31) 
Cc1ccnc(N2CCCC(Nc3nc(N4CCN(c5ccccn5)CC4)nc(N4CCc5ccccc5C4)n3)C2)n1

>  <score_type>  (31) 
oracle

>  <origin>  (31) 
autodockgpu

>  <m_score__min__energy>  (31) 
-10.5

>  <m_primary>  (31) 
energy

>  <rmsd>  (31) 
8.446399124956226

>  <m_score__min__rmsd>  (31) 
8.446399124956226

>  <meeko>  (31) 
{"free_energy": -9.84, "intermolecular_energy": -11.63, "internal_energy": -1.38, "cluster_size": 1, "cluster_id": 3, "rank_in_cluster": 1}

>  <energy>  (31) 
-9.07

>  <cluster_rmsd>  (31) 
0.0

>  <cluster>  (31) 
6

$$$$

     RDKit          3D

 79 85  0  0  1  0  0  0  0  0999 V2000
  142.5820   81.2340  224.0940 C   0  0  0  0  0  0  0  0  0  0  0  0
  141.7130   81.0820  222.9070 C   0  0  0  0  0  0  0  0  0  0  0  0
  141.3350   82.2160  222.1870 C   0  0  0  0  0  0  0  0  0  0  0  0
  140.5230   82.0200  221.0880 C   0  0  0  0  0  0  0  0  0  0  0  0
  140.0950   80.8100  220.6940 N   0  0  0  0  0  0  0  0  0  0  0  0
  140.4790   79.7330  221.4120 C   0  0  0  0  0  0  0  0  0  0  0  0
  140.0040   78.4700  220.9640 N   0  0  0  0  0  0  0  0  0  0  0  0
  138.5810   78.1930  220.9970 C   0  0  0  0  0  0  0  0  0  0  0  0
  138.3760   77.1090  222.0210 C   0  0  0  0  0  0  0  0  0  0  0  0
  139.6320   76.3550  222.3500 C   0  0  0  0  0  0  0  0  0  0  0  0
  140.4360   76.1160  221.0890 C   0  0  2  0  0  0  0  0  0  0  0  0
  141.6060   75.3170  221.3420 N   0  0  0  0  0  0  0  0  0  0  0  0
  141.6260   73.8960  221.2850 C   0  0  0  0  0  0  0  0  0  0  0  0
  142.2970   73.2020  220.3510 N   0  0  0  0  0  0  0  0  0  0  0  0
  142.2610   71.8490  220.3710 C   0  0  0  0  0  0  0  0  0  0  0  0
  142.9660   71.1230  219.3860 N   0  0  0  0  0  0  0  0  0  0  0  0
  143.9070   71.7570  218.4710 C   0  0  0  0  0  0  0  0  0  0  0  0
  145.2350   71.0330  218.4670 C   0  0  0  0  0  0  0  0  0  0  0  0
  145.0460   69.5870  218.4600 N   0  0  0  0  0  0  0  0  0  0  0  0
  145.7180   68.7880  217.4980 C   0  0  0  0  0  0  0  0  0  0  0  0
  145.7200   67.4150  217.4990 C   0  0  0  0  0  0  0  0  0  0  0  0
  146.3860   66.6530  216.5480 C   0  0  0  0  0  0  0  0  0  0  0  0
  147.0750   67.3240  215.5630 C   0  0  0  0  0  0  0  0  0  0  0  0
  147.0510   68.6950  215.5940 C   0  0  0  0  0  0  0  0  0  0  0  0
  146.4040   69.4020  216.5180 N   0  0  0  0  0  0  0  0  0  0  0  0
  144.1580   69.0560  219.4750 C   0  0  0  0  0  0  0  0  0  0  0  0
  142.7850   69.6890  219.2230 C   0  0  0  0  0  0  0  0  0  0  0  0
  141.5700   71.1690  221.3060 N   0  0  0  0  0  0  0  0  0  0  0  0
  140.8940   71.8470  222.2490 C   0  0  0  0  0  0  0  0  0  0  0  0
  140.1430   71.2010  223.2750 N   0  0  0  0  0  0  0  0  0  0  0  0
  139.1950   70.1750  222.9080 C   0  0  0  0  0  0  0  0  0  0  0  0
  138.6720   69.3500  224.0220 C   0  0  0  0  0  0  0  0  0  0  0  0
  139.3880   69.4580  225.3000 C   0  0  0  0  0  0  0  0  0  0  0  0
  139.2140   68.4090  226.2130 C   0  0  0  0  0  0  0  0  0  0  0  0
  139.8770   68.5060  227.4060 C   0  0  0  0  0  0  0  0  0  0  0  0
  140.6910   69.5660  227.7460 C   0  0  0  0  0  0  0  0  0  0  0  0
  140.8510   70.5990  226.8270 C   0  0  0  0  0  0  0  0  0  0  0  0
  140.1940   70.5190  225.6260 C   0  0  0  0  0  0  0  0  0  0  0  0
  140.3590   71.6040  224.6510 C   0  0  0  0  0  0  0  0  0  0  0  0
  140.9500   73.1840  222.2000 N   0  0  0  0  0  0  0  0  0  0  0  0
  140.8920   77.4220  220.4680 C   0  0  0  0  0  0  0  0  0  0  0  0
  141.2690   79.8810  222.4890 N   0  0  0  0  0  0  0  0  0  0  0  0
  141.9775   81.1283  225.0069 H   0  0  0  0  0  0  0  0  0  0  0  0
  143.3622   80.4587  224.0790 H   0  0  0  0  0  0  0  0  0  0  0  0
  143.0527   82.2281  224.0790 H   0  0  0  0  0  0  0  0  0  0  0  0
  141.6693   83.2216  222.4821 H   0  0  0  0  0  0  0  0  0  0  0  0
  140.2109   82.8995  220.5057 H   0  0  0  0  0  0  0  0  0  0  0  0
  138.0252   79.0973  221.2855 H   0  0  0  0  0  0  0  0  0  0  0  0
  138.2157   77.8781  220.0083 H   0  0  0  0  0  0  0  0  0  0  0  0
  137.9934   77.5690  222.9441 H   0  0  0  0  0  0  0  0  0  0  0  0
  137.6663   76.3865  221.5917 H   0  0  0  0  0  0  0  0  0  0  0  0
  140.2336   76.9411  223.0604 H   0  0  0  0  0  0  0  0  0  0  0  0
  139.3656   75.3864  222.7983 H   0  0  0  0  0  0  0  0  0  0  0  0
  139.7653   75.5821  220.3998 H   0  0  0  0  0  0  0  0  0  0  0  0
  142.4880   75.8280  221.5800 H   0  0  0  0  0  0  0  0  0  0  0  0
  143.4861   71.7410  217.4548 H   0  0  0  0  0  0  0  0  0  0  0  0
  144.0745   72.7919  218.8040 H   0  0  0  0  0  0  0  0  0  0  0  0
  145.8007   71.3255  217.5701 H   0  0  0  0  0  0  0  0  0  0  0  0
  145.7852   71.3085  219.3788 H   0  0  0  0  0  0  0  0  0  0  0  0
  145.1663   66.8924  218.2929 H   0  0  0  0  0  0  0  0  0  0  0  0
  146.3638   65.5537  216.5806 H   0  0  0  0  0  0  0  0  0  0  0  0
  147.6244   66.7807  214.7801 H   0  0  0  0  0  0  0  0  0  0  0  0
  147.5973   69.2413  214.8110 H   0  0  0  0  0  0  0  0  0  0  0  0
  144.0937   67.9612  219.3893 H   0  0  0  0  0  0  0  0  0  0  0  0
  144.5243   69.2876  220.4860 H   0  0  0  0  0  0  0  0  0  0  0  0
  142.4409   69.4611  218.2034 H   0  0  0  0  0  0  0  0  0  0  0  0
  142.0282   69.2978  219.9189 H   0  0  0  0  0  0  0  0  0  0  0  0
  138.3393   70.6653  222.4209 H   0  0  0  0  0  0  0  0  0  0  0  0
  139.7449   69.4807  222.2556 H   0  0  0  0  0  0  0  0  0  0  0  0
  137.6269   69.6455  224.1967 H   0  0  0  0  0  0  0  0  0  0  0  0
  138.7993   68.3058  223.7003 H   0  0  0  0  0  0  0  0  0  0  0  0
  138.5728   67.5459  225.9808 H   0  0  0  0  0  0  0  0  0  0  0  0
  139.7537   67.6920  228.1355 H   0  0  0  0  0  0  0  0  0  0  0  0
  141.2015   69.5944  228.7200 H   0  0  0  0  0  0  0  0  0  0  0  0
  141.4917   71.4624  227.0595 H   0  0  0  0  0  0  0  0  0  0  0  0
  139.6399   72.3999  224.8948 H   0  0  0  0  0  0  0  0  0  0  0  0
  141.4042   71.9392  224.7231 H   0  0  0  0  0  0  0  0  0  0  0  0
  141.9298   77.6370  220.7624 H   0  0  0  0  0  0  0  0  0  0  0  0
  140.8545   77.3661  219.3701 H   0  0  0  0  0  0  0  0  0  0  0  0
  1  2  1  0
  2  3  2  0
  3  4  1  0
  4  5  2  0
  5  6  1  0
  6  7  1  0
  7  8  1  0
  8  9  1  0
  9 10  1  0
 10 11  1  0
 11 12  1  0
 12 13  1  0
 13 14  2  0
 14 15  1  0
 15 16  1  0
 16 17  1  0
 17 18  1  0
 18 19  1  0
 19 20  1  0
 20 21  2  0
 21 22  1  0
 22 23  2  0
 23 24  1  0
 24 25  2  0
 19 26  1  0
 26 27  1  0
 15 28  2  0
 28 29  1  0
 29 30  1  0
 30 31  1  0
 31 32  1  0
 32 33  1  0
 33 34  2  0
 34 35  1  0
 35 36  2  0
 36 37  1  0
 37 38  2  0
 38 39  1  0
 29 40  2  0
 11 41  1  0
  6 42  2  0
 42  2  1  0
 41  7  1  0
 40 13  1  0
 27 16  1  0
 39 30  1  0
 25 20  1  0
 38 33  1  0
  1 43  1  0
  1 44  1  0
  1 45  1  0
  3 46  1  0
  4 47  1  0
  8 48  1  0
  8 49  1  0
  9 50  1  0
  9 51  1  0
 10 52  1  0
 10 53  1  0
 11 54  1  6
 12 55  1  0
 17 56  1  0
 17 57  1  0
 18 58  1  0
 18 59  1  0
 21 60  1  0
 22 61  1  0
 23 62  1  0
 24 63  1  0
 26 64  1  0
 26 65  1  0
 27 66  1  0
 27 67  1  0
 31 68  1  0
 31 69  1  0
 32 70  1  0
 32 71  1  0
 34 72  1  0
 35 73  1  0
 36 74  1  0
 37 75  1  0
 39 76  1  0
 39 77  1  0
 41 78  1  0
 41 79  1  0
M  END
>  <smiles>  (32) 
Cc1ccnc(N2CCCC(Nc3nc(N4CCN(c5ccccn5)CC4)nc(N4CCc5ccccc5C4)n3)C2)n1

>  <score_type>  (32) 
oracle

>  <origin>  (32) 
autodockgpu

>  <m_score__min__energy>  (32) 
-10.5

>  <m_primary>  (32) 
energy

>  <rmsd>  (32) 
8.675549778416444

>  <m_score__min__rmsd>  (32) 
8.675549778416444

>  <meeko>  (32) 
{"free_energy": -9.53, "intermolecular_energy": -11.32, "internal_energy": -1.41, "cluster_size": 13, "cluster_id": 2, "rank_in_cluster": 6}

>  <energy>  (32) 
-9.06

>  <cluster_rmsd>  (32) 
0.7

>  <cluster>  (32) 
6

$$$$

     RDKit          3D

 79 85  0  0  1  0  0  0  0  0999 V2000
  141.1850   82.4910  221.3200 C   0  0  0  0  0  0  0  0  0  0  0  0
  141.5170   81.1610  221.8750 C   0  0  0  0  0  0  0  0  0  0  0  0
  141.8360   81.0460  223.2280 C   0  0  0  0  0  0  0  0  0  0  0  0
  142.1390   79.7830  223.6960 C   0  0  0  0  0  0  0  0  0  0  0  0
  142.1370   78.6880  222.9190 N   0  0  0  0  0  0  0  0  0  0  0  0
  141.8230   78.8340  221.6130 C   0  0  0  0  0  0  0  0  0  0  0  0
  141.8340   77.6530  220.8220 N   0  0  0  0  0  0  0  0  0  0  0  0
  142.5730   77.6390  219.5760 C   0  0  0  0  0  0  0  0  0  0  0  0
  141.5550   77.5140  218.4720 C   0  0  0  0  0  0  0  0  0  0  0  0
  140.2220   77.0100  218.9460 C   0  0  0  0  0  0  0  0  0  0  0  0
  140.4210   75.9140  219.9730 C   0  0  2  0  0  0  0  0  0  0  0  0
  139.1700   75.3360  220.3900 N   0  0  0  0  0  0  0  0  0  0  0  0
  138.2720   75.9550  221.3010 C   0  0  0  0  0  0  0  0  0  0  0  0
  137.2920   75.2930  221.9410 N   0  0  0  0  0  0  0  0  0  0  0  0
  136.4820   75.9620  222.7930 C   0  0  0  0  0  0  0  0  0  0  0  0
  135.4520   75.2640  223.4610 N   0  0  0  0  0  0  0  0  0  0  0  0
  135.2790   73.8210  223.3390 C   0  0  0  0  0  0  0  0  0  0  0  0
  135.1820   73.1680  224.7000 C   0  0  0  0  0  0  0  0  0  0  0  0
  134.3400   73.9470  225.6000 N   0  0  0  0  0  0  0  0  0  0  0  0
  133.2810   73.3170  226.3050 C   0  0  0  0  0  0  0  0  0  0  0  0
  132.8610   72.0300  226.0800 C   0  0  0  0  0  0  0  0  0  0  0  0
  131.8210   71.4340  226.7810 C   0  0  0  0  0  0  0  0  0  0  0  0
  131.1910   72.1860  227.7460 C   0  0  0  0  0  0  0  0  0  0  0  0
  131.6370   73.4670  227.9440 C   0  0  0  0  0  0  0  0  0  0  0  0
  132.6380   74.0150  227.2570 N   0  0  0  0  0  0  0  0  0  0  0  0
  134.6610   75.3560  225.7120 C   0  0  0  0  0  0  0  0  0  0  0  0
  134.4930   75.9520  224.3100 C   0  0  0  0  0  0  0  0  0  0  0  0
  136.6250   77.2810  223.0250 N   0  0  0  0  0  0  0  0  0  0  0  0
  137.6000   77.9580  222.3950 C   0  0  0  0  0  0  0  0  0  0  0  0
  137.8210   79.3540  222.5910 N   0  0  0  0  0  0  0  0  0  0  0  0
  137.7460   80.2410  221.4530 C   0  0  0  0  0  0  0  0  0  0  0  0
  137.6910   81.6880  221.7630 C   0  0  0  0  0  0  0  0  0  0  0  0
  137.4150   82.0410  223.1620 C   0  0  0  0  0  0  0  0  0  0  0  0
  136.9320   83.3340  223.4050 C   0  0  0  0  0  0  0  0  0  0  0  0
  136.6760   83.6680  224.7060 C   0  0  0  0  0  0  0  0  0  0  0  0
  136.8670   82.8100  225.7700 C   0  0  0  0  0  0  0  0  0  0  0  0
  137.3480   81.5310  225.5100 C   0  0  0  0  0  0  0  0  0  0  0  0
  137.6100   81.1780  224.2100 C   0  0  0  0  0  0  0  0  0  0  0  0
  138.1170   79.8290  223.9280 C   0  0  0  0  0  0  0  0  0  0  0  0
  138.3840   77.2670  221.5590 N   0  0  0  0  0  0  0  0  0  0  0  0
  141.1250   76.4360  221.2100 C   0  0  0  0  0  0  0  0  0  0  0  0
  141.5220   80.0470  221.1190 N   0  0  0  0  0  0  0  0  0  0  0  0
  141.0084   83.1984  222.1437 H   0  0  0  0  0  0  0  0  0  0  0  0
  142.0212   82.8495  220.7018 H   0  0  0  0  0  0  0  0  0  0  0  0
  140.2784   82.4144  220.7018 H   0  0  0  0  0  0  0  0  0  0  0  0
  141.8457   81.9226  223.8925 H   0  0  0  0  0  0  0  0  0  0  0  0
  142.3951   79.6679  224.7596 H   0  0  0  0  0  0  0  0  0  0  0  0
  143.1430   78.5729  219.4625 H   0  0  0  0  0  0  0  0  0  0  0  0
  143.2902   76.8054  219.5500 H   0  0  0  0  0  0  0  0  0  0  0  0
  141.4114   78.5047  218.0159 H   0  0  0  0  0  0  0  0  0  0  0  0
  141.9439   76.7783  217.7526 H   0  0  0  0  0  0  0  0  0  0  0  0
  139.6595   77.8386  219.4011 H   0  0  0  0  0  0  0  0  0  0  0  0
  139.6618   76.6066  218.0896 H   0  0  0  0  0  0  0  0  0  0  0  0
  141.0376   75.1474  219.4809 H   0  0  0  0  0  0  0  0  0  0  0  0
  138.9210   74.4020  219.9870 H   0  0  0  0  0  0  0  0  0  0  0  0
  134.3569   73.6159  222.7754 H   0  0  0  0  0  0  0  0  0  0  0  0
  136.1526   73.4072  222.8140 H   0  0  0  0  0  0  0  0  0  0  0  0
  134.7507   72.1626  224.5856 H   0  0  0  0  0  0  0  0  0  0  0  0
  136.1923   73.1101  225.1312 H   0  0  0  0  0  0  0  0  0  0  0  0
  133.3739   71.4410  225.3055 H   0  0  0  0  0  0  0  0  0  0  0  0
  131.5122   70.3990  226.5726 H   0  0  0  0  0  0  0  0  0  0  0  0
  130.3597   71.7741  228.3370 H   0  0  0  0  0  0  0  0  0  0  0  0
  131.1404   74.0766  228.7133 H   0  0  0  0  0  0  0  0  0  0  0  0
  133.9757   75.8471  226.4186 H   0  0  0  0  0  0  0  0  0  0  0  0
  135.6846   75.5027  226.0872 H   0  0  0  0  0  0  0  0  0  0  0  0
  133.4695   75.7836  223.9439 H   0  0  0  0  0  0  0  0  0  0  0  0
  134.6656   77.0384  224.3122 H   0  0  0  0  0  0  0  0  0  0  0  0
  138.6340   80.0637  220.8285 H   0  0  0  0  0  0  0  0  0  0  0  0
  136.7933   80.0068  220.9555 H   0  0  0  0  0  0  0  0  0  0  0  0
  138.6625   82.1267  221.4915 H   0  0  0  0  0  0  0  0  0  0  0  0
  136.8403   82.0806  221.1867 H   0  0  0  0  0  0  0  0  0  0  0  0
  136.7662   84.0486  222.5853 H   0  0  0  0  0  0  0  0  0  0  0  0
  136.2960   84.6786  224.9167 H   0  0  0  0  0  0  0  0  0  0  0  0
  136.6443   83.1298  226.7986 H   0  0  0  0  0  0  0  0  0  0  0  0
  137.5150   80.8169  226.3299 H   0  0  0  0  0  0  0  0  0  0  0  0
  139.2092   79.8360  224.0584 H   0  0  0  0  0  0  0  0  0  0  0  0
  137.6106   79.1469  224.6268 H   0  0  0  0  0  0  0  0  0  0  0  0
  140.3888   76.6628  221.9952 H   0  0  0  0  0  0  0  0  0  0  0  0
  141.8249   75.6859  221.6069 H   0  0  0  0  0  0  0  0  0  0  0  0
  1  2  1  0
  2  3  2  0
  3  4  1  0
  4  5  2  0
  5  6  1  0
  6  7  1  0
  7  8  1  0
  8  9  1  0
  9 10  1  0
 10 11  1  0
 11 12  1  0
 12 13  1  0
 13 14  2  0
 14 15  1  0
 15 16  1  0
 16 17  1  0
 17 18  1  0
 18 19  1  0
 19 20  1  0
 20 21  2  0
 21 22  1  0
 22 23  2  0
 23 24  1  0
 24 25  2  0
 19 26  1  0
 26 27  1  0
 15 28  2  0
 28 29  1  0
 29 30  1  0
 30 31  1  0
 31 32  1  0
 32 33  1  0
 33 34  2  0
 34 35  1  0
 35 36  2  0
 36 37  1  0
 37 38  2  0
 38 39  1  0
 29 40  2  0
 11 41  1  0
  6 42  2  0
 42  2  1  0
 41  7  1  0
 40 13  1  0
 27 16  1  0
 39 30  1  0
 25 20  1  0
 38 33  1  0
  1 43  1  0
  1 44  1  0
  1 45  1  0
  3 46  1  0
  4 47  1  0
  8 48  1  0
  8 49  1  0
  9 50  1  0
  9 51  1  0
 10 52  1  0
 10 53  1  0
 11 54  1  6
 12 55  1  0
 17 56  1  0
 17 57  1  0
 18 58  1  0
 18 59  1  0
 21 60  1  0
 22 61  1  0
 23 62  1  0
 24 63  1  0
 26 64  1  0
 26 65  1  0
 27 66  1  0
 27 67  1  0
 31 68  1  0
 31 69  1  0
 32 70  1  0
 32 71  1  0
 34 72  1  0
 35 73  1  0
 36 74  1  0
 37 75  1  0
 39 76  1  0
 39 77  1  0
 41 78  1  0
 41 79  1  0
M  END
>  <smiles>  (33) 
Cc1ccnc(N2CCCC(Nc3nc(N4CCN(c5ccccn5)CC4)nc(N4CCc5ccccc5C4)n3)C2)n1

>  <score_type>  (33) 
oracle

>  <origin>  (33) 
autodockgpu

>  <m_score__min__energy>  (33) 
-10.5

>  <m_primary>  (33) 
energy

>  <rmsd>  (33) 
7.921747709742346

>  <m_score__min__rmsd>  (33) 
7.921747709742346

>  <meeko>  (33) 
{"free_energy": -7.7, "intermolecular_energy": -9.49, "internal_energy": -2.67, "cluster_size": 1, "cluster_id": 12, "rank_in_cluster": 1}

>  <energy>  (33) 
-8.93

>  <cluster_rmsd>  (33) 
1.83

>  <cluster>  (33) 
6

$$$$

     RDKit          3D

 79 85  0  0  1  0  0  0  0  0999 V2000
  146.8660   66.6420  216.1370 C   0  0  0  0  0  0  0  0  0  0  0  0
  146.4060   67.3580  217.3460 C   0  0  0  0  0  0  0  0  0  0  0  0
  146.5850   66.7690  218.5980 C   0  0  0  0  0  0  0  0  0  0  0  0
  146.1380   67.4780  219.6950 C   0  0  0  0  0  0  0  0  0  0  0  0
  145.5520   68.6830  219.6060 N   0  0  0  0  0  0  0  0  0  0  0  0
  145.3930   69.2250  218.3790 C   0  0  0  0  0  0  0  0  0  0  0  0
  144.7680   70.5010  218.3260 N   0  0  0  0  0  0  0  0  0  0  0  0
  145.5820   71.6960  218.4220 C   0  0  0  0  0  0  0  0  0  0  0  0
  145.2170   72.3630  219.7220 C   0  0  0  0  0  0  0  0  0  0  0  0
  143.9000   71.9030  220.2780 C   0  0  0  0  0  0  0  0  0  0  0  0
  142.8950   71.7420  219.1560 C   0  0  2  0  0  0  0  0  0  0  0  0
  141.5900   71.3910  219.6520 N   0  0  0  0  0  0  0  0  0  0  0  0
  140.9080   72.1060  220.6730 C   0  0  0  0  0  0  0  0  0  0  0  0
  140.6610   73.4260  220.6140 N   0  0  0  0  0  0  0  0  0  0  0  0
  140.0050   74.0270  221.6340 C   0  0  0  0  0  0  0  0  0  0  0  0
  139.7490   75.4150  221.5690 N   0  0  0  0  0  0  0  0  0  0  0  0
  138.4090   75.9710  221.7170 C   0  0  0  0  0  0  0  0  0  0  0  0
  138.3870   77.0710  222.7550 C   0  0  0  0  0  0  0  0  0  0  0  0
  139.5470   77.9450  222.6200 N   0  0  0  0  0  0  0  0  0  0  0  0
  139.3720   79.3510  222.5460 C   0  0  0  0  0  0  0  0  0  0  0  0
  140.1180   80.1820  221.7490 C   0  0  0  0  0  0  0  0  0  0  0  0
  139.9300   81.5570  221.6930 C   0  0  0  0  0  0  0  0  0  0  0  0
  138.9420   82.0970  222.4840 C   0  0  0  0  0  0  0  0  0  0  0  0
  138.2160   81.2370  223.2680 C   0  0  0  0  0  0  0  0  0  0  0  0
  138.4170   79.9210  223.3020 N   0  0  0  0  0  0  0  0  0  0  0  0
  140.8380   77.2870  222.5750 C   0  0  0  0  0  0  0  0  0  0  0  0
  140.8170   76.3760  221.3430 C   0  0  0  0  0  0  0  0  0  0  0  0
  139.5860   73.3420  222.7150 N   0  0  0  0  0  0  0  0  0  0  0  0
  139.8240   72.0220  222.7900 C   0  0  0  0  0  0  0  0  0  0  0  0
  139.4080   71.2250  223.8980 N   0  0  0  0  0  0  0  0  0  0  0  0
  138.4500   70.1660  223.6770 C   0  0  0  0  0  0  0  0  0  0  0  0
  138.2870   69.2010  224.7890 C   0  0  0  0  0  0  0  0  0  0  0  0
  139.3110   69.2430  225.8400 C   0  0  0  0  0  0  0  0  0  0  0  0
  139.4410   68.1010  226.6430 C   0  0  0  0  0  0  0  0  0  0  0  0
  140.3930   68.1370  227.6260 C   0  0  0  0  0  0  0  0  0  0  0  0
  141.2130   69.2220  227.8590 C   0  0  0  0  0  0  0  0  0  0  0  0
  141.0690   70.3460  227.0520 C   0  0  0  0  0  0  0  0  0  0  0  0
  140.1200   70.3280  226.0620 C   0  0  0  0  0  0  0  0  0  0  0  0
  139.9630   71.5110  225.2060 C   0  0  0  0  0  0  0  0  0  0  0  0
  140.4750   71.4580  221.7660 N   0  0  0  0  0  0  0  0  0  0  0  0
  143.3250   70.6670  218.1770 C   0  0  0  0  0  0  0  0  0  0  0  0
  145.8160   68.5670  217.2860 N   0  0  0  0  0  0  0  0  0  0  0  0
  147.4385   65.7509  216.4341 H   0  0  0  0  0  0  0  0  0  0  0  0
  145.9952   66.3357  215.5387 H   0  0  0  0  0  0  0  0  0  0  0  0
  147.5065   67.3066  215.5387 H   0  0  0  0  0  0  0  0  0  0  0  0
  147.0612   65.7833  218.7063 H   0  0  0  0  0  0  0  0  0  0  0  0
  146.2685   67.0333  220.6926 H   0  0  0  0  0  0  0  0  0  0  0  0
  146.6492   71.4294  218.4189 H   0  0  0  0  0  0  0  0  0  0  0  0
  145.4035   72.3667  217.5686 H   0  0  0  0  0  0  0  0  0  0  0  0
  146.0029   72.1433  220.4596 H   0  0  0  0  0  0  0  0  0  0  0  0
  145.1263   73.4406  219.5204 H   0  0  0  0  0  0  0  0  0  0  0  0
  144.0362   70.9374  220.7871 H   0  0  0  0  0  0  0  0  0  0  0  0
  143.5276   72.6511  220.9933 H   0  0  0  0  0  0  0  0  0  0  0  0
  142.8484   72.7174  218.6496 H   0  0  0  0  0  0  0  0  0  0  0  0
  141.1290   70.5540  219.2230 H   0  0  0  0  0  0  0  0  0  0  0  0
  138.0821   76.3825  220.7506 H   0  0  0  0  0  0  0  0  0  0  0  0
  137.7320   75.1682  222.0445 H   0  0  0  0  0  0  0  0  0  0  0  0
  137.4714   77.6671  222.6271 H   0  0  0  0  0  0  0  0  0  0  0  0
  138.4121   76.6094  223.7532 H   0  0  0  0  0  0  0  0  0  0  0  0
  140.9049   79.7367  221.1225 H   0  0  0  0  0  0  0  0  0  0  0  0
  140.5482   82.1910  221.0403 H   0  0  0  0  0  0  0  0  0  0  0  0
  138.7418   83.1786  222.4874 H   0  0  0  0  0  0  0  0  0  0  0  0
  137.4235   81.6579  223.9042 H   0  0  0  0  0  0  0  0  0  0  0  0
  141.6418   78.0323  222.4833 H   0  0  0  0  0  0  0  0  0  0  0  0
  141.0241   76.7111  223.4935 H   0  0  0  0  0  0  0  0  0  0  0  0
  140.6148   76.9650  220.4363 H   0  0  0  0  0  0  0  0  0  0  0  0
  141.7850   75.8739  221.1985 H   0  0  0  0  0  0  0  0  0  0  0  0
  137.4712   70.6307  223.4873 H   0  0  0  0  0  0  0  0  0  0  0  0
  138.8402   69.5824  222.8301 H   0  0  0  0  0  0  0  0  0  0  0  0
  137.3130   69.3953  225.2617 H   0  0  0  0  0  0  0  0  0  0  0  0
  138.3775   68.2055  224.3300 H   0  0  0  0  0  0  0  0  0  0  0  0
  138.8063   67.2157  226.4899 H   0  0  0  0  0  0  0  0  0  0  0  0
  140.5110   67.2506  228.2666 H   0  0  0  0  0  0  0  0  0  0  0  0
  141.9627   69.1988  228.6636 H   0  0  0  0  0  0  0  0  0  0  0  0
  141.7035   71.2314  227.2049 H   0  0  0  0  0  0  0  0  0  0  0  0
  139.2958   72.2210  225.7167 H   0  0  0  0  0  0  0  0  0  0  0  0
  140.9710   71.9192  225.0407 H   0  0  0  0  0  0  0  0  0  0  0  0
  142.8111   69.7216  218.4054 H   0  0  0  0  0  0  0  0  0  0  0  0
  143.0687   70.9521  217.1460 H   0  0  0  0  0  0  0  0  0  0  0  0
  1  2  1  0
  2  3  2  0
  3  4  1  0
  4  5  2  0
  5  6  1  0
  6  7  1  0
  7  8  1  0
  8  9  1  0
  9 10  1  0
 10 11  1  0
 11 12  1  0
 12 13  1  0
 13 14  2  0
 14 15  1  0
 15 16  1  0
 16 17  1  0
 17 18  1  0
 18 19  1  0
 19 20  1  0
 20 21  2  0
 21 22  1  0
 22 23  2  0
 23 24  1  0
 24 25  2  0
 19 26  1  0
 26 27  1  0
 15 28  2  0
 28 29  1  0
 29 30  1  0
 30 31  1  0
 31 32  1  0
 32 33  1  0
 33 34  2  0
 34 35  1  0
 35 36  2  0
 36 37  1  0
 37 38  2  0
 38 39  1  0
 29 40  2  0
 11 41  1  0
  6 42  2  0
 42  2  1  0
 41  7  1  0
 40 13  1  0
 27 16  1  0
 39 30  1  0
 25 20  1  0
 38 33  1  0
  1 43  1  0
  1 44  1  0
  1 45  1  0
  3 46  1  0
  4 47  1  0
  8 48  1  0
  8 49  1  0
  9 50  1  0
  9 51  1  0
 10 52  1  0
 10 53  1  0
 11 54  1  6
 12 55  1  0
 17 56  1  0
 17 57  1  0
 18 58  1  0
 18 59  1  0
 21 60  1  0
 22 61  1  0
 23 62  1  0
 24 63  1  0
 26 64  1  0
 26 65  1  0
 27 66  1  0
 27 67  1  0
 31 68  1  0
 31 69  1  0
 32 70  1  0
 32 71  1  0
 34 72  1  0
 35 73  1  0
 36 74  1  0
 37 75  1  0
 39 76  1  0
 39 77  1  0
 41 78  1  0
 41 79  1  0
M  END
>  <smiles>  (34) 
Cc1ccnc(N2CCCC(Nc3nc(N4CCN(c5ccccn5)CC4)nc(N4CCc5ccccc5C4)n3)C2)n1

>  <score_type>  (34) 
oracle

>  <origin>  (34) 
autodockgpu

>  <m_score__min__energy>  (34) 
-10.5

>  <m_primary>  (34) 
energy

>  <rmsd>  (34) 
8.394633544352223

>  <m_score__min__rmsd>  (34) 
8.394633544352223

>  <meeko>  (34) 
{"free_energy": -9.87, "intermolecular_energy": -11.66, "internal_energy": -1.42, "cluster_size": 13, "cluster_id": 2, "rank_in_cluster": 2}

>  <energy>  (34) 
-8.69

>  <cluster_rmsd>  (34) 
1.87

>  <cluster>  (34) 
6

$$$$

     RDKit          3D

 79 85  0  0  1  0  0  0  0  0999 V2000
  144.8200   74.0640  220.4630 C   0  0  0  0  0  0  0  0  0  0  0  0
  144.8310   72.7110  219.8660 C   0  0  0  0  0  0  0  0  0  0  0  0
  146.0170   71.9770  219.8580 C   0  0  0  0  0  0  0  0  0  0  0  0
  145.9740   70.7200  219.2880 C   0  0  0  0  0  0  0  0  0  0  0  0
  144.8610   70.1900  218.7530 N   0  0  0  0  0  0  0  0  0  0  0  0
  143.7300   70.9280  218.7760 C   0  0  0  0  0  0  0  0  0  0  0  0
  142.5740   70.3340  218.2000 N   0  0  0  0  0  0  0  0  0  0  0  0
  142.5870   69.9670  216.7980 C   0  0  0  0  0  0  0  0  0  0  0  0
  141.5960   70.8670  216.1080 C   0  0  0  0  0  0  0  0  0  0  0  0
  140.6180   71.5080  217.0490 C   0  0  0  0  0  0  0  0  0  0  0  0
  140.1860   70.5100  218.1040 C   0  0  2  0  0  0  0  0  0  0  0  0
  139.1780   71.0530  218.9760 N   0  0  0  0  0  0  0  0  0  0  0  0
  139.4560   71.6680  220.2260 C   0  0  0  0  0  0  0  0  0  0  0  0
  139.8630   72.9430  220.3510 N   0  0  0  0  0  0  0  0  0  0  0  0
  140.1060   73.4480  221.5820 C   0  0  0  0  0  0  0  0  0  0  0  0
  140.5360   74.7880  221.7080 N   0  0  0  0  0  0  0  0  0  0  0  0
  141.8310   75.2430  221.2160 C   0  0  0  0  0  0  0  0  0  0  0  0
  141.6810   76.4670  220.3410 C   0  0  0  0  0  0  0  0  0  0  0  0
  140.7260   77.4100  220.9120 N   0  0  0  0  0  0  0  0  0  0  0  0
  141.0860   78.7740  221.0740 C   0  0  0  0  0  0  0  0  0  0  0  0
  141.1060   79.6940  220.0560 C   0  0  0  0  0  0  0  0  0  0  0  0
  141.4630   81.0230  220.2360 C   0  0  0  0  0  0  0  0  0  0  0  0
  141.8110   81.4220  221.5070 C   0  0  0  0  0  0  0  0  0  0  0  0
  141.7800   80.4760  222.4990 C   0  0  0  0  0  0  0  0  0  0  0  0
  141.4330   79.2060  222.2990 N   0  0  0  0  0  0  0  0  0  0  0  0
  139.4360   76.8640  221.2810 C   0  0  0  0  0  0  0  0  0  0  0  0
  139.7060   75.7970  222.3480 C   0  0  0  0  0  0  0  0  0  0  0  0
  139.9510   72.7110  222.6980 N   0  0  0  0  0  0  0  0  0  0  0  0
  139.5440   71.4350  222.5930 C   0  0  0  0  0  0  0  0  0  0  0  0
  139.3500   70.5900  223.7260 N   0  0  0  0  0  0  0  0  0  0  0  0
  139.0560   69.1920  223.5140 C   0  0  0  0  0  0  0  0  0  0  0  0
  139.1580   68.3210  224.7080 C   0  0  0  0  0  0  0  0  0  0  0  0
  139.8300   68.9020  225.8780 C   0  0  0  0  0  0  0  0  0  0  0  0
  140.3250   68.0040  226.8340 C   0  0  0  0  0  0  0  0  0  0  0  0
  140.9490   68.5410  227.9260 C   0  0  0  0  0  0  0  0  0  0  0  0
  141.1110   69.8960  228.1290 C   0  0  0  0  0  0  0  0  0  0  0  0
  140.6120   70.7720  227.1700 C   0  0  0  0  0  0  0  0  0  0  0  0
  139.9830   70.2520  226.0670 C   0  0  0  0  0  0  0  0  0  0  0  0
  139.4540   71.1700  225.0500 C   0  0  0  0  0  0  0  0  0  0  0  0
  139.3120   70.9660  221.3610 N   0  0  0  0  0  0  0  0  0  0  0  0
  141.3560   70.0720  218.9630 C   0  0  0  0  0  0  0  0  0  0  0  0
  143.7300   72.1550  219.3230 N   0  0  0  0  0  0  0  0  0  0  0  0
  144.8207   73.9808  221.5598 H   0  0  0  0  0  0  0  0  0  0  0  0
  145.7137   74.6161  220.1366 H   0  0  0  0  0  0  0  0  0  0  0  0
  143.9175   74.6015  220.1366 H   0  0  0  0  0  0  0  0  0  0  0  0
  146.9456   72.3816  220.2869 H   0  0  0  0  0  0  0  0  0  0  0  0
  146.8973   70.1224  219.2710 H   0  0  0  0  0  0  0  0  0  0  0  0
  143.5920   70.1153  216.3762 H   0  0  0  0  0  0  0  0  0  0  0  0
  142.3220   68.9080  216.6629 H   0  0  0  0  0  0  0  0  0  0  0  0
  142.1503   71.6613  215.5866 H   0  0  0  0  0  0  0  0  0  0  0  0
  141.0164   70.2406  215.4140 H   0  0  0  0  0  0  0  0  0  0  0  0
  141.0939   72.3713  217.5370 H   0  0  0  0  0  0  0  0  0  0  0  0
  139.7356   71.8403  216.4825 H   0  0  0  0  0  0  0  0  0  0  0  0
  139.7754   69.6494  217.5555 H   0  0  0  0  0  0  0  0  0  0  0  0
  138.1840   70.9820  218.6540 H   0  0  0  0  0  0  0  0  0  0  0  0
  142.4742   75.4907  222.0733 H   0  0  0  0  0  0  0  0  0  0  0  0
  142.2797   74.4374  220.6162 H   0  0  0  0  0  0  0  0  0  0  0  0
  142.6591   76.9611  220.2445 H   0  0  0  0  0  0  0  0  0  0  0  0
  141.3088   76.1477  219.3564 H   0  0  0  0  0  0  0  0  0  0  0  0
  140.8248   79.3612  219.0460 H   0  0  0  0  0  0  0  0  0  0  0  0
  141.4677   81.7313  219.3944 H   0  0  0  0  0  0  0  0  0  0  0  0
  142.1031   82.4612  221.7187 H   0  0  0  0  0  0  0  0  0  0  0  0
  142.0575   80.7836  223.5180 H   0  0  0  0  0  0  0  0  0  0  0  0
  138.7907   77.6557  221.6896 H   0  0  0  0  0  0  0  0  0  0  0  0
  138.9210   76.4343  220.4091 H   0  0  0  0  0  0  0  0  0  0  0  0
  140.2352   76.2393  223.2050 H   0  0  0  0  0  0  0  0  0  0  0  0
  138.7695   75.3642  222.7298 H   0  0  0  0  0  0  0  0  0  0  0  0
  138.0279   69.1183  223.1299 H   0  0  0  0  0  0  0  0  0  0  0  0
  139.8235   68.8292  222.8145 H   0  0  0  0  0  0  0  0  0  0  0  0
  138.1371   68.0444  225.0101 H   0  0  0  0  0  0  0  0  0  0  0  0
  139.7845   67.4709  224.4001 H   0  0  0  0  0  0  0  0  0  0  0  0
  140.2163   66.9163  226.7113 H   0  0  0  0  0  0  0  0  0  0  0  0
  141.3449   67.8524  228.6870 H   0  0  0  0  0  0  0  0  0  0  0  0
  141.6219   70.2744  229.0267 H   0  0  0  0  0  0  0  0  0  0  0  0
  140.7196   71.8597  227.2937 H   0  0  0  0  0  0  0  0  0  0  0  0
  138.4510   71.4937  225.3651 H   0  0  0  0  0  0  0  0  0  0  0  0
  140.1661   72.0051  224.9754 H   0  0  0  0  0  0  0  0  0  0  0  0
  141.3692   70.6445  219.9022 H   0  0  0  0  0  0  0  0  0  0  0  0
  141.2762   69.0046  219.2167 H   0  0  0  0  0  0  0  0  0  0  0  0
  1  2  1  0
  2  3  2  0
  3  4  1  0
  4  5  2  0
  5  6  1  0
  6  7  1  0
  7  8  1  0
  8  9  1  0
  9 10  1  0
 10 11  1  0
 11 12  1  0
 12 13  1  0
 13 14  2  0
 14 15  1  0
 15 16  1  0
 16 17  1  0
 17 18  1  0
 18 19  1  0
 19 20  1  0
 20 21  2  0
 21 22  1  0
 22 23  2  0
 23 24  1  0
 24 25  2  0
 19 26  1  0
 26 27  1  0
 15 28  2  0
 28 29  1  0
 29 30  1  0
 30 31  1  0
 31 32  1  0
 32 33  1  0
 33 34  2  0
 34 35  1  0
 35 36  2  0
 36 37  1  0
 37 38  2  0
 38 39  1  0
 29 40  2  0
 11 41  1  0
  6 42  2  0
 42  2  1  0
 41  7  1  0
 40 13  1  0
 27 16  1  0
 39 30  1  0
 25 20  1  0
 38 33  1  0
  1 43  1  0
  1 44  1  0
  1 45  1  0
  3 46  1  0
  4 47  1  0
  8 48  1  0
  8 49  1  0
  9 50  1  0
  9 51  1  0
 10 52  1  0
 10 53  1  0
 11 54  1  6
 12 55  1  0
 17 56  1  0
 17 57  1  0
 18 58  1  0
 18 59  1  0
 21 60  1  0
 22 61  1  0
 23 62  1  0
 24 63  1  0
 26 64  1  0
 26 65  1  0
 27 66  1  0
 27 67  1  0
 31 68  1  0
 31 69  1  0
 32 70  1  0
 32 71  1  0
 34 72  1  0
 35 73  1  0
 36 74  1  0
 37 75  1  0
 39 76  1  0
 39 77  1  0
 41 78  1  0
 41 79  1  0
M  END
>  <smiles>  (35) 
Cc1ccnc(N2CCCC(Nc3nc(N4CCN(c5ccccn5)CC4)nc(N4CCc5ccccc5C4)n3)C2)n1

>  <score_type>  (35) 
oracle

>  <origin>  (35) 
autodockgpu

>  <m_score__min__energy>  (35) 
-10.5

>  <m_primary>  (35) 
energy

>  <rmsd>  (35) 
7.873350537733054

>  <m_score__min__rmsd>  (35) 
7.873350537733054

>  <meeko>  (35) 
{"free_energy": -8.4, "intermolecular_energy": -10.19, "internal_energy": -1.97, "cluster_size": 13, "cluster_id": 2, "rank_in_cluster": 13}

>  <energy>  (35) 
-8.89

>  <cluster_rmsd>  (35) 
0.0

>  <cluster>  (35) 
7

$$$$

     RDKit          3D

 79 85  0  0  1  0  0  0  0  0999 V2000
  141.2320   71.5550  226.1910 C   0  0  0  0  0  0  0  0  0  0  0  0
  140.3910   71.1890  225.0310 C   0  0  0  0  0  0  0  0  0  0  0  0
  139.2020   70.4910  225.2430 C   0  0  0  0  0  0  0  0  0  0  0  0
  138.4530   70.1730  224.1280 C   0  0  0  0  0  0  0  0  0  0  0  0
  138.8170   70.5020  222.8770 N   0  0  0  0  0  0  0  0  0  0  0  0
  139.9740   71.1770  222.7060 C   0  0  0  0  0  0  0  0  0  0  0  0
  140.3250   71.5050  221.3690 N   0  0  0  0  0  0  0  0  0  0  0  0
  141.6290   71.1250  220.8620 C   0  0  0  0  0  0  0  0  0  0  0  0
  142.3880   72.4030  220.6210 C   0  0  0  0  0  0  0  0  0  0  0  0
  141.5020   73.6130  220.5310 C   0  0  0  0  0  0  0  0  0  0  0  0
  140.2450   73.2750  219.7560 C   0  0  2  0  0  0  0  0  0  0  0  0
  139.4060   74.4300  219.5640 N   0  0  0  0  0  0  0  0  0  0  0  0
  138.7850   75.1460  220.6240 C   0  0  0  0  0  0  0  0  0  0  0  0
  137.7420   74.6720  221.3260 N   0  0  0  0  0  0  0  0  0  0  0  0
  137.2110   75.4230  222.3190 C   0  0  0  0  0  0  0  0  0  0  0  0
  136.1130   74.9230  223.0530 N   0  0  0  0  0  0  0  0  0  0  0  0
  135.7170   73.5200  223.0090 C   0  0  0  0  0  0  0  0  0  0  0  0
  135.5740   72.9510  224.4040 C   0  0  0  0  0  0  0  0  0  0  0  0
  134.8960   73.8910  225.2890 N   0  0  0  0  0  0  0  0  0  0  0  0
  133.7810   73.4640  226.0580 C   0  0  0  0  0  0  0  0  0  0  0  0
  133.2860   72.1840  226.0570 C   0  0  0  0  0  0  0  0  0  0  0  0
  132.1930   71.7890  226.8160 C   0  0  0  0  0  0  0  0  0  0  0  0
  131.5860   72.7420  227.6030 C   0  0  0  0  0  0  0  0  0  0  0  0
  132.1070   74.0100  227.5780 C   0  0  0  0  0  0  0  0  0  0  0  0
  133.1580   74.3630  226.8400 N   0  0  0  0  0  0  0  0  0  0  0  0
  135.4330   75.2370  225.3200 C   0  0  0  0  0  0  0  0  0  0  0  0
  135.3040   75.7880  223.8960 C   0  0  0  0  0  0  0  0  0  0  0  0
  137.6980   76.6380  222.6320 N   0  0  0  0  0  0  0  0  0  0  0  0
  138.7420   77.1270  221.9410 C   0  0  0  0  0  0  0  0  0  0  0  0
  139.3190   78.4030  222.2140 N   0  0  0  0  0  0  0  0  0  0  0  0
  138.5760   79.3510  223.0110 C   0  0  0  0  0  0  0  0  0  0  0  0
  139.3390   80.5230  223.4990 C   0  0  0  0  0  0  0  0  0  0  0  0
  140.8000   80.4390  223.3840 C   0  0  0  0  0  0  0  0  0  0  0  0
  141.5500   81.2930  224.2050 C   0  0  0  0  0  0  0  0  0  0  0  0
  142.9120   81.2200  224.0990 C   0  0  0  0  0  0  0  0  0  0  0  0
  143.5700   80.3640  223.2400 C   0  0  0  0  0  0  0  0  0  0  0  0
  142.8090   79.5240  222.4320 C   0  0  0  0  0  0  0  0  0  0  0  0
  141.4410   79.5840  222.5250 C   0  0  0  0  0  0  0  0  0  0  0  0
  140.6320   78.7000  221.6760 C   0  0  0  0  0  0  0  0  0  0  0  0
  139.2430   76.3600  220.9650 N   0  0  0  0  0  0  0  0  0  0  0  0
  139.4230   72.2180  220.4670 C   0  0  0  0  0  0  0  0  0  0  0  0
  140.7310   71.5060  223.7670 N   0  0  0  0  0  0  0  0  0  0  0  0
  140.6946   71.3211  227.1218 H   0  0  0  0  0  0  0  0  0  0  0  0
  142.1719   70.9845  226.1570 H   0  0  0  0  0  0  0  0  0  0  0  0
  141.4551   72.6316  226.1570 H   0  0  0  0  0  0  0  0  0  0  0  0
  138.8756   70.2065  226.2542 H   0  0  0  0  0  0  0  0  0  0  0  0
  137.5112   69.6228  224.2706 H   0  0  0  0  0  0  0  0  0  0  0  0
  142.1569   70.5040  221.6007 H   0  0  0  0  0  0  0  0  0  0  0  0
  141.5382   70.5378  219.9363 H   0  0  0  0  0  0  0  0  0  0  0  0
  143.0963   72.5499  221.4497 H   0  0  0  0  0  0  0  0  0  0  0  0
  142.8987   72.3006  219.6521 H   0  0  0  0  0  0  0  0  0  0  0  0
  141.2284   73.9410  221.5447 H   0  0  0  0  0  0  0  0  0  0  0  0
  142.0415   74.4192  220.0124 H   0  0  0  0  0  0  0  0  0  0  0  0
  140.5846   72.8975  218.7802 H   0  0  0  0  0  0  0  0  0  0  0  0
  139.2550   74.7480  218.5790 H   0  0  0  0  0  0  0  0  0  0  0  0
  134.7533   73.4348  222.4856 H   0  0  0  0  0  0  0  0  0  0  0  0
  136.4962   72.9532  222.4783 H   0  0  0  0  0  0  0  0  0  0  0  0
  134.9901   72.0201  224.3539 H   0  0  0  0  0  0  0  0  0  0  0  0
  136.5793   72.7566  224.8061 H   0  0  0  0  0  0  0  0  0  0  0  0
  133.7803   71.4333  225.4228 H   0  0  0  0  0  0  0  0  0  0  0  0
  131.8252   70.7526  226.7897 H   0  0  0  0  0  0  0  0  0  0  0  0
  130.7155   72.4952  228.2285 H   0  0  0  0  0  0  0  0  0  0  0  0
  131.6299   74.7794  228.2029 H   0  0  0  0  0  0  0  0  0  0  0  0
  134.8588   75.8594  226.0221 H   0  0  0  0  0  0  0  0  0  0  0  0
  136.4807   75.2404  225.6552 H   0  0  0  0  0  0  0  0  0  0  0  0
  134.2534   75.7633  223.5710 H   0  0  0  0  0  0  0  0  0  0  0  0
  135.6405   76.8337  223.8382 H   0  0  0  0  0  0  0  0  0  0  0  0
  137.7403   79.7232  222.4002 H   0  0  0  0  0  0  0  0  0  0  0  0
  138.2634   78.8027  223.9119 H   0  0  0  0  0  0  0  0  0  0  0  0
  139.0073   81.4016  222.9262 H   0  0  0  0  0  0  0  0  0  0  0  0
  139.1315   80.5809  224.5777 H   0  0  0  0  0  0  0  0  0  0  0  0
  141.0648   81.9908  224.9034 H   0  0  0  0  0  0  0  0  0  0  0  0
  143.5175   81.8821  224.7354 H   0  0  0  0  0  0  0  0  0  0  0  0
  144.6689   80.3458  223.1948 H   0  0  0  0  0  0  0  0  0  0  0  0
  143.2941   78.8265  221.7333 H   0  0  0  0  0  0  0  0  0  0  0  0
  140.5028   79.1844  220.6969 H   0  0  0  0  0  0  0  0  0  0  0  0
  141.1713   77.7437  221.6085 H   0  0  0  0  0  0  0  0  0  0  0  0
  138.6135   72.6927  221.0409 H   0  0  0  0  0  0  0  0  0  0  0  0
  138.9660   71.5264  219.7440 H   0  0  0  0  0  0  0  0  0  0  0  0
  1  2  1  0
  2  3  2  0
  3  4  1  0
  4  5  2  0
  5  6  1  0
  6  7  1  0
  7  8  1  0
  8  9  1  0
  9 10  1  0
 10 11  1  0
 11 12  1  0
 12 13  1  0
 13 14  2  0
 14 15  1  0
 15 16  1  0
 16 17  1  0
 17 18  1  0
 18 19  1  0
 19 20  1  0
 20 21  2  0
 21 22  1  0
 22 23  2  0
 23 24  1  0
 24 25  2  0
 19 26  1  0
 26 27  1  0
 15 28  2  0
 28 29  1  0
 29 30  1  0
 30 31  1  0
 31 32  1  0
 32 33  1  0
 33 34  2  0
 34 35  1  0
 35 36  2  0
 36 37  1  0
 37 38  2  0
 38 39  1  0
 29 40  2  0
 11 41  1  0
  6 42  2  0
 42  2  1  0
 41  7  1  0
 40 13  1  0
 27 16  1  0
 39 30  1  0
 25 20  1  0
 38 33  1  0
  1 43  1  0
  1 44  1  0
  1 45  1  0
  3 46  1  0
  4 47  1  0
  8 48  1  0
  8 49  1  0
  9 50  1  0
  9 51  1  0
 10 52  1  0
 10 53  1  0
 11 54  1  6
 12 55  1  0
 17 56  1  0
 17 57  1  0
 18 58  1  0
 18 59  1  0
 21 60  1  0
 22 61  1  0
 23 62  1  0
 24 63  1  0
 26 64  1  0
 26 65  1  0
 27 66  1  0
 27 67  1  0
 31 68  1  0
 31 69  1  0
 32 70  1  0
 32 71  1  0
 34 72  1  0
 35 73  1  0
 36 74  1  0
 37 75  1  0
 39 76  1  0
 39 77  1  0
 41 78  1  0
 41 79  1  0
M  END
>  <smiles>  (36) 
Cc1ccnc(N2CCCC(Nc3nc(N4CCN(c5ccccn5)CC4)nc(N4CCc5ccccc5C4)n3)C2)n1

>  <score_type>  (36) 
oracle

>  <origin>  (36) 
autodockgpu

>  <m_score__min__energy>  (36) 
-10.5

>  <m_primary>  (36) 
energy

>  <rmsd>  (36) 
7.543374951635145

>  <m_score__min__rmsd>  (36) 
7.543374951635145

>  <meeko>  (36) 
{"free_energy": -9.3, "intermolecular_energy": -11.09, "internal_energy": -1.97, "cluster_size": 4, "cluster_id": 4, "rank_in_cluster": 1}

>  <energy>  (36) 
-8.76

>  <cluster_rmsd>  (36) 
0.0

>  <cluster>  (36) 
8

$$$$

     RDKit          3D

 79 85  0  0  1  0  0  0  0  0999 V2000
  134.4080   75.4140  226.0190 C   0  0  0  0  0  0  0  0  0  0  0  0
  135.1730   74.9230  224.8520 C   0  0  0  0  0  0  0  0  0  0  0  0
  135.0440   73.5900  224.4630 C   0  0  0  0  0  0  0  0  0  0  0  0
  135.7800   73.1820  223.3690 C   0  0  0  0  0  0  0  0  0  0  0  0
  136.5950   73.9980  222.6810 N   0  0  0  0  0  0  0  0  0  0  0  0
  136.6980   75.2830  223.0840 C   0  0  0  0  0  0  0  0  0  0  0  0
  137.5710   76.1160  222.3330 N   0  0  0  0  0  0  0  0  0  0  0  0
  137.0530   76.8410  221.1900 C   0  0  0  0  0  0  0  0  0  0  0  0
  137.7170   76.2570  219.9710 C   0  0  0  0  0  0  0  0  0  0  0  0
  138.9640   75.4820  220.2860 C   0  0  0  0  0  0  0  0  0  0  0  0
  139.7590   76.1990  221.3590 C   0  0  2  0  0  0  0  0  0  0  0  0
  141.0100   75.5400  221.6300 N   0  0  0  0  0  0  0  0  0  0  0  0
  141.1910   74.1310  221.5930 C   0  0  0  0  0  0  0  0  0  0  0  0
  141.9420   73.5040  220.6720 N   0  0  0  0  0  0  0  0  0  0  0  0
  142.0590   72.1570  220.7110 C   0  0  0  0  0  0  0  0  0  0  0  0
  142.8480   71.5020  219.7390 N   0  0  0  0  0  0  0  0  0  0  0  0
  144.0620   72.0940  219.1890 C   0  0  0  0  0  0  0  0  0  0  0  0
  145.2240   71.1300  219.2740 C   0  0  0  0  0  0  0  0  0  0  0  0
  144.8180   69.7800  218.9030 N   0  0  0  0  0  0  0  0  0  0  0  0
  145.5580   69.0570  217.9310 C   0  0  0  0  0  0  0  0  0  0  0  0
  145.7410   67.6970  217.9520 C   0  0  0  0  0  0  0  0  0  0  0  0
  146.4720   67.0110  216.9910 C   0  0  0  0  0  0  0  0  0  0  0  0
  147.0340   67.7470  215.9730 C   0  0  0  0  0  0  0  0  0  0  0  0
  146.8310   69.1030  215.9830 C   0  0  0  0  0  0  0  0  0  0  0  0
  146.1250   69.7370  216.9180 N   0  0  0  0  0  0  0  0  0  0  0  0
  143.6480   69.2580  219.5820 C   0  0  0  0  0  0  0  0  0  0  0  0
  142.4870   70.1910  219.2240 C   0  0  0  0  0  0  0  0  0  0  0  0
  141.4440   71.4150  221.6510 N   0  0  0  0  0  0  0  0  0  0  0  0
  140.6890   72.0240  222.5810 C   0  0  0  0  0  0  0  0  0  0  0  0
  140.0100   71.3110  223.6130 N   0  0  0  0  0  0  0  0  0  0  0  0
  138.9570   70.3900  223.2510 C   0  0  0  0  0  0  0  0  0  0  0  0
  138.5010   69.4770  224.3230 C   0  0  0  0  0  0  0  0  0  0  0  0
  139.3550   69.3970  225.5150 C   0  0  0  0  0  0  0  0  0  0  0  0
  139.2070   68.2630  226.3250 C   0  0  0  0  0  0  0  0  0  0  0  0
  140.0000   68.1860  227.4370 C   0  0  0  0  0  0  0  0  0  0  0  0
  140.9190   69.1510  227.7930 C   0  0  0  0  0  0  0  0  0  0  0  0
  141.0520   70.2700  226.9760 C   0  0  0  0  0  0  0  0  0  0  0  0
  140.2650   70.3650  225.8560 C   0  0  0  0  0  0  0  0  0  0  0  0
  140.4000   71.5420  224.9890 C   0  0  0  0  0  0  0  0  0  0  0  0
  140.5940   73.3580  222.5140 N   0  0  0  0  0  0  0  0  0  0  0  0
  138.9850   76.2780  222.6610 C   0  0  0  0  0  0  0  0  0  0  0  0
  135.9970   75.7200  224.1450 N   0  0  0  0  0  0  0  0  0  0  0  0
  134.9069   75.0938  226.9456 H   0  0  0  0  0  0  0  0  0  0  0  0
  134.3592   76.5125  225.9896 H   0  0  0  0  0  0  0  0  0  0  0  0
  133.3890   75.0008  225.9896 H   0  0  0  0  0  0  0  0  0  0  0  0
  134.3851   72.8948  225.0039 H   0  0  0  0  0  0  0  0  0  0  0  0
  135.6946   72.1346  223.0440 H   0  0  0  0  0  0  0  0  0  0  0  0
  135.9621   76.7160  221.1242 H   0  0  0  0  0  0  0  0  0  0  0  0
  137.2609   77.9177  221.2766 H   0  0  0  0  0  0  0  0  0  0  0  0
  137.0035   75.5831  219.4742 H   0  0  0  0  0  0  0  0  0  0  0  0
  138.0112   77.0984  219.3264 H   0  0  0  0  0  0  0  0  0  0  0  0
  138.6894   74.4789  220.6443 H   0  0  0  0  0  0  0  0  0  0  0  0
  139.5771   75.3968  219.3767 H   0  0  0  0  0  0  0  0  0  0  0  0
  139.9498   77.2098  220.9693 H   0  0  0  0  0  0  0  0  0  0  0  0
  141.8260   76.1510  221.8670 H   0  0  0  0  0  0  0  0  0  0  0  0
  143.8885   72.3556  218.1347 H   0  0  0  0  0  0  0  0  0  0  0  0
  144.3092   72.9920  219.7742 H   0  0  0  0  0  0  0  0  0  0  0  0
  146.0191   71.4656  218.5920 H   0  0  0  0  0  0  0  0  0  0  0  0
  145.5857   71.1116  220.3127 H   0  0  0  0  0  0  0  0  0  0  0  0
  145.2857   67.1213  218.7713 H   0  0  0  0  0  0  0  0  0  0  0  0
  146.5972   65.9193  217.0416 H   0  0  0  0  0  0  0  0  0  0  0  0
  147.6246   67.2649  215.1801 H   0  0  0  0  0  0  0  0  0  0  0  0
  147.2759   69.7007  215.1738 H   0  0  0  0  0  0  0  0  0  0  0  0
  143.4337   68.2352  219.2386 H   0  0  0  0  0  0  0  0  0  0  0  0
  143.8044   69.2159  220.6700 H   0  0  0  0  0  0  0  0  0  0  0  0
  142.3539   70.2331  218.1329 H   0  0  0  0  0  0  0  0  0  0  0  0
  141.5396   69.8369  219.6564 H   0  0  0  0  0  0  0  0  0  0  0  0
  138.0904   70.9816  222.9207 H   0  0  0  0  0  0  0  0  0  0  0  0
  139.3824   69.7432  222.4696 H   0  0  0  0  0  0  0  0  0  0  0  0
  137.5041   69.8110  224.6465 H   0  0  0  0  0  0  0  0  0  0  0  0
  138.5204   68.4705  223.8796 H   0  0  0  0  0  0  0  0  0  0  0  0
  138.4855   67.4703  226.0777 H   0  0  0  0  0  0  0  0  0  0  0  0
  139.8989   67.3030  228.0851 H   0  0  0  0  0  0  0  0  0  0  0  0
  141.5314   69.0390  228.6999 H   0  0  0  0  0  0  0  0  0  0  0  0
  141.7737   71.0625  227.2233 H   0  0  0  0  0  0  0  0  0  0  0  0
  139.7690   72.3455  225.3966 H   0  0  0  0  0  0  0  0  0  0  0  0
  141.4679   71.8056  224.9760 H   0  0  0  0  0  0  0  0  0  0  0  0
  139.3085   75.4762  223.3410 H   0  0  0  0  0  0  0  0  0  0  0  0
  139.1618   77.2408  223.1627 H   0  0  0  0  0  0  0  0  0  0  0  0
  1  2  1  0
  2  3  2  0
  3  4  1  0
  4  5  2  0
  5  6  1  0
  6  7  1  0
  7  8  1  0
  8  9  1  0
  9 10  1  0
 10 11  1  0
 11 12  1  0
 12 13  1  0
 13 14  2  0
 14 15  1  0
 15 16  1  0
 16 17  1  0
 17 18  1  0
 18 19  1  0
 19 20  1  0
 20 21  2  0
 21 22  1  0
 22 23  2  0
 23 24  1  0
 24 25  2  0
 19 26  1  0
 26 27  1  0
 15 28  2  0
 28 29  1  0
 29 30  1  0
 30 31  1  0
 31 32  1  0
 32 33  1  0
 33 34  2  0
 34 35  1  0
 35 36  2  0
 36 37  1  0
 37 38  2  0
 38 39  1  0
 29 40  2  0
 11 41  1  0
  6 42  2  0
 42  2  1  0
 41  7  1  0
 40 13  1  0
 27 16  1  0
 39 30  1  0
 25 20  1  0
 38 33  1  0
  1 43  1  0
  1 44  1  0
  1 45  1  0
  3 46  1  0
  4 47  1  0
  8 48  1  0
  8 49  1  0
  9 50  1  0
  9 51  1  0
 10 52  1  0
 10 53  1  0
 11 54  1  6
 12 55  1  0
 17 56  1  0
 17 57  1  0
 18 58  1  0
 18 59  1  0
 21 60  1  0
 22 61  1  0
 23 62  1  0
 24 63  1  0
 26 64  1  0
 26 65  1  0
 27 66  1  0
 27 67  1  0
 31 68  1  0
 31 69  1  0
 32 70  1  0
 32 71  1  0
 34 72  1  0
 35 73  1  0
 36 74  1  0
 37 75  1  0
 39 76  1  0
 39 77  1  0
 41 78  1  0
 41 79  1  0
M  END
>  <smiles>  (37) 
Cc1ccnc(N2CCCC(Nc3nc(N4CCN(c5ccccn5)CC4)nc(N4CCc5ccccc5C4)n3)C2)n1

>  <score_type>  (37) 
oracle

>  <origin>  (37) 
autodockgpu

>  <m_score__min__energy>  (37) 
-10.5

>  <m_primary>  (37) 
energy

>  <rmsd>  (37) 
8.357480071977703

>  <m_score__min__rmsd>  (37) 
8.357480071977703

>  <meeko>  (37) 
{"free_energy": -9.13, "intermolecular_energy": -10.92, "internal_energy": -1.93, "cluster_size": 3, "cluster_id": 5, "rank_in_cluster": 1}

>  <energy>  (37) 
-8.4

>  <cluster_rmsd>  (37) 
1.49

>  <cluster>  (37) 
8

$$$$

     RDKit          3D

 79 85  0  0  1  0  0  0  0  0999 V2000
  135.7940   71.7050  222.9070 C   0  0  0  0  0  0  0  0  0  0  0  0
  135.9050   73.1330  223.2730 C   0  0  0  0  0  0  0  0  0  0  0  0
  135.1440   73.6280  224.3320 C   0  0  0  0  0  0  0  0  0  0  0  0
  135.2830   74.9680  224.6330 C   0  0  0  0  0  0  0  0  0  0  0  0
  136.1030   75.7930  223.9620 N   0  0  0  0  0  0  0  0  0  0  0  0
  136.8260   75.2830  222.9420 C   0  0  0  0  0  0  0  0  0  0  0  0
  137.6810   76.1870  222.2550 N   0  0  0  0  0  0  0  0  0  0  0  0
  137.1370   77.0140  221.1960 C   0  0  0  0  0  0  0  0  0  0  0  0
  137.7790   76.5500  219.9140 C   0  0  0  0  0  0  0  0  0  0  0  0
  139.0350   75.7570  220.1310 C   0  0  0  0  0  0  0  0  0  0  0  0
  139.8480   76.3740  221.2510 C   0  0  2  0  0  0  0  0  0  0  0  0
  141.1070   75.7000  221.4350 N   0  0  0  0  0  0  0  0  0  0  0  0
  141.2620   74.2870  221.4230 C   0  0  0  0  0  0  0  0  0  0  0  0
  142.0080   73.6310  220.5180 N   0  0  0  0  0  0  0  0  0  0  0  0
  142.0990   72.2820  220.5810 C   0  0  0  0  0  0  0  0  0  0  0  0
  142.8830   71.5960  219.6270 N   0  0  0  0  0  0  0  0  0  0  0  0
  144.1100   72.1570  219.0750 C   0  0  0  0  0  0  0  0  0  0  0  0
  145.2550   71.1740  219.1850 C   0  0  0  0  0  0  0  0  0  0  0  0
  144.8270   69.8250  218.8360 N   0  0  0  0  0  0  0  0  0  0  0  0
  145.5610   69.0720  217.8820 C   0  0  0  0  0  0  0  0  0  0  0  0
  145.7480   67.7140  217.9470 C   0  0  0  0  0  0  0  0  0  0  0  0
  146.4730   66.9970  217.0040 C   0  0  0  0  0  0  0  0  0  0  0  0
  147.0240   67.7000  215.9570 C   0  0  0  0  0  0  0  0  0  0  0  0
  146.8170   69.0550  215.9230 C   0  0  0  0  0  0  0  0  0  0  0  0
  146.1170   69.7190  216.8420 N   0  0  0  0  0  0  0  0  0  0  0  0
  143.6450   69.3360  219.5160 C   0  0  0  0  0  0  0  0  0  0  0  0
  142.5020   70.2820  219.1330 C   0  0  0  0  0  0  0  0  0  0  0  0
  141.4630   71.5680  221.5300 N   0  0  0  0  0  0  0  0  0  0  0  0
  140.7130   72.2080  222.4430 C   0  0  0  0  0  0  0  0  0  0  0  0
  140.0120   71.5250  223.4810 N   0  0  0  0  0  0  0  0  0  0  0  0
  138.9940   70.5640  223.1240 C   0  0  0  0  0  0  0  0  0  0  0  0
  138.5190   69.6890  224.2200 C   0  0  0  0  0  0  0  0  0  0  0  0
  139.3320   69.6820  225.4440 C   0  0  0  0  0  0  0  0  0  0  0  0
  139.1800   68.5820  226.2990 C   0  0  0  0  0  0  0  0  0  0  0  0
  139.9330   68.5740  227.4410 C   0  0  0  0  0  0  0  0  0  0  0  0
  140.8170   69.5760  227.7840 C   0  0  0  0  0  0  0  0  0  0  0  0
  140.9550   70.6600  226.9230 C   0  0  0  0  0  0  0  0  0  0  0  0
  140.2070   70.6860  225.7730 C   0  0  0  0  0  0  0  0  0  0  0  0
  140.3480   71.8270  224.8590 C   0  0  0  0  0  0  0  0  0  0  0  0
  140.6430   73.5410  222.3520 N   0  0  0  0  0  0  0  0  0  0  0  0
  139.1000   76.3260  222.5690 C   0  0  0  0  0  0  0  0  0  0  0  0
  136.7190   73.9830  222.6180 N   0  0  0  0  0  0  0  0  0  0  0  0
  135.7466   71.0948  223.8210 H   0  0  0  0  0  0  0  0  0  0  0  0
  134.8810   71.5484  222.3138 H   0  0  0  0  0  0  0  0  0  0  0  0
  136.6719   71.4092  222.3138 H   0  0  0  0  0  0  0  0  0  0  0  0
  134.4630   72.9791  224.9022 H   0  0  0  0  0  0  0  0  0  0  0  0
  134.6924   75.3807  225.4642 H   0  0  0  0  0  0  0  0  0  0  0  0
  136.0454   76.8899  221.1404 H   0  0  0  0  0  0  0  0  0  0  0  0
  137.3422   78.0790  221.3795 H   0  0  0  0  0  0  0  0  0  0  0  0
  137.0586   75.9209  219.3707 H   0  0  0  0  0  0  0  0  0  0  0  0
  138.0563   77.4495  219.3448 H   0  0  0  0  0  0  0  0  0  0  0  0
  138.7718   74.7230  220.3984 H   0  0  0  0  0  0  0  0  0  0  0  0
  139.6306   75.7621  219.2062 H   0  0  0  0  0  0  0  0  0  0  0  0
  140.0270   77.4180  220.9541 H   0  0  0  0  0  0  0  0  0  0  0  0
  141.9500   76.3020  221.5840 H   0  0  0  0  0  0  0  0  0  0  0  0
  143.9478   72.4028  218.0151 H   0  0  0  0  0  0  0  0  0  0  0  0
  144.3690   73.0610  219.6458 H   0  0  0  0  0  0  0  0  0  0  0  0
  146.0600   71.4830  218.5020 H   0  0  0  0  0  0  0  0  0  0  0  0
  145.6104   71.1683  220.2260 H   0  0  0  0  0  0  0  0  0  0  0  0
  145.3008   67.1653  218.7890 H   0  0  0  0  0  0  0  0  0  0  0  0
  146.6020   65.9080  217.0907 H   0  0  0  0  0  0  0  0  0  0  0  0
  147.6093   67.1932  215.1757 H   0  0  0  0  0  0  0  0  0  0  0  0
  147.2534   69.6260  215.0902 H   0  0  0  0  0  0  0  0  0  0  0  0
  143.4155   68.3108  219.1900 H   0  0  0  0  0  0  0  0  0  0  0  0
  143.7937   69.3115  220.6056 H   0  0  0  0  0  0  0  0  0  0  0  0
  142.3766   70.3065  218.0404 H   0  0  0  0  0  0  0  0  0  0  0  0
  141.5456   69.9521  219.5649 H   0  0  0  0  0  0  0  0  0  0  0  0
  138.1273   71.1193  222.7361 H   0  0  0  0  0  0  0  0  0  0  0  0
  139.4622   69.8931  222.3886 H   0  0  0  0  0  0  0  0  0  0  0  0
  137.5043   70.0142  224.4931 H   0  0  0  0  0  0  0  0  0  0  0  0
  138.5752   68.6644  223.8237 H   0  0  0  0  0  0  0  0  0  0  0  0
  138.4862   67.7618  226.0624 H   0  0  0  0  0  0  0  0  0  0  0  0
  139.8276   67.7193  228.1253 H   0  0  0  0  0  0  0  0  0  0  0  0
  141.3988   69.5192  228.7158 H   0  0  0  0  0  0  0  0  0  0  0  0
  141.6496   71.4796  227.1593 H   0  0  0  0  0  0  0  0  0  0  0  0
  139.6858   72.6332  225.2076 H   0  0  0  0  0  0  0  0  0  0  0  0
  141.4096   72.1150  224.8715 H   0  0  0  0  0  0  0  0  0  0  0  0
  139.4403   75.4659  223.1644 H   0  0  0  0  0  0  0  0  0  0  0  0
  139.2827   77.2386  223.1552 H   0  0  0  0  0  0  0  0  0  0  0  0
  1  2  1  0
  2  3  2  0
  3  4  1  0
  4  5  2  0
  5  6  1  0
  6  7  1  0
  7  8  1  0
  8  9  1  0
  9 10  1  0
 10 11  1  0
 11 12  1  0
 12 13  1  0
 13 14  2  0
 14 15  1  0
 15 16  1  0
 16 17  1  0
 17 18  1  0
 18 19  1  0
 19 20  1  0
 20 21  2  0
 21 22  1  0
 22 23  2  0
 23 24  1  0
 24 25  2  0
 19 26  1  0
 26 27  1  0
 15 28  2  0
 28 29  1  0
 29 30  1  0
 30 31  1  0
 31 32  1  0
 32 33  1  0
 33 34  2  0
 34 35  1  0
 35 36  2  0
 36 37  1  0
 37 38  2  0
 38 39  1  0
 29 40  2  0
 11 41  1  0
  6 42  2  0
 42  2  1  0
 41  7  1  0
 40 13  1  0
 27 16  1  0
 39 30  1  0
 25 20  1  0
 38 33  1  0
  1 43  1  0
  1 44  1  0
  1 45  1  0
  3 46  1  0
  4 47  1  0
  8 48  1  0
  8 49  1  0
  9 50  1  0
  9 51  1  0
 10 52  1  0
 10 53  1  0
 11 54  1  6
 12 55  1  0
 17 56  1  0
 17 57  1  0
 18 58  1  0
 18 59  1  0
 21 60  1  0
 22 61  1  0
 23 62  1  0
 24 63  1  0
 26 64  1  0
 26 65  1  0
 27 66  1  0
 27 67  1  0
 31 68  1  0
 31 69  1  0
 32 70  1  0
 32 71  1  0
 34 72  1  0
 35 73  1  0
 36 74  1  0
 37 75  1  0
 39 76  1  0
 39 77  1  0
 41 78  1  0
 41 79  1  0
M  END
>  <smiles>  (38) 
Cc1ccnc(N2CCCC(Nc3nc(N4CCN(c5ccccn5)CC4)nc(N4CCc5ccccc5C4)n3)C2)n1

>  <score_type>  (38) 
oracle

>  <origin>  (38) 
autodockgpu

>  <m_score__min__energy>  (38) 
-10.5

>  <m_primary>  (38) 
energy

>  <rmsd>  (38) 
8.345710536931232

>  <m_score__min__rmsd>  (38) 
8.345710536931232

>  <meeko>  (38) 
{"free_energy": -8.64, "intermolecular_energy": -10.43, "internal_energy": -2.18, "cluster_size": 3, "cluster_id": 5, "rank_in_cluster": 3}

>  <energy>  (38) 
-8.73

>  <cluster_rmsd>  (38) 
0.0

>  <cluster>  (38) 
9

$$$$

     RDKit          3D

 79 85  0  0  1  0  0  0  0  0999 V2000
  141.4010   71.4530  226.0490 C   0  0  0  0  0  0  0  0  0  0  0  0
  140.3560   70.4980  225.6200 C   0  0  0  0  0  0  0  0  0  0  0  0
  140.5610   69.1320  225.8100 C   0  0  0  0  0  0  0  0  0  0  0  0
  139.5560   68.2830  225.3920 C   0  0  0  0  0  0  0  0  0  0  0  0
  138.4160   68.7110  224.8240 N   0  0  0  0  0  0  0  0  0  0  0  0
  138.2500   70.0410  224.6550 C   0  0  0  0  0  0  0  0  0  0  0  0
  137.0320   70.4550  224.0490 N   0  0  0  0  0  0  0  0  0  0  0  0
  136.1270   69.4560  223.5180 C   0  0  0  0  0  0  0  0  0  0  0  0
  136.1050   69.6450  222.0240 C   0  0  0  0  0  0  0  0  0  0  0  0
  136.6100   70.9900  221.5860 C   0  0  0  0  0  0  0  0  0  0  0  0
  136.1070   72.0620  222.5320 C   0  0  2  0  0  0  0  0  0  0  0  0
  136.4910   73.3810  222.0990 N   0  0  0  0  0  0  0  0  0  0  0  0
  137.8390   73.8150  221.9730 C   0  0  0  0  0  0  0  0  0  0  0  0
  138.8670   72.9810  221.7440 N   0  0  0  0  0  0  0  0  0  0  0  0
  140.1200   73.4810  221.6380 C   0  0  0  0  0  0  0  0  0  0  0  0
  141.1990   72.6010  221.4000 N   0  0  0  0  0  0  0  0  0  0  0  0
  141.0470   71.1510  221.4340 C   0  0  0  0  0  0  0  0  0  0  0  0
  141.6100   70.5150  220.1820 C   0  0  0  0  0  0  0  0  0  0  0  0
  142.8810   71.1240  219.8080 N   0  0  0  0  0  0  0  0  0  0  0  0
  144.0130   70.3050  219.5550 C   0  0  0  0  0  0  0  0  0  0  0  0
  145.2400   70.7820  219.1650 C   0  0  0  0  0  0  0  0  0  0  0  0
  146.3340   69.9620  218.9200 C   0  0  0  0  0  0  0  0  0  0  0  0
  146.1620   68.6060  219.0820 C   0  0  0  0  0  0  0  0  0  0  0  0
  144.9230   68.1660  219.4720 C   0  0  0  0  0  0  0  0  0  0  0  0
  143.8900   68.9740  219.7000 N   0  0  0  0  0  0  0  0  0  0  0  0
  142.8910   72.5700  219.7160 C   0  0  0  0  0  0  0  0  0  0  0  0
  142.5350   73.0960  221.1100 C   0  0  0  0  0  0  0  0  0  0  0  0
  140.3740   74.7980  221.7540 N   0  0  0  0  0  0  0  0  0  0  0  0
  139.3580   75.6470  221.9830 C   0  0  0  0  0  0  0  0  0  0  0  0
  139.5420   77.0560  222.1130 N   0  0  0  0  0  0  0  0  0  0  0  0
  138.4830   77.8500  222.6900 C   0  0  0  0  0  0  0  0  0  0  0  0
  138.8440   79.2360  223.0640 C   0  0  0  0  0  0  0  0  0  0  0  0
  140.2800   79.5460  223.0940 C   0  0  0  0  0  0  0  0  0  0  0  0
  140.6700   80.6650  223.8420 C   0  0  0  0  0  0  0  0  0  0  0  0
  142.0060   80.9590  223.8700 C   0  0  0  0  0  0  0  0  0  0  0  0
  142.9670   80.2220  223.2100 C   0  0  0  0  0  0  0  0  0  0  0  0
  142.5610   79.1150  222.4720 C   0  0  0  0  0  0  0  0  0  0  0  0
  141.2250   78.8050  222.4320 C   0  0  0  0  0  0  0  0  0  0  0  0
  140.7890   77.6370  221.6560 C   0  0  0  0  0  0  0  0  0  0  0  0
  138.1310   75.1200  222.0830 N   0  0  0  0  0  0  0  0  0  0  0  0
  136.6450   71.8590  223.9350 C   0  0  0  0  0  0  0  0  0  0  0  0
  139.2040   70.9000  225.0490 N   0  0  0  0  0  0  0  0  0  0  0  0
  141.4380   71.4868  227.1479 H   0  0  0  0  0  0  0  0  0  0  0  0
  142.3769   71.1282  225.6591 H   0  0  0  0  0  0  0  0  0  0  0  0
  141.1652   72.4542  225.6591 H   0  0  0  0  0  0  0  0  0  0  0  0
  141.4823   68.7481  226.2723 H   0  0  0  0  0  0  0  0  0  0  0  0
  139.6956   67.2008  225.5310 H   0  0  0  0  0  0  0  0  0  0  0  0
  136.4870   68.4470  223.7675 H   0  0  0  0  0  0  0  0  0  0  0  0
  135.1198   69.5659  223.9463 H   0  0  0  0  0  0  0  0  0  0  0  0
  136.7355   68.8693  221.5650 H   0  0  0  0  0  0  0  0  0  0  0  0
  135.0556   69.5714  221.7025 H   0  0  0  0  0  0  0  0  0  0  0  0
  137.7100   70.9860  221.5908 H   0  0  0  0  0  0  0  0  0  0  0  0
  136.2438   71.2017  220.5706 H   0  0  0  0  0  0  0  0  0  0  0  0
  135.0103   71.9762  222.5314 H   0  0  0  0  0  0  0  0  0  0  0  0
  135.7190   74.0480  221.8680 H   0  0  0  0  0  0  0  0  0  0  0  0
  141.5811   70.7542  222.3099 H   0  0  0  0  0  0  0  0  0  0  0  0
  139.9747   70.9134  221.4948 H   0  0  0  0  0  0  0  0  0  0  0  0
  141.7661   69.4414  220.3638 H   0  0  0  0  0  0  0  0  0  0  0  0
  140.8946   70.6689  219.3607 H   0  0  0  0  0  0  0  0  0  0  0  0
  145.3628   71.8680  219.0403 H   0  0  0  0  0  0  0  0  0  0  0  0
  147.3021   70.3808  218.6080 H   0  0  0  0  0  0  0  0  0  0  0  0
  146.9879   67.9012  218.9052 H   0  0  0  0  0  0  0  0  0  0  0  0
  144.7744   67.0841  219.6039 H   0  0  0  0  0  0  0  0  0  0  0  0
  143.8888   72.9252  219.4190 H   0  0  0  0  0  0  0  0  0  0  0  0
  142.1744   72.9259  218.9611 H   0  0  0  0  0  0  0  0  0  0  0  0
  143.2516   72.7189  221.8546 H   0  0  0  0  0  0  0  0  0  0  0  0
  142.5725   74.1948  221.1460 H   0  0  0  0  0  0  0  0  0  0  0  0
  137.6632   77.9011  221.9583 H   0  0  0  0  0  0  0  0  0  0  0  0
  138.2141   77.3483  223.6313 H   0  0  0  0  0  0  0  0  0  0  0  0
  138.3693   79.9138  222.3393 H   0  0  0  0  0  0  0  0  0  0  0  0
  138.4934   79.3628  224.0989 H   0  0  0  0  0  0  0  0  0  0  0  0
  139.9350   81.2795  224.3824 H   0  0  0  0  0  0  0  0  0  0  0  0
  142.3324   81.8333  224.4523 H   0  0  0  0  0  0  0  0  0  0  0  0
  144.0291   80.5029  223.2659 H   0  0  0  0  0  0  0  0  0  0  0  0
  143.2961   78.5006  221.9314 H   0  0  0  0  0  0  0  0  0  0  0  0
  140.6627   77.9459  220.6079 H   0  0  0  0  0  0  0  0  0  0  0  0
  141.5633   76.8657  221.7807 H   0  0  0  0  0  0  0  0  0  0  0  0
  137.5192   72.5058  224.1009 H   0  0  0  0  0  0  0  0  0  0  0  0
  135.8844   72.1172  224.6866 H   0  0  0  0  0  0  0  0  0  0  0  0
  1  2  1  0
  2  3  2  0
  3  4  1  0
  4  5  2  0
  5  6  1  0
  6  7  1  0
  7  8  1  0
  8  9  1  0
  9 10  1  0
 10 11  1  0
 11 12  1  0
 12 13  1  0
 13 14  2  0
 14 15  1  0
 15 16  1  0
 16 17  1  0
 17 18  1  0
 18 19  1  0
 19 20  1  0
 20 21  2  0
 21 22  1  0
 22 23  2  0
 23 24  1  0
 24 25  2  0
 19 26  1  0
 26 27  1  0
 15 28  2  0
 28 29  1  0
 29 30  1  0
 30 31  1  0
 31 32  1  0
 32 33  1  0
 33 34  2  0
 34 35  1  0
 35 36  2  0
 36 37  1  0
 37 38  2  0
 38 39  1  0
 29 40  2  0
 11 41  1  0
  6 42  2  0
 42  2  1  0
 41  7  1  0
 40 13  1  0
 27 16  1  0
 39 30  1  0
 25 20  1  0
 38 33  1  0
  1 43  1  0
  1 44  1  0
  1 45  1  0
  3 46  1  0
  4 47  1  0
  8 48  1  0
  8 49  1  0
  9 50  1  0
  9 51  1  0
 10 52  1  0
 10 53  1  0
 11 54  1  1
 12 55  1  0
 17 56  1  0
 17 57  1  0
 18 58  1  0
 18 59  1  0
 21 60  1  0
 22 61  1  0
 23 62  1  0
 24 63  1  0
 26 64  1  0
 26 65  1  0
 27 66  1  0
 27 67  1  0
 31 68  1  0
 31 69  1  0
 32 70  1  0
 32 71  1  0
 34 72  1  0
 35 73  1  0
 36 74  1  0
 37 75  1  0
 39 76  1  0
 39 77  1  0
 41 78  1  0
 41 79  1  0
M  END
>  <smiles>  (39) 
Cc1ccnc(N2CCCC(Nc3nc(N4CCN(c5ccccn5)CC4)nc(N4CCc5ccccc5C4)n3)C2)n1

>  <score_type>  (39) 
oracle

>  <origin>  (39) 
autodockgpu

>  <m_score__min__energy>  (39) 
-10.5

>  <m_primary>  (39) 
energy

>  <rmsd>  (39) 
6.78258817623841

>  <m_score__min__rmsd>  (39) 
6.78258817623841

>  <meeko>  (39) 
{"free_energy": -9.04, "intermolecular_energy": -10.83, "internal_energy": -2.06, "cluster_size": 9, "cluster_id": 1, "rank_in_cluster": 7}

>  <energy>  (39) 
-8.73

>  <cluster_rmsd>  (39) 
0.4

>  <cluster>  (39) 
9

$$$$

     RDKit          3D

 79 85  0  0  1  0  0  0  0  0999 V2000
  141.2470   71.4700  226.0640 C   0  0  0  0  0  0  0  0  0  0  0  0
  140.1670   70.5920  225.5660 C   0  0  0  0  0  0  0  0  0  0  0  0
  140.2660   69.2130  225.7530 C   0  0  0  0  0  0  0  0  0  0  0  0
  139.2320   68.4380  225.2690 C   0  0  0  0  0  0  0  0  0  0  0  0
  138.1590   68.9480  224.6410 N   0  0  0  0  0  0  0  0  0  0  0  0
  138.0940   70.2860  224.4750 C   0  0  0  0  0  0  0  0  0  0  0  0
  136.9450   70.7870  223.8050 N   0  0  0  0  0  0  0  0  0  0  0  0
  136.0890   69.8700  223.0790 C   0  0  0  0  0  0  0  0  0  0  0  0
  136.2160   70.2230  221.6210 C   0  0  0  0  0  0  0  0  0  0  0  0
  136.7710   71.5990  221.3880 C   0  0  0  0  0  0  0  0  0  0  0  0
  136.1860   72.5690  222.3940 C   0  0  2  0  0  0  0  0  0  0  0  0
  136.6200   73.9200  222.1510 N   0  0  0  0  0  0  0  0  0  0  0  0
  137.9800   74.3030  222.0000 C   0  0  0  0  0  0  0  0  0  0  0  0
  138.9730   73.4300  221.7600 N   0  0  0  0  0  0  0  0  0  0  0  0
  140.2420   73.8820  221.6310 C   0  0  0  0  0  0  0  0  0  0  0  0
  141.2830   72.9610  221.3810 N   0  0  0  0  0  0  0  0  0  0  0  0
  141.1300   71.5280  221.6060 C   0  0  0  0  0  0  0  0  0  0  0  0
  141.5450   70.7380  220.3850 C   0  0  0  0  0  0  0  0  0  0  0  0
  142.7690   71.2760  219.8000 N   0  0  0  0  0  0  0  0  0  0  0  0
  143.8610   70.4130  219.5230 C   0  0  0  0  0  0  0  0  0  0  0  0
  145.0930   70.8400  219.0920 C   0  0  0  0  0  0  0  0  0  0  0  0
  146.1480   69.9770  218.8240 C   0  0  0  0  0  0  0  0  0  0  0  0
  145.9300   68.6300  219.0050 C   0  0  0  0  0  0  0  0  0  0  0  0
  144.6880   68.2400  219.4360 C   0  0  0  0  0  0  0  0  0  0  0  0
  143.6930   69.0890  219.6850 N   0  0  0  0  0  0  0  0  0  0  0  0
  142.7740   72.7000  219.5340 C   0  0  0  0  0  0  0  0  0  0  0  0
  142.5800   73.3940  220.8870 C   0  0  0  0  0  0  0  0  0  0  0  0
  140.5470   75.1900  221.7340 N   0  0  0  0  0  0  0  0  0  0  0  0
  139.5660   76.0770  221.9730 C   0  0  0  0  0  0  0  0  0  0  0  0
  139.8050   77.4790  222.0910 N   0  0  0  0  0  0  0  0  0  0  0  0
  138.7250   78.3390  222.5150 C   0  0  0  0  0  0  0  0  0  0  0  0
  139.1090   79.7180  222.8970 C   0  0  0  0  0  0  0  0  0  0  0  0
  140.5440   79.9600  223.0940 C   0  0  0  0  0  0  0  0  0  0  0  0
  140.8970   81.0810  223.8570 C   0  0  0  0  0  0  0  0  0  0  0  0
  142.2330   81.3120  224.0410 C   0  0  0  0  0  0  0  0  0  0  0  0
  143.2290   80.5110  223.5220 C   0  0  0  0  0  0  0  0  0  0  0  0
  142.8580   79.4020  222.7660 C   0  0  0  0  0  0  0  0  0  0  0  0
  141.5230   79.1550  222.5710 C   0  0  0  0  0  0  0  0  0  0  0  0
  141.1250   77.9870  221.7750 C   0  0  0  0  0  0  0  0  0  0  0  0
  138.3230   75.5970  222.0960 N   0  0  0  0  0  0  0  0  0  0  0  0
  136.5810   72.2020  223.8110 C   0  0  0  0  0  0  0  0  0  0  0  0
  139.0800   71.0760  224.9330 N   0  0  0  0  0  0  0  0  0  0  0  0
  141.2438   71.4674  227.1640 H   0  0  0  0  0  0  0  0  0  0  0  0
  142.2170   71.1011  225.6993 H   0  0  0  0  0  0  0  0  0  0  0  0
  141.0839   72.4949  225.6993 H   0  0  0  0  0  0  0  0  0  0  0  0
  141.1303   68.7633  226.2638 H   0  0  0  0  0  0  0  0  0  0  0  0
  139.2889   67.3478  225.4040 H   0  0  0  0  0  0  0  0  0  0  0  0
  136.4146   68.8330  223.2478 H   0  0  0  0  0  0  0  0  0  0  0  0
  135.0452   69.9513  223.4166 H   0  0  0  0  0  0  0  0  0  0  0  0
  136.8836   69.4917  221.1418 H   0  0  0  0  0  0  0  0  0  0  0  0
  135.2032   70.2038  221.1922 H   0  0  0  0  0  0  0  0  0  0  0  0
  137.8651   71.5744  221.4989 H   0  0  0  0  0  0  0  0  0  0  0  0
  136.5071   71.9283  220.3722 H   0  0  0  0  0  0  0  0  0  0  0  0
  135.0942   72.5044  222.2768 H   0  0  0  0  0  0  0  0  0  0  0  0
  135.8750   74.6520  222.0850 H   0  0  0  0  0  0  0  0  0  0  0  0
  141.7582   71.2290  222.4580 H   0  0  0  0  0  0  0  0  0  0  0  0
  140.0705   71.3182  221.8145 H   0  0  0  0  0  0  0  0  0  0  0  0
  141.7163   69.6911  220.6760 H   0  0  0  0  0  0  0  0  0  0  0  0
  140.7418   70.8057  219.6364 H   0  0  0  0  0  0  0  0  0  0  0  0
  145.2524   71.9193  218.9520 H   0  0  0  0  0  0  0  0  0  0  0  0
  147.1216   70.3560  218.4799 H   0  0  0  0  0  0  0  0  0  0  0  0
  146.7233   67.8931  218.8109 H   0  0  0  0  0  0  0  0  0  0  0  0
  144.5034   67.1658  219.5843 H   0  0  0  0  0  0  0  0  0  0  0  0
  143.7331   73.0000  219.0866 H   0  0  0  0  0  0  0  0  0  0  0  0
  141.9782   72.9762  218.8265 H   0  0  0  0  0  0  0  0  0  0  0  0
  143.3742   73.0947  221.5867 H   0  0  0  0  0  0  0  0  0  0  0  0
  142.6266   74.4885  220.7871 H   0  0  0  0  0  0  0  0  0  0  0  0
  138.0033   78.4069  221.6876 H   0  0  0  0  0  0  0  0  0  0  0  0
  138.3185   77.8791  223.4278 H   0  0  0  0  0  0  0  0  0  0  0  0
  138.7601   80.3955  222.1038 H   0  0  0  0  0  0  0  0  0  0  0  0
  138.6434   79.8923  223.8783 H   0  0  0  0  0  0  0  0  0  0  0  0
  140.1342   81.7456  224.2887 H   0  0  0  0  0  0  0  0  0  0  0  0
  142.5301   82.1872  224.6374 H   0  0  0  0  0  0  0  0  0  0  0  0
  144.2894   80.7425  223.7008 H   0  0  0  0  0  0  0  0  0  0  0  0
  143.6204   78.7373  222.3338 H   0  0  0  0  0  0  0  0  0  0  0  0
  141.1408   78.2712  220.7125 H   0  0  0  0  0  0  0  0  0  0  0  0
  141.8391   77.1840  222.0100 H   0  0  0  0  0  0  0  0  0  0  0  0
  137.4390   72.8106  224.1328 H   0  0  0  0  0  0  0  0  0  0  0  0
  135.7513   72.3889  224.5086 H   0  0  0  0  0  0  0  0  0  0  0  0
  1  2  1  0
  2  3  2  0
  3  4  1  0
  4  5  2  0
  5  6  1  0
  6  7  1  0
  7  8  1  0
  8  9  1  0
  9 10  1  0
 10 11  1  0
 11 12  1  0
 12 13  1  0
 13 14  2  0
 14 15  1  0
 15 16  1  0
 16 17  1  0
 17 18  1  0
 18 19  1  0
 19 20  1  0
 20 21  2  0
 21 22  1  0
 22 23  2  0
 23 24  1  0
 24 25  2  0
 19 26  1  0
 26 27  1  0
 15 28  2  0
 28 29  1  0
 29 30  1  0
 30 31  1  0
 31 32  1  0
 32 33  1  0
 33 34  2  0
 34 35  1  0
 35 36  2  0
 36 37  1  0
 37 38  2  0
 38 39  1  0
 29 40  2  0
 11 41  1  0
  6 42  2  0
 42  2  1  0
 41  7  1  0
 40 13  1  0
 27 16  1  0
 39 30  1  0
 25 20  1  0
 38 33  1  0
  1 43  1  0
  1 44  1  0
  1 45  1  0
  3 46  1  0
  4 47  1  0
  8 48  1  0
  8 49  1  0
  9 50  1  0
  9 51  1  0
 10 52  1  0
 10 53  1  0
 11 54  1  1
 12 55  1  0
 17 56  1  0
 17 57  1  0
 18 58  1  0
 18 59  1  0
 21 60  1  0
 22 61  1  0
 23 62  1  0
 24 63  1  0
 26 64  1  0
 26 65  1  0
 27 66  1  0
 27 67  1  0
 31 68  1  0
 31 69  1  0
 32 70  1  0
 32 71  1  0
 34 72  1  0
 35 73  1  0
 36 74  1  0
 37 75  1  0
 39 76  1  0
 39 77  1  0
 41 78  1  0
 41 79  1  0
M  END
>  <smiles>  (40) 
Cc1ccnc(N2CCCC(Nc3nc(N4CCN(c5ccccn5)CC4)nc(N4CCc5ccccc5C4)n3)C2)n1

>  <score_type>  (40) 
oracle

>  <origin>  (40) 
autodockgpu

>  <m_score__min__energy>  (40) 
-10.5

>  <m_primary>  (40) 
energy

>  <rmsd>  (40) 
6.642489628154042

>  <m_score__min__rmsd>  (40) 
6.642489628154042

>  <meeko>  (40) 
{"free_energy": -9.08, "intermolecular_energy": -10.87, "internal_energy": -2.0, "cluster_size": 9, "cluster_id": 1, "rank_in_cluster": 5}

>  <energy>  (40) 
-8.72

>  <cluster_rmsd>  (40) 
0.48

>  <cluster>  (40) 
9

$$$$

     RDKit          3D

 79 85  0  0  1  0  0  0  0  0999 V2000
  143.7240   76.0920  219.7820 C   0  0  0  0  0  0  0  0  0  0  0  0
  144.2790   74.7240  219.8690 C   0  0  0  0  0  0  0  0  0  0  0  0
  145.4740   74.5140  220.5580 C   0  0  0  0  0  0  0  0  0  0  0  0
  145.9490   73.2190  220.6100 C   0  0  0  0  0  0  0  0  0  0  0  0
  145.3200   72.1790  220.0370 N   0  0  0  0  0  0  0  0  0  0  0  0
  144.1660   72.4160  219.3780 C   0  0  0  0  0  0  0  0  0  0  0  0
  143.5320   71.2910  218.7840 N   0  0  0  0  0  0  0  0  0  0  0  0
  143.7550   71.0080  217.3800 C   0  0  0  0  0  0  0  0  0  0  0  0
  142.4370   71.2220  216.6830 C   0  0  0  0  0  0  0  0  0  0  0  0
  141.2610   71.2090  217.6160 C   0  0  0  0  0  0  0  0  0  0  0  0
  141.4420   70.1250  218.6600 C   0  0  2  0  0  0  0  0  0  0  0  0
  140.2950   70.0140  219.5230 N   0  0  0  0  0  0  0  0  0  0  0  0
  140.0230   70.8980  220.6020 C   0  0  0  0  0  0  0  0  0  0  0  0
  139.9850   72.2350  220.4720 N   0  0  0  0  0  0  0  0  0  0  0  0
  139.7190   73.0030  221.5550 C   0  0  0  0  0  0  0  0  0  0  0  0
  139.6820   74.4080  221.4150 N   0  0  0  0  0  0  0  0  0  0  0  0
  138.4510   75.1760  221.5620 C   0  0  0  0  0  0  0  0  0  0  0  0
  138.6370   76.3200  222.5340 C   0  0  0  0  0  0  0  0  0  0  0  0
  139.9140   76.9910  222.3200 N   0  0  0  0  0  0  0  0  0  0  0  0
  139.9590   78.4010  222.1670 C   0  0  0  0  0  0  0  0  0  0  0  0
  141.1150   79.1270  222.0260 C   0  0  0  0  0  0  0  0  0  0  0  0
  141.1350   80.5080  221.8800 C   0  0  0  0  0  0  0  0  0  0  0  0
  139.9270   81.1660  221.8790 C   0  0  0  0  0  0  0  0  0  0  0  0
  138.7920   80.4090  222.0220 C   0  0  0  0  0  0  0  0  0  0  0  0
  138.8000   79.0840  222.1610 N   0  0  0  0  0  0  0  0  0  0  0  0
  141.0830   76.1350  222.2830 C   0  0  0  0  0  0  0  0  0  0  0  0
  140.8790   75.1740  221.1070 C   0  0  0  0  0  0  0  0  0  0  0  0
  139.4870   72.4670  222.7680 N   0  0  0  0  0  0  0  0  0  0  0  0
  139.5210   71.1320  222.9160 C   0  0  0  0  0  0  0  0  0  0  0  0
  139.2820   70.4870  224.1660 N   0  0  0  0  0  0  0  0  0  0  0  0
  138.6000   69.2140  224.1770 C   0  0  0  0  0  0  0  0  0  0  0  0
  138.6450   68.4680  225.4560 C   0  0  0  0  0  0  0  0  0  0  0  0
  139.6120   68.9460  226.4520 C   0  0  0  0  0  0  0  0  0  0  0  0
  139.9890   68.0410  227.4540 C   0  0  0  0  0  0  0  0  0  0  0  0
  140.8880   68.4840  228.3860 C   0  0  0  0  0  0  0  0  0  0  0  0
  141.4300   69.7520  228.3870 C   0  0  0  0  0  0  0  0  0  0  0  0
  141.0430   70.6370  227.3840 C   0  0  0  0  0  0  0  0  0  0  0  0
  140.1430   70.2110  226.4410 C   0  0  0  0  0  0  0  0  0  0  0  0
  139.7310   71.1390  225.3800 C   0  0  0  0  0  0  0  0  0  0  0  0
  139.7870   70.4020  221.8260 N   0  0  0  0  0  0  0  0  0  0  0  0
  142.6540   70.3940  219.5310 C   0  0  0  0  0  0  0  0  0  0  0  0
  143.6700   73.6630  219.3050 N   0  0  0  0  0  0  0  0  0  0  0  0
  143.5635   76.4877  220.7957 H   0  0  0  0  0  0  0  0  0  0  0  0
  144.4301   76.7406  219.2428 H   0  0  0  0  0  0  0  0  0  0  0  0
  142.7656   76.0653  219.2428 H   0  0  0  0  0  0  0  0  0  0  0  0
  146.0136   75.3435  221.0384 H   0  0  0  0  0  0  0  0  0  0  0  0
  146.8897   73.0288  221.1475 H   0  0  0  0  0  0  0  0  0  0  0  0
  144.5154   71.6899  216.9716 H   0  0  0  0  0  0  0  0  0  0  0  0
  144.1177   69.9796  217.2355 H   0  0  0  0  0  0  0  0  0  0  0  0
  142.4665   72.1959  216.1725 H   0  0  0  0  0  0  0  0  0  0  0  0
  142.3025   70.3877  215.9788 H   0  0  0  0  0  0  0  0  0  0  0  0
  141.1806   72.1860  218.1150 H   0  0  0  0  0  0  0  0  0  0  0  0
  140.3450   71.0083  217.0410 H   0  0  0  0  0  0  0  0  0  0  0  0
  141.5766   69.1867  218.1019 H   0  0  0  0  0  0  0  0  0  0  0  0
  139.6310   69.2290  219.3290 H   0  0  0  0  0  0  0  0  0  0  0  0
  138.1608   75.5811  220.5814 H   0  0  0  0  0  0  0  0  0  0  0  0
  137.6673   74.5097  221.9517 H   0  0  0  0  0  0  0  0  0  0  0  0
  137.8223   77.0458  222.3941 H   0  0  0  0  0  0  0  0  0  0  0  0
  138.6235   75.9143  223.5564 H   0  0  0  0  0  0  0  0  0  0  0  0
  142.0739   78.5881  222.0287 H   0  0  0  0  0  0  0  0  0  0  0  0
  142.0825   81.0558  221.7692 H   0  0  0  0  0  0  0  0  0  0  0  0
  139.8731   82.2590  221.7676 H   0  0  0  0  0  0  0  0  0  0  0  0
  137.8205   80.9250  222.0219 H   0  0  0  0  0  0  0  0  0  0  0  0
  141.9906   76.7371  222.1291 H   0  0  0  0  0  0  0  0  0  0  0  0
  141.2059   75.5870  223.2289 H   0  0  0  0  0  0  0  0  0  0  0  0
  140.7414   75.7379  220.1726 H   0  0  0  0  0  0  0  0  0  0  0  0
  141.7511   74.5181  220.9681 H   0  0  0  0  0  0  0  0  0  0  0  0
  137.5437   69.3952  223.9293 H   0  0  0  0  0  0  0  0  0  0  0  0
  139.1303   68.5854  223.4464 H   0  0  0  0  0  0  0  0  0  0  0  0
  137.6440   68.5183  225.9092 H   0  0  0  0  0  0  0  0  0  0  0  0
  138.9724   67.4515  225.1923 H   0  0  0  0  0  0  0  0  0  0  0  0
  139.5805   67.0203  227.4896 H   0  0  0  0  0  0  0  0  0  0  0  0
  141.1961   67.7882  229.1804 H   0  0  0  0  0  0  0  0  0  0  0  0
  142.1500   70.0567  229.1607 H   0  0  0  0  0  0  0  0  0  0  0  0
  141.4512   71.6579  227.3488 H   0  0  0  0  0  0  0  0  0  0  0  0
  138.9077   71.7593  225.7639 H   0  0  0  0  0  0  0  0  0  0  0  0
  140.6192   71.7304  225.1129 H   0  0  0  0  0  0  0  0  0  0  0  0
  142.3431   70.8691  220.4731 H   0  0  0  0  0  0  0  0  0  0  0  0
  143.1730   69.4562  219.7785 H   0  0  0  0  0  0  0  0  0  0  0  0
  1  2  1  0
  2  3  2  0
  3  4  1  0
  4  5  2  0
  5  6  1  0
  6  7  1  0
  7  8  1  0
  8  9  1  0
  9 10  1  0
 10 11  1  0
 11 12  1  0
 12 13  1  0
 13 14  2  0
 14 15  1  0
 15 16  1  0
 16 17  1  0
 17 18  1  0
 18 19  1  0
 19 20  1  0
 20 21  2  0
 21 22  1  0
 22 23  2  0
 23 24  1  0
 24 25  2  0
 19 26  1  0
 26 27  1  0
 15 28  2  0
 28 29  1  0
 29 30  1  0
 30 31  1  0
 31 32  1  0
 32 33  1  0
 33 34  2  0
 34 35  1  0
 35 36  2  0
 36 37  1  0
 37 38  2  0
 38 39  1  0
 29 40  2  0
 11 41  1  0
  6 42  2  0
 42  2  1  0
 41  7  1  0
 40 13  1  0
 27 16  1  0
 39 30  1  0
 25 20  1  0
 38 33  1  0
  1 43  1  0
  1 44  1  0
  1 45  1  0
  3 46  1  0
  4 47  1  0
  8 48  1  0
  8 49  1  0
  9 50  1  0
  9 51  1  0
 10 52  1  0
 10 53  1  0
 11 54  1  6
 12 55  1  0
 17 56  1  0
 17 57  1  0
 18 58  1  0
 18 59  1  0
 21 60  1  0
 22 61  1  0
 23 62  1  0
 24 63  1  0
 26 64  1  0
 26 65  1  0
 27 66  1  0
 27 67  1  0
 31 68  1  0
 31 69  1  0
 32 70  1  0
 32 71  1  0
 34 72  1  0
 35 73  1  0
 36 74  1  0
 37 75  1  0
 39 76  1  0
 39 77  1  0
 41 78  1  0
 41 79  1  0
M  END
>  <smiles>  (41) 
Cc1ccnc(N2CCCC(Nc3nc(N4CCN(c5ccccn5)CC4)nc(N4CCc5ccccc5C4)n3)C2)n1

>  <score_type>  (41) 
oracle

>  <origin>  (41) 
autodockgpu

>  <m_score__min__energy>  (41) 
-10.5

>  <m_primary>  (41) 
energy

>  <rmsd>  (41) 
7.848739057300848

>  <m_score__min__rmsd>  (41) 
7.848739057300848

>  <meeko>  (41) 
{"free_energy": -8.69, "intermolecular_energy": -10.47, "internal_energy": -2.07, "cluster_size": 4, "cluster_id": 6, "rank_in_cluster": 4}

>  <energy>  (41) 
-8.71

>  <cluster_rmsd>  (41) 
0.1

>  <cluster>  (41) 
9

$$$$

     RDKit          3D

 79 85  0  0  1  0  0  0  0  0999 V2000
  140.4610   68.9840  227.9900 C   0  0  0  0  0  0  0  0  0  0  0  0
  140.3270   69.8160  226.7750 C   0  0  0  0  0  0  0  0  0  0  0  0
  141.0330   71.0170  226.6880 C   0  0  0  0  0  0  0  0  0  0  0  0
  140.8730   71.7560  225.5330 C   0  0  0  0  0  0  0  0  0  0  0  0
  140.0830   71.3740  224.5150 N   0  0  0  0  0  0  0  0  0  0  0  0
  139.4140   70.2080  224.6320 C   0  0  0  0  0  0  0  0  0  0  0  0
  138.5870   69.8380  223.5360 N   0  0  0  0  0  0  0  0  0  0  0  0
  138.1730   68.4570  223.3920 C   0  0  0  0  0  0  0  0  0  0  0  0
  138.8380   67.9340  222.1460 C   0  0  0  0  0  0  0  0  0  0  0  0
  139.3200   69.0200  221.2280 C   0  0  0  0  0  0  0  0  0  0  0  0
  138.3020   70.1410  221.1760 C   0  0  2  0  0  0  0  0  0  0  0  0
  138.6780   71.1650  220.2370 N   0  0  0  0  0  0  0  0  0  0  0  0
  139.9710   71.7530  220.1770 C   0  0  0  0  0  0  0  0  0  0  0  0
  140.2250   73.0210  220.5410 N   0  0  0  0  0  0  0  0  0  0  0  0
  141.4880   73.5000  220.4510 C   0  0  0  0  0  0  0  0  0  0  0  0
  141.7510   74.8350  220.8320 N   0  0  0  0  0  0  0  0  0  0  0  0
  142.7040   75.6780  220.1200 C   0  0  0  0  0  0  0  0  0  0  0  0
  142.0830   77.0050  219.7460 C   0  0  0  0  0  0  0  0  0  0  0  0
  141.2850   77.5420  220.8420 N   0  0  0  0  0  0  0  0  0  0  0  0
  141.4920   78.8750  221.2850 C   0  0  0  0  0  0  0  0  0  0  0  0
  141.9580   79.2110  222.5310 C   0  0  0  0  0  0  0  0  0  0  0  0
  142.1520   80.5230  222.9440 C   0  0  0  0  0  0  0  0  0  0  0  0
  141.8560   81.5230  222.0470 C   0  0  0  0  0  0  0  0  0  0  0  0
  141.3930   81.1500  220.8110 C   0  0  0  0  0  0  0  0  0  0  0  0
  141.2160   79.8830  220.4400 N   0  0  0  0  0  0  0  0  0  0  0  0
  140.3030   76.6420  221.4150 C   0  0  0  0  0  0  0  0  0  0  0  0
  141.0840   75.4460  221.9710 C   0  0  0  0  0  0  0  0  0  0  0  0
  142.5080   72.7420  220.0070 N   0  0  0  0  0  0  0  0  0  0  0  0
  142.2720   71.4710  219.6390 C   0  0  0  0  0  0  0  0  0  0  0  0
  143.2980   70.6020  219.1630 N   0  0  0  0  0  0  0  0  0  0  0  0
  144.6710   71.0510  219.2040 C   0  0  0  0  0  0  0  0  0  0  0  0
  145.6990   70.0100  218.9770 C   0  0  0  0  0  0  0  0  0  0  0  0
  145.2370   68.6170  219.0420 C   0  0  0  0  0  0  0  0  0  0  0  0
  146.2120   67.6370  219.2680 C   0  0  0  0  0  0  0  0  0  0  0  0
  145.7860   66.3380  219.3270 C   0  0  0  0  0  0  0  0  0  0  0  0
  144.4690   65.9550  219.1760 C   0  0  0  0  0  0  0  0  0  0  0  0
  143.5150   66.9430  218.9510 C   0  0  0  0  0  0  0  0  0  0  0  0
  143.9240   68.2510  218.8890 C   0  0  0  0  0  0  0  0  0  0  0  0
  142.9220   69.2980  218.6530 C   0  0  0  0  0  0  0  0  0  0  0  0
  141.0130   71.0280  219.7400 N   0  0  0  0  0  0  0  0  0  0  0  0
  138.1300   70.7970  222.5330 C   0  0  0  0  0  0  0  0  0  0  0  0
  139.5430   69.4580  225.7400 N   0  0  0  0  0  0  0  0  0  0  0  0
  140.3587   69.6190  228.8824 H   0  0  0  0  0  0  0  0  0  0  0  0
  139.6753   68.2142  227.9958 H   0  0  0  0  0  0  0  0  0  0  0  0
  141.4487   68.4998  227.9958 H   0  0  0  0  0  0  0  0  0  0  0  0
  141.6875   71.3592  227.5032 H   0  0  0  0  0  0  0  0  0  0  0  0
  141.4200   72.7059  225.4412 H   0  0  0  0  0  0  0  0  0  0  0  0
  138.4932   67.8720  224.2668 H   0  0  0  0  0  0  0  0  0  0  0  0
  137.0783   68.3774  223.3196 H   0  0  0  0  0  0  0  0  0  0  0  0
  139.7008   67.3195  222.4427 H   0  0  0  0  0  0  0  0  0  0  0  0
  138.0843   67.3528  221.5946 H   0  0  0  0  0  0  0  0  0  0  0  0
  140.2774   69.4137  221.6000 H   0  0  0  0  0  0  0  0  0  0  0  0
  139.4553   68.6066  220.2177 H   0  0  0  0  0  0  0  0  0  0  0  0
  137.3576   69.6755  220.8575 H   0  0  0  0  0  0  0  0  0  0  0  0
  137.9430   71.4840  219.5630 H   0  0  0  0  0  0  0  0  0  0  0  0
  143.5762   75.8586  220.7655 H   0  0  0  0  0  0  0  0  0  0  0  0
  143.0065   75.1612  219.1973 H   0  0  0  0  0  0  0  0  0  0  0  0
  142.8831   77.7192  219.5014 H   0  0  0  0  0  0  0  0  0  0  0  0
  141.4237   76.8488  218.8794 H   0  0  0  0  0  0  0  0  0  0  0  0
  142.1895   78.4009  223.2382 H   0  0  0  0  0  0  0  0  0  0  0  0
  142.5285   80.7538  223.9514 H   0  0  0  0  0  0  0  0  0  0  0  0
  141.9859   82.5829  222.3113 H   0  0  0  0  0  0  0  0  0  0  0  0
  141.1545   81.9416  220.0854 H   0  0  0  0  0  0  0  0  0  0  0  0
  139.7517   77.1451  222.2230 H   0  0  0  0  0  0  0  0  0  0  0  0
  139.5676   76.3226  220.6618 H   0  0  0  0  0  0  0  0  0  0  0  0
  141.8246   75.7842  222.7107 H   0  0  0  0  0  0  0  0  0  0  0  0
  140.4182   74.7317  222.4774 H   0  0  0  0  0  0  0  0  0  0  0  0
  144.7964   71.8228  218.4303 H   0  0  0  0  0  0  0  0  0  0  0  0
  144.8353   71.4128  220.2297 H   0  0  0  0  0  0  0  0  0  0  0  0
  146.1286   70.1748  217.9779 H   0  0  0  0  0  0  0  0  0  0  0  0
  146.4173   70.1207  219.8027 H   0  0  0  0  0  0  0  0  0  0  0  0
  147.2728   67.8999  219.3925 H   0  0  0  0  0  0  0  0  0  0  0  0
  146.5367   65.5539  219.5050 H   0  0  0  0  0  0  0  0  0  0  0  0
  144.1803   64.8950  219.2321 H   0  0  0  0  0  0  0  0  0  0  0  0
  142.4542   66.6804  218.8254 H   0  0  0  0  0  0  0  0  0  0  0  0
  142.7614   69.3844  217.5682 H   0  0  0  0  0  0  0  0  0  0  0  0
  142.0132   68.9955  219.1939 H   0  0  0  0  0  0  0  0  0  0  0  0
  138.7330   71.7154  222.5871 H   0  0  0  0  0  0  0  0  0  0  0  0
  137.0786   71.0710  222.7044 H   0  0  0  0  0  0  0  0  0  0  0  0
  1  2  1  0
  2  3  2  0
  3  4  1  0
  4  5  2  0
  5  6  1  0
  6  7  1  0
  7  8  1  0
  8  9  1  0
  9 10  1  0
 10 11  1  0
 11 12  1  0
 12 13  1  0
 13 14  2  0
 14 15  1  0
 15 16  1  0
 16 17  1  0
 17 18  1  0
 18 19  1  0
 19 20  1  0
 20 21  2  0
 21 22  1  0
 22 23  2  0
 23 24  1  0
 24 25  2  0
 19 26  1  0
 26 27  1  0
 15 28  2  0
 28 29  1  0
 29 30  1  0
 30 31  1  0
 31 32  1  0
 32 33  1  0
 33 34  2  0
 34 35  1  0
 35 36  2  0
 36 37  1  0
 37 38  2  0
 38 39  1  0
 29 40  2  0
 11 41  1  0
  6 42  2  0
 42  2  1  0
 41  7  1  0
 40 13  1  0
 27 16  1  0
 39 30  1  0
 25 20  1  0
 38 33  1  0
  1 43  1  0
  1 44  1  0
  1 45  1  0
  3 46  1  0
  4 47  1  0
  8 48  1  0
  8 49  1  0
  9 50  1  0
  9 51  1  0
 10 52  1  0
 10 53  1  0
 11 54  1  6
 12 55  1  0
 17 56  1  0
 17 57  1  0
 18 58  1  0
 18 59  1  0
 21 60  1  0
 22 61  1  0
 23 62  1  0
 24 63  1  0
 26 64  1  0
 26 65  1  0
 27 66  1  0
 27 67  1  0
 31 68  1  0
 31 69  1  0
 32 70  1  0
 32 71  1  0
 34 72  1  0
 35 73  1  0
 36 74  1  0
 37 75  1  0
 39 76  1  0
 39 77  1  0
 41 78  1  0
 41 79  1  0
M  END
>  <smiles>  (42) 
Cc1ccnc(N2CCCC(Nc3nc(N4CCN(c5ccccn5)CC4)nc(N4CCc5ccccc5C4)n3)C2)n1

>  <score_type>  (42) 
oracle

>  <origin>  (42) 
autodockgpu

>  <m_score__min__energy>  (42) 
-10.5

>  <m_primary>  (42) 
energy

>  <rmsd>  (42) 
7.789135066493571

>  <m_score__min__rmsd>  (42) 
7.789135066493571

>  <meeko>  (42) 
{"free_energy": -8.89, "intermolecular_energy": -10.68, "internal_energy": -1.78, "cluster_size": 1, "cluster_id": 7, "rank_in_cluster": 1}

>  <energy>  (42) 
-8.7

>  <cluster_rmsd>  (42) 
0.46

>  <cluster>  (42) 
9

$$$$

     RDKit          3D

 79 85  0  0  1  0  0  0  0  0999 V2000
  146.8530   66.5590  216.1010 C   0  0  0  0  0  0  0  0  0  0  0  0
  146.3480   67.3390  217.2510 C   0  0  0  0  0  0  0  0  0  0  0  0
  146.4610   66.8100  218.5370 C   0  0  0  0  0  0  0  0  0  0  0  0
  145.9730   67.5780  219.5760 C   0  0  0  0  0  0  0  0  0  0  0  0
  145.4080   68.7840  219.4000 N   0  0  0  0  0  0  0  0  0  0  0  0
  145.3130   69.2660  218.1430 C   0  0  0  0  0  0  0  0  0  0  0  0
  144.7080   70.5440  217.9970 N   0  0  0  0  0  0  0  0  0  0  0  0
  145.5460   71.7250  217.9380 C   0  0  0  0  0  0  0  0  0  0  0  0
  145.2590   72.5200  219.1840 C   0  0  0  0  0  0  0  0  0  0  0  0
  143.9650   72.1450  219.8460 C   0  0  0  0  0  0  0  0  0  0  0  0
  142.9010   71.9000  218.7950 C   0  0  2  0  0  0  0  0  0  0  0  0
  141.6170   71.6260  219.3860 N   0  0  0  0  0  0  0  0  0  0  0  0
  141.0550   72.3790  220.4520 C   0  0  0  0  0  0  0  0  0  0  0  0
  140.9870   73.7210  220.4550 N   0  0  0  0  0  0  0  0  0  0  0  0
  140.4350   74.3590  221.5140 C   0  0  0  0  0  0  0  0  0  0  0  0
  140.3680   75.7700  221.5140 N   0  0  0  0  0  0  0  0  0  0  0  0
  140.0560   76.5370  222.7140 C   0  0  0  0  0  0  0  0  0  0  0  0
  141.0810   77.6240  222.9470 C   0  0  0  0  0  0  0  0  0  0  0  0
  141.4290   78.2960  221.7000 N   0  0  0  0  0  0  0  0  0  0  0  0
  141.3830   79.7130  221.6210 C   0  0  0  0  0  0  0  0  0  0  0  0
  141.2120   80.4160  220.4550 C   0  0  0  0  0  0  0  0  0  0  0  0
  141.1720   81.8030  220.4000 C   0  0  0  0  0  0  0  0  0  0  0  0
  141.3120   82.4920  221.5830 C   0  0  0  0  0  0  0  0  0  0  0  0
  141.4810   81.7570  222.7280 C   0  0  0  0  0  0  0  0  0  0  0  0
  141.5160   80.4250  222.7530 N   0  0  0  0  0  0  0  0  0  0  0  0
  141.8130   77.4360  220.5990 C   0  0  0  0  0  0  0  0  0  0  0  0
  140.6030   76.5430  220.3050 C   0  0  0  0  0  0  0  0  0  0  0  0
  139.9460   73.6880  222.5730 N   0  0  0  0  0  0  0  0  0  0  0  0
  140.0050   72.3450  222.5870 C   0  0  0  0  0  0  0  0  0  0  0  0
  139.5040   71.5610  223.6690 N   0  0  0  0  0  0  0  0  0  0  0  0
  138.2390   70.8820  223.5140 C   0  0  0  0  0  0  0  0  0  0  0  0
  137.9210   69.8640  224.5410 C   0  0  0  0  0  0  0  0  0  0  0  0
  139.0330   69.4470  225.4060 C   0  0  0  0  0  0  0  0  0  0  0  0
  138.8950   68.2170  226.0650 C   0  0  0  0  0  0  0  0  0  0  0  0
  139.9280   67.8260  226.8730 C   0  0  0  0  0  0  0  0  0  0  0  0
  141.0740   68.5690  227.0670 C   0  0  0  0  0  0  0  0  0  0  0  0
  141.1920   69.7870  226.4040 C   0  0  0  0  0  0  0  0  0  0  0  0
  140.1670   70.1960  225.5900 C   0  0  0  0  0  0  0  0  0  0  0  0
  140.2860   71.4800  224.8870 C   0  0  0  0  0  0  0  0  0  0  0  0
  140.5570   71.7460  221.5250 N   0  0  0  0  0  0  0  0  0  0  0  0
  143.2620   70.7270  217.9040 C   0  0  0  0  0  0  0  0  0  0  0  0
  145.7770   68.5500  217.1040 N   0  0  0  0  0  0  0  0  0  0  0  0
  147.4166   65.6884  216.4676 H   0  0  0  0  0  0  0  0  0  0  0  0
  146.0051   66.2160  215.4899 H   0  0  0  0  0  0  0  0  0  0  0  0
  147.5130   67.1922  215.4899 H   0  0  0  0  0  0  0  0  0  0  0  0
  146.9182   65.8255  218.7154 H   0  0  0  0  0  0  0  0  0  0  0  0
  146.0509   67.1822  220.5994 H   0  0  0  0  0  0  0  0  0  0  0  0
  146.6070   71.4362  217.9082 H   0  0  0  0  0  0  0  0  0  0  0  0
  145.3357   72.3154  217.0340 H   0  0  0  0  0  0  0  0  0  0  0  0
  146.0777   72.3540  219.8997 H   0  0  0  0  0  0  0  0  0  0  0  0
  145.1763   73.5751  218.8840 H   0  0  0  0  0  0  0  0  0  0  0  0
  144.1101   71.2297  220.4386 H   0  0  0  0  0  0  0  0  0  0  0  0
  143.6429   72.9660  220.5035 H   0  0  0  0  0  0  0  0  0  0  0  0
  142.8454   72.8237  218.2002 H   0  0  0  0  0  0  0  0  0  0  0  0
  141.0770   70.8190  218.9940 H   0  0  0  0  0  0  0  0  0  0  0  0
  139.0638   76.9976  222.5981 H   0  0  0  0  0  0  0  0  0  0  0  0
  140.0673   75.8553  223.5772 H   0  0  0  0  0  0  0  0  0  0  0  0
  140.6675   78.3626  223.6495 H   0  0  0  0  0  0  0  0  0  0  0  0
  141.9903   77.1630  223.3601 H   0  0  0  0  0  0  0  0  0  0  0  0
  141.1011   79.8526  219.5168 H   0  0  0  0  0  0  0  0  0  0  0  0
  141.0334   82.3318  219.4454 H   0  0  0  0  0  0  0  0  0  0  0  0
  141.2892   83.5915  221.6090 H   0  0  0  0  0  0  0  0  0  0  0  0
  141.5941   82.2972  223.6796 H   0  0  0  0  0  0  0  0  0  0  0  0
  142.0641   78.0397  219.7144 H   0  0  0  0  0  0  0  0  0  0  0  0
  142.6993   76.8358  220.8523 H   0  0  0  0  0  0  0  0  0  0  0  0
  139.7227   77.1588  220.0686 H   0  0  0  0  0  0  0  0  0  0  0  0
  140.7873   75.8891  219.4398 H   0  0  0  0  0  0  0  0  0  0  0  0
  137.4439   71.6418  223.5352 H   0  0  0  0  0  0  0  0  0  0  0  0
  138.3104   70.3333  222.5633 H   0  0  0  0  0  0  0  0  0  0  0  0
  137.1294   70.2734  225.1857 H   0  0  0  0  0  0  0  0  0  0  0  0
  137.6284   68.9629  223.9821 H   0  0  0  0  0  0  0  0  0  0  0  0
  137.9970   67.5945  225.9382 H   0  0  0  0  0  0  0  0  0  0  0  0
  139.8394   66.8635  227.3982 H   0  0  0  0  0  0  0  0  0  0  0  0
  141.8746   68.2078  227.7292 H   0  0  0  0  0  0  0  0  0  0  0  0
  142.0900   70.4095  226.5305 H   0  0  0  0  0  0  0  0  0  0  0  0
  139.9519   72.2782  225.5661 H   0  0  0  0  0  0  0  0  0  0  0  0
  141.3412   71.5859  224.5949 H   0  0  0  0  0  0  0  0  0  0  0  0
  142.7442   69.8193  218.2475 H   0  0  0  0  0  0  0  0  0  0  0  0
  142.9583   70.9181  216.8642 H   0  0  0  0  0  0  0  0  0  0  0  0
  1  2  1  0
  2  3  2  0
  3  4  1  0
  4  5  2  0
  5  6  1  0
  6  7  1  0
  7  8  1  0
  8  9  1  0
  9 10  1  0
 10 11  1  0
 11 12  1  0
 12 13  1  0
 13 14  2  0
 14 15  1  0
 15 16  1  0
 16 17  1  0
 17 18  1  0
 18 19  1  0
 19 20  1  0
 20 21  2  0
 21 22  1  0
 22 23  2  0
 23 24  1  0
 24 25  2  0
 19 26  1  0
 26 27  1  0
 15 28  2  0
 28 29  1  0
 29 30  1  0
 30 31  1  0
 31 32  1  0
 32 33  1  0
 33 34  2  0
 34 35  1  0
 35 36  2  0
 36 37  1  0
 37 38  2  0
 38 39  1  0
 29 40  2  0
 11 41  1  0
  6 42  2  0
 42  2  1  0
 41  7  1  0
 40 13  1  0
 27 16  1  0
 39 30  1  0
 25 20  1  0
 38 33  1  0
  1 43  1  0
  1 44  1  0
  1 45  1  0
  3 46  1  0
  4 47  1  0
  8 48  1  0
  8 49  1  0
  9 50  1  0
  9 51  1  0
 10 52  1  0
 10 53  1  0
 11 54  1  6
 12 55  1  0
 17 56  1  0
 17 57  1  0
 18 58  1  0
 18 59  1  0
 21 60  1  0
 22 61  1  0
 23 62  1  0
 24 63  1  0
 26 64  1  0
 26 65  1  0
 27 66  1  0
 27 67  1  0
 31 68  1  0
 31 69  1  0
 32 70  1  0
 32 71  1  0
 34 72  1  0
 35 73  1  0
 36 74  1  0
 37 75  1  0
 39 76  1  0
 39 77  1  0
 41 78  1  0
 41 79  1  0
M  END
>  <smiles>  (43) 
Cc1ccnc(N2CCCC(Nc3nc(N4CCN(c5ccccn5)CC4)nc(N4CCc5ccccc5C4)n3)C2)n1

>  <score_type>  (43) 
oracle

>  <origin>  (43) 
autodockgpu

>  <m_score__min__energy>  (43) 
-10.5

>  <m_primary>  (43) 
energy

>  <rmsd>  (43) 
8.761023963340474

>  <m_score__min__rmsd>  (43) 
8.761023963340474

>  <meeko>  (43) 
{"free_energy": -9.95, "intermolecular_energy": -11.74, "internal_energy": -1.45, "cluster_size": 13, "cluster_id": 2, "rank_in_cluster": 1}

>  <energy>  (43) 
-8.64

>  <cluster_rmsd>  (43) 
0.57

>  <cluster>  (43) 
9

$$$$

     RDKit          3D

 79 85  0  0  1  0  0  0  0  0999 V2000
  138.7160   68.5760  224.7300 C   0  0  0  0  0  0  0  0  0  0  0  0
  139.4030   69.8370  224.3750 C   0  0  0  0  0  0  0  0  0  0  0  0
  139.7950   70.7110  225.3890 C   0  0  0  0  0  0  0  0  0  0  0  0
  140.4310   71.8740  225.0040 C   0  0  0  0  0  0  0  0  0  0  0  0
  140.6830   72.1880  223.7230 N   0  0  0  0  0  0  0  0  0  0  0  0
  140.2900   71.3210  222.7650 C   0  0  0  0  0  0  0  0  0  0  0  0
  140.5720   71.6890  221.4210 N   0  0  0  0  0  0  0  0  0  0  0  0
  141.9120   71.5080  220.9010 C   0  0  0  0  0  0  0  0  0  0  0  0
  142.4640   72.8860  220.6440 C   0  0  0  0  0  0  0  0  0  0  0  0
  141.4040   73.9450  220.5570 C   0  0  0  0  0  0  0  0  0  0  0  0
  140.2040   73.4140  219.8000 C   0  0  2  0  0  0  0  0  0  0  0  0
  139.1970   74.4260  219.6120 N   0  0  0  0  0  0  0  0  0  0  0  0
  138.5860   75.1460  220.6750 C   0  0  0  0  0  0  0  0  0  0  0  0
  137.5450   74.6770  221.3840 N   0  0  0  0  0  0  0  0  0  0  0  0
  137.0240   75.4310  222.3800 C   0  0  0  0  0  0  0  0  0  0  0  0
  135.9290   74.9370  223.1220 N   0  0  0  0  0  0  0  0  0  0  0  0
  135.5490   73.5290  223.1100 C   0  0  0  0  0  0  0  0  0  0  0  0
  135.4070   72.9920  224.5170 C   0  0  0  0  0  0  0  0  0  0  0  0
  134.7150   73.9450  225.3780 N   0  0  0  0  0  0  0  0  0  0  0  0
  133.6020   73.5240  226.1530 C   0  0  0  0  0  0  0  0  0  0  0  0
  133.0710   72.2600  226.1190 C   0  0  0  0  0  0  0  0  0  0  0  0
  131.9800   71.8700  226.8850 C   0  0  0  0  0  0  0  0  0  0  0  0
  131.4150   72.8120  227.7130 C   0  0  0  0  0  0  0  0  0  0  0  0
  131.9720   74.0650  227.7220 C   0  0  0  0  0  0  0  0  0  0  0  0
  133.0200   74.4130  226.9760 N   0  0  0  0  0  0  0  0  0  0  0  0
  135.2370   75.2970  225.3790 C   0  0  0  0  0  0  0  0  0  0  0  0
  135.1070   75.8130  223.9420 C   0  0  0  0  0  0  0  0  0  0  0  0
  137.5180   76.6460  222.6880 N   0  0  0  0  0  0  0  0  0  0  0  0
  138.5590   77.1290  221.9890 C   0  0  0  0  0  0  0  0  0  0  0  0
  139.1430   78.4030  222.2560 N   0  0  0  0  0  0  0  0  0  0  0  0
  138.4260   79.3410  223.0880 C   0  0  0  0  0  0  0  0  0  0  0  0
  139.2020   80.5090  223.5630 C   0  0  0  0  0  0  0  0  0  0  0  0
  140.6600   80.4290  223.3990 C   0  0  0  0  0  0  0  0  0  0  0  0
  141.4340   81.2760  224.2040 C   0  0  0  0  0  0  0  0  0  0  0  0
  142.7930   81.2060  224.0520 C   0  0  0  0  0  0  0  0  0  0  0  0
  143.4230   80.3610  223.1620 C   0  0  0  0  0  0  0  0  0  0  0  0
  142.6360   79.5290  222.3710 C   0  0  0  0  0  0  0  0  0  0  0  0
  141.2730   79.5840  222.5090 C   0  0  0  0  0  0  0  0  0  0  0  0
  140.4370   78.7080  221.6780 C   0  0  0  0  0  0  0  0  0  0  0  0
  139.0510   76.3590  221.0110 N   0  0  0  0  0  0  0  0  0  0  0  0
  139.5620   72.2490  220.5270 C   0  0  0  0  0  0  0  0  0  0  0  0
  139.6680   70.1770  223.0980 N   0  0  0  0  0  0  0  0  0  0  0  0
  138.6648   68.4820  225.8248 H   0  0  0  0  0  0  0  0  0  0  0  0
  137.6975   68.5838  224.3146 H   0  0  0  0  0  0  0  0  0  0  0  0
  139.2749   67.7245  224.3146 H   0  0  0  0  0  0  0  0  0  0  0  0
  139.6057   70.4835  226.4484 H   0  0  0  0  0  0  0  0  0  0  0  0
  140.7475   72.5795  225.7864 H   0  0  0  0  0  0  0  0  0  0  0  0
  142.5365   70.9802  221.6368 H   0  0  0  0  0  0  0  0  0  0  0  0
  141.9021   70.9066  219.9800 H   0  0  0  0  0  0  0  0  0  0  0  0
  143.1500   73.1455  221.4638 H   0  0  0  0  0  0  0  0  0  0  0  0
  142.9739   72.8555  219.6698 H   0  0  0  0  0  0  0  0  0  0  0  0
  141.0952   74.2359  221.5719 H   0  0  0  0  0  0  0  0  0  0  0  0
  141.8088   74.8191  220.0260 H   0  0  0  0  0  0  0  0  0  0  0  0
  140.5852   73.0858  218.8218 H   0  0  0  0  0  0  0  0  0  0  0  0
  138.9090   74.6310  218.6270 H   0  0  0  0  0  0  0  0  0  0  0  0
  134.5883   73.4205  222.5852 H   0  0  0  0  0  0  0  0  0  0  0  0
  136.3366   72.9586  222.5958 H   0  0  0  0  0  0  0  0  0  0  0  0
  134.8337   72.0537  224.4868 H   0  0  0  0  0  0  0  0  0  0  0  0
  136.4130   72.8188  224.9269 H   0  0  0  0  0  0  0  0  0  0  0  0
  133.5325   71.5175  225.4513 H   0  0  0  0  0  0  0  0  0  0  0  0
  131.5825   70.8457  226.8315 H   0  0  0  0  0  0  0  0  0  0  0  0
  130.5480   72.5690  228.3449 H   0  0  0  0  0  0  0  0  0  0  0  0
  131.5290   74.8254  228.3819 H   0  0  0  0  0  0  0  0  0  0  0  0
  134.6536   75.9294  226.0644 H   0  0  0  0  0  0  0  0  0  0  0  0
  136.2834   75.3198  225.7174 H   0  0  0  0  0  0  0  0  0  0  0  0
  134.0579   75.7690  223.6142 H   0  0  0  0  0  0  0  0  0  0  0  0
  135.4320   76.8607  223.8607 H   0  0  0  0  0  0  0  0  0  0  0  0
  137.5695   79.7180  222.5098 H   0  0  0  0  0  0  0  0  0  0  0  0
  138.1456   78.7821  223.9930 H   0  0  0  0  0  0  0  0  0  0  0  0
  138.8501   81.3929  223.0108 H   0  0  0  0  0  0  0  0  0  0  0  0
  139.0298   80.5553  224.6485 H   0  0  0  0  0  0  0  0  0  0  0  0
  140.9708   81.9656  224.9250 H   0  0  0  0  0  0  0  0  0  0  0  0
  143.4186   81.8615  224.6757 H   0  0  0  0  0  0  0  0  0  0  0  0
  144.5198   80.3451  223.0795 H   0  0  0  0  0  0  0  0  0  0  0  0
  143.0988   78.8404  221.6488 H   0  0  0  0  0  0  0  0  0  0  0  0
  140.2747   79.2028  220.7091 H   0  0  0  0  0  0  0  0  0  0  0  0
  140.9749   77.7533  221.5824 H   0  0  0  0  0  0  0  0  0  0  0  0
  138.6961   72.5985  221.1084 H   0  0  0  0  0  0  0  0  0  0  0  0
  139.2081   71.4904  219.8134 H   0  0  0  0  0  0  0  0  0  0  0  0
  1  2  1  0
  2  3  2  0
  3  4  1  0
  4  5  2  0
  5  6  1  0
  6  7  1  0
  7  8  1  0
  8  9  1  0
  9 10  1  0
 10 11  1  0
 11 12  1  0
 12 13  1  0
 13 14  2  0
 14 15  1  0
 15 16  1  0
 16 17  1  0
 17 18  1  0
 18 19  1  0
 19 20  1  0
 20 21  2  0
 21 22  1  0
 22 23  2  0
 23 24  1  0
 24 25  2  0
 19 26  1  0
 26 27  1  0
 15 28  2  0
 28 29  1  0
 29 30  1  0
 30 31  1  0
 31 32  1  0
 32 33  1  0
 33 34  2  0
 34 35  1  0
 35 36  2  0
 36 37  1  0
 37 38  2  0
 38 39  1  0
 29 40  2  0
 11 41  1  0
  6 42  2  0
 42  2  1  0
 41  7  1  0
 40 13  1  0
 27 16  1  0
 39 30  1  0
 25 20  1  0
 38 33  1  0
  1 43  1  0
  1 44  1  0
  1 45  1  0
  3 46  1  0
  4 47  1  0
  8 48  1  0
  8 49  1  0
  9 50  1  0
  9 51  1  0
 10 52  1  0
 10 53  1  0
 11 54  1  6
 12 55  1  0
 17 56  1  0
 17 57  1  0
 18 58  1  0
 18 59  1  0
 21 60  1  0
 22 61  1  0
 23 62  1  0
 24 63  1  0
 26 64  1  0
 26 65  1  0
 27 66  1  0
 27 67  1  0
 31 68  1  0
 31 69  1  0
 32 70  1  0
 32 71  1  0
 34 72  1  0
 35 73  1  0
 36 74  1  0
 37 75  1  0
 39 76  1  0
 39 77  1  0
 41 78  1  0
 41 79  1  0
M  END
>  <smiles>  (44) 
Cc1ccnc(N2CCCC(Nc3nc(N4CCN(c5ccccn5)CC4)nc(N4CCc5ccccc5C4)n3)C2)n1

>  <score_type>  (44) 
oracle

>  <origin>  (44) 
autodockgpu

>  <m_score__min__energy>  (44) 
-10.5

>  <m_primary>  (44) 
energy

>  <rmsd>  (44) 
7.722660546366199

>  <m_score__min__rmsd>  (44) 
7.722660546366199

>  <meeko>  (44) 
{"free_energy": -9.13, "intermolecular_energy": -10.92, "internal_energy": -1.88, "cluster_size": 4, "cluster_id": 4, "rank_in_cluster": 4}

>  <energy>  (44) 
-8.61

>  <cluster_rmsd>  (44) 
0.92

>  <cluster>  (44) 
9

$$$$

     RDKit          3D

 79 85  0  0  1  0  0  0  0  0999 V2000
  140.8860   68.1900  227.4090 C   0  0  0  0  0  0  0  0  0  0  0  0
  140.5290   69.2650  226.4580 C   0  0  0  0  0  0  0  0  0  0  0  0
  141.4340   70.3020  226.2280 C   0  0  0  0  0  0  0  0  0  0  0  0
  141.0530   71.2800  225.3330 C   0  0  0  0  0  0  0  0  0  0  0  0
  139.8730   71.2730  224.6890 N   0  0  0  0  0  0  0  0  0  0  0  0
  139.0200   70.2560  224.9350 C   0  0  0  0  0  0  0  0  0  0  0  0
  137.7820   70.2840  224.2370 N   0  0  0  0  0  0  0  0  0  0  0  0
  137.1250   69.0350  223.9060 C   0  0  0  0  0  0  0  0  0  0  0  0
  137.1530   68.9180  222.4040 C   0  0  0  0  0  0  0  0  0  0  0  0
  137.4060   70.2250  221.7100 C   0  0  0  0  0  0  0  0  0  0  0  0
  136.6470   71.3360  222.4080 C   0  0  2  0  0  0  0  0  0  0  0  0
  136.7870   72.5940  221.7220 N   0  0  0  0  0  0  0  0  0  0  0  0
  138.0360   73.2110  221.4400 C   0  0  0  0  0  0  0  0  0  0  0  0
  139.0880   72.5520  220.9250 N   0  0  0  0  0  0  0  0  0  0  0  0
  140.2410   73.2190  220.6870 C   0  0  0  0  0  0  0  0  0  0  0  0
  141.3460   72.5220  220.1490 N   0  0  0  0  0  0  0  0  0  0  0  0
  142.7240   72.8730  220.4700 C   0  0  0  0  0  0  0  0  0  0  0  0
  143.5040   71.6580  220.9210 C   0  0  0  0  0  0  0  0  0  0  0  0
  143.2040   70.5000  220.0880 N   0  0  0  0  0  0  0  0  0  0  0  0
  144.2600   69.7490  219.5080 C   0  0  0  0  0  0  0  0  0  0  0  0
  144.9370   70.1180  218.3730 C   0  0  0  0  0  0  0  0  0  0  0  0
  145.9670   69.3660  217.8210 C   0  0  0  0  0  0  0  0  0  0  0  0
  146.3120   68.1960  218.4580 C   0  0  0  0  0  0  0  0  0  0  0  0
  145.6150   67.8600  219.5890 C   0  0  0  0  0  0  0  0  0  0  0  0
  144.6300   68.5990  220.0980 N   0  0  0  0  0  0  0  0  0  0  0  0
  141.7990   70.1900  219.9120 C   0  0  0  0  0  0  0  0  0  0  0  0
  141.1680   71.4080  219.2310 C   0  0  0  0  0  0  0  0  0  0  0  0
  140.3720   74.5330  220.9500 N   0  0  0  0  0  0  0  0  0  0  0  0
  139.3300   75.2080  221.4640 C   0  0  0  0  0  0  0  0  0  0  0  0
  139.3850   76.6020  221.7650 N   0  0  0  0  0  0  0  0  0  0  0  0
  138.3210   77.1920  222.5430 C   0  0  0  0  0  0  0  0  0  0  0  0
  138.5810   78.5540  223.0650 C   0  0  0  0  0  0  0  0  0  0  0  0
  139.9720   79.0190  222.9990 C   0  0  0  0  0  0  0  0  0  0  0  0
  140.3280   80.0730  223.8510 C   0  0  0  0  0  0  0  0  0  0  0  0
  141.6230   80.5120  223.7900 C   0  0  0  0  0  0  0  0  0  0  0  0
  142.5750   79.9760  222.9480 C   0  0  0  0  0  0  0  0  0  0  0  0
  142.2030   78.9300  222.1090 C   0  0  0  0  0  0  0  0  0  0  0  0
  140.9090   78.4780  222.1560 C   0  0  0  0  0  0  0  0  0  0  0  0
  140.5090   77.3730  221.2740 C   0  0  0  0  0  0  0  0  0  0  0  0
  138.2040   74.5190  221.6880 N   0  0  0  0  0  0  0  0  0  0  0  0
  137.1310   71.5270  223.8320 C   0  0  0  0  0  0  0  0  0  0  0  0
  139.3540   69.2830  225.8000 N   0  0  0  0  0  0  0  0  0  0  0  0
  140.7643   68.5564  228.4390 H   0  0  0  0  0  0  0  0  0  0  0  0
  140.2272   67.3240  227.2476 H   0  0  0  0  0  0  0  0  0  0  0  0
  141.9320   67.8901  227.2476 H   0  0  0  0  0  0  0  0  0  0  0  0
  142.4081   70.3379  226.7378 H   0  0  0  0  0  0  0  0  0  0  0  0
  141.7502   72.1078  225.1362 H   0  0  0  0  0  0  0  0  0  0  0  0
  137.6627   68.1909  224.3624 H   0  0  0  0  0  0  0  0  0  0  0  0
  136.0928   69.0172  224.2859 H   0  0  0  0  0  0  0  0  0  0  0  0
  137.9504   68.2140  222.1237 H   0  0  0  0  0  0  0  0  0  0  0  0
  136.1597   68.5680  222.0864 H   0  0  0  0  0  0  0  0  0  0  0  0
  138.4829   70.4481  221.7341 H   0  0  0  0  0  0  0  0  0  0  0  0
  137.0640   70.1530  220.6670 H   0  0  0  0  0  0  0  0  0  0  0  0
  135.5908   71.0287  222.4054 H   0  0  0  0  0  0  0  0  0  0  0  0
  135.9050   73.0700  221.4200 H   0  0  0  0  0  0  0  0  0  0  0  0
  143.2045   73.2969  219.5759 H   0  0  0  0  0  0  0  0  0  0  0  0
  142.7160   73.6071  221.2891 H   0  0  0  0  0  0  0  0  0  0  0  0
  144.5798   71.8778  220.8559 H   0  0  0  0  0  0  0  0  0  0  0  0
  143.2177   71.4252  221.9573 H   0  0  0  0  0  0  0  0  0  0  0  0
  144.6501   71.0560  217.8751 H   0  0  0  0  0  0  0  0  0  0  0  0
  146.4872   69.6938  216.9089 H   0  0  0  0  0  0  0  0  0  0  0  0
  147.1180   67.5538  218.0733 H   0  0  0  0  0  0  0  0  0  0  0  0
  145.8840   66.9271  220.1061 H   0  0  0  0  0  0  0  0  0  0  0  0
  141.6829   69.2979  219.2790 H   0  0  0  0  0  0  0  0  0  0  0  0
  141.3143   69.9774  220.8763 H   0  0  0  0  0  0  0  0  0  0  0  0
  141.6734   71.6158  218.2763 H   0  0  0  0  0  0  0  0  0  0  0  0
  140.1044   71.2373  219.0085 H   0  0  0  0  0  0  0  0  0  0  0  0
  137.4248   77.2400  221.9069 H   0  0  0  0  0  0  0  0  0  0  0  0
  138.2080   76.5498  223.4289 H   0  0  0  0  0  0  0  0  0  0  0  0
  137.9640   79.2582  222.4875 H   0  0  0  0  0  0  0  0  0  0  0  0
  138.3358   78.5103  224.1364 H   0  0  0  0  0  0  0  0  0  0  0  0
  139.5992   80.5274  224.5383 H   0  0  0  0  0  0  0  0  0  0  0  0
  141.9216   81.3396  224.4502 H   0  0  0  0  0  0  0  0  0  0  0  0
  143.6035   80.3660  222.9399 H   0  0  0  0  0  0  0  0  0  0  0  0
  142.9319   78.4750  221.4222 H   0  0  0  0  0  0  0  0  0  0  0  0
  140.2379   77.7936  220.2944 H   0  0  0  0  0  0  0  0  0  0  0  0
  141.3656   76.6852  221.2185 H   0  0  0  0  0  0  0  0  0  0  0  0
  137.8477   72.3602  223.8779 H   0  0  0  0  0  0  0  0  0  0  0  0
  136.2910   71.7641  224.5015 H   0  0  0  0  0  0  0  0  0  0  0  0
  1  2  1  0
  2  3  2  0
  3  4  1  0
  4  5  2  0
  5  6  1  0
  6  7  1  0
  7  8  1  0
  8  9  1  0
  9 10  1  0
 10 11  1  0
 11 12  1  0
 12 13  1  0
 13 14  2  0
 14 15  1  0
 15 16  1  0
 16 17  1  0
 17 18  1  0
 18 19  1  0
 19 20  1  0
 20 21  2  0
 21 22  1  0
 22 23  2  0
 23 24  1  0
 24 25  2  0
 19 26  1  0
 26 27  1  0
 15 28  2  0
 28 29  1  0
 29 30  1  0
 30 31  1  0
 31 32  1  0
 32 33  1  0
 33 34  2  0
 34 35  1  0
 35 36  2  0
 36 37  1  0
 37 38  2  0
 38 39  1  0
 29 40  2  0
 11 41  1  0
  6 42  2  0
 42  2  1  0
 41  7  1  0
 40 13  1  0
 27 16  1  0
 39 30  1  0
 25 20  1  0
 38 33  1  0
  1 43  1  0
  1 44  1  0
  1 45  1  0
  3 46  1  0
  4 47  1  0
  8 48  1  0
  8 49  1  0
  9 50  1  0
  9 51  1  0
 10 52  1  0
 10 53  1  0
 11 54  1  1
 12 55  1  0
 17 56  1  0
 17 57  1  0
 18 58  1  0
 18 59  1  0
 21 60  1  0
 22 61  1  0
 23 62  1  0
 24 63  1  0
 26 64  1  0
 26 65  1  0
 27 66  1  0
 27 67  1  0
 31 68  1  0
 31 69  1  0
 32 70  1  0
 32 71  1  0
 34 72  1  0
 35 73  1  0
 36 74  1  0
 37 75  1  0
 39 76  1  0
 39 77  1  0
 41 78  1  0
 41 79  1  0
M  END
>  <smiles>  (45) 
Cc1ccnc(N2CCCC(Nc3nc(N4CCN(c5ccccn5)CC4)nc(N4CCc5ccccc5C4)n3)C2)n1

>  <score_type>  (45) 
oracle

>  <origin>  (45) 
autodockgpu

>  <m_score__min__energy>  (45) 
-10.5

>  <m_primary>  (45) 
energy

>  <rmsd>  (45) 
6.76602920339116

>  <m_score__min__rmsd>  (45) 
6.76602920339116

>  <meeko>  (45) 
{"free_energy": -8.89, "intermolecular_energy": -10.68, "internal_energy": -1.85, "cluster_size": 9, "cluster_id": 1, "rank_in_cluster": 9}

>  <energy>  (45) 
-8.55

>  <cluster_rmsd>  (45) 
0.87

>  <cluster>  (45) 
9

$$$$

     RDKit          3D

 79 85  0  0  1  0  0  0  0  0999 V2000
  147.0330   66.5890  215.9550 C   0  0  0  0  0  0  0  0  0  0  0  0
  146.5420   67.2810  217.1660 C   0  0  0  0  0  0  0  0  0  0  0  0
  146.7450   66.6970  218.4170 C   0  0  0  0  0  0  0  0  0  0  0  0
  146.2670   67.3830  219.5150 C   0  0  0  0  0  0  0  0  0  0  0  0
  145.6300   68.5620  219.4280 N   0  0  0  0  0  0  0  0  0  0  0  0
  145.4500   69.1000  218.2030 C   0  0  0  0  0  0  0  0  0  0  0  0
  144.7700   70.3480  218.1520 N   0  0  0  0  0  0  0  0  0  0  0  0
  145.5390   71.5760  218.1360 C   0  0  0  0  0  0  0  0  0  0  0  0
  145.2520   72.2820  219.4350 C   0  0  0  0  0  0  0  0  0  0  0  0
  144.0040   71.7960  220.1140 C   0  0  0  0  0  0  0  0  0  0  0  0
  142.9200   71.5510  219.0840 C   0  0  2  0  0  0  0  0  0  0  0  0
  141.6740   71.1710  219.6980 N   0  0  0  0  0  0  0  0  0  0  0  0
  141.0250   71.9250  220.7130 C   0  0  0  0  0  0  0  0  0  0  0  0
  140.8250   73.2520  220.6370 N   0  0  0  0  0  0  0  0  0  0  0  0
  140.1980   73.8910  221.6510 C   0  0  0  0  0  0  0  0  0  0  0  0
  139.9920   75.2860  221.5690 N   0  0  0  0  0  0  0  0  0  0  0  0
  138.6650   75.8850  221.6350 C   0  0  0  0  0  0  0  0  0  0  0  0
  138.6170   76.9900  222.6670 C   0  0  0  0  0  0  0  0  0  0  0  0
  139.8110   77.8250  222.6010 N   0  0  0  0  0  0  0  0  0  0  0  0
  139.6870   79.2360  222.5130 C   0  0  0  0  0  0  0  0  0  0  0  0
  138.6600   79.9570  223.0690 C   0  0  0  0  0  0  0  0  0  0  0  0
  138.5570   81.3390  222.9690 C   0  0  0  0  0  0  0  0  0  0  0  0
  139.5420   82.0020  222.2740 C   0  0  0  0  0  0  0  0  0  0  0  0
  140.5520   81.2490  221.7320 C   0  0  0  0  0  0  0  0  0  0  0  0
  140.6270   79.9240  221.8420 N   0  0  0  0  0  0  0  0  0  0  0  0
  141.0800   77.1250  222.6350 C   0  0  0  0  0  0  0  0  0  0  0  0
  141.1030   76.2100  221.4050 C   0  0  0  0  0  0  0  0  0  0  0  0
  139.7610   73.2360  222.7440 N   0  0  0  0  0  0  0  0  0  0  0  0
  139.9510   71.9090  222.8370 C   0  0  0  0  0  0  0  0  0  0  0  0
  139.5140   71.1430  223.9580 N   0  0  0  0  0  0  0  0  0  0  0  0
  138.6140   70.0340  223.7390 C   0  0  0  0  0  0  0  0  0  0  0  0
  138.4350   69.1120  224.8840 C   0  0  0  0  0  0  0  0  0  0  0  0
  139.4020   69.2450  225.9810 C   0  0  0  0  0  0  0  0  0  0  0  0
  139.5390   68.1460  226.8410 C   0  0  0  0  0  0  0  0  0  0  0  0
  140.4380   68.2670  227.8660 C   0  0  0  0  0  0  0  0  0  0  0  0
  141.1990   69.3960  228.0900 C   0  0  0  0  0  0  0  0  0  0  0  0
  141.0480   70.4760  227.2260 C   0  0  0  0  0  0  0  0  0  0  0  0
  140.1530   70.3740  226.1930 C   0  0  0  0  0  0  0  0  0  0  0  0
  139.9890   71.5100  225.2770 C   0  0  0  0  0  0  0  0  0  0  0  0
  140.5750   71.3080  221.8170 N   0  0  0  0  0  0  0  0  0  0  0  0
  143.3140   70.4530  218.1150 C   0  0  0  0  0  0  0  0  0  0  0  0
  145.9010   68.4640  217.1090 N   0  0  0  0  0  0  0  0  0  0  0  0
  147.6463   65.7247  216.2498 H   0  0  0  0  0  0  0  0  0  0  0  0
  146.1765   66.2440  215.3572 H   0  0  0  0  0  0  0  0  0  0  0  0
  147.6415   67.2835  215.3572 H   0  0  0  0  0  0  0  0  0  0  0  0
  147.2631   65.7325  218.5233 H   0  0  0  0  0  0  0  0  0  0  0  0
  146.4153   66.9418  220.5117 H   0  0  0  0  0  0  0  0  0  0  0  0
  146.6126   71.3502  218.0562 H   0  0  0  0  0  0  0  0  0  0  0  0
  145.2652   72.2036  217.2751 H   0  0  0  0  0  0  0  0  0  0  0  0
  146.1029   72.1231  220.1138 H   0  0  0  0  0  0  0  0  0  0  0  0
  145.1010   73.3460  219.2002 H   0  0  0  0  0  0  0  0  0  0  0  0
  144.2199   70.8581  220.6467 H   0  0  0  0  0  0  0  0  0  0  0  0
  143.6597   72.5581  220.8286 H   0  0  0  0  0  0  0  0  0  0  0  0
  142.7934   72.5022  218.5462 H   0  0  0  0  0  0  0  0  0  0  0  0
  141.2330   70.2820  219.3640 H   0  0  0  0  0  0  0  0  0  0  0  0
  138.4098   76.3023  220.6497 H   0  0  0  0  0  0  0  0  0  0  0  0
  137.9440   75.1060  221.9235 H   0  0  0  0  0  0  0  0  0  0  0  0
  137.7311   77.6153  222.4823 H   0  0  0  0  0  0  0  0  0  0  0  0
  138.5668   76.5320  223.6659 H   0  0  0  0  0  0  0  0  0  0  0  0
  137.8793   79.4135  223.6215 H   0  0  0  0  0  0  0  0  0  0  0  0
  137.7187   81.8830  223.4286 H   0  0  0  0  0  0  0  0  0  0  0  0
  139.5203   83.0956  222.1574 H   0  0  0  0  0  0  0  0  0  0  0  0
  141.3451   81.7690  221.1748 H   0  0  0  0  0  0  0  0  0  0  0  0
  141.9119   77.8433  222.5904 H   0  0  0  0  0  0  0  0  0  0  0  0
  141.1916   76.5468  223.5641 H   0  0  0  0  0  0  0  0  0  0  0  0
  140.9751   76.8017  220.4866 H   0  0  0  0  0  0  0  0  0  0  0  0
  142.0607   75.6758  221.3193 H   0  0  0  0  0  0  0  0  0  0  0  0
  137.6275   70.4462  223.4805 H   0  0  0  0  0  0  0  0  0  0  0  0
  139.0714   69.4320  222.9400 H   0  0  0  0  0  0  0  0  0  0  0  0
  137.4309   69.2835  225.2991 H   0  0  0  0  0  0  0  0  0  0  0  0
  138.5900   68.1023  224.4759 H   0  0  0  0  0  0  0  0  0  0  0  0
  138.9504   67.2278  226.6983 H   0  0  0  0  0  0  0  0  0  0  0  0
  140.5609   67.4149  228.5508 H   0  0  0  0  0  0  0  0  0  0  0  0
  141.9072   69.4410  228.9305 H   0  0  0  0  0  0  0  0  0  0  0  0
  141.6359   71.3946  227.3693 H   0  0  0  0  0  0  0  0  0  0  0  0
  139.2669   72.2107  225.7215 H   0  0  0  0  0  0  0  0  0  0  0  0
  140.9858   71.9554  225.1425 H   0  0  0  0  0  0  0  0  0  0  0  0
  142.8593   69.4992  218.4207 H   0  0  0  0  0  0  0  0  0  0  0  0
  142.9645   70.6850  217.0981 H   0  0  0  0  0  0  0  0  0  0  0  0
  1  2  1  0
  2  3  2  0
  3  4  1  0
  4  5  2  0
  5  6  1  0
  6  7  1  0
  7  8  1  0
  8  9  1  0
  9 10  1  0
 10 11  1  0
 11 12  1  0
 12 13  1  0
 13 14  2  0
 14 15  1  0
 15 16  1  0
 16 17  1  0
 17 18  1  0
 18 19  1  0
 19 20  1  0
 20 21  2  0
 21 22  1  0
 22 23  2  0
 23 24  1  0
 24 25  2  0
 19 26  1  0
 26 27  1  0
 15 28  2  0
 28 29  1  0
 29 30  1  0
 30 31  1  0
 31 32  1  0
 32 33  1  0
 33 34  2  0
 34 35  1  0
 35 36  2  0
 36 37  1  0
 37 38  2  0
 38 39  1  0
 29 40  2  0
 11 41  1  0
  6 42  2  0
 42  2  1  0
 41  7  1  0
 40 13  1  0
 27 16  1  0
 39 30  1  0
 25 20  1  0
 38 33  1  0
  1 43  1  0
  1 44  1  0
  1 45  1  0
  3 46  1  0
  4 47  1  0
  8 48  1  0
  8 49  1  0
  9 50  1  0
  9 51  1  0
 10 52  1  0
 10 53  1  0
 11 54  1  6
 12 55  1  0
 17 56  1  0
 17 57  1  0
 18 58  1  0
 18 59  1  0
 21 60  1  0
 22 61  1  0
 23 62  1  0
 24 63  1  0
 26 64  1  0
 26 65  1  0
 27 66  1  0
 27 67  1  0
 31 68  1  0
 31 69  1  0
 32 70  1  0
 32 71  1  0
 34 72  1  0
 35 73  1  0
 36 74  1  0
 37 75  1  0
 39 76  1  0
 39 77  1  0
 41 78  1  0
 41 79  1  0
M  END
>  <smiles>  (46) 
Cc1ccnc(N2CCCC(Nc3nc(N4CCN(c5ccccn5)CC4)nc(N4CCc5ccccc5C4)n3)C2)n1

>  <score_type>  (46) 
oracle

>  <origin>  (46) 
autodockgpu

>  <m_score__min__energy>  (46) 
-10.5

>  <m_primary>  (46) 
energy

>  <rmsd>  (46) 
8.290453513195256

>  <m_score__min__rmsd>  (46) 
8.290453513195256

>  <meeko>  (46) 
{"free_energy": -9.82, "intermolecular_energy": -11.61, "internal_energy": -1.43, "cluster_size": 13, "cluster_id": 2, "rank_in_cluster": 5}

>  <energy>  (46) 
-8.48

>  <cluster_rmsd>  (46) 
0.97

>  <cluster>  (46) 
9

$$$$

     RDKit          3D

 79 85  0  0  1  0  0  0  0  0999 V2000
  142.1470   79.7610  219.5510 C   0  0  0  0  0  0  0  0  0  0  0  0
  141.9310   78.5000  218.8100 C   0  0  0  0  0  0  0  0  0  0  0  0
  140.7950   78.3620  218.0110 C   0  0  0  0  0  0  0  0  0  0  0  0
  140.6410   77.1650  217.3410 C   0  0  0  0  0  0  0  0  0  0  0  0
  141.5200   76.1530  217.4250 N   0  0  0  0  0  0  0  0  0  0  0  0
  142.6080   76.3190  218.2070 C   0  0  0  0  0  0  0  0  0  0  0  0
  143.5140   75.2250  218.2730 N   0  0  0  0  0  0  0  0  0  0  0  0
  144.1640   74.7680  217.0610 C   0  0  0  0  0  0  0  0  0  0  0  0
  143.6320   73.3870  216.7800 C   0  0  0  0  0  0  0  0  0  0  0  0
  142.9950   72.7400  217.9770 C   0  0  0  0  0  0  0  0  0  0  0  0
  143.8060   73.0440  219.2200 C   0  0  2  0  0  0  0  0  0  0  0  0
  143.2830   72.3680  220.3790 N   0  0  0  0  0  0  0  0  0  0  0  0
  142.1460   72.8070  221.1100 C   0  0  0  0  0  0  0  0  0  0  0  0
  141.6450   74.0510  221.0240 N   0  0  0  0  0  0  0  0  0  0  0  0
  140.5570   74.3840  221.7570 C   0  0  0  0  0  0  0  0  0  0  0  0
  140.0360   75.6940  221.6660 N   0  0  0  0  0  0  0  0  0  0  0  0
  138.6070   75.9730  221.7420 C   0  0  0  0  0  0  0  0  0  0  0  0
  138.3160   77.0480  222.7660 C   0  0  0  0  0  0  0  0  0  0  0  0
  139.2850   78.1340  222.6800 N   0  0  0  0  0  0  0  0  0  0  0  0
  138.8390   79.4780  222.5830 C   0  0  0  0  0  0  0  0  0  0  0  0
  139.0130   80.2720  221.4770 C   0  0  0  0  0  0  0  0  0  0  0  0
  138.5700   81.5860  221.4050 C   0  0  0  0  0  0  0  0  0  0  0  0
  137.9260   82.1020  222.5060 C   0  0  0  0  0  0  0  0  0  0  0  0
  137.7690   81.2800  223.5920 C   0  0  0  0  0  0  0  0  0  0  0  0
  138.2050   80.0220  223.6360 N   0  0  0  0  0  0  0  0  0  0  0  0
  140.6810   77.7440  222.7060 C   0  0  0  0  0  0  0  0  0  0  0  0
  140.9030   76.8470  221.4830 C   0  0  0  0  0  0  0  0  0  0  0  0
  139.9530   73.5030  222.5760 N   0  0  0  0  0  0  0  0  0  0  0  0
  140.4390   72.2540  222.6740 C   0  0  0  0  0  0  0  0  0  0  0  0
  139.8530   71.2610  223.5140 N   0  0  0  0  0  0  0  0  0  0  0  0
  139.1650   70.1470  222.9040 C   0  0  0  0  0  0  0  0  0  0  0  0
  138.8420   69.0160  223.8040 C   0  0  0  0  0  0  0  0  0  0  0  0
  139.5120   69.0160  225.1110 C   0  0  0  0  0  0  0  0  0  0  0  0
  139.5800   67.7900  225.7870 C   0  0  0  0  0  0  0  0  0  0  0  0
  140.2010   67.7860  227.0070 C   0  0  0  0  0  0  0  0  0  0  0  0
  140.7510   68.9090  227.5910 C   0  0  0  0  0  0  0  0  0  0  0  0
  140.6730   70.1170  226.9040 C   0  0  0  0  0  0  0  0  0  0  0  0
  140.0540   70.1400  225.6810 C   0  0  0  0  0  0  0  0  0  0  0  0
  139.9690   71.4110  224.9500 C   0  0  0  0  0  0  0  0  0  0  0  0
  141.5160   71.9570  221.9360 N   0  0  0  0  0  0  0  0  0  0  0  0
  143.8250   74.5300  219.5190 C   0  0  0  0  0  0  0  0  0  0  0  0
  142.7960   77.4690  218.8760 N   0  0  0  0  0  0  0  0  0  0  0  0
  142.1128   79.5614  220.6322 H   0  0  0  0  0  0  0  0  0  0  0  0
  143.1297   80.1783  219.2861 H   0  0  0  0  0  0  0  0  0  0  0  0
  141.3592   80.4815  219.2861 H   0  0  0  0  0  0  0  0  0  0  0  0
  140.0554   79.1710  217.9193 H   0  0  0  0  0  0  0  0  0  0  0  0
  139.7528   77.0332  216.7057 H   0  0  0  0  0  0  0  0  0  0  0  0
  143.9266   75.4431  216.2256 H   0  0  0  0  0  0  0  0  0  0  0  0
  145.2576   74.7548  217.1789 H   0  0  0  0  0  0  0  0  0  0  0  0
  142.8800   73.4587  215.9804 H   0  0  0  0  0  0  0  0  0  0  0  0
  144.4885   72.7612  216.4889 H   0  0  0  0  0  0  0  0  0  0  0  0
  141.9744   73.1306  218.1028 H   0  0  0  0  0  0  0  0  0  0  0  0
  142.9602   71.6512  217.8246 H   0  0  0  0  0  0  0  0  0  0  0  0
  144.8253   72.6871  219.0111 H   0  0  0  0  0  0  0  0  0  0  0  0
  143.7830   71.5030  220.6890 H   0  0  0  0  0  0  0  0  0  0  0  0
  138.2539   76.3105  220.7564 H   0  0  0  0  0  0  0  0  0  0  0  0
  138.0867   75.0522  222.0444 H   0  0  0  0  0  0  0  0  0  0  0  0
  137.3084   77.4511  222.5866 H   0  0  0  0  0  0  0  0  0  0  0  0
  138.3819   76.6009  223.7689 H   0  0  0  0  0  0  0  0  0  0  0  0
  139.5292   79.8461  220.6040 H   0  0  0  0  0  0  0  0  0  0  0  0
  138.7281   82.1922  220.5009 H   0  0  0  0  0  0  0  0  0  0  0  0
  137.5509   83.1360  222.5146 H   0  0  0  0  0  0  0  0  0  0  0  0
  137.2539   81.6820  224.4769 H   0  0  0  0  0  0  0  0  0  0  0  0
  141.3256   78.6334  222.6474 H   0  0  0  0  0  0  0  0  0  0  0  0
  140.9300   77.2158  223.6382 H   0  0  0  0  0  0  0  0  0  0  0  0
  140.6342   77.3844  220.5616 H   0  0  0  0  0  0  0  0  0  0  0  0
  141.9572   76.5466  221.3909 H   0  0  0  0  0  0  0  0  0  0  0  0
  138.2209   70.5233  222.4832 H   0  0  0  0  0  0  0  0  0  0  0  0
  139.8602   69.7419  222.1539 H   0  0  0  0  0  0  0  0  0  0  0  0
  137.7568   69.0289  223.9831 H   0  0  0  0  0  0  0  0  0  0  0  0
  139.2048   68.1154  223.2871 H   0  0  0  0  0  0  0  0  0  0  0  0
  139.1534   66.8720  225.3564 H   0  0  0  0  0  0  0  0  0  0  0  0
  140.2653   66.8333  227.5530 H   0  0  0  0  0  0  0  0  0  0  0  0
  141.2390   68.8508  228.5751 H   0  0  0  0  0  0  0  0  0  0  0  0
  141.0997   71.0352  227.3339 H   0  0  0  0  0  0  0  0  0  0  0  0
  139.0870   71.9595  225.3123 H   0  0  0  0  0  0  0  0  0  0  0  0
  140.9103   71.9483  225.1377 H   0  0  0  0  0  0  0  0  0  0  0  0
  143.0710   74.7704  220.2830 H   0  0  0  0  0  0  0  0  0  0  0  0
  144.8084   74.8385  219.9033 H   0  0  0  0  0  0  0  0  0  0  0  0
  1  2  1  0
  2  3  2  0
  3  4  1  0
  4  5  2  0
  5  6  1  0
  6  7  1  0
  7  8  1  0
  8  9  1  0
  9 10  1  0
 10 11  1  0
 11 12  1  0
 12 13  1  0
 13 14  2  0
 14 15  1  0
 15 16  1  0
 16 17  1  0
 17 18  1  0
 18 19  1  0
 19 20  1  0
 20 21  2  0
 21 22  1  0
 22 23  2  0
 23 24  1  0
 24 25  2  0
 19 26  1  0
 26 27  1  0
 15 28  2  0
 28 29  1  0
 29 30  1  0
 30 31  1  0
 31 32  1  0
 32 33  1  0
 33 34  2  0
 34 35  1  0
 35 36  2  0
 36 37  1  0
 37 38  2  0
 38 39  1  0
 29 40  2  0
 11 41  1  0
  6 42  2  0
 42  2  1  0
 41  7  1  0
 40 13  1  0
 27 16  1  0
 39 30  1  0
 25 20  1  0
 38 33  1  0
  1 43  1  0
  1 44  1  0
  1 45  1  0
  3 46  1  0
  4 47  1  0
  8 48  1  0
  8 49  1  0
  9 50  1  0
  9 51  1  0
 10 52  1  0
 10 53  1  0
 11 54  1  6
 12 55  1  0
 17 56  1  0
 17 57  1  0
 18 58  1  0
 18 59  1  0
 21 60  1  0
 22 61  1  0
 23 62  1  0
 24 63  1  0
 26 64  1  0
 26 65  1  0
 27 66  1  0
 27 67  1  0
 31 68  1  0
 31 69  1  0
 32 70  1  0
 32 71  1  0
 34 72  1  0
 35 73  1  0
 36 74  1  0
 37 75  1  0
 39 76  1  0
 39 77  1  0
 41 78  1  0
 41 79  1  0
M  END
>  <smiles>  (47) 
Cc1ccnc(N2CCCC(Nc3nc(N4CCN(c5ccccn5)CC4)nc(N4CCc5ccccc5C4)n3)C2)n1

>  <score_type>  (47) 
oracle

>  <origin>  (47) 
autodockgpu

>  <m_score__min__energy>  (47) 
-10.5

>  <m_primary>  (47) 
energy

>  <rmsd>  (47) 
8.45850611208643

>  <m_score__min__rmsd>  (47) 
8.45850611208643

>  <meeko>  (47) 
{"free_energy": -8.48, "intermolecular_energy": -10.27, "internal_energy": -2.21, "cluster_size": 10, "cluster_id": 9, "rank_in_cluster": 9}

>  <energy>  (47) 
-8.35

>  <cluster_rmsd>  (47) 
0.83

>  <cluster>  (47) 
9

$$$$

     RDKit          3D

 79 85  0  0  1  0  0  0  0  0999 V2000
  138.8750   80.8710  224.1520 C   0  0  0  0  0  0  0  0  0  0  0  0
  140.1550   80.4930  223.5160 C   0  0  0  0  0  0  0  0  0  0  0  0
  141.3190   81.1780  223.8620 C   0  0  0  0  0  0  0  0  0  0  0  0
  142.4870   80.7870  223.2390 C   0  0  0  0  0  0  0  0  0  0  0  0
  142.5450   79.7950  222.3350 N   0  0  0  0  0  0  0  0  0  0  0  0
  141.3990   79.1520  222.0210 C   0  0  0  0  0  0  0  0  0  0  0  0
  141.5000   78.1100  221.0590 N   0  0  0  0  0  0  0  0  0  0  0  0
  141.6870   78.4490  219.6620 C   0  0  0  0  0  0  0  0  0  0  0  0
  140.4330   78.0220  218.9440 C   0  0  0  0  0  0  0  0  0  0  0  0
  139.6130   77.0300  219.7170 C   0  0  0  0  0  0  0  0  0  0  0  0
  140.5220   76.0260  220.3960 C   0  0  2  0  0  0  0  0  0  0  0  0
  139.7750   75.0000  221.0750 N   0  0  0  0  0  0  0  0  0  0  0  0
  140.2470   73.6740  221.2770 C   0  0  0  0  0  0  0  0  0  0  0  0
  141.0590   73.0380  220.4160 N   0  0  0  0  0  0  0  0  0  0  0  0
  141.4610   71.7750  220.6870 C   0  0  0  0  0  0  0  0  0  0  0  0
  142.3120   71.1080  219.7780 N   0  0  0  0  0  0  0  0  0  0  0  0
  143.5570   71.6970  219.2980 C   0  0  0  0  0  0  0  0  0  0  0  0
  144.7140   70.7380  219.4720 C   0  0  0  0  0  0  0  0  0  0  0  0
  144.3360   69.3810  219.0950 N   0  0  0  0  0  0  0  0  0  0  0  0
  145.1390   68.6470  218.1830 C   0  0  0  0  0  0  0  0  0  0  0  0
  145.5060   67.3370  218.3590 C   0  0  0  0  0  0  0  0  0  0  0  0
  146.2950   66.6380  217.4540 C   0  0  0  0  0  0  0  0  0  0  0  0
  146.7220   67.3090  216.3310 C   0  0  0  0  0  0  0  0  0  0  0  0
  146.3360   68.6170  216.1890 C   0  0  0  0  0  0  0  0  0  0  0  0
  145.5780   69.2640  217.0730 N   0  0  0  0  0  0  0  0  0  0  0  0
  143.1270   68.8650  219.7060 C   0  0  0  0  0  0  0  0  0  0  0  0
  141.9880   69.7890  219.2600 C   0  0  0  0  0  0  0  0  0  0  0  0
  141.0720   71.1270  221.8020 N   0  0  0  0  0  0  0  0  0  0  0  0
  140.2610   71.7480  222.6750 C   0  0  0  0  0  0  0  0  0  0  0  0
  139.8090   71.1340  223.8810 N   0  0  0  0  0  0  0  0  0  0  0  0
  139.0060   69.9370  223.7980 C   0  0  0  0  0  0  0  0  0  0  0  0
  138.8210   69.1930  225.0650 C   0  0  0  0  0  0  0  0  0  0  0  0
  139.7040   69.5730  226.1750 C   0  0  0  0  0  0  0  0  0  0  0  0
  139.8640   68.6370  227.2060 C   0  0  0  0  0  0  0  0  0  0  0  0
  140.6850   68.9890  228.2430 C   0  0  0  0  0  0  0  0  0  0  0  0
  141.3480   70.1960  228.3210 C   0  0  0  0  0  0  0  0  0  0  0  0
  141.1760   71.1130  227.2890 C   0  0  0  0  0  0  0  0  0  0  0  0
  140.3570   70.7780  226.2400 C   0  0  0  0  0  0  0  0  0  0  0  0
  140.1720   71.7400  225.1470 C   0  0  0  0  0  0  0  0  0  0  0  0
  139.8820   72.9970  222.3770 N   0  0  0  0  0  0  0  0  0  0  0  0
  141.4230   76.6960  221.4150 C   0  0  0  0  0  0  0  0  0  0  0  0
  140.2410   79.5030  222.6060 N   0  0  0  0  0  0  0  0  0  0  0  0
  138.9854   80.8384  225.2460 H   0  0  0  0  0  0  0  0  0  0  0  0
  138.5980   81.8893  223.8416 H   0  0  0  0  0  0  0  0  0  0  0  0
  138.0892   80.1666  223.8416 H   0  0  0  0  0  0  0  0  0  0  0  0
  141.3071   81.9943  224.5992 H   0  0  0  0  0  0  0  0  0  0  0  0
  143.4175   81.3145  223.4958 H   0  0  0  0  0  0  0  0  0  0  0  0
  141.8373   79.5330  219.5513 H   0  0  0  0  0  0  0  0  0  0  0  0
  142.5728   77.9460  219.2468 H   0  0  0  0  0  0  0  0  0  0  0  0
  139.8169   78.9140  218.7575 H   0  0  0  0  0  0  0  0  0  0  0  0
  140.7442   77.5298  218.0108 H   0  0  0  0  0  0  0  0  0  0  0  0
  139.0221   77.5601  220.4784 H   0  0  0  0  0  0  0  0  0  0  0  0
  138.9406   76.5001  219.0263 H   0  0  0  0  0  0  0  0  0  0  0  0
  141.1262   75.5749  219.5951 H   0  0  0  0  0  0  0  0  0  0  0  0
  138.8280   75.2620  221.4360 H   0  0  0  0  0  0  0  0  0  0  0  0
  143.4508   71.9424  218.2310 H   0  0  0  0  0  0  0  0  0  0  0  0
  143.7636   72.6047  219.8840 H   0  0  0  0  0  0  0  0  0  0  0  0
  145.5507   71.0665  218.8380 H   0  0  0  0  0  0  0  0  0  0  0  0
  145.0079   70.7357  220.5320 H   0  0  0  0  0  0  0  0  0  0  0  0
  145.1581   66.8138  219.2619 H   0  0  0  0  0  0  0  0  0  0  0  0
  146.5683   65.5869  217.6287 H   0  0  0  0  0  0  0  0  0  0  0  0
  147.3498   66.8143  215.5752 H   0  0  0  0  0  0  0  0  0  0  0  0
  146.6711   69.1629  215.2947 H   0  0  0  0  0  0  0  0  0  0  0  0
  142.9378   67.8363  219.3654 H   0  0  0  0  0  0  0  0  0  0  0  0
  143.2138   68.8397  220.8023 H   0  0  0  0  0  0  0  0  0  0  0  0
  141.9253   69.8150  218.1621 H   0  0  0  0  0  0  0  0  0  0  0  0
  141.0155   69.4378  219.6354 H   0  0  0  0  0  0  0  0  0  0  0  0
  138.0109   70.2238  223.4272 H   0  0  0  0  0  0  0  0  0  0  0  0
  139.5546   69.2562  223.1305 H   0  0  0  0  0  0  0  0  0  0  0  0
  137.7827   69.3451  225.3949 H   0  0  0  0  0  0  0  0  0  0  0  0
  139.0738   68.1480  224.8323 H   0  0  0  0  0  0  0  0  0  0  0  0
  139.3527   67.6633  227.1827 H   0  0  0  0  0  0  0  0  0  0  0  0
  140.8241   68.2675  229.0616 H   0  0  0  0  0  0  0  0  0  0  0  0
  141.9970   70.4279  229.1783 H   0  0  0  0  0  0  0  0  0  0  0  0
  141.6863   72.0872  227.3134 H   0  0  0  0  0  0  0  0  0  0  0  0
  139.3753   72.4416  225.4353 H   0  0  0  0  0  0  0  0  0  0  0  0
  141.1411   72.2375  224.9945 H   0  0  0  0  0  0  0  0  0  0  0  0
  140.9996   76.5838  222.4240 H   0  0  0  0  0  0  0  0  0  0  0  0
  142.4230   76.2377  221.4134 H   0  0  0  0  0  0  0  0  0  0  0  0
  1  2  1  0
  2  3  2  0
  3  4  1  0
  4  5  2  0
  5  6  1  0
  6  7  1  0
  7  8  1  0
  8  9  1  0
  9 10  1  0
 10 11  1  0
 11 12  1  0
 12 13  1  0
 13 14  2  0
 14 15  1  0
 15 16  1  0
 16 17  1  0
 17 18  1  0
 18 19  1  0
 19 20  1  0
 20 21  2  0
 21 22  1  0
 22 23  2  0
 23 24  1  0
 24 25  2  0
 19 26  1  0
 26 27  1  0
 15 28  2  0
 28 29  1  0
 29 30  1  0
 30 31  1  0
 31 32  1  0
 32 33  1  0
 33 34  2  0
 34 35  1  0
 35 36  2  0
 36 37  1  0
 37 38  2  0
 38 39  1  0
 29 40  2  0
 11 41  1  0
  6 42  2  0
 42  2  1  0
 41  7  1  0
 40 13  1  0
 27 16  1  0
 39 30  1  0
 25 20  1  0
 38 33  1  0
  1 43  1  0
  1 44  1  0
  1 45  1  0
  3 46  1  0
  4 47  1  0
  8 48  1  0
  8 49  1  0
  9 50  1  0
  9 51  1  0
 10 52  1  0
 10 53  1  0
 11 54  1  6
 12 55  1  0
 17 56  1  0
 17 57  1  0
 18 58  1  0
 18 59  1  0
 21 60  1  0
 22 61  1  0
 23 62  1  0
 24 63  1  0
 26 64  1  0
 26 65  1  0
 27 66  1  0
 27 67  1  0
 31 68  1  0
 31 69  1  0
 32 70  1  0
 32 71  1  0
 34 72  1  0
 35 73  1  0
 36 74  1  0
 37 75  1  0
 39 76  1  0
 39 77  1  0
 41 78  1  0
 41 79  1  0
M  END
>  <smiles>  (48) 
Cc1ccnc(N2CCCC(Nc3nc(N4CCN(c5ccccn5)CC4)nc(N4CCc5ccccc5C4)n3)C2)n1

>  <score_type>  (48) 
oracle

>  <origin>  (48) 
autodockgpu

>  <m_score__min__energy>  (48) 
-10.5

>  <m_primary>  (48) 
energy

>  <rmsd>  (48) 
8.173488348862785

>  <m_score__min__rmsd>  (48) 
8.173488348862785

>  <meeko>  (48) 
{"free_energy": -9.16, "intermolecular_energy": -10.95, "internal_energy": -1.38, "cluster_size": 13, "cluster_id": 2, "rank_in_cluster": 10}

>  <energy>  (48) 
-8.38

>  <cluster_rmsd>  (48) 
0.0

>  <cluster>  (48) 
10

$$$$

     RDKit          3D

 79 85  0  0  1  0  0  0  0  0999 V2000
  141.2690   71.3810  226.0970 C   0  0  0  0  0  0  0  0  0  0  0  0
  140.1820   70.4980  225.6220 C   0  0  0  0  0  0  0  0  0  0  0  0
  140.2640   69.1260  225.8600 C   0  0  0  0  0  0  0  0  0  0  0  0
  139.2240   68.3460  225.3950 C   0  0  0  0  0  0  0  0  0  0  0  0
  138.1630   68.8450  224.7390 N   0  0  0  0  0  0  0  0  0  0  0  0
  138.1160   70.1770  224.5240 C   0  0  0  0  0  0  0  0  0  0  0  0
  136.9790   70.6670  223.8260 N   0  0  0  0  0  0  0  0  0  0  0  0
  136.1530   69.7420  223.0760 C   0  0  0  0  0  0  0  0  0  0  0  0
  136.3130   70.1020  221.6220 C   0  0  0  0  0  0  0  0  0  0  0  0
  136.8580   71.4840  221.4070 C   0  0  0  0  0  0  0  0  0  0  0  0
  136.2350   72.4440  222.4010 C   0  0  2  0  0  0  0  0  0  0  0  0
  136.6600   73.8010  222.1740 N   0  0  0  0  0  0  0  0  0  0  0  0
  138.0160   74.1940  222.0160 C   0  0  0  0  0  0  0  0  0  0  0  0
  139.0160   73.3270  221.7830 N   0  0  0  0  0  0  0  0  0  0  0  0
  140.2810   73.7890  221.6460 C   0  0  0  0  0  0  0  0  0  0  0  0
  141.3290   72.8740  221.4030 N   0  0  0  0  0  0  0  0  0  0  0  0
  141.1880   71.4420  221.6400 C   0  0  0  0  0  0  0  0  0  0  0  0
  141.6090   70.6450  220.4250 C   0  0  0  0  0  0  0  0  0  0  0  0
  142.8270   71.1880  219.8360 N   0  0  0  0  0  0  0  0  0  0  0  0
  143.9270   70.3320  219.5640 C   0  0  0  0  0  0  0  0  0  0  0  0
  145.1710   70.7690  219.1850 C   0  0  0  0  0  0  0  0  0  0  0  0
  146.2330   69.9130  218.9220 C   0  0  0  0  0  0  0  0  0  0  0  0
  146.0080   68.5610  219.0530 C   0  0  0  0  0  0  0  0  0  0  0  0
  144.7530   68.1610  219.4340 C   0  0  0  0  0  0  0  0  0  0  0  0
  143.7510   69.0040  219.6800 N   0  0  0  0  0  0  0  0  0  0  0  0
  142.8210   72.6100  219.5580 C   0  0  0  0  0  0  0  0  0  0  0  0
  142.6230   73.3140  220.9050 C   0  0  0  0  0  0  0  0  0  0  0  0
  140.5750   75.1000  221.7360 N   0  0  0  0  0  0  0  0  0  0  0  0
  139.5870   75.9810  221.9690 C   0  0  0  0  0  0  0  0  0  0  0  0
  139.8140   77.3860  222.0720 N   0  0  0  0  0  0  0  0  0  0  0  0
  138.7400   78.2360  222.5300 C   0  0  0  0  0  0  0  0  0  0  0  0
  139.1210   79.6210  222.8930 C   0  0  0  0  0  0  0  0  0  0  0  0
  140.5600   79.8800  223.0400 C   0  0  0  0  0  0  0  0  0  0  0  0
  140.9260   81.0080  223.7860 C   0  0  0  0  0  0  0  0  0  0  0  0
  142.2650   81.2540  223.9230 C   0  0  0  0  0  0  0  0  0  0  0  0
  143.2510   80.4610  223.3730 C   0  0  0  0  0  0  0  0  0  0  0  0
  142.8680   79.3460  222.6360 C   0  0  0  0  0  0  0  0  0  0  0  0
  141.5300   79.0830  222.4870 C   0  0  0  0  0  0  0  0  0  0  0  0
  141.1180   77.9070  221.7100 C   0  0  0  0  0  0  0  0  0  0  0  0
  138.3480   75.4920  222.0990 N   0  0  0  0  0  0  0  0  0  0  0  0
  136.5980   72.0770  223.8270 C   0  0  0  0  0  0  0  0  0  0  0  0
  139.1070   70.9710  224.9620 N   0  0  0  0  0  0  0  0  0  0  0  0
  141.2799   71.3899  227.1969 H   0  0  0  0  0  0  0  0  0  0  0  0
  142.2341   71.0078  225.7237 H   0  0  0  0  0  0  0  0  0  0  0  0
  141.1015   72.4021  225.7237 H   0  0  0  0  0  0  0  0  0  0  0  0
  141.1187   68.6854  226.3941 H   0  0  0  0  0  0  0  0  0  0  0  0
  139.2662   67.2609  225.5705 H   0  0  0  0  0  0  0  0  0  0  0  0
  136.4870   68.7084  223.2499 H   0  0  0  0  0  0  0  0  0  0  0  0
  135.1001   69.8090  223.3873 H   0  0  0  0  0  0  0  0  0  0  0  0
  137.0005   69.3798  221.1575 H   0  0  0  0  0  0  0  0  0  0  0  0
  135.3114   70.0734  221.1680 H   0  0  0  0  0  0  0  0  0  0  0  0
  137.9491   71.4717  221.5463 H   0  0  0  0  0  0  0  0  0  0  0  0
  136.6176   71.8135  220.3854 H   0  0  0  0  0  0  0  0  0  0  0  0
  135.1475   72.3669  222.2550 H   0  0  0  0  0  0  0  0  0  0  0  0
  135.9100   74.5300  222.1240 H   0  0  0  0  0  0  0  0  0  0  0  0
  141.8191   71.1553  222.4941 H   0  0  0  0  0  0  0  0  0  0  0  0
  140.1304   71.2252  221.8509 H   0  0  0  0  0  0  0  0  0  0  0  0
  141.7891   69.6020  220.7245 H   0  0  0  0  0  0  0  0  0  0  0  0
  140.8050   70.6995  219.6762 H   0  0  0  0  0  0  0  0  0  0  0  0
  145.3358   71.8519  219.0843 H   0  0  0  0  0  0  0  0  0  0  0  0
  147.2171   70.3009  218.6203 H   0  0  0  0  0  0  0  0  0  0  0  0
  146.8056   67.8287  218.8591 H   0  0  0  0  0  0  0  0  0  0  0  0
  144.5627   67.0831  219.5427 H   0  0  0  0  0  0  0  0  0  0  0  0
  143.7774   72.9134  219.1072 H   0  0  0  0  0  0  0  0  0  0  0  0
  142.0225   72.8741  218.8491 H   0  0  0  0  0  0  0  0  0  0  0  0
  143.4200   73.0269  221.6067 H   0  0  0  0  0  0  0  0  0  0  0  0
  142.6613   74.4080  220.7965 H   0  0  0  0  0  0  0  0  0  0  0  0
  137.9892   78.2922  221.7280 H   0  0  0  0  0  0  0  0  0  0  0  0
  138.3712   77.7756  223.4584 H   0  0  0  0  0  0  0  0  0  0  0  0
  138.7376   80.2910  222.1094 H   0  0  0  0  0  0  0  0  0  0  0  0
  138.6871   79.7946  223.8888 H   0  0  0  0  0  0  0  0  0  0  0  0
  140.1711   81.6661  224.2410 H   0  0  0  0  0  0  0  0  0  0  0  0
  142.5731   82.1349  224.5053 H   0  0  0  0  0  0  0  0  0  0  0  0
  144.3143   80.7050  223.5142 H   0  0  0  0  0  0  0  0  0  0  0  0
  143.6230   78.6878  222.1814 H   0  0  0  0  0  0  0  0  0  0  0  0
  141.0954   78.1862  220.6463 H   0  0  0  0  0  0  0  0  0  0  0  0
  141.8480   77.1128  221.9250 H   0  0  0  0  0  0  0  0  0  0  0  0
  137.4400   72.6948  224.1725 H   0  0  0  0  0  0  0  0  0  0  0  0
  135.7485   72.2517  224.5037 H   0  0  0  0  0  0  0  0  0  0  0  0
  1  2  1  0
  2  3  2  0
  3  4  1  0
  4  5  2  0
  5  6  1  0
  6  7  1  0
  7  8  1  0
  8  9  1  0
  9 10  1  0
 10 11  1  0
 11 12  1  0
 12 13  1  0
 13 14  2  0
 14 15  1  0
 15 16  1  0
 16 17  1  0
 17 18  1  0
 18 19  1  0
 19 20  1  0
 20 21  2  0
 21 22  1  0
 22 23  2  0
 23 24  1  0
 24 25  2  0
 19 26  1  0
 26 27  1  0
 15 28  2  0
 28 29  1  0
 29 30  1  0
 30 31  1  0
 31 32  1  0
 32 33  1  0
 33 34  2  0
 34 35  1  0
 35 36  2  0
 36 37  1  0
 37 38  2  0
 38 39  1  0
 29 40  2  0
 11 41  1  0
  6 42  2  0
 42  2  1  0
 41  7  1  0
 40 13  1  0
 27 16  1  0
 39 30  1  0
 25 20  1  0
 38 33  1  0
  1 43  1  0
  1 44  1  0
  1 45  1  0
  3 46  1  0
  4 47  1  0
  8 48  1  0
  8 49  1  0
  9 50  1  0
  9 51  1  0
 10 52  1  0
 10 53  1  0
 11 54  1  1
 12 55  1  0
 17 56  1  0
 17 57  1  0
 18 58  1  0
 18 59  1  0
 21 60  1  0
 22 61  1  0
 23 62  1  0
 24 63  1  0
 26 64  1  0
 26 65  1  0
 27 66  1  0
 27 67  1  0
 31 68  1  0
 31 69  1  0
 32 70  1  0
 32 71  1  0
 34 72  1  0
 35 73  1  0
 36 74  1  0
 37 75  1  0
 39 76  1  0
 39 77  1  0
 41 78  1  0
 41 79  1  0
M  END
>  <smiles>  (49) 
Cc1ccnc(N2CCCC(Nc3nc(N4CCN(c5ccccn5)CC4)nc(N4CCc5ccccc5C4)n3)C2)n1

>  <score_type>  (49) 
oracle

>  <origin>  (49) 
autodockgpu

>  <m_score__min__energy>  (49) 
-10.5

>  <m_primary>  (49) 
energy

>  <rmsd>  (49) 
6.697086281238614

>  <m_score__min__rmsd>  (49) 
6.697086281238614

>  <meeko>  (49) 
{"free_energy": -9.06, "intermolecular_energy": -10.85, "internal_energy": -1.97, "cluster_size": 9, "cluster_id": 1, "rank_in_cluster": 6}

>  <energy>  (49) 
-7.74

>  <cluster_rmsd>  (49) 
0.0

>  <cluster>  (49) 
11

$$$$

     RDKit          3D

 79 85  0  0  1  0  0  0  0  0999 V2000
  142.5130   78.4140  215.2730 C   0  0  0  0  0  0  0  0  0  0  0  0
  142.7320   77.6880  216.5430 C   0  0  0  0  0  0  0  0  0  0  0  0
  142.5160   78.3490  217.7530 C   0  0  0  0  0  0  0  0  0  0  0  0
  142.7360   77.6270  218.9090 C   0  0  0  0  0  0  0  0  0  0  0  0
  143.1380   76.3460  218.9150 N   0  0  0  0  0  0  0  0  0  0  0  0
  143.3380   75.7360  217.7270 C   0  0  0  0  0  0  0  0  0  0  0  0
  143.7650   74.3810  217.7730 N   0  0  0  0  0  0  0  0  0  0  0  0
  143.7200   73.5800  216.5660 C   0  0  0  0  0  0  0  0  0  0  0  0
  142.6790   72.5150  216.7950 C   0  0  0  0  0  0  0  0  0  0  0  0
  142.3480   72.3070  218.2440 C   0  0  0  0  0  0  0  0  0  0  0  0
  143.6120   72.3770  219.0770 C   0  0  2  0  0  0  0  0  0  0  0  0
  143.3560   72.0920  220.4650 N   0  0  0  0  0  0  0  0  0  0  0  0
  142.2280   72.5760  221.1810 C   0  0  0  0  0  0  0  0  0  0  0  0
  141.7600   73.8310  221.0660 N   0  0  0  0  0  0  0  0  0  0  0  0
  140.6790   74.2080  221.7870 C   0  0  0  0  0  0  0  0  0  0  0  0
  140.1920   75.5280  221.6650 N   0  0  0  0  0  0  0  0  0  0  0  0
  138.7690   75.8450  221.7190 C   0  0  0  0  0  0  0  0  0  0  0  0
  138.4950   76.9460  222.7190 C   0  0  0  0  0  0  0  0  0  0  0  0
  139.4920   78.0060  222.6240 N   0  0  0  0  0  0  0  0  0  0  0  0
  139.0810   79.3580  222.4960 C   0  0  0  0  0  0  0  0  0  0  0  0
  138.4390   80.0670  223.4800 C   0  0  0  0  0  0  0  0  0  0  0  0
  138.0440   81.3900  223.3320 C   0  0  0  0  0  0  0  0  0  0  0  0
  138.3180   82.0060  222.1320 C   0  0  0  0  0  0  0  0  0  0  0  0
  138.9610   81.2680  221.1720 C   0  0  0  0  0  0  0  0  0  0  0  0
  139.3290   79.9990  221.3400 N   0  0  0  0  0  0  0  0  0  0  0  0
  140.8770   77.5820  222.6720 C   0  0  0  0  0  0  0  0  0  0  0  0
  141.0900   76.6560  221.4700 C   0  0  0  0  0  0  0  0  0  0  0  0
  140.0490   73.3610  222.6220 N   0  0  0  0  0  0  0  0  0  0  0  0
  140.5020   72.1020  222.7500 C   0  0  0  0  0  0  0  0  0  0  0  0
  139.8880   71.1440  223.6090 N   0  0  0  0  0  0  0  0  0  0  0  0
  139.1980   70.0180  223.0210 C   0  0  0  0  0  0  0  0  0  0  0  0
  138.8440   68.9210  223.9500 C   0  0  0  0  0  0  0  0  0  0  0  0
  139.4880   68.9550  225.2700 C   0  0  0  0  0  0  0  0  0  0  0  0
  139.5270   67.7510  225.9860 C   0  0  0  0  0  0  0  0  0  0  0  0
  140.1240   67.7790  227.2170 C   0  0  0  0  0  0  0  0  0  0  0  0
  140.6760   68.9130  227.7760 C   0  0  0  0  0  0  0  0  0  0  0  0
  140.6270   70.0990  227.0500 C   0  0  0  0  0  0  0  0  0  0  0  0
  140.0320   70.0900  225.8140 C   0  0  0  0  0  0  0  0  0  0  0  0
  139.9770   71.3380  225.0420 C   0  0  0  0  0  0  0  0  0  0  0  0
  141.5730   71.7620  222.0230 N   0  0  0  0  0  0  0  0  0  0  0  0
  144.2540   73.7480  218.9950 C   0  0  0  0  0  0  0  0  0  0  0  0
  143.1350   76.4030  216.5780 N   0  0  0  0  0  0  0  0  0  0  0  0
  142.2016   79.4465  215.4899 H   0  0  0  0  0  0  0  0  0  0  0  0
  143.4472   78.4271  214.6923 H   0  0  0  0  0  0  0  0  0  0  0  0
  141.7274   77.9083  214.6923 H   0  0  0  0  0  0  0  0  0  0  0  0
  142.1855   79.3977  217.7843 H   0  0  0  0  0  0  0  0  0  0  0  0
  142.5735   78.1271  219.8751 H   0  0  0  0  0  0  0  0  0  0  0  0
  143.4402   74.2055  215.7055 H   0  0  0  0  0  0  0  0  0  0  0  0
  144.7020   73.1347  216.3484 H   0  0  0  0  0  0  0  0  0  0  0  0
  141.7598   72.8063  216.2657 H   0  0  0  0  0  0  0  0  0  0  0  0
  143.0939   71.5688  216.4176 H   0  0  0  0  0  0  0  0  0  0  0  0
  141.6495   73.0898  218.5746 H   0  0  0  0  0  0  0  0  0  0  0  0
  141.8848   71.3174  218.3712 H   0  0  0  0  0  0  0  0  0  0  0  0
  144.2898   71.6165  218.6621 H   0  0  0  0  0  0  0  0  0  0  0  0
  144.0540   71.4910  220.9620 H   0  0  0  0  0  0  0  0  0  0  0  0
  138.4357   76.1727  220.7232 H   0  0  0  0  0  0  0  0  0  0  0  0
  138.2215   74.9438  222.0322 H   0  0  0  0  0  0  0  0  0  0  0  0
  137.4999   77.3708  222.5210 H   0  0  0  0  0  0  0  0  0  0  0  0
  138.5394   76.5162  223.7306 H   0  0  0  0  0  0  0  0  0  0  0  0
  138.2266   79.5620  224.4339 H   0  0  0  0  0  0  0  0  0  0  0  0
  137.5309   81.9261  224.1440 H   0  0  0  0  0  0  0  0  0  0  0  0
  138.0315   83.0523  221.9499 H   0  0  0  0  0  0  0  0  0  0  0  0
  139.1855   81.7508  220.2094 H   0  0  0  0  0  0  0  0  0  0  0  0
  141.5440   78.4540  222.6029 H   0  0  0  0  0  0  0  0  0  0  0  0
  141.1027   77.0659  223.6168 H   0  0  0  0  0  0  0  0  0  0  0  0
  140.8452   77.1816  220.5352 H   0  0  0  0  0  0  0  0  0  0  0  0
  142.1373   76.3277  221.3965 H   0  0  0  0  0  0  0  0  0  0  0  0
  138.2669   70.3913  222.5696 H   0  0  0  0  0  0  0  0  0  0  0  0
  139.9026   69.5809  222.2982 H   0  0  0  0  0  0  0  0  0  0  0  0
  137.7557   68.9522  224.1068 H   0  0  0  0  0  0  0  0  0  0  0  0
  139.2064   68.0002  223.4695 H   0  0  0  0  0  0  0  0  0  0  0  0
  139.0970   66.8249  225.5768 H   0  0  0  0  0  0  0  0  0  0  0  0
  140.1662   66.8434  227.7940 H   0  0  0  0  0  0  0  0  0  0  0  0
  141.1434   68.8804  228.7712 H   0  0  0  0  0  0  0  0  0  0  0  0
  141.0568   71.0253  227.4590 H   0  0  0  0  0  0  0  0  0  0  0  0
  139.0946   71.9077  225.3689 H   0  0  0  0  0  0  0  0  0  0  0  0
  140.9208   71.8702  225.2319 H   0  0  0  0  0  0  0  0  0  0  0  0
  143.9704   74.3500  219.8709 H   0  0  0  0  0  0  0  0  0  0  0  0
  145.3508   73.6655  218.9803 H   0  0  0  0  0  0  0  0  0  0  0  0
  1  2  1  0
  2  3  2  0
  3  4  1  0
  4  5  2  0
  5  6  1  0
  6  7  1  0
  7  8  1  0
  8  9  1  0
  9 10  1  0
 10 11  1  0
 11 12  1  0
 12 13  1  0
 13 14  2  0
 14 15  1  0
 15 16  1  0
 16 17  1  0
 17 18  1  0
 18 19  1  0
 19 20  1  0
 20 21  2  0
 21 22  1  0
 22 23  2  0
 23 24  1  0
 24 25  2  0
 19 26  1  0
 26 27  1  0
 15 28  2  0
 28 29  1  0
 29 30  1  0
 30 31  1  0
 31 32  1  0
 32 33  1  0
 33 34  2  0
 34 35  1  0
 35 36  2  0
 36 37  1  0
 37 38  2  0
 38 39  1  0
 29 40  2  0
 11 41  1  0
  6 42  2  0
 42  2  1  0
 41  7  1  0
 40 13  1  0
 27 16  1  0
 39 30  1  0
 25 20  1  0
 38 33  1  0
  1 43  1  0
  1 44  1  0
  1 45  1  0
  3 46  1  0
  4 47  1  0
  8 48  1  0
  8 49  1  0
  9 50  1  0
  9 51  1  0
 10 52  1  0
 10 53  1  0
 11 54  1  6
 12 55  1  0
 17 56  1  0
 17 57  1  0
 18 58  1  0
 18 59  1  0
 21 60  1  0
 22 61  1  0
 23 62  1  0
 24 63  1  0
 26 64  1  0
 26 65  1  0
 27 66  1  0
 27 67  1  0
 31 68  1  0
 31 69  1  0
 32 70  1  0
 32 71  1  0
 34 72  1  0
 35 73  1  0
 36 74  1  0
 37 75  1  0
 39 76  1  0
 39 77  1  0
 41 78  1  0
 41 79  1  0
M  END
>  <smiles>  (50) 
Cc1ccnc(N2CCCC(Nc3nc(N4CCN(c5ccccn5)CC4)nc(N4CCc5ccccc5C4)n3)C2)n1

>  <score_type>  (50) 
oracle

>  <origin>  (50) 
autodockgpu

>  <m_score__min__energy>  (50) 
-10.5

>  <m_primary>  (50) 
energy

>  <rmsd>  (50) 
8.389312582137634

>  <m_score__min__rmsd>  (50) 
8.389312582137634

>  <meeko>  (50) 
{"free_energy": -8.71, "intermolecular_energy": -10.5, "internal_energy": -1.99, "cluster_size": 10, "cluster_id": 9, "rank_in_cluster": 4}

>  <energy>  (50) 
-7.7

>  <cluster_rmsd>  (50) 
0.0

>  <cluster>  (50) 
12

$$$$

     RDKit          3D

 79 85  0  0  1  0  0  0  0  0999 V2000
  132.8380   72.6120  226.9840 C   0  0  0  0  0  0  0  0  0  0  0  0
  133.4790   73.5860  226.0610 C   0  0  0  0  0  0  0  0  0  0  0  0
  133.5630   74.9030  226.4650 C   0  0  0  0  0  0  0  0  0  0  0  0
  134.1680   75.8130  225.5910 C   0  0  0  0  0  0  0  0  0  0  0  0
  134.6380   75.3640  224.3980 N   0  0  0  0  0  0  0  0  0  0  0  0
  134.5500   74.0840  224.0130 C   0  0  0  0  0  0  0  0  0  0  0  0
  135.0790   73.7340  222.7400 N   0  0  0  0  0  0  0  0  0  0  0  0
  135.5630   74.8020  221.8860 C   0  0  0  0  0  0  0  0  0  0  0  0
  134.9020   74.7710  220.5160 C   0  0  0  0  0  0  0  0  0  0  0  0
  134.2730   73.4430  220.2190 C   0  0  0  0  0  0  0  0  0  0  0  0
  135.1140   72.3060  220.7480 C   0  0  1  0  0  0  0  0  0  0  0  0
  136.4710   72.3160  220.2710 N   0  0  0  0  0  0  0  0  0  0  0  0
  137.5700   72.7000  221.1130 C   0  0  0  0  0  0  0  0  0  0  0  0
  138.1270   73.9240  221.0440 N   0  0  0  0  0  0  0  0  0  0  0  0
  139.1630   74.2670  221.8490 C   0  0  0  0  0  0  0  0  0  0  0  0
  139.7610   75.5680  221.7800 N   0  0  0  0  0  0  0  0  0  0  0  0
  141.1110   75.6450  221.3040 C   0  0  0  0  0  0  0  0  0  0  0  0
  141.5240   77.0400  220.9010 C   0  0  0  0  0  0  0  0  0  0  0  0
  140.8200   78.0590  221.6190 N   0  0  0  0  0  0  0  0  0  0  0  0
  141.4060   79.0980  222.3660 C   0  0  0  0  0  0  0  0  0  0  0  0
  140.6670   80.0240  223.0750 C   0  0  0  0  0  0  0  0  0  0  0  0
  141.2590   81.0400  223.8060 C   0  0  0  0  0  0  0  0  0  0  0  0
  142.6300   81.1550  223.8450 C   0  0  0  0  0  0  0  0  0  0  0  0
  143.3470   80.2120  223.1240 C   0  0  0  0  0  0  0  0  0  0  0  0
  142.7470   79.2360  222.4240 N   0  0  0  0  0  0  0  0  0  0  0  0
  139.3490   77.9980  221.5600 C   0  0  0  0  0  0  0  0  0  0  0  0
  138.9650   76.7020  222.1930 C   0  0  0  0  0  0  0  0  0  0  0  0
  139.5850   73.3210  222.7020 N   0  0  0  0  0  0  0  0  0  0  0  0
  139.0550   72.0900  222.8010 C   0  0  0  0  0  0  0  0  0  0  0  0
  139.5810   71.1450  223.7510 N   0  0  0  0  0  0  0  0  0  0  0  0
  138.9490   69.8520  223.8050 C   0  0  0  0  0  0  0  0  0  0  0  0
  139.6260   68.8800  224.7140 C   0  0  0  0  0  0  0  0  0  0  0  0
  140.1250   69.5630  225.9310 C   0  0  0  0  0  0  0  0  0  0  0  0
  140.0930   68.9380  227.1700 C   0  0  0  0  0  0  0  0  0  0  0  0
  140.5640   69.5810  228.3140 C   0  0  0  0  0  0  0  0  0  0  0  0
  141.0770   70.8620  228.2400 C   0  0  0  0  0  0  0  0  0  0  0  0
  141.1100   71.4890  227.0020 C   0  0  0  0  0  0  0  0  0  0  0  0
  140.6350   70.8330  225.8620 C   0  0  0  0  0  0  0  0  0  0  0  0
  140.6930   71.5430  224.5800 C   0  0  0  0  0  0  0  0  0  0  0  0
  138.0310   71.7890  221.9860 N   0  0  0  0  0  0  0  0  0  0  0  0
  135.1530   72.3670  222.2580 C   0  0  0  0  0  0  0  0  0  0  0  0
  133.9740   73.2110  224.8460 N   0  0  0  0  0  0  0  0  0  0  0  0
  133.0338   72.9095  228.0247 H   0  0  0  0  0  0  0  0  0  0  0  0
  131.7528   72.5968  226.8050 H   0  0  0  0  0  0  0  0  0  0  0  0
  133.2533   71.6092  226.8050 H   0  0  0  0  0  0  0  0  0  0  0  0
  133.1683   75.2259  227.4396 H   0  0  0  0  0  0  0  0  0  0  0  0
  134.2615   76.8741  225.8653 H   0  0  0  0  0  0  0  0  0  0  0  0
  135.3451   75.7679  222.3651 H   0  0  0  0  0  0  0  0  0  0  0  0
  136.6457   74.6659  221.7473 H   0  0  0  0  0  0  0  0  0  0  0  0
  134.1233   75.5472  220.4810 H   0  0  0  0  0  0  0  0  0  0  0  0
  135.6818   74.9509  219.7614 H   0  0  0  0  0  0  0  0  0  0  0  0
  133.2800   73.4035  220.6906 H   0  0  0  0  0  0  0  0  0  0  0  0
  134.1905   73.3347  219.1274 H   0  0  0  0  0  0  0  0  0  0  0  0
  134.6389   71.3836  220.3828 H   0  0  0  0  0  0  0  0  0  0  0  0
  136.7220   72.0410  219.2780 H   0  0  0  0  0  0  0  0  0  0  0  0
  141.7831   75.2992  222.1031 H   0  0  0  0  0  0  0  0  0  0  0  0
  141.1758   75.0139  220.4054 H   0  0  0  0  0  0  0  0  0  0  0  0
  142.6010   77.1562  221.0923 H   0  0  0  0  0  0  0  0  0  0  0  0
  141.2822   77.1607  219.8347 H   0  0  0  0  0  0  0  0  0  0  0  0
  139.5695   79.9521  223.0585 H   0  0  0  0  0  0  0  0  0  0  0  0
  140.6323   81.7568  224.3568 H   0  0  0  0  0  0  0  0  0  0  0  0
  143.1295   81.9511  224.4166 H   0  0  0  0  0  0  0  0  0  0  0  0
  144.4457   80.2655  223.1257 H   0  0  0  0  0  0  0  0  0  0  0  0
  138.9090   78.8396  222.1151 H   0  0  0  0  0  0  0  0  0  0  0  0
  138.9843   78.0641  220.5243 H   0  0  0  0  0  0  0  0  0  0  0  0
  139.0635   76.8108  223.2832 H   0  0  0  0  0  0  0  0  0  0  0  0
  137.9346   76.4921  221.8700 H   0  0  0  0  0  0  0  0  0  0  0  0
  137.9144   69.9875  224.1530 H   0  0  0  0  0  0  0  0  0  0  0  0
  139.0042   69.4294  222.7909 H   0  0  0  0  0  0  0  0  0  0  0  0
  138.9088   68.0989  225.0064 H   0  0  0  0  0  0  0  0  0  0  0  0
  140.4798   68.4338  224.1829 H   0  0  0  0  0  0  0  0  0  0  0  0
  139.6892   67.9180  227.2507 H   0  0  0  0  0  0  0  0  0  0  0  0
  140.5269   69.0639  229.2842 H   0  0  0  0  0  0  0  0  0  0  0  0
  141.4501   71.3724  229.1402 H   0  0  0  0  0  0  0  0  0  0  0  0
  141.5127   72.5091  226.9171 H   0  0  0  0  0  0  0  0  0  0  0  0
  140.6447   72.6271  224.7602 H   0  0  0  0  0  0  0  0  0  0  0  0
  141.6348   71.2943  224.0689 H   0  0  0  0  0  0  0  0  0  0  0  0
  134.3004   71.8001  222.6602 H   0  0  0  0  0  0  0  0  0  0  0  0
  136.1067   71.9347  222.5951 H   0  0  0  0  0  0  0  0  0  0  0  0
  1  2  1  0
  2  3  2  0
  3  4  1  0
  4  5  2  0
  5  6  1  0
  6  7  1  0
  7  8  1  0
  8  9  1  0
  9 10  1  0
 10 11  1  0
 11 12  1  0
 12 13  1  0
 13 14  2  0
 14 15  1  0
 15 16  1  0
 16 17  1  0
 17 18  1  0
 18 19  1  0
 19 20  1  0
 20 21  2  0
 21 22  1  0
 22 23  2  0
 23 24  1  0
 24 25  2  0
 19 26  1  0
 26 27  1  0
 15 28  2  0
 28 29  1  0
 29 30  1  0
 30 31  1  0
 31 32  1  0
 32 33  1  0
 33 34  2  0
 34 35  1  0
 35 36  2  0
 36 37  1  0
 37 38  2  0
 38 39  1  0
 29 40  2  0
 11 41  1  0
  6 42  2  0
 42  2  1  0
 41  7  1  0
 40 13  1  0
 27 16  1  0
 39 30  1  0
 25 20  1  0
 38 33  1  0
  1 43  1  0
  1 44  1  0
  1 45  1  0
  3 46  1  0
  4 47  1  0
  8 48  1  0
  8 49  1  0
  9 50  1  0
  9 51  1  0
 10 52  1  0
 10 53  1  0
 11 54  1  1
 12 55  1  0
 17 56  1  0
 17 57  1  0
 18 58  1  0
 18 59  1  0
 21 60  1  0
 22 61  1  0
 23 62  1  0
 24 63  1  0
 26 64  1  0
 26 65  1  0
 27 66  1  0
 27 67  1  0
 31 68  1  0
 31 69  1  0
 32 70  1  0
 32 71  1  0
 34 72  1  0
 35 73  1  0
 36 74  1  0
 37 75  1  0
 39 76  1  0
 39 77  1  0
 41 78  1  0
 41 79  1  0
M  END
>  <smiles>  (51) 
Cc1ccnc(N2CCCC(Nc3nc(N4CCN(c5ccccn5)CC4)nc(N4CCc5ccccc5C4)n3)C2)n1

>  <score_type>  (51) 
oracle

>  <origin>  (51) 
autodockgpu

>  <m_score__min__energy>  (51) 
-10.06

>  <m_primary>  (51) 
energy

>  <rmsd>  (51) 
7.876313835815767

>  <m_score__min__rmsd>  (51) 
7.876313835815767

>  <meeko>  (51) 
{"free_energy": -9.76, "intermolecular_energy": -11.55, "internal_energy": -1.67, "cluster_size": 18, "cluster_id": 4, "rank_in_cluster": 2}

>  <energy>  (51) 
-10.06

>  <cluster_rmsd>  (51) 
0.0

>  <cluster>  (51) 
1

$$$$

     RDKit          3D

 79 85  0  0  1  0  0  0  0  0999 V2000
  140.3930   68.5210  228.5990 C   0  0  0  0  0  0  0  0  0  0  0  0
  140.3740   69.6500  227.6310 C   0  0  0  0  0  0  0  0  0  0  0  0
  141.0920   70.7850  227.9460 C   0  0  0  0  0  0  0  0  0  0  0  0
  141.0690   71.8430  227.0300 C   0  0  0  0  0  0  0  0  0  0  0  0
  140.3480   71.7050  225.8860 N   0  0  0  0  0  0  0  0  0  0  0  0
  139.6530   70.5990  225.5900 C   0  0  0  0  0  0  0  0  0  0  0  0
  138.9370   70.5730  224.3610 N   0  0  0  0  0  0  0  0  0  0  0  0
  137.6550   69.8970  224.3320 C   0  0  0  0  0  0  0  0  0  0  0  0
  137.6020   68.8380  223.2420 C   0  0  0  0  0  0  0  0  0  0  0  0
  138.6650   69.0360  222.2030 C   0  0  0  0  0  0  0  0  0  0  0  0
  138.8790   70.5010  221.9110 C   0  0  1  0  0  0  0  0  0  0  0  0
  137.6830   71.1970  221.5180 N   0  0  0  0  0  0  0  0  0  0  0  0
  137.3420   72.4860  222.0540 C   0  0  0  0  0  0  0  0  0  0  0  0
  138.1040   73.5740  221.8320 N   0  0  0  0  0  0  0  0  0  0  0  0
  137.7640   74.7820  222.3480 C   0  0  0  0  0  0  0  0  0  0  0  0
  138.5710   75.9440  222.1160 N   0  0  0  0  0  0  0  0  0  0  0  0
  139.7710   75.7670  221.3530 C   0  0  0  0  0  0  0  0  0  0  0  0
  140.3460   77.0630  220.8340 C   0  0  0  0  0  0  0  0  0  0  0  0
  140.0280   78.1850  221.6630 N   0  0  0  0  0  0  0  0  0  0  0  0
  140.9530   79.0780  222.2370 C   0  0  0  0  0  0  0  0  0  0  0  0
  141.5290   78.8710  223.4750 C   0  0  0  0  0  0  0  0  0  0  0  0
  142.4390   79.7580  224.0260 C   0  0  0  0  0  0  0  0  0  0  0  0
  142.7980   80.8950  223.3370 C   0  0  0  0  0  0  0  0  0  0  0  0
  142.2050   81.0770  222.0970 C   0  0  0  0  0  0  0  0  0  0  0  0
  141.3250   80.1990  221.5870 N   0  0  0  0  0  0  0  0  0  0  0  0
  138.5960   78.4110  221.9310 C   0  0  0  0  0  0  0  0  0  0  0  0
  138.1190   77.2020  222.6660 C   0  0  0  0  0  0  0  0  0  0  0  0
  136.6380   74.8160  223.0770 N   0  0  0  0  0  0  0  0  0  0  0  0
  135.8520   73.7530  223.3200 C   0  0  0  0  0  0  0  0  0  0  0  0
  134.6620   73.8930  224.1180 N   0  0  0  0  0  0  0  0  0  0  0  0
  134.5960   75.0320  224.9970 C   0  0  0  0  0  0  0  0  0  0  0  0
  133.2840   75.1880  225.6930 C   0  0  0  0  0  0  0  0  0  0  0  0
  132.7350   73.8660  226.0750 C   0  0  0  0  0  0  0  0  0  0  0  0
  132.0400   73.6940  227.2650 C   0  0  0  0  0  0  0  0  0  0  0  0
  131.5220   72.4500  227.6220 C   0  0  0  0  0  0  0  0  0  0  0  0
  131.6890   71.3540  226.7960 C   0  0  0  0  0  0  0  0  0  0  0  0
  132.3840   71.5250  225.6060 C   0  0  0  0  0  0  0  0  0  0  0  0
  132.8970   72.7780  225.2600 C   0  0  0  0  0  0  0  0  0  0  0  0
  133.6230   72.9000  223.9910 C   0  0  0  0  0  0  0  0  0  0  0  0
  136.2240   72.5750  222.7920 N   0  0  0  0  0  0  0  0  0  0  0  0
  139.4310   71.1870  223.1410 C   0  0  0  0  0  0  0  0  0  0  0  0
  139.6740   69.5860  226.4620 N   0  0  0  0  0  0  0  0  0  0  0  0
  140.3863   68.9176  229.6250 H   0  0  0  0  0  0  0  0  0  0  0  0
  139.5054   67.8901  228.4440 H   0  0  0  0  0  0  0  0  0  0  0  0
  141.3014   67.9203  228.4440 H   0  0  0  0  0  0  0  0  0  0  0  0
  141.6624   70.8560  228.8839 H   0  0  0  0  0  0  0  0  0  0  0  0
  141.6249   72.7704  227.2324 H   0  0  0  0  0  0  0  0  0  0  0  0
  137.4841   69.4150  225.3059 H   0  0  0  0  0  0  0  0  0  0  0  0
  136.8773   70.6457  224.1207 H   0  0  0  0  0  0  0  0  0  0  0  0
  137.7383   67.8487  223.7032 H   0  0  0  0  0  0  0  0  0  0  0  0
  136.6250   68.9178  222.7429 H   0  0  0  0  0  0  0  0  0  0  0  0
  139.6077   68.6016  222.5673 H   0  0  0  0  0  0  0  0  0  0  0  0
  138.3413   68.5405  221.2758 H   0  0  0  0  0  0  0  0  0  0  0  0
  139.5808   70.5396  221.0648 H   0  0  0  0  0  0  0  0  0  0  0  0
  137.0000   70.7920  220.8160 H   0  0  0  0  0  0  0  0  0  0  0  0
  140.5233   75.2829  221.9930 H   0  0  0  0  0  0  0  0  0  0  0  0
  139.5129   75.1520  220.4783 H   0  0  0  0  0  0  0  0  0  0  0  0
  141.4403   76.9650  220.7807 H   0  0  0  0  0  0  0  0  0  0  0  0
  139.9027   77.2478  219.8444 H   0  0  0  0  0  0  0  0  0  0  0  0
  141.2555   77.9699  224.0435 H   0  0  0  0  0  0  0  0  0  0  0  0
  142.8753   79.5540  225.0149 H   0  0  0  0  0  0  0  0  0  0  0  0
  143.5163   81.6196  223.7481 H   0  0  0  0  0  0  0  0  0  0  0  0
  142.4639   81.9709  221.5106 H   0  0  0  0  0  0  0  0  0  0  0  0
  138.4601   79.3116  222.5478 H   0  0  0  0  0  0  0  0  0  0  0  0
  138.0313   78.5652  220.9997 H   0  0  0  0  0  0  0  0  0  0  0  0
  138.4750   77.2697  223.7046 H   0  0  0  0  0  0  0  0  0  0  0  0
  137.0221   77.2010  222.5840 H   0  0  0  0  0  0  0  0  0  0  0  0
  135.3815   74.9261  225.7597 H   0  0  0  0  0  0  0  0  0  0  0  0
  134.7314   75.9256  224.3700 H   0  0  0  0  0  0  0  0  0  0  0  0
  133.4255   75.7959  226.5987 H   0  0  0  0  0  0  0  0  0  0  0  0
  132.5769   75.6812  225.0098 H   0  0  0  0  0  0  0  0  0  0  0  0
  131.8959   74.5532  227.9366 H   0  0  0  0  0  0  0  0  0  0  0  0
  130.9751   72.3393  228.5700 H   0  0  0  0  0  0  0  0  0  0  0  0
  131.2815   70.3710  227.0745 H   0  0  0  0  0  0  0  0  0  0  0  0
  132.5317   70.6687  224.9315 H   0  0  0  0  0  0  0  0  0  0  0  0
  134.0737   71.9303  223.7330 H   0  0  0  0  0  0  0  0  0  0  0  0
  132.9231   73.2047  223.1990 H   0  0  0  0  0  0  0  0  0  0  0  0
  140.5288   71.1186  223.1258 H   0  0  0  0  0  0  0  0  0  0  0  0
  139.1033   72.2369  223.1264 H   0  0  0  0  0  0  0  0  0  0  0  0
  1  2  1  0
  2  3  2  0
  3  4  1  0
  4  5  2  0
  5  6  1  0
  6  7  1  0
  7  8  1  0
  8  9  1  0
  9 10  1  0
 10 11  1  0
 11 12  1  0
 12 13  1  0
 13 14  2  0
 14 15  1  0
 15 16  1  0
 16 17  1  0
 17 18  1  0
 18 19  1  0
 19 20  1  0
 20 21  2  0
 21 22  1  0
 22 23  2  0
 23 24  1  0
 24 25  2  0
 19 26  1  0
 26 27  1  0
 15 28  2  0
 28 29  1  0
 29 30  1  0
 30 31  1  0
 31 32  1  0
 32 33  1  0
 33 34  2  0
 34 35  1  0
 35 36  2  0
 36 37  1  0
 37 38  2  0
 38 39  1  0
 29 40  2  0
 11 41  1  0
  6 42  2  0
 42  2  1  0
 41  7  1  0
 40 13  1  0
 27 16  1  0
 39 30  1  0
 25 20  1  0
 38 33  1  0
  1 43  1  0
  1 44  1  0
  1 45  1  0
  3 46  1  0
  4 47  1  0
  8 48  1  0
  8 49  1  0
  9 50  1  0
  9 51  1  0
 10 52  1  0
 10 53  1  0
 11 54  1  6
 12 55  1  0
 17 56  1  0
 17 57  1  0
 18 58  1  0
 18 59  1  0
 21 60  1  0
 22 61  1  0
 23 62  1  0
 24 63  1  0
 26 64  1  0
 26 65  1  0
 27 66  1  0
 27 67  1  0
 31 68  1  0
 31 69  1  0
 32 70  1  0
 32 71  1  0
 34 72  1  0
 35 73  1  0
 36 74  1  0
 37 75  1  0
 39 76  1  0
 39 77  1  0
 41 78  1  0
 41 79  1  0
M  END
>  <smiles>  (52) 
Cc1ccnc(N2CCCC(Nc3nc(N4CCN(c5ccccn5)CC4)nc(N4CCc5ccccc5C4)n3)C2)n1

>  <score_type>  (52) 
oracle

>  <origin>  (52) 
autodockgpu

>  <m_score__min__energy>  (52) 
-10.06

>  <m_primary>  (52) 
energy

>  <rmsd>  (52) 
7.736902565156507

>  <m_score__min__rmsd>  (52) 
7.736902565156507

>  <meeko>  (52) 
{"free_energy": -9.32, "intermolecular_energy": -11.11, "internal_energy": -1.77, "cluster_size": 18, "cluster_id": 4, "rank_in_cluster": 16}

>  <energy>  (52) 
-10.04

>  <cluster_rmsd>  (52) 
0.45

>  <cluster>  (52) 
1

$$$$

     RDKit          3D

 79 85  0  0  1  0  0  0  0  0999 V2000
  140.0950   68.5860  228.1640 C   0  0  0  0  0  0  0  0  0  0  0  0
  140.3240   69.8170  227.3600 C   0  0  0  0  0  0  0  0  0  0  0  0
  141.1300   70.8000  227.8960 C   0  0  0  0  0  0  0  0  0  0  0  0
  141.3410   71.9540  227.1340 C   0  0  0  0  0  0  0  0  0  0  0  0
  140.7460   72.0540  225.9160 N   0  0  0  0  0  0  0  0  0  0  0  0
  139.9640   71.0950  225.4040 C   0  0  0  0  0  0  0  0  0  0  0  0
  139.3970   71.3150  224.1180 N   0  0  0  0  0  0  0  0  0  0  0  0
  138.1730   70.6140  223.7830 C   0  0  0  0  0  0  0  0  0  0  0  0
  138.3140   69.8200  222.4920 C   0  0  0  0  0  0  0  0  0  0  0  0
  139.4750   70.2830  221.6640 C   0  0  0  0  0  0  0  0  0  0  0  0
  139.6270   71.7840  221.7230 C   0  0  1  0  0  0  0  0  0  0  0  0
  138.4420   72.5040  221.3400 N   0  0  0  0  0  0  0  0  0  0  0  0
  138.1390   73.8050  221.8700 C   0  0  0  0  0  0  0  0  0  0  0  0
  137.0230   74.0390  222.5870 N   0  0  0  0  0  0  0  0  0  0  0  0
  136.7560   75.2740  223.0800 C   0  0  0  0  0  0  0  0  0  0  0  0
  135.5700   75.5310  223.8440 N   0  0  0  0  0  0  0  0  0  0  0  0
  134.6370   76.4770  223.3080 C   0  0  0  0  0  0  0  0  0  0  0  0
  133.2740   76.4030  223.9520 C   0  0  0  0  0  0  0  0  0  0  0  0
  133.3220   75.9350  225.3040 N   0  0  0  0  0  0  0  0  0  0  0  0
  132.7980   76.6000  226.4280 C   0  0  0  0  0  0  0  0  0  0  0  0
  133.4670   77.6180  227.0790 C   0  0  0  0  0  0  0  0  0  0  0  0
  132.9370   78.2640  228.1840 C   0  0  0  0  0  0  0  0  0  0  0  0
  131.7040   77.8970  228.6730 C   0  0  0  0  0  0  0  0  0  0  0  0
  131.0550   76.8730  228.0010 C   0  0  0  0  0  0  0  0  0  0  0  0
  131.5920   76.2640  226.9300 N   0  0  0  0  0  0  0  0  0  0  0  0
  133.9850   74.6360  225.5190 C   0  0  0  0  0  0  0  0  0  0  0  0
  135.4030   74.8220  225.0930 C   0  0  0  0  0  0  0  0  0  0  0  0
  137.6620   76.2260  222.8090 N   0  0  0  0  0  0  0  0  0  0  0  0
  138.7860   76.0310  222.0980 C   0  0  0  0  0  0  0  0  0  0  0  0
  139.6970   77.1200  221.8610 N   0  0  0  0  0  0  0  0  0  0  0  0
  140.9850   76.7870  221.3090 C   0  0  0  0  0  0  0  0  0  0  0  0
  141.8250   77.9730  220.9670 C   0  0  0  0  0  0  0  0  0  0  0  0
  141.6560   79.0430  221.9770 C   0  0  0  0  0  0  0  0  0  0  0  0
  142.7240   79.8420  222.3630 C   0  0  0  0  0  0  0  0  0  0  0  0
  142.5630   80.8500  223.3130 C   0  0  0  0  0  0  0  0  0  0  0  0
  141.3290   81.0790  223.8940 C   0  0  0  0  0  0  0  0  0  0  0  0
  140.2610   80.2810  223.5100 C   0  0  0  0  0  0  0  0  0  0  0  0
  140.4360   79.2740  222.5560 C   0  0  0  0  0  0  0  0  0  0  0  0
  139.2720   78.4610  222.1870 C   0  0  0  0  0  0  0  0  0  0  0  0
  139.0140   74.7940  221.6270 N   0  0  0  0  0  0  0  0  0  0  0  0
  139.9880   72.2010  223.1310 C   0  0  0  0  0  0  0  0  0  0  0  0
  139.7610   69.9900  226.1290 N   0  0  0  0  0  0  0  0  0  0  0  0
  140.1411   68.8336  229.2348 H   0  0  0  0  0  0  0  0  0  0  0  0
  139.1043   68.1715  227.9258 H   0  0  0  0  0  0  0  0  0  0  0  0
  140.8703   67.8429  227.9258 H   0  0  0  0  0  0  0  0  0  0  0  0
  141.5906   70.6806  228.8878 H   0  0  0  0  0  0  0  0  0  0  0  0
  141.9776   72.7666  227.5140 H   0  0  0  0  0  0  0  0  0  0  0  0
  137.9229   69.9226  224.6012 H   0  0  0  0  0  0  0  0  0  0  0  0
  137.3780   71.3609  223.6410 H   0  0  0  0  0  0  0  0  0  0  0  0
  138.4593   68.7590  222.7432 H   0  0  0  0  0  0  0  0  0  0  0  0
  137.3980   69.9710  221.9020 H   0  0  0  0  0  0  0  0  0  0  0  0
  140.3951   69.8145  222.0434 H   0  0  0  0  0  0  0  0  0  0  0  0
  139.2933   69.9933  220.6185 H   0  0  0  0  0  0  0  0  0  0  0  0
  140.4180   72.0353  221.0011 H   0  0  0  0  0  0  0  0  0  0  0  0
  137.7410   72.1090  220.6510 H   0  0  0  0  0  0  0  0  0  0  0  0
  135.0402   77.4891  223.4597 H   0  0  0  0  0  0  0  0  0  0  0  0
  134.5068   76.2376  222.2423 H   0  0  0  0  0  0  0  0  0  0  0  0
  132.8269   77.4080  223.9440 H   0  0  0  0  0  0  0  0  0  0  0  0
  132.6744   75.6839  223.3746 H   0  0  0  0  0  0  0  0  0  0  0  0
  134.4551   77.9266  226.7071 H   0  0  0  0  0  0  0  0  0  0  0  0
  133.5027   79.0717  228.6714 H   0  0  0  0  0  0  0  0  0  0  0  0
  131.2578   78.3895  229.5495 H   0  0  0  0  0  0  0  0  0  0  0  0
  130.0662   76.5476  228.3566 H   0  0  0  0  0  0  0  0  0  0  0  0
  133.9389   74.3547  226.5814 H   0  0  0  0  0  0  0  0  0  0  0  0
  133.4947   73.8341  224.9475 H   0  0  0  0  0  0  0  0  0  0  0  0
  135.9261   75.3856  225.8796 H   0  0  0  0  0  0  0  0  0  0  0  0
  135.8152   73.8143  224.9361 H   0  0  0  0  0  0  0  0  0  0  0  0
  141.5299   76.1782  222.0455 H   0  0  0  0  0  0  0  0  0  0  0  0
  140.7981   76.2480  220.3685 H   0  0  0  0  0  0  0  0  0  0  0  0
  142.8819   77.6699  220.9355 H   0  0  0  0  0  0  0  0  0  0  0  0
  141.5093   78.3591  219.9866 H   0  0  0  0  0  0  0  0  0  0  0  0
  143.7136   79.6771  221.9119 H   0  0  0  0  0  0  0  0  0  0  0  0
  143.4252   81.4685  223.6029 H   0  0  0  0  0  0  0  0  0  0  0  0
  141.1975   81.8744  224.6423 H   0  0  0  0  0  0  0  0  0  0  0  0
  139.2698   80.4417  223.9592 H   0  0  0  0  0  0  0  0  0  0  0  0
  138.5681   78.4261  223.0316 H   0  0  0  0  0  0  0  0  0  0  0  0
  138.7782   78.9089  221.3120 H   0  0  0  0  0  0  0  0  0  0  0  0
  141.0823   72.1785  223.2407 H   0  0  0  0  0  0  0  0  0  0  0  0
  139.5974   73.2152  223.3007 H   0  0  0  0  0  0  0  0  0  0  0  0
  1  2  1  0
  2  3  2  0
  3  4  1  0
  4  5  2  0
  5  6  1  0
  6  7  1  0
  7  8  1  0
  8  9  1  0
  9 10  1  0
 10 11  1  0
 11 12  1  0
 12 13  1  0
 13 14  2  0
 14 15  1  0
 15 16  1  0
 16 17  1  0
 17 18  1  0
 18 19  1  0
 19 20  1  0
 20 21  2  0
 21 22  1  0
 22 23  2  0
 23 24  1  0
 24 25  2  0
 19 26  1  0
 26 27  1  0
 15 28  2  0
 28 29  1  0
 29 30  1  0
 30 31  1  0
 31 32  1  0
 32 33  1  0
 33 34  2  0
 34 35  1  0
 35 36  2  0
 36 37  1  0
 37 38  2  0
 38 39  1  0
 29 40  2  0
 11 41  1  0
  6 42  2  0
 42  2  1  0
 41  7  1  0
 40 13  1  0
 27 16  1  0
 39 30  1  0
 25 20  1  0
 38 33  1  0
  1 43  1  0
  1 44  1  0
  1 45  1  0
  3 46  1  0
  4 47  1  0
  8 48  1  0
  8 49  1  0
  9 50  1  0
  9 51  1  0
 10 52  1  0
 10 53  1  0
 11 54  1  6
 12 55  1  0
 17 56  1  0
 17 57  1  0
 18 58  1  0
 18 59  1  0
 21 60  1  0
 22 61  1  0
 23 62  1  0
 24 63  1  0
 26 64  1  0
 26 65  1  0
 27 66  1  0
 27 67  1  0
 31 68  1  0
 31 69  1  0
 32 70  1  0
 32 71  1  0
 34 72  1  0
 35 73  1  0
 36 74  1  0
 37 75  1  0
 39 76  1  0
 39 77  1  0
 41 78  1  0
 41 79  1  0
M  END
>  <smiles>  (53) 
Cc1ccnc(N2CCCC(Nc3nc(N4CCN(c5ccccn5)CC4)nc(N4CCc5ccccc5C4)n3)C2)n1

>  <score_type>  (53) 
oracle

>  <origin>  (53) 
autodockgpu

>  <m_score__min__energy>  (53) 
-10.06

>  <m_primary>  (53) 
energy

>  <rmsd>  (53) 
9.374426072423756

>  <m_score__min__rmsd>  (53) 
9.374426072423756

>  <meeko>  (53) 
{"free_energy": -9.68, "intermolecular_energy": -11.47, "internal_energy": -1.64, "cluster_size": 12, "cluster_id": 3, "rank_in_cluster": 2}

>  <energy>  (53) 
-10.02

>  <cluster_rmsd>  (53) 
0.14

>  <cluster>  (53) 
1

$$$$

     RDKit          3D

 79 85  0  0  1  0  0  0  0  0999 V2000
  145.9320   66.7480  219.3170 C   0  0  0  0  0  0  0  0  0  0  0  0
  145.3600   68.1210  219.2840 C   0  0  0  0  0  0  0  0  0  0  0  0
  146.2330   69.1870  219.3240 C   0  0  0  0  0  0  0  0  0  0  0  0
  145.6870   70.4750  219.2930 C   0  0  0  0  0  0  0  0  0  0  0  0
  144.3370   70.6140  219.2250 N   0  0  0  0  0  0  0  0  0  0  0  0
  143.4970   69.5720  219.1870 C   0  0  0  0  0  0  0  0  0  0  0  0
  142.1020   69.8440  219.1160 N   0  0  0  0  0  0  0  0  0  0  0  0
  141.1820   68.8080  219.5410 C   0  0  0  0  0  0  0  0  0  0  0  0
  140.1650   68.4800  218.4590 C   0  0  0  0  0  0  0  0  0  0  0  0
  140.0630   69.5630  217.4270 C   0  0  0  0  0  0  0  0  0  0  0  0
  140.1780   70.9310  218.0550 C   0  0  1  0  0  0  0  0  0  0  0  0
  139.2240   71.1720  219.1040 N   0  0  0  0  0  0  0  0  0  0  0  0
  139.5830   71.8590  220.3140 C   0  0  0  0  0  0  0  0  0  0  0  0
  139.8190   73.1850  220.3370 N   0  0  0  0  0  0  0  0  0  0  0  0
  140.1550   73.8150  221.4900 C   0  0  0  0  0  0  0  0  0  0  0  0
  140.4080   75.2260  221.5210 N   0  0  0  0  0  0  0  0  0  0  0  0
  141.5100   75.7120  220.7440 C   0  0  0  0  0  0  0  0  0  0  0  0
  141.4740   77.2040  220.5230 C   0  0  0  0  0  0  0  0  0  0  0  0
  140.8050   77.9070  221.5750 N   0  0  0  0  0  0  0  0  0  0  0  0
  141.3430   78.9640  222.3340 C   0  0  0  0  0  0  0  0  0  0  0  0
  140.5610   79.8460  223.0540 C   0  0  0  0  0  0  0  0  0  0  0  0
  141.1050   80.8810  223.7970 C   0  0  0  0  0  0  0  0  0  0  0  0
  142.4700   81.0600  223.8360 C   0  0  0  0  0  0  0  0  0  0  0  0
  143.2300   80.1600  223.1040 C   0  0  0  0  0  0  0  0  0  0  0  0
  142.6750   79.1650  222.3920 N   0  0  0  0  0  0  0  0  0  0  0  0
  139.4310   77.4710  221.8790 C   0  0  0  0  0  0  0  0  0  0  0  0
  139.5400   76.0520  222.3300 C   0  0  0  0  0  0  0  0  0  0  0  0
  140.2330   73.0420  222.5830 N   0  0  0  0  0  0  0  0  0  0  0  0
  140.0050   71.7170  222.6000 C   0  0  0  0  0  0  0  0  0  0  0  0
  140.1150   70.9740  223.8290 N   0  0  0  0  0  0  0  0  0  0  0  0
  139.3260   69.7750  223.9400 C   0  0  0  0  0  0  0  0  0  0  0  0
  139.5880   68.9870  225.1810 C   0  0  0  0  0  0  0  0  0  0  0  0
  139.8170   69.8880  226.3340 C   0  0  0  0  0  0  0  0  0  0  0  0
  139.3590   69.5610  227.6040 C   0  0  0  0  0  0  0  0  0  0  0  0
  139.5760   70.4100  228.6890 C   0  0  0  0  0  0  0  0  0  0  0  0
  140.2560   71.6020  228.5250 C   0  0  0  0  0  0  0  0  0  0  0  0
  140.7140   71.9310  227.2560 C   0  0  0  0  0  0  0  0  0  0  0  0
  140.4900   71.0710  226.1770 C   0  0  0  0  0  0  0  0  0  0  0  0
  140.9970   71.4690  224.8590 C   0  0  0  0  0  0  0  0  0  0  0  0
  139.6750   71.1310  221.4380 N   0  0  0  0  0  0  0  0  0  0  0  0
  141.5630   71.1050  218.6380 C   0  0  0  0  0  0  0  0  0  0  0  0
  144.0150   68.3400  219.2160 N   0  0  0  0  0  0  0  0  0  0  0  0
  146.0641   66.4309  220.3620 H   0  0  0  0  0  0  0  0  0  0  0  0
  145.2483   66.0536  218.8067 H   0  0  0  0  0  0  0  0  0  0  0  0
  146.9065   66.7444  218.8067 H   0  0  0  0  0  0  0  0  0  0  0  0
  147.3205   69.0307  219.3784 H   0  0  0  0  0  0  0  0  0  0  0  0
  146.3396   71.3600  219.3232 H   0  0  0  0  0  0  0  0  0  0  0  0
  141.7541   67.8993  219.7797 H   0  0  0  0  0  0  0  0  0  0  0  0
  140.6373   69.1743  220.4237 H   0  0  0  0  0  0  0  0  0  0  0  0
  140.4655   67.5455  217.9626 H   0  0  0  0  0  0  0  0  0  0  0  0
  139.1812   68.3805  218.9408 H   0  0  0  0  0  0  0  0  0  0  0  0
  140.8726   69.4363  216.6932 H   0  0  0  0  0  0  0  0  0  0  0  0
  139.0802   69.4863  216.9389 H   0  0  0  0  0  0  0  0  0  0  0  0
  139.9747   71.6508  217.2484 H   0  0  0  0  0  0  0  0  0  0  0  0
  138.2160   70.8530  219.0330 H   0  0  0  0  0  0  0  0  0  0  0  0
  142.4441   75.4592  221.2671 H   0  0  0  0  0  0  0  0  0  0  0  0
  141.4459   75.2351  219.7549 H   0  0  0  0  0  0  0  0  0  0  0  0
  142.5078   77.5739  220.4558 H   0  0  0  0  0  0  0  0  0  0  0  0
  140.9126   77.3867  219.5949 H   0  0  0  0  0  0  0  0  0  0  0  0
  139.4681   79.7223  223.0368 H   0  0  0  0  0  0  0  0  0  0  0  0
  140.4457   81.5608  224.3566 H   0  0  0  0  0  0  0  0  0  0  0  0
  142.9322   81.8724  224.4160 H   0  0  0  0  0  0  0  0  0  0  0  0
  144.3250   80.2644  223.1065 H   0  0  0  0  0  0  0  0  0  0  0  0
  139.0001   78.0937  222.6769 H   0  0  0  0  0  0  0  0  0  0  0  0
  138.7747   77.5656  221.0013 H   0  0  0  0  0  0  0  0  0  0  0  0
  139.9260   76.0485  223.3600 H   0  0  0  0  0  0  0  0  0  0  0  0
  138.5318   75.6204  222.2442 H   0  0  0  0  0  0  0  0  0  0  0  0
  138.2632   70.0583  223.9283 H   0  0  0  0  0  0  0  0  0  0  0  0
  139.6031   69.1325  223.0912 H   0  0  0  0  0  0  0  0  0  0  0  0
  138.7199   68.3449  225.3912 H   0  0  0  0  0  0  0  0  0  0  0  0
  140.4879   68.3734  225.0272 H   0  0  0  0  0  0  0  0  0  0  0  0
  138.8160   68.6166  227.7565 H   0  0  0  0  0  0  0  0  0  0  0  0
  139.2025   70.1283  229.6845 H   0  0  0  0  0  0  0  0  0  0  0  0
  140.4301   72.2735  229.3786 H   0  0  0  0  0  0  0  0  0  0  0  0
  141.2568   72.8748  227.0988 H   0  0  0  0  0  0  0  0  0  0  0  0
  141.0460   72.5664  224.8021 H   0  0  0  0  0  0  0  0  0  0  0  0
  142.0019   71.0464  224.7123 H   0  0  0  0  0  0  0  0  0  0  0  0
  142.2298   71.5071  217.8611 H   0  0  0  0  0  0  0  0  0  0  0  0
  141.4939   71.7961  219.4910 H   0  0  0  0  0  0  0  0  0  0  0  0
  1  2  1  0
  2  3  2  0
  3  4  1  0
  4  5  2  0
  5  6  1  0
  6  7  1  0
  7  8  1  0
  8  9  1  0
  9 10  1  0
 10 11  1  0
 11 12  1  0
 12 13  1  0
 13 14  2  0
 14 15  1  0
 15 16  1  0
 16 17  1  0
 17 18  1  0
 18 19  1  0
 19 20  1  0
 20 21  2  0
 21 22  1  0
 22 23  2  0
 23 24  1  0
 24 25  2  0
 19 26  1  0
 26 27  1  0
 15 28  2  0
 28 29  1  0
 29 30  1  0
 30 31  1  0
 31 32  1  0
 32 33  1  0
 33 34  2  0
 34 35  1  0
 35 36  2  0
 36 37  1  0
 37 38  2  0
 38 39  1  0
 29 40  2  0
 11 41  1  0
  6 42  2  0
 42  2  1  0
 41  7  1  0
 40 13  1  0
 27 16  1  0
 39 30  1  0
 25 20  1  0
 38 33  1  0
  1 43  1  0
  1 44  1  0
  1 45  1  0
  3 46  1  0
  4 47  1  0
  8 48  1  0
  8 49  1  0
  9 50  1  0
  9 51  1  0
 10 52  1  0
 10 53  1  0
 11 54  1  6
 12 55  1  0
 17 56  1  0
 17 57  1  0
 18 58  1  0
 18 59  1  0
 21 60  1  0
 22 61  1  0
 23 62  1  0
 24 63  1  0
 26 64  1  0
 26 65  1  0
 27 66  1  0
 27 67  1  0
 31 68  1  0
 31 69  1  0
 32 70  1  0
 32 71  1  0
 34 72  1  0
 35 73  1  0
 36 74  1  0
 37 75  1  0
 39 76  1  0
 39 77  1  0
 41 78  1  0
 41 79  1  0
M  END
>  <smiles>  (54) 
Cc1ccnc(N2CCCC(Nc3nc(N4CCN(c5ccccn5)CC4)nc(N4CCc5ccccc5C4)n3)C2)n1

>  <score_type>  (54) 
oracle

>  <origin>  (54) 
autodockgpu

>  <m_score__min__energy>  (54) 
-10.06

>  <m_primary>  (54) 
energy

>  <rmsd>  (54) 
7.6923441123324

>  <m_score__min__rmsd>  (54) 
7.6923441123324

>  <meeko>  (54) 
{"free_energy": -10.01, "intermolecular_energy": -11.8, "internal_energy": -1.73, "cluster_size": 16, "cluster_id": 1, "rank_in_cluster": 4}

>  <energy>  (54) 
-10.01

>  <cluster_rmsd>  (54) 
0.46

>  <cluster>  (54) 
1

$$$$

     RDKit          3D

 79 85  0  0  1  0  0  0  0  0999 V2000
  145.9470   66.9010  219.3210 C   0  0  0  0  0  0  0  0  0  0  0  0
  145.3760   68.2740  219.2700 C   0  0  0  0  0  0  0  0  0  0  0  0
  146.2490   69.3400  219.3170 C   0  0  0  0  0  0  0  0  0  0  0  0
  145.7050   70.6280  219.2680 C   0  0  0  0  0  0  0  0  0  0  0  0
  144.3560   70.7680  219.1790 N   0  0  0  0  0  0  0  0  0  0  0  0
  143.5150   69.7250  219.1350 C   0  0  0  0  0  0  0  0  0  0  0  0
  142.1220   69.9980  219.0410 N   0  0  0  0  0  0  0  0  0  0  0  0
  141.1950   68.9720  219.4760 C   0  0  0  0  0  0  0  0  0  0  0  0
  140.1910   68.6230  218.3880 C   0  0  0  0  0  0  0  0  0  0  0  0
  140.1040   69.6840  217.3320 C   0  0  0  0  0  0  0  0  0  0  0  0
  140.2140   71.0650  217.9320 C   0  0  1  0  0  0  0  0  0  0  0  0
  139.2470   71.3290  218.9640 N   0  0  0  0  0  0  0  0  0  0  0  0
  139.6040   71.9880  220.1900 C   0  0  0  0  0  0  0  0  0  0  0  0
  139.8400   73.3130  220.2450 N   0  0  0  0  0  0  0  0  0  0  0  0
  140.1750   73.9150  221.4130 C   0  0  0  0  0  0  0  0  0  0  0  0
  140.4280   75.3250  221.4770 N   0  0  0  0  0  0  0  0  0  0  0  0
  141.5080   75.8340  220.6850 C   0  0  0  0  0  0  0  0  0  0  0  0
  141.4640   77.3330  220.5080 C   0  0  0  0  0  0  0  0  0  0  0  0
  140.8240   78.0040  221.5980 N   0  0  0  0  0  0  0  0  0  0  0  0
  141.3810   79.0400  222.3720 C   0  0  0  0  0  0  0  0  0  0  0  0
  140.6150   79.9470  223.0770 C   0  0  0  0  0  0  0  0  0  0  0  0
  141.1790   80.9600  223.8360 C   0  0  0  0  0  0  0  0  0  0  0  0
  142.5470   81.0910  223.9050 C   0  0  0  0  0  0  0  0  0  0  0  0
  143.2920   80.1670  223.1870 C   0  0  0  0  0  0  0  0  0  0  0  0
  142.7180   79.1940  222.4600 N   0  0  0  0  0  0  0  0  0  0  0  0
  139.4590   77.5570  221.9270 C   0  0  0  0  0  0  0  0  0  0  0  0
  139.5820   76.1260  222.3330 C   0  0  0  0  0  0  0  0  0  0  0  0
  140.2530   73.1160  222.4870 N   0  0  0  0  0  0  0  0  0  0  0  0
  140.0250   71.7910  222.4730 C   0  0  0  0  0  0  0  0  0  0  0  0
  140.1360   71.0190  223.6830 N   0  0  0  0  0  0  0  0  0  0  0  0
  139.3130   69.8420  223.7850 C   0  0  0  0  0  0  0  0  0  0  0  0
  139.5740   69.0200  225.0040 C   0  0  0  0  0  0  0  0  0  0  0  0
  139.8500   69.8890  226.1710 C   0  0  0  0  0  0  0  0  0  0  0  0
  139.4060   69.5490  227.4420 C   0  0  0  0  0  0  0  0  0  0  0  0
  139.6680   70.3670  228.5400 C   0  0  0  0  0  0  0  0  0  0  0  0
  140.3810   71.5420  228.3880 C   0  0  0  0  0  0  0  0  0  0  0  0
  140.8250   71.8840  227.1180 C   0  0  0  0  0  0  0  0  0  0  0  0
  140.5560   71.0540  226.0260 C   0  0  0  0  0  0  0  0  0  0  0  0
  141.0500   71.4650  224.7070 C   0  0  0  0  0  0  0  0  0  0  0  0
  139.6960   71.2320  221.2960 N   0  0  0  0  0  0  0  0  0  0  0  0
  141.5910   71.2490  218.5300 C   0  0  0  0  0  0  0  0  0  0  0  0
  144.0320   68.4930  219.1800 N   0  0  0  0  0  0  0  0  0  0  0  0
  146.0741   66.5955  220.3700 H   0  0  0  0  0  0  0  0  0  0  0  0
  145.2653   66.2013  218.8153 H   0  0  0  0  0  0  0  0  0  0  0  0
  146.9238   66.8911  218.8153 H   0  0  0  0  0  0  0  0  0  0  0  0
  147.3353   69.1833  219.3905 H   0  0  0  0  0  0  0  0  0  0  0  0
  146.3581   71.5125  219.3010 H   0  0  0  0  0  0  0  0  0  0  0  0
  141.7626   68.0677  219.7406 H   0  0  0  0  0  0  0  0  0  0  0  0
  140.6399   69.3571  220.3441 H   0  0  0  0  0  0  0  0  0  0  0  0
  140.4960   67.6777  217.9153 H   0  0  0  0  0  0  0  0  0  0  0  0
  139.2010   68.5356  218.8594 H   0  0  0  0  0  0  0  0  0  0  0  0
  140.9224   69.5402  216.6112 H   0  0  0  0  0  0  0  0  0  0  0  0
  139.1271   69.5987  216.8335 H   0  0  0  0  0  0  0  0  0  0  0  0
  140.0233   71.7677  217.1075 H   0  0  0  0  0  0  0  0  0  0  0  0
  138.2290   71.0500  218.8680 H   0  0  0  0  0  0  0  0  0  0  0  0
  142.4561   75.5680  221.1753 H   0  0  0  0  0  0  0  0  0  0  0  0
  141.4184   75.3850  219.6848 H   0  0  0  0  0  0  0  0  0  0  0  0
  142.4950   77.7067  220.4225 H   0  0  0  0  0  0  0  0  0  0  0  0
  140.8766   77.5412  219.6016 H   0  0  0  0  0  0  0  0  0  0  0  0
  139.5191   79.8626  223.0347 H   0  0  0  0  0  0  0  0  0  0  0  0
  140.5320   81.6606  224.3843 H   0  0  0  0  0  0  0  0  0  0  0  0
  143.0241   81.8855  224.4975 H   0  0  0  0  0  0  0  0  0  0  0  0
  144.3897   80.2332  223.2138 H   0  0  0  0  0  0  0  0  0  0  0  0
  139.0498   78.1553  222.7544 H   0  0  0  0  0  0  0  0  0  0  0  0
  138.7785   77.6761  221.0710 H   0  0  0  0  0  0  0  0  0  0  0  0
  139.9963   76.0933  223.3515 H   0  0  0  0  0  0  0  0  0  0  0  0
  138.5723   75.6954  222.2621 H   0  0  0  0  0  0  0  0  0  0  0  0
  138.2593   70.1574  223.8000 H   0  0  0  0  0  0  0  0  0  0  0  0
  139.5546   69.2096  222.9180 H   0  0  0  0  0  0  0  0  0  0  0  0
  138.6914   68.3990  225.2167 H   0  0  0  0  0  0  0  0  0  0  0  0
  140.4525   68.3838  224.8206 H   0  0  0  0  0  0  0  0  0  0  0  0
  138.8377   68.6181  227.5849 H   0  0  0  0  0  0  0  0  0  0  0  0
  139.3043   70.0751  229.5362 H   0  0  0  0  0  0  0  0  0  0  0  0
  140.5911   72.1896  229.2520 H   0  0  0  0  0  0  0  0  0  0  0  0
  141.3924   72.8146  226.9700 H   0  0  0  0  0  0  0  0  0  0  0  0
  141.1306   72.5615  224.6724 H   0  0  0  0  0  0  0  0  0  0  0  0
  142.0387   71.0155  224.5328 H   0  0  0  0  0  0  0  0  0  0  0  0
  142.2688   71.6343  217.7541 H   0  0  0  0  0  0  0  0  0  0  0  0
  141.5110   71.9572  219.3679 H   0  0  0  0  0  0  0  0  0  0  0  0
  1  2  1  0
  2  3  2  0
  3  4  1  0
  4  5  2  0
  5  6  1  0
  6  7  1  0
  7  8  1  0
  8  9  1  0
  9 10  1  0
 10 11  1  0
 11 12  1  0
 12 13  1  0
 13 14  2  0
 14 15  1  0
 15 16  1  0
 16 17  1  0
 17 18  1  0
 18 19  1  0
 19 20  1  0
 20 21  2  0
 21 22  1  0
 22 23  2  0
 23 24  1  0
 24 25  2  0
 19 26  1  0
 26 27  1  0
 15 28  2  0
 28 29  1  0
 29 30  1  0
 30 31  1  0
 31 32  1  0
 32 33  1  0
 33 34  2  0
 34 35  1  0
 35 36  2  0
 36 37  1  0
 37 38  2  0
 38 39  1  0
 29 40  2  0
 11 41  1  0
  6 42  2  0
 42  2  1  0
 41  7  1  0
 40 13  1  0
 27 16  1  0
 39 30  1  0
 25 20  1  0
 38 33  1  0
  1 43  1  0
  1 44  1  0
  1 45  1  0
  3 46  1  0
  4 47  1  0
  8 48  1  0
  8 49  1  0
  9 50  1  0
  9 51  1  0
 10 52  1  0
 10 53  1  0
 11 54  1  6
 12 55  1  0
 17 56  1  0
 17 57  1  0
 18 58  1  0
 18 59  1  0
 21 60  1  0
 22 61  1  0
 23 62  1  0
 24 63  1  0
 26 64  1  0
 26 65  1  0
 27 66  1  0
 27 67  1  0
 31 68  1  0
 31 69  1  0
 32 70  1  0
 32 71  1  0
 34 72  1  0
 35 73  1  0
 36 74  1  0
 37 75  1  0
 39 76  1  0
 39 77  1  0
 41 78  1  0
 41 79  1  0
M  END
>  <smiles>  (55) 
Cc1ccnc(N2CCCC(Nc3nc(N4CCN(c5ccccn5)CC4)nc(N4CCc5ccccc5C4)n3)C2)n1

>  <score_type>  (55) 
oracle

>  <origin>  (55) 
autodockgpu

>  <m_score__min__energy>  (55) 
-10.06

>  <m_primary>  (55) 
energy

>  <rmsd>  (55) 
7.73859245003895

>  <m_score__min__rmsd>  (55) 
7.73859245003895

>  <meeko>  (55) 
{"free_energy": -9.99, "intermolecular_energy": -11.78, "internal_energy": -1.75, "cluster_size": 16, "cluster_id": 1, "rank_in_cluster": 6}

>  <energy>  (55) 
-10.01

>  <cluster_rmsd>  (55) 
0.17

>  <cluster>  (55) 
1

$$$$

     RDKit          3D

 79 85  0  0  1  0  0  0  0  0999 V2000
  140.4200   68.5910  228.4190 C   0  0  0  0  0  0  0  0  0  0  0  0
  140.4880   69.7650  227.5060 C   0  0  0  0  0  0  0  0  0  0  0  0
  141.1010   70.9100  227.9700 C   0  0  0  0  0  0  0  0  0  0  0  0
  141.1620   72.0090  227.1070 C   0  0  0  0  0  0  0  0  0  0  0  0
  140.6190   71.8990  225.8650 N   0  0  0  0  0  0  0  0  0  0  0  0
  140.0250   70.7830  225.4250 C   0  0  0  0  0  0  0  0  0  0  0  0
  139.4940   70.7890  224.1050 N   0  0  0  0  0  0  0  0  0  0  0  0
  138.2420   70.0960  223.8700 C   0  0  0  0  0  0  0  0  0  0  0  0
  138.3660   69.0740  222.7500 C   0  0  0  0  0  0  0  0  0  0  0  0
  139.5640   69.3230  221.8830 C   0  0  0  0  0  0  0  0  0  0  0  0
  139.7910   70.7990  221.6710 C   0  0  1  0  0  0  0  0  0  0  0  0
  138.6510   71.4920  221.1310 N   0  0  0  0  0  0  0  0  0  0  0  0
  138.1930   72.7410  221.6750 C   0  0  0  0  0  0  0  0  0  0  0  0
  138.9160   73.8720  221.5690 N   0  0  0  0  0  0  0  0  0  0  0  0
  138.4650   75.0410  222.0890 C   0  0  0  0  0  0  0  0  0  0  0  0
  139.2300   76.2480  221.9800 N   0  0  0  0  0  0  0  0  0  0  0  0
  140.6080   76.1200  221.6080 C   0  0  0  0  0  0  0  0  0  0  0  0
  141.2260   77.4180  221.1470 C   0  0  0  0  0  0  0  0  0  0  0  0
  140.6120   78.5680  221.7380 N   0  0  0  0  0  0  0  0  0  0  0  0
  141.2750   79.5800  222.4580 C   0  0  0  0  0  0  0  0  0  0  0  0
  142.1960   79.3150  223.4520 C   0  0  0  0  0  0  0  0  0  0  0  0
  142.8400   80.3230  224.1510 C   0  0  0  0  0  0  0  0  0  0  0  0
  142.5710   81.6420  223.8660 C   0  0  0  0  0  0  0  0  0  0  0  0
  141.6430   81.8790  222.8640 C   0  0  0  0  0  0  0  0  0  0  0  0
  141.0330   80.8810  222.2020 N   0  0  0  0  0  0  0  0  0  0  0  0
  139.1530   78.6870  221.5680 C   0  0  0  0  0  0  0  0  0  0  0  0
  138.5610   77.5010  222.2540 C   0  0  0  0  0  0  0  0  0  0  0  0
  137.2720   74.9920  222.7010 N   0  0  0  0  0  0  0  0  0  0  0  0
  136.5210   73.8840  222.8260 C   0  0  0  0  0  0  0  0  0  0  0  0
  135.2520   73.9360  223.5040 N   0  0  0  0  0  0  0  0  0  0  0  0
  134.6730   75.2390  223.7070 C   0  0  0  0  0  0  0  0  0  0  0  0
  133.3000   75.2100  224.2940 C   0  0  0  0  0  0  0  0  0  0  0  0
  133.1870   74.1330  225.3040 C   0  0  0  0  0  0  0  0  0  0  0  0
  132.4270   74.3030  226.4550 C   0  0  0  0  0  0  0  0  0  0  0  0
  132.3200   73.2880  227.4040 C   0  0  0  0  0  0  0  0  0  0  0  0
  132.9700   72.0820  227.2200 C   0  0  0  0  0  0  0  0  0  0  0  0
  133.7300   71.9090  226.0720 C   0  0  0  0  0  0  0  0  0  0  0  0
  133.8290   72.9360  225.1270 C   0  0  0  0  0  0  0  0  0  0  0  0
  134.6450   72.6990  223.9320 C   0  0  0  0  0  0  0  0  0  0  0  0
  137.0040   72.7470  222.2990 N   0  0  0  0  0  0  0  0  0  0  0  0
  140.1460   71.4510  222.9890 C   0  0  0  0  0  0  0  0  0  0  0  0
  139.9660   69.7300  226.2470 N   0  0  0  0  0  0  0  0  0  0  0  0
  140.4400   68.9368  229.4630 H   0  0  0  0  0  0  0  0  0  0  0  0
  139.4882   68.0363  228.2343 H   0  0  0  0  0  0  0  0  0  0  0  0
  141.2815   67.9325  228.2343 H   0  0  0  0  0  0  0  0  0  0  0  0
  141.5269   70.9573  228.9831 H   0  0  0  0  0  0  0  0  0  0  0  0
  141.6409   72.9461  227.4273 H   0  0  0  0  0  0  0  0  0  0  0  0
  137.9423   69.5785  224.7932 H   0  0  0  0  0  0  0  0  0  0  0  0
  137.4886   70.8404  223.5729 H   0  0  0  0  0  0  0  0  0  0  0  0
  138.4528   68.0713  223.1940 H   0  0  0  0  0  0  0  0  0  0  0  0
  137.4697   69.1569  222.1177 H   0  0  0  0  0  0  0  0  0  0  0  0
  140.4521   68.8898  222.3663 H   0  0  0  0  0  0  0  0  0  0  0  0
  139.3864   68.8552  220.9034 H   0  0  0  0  0  0  0  0  0  0  0  0
  140.6069   70.8751  220.9372 H   0  0  0  0  0  0  0  0  0  0  0  0
  138.0990   71.1130  220.3100 H   0  0  0  0  0  0  0  0  0  0  0  0
  141.1721   75.7548  222.4789 H   0  0  0  0  0  0  0  0  0  0  0  0
  140.6528   75.4194  220.7611 H   0  0  0  0  0  0  0  0  0  0  0  0
  142.2930   77.4133  221.4146 H   0  0  0  0  0  0  0  0  0  0  0  0
  141.0771   77.4866  220.0593 H   0  0  0  0  0  0  0  0  0  0  0  0
  142.4263   78.2677  223.6973 H   0  0  0  0  0  0  0  0  0  0  0  0
  143.5679   80.0684  224.9355 H   0  0  0  0  0  0  0  0  0  0  0  0
  143.0657   82.4639  224.4042 H   0  0  0  0  0  0  0  0  0  0  0  0
  141.3976   82.9187  222.6019 H   0  0  0  0  0  0  0  0  0  0  0  0
  138.7890   79.6167  222.0296 H   0  0  0  0  0  0  0  0  0  0  0  0
  138.8725   78.7192  220.5049 H   0  0  0  0  0  0  0  0  0  0  0  0
  138.5977   77.6790  223.3389 H   0  0  0  0  0  0  0  0  0  0  0  0
  137.5366   77.3974  221.8669 H   0  0  0  0  0  0  0  0  0  0  0  0
  135.3272   75.8061  224.3856 H   0  0  0  0  0  0  0  0  0  0  0  0
  134.5846   75.7056  222.7148 H   0  0  0  0  0  0  0  0  0  0  0  0
  133.0912   76.1780  224.7730 H   0  0  0  0  0  0  0  0  0  0  0  0
  132.5746   75.0189  223.4895 H   0  0  0  0  0  0  0  0  0  0  0  0
  131.9009   75.2549  226.6198 H   0  0  0  0  0  0  0  0  0  0  0  0
  131.7130   73.4480  228.3073 H   0  0  0  0  0  0  0  0  0  0  0  0
  132.8867   71.2782  227.9663 H   0  0  0  0  0  0  0  0  0  0  0  0
  134.2578   70.9587  225.9039 H   0  0  0  0  0  0  0  0  0  0  0  0
  135.4323   71.9673  224.1661 H   0  0  0  0  0  0  0  0  0  0  0  0
  134.0059   72.3091  223.1261 H   0  0  0  0  0  0  0  0  0  0  0  0
  141.2356   71.3999  223.1306 H   0  0  0  0  0  0  0  0  0  0  0  0
  139.8025   72.4956  222.9599 H   0  0  0  0  0  0  0  0  0  0  0  0
  1  2  1  0
  2  3  2  0
  3  4  1  0
  4  5  2  0
  5  6  1  0
  6  7  1  0
  7  8  1  0
  8  9  1  0
  9 10  1  0
 10 11  1  0
 11 12  1  0
 12 13  1  0
 13 14  2  0
 14 15  1  0
 15 16  1  0
 16 17  1  0
 17 18  1  0
 18 19  1  0
 19 20  1  0
 20 21  2  0
 21 22  1  0
 22 23  2  0
 23 24  1  0
 24 25  2  0
 19 26  1  0
 26 27  1  0
 15 28  2  0
 28 29  1  0
 29 30  1  0
 30 31  1  0
 31 32  1  0
 32 33  1  0
 33 34  2  0
 34 35  1  0
 35 36  2  0
 36 37  1  0
 37 38  2  0
 38 39  1  0
 29 40  2  0
 11 41  1  0
  6 42  2  0
 42  2  1  0
 41  7  1  0
 40 13  1  0
 27 16  1  0
 39 30  1  0
 25 20  1  0
 38 33  1  0
  1 43  1  0
  1 44  1  0
  1 45  1  0
  3 46  1  0
  4 47  1  0
  8 48  1  0
  8 49  1  0
  9 50  1  0
  9 51  1  0
 10 52  1  0
 10 53  1  0
 11 54  1  6
 12 55  1  0
 17 56  1  0
 17 57  1  0
 18 58  1  0
 18 59  1  0
 21 60  1  0
 22 61  1  0
 23 62  1  0
 24 63  1  0
 26 64  1  0
 26 65  1  0
 27 66  1  0
 27 67  1  0
 31 68  1  0
 31 69  1  0
 32 70  1  0
 32 71  1  0
 34 72  1  0
 35 73  1  0
 36 74  1  0
 37 75  1  0
 39 76  1  0
 39 77  1  0
 41 78  1  0
 41 79  1  0
M  END
>  <smiles>  (56) 
Cc1ccnc(N2CCCC(Nc3nc(N4CCN(c5ccccn5)CC4)nc(N4CCc5ccccc5C4)n3)C2)n1

>  <score_type>  (56) 
oracle

>  <origin>  (56) 
autodockgpu

>  <m_score__min__energy>  (56) 
-10.06

>  <m_primary>  (56) 
energy

>  <rmsd>  (56) 
8.12260397300235

>  <m_score__min__rmsd>  (56) 
8.12260397300235

>  <meeko>  (56) 
{"free_energy": -9.55, "intermolecular_energy": -11.34, "internal_energy": -1.82, "cluster_size": 12, "cluster_id": 3, "rank_in_cluster": 5}

>  <energy>  (56) 
-9.99

>  <cluster_rmsd>  (56) 
0.46

>  <cluster>  (56) 
1

$$$$

     RDKit          3D

 79 85  0  0  1  0  0  0  0  0999 V2000
  145.9440   66.8640  219.3280 C   0  0  0  0  0  0  0  0  0  0  0  0
  145.3240   68.2160  219.2950 C   0  0  0  0  0  0  0  0  0  0  0  0
  146.1610   69.3130  219.3300 C   0  0  0  0  0  0  0  0  0  0  0  0
  145.5710   70.5810  219.2990 C   0  0  0  0  0  0  0  0  0  0  0  0
  144.2160   70.6730  219.2360 N   0  0  0  0  0  0  0  0  0  0  0  0
  143.4120   69.6020  219.2030 C   0  0  0  0  0  0  0  0  0  0  0  0
  142.0090   69.8270  219.1380 N   0  0  0  0  0  0  0  0  0  0  0  0
  141.1320   68.8480  219.7520 C   0  0  0  0  0  0  0  0  0  0  0  0
  140.0930   68.3290  218.7700 C   0  0  0  0  0  0  0  0  0  0  0  0
  139.9290   69.2320  217.5850 C   0  0  0  0  0  0  0  0  0  0  0  0
  140.0230   70.6840  217.9840 C   0  0  1  0  0  0  0  0  0  0  0  0
  139.0940   71.0660  219.0140 N   0  0  0  0  0  0  0  0  0  0  0  0
  139.5170   71.7530  220.2030 C   0  0  0  0  0  0  0  0  0  0  0  0
  139.8080   73.0680  220.2000 N   0  0  0  0  0  0  0  0  0  0  0  0
  140.2050   73.6980  221.3340 C   0  0  0  0  0  0  0  0  0  0  0  0
  140.5170   75.0970  221.3380 N   0  0  0  0  0  0  0  0  0  0  0  0
  141.7370   75.4980  220.7030 C   0  0  0  0  0  0  0  0  0  0  0  0
  141.8020   76.9780  220.4130 C   0  0  0  0  0  0  0  0  0  0  0  0
  141.0280   77.7590  221.3290 N   0  0  0  0  0  0  0  0  0  0  0  0
  141.5040   78.8310  222.1080 C   0  0  0  0  0  0  0  0  0  0  0  0
  141.7890   78.7130  223.4540 C   0  0  0  0  0  0  0  0  0  0  0  0
  142.2580   79.7770  224.2070 C   0  0  0  0  0  0  0  0  0  0  0  0
  142.4550   81.0060  223.6190 C   0  0  0  0  0  0  0  0  0  0  0  0
  142.1610   81.0950  222.2670 C   0  0  0  0  0  0  0  0  0  0  0  0
  141.7070   80.0460  221.5610 N   0  0  0  0  0  0  0  0  0  0  0  0
  139.6060   77.3940  221.4560 C   0  0  0  0  0  0  0  0  0  0  0  0
  139.5850   75.9970  221.9800 C   0  0  0  0  0  0  0  0  0  0  0  0
  140.2840   72.9350  222.4350 N   0  0  0  0  0  0  0  0  0  0  0  0
  140.0020   71.6220  222.4780 C   0  0  0  0  0  0  0  0  0  0  0  0
  140.1190   70.8910  223.7130 N   0  0  0  0  0  0  0  0  0  0  0  0
  139.3100   69.7070  223.8500 C   0  0  0  0  0  0  0  0  0  0  0  0
  139.5790   68.9280  225.0960 C   0  0  0  0  0  0  0  0  0  0  0  0
  139.8420   69.8380  226.2350 C   0  0  0  0  0  0  0  0  0  0  0  0
  139.3980   69.5330  227.5150 C   0  0  0  0  0  0  0  0  0  0  0  0
  139.6480   70.3890  228.5870 C   0  0  0  0  0  0  0  0  0  0  0  0
  140.3470   71.5670  228.3980 C   0  0  0  0  0  0  0  0  0  0  0  0
  140.7900   71.8740  227.1190 C   0  0  0  0  0  0  0  0  0  0  0  0
  140.5340   71.0060  226.0540 C   0  0  0  0  0  0  0  0  0  0  0  0
  141.0260   71.3810  224.7230 C   0  0  0  0  0  0  0  0  0  0  0  0
  139.6130   71.0350  221.3340 N   0  0  0  0  0  0  0  0  0  0  0  0
  141.4180   70.9820  218.4860 C   0  0  0  0  0  0  0  0  0  0  0  0
  143.9720   68.3890  219.2320 N   0  0  0  0  0  0  0  0  0  0  0  0
  146.0872   66.5517  220.3730 H   0  0  0  0  0  0  0  0  0  0  0  0
  145.2852   66.1459  218.8177 H   0  0  0  0  0  0  0  0  0  0  0  0
  146.9180   66.8947  218.8177 H   0  0  0  0  0  0  0  0  0  0  0  0
  147.2534   69.1944  219.3805 H   0  0  0  0  0  0  0  0  0  0  0  0
  146.1927   71.4881  219.3251 H   0  0  0  0  0  0  0  0  0  0  0  0
  141.7373   68.0024  220.1105 H   0  0  0  0  0  0  0  0  0  0  0  0
  140.6035   69.3355  220.5845 H   0  0  0  0  0  0  0  0  0  0  0  0
  140.4054   67.3352  218.4168 H   0  0  0  0  0  0  0  0  0  0  0  0
  139.1273   68.2837  219.2947 H   0  0  0  0  0  0  0  0  0  0  0  0
  140.7196   69.0098  216.8532 H   0  0  0  0  0  0  0  0  0  0  0  0
  138.9343   69.0557  217.1496 H   0  0  0  0  0  0  0  0  0  0  0  0
  139.7756   71.2605  217.0804 H   0  0  0  0  0  0  0  0  0  0  0  0
  138.0570   70.8570  218.9430 H   0  0  0  0  0  0  0  0  0  0  0  0
  142.5768   75.2345  221.3628 H   0  0  0  0  0  0  0  0  0  0  0  0
  141.7882   74.9746  219.7369 H   0  0  0  0  0  0  0  0  0  0  0  0
  142.8513   77.3021  220.4748 H   0  0  0  0  0  0  0  0  0  0  0  0
  141.3834   77.1364  219.4082 H   0  0  0  0  0  0  0  0  0  0  0  0
  141.6384   77.7404  223.9453 H   0  0  0  0  0  0  0  0  0  0  0  0
  142.4734   79.6395  225.2769 H   0  0  0  0  0  0  0  0  0  0  0  0
  142.8253   81.8699  224.1904 H   0  0  0  0  0  0  0  0  0  0  0  0
  142.3044   82.0578  221.7547 H   0  0  0  0  0  0  0  0  0  0  0  0
  139.0983   78.0728  222.1571 H   0  0  0  0  0  0  0  0  0  0  0  0
  139.0828   77.4703  220.4914 H   0  0  0  0  0  0  0  0  0  0  0  0
  139.8244   76.0299  223.0531 H   0  0  0  0  0  0  0  0  0  0  0  0
  138.5793   75.6025  221.7729 H   0  0  0  0  0  0  0  0  0  0  0  0
  138.2523   70.0092  223.8526 H   0  0  0  0  0  0  0  0  0  0  0  0
  139.5610   69.0505  223.0038 H   0  0  0  0  0  0  0  0  0  0  0  0
  138.7037   68.3032  225.3274 H   0  0  0  0  0  0  0  0  0  0  0  0
  140.4657   68.2973  224.9347 H   0  0  0  0  0  0  0  0  0  0  0  0
  138.8398   68.6007  227.6861 H   0  0  0  0  0  0  0  0  0  0  0  0
  139.2860   70.1249  229.5916 H   0  0  0  0  0  0  0  0  0  0  0  0
  140.5472   72.2446  229.2411 H   0  0  0  0  0  0  0  0  0  0  0  0
  141.3461   72.8065  226.9424 H   0  0  0  0  0  0  0  0  0  0  0  0
  141.0933   72.4767  224.6534 H   0  0  0  0  0  0  0  0  0  0  0  0
  142.0207   70.9389  224.5646 H   0  0  0  0  0  0  0  0  0  0  0  0
  142.0496   71.2730  217.6337 H   0  0  0  0  0  0  0  0  0  0  0  0
  141.3523   71.7967  219.2221 H   0  0  0  0  0  0  0  0  0  0  0  0
  1  2  1  0
  2  3  2  0
  3  4  1  0
  4  5  2  0
  5  6  1  0
  6  7  1  0
  7  8  1  0
  8  9  1  0
  9 10  1  0
 10 11  1  0
 11 12  1  0
 12 13  1  0
 13 14  2  0
 14 15  1  0
 15 16  1  0
 16 17  1  0
 17 18  1  0
 18 19  1  0
 19 20  1  0
 20 21  2  0
 21 22  1  0
 22 23  2  0
 23 24  1  0
 24 25  2  0
 19 26  1  0
 26 27  1  0
 15 28  2  0
 28 29  1  0
 29 30  1  0
 30 31  1  0
 31 32  1  0
 32 33  1  0
 33 34  2  0
 34 35  1  0
 35 36  2  0
 36 37  1  0
 37 38  2  0
 38 39  1  0
 29 40  2  0
 11 41  1  0
  6 42  2  0
 42  2  1  0
 41  7  1  0
 40 13  1  0
 27 16  1  0
 39 30  1  0
 25 20  1  0
 38 33  1  0
  1 43  1  0
  1 44  1  0
  1 45  1  0
  3 46  1  0
  4 47  1  0
  8 48  1  0
  8 49  1  0
  9 50  1  0
  9 51  1  0
 10 52  1  0
 10 53  1  0
 11 54  1  6
 12 55  1  0
 17 56  1  0
 17 57  1  0
 18 58  1  0
 18 59  1  0
 21 60  1  0
 22 61  1  0
 23 62  1  0
 24 63  1  0
 26 64  1  0
 26 65  1  0
 27 66  1  0
 27 67  1  0
 31 68  1  0
 31 69  1  0
 32 70  1  0
 32 71  1  0
 34 72  1  0
 35 73  1  0
 36 74  1  0
 37 75  1  0
 39 76  1  0
 39 77  1  0
 41 78  1  0
 41 79  1  0
M  END
>  <smiles>  (57) 
Cc1ccnc(N2CCCC(Nc3nc(N4CCN(c5ccccn5)CC4)nc(N4CCc5ccccc5C4)n3)C2)n1

>  <score_type>  (57) 
oracle

>  <origin>  (57) 
autodockgpu

>  <m_score__min__energy>  (57) 
-10.06

>  <m_primary>  (57) 
energy

>  <rmsd>  (57) 
7.53340584413114

>  <m_score__min__rmsd>  (57) 
7.53340584413114

>  <meeko>  (57) 
{"free_energy": -9.9, "intermolecular_energy": -11.69, "internal_energy": -1.79, "cluster_size": 16, "cluster_id": 1, "rank_in_cluster": 14}

>  <energy>  (57) 
-9.96

>  <cluster_rmsd>  (57) 
1.07

>  <cluster>  (57) 
1

$$$$

     RDKit          3D

 79 85  0  0  1  0  0  0  0  0999 V2000
  133.3280   75.4050  226.7440 C   0  0  0  0  0  0  0  0  0  0  0  0
  133.7260   74.1590  226.0350 C   0  0  0  0  0  0  0  0  0  0  0  0
  133.5710   72.9590  226.6980 C   0  0  0  0  0  0  0  0  0  0  0  0
  133.9470   71.7920  226.0250 C   0  0  0  0  0  0  0  0  0  0  0  0
  134.4440   71.8930  224.7640 N   0  0  0  0  0  0  0  0  0  0  0  0
  134.5910   73.0630  224.1290 C   0  0  0  0  0  0  0  0  0  0  0  0
  135.1220   73.0400  222.8090 N   0  0  0  0  0  0  0  0  0  0  0  0
  135.4390   74.3080  222.1800 C   0  0  0  0  0  0  0  0  0  0  0  0
  134.7460   74.4560  220.8330 C   0  0  0  0  0  0  0  0  0  0  0  0
  134.2840   73.1400  220.2830 C   0  0  0  0  0  0  0  0  0  0  0  0
  135.2790   72.0440  220.5750 C   0  0  1  0  0  0  0  0  0  0  0  0
  136.6090   72.3240  220.1030 N   0  0  0  0  0  0  0  0  0  0  0  0
  137.6610   72.7310  220.9930 C   0  0  0  0  0  0  0  0  0  0  0  0
  138.1920   73.9680  220.9490 N   0  0  0  0  0  0  0  0  0  0  0  0
  139.1840   74.3320  221.7990 C   0  0  0  0  0  0  0  0  0  0  0  0
  139.7540   75.6470  221.7580 N   0  0  0  0  0  0  0  0  0  0  0  0
  141.0880   75.7680  221.2490 C   0  0  0  0  0  0  0  0  0  0  0  0
  141.4630   77.1830  220.8820 C   0  0  0  0  0  0  0  0  0  0  0  0
  140.7600   78.1630  221.6530 N   0  0  0  0  0  0  0  0  0  0  0  0
  141.3460   79.1880  222.4190 C   0  0  0  0  0  0  0  0  0  0  0  0
  142.7120   79.3290  222.5680 C   0  0  0  0  0  0  0  0  0  0  0  0
  143.2730   80.3440  223.3250 C   0  0  0  0  0  0  0  0  0  0  0  0
  142.4650   81.2570  223.9630 C   0  0  0  0  0  0  0  0  0  0  0  0
  141.0980   81.0920  223.7970 C   0  0  0  0  0  0  0  0  0  0  0  0
  140.5810   80.0980  223.0560 N   0  0  0  0  0  0  0  0  0  0  0  0
  139.2890   78.0740  221.6330 C   0  0  0  0  0  0  0  0  0  0  0  0
  138.9480   76.7500  222.2320 C   0  0  0  0  0  0  0  0  0  0  0  0
  139.5900   73.3940  222.6690 N   0  0  0  0  0  0  0  0  0  0  0  0
  139.0850   72.1510  222.7430 C   0  0  0  0  0  0  0  0  0  0  0  0
  139.5910   71.2150  223.7130 N   0  0  0  0  0  0  0  0  0  0  0  0
  138.9340   69.9360  223.7920 C   0  0  0  0  0  0  0  0  0  0  0  0
  139.5920   68.9710  224.7230 C   0  0  0  0  0  0  0  0  0  0  0  0
  140.1010   69.6690  225.9260 C   0  0  0  0  0  0  0  0  0  0  0  0
  140.0540   69.0700  227.1780 C   0  0  0  0  0  0  0  0  0  0  0  0
  140.5350   69.7270  228.3090 C   0  0  0  0  0  0  0  0  0  0  0  0
  141.0730   70.9970  228.2100 C   0  0  0  0  0  0  0  0  0  0  0  0
  141.1200   71.5980  226.9590 C   0  0  0  0  0  0  0  0  0  0  0  0
  140.6350   70.9270  225.8330 C   0  0  0  0  0  0  0  0  0  0  0  0
  140.7090   71.6100  224.5370 C   0  0  0  0  0  0  0  0  0  0  0  0
  138.1040   71.8290  221.8830 N   0  0  0  0  0  0  0  0  0  0  0  0
  135.3560   71.8140  222.0680 C   0  0  0  0  0  0  0  0  0  0  0  0
  134.2320   74.1800  224.7690 N   0  0  0  0  0  0  0  0  0  0  0  0
  133.3803   75.2413  227.8305 H   0  0  0  0  0  0  0  0  0  0  0  0
  134.0103   76.2207  226.4629 H   0  0  0  0  0  0  0  0  0  0  0  0
  132.2992   75.6742  226.4629 H   0  0  0  0  0  0  0  0  0  0  0  0
  133.1659   72.9214  227.7200 H   0  0  0  0  0  0  0  0  0  0  0  0
  133.8423   70.8093  226.5080 H   0  0  0  0  0  0  0  0  0  0  0  0
  135.1131   75.1251  222.8404 H   0  0  0  0  0  0  0  0  0  0  0  0
  136.5256   74.3462  222.0131 H   0  0  0  0  0  0  0  0  0  0  0  0
  133.8733   75.1145  220.9546 H   0  0  0  0  0  0  0  0  0  0  0  0
  135.4735   74.8797  220.1251 H   0  0  0  0  0  0  0  0  0  0  0  0
  133.3187   72.8791  220.7415 H   0  0  0  0  0  0  0  0  0  0  0  0
  134.1834   73.2359  219.1918 H   0  0  0  0  0  0  0  0  0  0  0  0
  134.9144   71.1562  220.0376 H   0  0  0  0  0  0  0  0  0  0  0  0
  136.8720   72.2440  219.0800 H   0  0  0  0  0  0  0  0  0  0  0  0
  141.7884   75.4098  222.0178 H   0  0  0  0  0  0  0  0  0  0  0  0
  141.1399   75.1688  220.3280 H   0  0  0  0  0  0  0  0  0  0  0  0
  142.5425   77.3143  221.0477 H   0  0  0  0  0  0  0  0  0  0  0  0
  141.1895   77.3342  219.8273 H   0  0  0  0  0  0  0  0  0  0  0  0
  143.3775   78.6100  222.0679 H   0  0  0  0  0  0  0  0  0  0  0  0
  144.3665   80.4205  223.4164 H   0  0  0  0  0  0  0  0  0  0  0  0
  142.8808   82.0735  224.5717 H   0  0  0  0  0  0  0  0  0  0  0  0
  140.4139   81.7992  224.2889 H   0  0  0  0  0  0  0  0  0  0  0  0
  138.8489   78.8875  222.2284 H   0  0  0  0  0  0  0  0  0  0  0  0
  138.8939   78.1671  220.6106 H   0  0  0  0  0  0  0  0  0  0  0  0
  139.0755   76.8240  223.3221 H   0  0  0  0  0  0  0  0  0  0  0  0
  137.9129   76.5302  221.9314 H   0  0  0  0  0  0  0  0  0  0  0  0
  137.9015   70.0982  224.1351 H   0  0  0  0  0  0  0  0  0  0  0  0
  138.9818   69.4913  222.7870 H   0  0  0  0  0  0  0  0  0  0  0  0
  138.8603   68.2092  225.0300 H   0  0  0  0  0  0  0  0  0  0  0  0
  140.4387   68.4990  224.2030 H   0  0  0  0  0  0  0  0  0  0  0  0
  139.6300   68.0600  227.2787 H   0  0  0  0  0  0  0  0  0  0  0  0
  140.4862   69.2307  229.2895 H   0  0  0  0  0  0  0  0  0  0  0  0
  141.4544   71.5184  229.1003 H   0  0  0  0  0  0  0  0  0  0  0  0
  141.5416   72.6085  226.8536 H   0  0  0  0  0  0  0  0  0  0  0  0
  140.6799   72.6982  224.6952 H   0  0  0  0  0  0  0  0  0  0  0  0
  141.6474   71.3343  224.0335 H   0  0  0  0  0  0  0  0  0  0  0  0
  134.5958   71.0726  222.3549 H   0  0  0  0  0  0  0  0  0  0  0  0
  136.3666   71.4530  222.3094 H   0  0  0  0  0  0  0  0  0  0  0  0
  1  2  1  0
  2  3  2  0
  3  4  1  0
  4  5  2  0
  5  6  1  0
  6  7  1  0
  7  8  1  0
  8  9  1  0
  9 10  1  0
 10 11  1  0
 11 12  1  0
 12 13  1  0
 13 14  2  0
 14 15  1  0
 15 16  1  0
 16 17  1  0
 17 18  1  0
 18 19  1  0
 19 20  1  0
 20 21  2  0
 21 22  1  0
 22 23  2  0
 23 24  1  0
 24 25  2  0
 19 26  1  0
 26 27  1  0
 15 28  2  0
 28 29  1  0
 29 30  1  0
 30 31  1  0
 31 32  1  0
 32 33  1  0
 33 34  2  0
 34 35  1  0
 35 36  2  0
 36 37  1  0
 37 38  2  0
 38 39  1  0
 29 40  2  0
 11 41  1  0
  6 42  2  0
 42  2  1  0
 41  7  1  0
 40 13  1  0
 27 16  1  0
 39 30  1  0
 25 20  1  0
 38 33  1  0
  1 43  1  0
  1 44  1  0
  1 45  1  0
  3 46  1  0
  4 47  1  0
  8 48  1  0
  8 49  1  0
  9 50  1  0
  9 51  1  0
 10 52  1  0
 10 53  1  0
 11 54  1  6
 12 55  1  0
 17 56  1  0
 17 57  1  0
 18 58  1  0
 18 59  1  0
 21 60  1  0
 22 61  1  0
 23 62  1  0
 24 63  1  0
 26 64  1  0
 26 65  1  0
 27 66  1  0
 27 67  1  0
 31 68  1  0
 31 69  1  0
 32 70  1  0
 32 71  1  0
 34 72  1  0
 35 73  1  0
 36 74  1  0
 37 75  1  0
 39 76  1  0
 39 77  1  0
 41 78  1  0
 41 79  1  0
M  END
>  <smiles>  (58) 
Cc1ccnc(N2CCCC(Nc3nc(N4CCN(c5ccccn5)CC4)nc(N4CCc5ccccc5C4)n3)C2)n1

>  <score_type>  (58) 
oracle

>  <origin>  (58) 
autodockgpu

>  <m_score__min__energy>  (58) 
-10.06

>  <m_primary>  (58) 
energy

>  <rmsd>  (58) 
7.88202369787009

>  <m_score__min__rmsd>  (58) 
7.88202369787009

>  <meeko>  (58) 
{"free_energy": -9.76, "intermolecular_energy": -11.55, "internal_energy": -1.65, "cluster_size": 18, "cluster_id": 4, "rank_in_cluster": 1}

>  <energy>  (58) 
-9.96

>  <cluster_rmsd>  (58) 
0.24

>  <cluster>  (58) 
1

$$$$

     RDKit          3D

 79 85  0  0  1  0  0  0  0  0999 V2000
  132.4940   73.1740  227.0090 C   0  0  0  0  0  0  0  0  0  0  0  0
  133.3390   73.9730  226.0810 C   0  0  0  0  0  0  0  0  0  0  0  0
  133.6770   75.2560  226.4560 C   0  0  0  0  0  0  0  0  0  0  0  0
  134.4720   76.0010  225.5780 C   0  0  0  0  0  0  0  0  0  0  0  0
  134.8690   75.4330  224.4090 N   0  0  0  0  0  0  0  0  0  0  0  0
  134.5340   74.1850  224.0530 C   0  0  0  0  0  0  0  0  0  0  0  0
  135.0100   73.7000  222.8030 N   0  0  0  0  0  0  0  0  0  0  0  0
  135.4740   74.6680  221.8280 C   0  0  0  0  0  0  0  0  0  0  0  0
  134.7610   74.5070  220.4930 C   0  0  0  0  0  0  0  0  0  0  0  0
  134.1060   73.1660  220.3560 C   0  0  0  0  0  0  0  0  0  0  0  0
  134.9540   72.0760  220.9680 C   0  0  1  0  0  0  0  0  0  0  0  0
  136.2920   72.0170  220.4430 N   0  0  0  0  0  0  0  0  0  0  0  0
  137.4340   72.3960  221.2290 C   0  0  0  0  0  0  0  0  0  0  0  0
  138.0240   73.5990  221.0930 N   0  0  0  0  0  0  0  0  0  0  0  0
  139.1010   73.9370  221.8450 C   0  0  0  0  0  0  0  0  0  0  0  0
  139.7340   75.2160  221.7060 N   0  0  0  0  0  0  0  0  0  0  0  0
  141.0810   75.2300  221.2170 C   0  0  0  0  0  0  0  0  0  0  0  0
  141.5300   76.5900  220.7400 C   0  0  0  0  0  0  0  0  0  0  0  0
  140.8620   77.6630  221.4110 N   0  0  0  0  0  0  0  0  0  0  0  0
  141.4840   78.7220  222.1000 C   0  0  0  0  0  0  0  0  0  0  0  0
  141.9670   79.8500  221.4680 C   0  0  0  0  0  0  0  0  0  0  0  0
  142.5760   80.8830  222.1610 C   0  0  0  0  0  0  0  0  0  0  0  0
  142.7180   80.8080  223.5280 C   0  0  0  0  0  0  0  0  0  0  0  0
  142.2240   79.6650  224.1370 C   0  0  0  0  0  0  0  0  0  0  0  0
  141.6370   78.6780  223.4390 N   0  0  0  0  0  0  0  0  0  0  0  0
  139.3890   77.6420  221.3670 C   0  0  0  0  0  0  0  0  0  0  0  0
  138.9740   76.3910  222.0670 C   0  0  0  0  0  0  0  0  0  0  0  0
  139.5270   73.0100  222.7170 N   0  0  0  0  0  0  0  0  0  0  0  0
  138.9640   71.8000  222.8810 C   0  0  0  0  0  0  0  0  0  0  0  0
  139.4980   70.8730  223.8450 N   0  0  0  0  0  0  0  0  0  0  0  0
  138.8580   69.5860  223.9370 C   0  0  0  0  0  0  0  0  0  0  0  0
  139.5430   68.6310  224.8590 C   0  0  0  0  0  0  0  0  0  0  0  0
  140.0640   69.3380  226.0520 C   0  0  0  0  0  0  0  0  0  0  0  0
  140.0460   68.7420  227.3060 C   0  0  0  0  0  0  0  0  0  0  0  0
  140.5380   69.4080  228.4270 C   0  0  0  0  0  0  0  0  0  0  0  0
  141.0590   70.6830  228.3160 C   0  0  0  0  0  0  0  0  0  0  0  0
  141.0770   71.2820  227.0630 C   0  0  0  0  0  0  0  0  0  0  0  0
  140.5810   70.6020  225.9470 C   0  0  0  0  0  0  0  0  0  0  0  0
  140.6250   71.2830  224.6480 C   0  0  0  0  0  0  0  0  0  0  0  0
  137.9000   71.5030  222.1160 N   0  0  0  0  0  0  0  0  0  0  0  0
  135.0510   72.2900  222.4620 C   0  0  0  0  0  0  0  0  0  0  0  0
  133.7750   73.4700  224.8900 N   0  0  0  0  0  0  0  0  0  0  0  0
  132.7558   73.4215  228.0483 H   0  0  0  0  0  0  0  0  0  0  0  0
  131.4337   73.4075  226.8324 H   0  0  0  0  0  0  0  0  0  0  0  0
  132.6678   72.1023  226.8324 H   0  0  0  0  0  0  0  0  0  0  0  0
  133.3338   75.6790  227.4117 H   0  0  0  0  0  0  0  0  0  0  0  0
  134.7706   77.0293  225.8298 H   0  0  0  0  0  0  0  0  0  0  0  0
  135.2852   75.6809  222.2133 H   0  0  0  0  0  0  0  0  0  0  0  0
  136.5492   74.5028  221.6651 H   0  0  0  0  0  0  0  0  0  0  0  0
  133.9906   75.2874  220.4071 H   0  0  0  0  0  0  0  0  0  0  0  0
  135.5142   74.5966  219.6963 H   0  0  0  0  0  0  0  0  0  0  0  0
  133.1310   73.1898  220.8648 H   0  0  0  0  0  0  0  0  0  0  0  0
  133.9808   72.9485  219.2850 H   0  0  0  0  0  0  0  0  0  0  0  0
  134.4550   71.1284  220.7170 H   0  0  0  0  0  0  0  0  0  0  0  0
  136.4960   71.6920  219.4550 H   0  0  0  0  0  0  0  0  0  0  0  0
  141.7500   74.9062  222.0279 H   0  0  0  0  0  0  0  0  0  0  0  0
  141.1199   74.5524  220.3514 H   0  0  0  0  0  0  0  0  0  0  0  0
  142.6116   76.6846  220.9166 H   0  0  0  0  0  0  0  0  0  0  0  0
  141.2823   76.6636  219.6708 H   0  0  0  0  0  0  0  0  0  0  0  0
  141.8647   79.9314  220.3758 H   0  0  0  0  0  0  0  0  0  0  0  0
  142.9468   81.7648  221.6180 H   0  0  0  0  0  0  0  0  0  0  0  0
  143.1976   81.6117  224.1060 H   0  0  0  0  0  0  0  0  0  0  0  0
  142.3155   79.5624  225.2284 H   0  0  0  0  0  0  0  0  0  0  0  0
  138.9787   78.5226  221.8829 H   0  0  0  0  0  0  0  0  0  0  0  0
  139.0166   77.6670  220.3323 H   0  0  0  0  0  0  0  0  0  0  0  0
  139.0848   76.5514  223.1496 H   0  0  0  0  0  0  0  0  0  0  0  0
  137.9354   76.1947  221.7624 H   0  0  0  0  0  0  0  0  0  0  0  0
  137.8293   69.7362  224.2965 H   0  0  0  0  0  0  0  0  0  0  0  0
  138.8948   69.1399  222.9322 H   0  0  0  0  0  0  0  0  0  0  0  0
  138.8256   67.8614  225.1799 H   0  0  0  0  0  0  0  0  0  0  0  0
  140.3863   68.1678  224.3259 H   0  0  0  0  0  0  0  0  0  0  0  0
  139.6365   67.7271  227.4165 H   0  0  0  0  0  0  0  0  0  0  0  0
  140.5113   68.9140  229.4095 H   0  0  0  0  0  0  0  0  0  0  0  0
  141.4500   71.2107  229.1984 H   0  0  0  0  0  0  0  0  0  0  0  0
  141.4840   72.2975  226.9482 H   0  0  0  0  0  0  0  0  0  0  0  0
  140.5860   72.3712  224.8042 H   0  0  0  0  0  0  0  0  0  0  0  0
  141.5578   71.0173  224.1290 H   0  0  0  0  0  0  0  0  0  0  0  0
  134.2083   71.7797  222.9513 H   0  0  0  0  0  0  0  0  0  0  0  0
  136.0118   71.8802  222.8068 H   0  0  0  0  0  0  0  0  0  0  0  0
  1  2  1  0
  2  3  2  0
  3  4  1  0
  4  5  2  0
  5  6  1  0
  6  7  1  0
  7  8  1  0
  8  9  1  0
  9 10  1  0
 10 11  1  0
 11 12  1  0
 12 13  1  0
 13 14  2  0
 14 15  1  0
 15 16  1  0
 16 17  1  0
 17 18  1  0
 18 19  1  0
 19 20  1  0
 20 21  2  0
 21 22  1  0
 22 23  2  0
 23 24  1  0
 24 25  2  0
 19 26  1  0
 26 27  1  0
 15 28  2  0
 28 29  1  0
 29 30  1  0
 30 31  1  0
 31 32  1  0
 32 33  1  0
 33 34  2  0
 34 35  1  0
 35 36  2  0
 36 37  1  0
 37 38  2  0
 38 39  1  0
 29 40  2  0
 11 41  1  0
  6 42  2  0
 42  2  1  0
 41  7  1  0
 40 13  1  0
 27 16  1  0
 39 30  1  0
 25 20  1  0
 38 33  1  0
  1 43  1  0
  1 44  1  0
  1 45  1  0
  3 46  1  0
  4 47  1  0
  8 48  1  0
  8 49  1  0
  9 50  1  0
  9 51  1  0
 10 52  1  0
 10 53  1  0
 11 54  1  1
 12 55  1  0
 17 56  1  0
 17 57  1  0
 18 58  1  0
 18 59  1  0
 21 60  1  0
 22 61  1  0
 23 62  1  0
 24 63  1  0
 26 64  1  0
 26 65  1  0
 27 66  1  0
 27 67  1  0
 31 68  1  0
 31 69  1  0
 32 70  1  0
 32 71  1  0
 34 72  1  0
 35 73  1  0
 36 74  1  0
 37 75  1  0
 39 76  1  0
 39 77  1  0
 41 78  1  0
 41 79  1  0
M  END
>  <smiles>  (59) 
Cc1ccnc(N2CCCC(Nc3nc(N4CCN(c5ccccn5)CC4)nc(N4CCc5ccccc5C4)n3)C2)n1

>  <score_type>  (59) 
oracle

>  <origin>  (59) 
autodockgpu

>  <m_score__min__energy>  (59) 
-10.06

>  <m_primary>  (59) 
energy

>  <rmsd>  (59) 
7.75714360645192

>  <m_score__min__rmsd>  (59) 
7.75714360645192

>  <meeko>  (59) 
{"free_energy": -9.69, "intermolecular_energy": -11.48, "internal_energy": -1.72, "cluster_size": 18, "cluster_id": 4, "rank_in_cluster": 8}

>  <energy>  (59) 
-9.95

>  <cluster_rmsd>  (59) 
0.59

>  <cluster>  (59) 
1

$$$$

     RDKit          3D

 79 85  0  0  1  0  0  0  0  0999 V2000
  142.0630   79.3190  223.2140 C   0  0  0  0  0  0  0  0  0  0  0  0
  140.5770   79.2480  223.1970 C   0  0  0  0  0  0  0  0  0  0  0  0
  139.8710   80.3240  223.6930 C   0  0  0  0  0  0  0  0  0  0  0  0
  138.4750   80.2500  223.6740 C   0  0  0  0  0  0  0  0  0  0  0  0
  137.8830   79.1330  223.1750 N   0  0  0  0  0  0  0  0  0  0  0  0
  138.5770   78.0920  222.6960 C   0  0  0  0  0  0  0  0  0  0  0  0
  137.8460   76.9780  222.1980 N   0  0  0  0  0  0  0  0  0  0  0  0
  137.7290   76.8250  220.7610 C   0  0  0  0  0  0  0  0  0  0  0  0
  136.2760   76.7120  220.3230 C   0  0  0  0  0  0  0  0  0  0  0  0
  135.3670   76.3450  221.4580 C   0  0  0  0  0  0  0  0  0  0  0  0
  136.0220   75.3510  222.3850 C   0  0  1  0  0  0  0  0  0  0  0  0
  136.4810   74.1560  221.7280 N   0  0  0  0  0  0  0  0  0  0  0  0
  137.8380   73.7000  221.8410 C   0  0  0  0  0  0  0  0  0  0  0  0
  138.8330   74.2340  221.1090 N   0  0  0  0  0  0  0  0  0  0  0  0
  140.1090   73.7890  221.2320 C   0  0  0  0  0  0  0  0  0  0  0  0
  141.1730   74.3540  220.4550 N   0  0  0  0  0  0  0  0  0  0  0  0
  141.2960   75.7810  220.4510 C   0  0  0  0  0  0  0  0  0  0  0  0
  142.6330   76.2650  219.9440 C   0  0  0  0  0  0  0  0  0  0  0  0
  143.2350   75.3610  219.0120 N   0  0  0  0  0  0  0  0  0  0  0  0
  143.6660   75.6820  217.7100 C   0  0  0  0  0  0  0  0  0  0  0  0
  143.2830   76.8360  217.0540 C   0  0  0  0  0  0  0  0  0  0  0  0
  143.7170   77.1370  215.7740 C   0  0  0  0  0  0  0  0  0  0  0  0
  144.5570   76.2730  215.1080 C   0  0  0  0  0  0  0  0  0  0  0  0
  144.9240   75.1230  215.7900 C   0  0  0  0  0  0  0  0  0  0  0  0
  144.4890   74.8570  217.0320 N   0  0  0  0  0  0  0  0  0  0  0  0
  143.4120   73.9730  219.4730 C   0  0  0  0  0  0  0  0  0  0  0  0
  142.0390   73.4480  219.7340 C   0  0  0  0  0  0  0  0  0  0  0  0
  140.3050   72.8010  222.1180 N   0  0  0  0  0  0  0  0  0  0  0  0
  139.3390   72.2420  222.8670 C   0  0  0  0  0  0  0  0  0  0  0  0
  139.6530   71.1830  223.7900 N   0  0  0  0  0  0  0  0  0  0  0  0
  138.8160   70.0120  223.7510 C   0  0  0  0  0  0  0  0  0  0  0  0
  139.2770   68.9040  224.6390 C   0  0  0  0  0  0  0  0  0  0  0  0
  139.8170   69.4430  225.9090 C   0  0  0  0  0  0  0  0  0  0  0  0
  139.6180   68.7790  227.1130 C   0  0  0  0  0  0  0  0  0  0  0  0
  140.1280   69.2860  228.3070 C   0  0  0  0  0  0  0  0  0  0  0  0
  140.8470   70.4670  228.3210 C   0  0  0  0  0  0  0  0  0  0  0  0
  141.0460   71.1320  227.1190 C   0  0  0  0  0  0  0  0  0  0  0  0
  140.5300   70.6120  225.9280 C   0  0  0  0  0  0  0  0  0  0  0  0
  140.7710   71.3570  224.6870 C   0  0  0  0  0  0  0  0  0  0  0  0
  138.0890   72.7110  222.7140 N   0  0  0  0  0  0  0  0  0  0  0  0
  137.2130   75.9950  223.0590 C   0  0  0  0  0  0  0  0  0  0  0  0
  139.9120   78.1600  222.7110 N   0  0  0  0  0  0  0  0  0  0  0  0
  142.4174   79.3359  224.2552 H   0  0  0  0  0  0  0  0  0  0  0  0
  142.4780   78.4397  222.6997 H   0  0  0  0  0  0  0  0  0  0  0  0
  142.3923   80.2339  222.6997 H   0  0  0  0  0  0  0  0  0  0  0  0
  140.3885   81.2099  224.0898 H   0  0  0  0  0  0  0  0  0  0  0  0
  137.8658   81.0822  224.0566 H   0  0  0  0  0  0  0  0  0  0  0  0
  138.1818   77.6998  220.2714 H   0  0  0  0  0  0  0  0  0  0  0  0
  138.2472   75.8988  220.4716 H   0  0  0  0  0  0  0  0  0  0  0  0
  135.9544   77.6798  219.9108 H   0  0  0  0  0  0  0  0  0  0  0  0
  136.2126   75.9136  219.5690 H   0  0  0  0  0  0  0  0  0  0  0  0
  135.1173   77.2537  222.0254 H   0  0  0  0  0  0  0  0  0  0  0  0
  134.4590   75.8850  221.0410 H   0  0  0  0  0  0  0  0  0  0  0  0
  135.2457   75.0576  223.1070 H   0  0  0  0  0  0  0  0  0  0  0  0
  135.8390   73.5600  221.1300 H   0  0  0  0  0  0  0  0  0  0  0  0
  140.5072   76.1974  219.8072 H   0  0  0  0  0  0  0  0  0  0  0  0
  141.2021   76.1184  221.4937 H   0  0  0  0  0  0  0  0  0  0  0  0
  142.4898   77.2365  219.4483 H   0  0  0  0  0  0  0  0  0  0  0  0
  143.3063   76.3431  220.8104 H   0  0  0  0  0  0  0  0  0  0  0  0
  142.6103   77.5398  217.5660 H   0  0  0  0  0  0  0  0  0  0  0  0
  143.3900   78.0682  215.2883 H   0  0  0  0  0  0  0  0  0  0  0  0
  144.9173   76.4836  214.0903 H   0  0  0  0  0  0  0  0  0  0  0  0
  145.5945   74.4040  215.2966 H   0  0  0  0  0  0  0  0  0  0  0  0
  143.9095   73.3730  218.6969 H   0  0  0  0  0  0  0  0  0  0  0  0
  144.0400   73.9249  220.3748 H   0  0  0  0  0  0  0  0  0  0  0  0
  141.5687   73.2221  218.7656 H   0  0  0  0  0  0  0  0  0  0  0  0
  142.1616   72.5609  220.3727 H   0  0  0  0  0  0  0  0  0  0  0  0
  137.8009   70.3024  224.0595 H   0  0  0  0  0  0  0  0  0  0  0  0
  138.8534   69.6293  222.7204 H   0  0  0  0  0  0  0  0  0  0  0  0
  138.4277   68.2408  224.8600 H   0  0  0  0  0  0  0  0  0  0  0  0
  140.0726   68.3453  224.1245 H   0  0  0  0  0  0  0  0  0  0  0  0
  139.0487   67.8379  227.1242 H   0  0  0  0  0  0  0  0  0  0  0  0
  139.9569   68.7413  229.2472 H   0  0  0  0  0  0  0  0  0  0  0  0
  141.2513   70.8696  229.2615 H   0  0  0  0  0  0  0  0  0  0  0  0
  141.6134   72.0743  227.1033 H   0  0  0  0  0  0  0  0  0  0  0  0
  140.8905   72.4255  224.9193 H   0  0  0  0  0  0  0  0  0  0  0  0
  141.6856   70.9788  224.2068 H   0  0  0  0  0  0  0  0  0  0  0  0
  136.8763   76.4917  223.9809 H   0  0  0  0  0  0  0  0  0  0  0  0
  137.9488   75.2087  223.2834 H   0  0  0  0  0  0  0  0  0  0  0  0
  1  2  1  0
  2  3  2  0
  3  4  1  0
  4  5  2  0
  5  6  1  0
  6  7  1  0
  7  8  1  0
  8  9  1  0
  9 10  1  0
 10 11  1  0
 11 12  1  0
 12 13  1  0
 13 14  2  0
 14 15  1  0
 15 16  1  0
 16 17  1  0
 17 18  1  0
 18 19  1  0
 19 20  1  0
 20 21  2  0
 21 22  1  0
 22 23  2  0
 23 24  1  0
 24 25  2  0
 19 26  1  0
 26 27  1  0
 15 28  2  0
 28 29  1  0
 29 30  1  0
 30 31  1  0
 31 32  1  0
 32 33  1  0
 33 34  2  0
 34 35  1  0
 35 36  2  0
 36 37  1  0
 37 38  2  0
 38 39  1  0
 29 40  2  0
 11 41  1  0
  6 42  2  0
 42  2  1  0
 41  7  1  0
 40 13  1  0
 27 16  1  0
 39 30  1  0
 25 20  1  0
 38 33  1  0
  1 43  1  0
  1 44  1  0
  1 45  1  0
  3 46  1  0
  4 47  1  0
  8 48  1  0
  8 49  1  0
  9 50  1  0
  9 51  1  0
 10 52  1  0
 10 53  1  0
 11 54  1  1
 12 55  1  0
 17 56  1  0
 17 57  1  0
 18 58  1  0
 18 59  1  0
 21 60  1  0
 22 61  1  0
 23 62  1  0
 24 63  1  0
 26 64  1  0
 26 65  1  0
 27 66  1  0
 27 67  1  0
 31 68  1  0
 31 69  1  0
 32 70  1  0
 32 71  1  0
 34 72  1  0
 35 73  1  0
 36 74  1  0
 37 75  1  0
 39 76  1  0
 39 77  1  0
 41 78  1  0
 41 79  1  0
M  END
>  <smiles>  (60) 
Cc1ccnc(N2CCCC(Nc3nc(N4CCN(c5ccccn5)CC4)nc(N4CCc5ccccc5C4)n3)C2)n1

>  <score_type>  (60) 
oracle

>  <origin>  (60) 
autodockgpu

>  <m_score__min__energy>  (60) 
-10.06

>  <m_primary>  (60) 
energy

>  <rmsd>  (60) 
7.9526710762017645

>  <m_score__min__rmsd>  (60) 
7.9526710762017645

>  <meeko>  (60) 
{"free_energy": -8.73, "intermolecular_energy": -10.52, "internal_energy": -1.94, "cluster_size": 1, "cluster_id": 7, "rank_in_cluster": 1}

>  <energy>  (60) 
-9.94

>  <cluster_rmsd>  (60) 
0.95

>  <cluster>  (60) 
1

$$$$

     RDKit          3D

 79 85  0  0  1  0  0  0  0  0999 V2000
  145.9200   66.6440  219.0720 C   0  0  0  0  0  0  0  0  0  0  0  0
  145.3010   67.9930  219.1700 C   0  0  0  0  0  0  0  0  0  0  0  0
  146.1400   69.0870  219.2250 C   0  0  0  0  0  0  0  0  0  0  0  0
  145.5510   70.3520  219.3180 C   0  0  0  0  0  0  0  0  0  0  0  0
  144.1950   70.4450  219.3500 N   0  0  0  0  0  0  0  0  0  0  0  0
  143.3890   69.3760  219.2960 C   0  0  0  0  0  0  0  0  0  0  0  0
  141.9850   69.6000  219.3370 N   0  0  0  0  0  0  0  0  0  0  0  0
  141.1370   68.5270  219.8190 C   0  0  0  0  0  0  0  0  0  0  0  0
  140.0500   68.1750  218.8140 C   0  0  0  0  0  0  0  0  0  0  0  0
  139.8320   69.2640  217.8070 C   0  0  0  0  0  0  0  0  0  0  0  0
  139.9480   70.6290  218.4410 C   0  0  1  0  0  0  0  0  0  0  0  0
  139.0710   70.8260  219.5640 N   0  0  0  0  0  0  0  0  0  0  0  0
  139.4390   71.6500  220.6810 C   0  0  0  0  0  0  0  0  0  0  0  0
  139.7380   72.9560  220.5350 N   0  0  0  0  0  0  0  0  0  0  0  0
  140.0830   73.7170  221.6040 C   0  0  0  0  0  0  0  0  0  0  0  0
  140.4020   75.1070  221.4550 N   0  0  0  0  0  0  0  0  0  0  0  0
  141.6640   75.4290  220.8570 C   0  0  0  0  0  0  0  0  0  0  0  0
  141.7560   76.8620  220.3910 C   0  0  0  0  0  0  0  0  0  0  0  0
  140.9280   77.7490  221.1510 N   0  0  0  0  0  0  0  0  0  0  0  0
  141.3580   78.9090  221.8210 C   0  0  0  0  0  0  0  0  0  0  0  0
  141.7890   78.9040  223.1330 C   0  0  0  0  0  0  0  0  0  0  0  0
  142.2100   80.0550  223.7790 C   0  0  0  0  0  0  0  0  0  0  0  0
  142.2080   81.2600  223.1140 C   0  0  0  0  0  0  0  0  0  0  0  0
  141.7710   81.2360  221.7980 C   0  0  0  0  0  0  0  0  0  0  0  0
  141.3680   80.1050  221.1970 N   0  0  0  0  0  0  0  0  0  0  0  0
  139.4990   77.3990  221.2280 C   0  0  0  0  0  0  0  0  0  0  0  0
  139.4350   76.0770  221.9180 C   0  0  0  0  0  0  0  0  0  0  0  0
  140.1040   73.0920  222.7910 N   0  0  0  0  0  0  0  0  0  0  0  0
  139.8130   71.7930  222.9760 C   0  0  0  0  0  0  0  0  0  0  0  0
  139.8660   71.2160  224.2940 N   0  0  0  0  0  0  0  0  0  0  0  0
  140.6980   71.8780  225.2650 C   0  0  0  0  0  0  0  0  0  0  0  0
  140.6020   71.3050  226.6410 C   0  0  0  0  0  0  0  0  0  0  0  0
  140.4810   69.8300  226.5850 C   0  0  0  0  0  0  0  0  0  0  0  0
  141.0910   69.0220  227.5360 C   0  0  0  0  0  0  0  0  0  0  0  0
  140.9740   67.6340  227.4830 C   0  0  0  0  0  0  0  0  0  0  0  0
  140.2450   67.0260  226.4780 C   0  0  0  0  0  0  0  0  0  0  0  0
  139.6350   67.8320  225.5270 C   0  0  0  0  0  0  0  0  0  0  0  0
  139.7590   69.2230  225.5910 C   0  0  0  0  0  0  0  0  0  0  0  0
  139.0940   70.0250  224.5590 C   0  0  0  0  0  0  0  0  0  0  0  0
  139.4770   71.0740  221.8930 N   0  0  0  0  0  0  0  0  0  0  0  0
  141.3670   70.8450  218.9180 C   0  0  0  0  0  0  0  0  0  0  0  0
  143.9490   68.1650  219.2070 N   0  0  0  0  0  0  0  0  0  0  0  0
  146.1011   66.2494  220.0827 H   0  0  0  0  0  0  0  0  0  0  0  0
  145.2420   65.9679  218.5304 H   0  0  0  0  0  0  0  0  0  0  0  0
  146.8746   66.7171  218.5304 H   0  0  0  0  0  0  0  0  0  0  0  0
  147.2332   68.9684  219.1967 H   0  0  0  0  0  0  0  0  0  0  0  0
  146.1746   71.2569  219.3645 H   0  0  0  0  0  0  0  0  0  0  0  0
  141.7569   67.6366  220.0003 H   0  0  0  0  0  0  0  0  0  0  0  0
  140.6509   68.8640  220.7464 H   0  0  0  0  0  0  0  0  0  0  0  0
  140.3422   67.2565  218.2840 H   0  0  0  0  0  0  0  0  0  0  0  0
  139.1104   68.0369  219.3691 H   0  0  0  0  0  0  0  0  0  0  0  0
  140.5866   69.1730  217.0119 H   0  0  0  0  0  0  0  0  0  0  0  0
  138.8176   69.1578  217.3951 H   0  0  0  0  0  0  0  0  0  0  0  0
  139.6579   71.3490  217.6616 H   0  0  0  0  0  0  0  0  0  0  0  0
  138.1150   70.3720  219.6190 H   0  0  0  0  0  0  0  0  0  0  0  0
  142.4570   75.2514  221.5983 H   0  0  0  0  0  0  0  0  0  0  0  0
  141.7760   74.7899  219.9688 H   0  0  0  0  0  0  0  0  0  0  0  0
  142.8009   77.1939  220.4807 H   0  0  0  0  0  0  0  0  0  0  0  0
  141.4046   76.8936  219.3491 H   0  0  0  0  0  0  0  0  0  0  0  0
  141.7984   77.9524  223.6847 H   0  0  0  0  0  0  0  0  0  0  0  0
  142.5464   80.0057  224.8251 H   0  0  0  0  0  0  0  0  0  0  0  0
  142.5351   82.1912  223.5997 H   0  0  0  0  0  0  0  0  0  0  0  0
  141.7540   82.1760  221.2269 H   0  0  0  0  0  0  0  0  0  0  0  0
  138.9503   78.1580  221.8049 H   0  0  0  0  0  0  0  0  0  0  0  0
  139.0411   77.3542  220.2288 H   0  0  0  0  0  0  0  0  0  0  0  0
  139.6031   76.2427  222.9924 H   0  0  0  0  0  0  0  0  0  0  0  0
  138.4428   75.6577  221.6951 H   0  0  0  0  0  0  0  0  0  0  0  0
  141.7437   71.8039  224.9320 H   0  0  0  0  0  0  0  0  0  0  0  0
  140.3456   72.9181  225.3288 H   0  0  0  0  0  0  0  0  0  0  0  0
  141.5062   71.5721  227.2076 H   0  0  0  0  0  0  0  0  0  0  0  0
  139.7084   71.7153  227.1341 H   0  0  0  0  0  0  0  0  0  0  0  0
  141.6761   69.4851  228.3443 H   0  0  0  0  0  0  0  0  0  0  0  0
  141.4666   67.0164  228.2484 H   0  0  0  0  0  0  0  0  0  0  0  0
  140.1508   65.9310  226.4332 H   0  0  0  0  0  0  0  0  0  0  0  0
  139.0495   67.3729  224.7168 H   0  0  0  0  0  0  0  0  0  0  0  0
  139.0068   69.4331  223.6359 H   0  0  0  0  0  0  0  0  0  0  0  0
  138.0919   70.3118  224.9106 H   0  0  0  0  0  0  0  0  0  0  0  0
  141.9575   71.2782  218.0973 H   0  0  0  0  0  0  0  0  0  0  0  0
  141.3397   71.5239  219.7831 H   0  0  0  0  0  0  0  0  0  0  0  0
  1  2  1  0
  2  3  2  0
  3  4  1  0
  4  5  2  0
  5  6  1  0
  6  7  1  0
  7  8  1  0
  8  9  1  0
  9 10  1  0
 10 11  1  0
 11 12  1  0
 12 13  1  0
 13 14  2  0
 14 15  1  0
 15 16  1  0
 16 17  1  0
 17 18  1  0
 18 19  1  0
 19 20  1  0
 20 21  2  0
 21 22  1  0
 22 23  2  0
 23 24  1  0
 24 25  2  0
 19 26  1  0
 26 27  1  0
 15 28  2  0
 28 29  1  0
 29 30  1  0
 30 31  1  0
 31 32  1  0
 32 33  1  0
 33 34  2  0
 34 35  1  0
 35 36  2  0
 36 37  1  0
 37 38  2  0
 38 39  1  0
 29 40  2  0
 11 41  1  0
  6 42  2  0
 42  2  1  0
 41  7  1  0
 40 13  1  0
 27 16  1  0
 39 30  1  0
 25 20  1  0
 38 33  1  0
  1 43  1  0
  1 44  1  0
  1 45  1  0
  3 46  1  0
  4 47  1  0
  8 48  1  0
  8 49  1  0
  9 50  1  0
  9 51  1  0
 10 52  1  0
 10 53  1  0
 11 54  1  6
 12 55  1  0
 17 56  1  0
 17 57  1  0
 18 58  1  0
 18 59  1  0
 21 60  1  0
 22 61  1  0
 23 62  1  0
 24 63  1  0
 26 64  1  0
 26 65  1  0
 27 66  1  0
 27 67  1  0
 31 68  1  0
 31 69  1  0
 32 70  1  0
 32 71  1  0
 34 72  1  0
 35 73  1  0
 36 74  1  0
 37 75  1  0
 39 76  1  0
 39 77  1  0
 41 78  1  0
 41 79  1  0
M  END
>  <smiles>  (61) 
Cc1ccnc(N2CCCC(Nc3nc(N4CCN(c5ccccn5)CC4)nc(N4CCc5ccccc5C4)n3)C2)n1

>  <score_type>  (61) 
oracle

>  <origin>  (61) 
autodockgpu

>  <m_score__min__energy>  (61) 
-10.06

>  <m_primary>  (61) 
energy

>  <rmsd>  (61) 
7.650593678004626

>  <m_score__min__rmsd>  (61) 
7.650593678004626

>  <meeko>  (61) 
{"free_energy": -9.96, "intermolecular_energy": -11.75, "internal_energy": -1.67, "cluster_size": 16, "cluster_id": 1, "rank_in_cluster": 7}

>  <energy>  (61) 
-9.93

>  <cluster_rmsd>  (61) 
0.6

>  <cluster>  (61) 
1

$$$$

     RDKit          3D

 79 85  0  0  1  0  0  0  0  0999 V2000
  140.3300   68.6700  228.4360 C   0  0  0  0  0  0  0  0  0  0  0  0
  140.4010   69.8050  227.4770 C   0  0  0  0  0  0  0  0  0  0  0  0
  141.0470   70.9550  227.8820 C   0  0  0  0  0  0  0  0  0  0  0  0
  141.1100   72.0170  226.9740 C   0  0  0  0  0  0  0  0  0  0  0  0
  140.5380   71.8700  225.7500 N   0  0  0  0  0  0  0  0  0  0  0  0
  139.9120   70.7500  225.3660 C   0  0  0  0  0  0  0  0  0  0  0  0
  139.3530   70.7150  224.0590 N   0  0  0  0  0  0  0  0  0  0  0  0
  138.0260   70.1530  223.8990 C   0  0  0  0  0  0  0  0  0  0  0  0
  138.0070   69.0410  222.8610 C   0  0  0  0  0  0  0  0  0  0  0  0
  139.2040   69.0850  221.9590 C   0  0  0  0  0  0  0  0  0  0  0  0
  139.5890   70.5060  221.6280 C   0  0  1  0  0  0  0  0  0  0  0  0
  138.5210   71.2800  221.0530 N   0  0  0  0  0  0  0  0  0  0  0  0
  138.0930   72.5270  221.6250 C   0  0  0  0  0  0  0  0  0  0  0  0
  138.8350   73.6470  221.5270 N   0  0  0  0  0  0  0  0  0  0  0  0
  138.4120   74.8140  222.0740 C   0  0  0  0  0  0  0  0  0  0  0  0
  139.1970   76.0100  221.9740 N   0  0  0  0  0  0  0  0  0  0  0  0
  140.5750   75.8610  221.6100 C   0  0  0  0  0  0  0  0  0  0  0  0
  141.2160   77.1510  221.1570 C   0  0  0  0  0  0  0  0  0  0  0  0
  140.6170   78.3080  221.7490 N   0  0  0  0  0  0  0  0  0  0  0  0
  141.2910   79.3070  222.4770 C   0  0  0  0  0  0  0  0  0  0  0  0
  140.6350   80.2950  223.1830 C   0  0  0  0  0  0  0  0  0  0  0  0
  141.3130   81.2700  223.8960 C   0  0  0  0  0  0  0  0  0  0  0  0
  142.6890   81.2790  223.9160 C   0  0  0  0  0  0  0  0  0  0  0  0
  143.3220   80.2760  223.1980 C   0  0  0  0  0  0  0  0  0  0  0  0
  142.6390   79.3420  222.5160 N   0  0  0  0  0  0  0  0  0  0  0  0
  139.1610   78.4510  221.5700 C   0  0  0  0  0  0  0  0  0  0  0  0
  138.5460   77.2720  222.2480 C   0  0  0  0  0  0  0  0  0  0  0  0
  137.2270   74.7760  222.7030 N   0  0  0  0  0  0  0  0  0  0  0  0
  136.4590   73.6800  222.8200 C   0  0  0  0  0  0  0  0  0  0  0  0
  135.2010   73.7420  223.5180 N   0  0  0  0  0  0  0  0  0  0  0  0
  134.6400   75.0510  223.7360 C   0  0  0  0  0  0  0  0  0  0  0  0
  133.2760   75.0340  224.3440 C   0  0  0  0  0  0  0  0  0  0  0  0
  133.1660   73.9530  225.3510 C   0  0  0  0  0  0  0  0  0  0  0  0
  132.4270   74.1260  226.5140 C   0  0  0  0  0  0  0  0  0  0  0  0
  132.3230   73.1070  227.4600 C   0  0  0  0  0  0  0  0  0  0  0  0
  132.9560   71.8950  227.2610 C   0  0  0  0  0  0  0  0  0  0  0  0
  133.6960   71.7200  226.0990 C   0  0  0  0  0  0  0  0  0  0  0  0
  133.7920   72.7500  225.1590 C   0  0  0  0  0  0  0  0  0  0  0  0
  134.5870   72.5090  223.9500 C   0  0  0  0  0  0  0  0  0  0  0  0
  136.9140   72.5430  222.2660 N   0  0  0  0  0  0  0  0  0  0  0  0
  140.0470   71.2120  222.8840 C   0  0  0  0  0  0  0  0  0  0  0  0
  139.8510   69.7320  226.2310 N   0  0  0  0  0  0  0  0  0  0  0  0
  140.3542   69.0575  229.4652 H   0  0  0  0  0  0  0  0  0  0  0  0
  139.3952   68.1127  228.2760 H   0  0  0  0  0  0  0  0  0  0  0  0
  141.1880   68.0005  228.2760 H   0  0  0  0  0  0  0  0  0  0  0  0
  141.4963   71.0338  228.8830 H   0  0  0  0  0  0  0  0  0  0  0  0
  141.6143   72.9559  227.2462 H   0  0  0  0  0  0  0  0  0  0  0  0
  137.6929   69.7449  224.8647 H   0  0  0  0  0  0  0  0  0  0  0  0
  137.3538   70.9534  223.5562 H   0  0  0  0  0  0  0  0  0  0  0  0
  137.9912   68.0718  223.3810 H   0  0  0  0  0  0  0  0  0  0  0  0
  137.1106   69.1770  222.2381 H   0  0  0  0  0  0  0  0  0  0  0  0
  140.0495   68.5924  222.4614 H   0  0  0  0  0  0  0  0  0  0  0  0
  138.9521   68.5663  221.0222 H   0  0  0  0  0  0  0  0  0  0  0  0
  140.3901   70.4331  220.8777 H   0  0  0  0  0  0  0  0  0  0  0  0
  138.0020   70.9660  220.1840 H   0  0  0  0  0  0  0  0  0  0  0  0
  141.1279   75.4841  222.4831 H   0  0  0  0  0  0  0  0  0  0  0  0
  140.6141   75.1622  220.7614 H   0  0  0  0  0  0  0  0  0  0  0  0
  142.2813   77.1285  221.4302 H   0  0  0  0  0  0  0  0  0  0  0  0
  141.0742   77.2259  220.0688 H   0  0  0  0  0  0  0  0  0  0  0  0
  139.5351   80.3086  223.1793 H   0  0  0  0  0  0  0  0  0  0  0  0
  140.7507   82.0382  224.4470 H   0  0  0  0  0  0  0  0  0  0  0  0
  143.2559   82.0406  224.4715 H   0  0  0  0  0  0  0  0  0  0  0  0
  144.4215   80.2441  223.1865 H   0  0  0  0  0  0  0  0  0  0  0  0
  138.8088   79.3848  222.0327 H   0  0  0  0  0  0  0  0  0  0  0  0
  138.8878   78.4916  220.5053 H   0  0  0  0  0  0  0  0  0  0  0  0
  138.5784   77.4457  223.3337 H   0  0  0  0  0  0  0  0  0  0  0  0
  137.5226   77.1858  221.8539 H   0  0  0  0  0  0  0  0  0  0  0  0
  135.3109   75.6074  224.4071 H   0  0  0  0  0  0  0  0  0  0  0  0
  134.5419   75.5237  222.7476 H   0  0  0  0  0  0  0  0  0  0  0  0
  133.0853   76.0019  224.8307 H   0  0  0  0  0  0  0  0  0  0  0  0
  132.5365   74.8545  223.5497 H   0  0  0  0  0  0  0  0  0  0  0  0
  131.9150   75.0832  226.6919 H   0  0  0  0  0  0  0  0  0  0  0  0
  131.7316   73.2695  228.3732 H   0  0  0  0  0  0  0  0  0  0  0  0
  132.8757   71.0885  228.0048 H   0  0  0  0  0  0  0  0  0  0  0  0
  134.2099   70.7646  225.9171 H   0  0  0  0  0  0  0  0  0  0  0  0
  135.3697   71.7677  224.1687 H   0  0  0  0  0  0  0  0  0  0  0  0
  133.9314   72.1294  223.1524 H   0  0  0  0  0  0  0  0  0  0  0  0
  141.1273   71.0489  223.0117 H   0  0  0  0  0  0  0  0  0  0  0  0
  139.8217   72.2835  222.7784 H   0  0  0  0  0  0  0  0  0  0  0  0
  1  2  1  0
  2  3  2  0
  3  4  1  0
  4  5  2  0
  5  6  1  0
  6  7  1  0
  7  8  1  0
  8  9  1  0
  9 10  1  0
 10 11  1  0
 11 12  1  0
 12 13  1  0
 13 14  2  0
 14 15  1  0
 15 16  1  0
 16 17  1  0
 17 18  1  0
 18 19  1  0
 19 20  1  0
 20 21  2  0
 21 22  1  0
 22 23  2  0
 23 24  1  0
 24 25  2  0
 19 26  1  0
 26 27  1  0
 15 28  2  0
 28 29  1  0
 29 30  1  0
 30 31  1  0
 31 32  1  0
 32 33  1  0
 33 34  2  0
 34 35  1  0
 35 36  2  0
 36 37  1  0
 37 38  2  0
 38 39  1  0
 29 40  2  0
 11 41  1  0
  6 42  2  0
 42  2  1  0
 41  7  1  0
 40 13  1  0
 27 16  1  0
 39 30  1  0
 25 20  1  0
 38 33  1  0
  1 43  1  0
  1 44  1  0
  1 45  1  0
  3 46  1  0
  4 47  1  0
  8 48  1  0
  8 49  1  0
  9 50  1  0
  9 51  1  0
 10 52  1  0
 10 53  1  0
 11 54  1  6
 12 55  1  0
 17 56  1  0
 17 57  1  0
 18 58  1  0
 18 59  1  0
 21 60  1  0
 22 61  1  0
 23 62  1  0
 24 63  1  0
 26 64  1  0
 26 65  1  0
 27 66  1  0
 27 67  1  0
 31 68  1  0
 31 69  1  0
 32 70  1  0
 32 71  1  0
 34 72  1  0
 35 73  1  0
 36 74  1  0
 37 75  1  0
 39 76  1  0
 39 77  1  0
 41 78  1  0
 41 79  1  0
M  END
>  <smiles>  (62) 
Cc1ccnc(N2CCCC(Nc3nc(N4CCN(c5ccccn5)CC4)nc(N4CCc5ccccc5C4)n3)C2)n1

>  <score_type>  (62) 
oracle

>  <origin>  (62) 
autodockgpu

>  <m_score__min__energy>  (62) 
-10.06

>  <m_primary>  (62) 
energy

>  <rmsd>  (62) 
8.065449249697256

>  <m_score__min__rmsd>  (62) 
8.065449249697256

>  <meeko>  (62) 
{"free_energy": -9.5, "intermolecular_energy": -11.29, "internal_energy": -1.87, "cluster_size": 12, "cluster_id": 3, "rank_in_cluster": 7}

>  <energy>  (62) 
-9.92

>  <cluster_rmsd>  (62) 
0.54

>  <cluster>  (62) 
1

$$$$

     RDKit          3D

 79 85  0  0  1  0  0  0  0  0999 V2000
  141.0700   71.1200  227.1940 C   0  0  0  0  0  0  0  0  0  0  0  0
  140.1930   70.2220  226.3950 C   0  0  0  0  0  0  0  0  0  0  0  0
  140.2480   68.8680  226.6520 C   0  0  0  0  0  0  0  0  0  0  0  0
  139.4200   68.0300  225.8960 C   0  0  0  0  0  0  0  0  0  0  0  0
  138.6110   68.5820  224.9540 N   0  0  0  0  0  0  0  0  0  0  0  0
  138.5660   69.8990  224.7120 C   0  0  0  0  0  0  0  0  0  0  0  0
  137.6770   70.3580  223.7000 N   0  0  0  0  0  0  0  0  0  0  0  0
  136.2930   69.9330  223.7640 C   0  0  0  0  0  0  0  0  0  0  0  0
  135.8460   69.2740  222.4680 C   0  0  0  0  0  0  0  0  0  0  0  0
  136.7510   69.6060  221.3200 C   0  0  0  0  0  0  0  0  0  0  0  0
  137.2220   71.0380  221.3890 C   0  0  1  0  0  0  0  0  0  0  0  0
  136.1540   72.0000  221.4570 N   0  0  0  0  0  0  0  0  0  0  0  0
  136.2490   73.1850  222.2630 C   0  0  0  0  0  0  0  0  0  0  0  0
  137.1320   74.1650  221.9890 N   0  0  0  0  0  0  0  0  0  0  0  0
  137.2040   75.2760  222.7620 C   0  0  0  0  0  0  0  0  0  0  0  0
  138.1420   76.3230  222.4760 N   0  0  0  0  0  0  0  0  0  0  0  0
  139.4240   75.9330  221.9700 C   0  0  0  0  0  0  0  0  0  0  0  0
  140.1900   77.0720  221.3420 C   0  0  0  0  0  0  0  0  0  0  0  0
  139.8530   78.3460  221.9020 N   0  0  0  0  0  0  0  0  0  0  0  0
  140.7560   79.2680  222.4640 C   0  0  0  0  0  0  0  0  0  0  0  0
  142.1260   79.1480  222.3400 C   0  0  0  0  0  0  0  0  0  0  0  0
  143.0020   80.0650  222.8980 C   0  0  0  0  0  0  0  0  0  0  0  0
  142.5170   81.1410  223.6070 C   0  0  0  0  0  0  0  0  0  0  0  0
  141.1380   81.2360  223.7150 C   0  0  0  0  0  0  0  0  0  0  0  0
  140.3110   80.3320  223.1620 N   0  0  0  0  0  0  0  0  0  0  0  0
  138.4240   78.7080  221.8810 C   0  0  0  0  0  0  0  0  0  0  0  0
  137.7280   77.6870  222.7190 C   0  0  0  0  0  0  0  0  0  0  0  0
  136.3520   75.3310  223.7980 N   0  0  0  0  0  0  0  0  0  0  0  0
  135.4580   74.3750  224.1030 C   0  0  0  0  0  0  0  0  0  0  0  0
  134.5870   74.5280  225.2390 N   0  0  0  0  0  0  0  0  0  0  0  0
  133.5130   73.5770  225.3720 C   0  0  0  0  0  0  0  0  0  0  0  0
  132.7320   73.7140  226.6370 C   0  0  0  0  0  0  0  0  0  0  0  0
  132.5690   75.1410  226.9990 C   0  0  0  0  0  0  0  0  0  0  0  0
  131.3950   75.6060  227.5780 C   0  0  0  0  0  0  0  0  0  0  0  0
  131.2420   76.9490  227.9190 C   0  0  0  0  0  0  0  0  0  0  0  0
  132.2620   77.8540  227.6880 C   0  0  0  0  0  0  0  0  0  0  0  0
  133.4360   77.3910  227.1090 C   0  0  0  0  0  0  0  0  0  0  0  0
  133.5750   76.0420  226.7720 C   0  0  0  0  0  0  0  0  0  0  0  0
  134.8380   75.6090  226.1620 C   0  0  0  0  0  0  0  0  0  0  0  0
  135.4180   73.2890  223.3130 N   0  0  0  0  0  0  0  0  0  0  0  0
  138.0920   71.2250  222.6120 C   0  0  0  0  0  0  0  0  0  0  0  0
  139.3540   70.7030  225.4330 N   0  0  0  0  0  0  0  0  0  0  0  0
  140.8970   70.9429  228.2658 H   0  0  0  0  0  0  0  0  0  0  0  0
  142.1232   70.9130  226.9535 H   0  0  0  0  0  0  0  0  0  0  0  0
  140.8381   72.1680  226.9535 H   0  0  0  0  0  0  0  0  0  0  0  0
  140.9185   68.4613  227.4234 H   0  0  0  0  0  0  0  0  0  0  0  0
  139.4241   66.9426  226.0617 H   0  0  0  0  0  0  0  0  0  0  0  0
  136.1790   69.2130  224.5878 H   0  0  0  0  0  0  0  0  0  0  0  0
  135.6683   70.8233  223.9291 H   0  0  0  0  0  0  0  0  0  0  0  0
  135.8396   68.1832  222.6096 H   0  0  0  0  0  0  0  0  0  0  0  0
  134.8422   69.6533  222.2261 H   0  0  0  0  0  0  0  0  0  0  0  0
  137.6256   68.9394  221.3489 H   0  0  0  0  0  0  0  0  0  0  0  0
  136.1887   69.4703  220.3844 H   0  0  0  0  0  0  0  0  0  0  0  0
  137.7743   71.2187  220.4550 H   0  0  0  0  0  0  0  0  0  0  0  0
  135.2510   71.8770  220.9160 H   0  0  0  0  0  0  0  0  0  0  0  0
  140.0194   75.5286  222.8019 H   0  0  0  0  0  0  0  0  0  0  0  0
  139.2496   75.1847  221.1828 H   0  0  0  0  0  0  0  0  0  0  0  0
  141.2655   76.8963  221.4916 H   0  0  0  0  0  0  0  0  0  0  0  0
  139.9242   77.0998  220.2749 H   0  0  0  0  0  0  0  0  0  0  0  0
  142.5359   78.2952  221.7790 H   0  0  0  0  0  0  0  0  0  0  0  0
  144.0870   79.9331  222.7743 H   0  0  0  0  0  0  0  0  0  0  0  0
  143.1871   81.8847  224.0629 H   0  0  0  0  0  0  0  0  0  0  0  0
  140.7058   82.0801  224.2724 H   0  0  0  0  0  0  0  0  0  0  0  0
  138.2782   79.7131  222.3036 H   0  0  0  0  0  0  0  0  0  0  0  0
  138.0278   78.7248  220.8549 H   0  0  0  0  0  0  0  0  0  0  0  0
  137.9222   77.9210  223.7761 H   0  0  0  0  0  0  0  0  0  0  0  0
  136.6620   77.7406  222.4531 H   0  0  0  0  0  0  0  0  0  0  0  0
  132.8248   73.7121  224.5246 H   0  0  0  0  0  0  0  0  0  0  0  0
  133.9735   72.5782  225.3896 H   0  0  0  0  0  0  0  0  0  0  0  0
  131.7393   73.2606  226.4995 H   0  0  0  0  0  0  0  0  0  0  0  0
  133.2757   73.2036  227.4456 H   0  0  0  0  0  0  0  0  0  0  0  0
  130.5718   74.9023  227.7708 H   0  0  0  0  0  0  0  0  0  0  0  0
  130.3019   77.2919  228.3758 H   0  0  0  0  0  0  0  0  0  0  0  0
  132.1460   78.9144  227.9564 H   0  0  0  0  0  0  0  0  0  0  0  0
  134.2621   78.0907  226.9143 H   0  0  0  0  0  0  0  0  0  0  0  0
  135.2915   76.4531  225.6219 H   0  0  0  0  0  0  0  0  0  0  0  0
  135.5235   75.2635  226.9499 H   0  0  0  0  0  0  0  0  0  0  0  0
  139.1342   70.9925  222.3478 H   0  0  0  0  0  0  0  0  0  0  0  0
  137.9953   72.2683  222.9471 H   0  0  0  0  0  0  0  0  0  0  0  0
  1  2  1  0
  2  3  2  0
  3  4  1  0
  4  5  2  0
  5  6  1  0
  6  7  1  0
  7  8  1  0
  8  9  1  0
  9 10  1  0
 10 11  1  0
 11 12  1  0
 12 13  1  0
 13 14  2  0
 14 15  1  0
 15 16  1  0
 16 17  1  0
 17 18  1  0
 18 19  1  0
 19 20  1  0
 20 21  2  0
 21 22  1  0
 22 23  2  0
 23 24  1  0
 24 25  2  0
 19 26  1  0
 26 27  1  0
 15 28  2  0
 28 29  1  0
 29 30  1  0
 30 31  1  0
 31 32  1  0
 32 33  1  0
 33 34  2  0
 34 35  1  0
 35 36  2  0
 36 37  1  0
 37 38  2  0
 38 39  1  0
 29 40  2  0
 11 41  1  0
  6 42  2  0
 42  2  1  0
 41  7  1  0
 40 13  1  0
 27 16  1  0
 39 30  1  0
 25 20  1  0
 38 33  1  0
  1 43  1  0
  1 44  1  0
  1 45  1  0
  3 46  1  0
  4 47  1  0
  8 48  1  0
  8 49  1  0
  9 50  1  0
  9 51  1  0
 10 52  1  0
 10 53  1  0
 11 54  1  6
 12 55  1  0
 17 56  1  0
 17 57  1  0
 18 58  1  0
 18 59  1  0
 21 60  1  0
 22 61  1  0
 23 62  1  0
 24 63  1  0
 26 64  1  0
 26 65  1  0
 27 66  1  0
 27 67  1  0
 31 68  1  0
 31 69  1  0
 32 70  1  0
 32 71  1  0
 34 72  1  0
 35 73  1  0
 36 74  1  0
 37 75  1  0
 39 76  1  0
 39 77  1  0
 41 78  1  0
 41 79  1  0
M  END
>  <smiles>  (63) 
Cc1ccnc(N2CCCC(Nc3nc(N4CCN(c5ccccn5)CC4)nc(N4CCc5ccccc5C4)n3)C2)n1

>  <score_type>  (63) 
oracle

>  <origin>  (63) 
autodockgpu

>  <m_score__min__energy>  (63) 
-10.06

>  <m_primary>  (63) 
energy

>  <rmsd>  (63) 
7.982099938428227

>  <m_score__min__rmsd>  (63) 
7.982099938428227

>  <meeko>  (63) 
{"free_energy": -9.29, "intermolecular_energy": -11.08, "internal_energy": -1.72, "cluster_size": 12, "cluster_id": 3, "rank_in_cluster": 9}

>  <energy>  (63) 
-9.91

>  <cluster_rmsd>  (63) 
0.34

>  <cluster>  (63) 
1

$$$$

     RDKit          3D

 79 85  0  0  1  0  0  0  0  0999 V2000
  133.8790   71.1800  227.0390 C   0  0  0  0  0  0  0  0  0  0  0  0
  133.9440   72.3310  226.0980 C   0  0  0  0  0  0  0  0  0  0  0  0
  133.4270   73.5390  226.5160 C   0  0  0  0  0  0  0  0  0  0  0  0
  133.4910   74.6160  225.6260 C   0  0  0  0  0  0  0  0  0  0  0  0
  134.0530   74.4250  224.4030 N   0  0  0  0  0  0  0  0  0  0  0  0
  134.5520   73.2470  224.0060 C   0  0  0  0  0  0  0  0  0  0  0  0
  135.1160   73.1700  222.7020 N   0  0  0  0  0  0  0  0  0  0  0  0
  135.4780   74.4090  222.0410 C   0  0  0  0  0  0  0  0  0  0  0  0
  134.8240   74.5300  220.6730 C   0  0  0  0  0  0  0  0  0  0  0  0
  134.3460   73.2070  220.1530 C   0  0  0  0  0  0  0  0  0  0  0  0
  135.3070   72.0990  220.5050 C   0  0  1  0  0  0  0  0  0  0  0  0
  136.6550   72.3340  220.0600 N   0  0  0  0  0  0  0  0  0  0  0  0
  137.6950   72.7390  220.9650 C   0  0  0  0  0  0  0  0  0  0  0  0
  138.2330   73.9740  220.9260 N   0  0  0  0  0  0  0  0  0  0  0  0
  139.2130   74.3360  221.7910 C   0  0  0  0  0  0  0  0  0  0  0  0
  139.7900   75.6480  221.7540 N   0  0  0  0  0  0  0  0  0  0  0  0
  141.1450   75.7550  221.3010 C   0  0  0  0  0  0  0  0  0  0  0  0
  141.5420   77.1630  220.9290 C   0  0  0  0  0  0  0  0  0  0  0  0
  140.8110   78.1580  221.6540 N   0  0  0  0  0  0  0  0  0  0  0  0
  141.3680   79.1920  222.4290 C   0  0  0  0  0  0  0  0  0  0  0  0
  142.7290   79.3870  222.5570 C   0  0  0  0  0  0  0  0  0  0  0  0
  143.2620   80.4110  223.3230 C   0  0  0  0  0  0  0  0  0  0  0  0
  142.4280   81.2790  223.9910 C   0  0  0  0  0  0  0  0  0  0  0  0
  141.0670   81.0610  223.8440 C   0  0  0  0  0  0  0  0  0  0  0  0
  140.5780   80.0590  223.0940 N   0  0  0  0  0  0  0  0  0  0  0  0
  139.3420   78.0740  221.5710 C   0  0  0  0  0  0  0  0  0  0  0  0
  138.9690   76.7610  222.1750 C   0  0  0  0  0  0  0  0  0  0  0  0
  139.6000   73.4000  222.6700 N   0  0  0  0  0  0  0  0  0  0  0  0
  139.0870   72.1590  222.7400 C   0  0  0  0  0  0  0  0  0  0  0  0
  139.5730   71.2250  223.7230 N   0  0  0  0  0  0  0  0  0  0  0  0
  138.8970   69.9560  223.8070 C   0  0  0  0  0  0  0  0  0  0  0  0
  139.5330   68.9890  224.7510 C   0  0  0  0  0  0  0  0  0  0  0  0
  140.0440   69.6900  225.9520 C   0  0  0  0  0  0  0  0  0  0  0  0
  139.9790   69.1020  227.2090 C   0  0  0  0  0  0  0  0  0  0  0  0
  140.4610   69.7630  228.3380 C   0  0  0  0  0  0  0  0  0  0  0  0
  141.0180   71.0230  228.2320 C   0  0  0  0  0  0  0  0  0  0  0  0
  141.0830   71.6130  226.9770 C   0  0  0  0  0  0  0  0  0  0  0  0
  140.5960   70.9390  225.8520 C   0  0  0  0  0  0  0  0  0  0  0  0
  140.6900   71.6100  224.5510 C   0  0  0  0  0  0  0  0  0  0  0  0
  138.1190   71.8390  221.8660 N   0  0  0  0  0  0  0  0  0  0  0  0
  135.3410   71.9160  222.0060 C   0  0  0  0  0  0  0  0  0  0  0  0
  134.4930   72.2160  224.8540 N   0  0  0  0  0  0  0  0  0  0  0  0
  133.9000   71.5512  228.0743 H   0  0  0  0  0  0  0  0  0  0  0  0
  132.9478   70.6197  226.8691 H   0  0  0  0  0  0  0  0  0  0  0  0
  134.7412   70.5184  226.8691 H   0  0  0  0  0  0  0  0  0  0  0  0
  132.9798   73.6517  227.5147 H   0  0  0  0  0  0  0  0  0  0  0  0
  133.0932   75.6012  225.9109 H   0  0  0  0  0  0  0  0  0  0  0  0
  135.1547   75.2541  222.6665 H   0  0  0  0  0  0  0  0  0  0  0  0
  136.5690   74.4163  221.9008 H   0  0  0  0  0  0  0  0  0  0  0  0
  133.9640   75.2114  220.7508 H   0  0  0  0  0  0  0  0  0  0  0  0
  135.5787   74.9151  219.9715 H   0  0  0  0  0  0  0  0  0  0  0  0
  133.3636   72.9826  220.5941 H   0  0  0  0  0  0  0  0  0  0  0  0
  134.2759   73.2700  219.0570 H   0  0  0  0  0  0  0  0  0  0  0  0
  134.9354   71.2030  219.9863 H   0  0  0  0  0  0  0  0  0  0  0  0
  136.9410   72.2200  219.0460 H   0  0  0  0  0  0  0  0  0  0  0  0
  141.8101   75.4057  222.1045 H   0  0  0  0  0  0  0  0  0  0  0  0
  141.2337   75.1412  220.3925 H   0  0  0  0  0  0  0  0  0  0  0  0
  142.6140   77.2925  221.1390 H   0  0  0  0  0  0  0  0  0  0  0  0
  141.3147   77.2989  219.8614 H   0  0  0  0  0  0  0  0  0  0  0  0
  143.4143   78.7051  222.0322 H   0  0  0  0  0  0  0  0  0  0  0  0
  144.3529   80.5306  223.3975 H   0  0  0  0  0  0  0  0  0  0  0  0
  142.8203   82.1009  224.6079 H   0  0  0  0  0  0  0  0  0  0  0  0
  140.3631   81.7313  224.3590 H   0  0  0  0  0  0  0  0  0  0  0  0
  138.8798   78.8984  222.1338 H   0  0  0  0  0  0  0  0  0  0  0  0
  138.9926   78.1523  220.5309 H   0  0  0  0  0  0  0  0  0  0  0  0
  139.0489   76.8516  223.2683 H   0  0  0  0  0  0  0  0  0  0  0  0
  137.9471   76.5405  221.8329 H   0  0  0  0  0  0  0  0  0  0  0  0
  137.8642   70.1359  224.1402 H   0  0  0  0  0  0  0  0  0  0  0  0
  138.9469   69.5025  222.8061 H   0  0  0  0  0  0  0  0  0  0  0  0
  138.7873   68.2413  225.0591 H   0  0  0  0  0  0  0  0  0  0  0  0
  140.3759   68.4992  224.2415 H   0  0  0  0  0  0  0  0  0  0  0  0
  139.5403   68.0989  227.3152 H   0  0  0  0  0  0  0  0  0  0  0  0
  140.3972   69.2767  229.3226 H   0  0  0  0  0  0  0  0  0  0  0  0
  141.4008   71.5461  229.1207 H   0  0  0  0  0  0  0  0  0  0  0  0
  141.5200   72.6164  226.8666 H   0  0  0  0  0  0  0  0  0  0  0  0
  140.6762   72.6998  224.6999 H   0  0  0  0  0  0  0  0  0  0  0  0
  141.6278   71.3163  224.0568 H   0  0  0  0  0  0  0  0  0  0  0  0
  134.5573   71.2008  222.2964 H   0  0  0  0  0  0  0  0  0  0  0  0
  136.3370   71.5415  222.2847 H   0  0  0  0  0  0  0  0  0  0  0  0
  1  2  1  0
  2  3  2  0
  3  4  1  0
  4  5  2  0
  5  6  1  0
  6  7  1  0
  7  8  1  0
  8  9  1  0
  9 10  1  0
 10 11  1  0
 11 12  1  0
 12 13  1  0
 13 14  2  0
 14 15  1  0
 15 16  1  0
 16 17  1  0
 17 18  1  0
 18 19  1  0
 19 20  1  0
 20 21  2  0
 21 22  1  0
 22 23  2  0
 23 24  1  0
 24 25  2  0
 19 26  1  0
 26 27  1  0
 15 28  2  0
 28 29  1  0
 29 30  1  0
 30 31  1  0
 31 32  1  0
 32 33  1  0
 33 34  2  0
 34 35  1  0
 35 36  2  0
 36 37  1  0
 37 38  2  0
 38 39  1  0
 29 40  2  0
 11 41  1  0
  6 42  2  0
 42  2  1  0
 41  7  1  0
 40 13  1  0
 27 16  1  0
 39 30  1  0
 25 20  1  0
 38 33  1  0
  1 43  1  0
  1 44  1  0
  1 45  1  0
  3 46  1  0
  4 47  1  0
  8 48  1  0
  8 49  1  0
  9 50  1  0
  9 51  1  0
 10 52  1  0
 10 53  1  0
 11 54  1  6
 12 55  1  0
 17 56  1  0
 17 57  1  0
 18 58  1  0
 18 59  1  0
 21 60  1  0
 22 61  1  0
 23 62  1  0
 24 63  1  0
 26 64  1  0
 26 65  1  0
 27 66  1  0
 27 67  1  0
 31 68  1  0
 31 69  1  0
 32 70  1  0
 32 71  1  0
 34 72  1  0
 35 73  1  0
 36 74  1  0
 37 75  1  0
 39 76  1  0
 39 77  1  0
 41 78  1  0
 41 79  1  0
M  END
>  <smiles>  (64) 
Cc1ccnc(N2CCCC(Nc3nc(N4CCN(c5ccccn5)CC4)nc(N4CCc5ccccc5C4)n3)C2)n1

>  <score_type>  (64) 
oracle

>  <origin>  (64) 
autodockgpu

>  <m_score__min__energy>  (64) 
-10.06

>  <m_primary>  (64) 
energy

>  <rmsd>  (64) 
7.903734569387565

>  <m_score__min__rmsd>  (64) 
7.903734569387565

>  <meeko>  (64) 
{"free_energy": -9.73, "intermolecular_energy": -11.52, "internal_energy": -1.69, "cluster_size": 18, "cluster_id": 4, "rank_in_cluster": 5}

>  <energy>  (64) 
-9.9

>  <cluster_rmsd>  (64) 
0.57

>  <cluster>  (64) 
1

$$$$

     RDKit          3D

 79 85  0  0  1  0  0  0  0  0999 V2000
  140.3840   68.1570  228.0030 C   0  0  0  0  0  0  0  0  0  0  0  0
  140.4510   69.4830  227.3330 C   0  0  0  0  0  0  0  0  0  0  0  0
  141.0950   70.5100  227.9920 C   0  0  0  0  0  0  0  0  0  0  0  0
  141.1530   71.7540  227.3550 C   0  0  0  0  0  0  0  0  0  0  0  0
  140.5780   71.8940  226.1310 N   0  0  0  0  0  0  0  0  0  0  0  0
  139.9540   70.8900  225.5000 C   0  0  0  0  0  0  0  0  0  0  0  0
  139.3920   71.1580  224.2210 N   0  0  0  0  0  0  0  0  0  0  0  0
  138.2190   70.4060  223.8210 C   0  0  0  0  0  0  0  0  0  0  0  0
  138.4260   69.7090  222.4840 C   0  0  0  0  0  0  0  0  0  0  0  0
  139.5650   70.2970  221.7070 C   0  0  0  0  0  0  0  0  0  0  0  0
  139.6210   71.7970  221.8650 C   0  0  1  0  0  0  0  0  0  0  0  0
  138.3980   72.4660  221.5100 N   0  0  0  0  0  0  0  0  0  0  0  0
  138.0870   73.7850  221.9860 C   0  0  0  0  0  0  0  0  0  0  0  0
  136.9550   74.0480  222.6670 N   0  0  0  0  0  0  0  0  0  0  0  0
  136.6810   75.3010  223.1090 C   0  0  0  0  0  0  0  0  0  0  0  0
  135.4780   75.5880  223.8340 N   0  0  0  0  0  0  0  0  0  0  0  0
  134.6680   76.6690  223.3570 C   0  0  0  0  0  0  0  0  0  0  0  0
  133.2670   76.6590  223.9190 C   0  0  0  0  0  0  0  0  0  0  0  0
  133.1890   76.0500  225.2110 N   0  0  0  0  0  0  0  0  0  0  0  0
  132.6580   76.6410  226.3730 C   0  0  0  0  0  0  0  0  0  0  0  0
  131.5010   76.1970  226.9820 C   0  0  0  0  0  0  0  0  0  0  0  0
  130.9920   76.7890  228.1260 C   0  0  0  0  0  0  0  0  0  0  0  0
  131.6420   77.8590  228.6970 C   0  0  0  0  0  0  0  0  0  0  0  0
  132.8010   78.2840  228.0660 C   0  0  0  0  0  0  0  0  0  0  0  0
  133.2720   77.6900  226.9560 N   0  0  0  0  0  0  0  0  0  0  0  0
  133.7180   74.6780  225.3160 C   0  0  0  0  0  0  0  0  0  0  0  0
  135.1710   74.7710  224.9870 C   0  0  0  0  0  0  0  0  0  0  0  0
  137.5970   76.2390  222.8260 N   0  0  0  0  0  0  0  0  0  0  0  0
  138.7370   76.0160  222.1510 C   0  0  0  0  0  0  0  0  0  0  0  0
  139.6580   77.0930  221.8980 N   0  0  0  0  0  0  0  0  0  0  0  0
  140.9310   76.7440  221.3210 C   0  0  0  0  0  0  0  0  0  0  0  0
  141.7810   77.9190  220.9650 C   0  0  0  0  0  0  0  0  0  0  0  0
  141.6440   78.9900  221.9790 C   0  0  0  0  0  0  0  0  0  0  0  0
  142.7300   79.7740  222.3460 C   0  0  0  0  0  0  0  0  0  0  0  0
  142.5990   80.7830  223.2990 C   0  0  0  0  0  0  0  0  0  0  0  0
  141.3800   81.0280  223.9040 C   0  0  0  0  0  0  0  0  0  0  0  0
  140.2940   80.2440  223.5380 C   0  0  0  0  0  0  0  0  0  0  0  0
  140.4380   79.2360  222.5800 C   0  0  0  0  0  0  0  0  0  0  0  0
  139.2570   78.4390  222.2320 C   0  0  0  0  0  0  0  0  0  0  0  0
  138.9720   74.7620  221.7300 N   0  0  0  0  0  0  0  0  0  0  0  0
  139.9370   72.1430  223.3030 C   0  0  0  0  0  0  0  0  0  0  0  0
  139.8980   69.7000  226.1040 N   0  0  0  0  0  0  0  0  0  0  0  0
  140.3911   68.2967  229.0941 H   0  0  0  0  0  0  0  0  0  0  0  0
  139.4587   67.6421  227.7053 H   0  0  0  0  0  0  0  0  0  0  0  0
  141.2527   67.5514  227.7053 H   0  0  0  0  0  0  0  0  0  0  0  0
  141.5467   70.3560  228.9831 H   0  0  0  0  0  0  0  0  0  0  0  0
  141.6559   72.6055  227.8368 H   0  0  0  0  0  0  0  0  0  0  0  0
  138.0027   69.6481  224.5884 H   0  0  0  0  0  0  0  0  0  0  0  0
  137.3804   71.1098  223.7145 H   0  0  0  0  0  0  0  0  0  0  0  0
  138.6353   68.6449  222.6683 H   0  0  0  0  0  0  0  0  0  0  0  0
  137.5096   69.8408  221.8900 H   0  0  0  0  0  0  0  0  0  0  0  0
  140.5082   69.8631  222.0703 H   0  0  0  0  0  0  0  0  0  0  0  0
  139.4145   70.0657  220.6422 H   0  0  0  0  0  0  0  0  0  0  0  0
  140.4035   72.1430  221.1737 H   0  0  0  0  0  0  0  0  0  0  0  0
  137.6720   72.0160  220.8820 H   0  0  0  0  0  0  0  0  0  0  0  0
  135.1501   77.6169  223.6381 H   0  0  0  0  0  0  0  0  0  0  0  0
  134.5821   76.5549  222.2663 H   0  0  0  0  0  0  0  0  0  0  0  0
  132.9136   77.6976  223.9988 H   0  0  0  0  0  0  0  0  0  0  0  0
  132.6420   76.0648  223.2361 H   0  0  0  0  0  0  0  0  0  0  0  0
  130.9646   75.3429  226.5430 H   0  0  0  0  0  0  0  0  0  0  0  0
  130.0667   76.4032  228.5788 H   0  0  0  0  0  0  0  0  0  0  0  0
  131.2626   78.3506  229.6050 H   0  0  0  0  0  0  0  0  0  0  0  0
  133.3539   79.1362  228.4880 H   0  0  0  0  0  0  0  0  0  0  0  0
  133.5812   74.2927  226.3372 H   0  0  0  0  0  0  0  0  0  0  0  0
  133.1939   73.9909  224.6353 H   0  0  0  0  0  0  0  0  0  0  0  0
  135.6929   75.1961  225.8570 H   0  0  0  0  0  0  0  0  0  0  0  0
  135.5001   73.7505  224.7414 H   0  0  0  0  0  0  0  0  0  0  0  0
  141.4813   76.1264  222.0460 H   0  0  0  0  0  0  0  0  0  0  0  0
  140.7187   76.2099  220.3831 H   0  0  0  0  0  0  0  0  0  0  0  0
  142.8330   77.6017  220.9146 H   0  0  0  0  0  0  0  0  0  0  0  0
  141.4536   78.3103  219.9905 H   0  0  0  0  0  0  0  0  0  0  0  0
  143.7091   79.5960  221.8773 H   0  0  0  0  0  0  0  0  0  0  0  0
  143.4743   81.3905  223.5725 H   0  0  0  0  0  0  0  0  0  0  0  0
  141.2733   81.8237  224.6560 H   0  0  0  0  0  0  0  0  0  0  0  0
  139.3133   80.4173  224.0052 H   0  0  0  0  0  0  0  0  0  0  0  0
  138.5682   78.4130  223.0892 H   0  0  0  0  0  0  0  0  0  0  0  0
  138.7534   78.8939  221.3663 H   0  0  0  0  0  0  0  0  0  0  0  0
  141.0290   72.1830  223.4291 H   0  0  0  0  0  0  0  0  0  0  0  0
  139.4798   73.1170  223.5315 H   0  0  0  0  0  0  0  0  0  0  0  0
  1  2  1  0
  2  3  2  0
  3  4  1  0
  4  5  2  0
  5  6  1  0
  6  7  1  0
  7  8  1  0
  8  9  1  0
  9 10  1  0
 10 11  1  0
 11 12  1  0
 12 13  1  0
 13 14  2  0
 14 15  1  0
 15 16  1  0
 16 17  1  0
 17 18  1  0
 18 19  1  0
 19 20  1  0
 20 21  2  0
 21 22  1  0
 22 23  2  0
 23 24  1  0
 24 25  2  0
 19 26  1  0
 26 27  1  0
 15 28  2  0
 28 29  1  0
 29 30  1  0
 30 31  1  0
 31 32  1  0
 32 33  1  0
 33 34  2  0
 34 35  1  0
 35 36  2  0
 36 37  1  0
 37 38  2  0
 38 39  1  0
 29 40  2  0
 11 41  1  0
  6 42  2  0
 42  2  1  0
 41  7  1  0
 40 13  1  0
 27 16  1  0
 39 30  1  0
 25 20  1  0
 38 33  1  0
  1 43  1  0
  1 44  1  0
  1 45  1  0
  3 46  1  0
  4 47  1  0
  8 48  1  0
  8 49  1  0
  9 50  1  0
  9 51  1  0
 10 52  1  0
 10 53  1  0
 11 54  1  6
 12 55  1  0
 17 56  1  0
 17 57  1  0
 18 58  1  0
 18 59  1  0
 21 60  1  0
 22 61  1  0
 23 62  1  0
 24 63  1  0
 26 64  1  0
 26 65  1  0
 27 66  1  0
 27 67  1  0
 31 68  1  0
 31 69  1  0
 32 70  1  0
 32 71  1  0
 34 72  1  0
 35 73  1  0
 36 74  1  0
 37 75  1  0
 39 76  1  0
 39 77  1  0
 41 78  1  0
 41 79  1  0
M  END
>  <smiles>  (65) 
Cc1ccnc(N2CCCC(Nc3nc(N4CCN(c5ccccn5)CC4)nc(N4CCc5ccccc5C4)n3)C2)n1

>  <score_type>  (65) 
oracle

>  <origin>  (65) 
autodockgpu

>  <m_score__min__energy>  (65) 
-10.06

>  <m_primary>  (65) 
energy

>  <rmsd>  (65) 
9.393268676920812

>  <m_score__min__rmsd>  (65) 
9.393268676920812

>  <meeko>  (65) 
{"free_energy": -9.79, "intermolecular_energy": -11.58, "internal_energy": -1.58, "cluster_size": 12, "cluster_id": 3, "rank_in_cluster": 1}

>  <energy>  (65) 
-9.88

>  <cluster_rmsd>  (65) 
0.8

>  <cluster>  (65) 
1

$$$$

     RDKit          3D

 79 85  0  0  1  0  0  0  0  0999 V2000
  146.2160   67.4140  219.6900 C   0  0  0  0  0  0  0  0  0  0  0  0
  145.5310   68.5420  219.0030 C   0  0  0  0  0  0  0  0  0  0  0  0
  146.2990   69.3990  218.2420 C   0  0  0  0  0  0  0  0  0  0  0  0
  145.6480   70.4570  217.5990 C   0  0  0  0  0  0  0  0  0  0  0  0
  144.3050   70.5920  217.7540 N   0  0  0  0  0  0  0  0  0  0  0  0
  143.5670   69.7560  218.4970 C   0  0  0  0  0  0  0  0  0  0  0  0
  142.1690   70.0000  218.5820 N   0  0  0  0  0  0  0  0  0  0  0  0
  141.2930   68.8720  218.8350 C   0  0  0  0  0  0  0  0  0  0  0  0
  140.2040   68.7580  217.7800 C   0  0  0  0  0  0  0  0  0  0  0  0
  140.0150   70.0340  217.0160 C   0  0  0  0  0  0  0  0  0  0  0  0
  140.1610   71.2380  217.9140 C   0  0  1  0  0  0  0  0  0  0  0  0
  139.2830   71.2230  219.0540 N   0  0  0  0  0  0  0  0  0  0  0  0
  139.6130   71.9010  220.2770 C   0  0  0  0  0  0  0  0  0  0  0  0
  139.8400   73.2280  220.3160 N   0  0  0  0  0  0  0  0  0  0  0  0
  140.1490   73.8490  221.4820 C   0  0  0  0  0  0  0  0  0  0  0  0
  140.3930   75.2610  221.5310 N   0  0  0  0  0  0  0  0  0  0  0  0
  141.4890   75.7640  220.7570 C   0  0  0  0  0  0  0  0  0  0  0  0
  141.4420   77.2590  220.5550 C   0  0  0  0  0  0  0  0  0  0  0  0
  140.7730   77.9440  221.6190 N   0  0  0  0  0  0  0  0  0  0  0  0
  141.3060   78.9950  222.3900 C   0  0  0  0  0  0  0  0  0  0  0  0
  140.5180   79.9040  223.0690 C   0  0  0  0  0  0  0  0  0  0  0  0
  141.0580   80.9310  223.8240 C   0  0  0  0  0  0  0  0  0  0  0  0
  142.4240   81.0760  223.9180 C   0  0  0  0  0  0  0  0  0  0  0  0
  143.1900   80.1500  223.2270 C   0  0  0  0  0  0  0  0  0  0  0  0
  142.6390   79.1620  222.5020 N   0  0  0  0  0  0  0  0  0  0  0  0
  139.4030   77.4940  221.9210 C   0  0  0  0  0  0  0  0  0  0  0  0
  139.5220   76.0710  222.3530 C   0  0  0  0  0  0  0  0  0  0  0  0
  140.2110   73.0660  222.5690 N   0  0  0  0  0  0  0  0  0  0  0  0
  139.9900   71.7400  222.5700 C   0  0  0  0  0  0  0  0  0  0  0  0
  140.0810   70.9870  223.7940 N   0  0  0  0  0  0  0  0  0  0  0  0
  139.2370   69.8260  223.9100 C   0  0  0  0  0  0  0  0  0  0  0  0
  139.4770   69.0200  225.1440 C   0  0  0  0  0  0  0  0  0  0  0  0
  139.7630   69.9040  226.2980 C   0  0  0  0  0  0  0  0  0  0  0  0
  139.3060   69.5920  227.5720 C   0  0  0  0  0  0  0  0  0  0  0  0
  139.5770   70.4240  228.6570 C   0  0  0  0  0  0  0  0  0  0  0  0
  140.3110   71.5830  228.4900 C   0  0  0  0  0  0  0  0  0  0  0  0
  140.7680   71.8970  227.2170 C   0  0  0  0  0  0  0  0  0  0  0  0
  140.4900   71.0530  226.1370 C   0  0  0  0  0  0  0  0  0  0  0  0
  140.9980   71.4340  224.8150 C   0  0  0  0  0  0  0  0  0  0  0  0
  139.6870   71.1630  221.3960 N   0  0  0  0  0  0  0  0  0  0  0  0
  141.5820   71.3190  218.4260 C   0  0  0  0  0  0  0  0  0  0  0  0
  144.1860   68.7430  219.1110 N   0  0  0  0  0  0  0  0  0  0  0  0
  146.1363   67.5453  220.7792 H   0  0  0  0  0  0  0  0  0  0  0  0
  145.7414   66.4652  219.3994 H   0  0  0  0  0  0  0  0  0  0  0  0
  147.2768   67.3975  219.3994 H   0  0  0  0  0  0  0  0  0  0  0  0
  147.3852   69.2553  218.1443 H   0  0  0  0  0  0  0  0  0  0  0  0
  146.2137   71.1676  216.9785 H   0  0  0  0  0  0  0  0  0  0  0  0
  141.8908   67.9486  218.8315 H   0  0  0  0  0  0  0  0  0  0  0  0
  140.8099   69.0252  219.8113 H   0  0  0  0  0  0  0  0  0  0  0  0
  140.4779   67.9603  217.0738 H   0  0  0  0  0  0  0  0  0  0  0  0
  139.2590   68.5317  218.2955 H   0  0  0  0  0  0  0  0  0  0  0  0
  140.7699   70.0888  216.2178 H   0  0  0  0  0  0  0  0  0  0  0  0
  138.9997   70.0379  216.5927 H   0  0  0  0  0  0  0  0  0  0  0  0
  139.8929   72.1080  217.2965 H   0  0  0  0  0  0  0  0  0  0  0  0
  138.3550   70.7110  219.0430 H   0  0  0  0  0  0  0  0  0  0  0  0
  142.4264   75.5110  221.2740 H   0  0  0  0  0  0  0  0  0  0  0  0
  141.4252   75.2991  219.7621 H   0  0  0  0  0  0  0  0  0  0  0  0
  142.4729   77.6367  220.4878 H   0  0  0  0  0  0  0  0  0  0  0  0
  140.8753   77.4497  219.6317 H   0  0  0  0  0  0  0  0  0  0  0  0
  139.4239   79.8085  223.0076 H   0  0  0  0  0  0  0  0  0  0  0  0
  140.3942   81.6329  224.3501 H   0  0  0  0  0  0  0  0  0  0  0  0
  142.8824   81.8825  224.5091 H   0  0  0  0  0  0  0  0  0  0  0  0
  144.2863   80.2267  223.2738 H   0  0  0  0  0  0  0  0  0  0  0  0
  138.9700   78.1033  222.7281 H   0  0  0  0  0  0  0  0  0  0  0  0
  138.7442   77.5951  221.0459 H   0  0  0  0  0  0  0  0  0  0  0  0
  139.9108   76.0566  223.3819 H   0  0  0  0  0  0  0  0  0  0  0  0
  138.5163   75.6342  222.2643 H   0  0  0  0  0  0  0  0  0  0  0  0
  138.1888   70.1596  223.9135 H   0  0  0  0  0  0  0  0  0  0  0  0
  139.4723   69.1754  223.0548 H   0  0  0  0  0  0  0  0  0  0  0  0
  138.5822   68.4187  225.3625 H   0  0  0  0  0  0  0  0  0  0  0  0
  140.3446   68.3650  224.9760 H   0  0  0  0  0  0  0  0  0  0  0  0
  138.7208   68.6736  227.7272 H   0  0  0  0  0  0  0  0  0  0  0  0
  139.2029   70.1555  229.6560 H   0  0  0  0  0  0  0  0  0  0  0  0
  140.5279   72.2407  229.3447 H   0  0  0  0  0  0  0  0  0  0  0  0
  141.3523   72.8152  227.0570 H   0  0  0  0  0  0  0  0  0  0  0  0
  141.0979   72.5282  224.7631 H   0  0  0  0  0  0  0  0  0  0  0  0
  141.9799   70.9653  224.6532 H   0  0  0  0  0  0  0  0  0  0  0  0
  142.1867   71.8968  217.7115 H   0  0  0  0  0  0  0  0  0  0  0  0
  141.5658   71.8076  219.4114 H   0  0  0  0  0  0  0  0  0  0  0  0
  1  2  1  0
  2  3  2  0
  3  4  1  0
  4  5  2  0
  5  6  1  0
  6  7  1  0
  7  8  1  0
  8  9  1  0
  9 10  1  0
 10 11  1  0
 11 12  1  0
 12 13  1  0
 13 14  2  0
 14 15  1  0
 15 16  1  0
 16 17  1  0
 17 18  1  0
 18 19  1  0
 19 20  1  0
 20 21  2  0
 21 22  1  0
 22 23  2  0
 23 24  1  0
 24 25  2  0
 19 26  1  0
 26 27  1  0
 15 28  2  0
 28 29  1  0
 29 30  1  0
 30 31  1  0
 31 32  1  0
 32 33  1  0
 33 34  2  0
 34 35  1  0
 35 36  2  0
 36 37  1  0
 37 38  2  0
 38 39  1  0
 29 40  2  0
 11 41  1  0
  6 42  2  0
 42  2  1  0
 41  7  1  0
 40 13  1  0
 27 16  1  0
 39 30  1  0
 25 20  1  0
 38 33  1  0
  1 43  1  0
  1 44  1  0
  1 45  1  0
  3 46  1  0
  4 47  1  0
  8 48  1  0
  8 49  1  0
  9 50  1  0
  9 51  1  0
 10 52  1  0
 10 53  1  0
 11 54  1  6
 12 55  1  0
 17 56  1  0
 17 57  1  0
 18 58  1  0
 18 59  1  0
 21 60  1  0
 22 61  1  0
 23 62  1  0
 24 63  1  0
 26 64  1  0
 26 65  1  0
 27 66  1  0
 27 67  1  0
 31 68  1  0
 31 69  1  0
 32 70  1  0
 32 71  1  0
 34 72  1  0
 35 73  1  0
 36 74  1  0
 37 75  1  0
 39 76  1  0
 39 77  1  0
 41 78  1  0
 41 79  1  0
M  END
>  <smiles>  (66) 
Cc1ccnc(N2CCCC(Nc3nc(N4CCN(c5ccccn5)CC4)nc(N4CCc5ccccc5C4)n3)C2)n1

>  <score_type>  (66) 
oracle

>  <origin>  (66) 
autodockgpu

>  <m_score__min__energy>  (66) 
-10.06

>  <m_primary>  (66) 
energy

>  <rmsd>  (66) 
7.704706486977668

>  <m_score__min__rmsd>  (66) 
7.704706486977668

>  <meeko>  (66) 
{"free_energy": -9.53, "intermolecular_energy": -11.32, "internal_energy": -1.61, "cluster_size": 16, "cluster_id": 1, "rank_in_cluster": 16}

>  <energy>  (66) 
-9.53

>  <cluster_rmsd>  (66) 
0.59

>  <cluster>  (66) 
1

$$$$

     RDKit          3D

 79 85  0  0  1  0  0  0  0  0999 V2000
  145.8030   67.0160  219.3370 C   0  0  0  0  0  0  0  0  0  0  0  0
  145.2190   68.3830  219.2960 C   0  0  0  0  0  0  0  0  0  0  0  0
  146.0830   69.4580  219.3440 C   0  0  0  0  0  0  0  0  0  0  0  0
  145.5260   70.7410  219.3050 C   0  0  0  0  0  0  0  0  0  0  0  0
  144.1750   70.8680  219.2240 N   0  0  0  0  0  0  0  0  0  0  0  0
  143.3450   69.8180  219.1790 C   0  0  0  0  0  0  0  0  0  0  0  0
  141.9480   70.0780  219.0940 N   0  0  0  0  0  0  0  0  0  0  0  0
  141.0360   69.0860  219.6280 C   0  0  0  0  0  0  0  0  0  0  0  0
  140.0100   68.6490  218.5930 C   0  0  0  0  0  0  0  0  0  0  0  0
  139.8960   69.6230  217.4600 C   0  0  0  0  0  0  0  0  0  0  0  0
  140.0110   71.0470  217.9460 C   0  0  1  0  0  0  0  0  0  0  0  0
  139.0650   71.3900  218.9750 N   0  0  0  0  0  0  0  0  0  0  0  0
  139.4680   72.0370  220.1920 C   0  0  0  0  0  0  0  0  0  0  0  0
  139.7150   73.3600  220.2480 N   0  0  0  0  0  0  0  0  0  0  0  0
  140.0930   73.9520  221.4080 C   0  0  0  0  0  0  0  0  0  0  0  0
  140.3580   75.3600  221.4730 N   0  0  0  0  0  0  0  0  0  0  0  0
  141.5210   75.8410  220.7890 C   0  0  0  0  0  0  0  0  0  0  0  0
  141.5180   77.3360  220.5810 C   0  0  0  0  0  0  0  0  0  0  0  0
  140.7780   78.0360  221.5860 N   0  0  0  0  0  0  0  0  0  0  0  0
  141.2660   79.0790  222.3960 C   0  0  0  0  0  0  0  0  0  0  0  0
  142.6130   79.3300  222.5680 C   0  0  0  0  0  0  0  0  0  0  0  0
  143.0770   80.3620  223.3680 C   0  0  0  0  0  0  0  0  0  0  0  0
  142.1860   81.1800  224.0260 C   0  0  0  0  0  0  0  0  0  0  0  0
  140.8410   80.9050  223.8350 C   0  0  0  0  0  0  0  0  0  0  0  0
  140.4190   79.8970  223.0530 N   0  0  0  0  0  0  0  0  0  0  0  0
  139.3800   77.6120  221.7790 C   0  0  0  0  0  0  0  0  0  0  0  0
  139.4380   76.1880  222.2220 C   0  0  0  0  0  0  0  0  0  0  0  0
  140.2000   73.1450  222.4740 N   0  0  0  0  0  0  0  0  0  0  0  0
  139.9620   71.8220  222.4590 C   0  0  0  0  0  0  0  0  0  0  0  0
  140.1070   71.0420  223.6600 N   0  0  0  0  0  0  0  0  0  0  0  0
  139.2890   69.8620  223.7750 C   0  0  0  0  0  0  0  0  0  0  0  0
  139.5850   69.0310  224.9800 C   0  0  0  0  0  0  0  0  0  0  0  0
  139.8910   69.8930  226.1460 C   0  0  0  0  0  0  0  0  0  0  0  0
  139.4810   69.5420  227.4260 C   0  0  0  0  0  0  0  0  0  0  0  0
  139.7720   70.3520  228.5220 C   0  0  0  0  0  0  0  0  0  0  0  0
  140.4780   71.5300  228.3600 C   0  0  0  0  0  0  0  0  0  0  0  0
  140.8880   71.8820  227.0810 C   0  0  0  0  0  0  0  0  0  0  0  0
  140.5910   71.0600  225.9900 C   0  0  0  0  0  0  0  0  0  0  0  0
  141.0480   71.4820  224.6620 C   0  0  0  0  0  0  0  0  0  0  0  0
  139.5910   71.2740  221.2900 N   0  0  0  0  0  0  0  0  0  0  0  0
  141.4000   71.2830  218.4970 C   0  0  0  0  0  0  0  0  0  0  0  0
  143.8730   68.5910  219.2140 N   0  0  0  0  0  0  0  0  0  0  0  0
  145.9358   66.7052  220.3838 H   0  0  0  0  0  0  0  0  0  0  0  0
  145.1267   66.3129  218.8288 H   0  0  0  0  0  0  0  0  0  0  0  0
  146.7785   67.0186  218.8288 H   0  0  0  0  0  0  0  0  0  0  0  0
  147.1711   69.3114  219.4106 H   0  0  0  0  0  0  0  0  0  0  0  0
  146.1705   71.6318  219.3393 H   0  0  0  0  0  0  0  0  0  0  0  0
  141.6140   68.2072  219.9500 H   0  0  0  0  0  0  0  0  0  0  0  0
  140.4978   69.5362  220.4752 H   0  0  0  0  0  0  0  0  0  0  0  0
  140.3090   67.6703  218.1896 H   0  0  0  0  0  0  0  0  0  0  0  0
  139.0307   68.5956  219.0911 H   0  0  0  0  0  0  0  0  0  0  0  0
  140.7002   69.4257  216.7359 H   0  0  0  0  0  0  0  0  0  0  0  0
  138.9092   69.4953  216.9910 H   0  0  0  0  0  0  0  0  0  0  0  0
  139.7980   71.6807  217.0725 H   0  0  0  0  0  0  0  0  0  0  0  0
  138.0310   71.1790  218.8810 H   0  0  0  0  0  0  0  0  0  0  0  0
  142.4091   75.5729  221.3801 H   0  0  0  0  0  0  0  0  0  0  0  0
  141.5284   75.3743  219.7929 H   0  0  0  0  0  0  0  0  0  0  0  0
  142.5577   77.6948  220.5968 H   0  0  0  0  0  0  0  0  0  0  0  0
  141.0316   77.5341  219.6145 H   0  0  0  0  0  0  0  0  0  0  0  0
  143.3428   78.6886  222.0522 H   0  0  0  0  0  0  0  0  0  0  0  0
  144.1589   80.5280  223.4775 H   0  0  0  0  0  0  0  0  0  0  0  0
  142.5233   82.0068  224.6683 H   0  0  0  0  0  0  0  0  0  0  0  0
  140.0933   81.5335  224.3410 H   0  0  0  0  0  0  0  0  0  0  0  0
  138.8956   78.2318  222.5479 H   0  0  0  0  0  0  0  0  0  0  0  0
  138.7948   77.7221  220.8541 H   0  0  0  0  0  0  0  0  0  0  0  0
  139.7429   76.1698  223.2788 H   0  0  0  0  0  0  0  0  0  0  0  0
  138.4349   75.7688  222.0543 H   0  0  0  0  0  0  0  0  0  0  0  0
  138.2355   70.1750  223.8213 H   0  0  0  0  0  0  0  0  0  0  0  0
  139.5079   69.2370  222.8966 H   0  0  0  0  0  0  0  0  0  0  0  0
  138.7099   68.4063  225.2121 H   0  0  0  0  0  0  0  0  0  0  0  0
  140.4592   68.3979  224.7680 H   0  0  0  0  0  0  0  0  0  0  0  0
  138.9174   68.6095  227.5769 H   0  0  0  0  0  0  0  0  0  0  0  0
  139.4369   70.0514  229.5257 H   0  0  0  0  0  0  0  0  0  0  0  0
  140.7090   72.1721  229.2228 H   0  0  0  0  0  0  0  0  0  0  0  0
  141.4505   72.8143  226.9251 H   0  0  0  0  0  0  0  0  0  0  0  0
  141.1257   72.5789  224.6338 H   0  0  0  0  0  0  0  0  0  0  0  0
  142.0325   71.0360  224.4573 H   0  0  0  0  0  0  0  0  0  0  0  0
  142.0589   71.6076  217.6781 H   0  0  0  0  0  0  0  0  0  0  0  0
  141.3349   72.0556  219.2772 H   0  0  0  0  0  0  0  0  0  0  0  0
  1  2  1  0
  2  3  2  0
  3  4  1  0
  4  5  2  0
  5  6  1  0
  6  7  1  0
  7  8  1  0
  8  9  1  0
  9 10  1  0
 10 11  1  0
 11 12  1  0
 12 13  1  0
 13 14  2  0
 14 15  1  0
 15 16  1  0
 16 17  1  0
 17 18  1  0
 18 19  1  0
 19 20  1  0
 20 21  2  0
 21 22  1  0
 22 23  2  0
 23 24  1  0
 24 25  2  0
 19 26  1  0
 26 27  1  0
 15 28  2  0
 28 29  1  0
 29 30  1  0
 30 31  1  0
 31 32  1  0
 32 33  1  0
 33 34  2  0
 34 35  1  0
 35 36  2  0
 36 37  1  0
 37 38  2  0
 38 39  1  0
 29 40  2  0
 11 41  1  0
  6 42  2  0
 42  2  1  0
 41  7  1  0
 40 13  1  0
 27 16  1  0
 39 30  1  0
 25 20  1  0
 38 33  1  0
  1 43  1  0
  1 44  1  0
  1 45  1  0
  3 46  1  0
  4 47  1  0
  8 48  1  0
  8 49  1  0
  9 50  1  0
  9 51  1  0
 10 52  1  0
 10 53  1  0
 11 54  1  6
 12 55  1  0
 17 56  1  0
 17 57  1  0
 18 58  1  0
 18 59  1  0
 21 60  1  0
 22 61  1  0
 23 62  1  0
 24 63  1  0
 26 64  1  0
 26 65  1  0
 27 66  1  0
 27 67  1  0
 31 68  1  0
 31 69  1  0
 32 70  1  0
 32 71  1  0
 34 72  1  0
 35 73  1  0
 36 74  1  0
 37 75  1  0
 39 76  1  0
 39 77  1  0
 41 78  1  0
 41 79  1  0
M  END
>  <smiles>  (67) 
Cc1ccnc(N2CCCC(Nc3nc(N4CCN(c5ccccn5)CC4)nc(N4CCc5ccccc5C4)n3)C2)n1

>  <score_type>  (67) 
oracle

>  <origin>  (67) 
autodockgpu

>  <m_score__min__energy>  (67) 
-10.06

>  <m_primary>  (67) 
energy

>  <rmsd>  (67) 
7.736372189682785

>  <m_score__min__rmsd>  (67) 
7.736372189682785

>  <meeko>  (67) 
{"free_energy": -9.96, "intermolecular_energy": -11.75, "internal_energy": -1.78, "cluster_size": 16, "cluster_id": 1, "rank_in_cluster": 8}

>  <energy>  (67) 
-9.92

>  <cluster_rmsd>  (67) 
0.0

>  <cluster>  (67) 
2

$$$$

     RDKit          3D

 79 85  0  0  1  0  0  0  0  0999 V2000
  145.9210   67.3420  219.3780 C   0  0  0  0  0  0  0  0  0  0  0  0
  145.2780   68.6820  219.3190 C   0  0  0  0  0  0  0  0  0  0  0  0
  146.0960   69.7930  219.3350 C   0  0  0  0  0  0  0  0  0  0  0  0
  145.4850   71.0500  219.2800 C   0  0  0  0  0  0  0  0  0  0  0  0
  144.1290   71.1190  219.2140 N   0  0  0  0  0  0  0  0  0  0  0  0
  143.3430   70.0340  219.2000 C   0  0  0  0  0  0  0  0  0  0  0  0
  141.9360   70.2330  219.1290 N   0  0  0  0  0  0  0  0  0  0  0  0
  141.0760   69.2500  219.7580 C   0  0  0  0  0  0  0  0  0  0  0  0
  140.0470   68.6970  218.7830 C   0  0  0  0  0  0  0  0  0  0  0  0
  139.8700   69.5780  217.5830 C   0  0  0  0  0  0  0  0  0  0  0  0
  139.9390   71.0380  217.9590 C   0  0  1  0  0  0  0  0  0  0  0  0
  139.0010   71.4200  218.9810 N   0  0  0  0  0  0  0  0  0  0  0  0
  139.4220   72.0610  220.1970 C   0  0  0  0  0  0  0  0  0  0  0  0
  139.6750   73.3820  220.2550 N   0  0  0  0  0  0  0  0  0  0  0  0
  140.0710   73.9680  221.4130 C   0  0  0  0  0  0  0  0  0  0  0  0
  140.3430   75.3740  221.4810 N   0  0  0  0  0  0  0  0  0  0  0  0
  141.5100   75.8490  220.8000 C   0  0  0  0  0  0  0  0  0  0  0  0
  141.5150   77.3450  220.5950 C   0  0  0  0  0  0  0  0  0  0  0  0
  140.7760   78.0470  221.6000 N   0  0  0  0  0  0  0  0  0  0  0  0
  141.2680   79.0870  222.4120 C   0  0  0  0  0  0  0  0  0  0  0  0
  142.6160   79.3250  222.5950 C   0  0  0  0  0  0  0  0  0  0  0  0
  143.0840   80.3520  223.3970 C   0  0  0  0  0  0  0  0  0  0  0  0
  142.1970   81.1800  224.0470 C   0  0  0  0  0  0  0  0  0  0  0  0
  140.8500   80.9180  223.8460 C   0  0  0  0  0  0  0  0  0  0  0  0
  140.4240   79.9140  223.0620 N   0  0  0  0  0  0  0  0  0  0  0  0
  139.3760   77.6300  221.7890 C   0  0  0  0  0  0  0  0  0  0  0  0
  139.4260   76.2050  222.2290 C   0  0  0  0  0  0  0  0  0  0  0  0
  140.1880   73.1550  222.4740 N   0  0  0  0  0  0  0  0  0  0  0  0
  139.9440   71.8340  222.4560 C   0  0  0  0  0  0  0  0  0  0  0  0
  140.0990   71.0470  223.6520 N   0  0  0  0  0  0  0  0  0  0  0  0
  139.2830   69.8660  223.7680 C   0  0  0  0  0  0  0  0  0  0  0  0
  139.5900   69.0300  224.9660 C   0  0  0  0  0  0  0  0  0  0  0  0
  139.9070   69.8850  226.1330 C   0  0  0  0  0  0  0  0  0  0  0  0
  139.5090   69.5280  227.4150 C   0  0  0  0  0  0  0  0  0  0  0  0
  139.8090   70.3330  228.5130 C   0  0  0  0  0  0  0  0  0  0  0  0
  140.5140   71.5110  228.3500 C   0  0  0  0  0  0  0  0  0  0  0  0
  140.9110   71.8700  227.0700 C   0  0  0  0  0  0  0  0  0  0  0  0
  140.6040   71.0540  225.9770 C   0  0  0  0  0  0  0  0  0  0  0  0
  141.0500   71.4820  224.6470 C   0  0  0  0  0  0  0  0  0  0  0  0
  139.5550   71.2920  221.2890 N   0  0  0  0  0  0  0  0  0  0  0  0
  141.3280   71.3670  218.4580 C   0  0  0  0  0  0  0  0  0  0  0  0
  143.9240   68.8310  219.2520 N   0  0  0  0  0  0  0  0  0  0  0  0
  146.0617   67.0488  220.4288 H   0  0  0  0  0  0  0  0  0  0  0  0
  145.2787   66.6046  218.8744 H   0  0  0  0  0  0  0  0  0  0  0  0
  146.8982   67.3817  218.8744 H   0  0  0  0  0  0  0  0  0  0  0  0
  147.1902   69.6937  219.3891 H   0  0  0  0  0  0  0  0  0  0  0  0
  146.0917   71.9675  219.2900 H   0  0  0  0  0  0  0  0  0  0  0  0
  141.6954   68.4210  220.1310 H   0  0  0  0  0  0  0  0  0  0  0  0
  140.5383   69.7418  220.5820 H   0  0  0  0  0  0  0  0  0  0  0  0
  140.3767   67.7029  218.4466 H   0  0  0  0  0  0  0  0  0  0  0  0
  139.0813   68.6436  219.3070 H   0  0  0  0  0  0  0  0  0  0  0  0
  140.6655   69.3573  216.8561 H   0  0  0  0  0  0  0  0  0  0  0  0
  138.8793   69.3780  217.1488 H   0  0  0  0  0  0  0  0  0  0  0  0
  139.6841   71.5967  217.0464 H   0  0  0  0  0  0  0  0  0  0  0  0
  137.9600   71.2470  218.8850 H   0  0  0  0  0  0  0  0  0  0  0  0
  142.3955   75.5749  221.3922 H   0  0  0  0  0  0  0  0  0  0  0  0
  141.5173   75.3837  219.8033 H   0  0  0  0  0  0  0  0  0  0  0  0
  142.5565   77.6985  220.6139 H   0  0  0  0  0  0  0  0  0  0  0  0
  141.0317   77.5475  219.6278 H   0  0  0  0  0  0  0  0  0  0  0  0
  143.3434   78.6758  222.0857 H   0  0  0  0  0  0  0  0  0  0  0  0
  144.1667   80.5066  223.5150 H   0  0  0  0  0  0  0  0  0  0  0  0
  142.5379   82.0043  224.6906 H   0  0  0  0  0  0  0  0  0  0  0  0
  140.1049   81.5543  224.3458 H   0  0  0  0  0  0  0  0  0  0  0  0
  138.8931   78.2506  222.5582 H   0  0  0  0  0  0  0  0  0  0  0  0
  138.7933   77.7451  220.8632 H   0  0  0  0  0  0  0  0  0  0  0  0
  139.7283   76.1832  223.2864 H   0  0  0  0  0  0  0  0  0  0  0  0
  138.4212   75.7913  222.0578 H   0  0  0  0  0  0  0  0  0  0  0  0
  138.2296   70.1778  223.8248 H   0  0  0  0  0  0  0  0  0  0  0  0
  139.4946   69.2455  222.8847 H   0  0  0  0  0  0  0  0  0  0  0  0
  138.7169   68.4043  225.2032 H   0  0  0  0  0  0  0  0  0  0  0  0
  140.4624   68.3984  224.7426 H   0  0  0  0  0  0  0  0  0  0  0  0
  138.9476   68.5943  227.5665 H   0  0  0  0  0  0  0  0  0  0  0  0
  139.4818   70.0281  229.5180 H   0  0  0  0  0  0  0  0  0  0  0  0
  140.7543   72.1480  229.2140 H   0  0  0  0  0  0  0  0  0  0  0  0
  141.4714   72.8036  226.9139 H   0  0  0  0  0  0  0  0  0  0  0  0
  141.1284   72.5789  224.6230 H   0  0  0  0  0  0  0  0  0  0  0  0
  142.0325   71.0368  224.4313 H   0  0  0  0  0  0  0  0  0  0  0  0
  141.9563   71.6544  217.6020 H   0  0  0  0  0  0  0  0  0  0  0  0
  141.2479   72.1925  219.1806 H   0  0  0  0  0  0  0  0  0  0  0  0
  1  2  1  0
  2  3  2  0
  3  4  1  0
  4  5  2  0
  5  6  1  0
  6  7  1  0
  7  8  1  0
  8  9  1  0
  9 10  1  0
 10 11  1  0
 11 12  1  0
 12 13  1  0
 13 14  2  0
 14 15  1  0
 15 16  1  0
 16 17  1  0
 17 18  1  0
 18 19  1  0
 19 20  1  0
 20 21  2  0
 21 22  1  0
 22 23  2  0
 23 24  1  0
 24 25  2  0
 19 26  1  0
 26 27  1  0
 15 28  2  0
 28 29  1  0
 29 30  1  0
 30 31  1  0
 31 32  1  0
 32 33  1  0
 33 34  2  0
 34 35  1  0
 35 36  2  0
 36 37  1  0
 37 38  2  0
 38 39  1  0
 29 40  2  0
 11 41  1  0
  6 42  2  0
 42  2  1  0
 41  7  1  0
 40 13  1  0
 27 16  1  0
 39 30  1  0
 25 20  1  0
 38 33  1  0
  1 43  1  0
  1 44  1  0
  1 45  1  0
  3 46  1  0
  4 47  1  0
  8 48  1  0
  8 49  1  0
  9 50  1  0
  9 51  1  0
 10 52  1  0
 10 53  1  0
 11 54  1  6
 12 55  1  0
 17 56  1  0
 17 57  1  0
 18 58  1  0
 18 59  1  0
 21 60  1  0
 22 61  1  0
 23 62  1  0
 24 63  1  0
 26 64  1  0
 26 65  1  0
 27 66  1  0
 27 67  1  0
 31 68  1  0
 31 69  1  0
 32 70  1  0
 32 71  1  0
 34 72  1  0
 35 73  1  0
 36 74  1  0
 37 75  1  0
 39 76  1  0
 39 77  1  0
 41 78  1  0
 41 79  1  0
M  END
>  <smiles>  (68) 
Cc1ccnc(N2CCCC(Nc3nc(N4CCN(c5ccccn5)CC4)nc(N4CCc5ccccc5C4)n3)C2)n1

>  <score_type>  (68) 
oracle

>  <origin>  (68) 
autodockgpu

>  <m_score__min__energy>  (68) 
-10.06

>  <m_primary>  (68) 
energy

>  <rmsd>  (68) 
7.73917333160771

>  <m_score__min__rmsd>  (68) 
7.73917333160771

>  <meeko>  (68) 
{"free_energy": -9.91, "intermolecular_energy": -11.7, "internal_energy": -1.79, "cluster_size": 16, "cluster_id": 1, "rank_in_cluster": 13}

>  <energy>  (68) 
-9.79

>  <cluster_rmsd>  (68) 
0.0

>  <cluster>  (68) 
3

$$$$

     RDKit          3D

 79 85  0  0  1  0  0  0  0  0999 V2000
  132.1930   73.5080  227.2100 C   0  0  0  0  0  0  0  0  0  0  0  0
  133.1540   74.1810  226.2940 C   0  0  0  0  0  0  0  0  0  0  0  0
  133.6650   75.4030  226.6770 C   0  0  0  0  0  0  0  0  0  0  0  0
  134.5680   76.0300  225.8110 C   0  0  0  0  0  0  0  0  0  0  0  0
  134.8950   75.4120  224.6450 N   0  0  0  0  0  0  0  0  0  0  0  0
  134.3920   74.2250  224.2820 C   0  0  0  0  0  0  0  0  0  0  0  0
  134.8110   73.6790  223.0360 N   0  0  0  0  0  0  0  0  0  0  0  0
  135.1530   74.5980  221.9690 C   0  0  0  0  0  0  0  0  0  0  0  0
  134.3630   74.3080  220.7010 C   0  0  0  0  0  0  0  0  0  0  0  0
  133.7770   72.9280  220.7000 C   0  0  0  0  0  0  0  0  0  0  0  0
  134.7240   71.9300  221.3210 C   0  0  1  0  0  0  0  0  0  0  0  0
  136.0250   71.9030  220.7090 N   0  0  0  0  0  0  0  0  0  0  0  0
  137.2140   72.2510  221.4360 C   0  0  0  0  0  0  0  0  0  0  0  0
  137.8200   73.4440  221.2810 N   0  0  0  0  0  0  0  0  0  0  0  0
  138.9420   73.7540  221.9780 C   0  0  0  0  0  0  0  0  0  0  0  0
  139.5920   75.0220  221.8160 N   0  0  0  0  0  0  0  0  0  0  0  0
  140.9510   75.0080  221.3600 C   0  0  0  0  0  0  0  0  0  0  0  0
  141.4250   76.3490  220.8550 C   0  0  0  0  0  0  0  0  0  0  0  0
  140.7530   77.4480  221.4780 N   0  0  0  0  0  0  0  0  0  0  0  0
  141.3690   78.5200  222.1520 C   0  0  0  0  0  0  0  0  0  0  0  0
  141.8950   79.6160  221.4980 C   0  0  0  0  0  0  0  0  0  0  0  0
  142.4980   80.6630  222.1750 C   0  0  0  0  0  0  0  0  0  0  0  0
  142.5910   80.6350  223.5480 C   0  0  0  0  0  0  0  0  0  0  0  0
  142.0550   79.5230  224.1790 C   0  0  0  0  0  0  0  0  0  0  0  0
  141.4750   78.5210  223.4960 N   0  0  0  0  0  0  0  0  0  0  0  0
  139.2810   77.4400  221.3990 C   0  0  0  0  0  0  0  0  0  0  0  0
  138.8360   76.2140  222.1260 C   0  0  0  0  0  0  0  0  0  0  0  0
  139.3950   72.8090  222.8160 N   0  0  0  0  0  0  0  0  0  0  0  0
  138.8190   71.6090  222.9980 C   0  0  0  0  0  0  0  0  0  0  0  0
  139.3840   70.6620  223.9240 N   0  0  0  0  0  0  0  0  0  0  0  0
  138.7590   69.3660  223.9970 C   0  0  0  0  0  0  0  0  0  0  0  0
  139.4750   68.3940  224.8750 C   0  0  0  0  0  0  0  0  0  0  0  0
  140.0180   69.0740  226.0740 C   0  0  0  0  0  0  0  0  0  0  0  0
  140.0370   68.4430  227.3110 C   0  0  0  0  0  0  0  0  0  0  0  0
  140.5500   69.0840  228.4380 C   0  0  0  0  0  0  0  0  0  0  0  0
  141.0550   70.3680  228.3490 C   0  0  0  0  0  0  0  0  0  0  0  0
  141.0370   71.0000  227.1130 C   0  0  0  0  0  0  0  0  0  0  0  0
  140.5200   70.3460  225.9910 C   0  0  0  0  0  0  0  0  0  0  0  0
  140.5270   71.0610  224.7100 C   0  0  0  0  0  0  0  0  0  0  0  0
  137.7100   71.3410  222.2890 N   0  0  0  0  0  0  0  0  0  0  0  0
  134.9080   72.2520  222.7870 C   0  0  0  0  0  0  0  0  0  0  0  0
  133.5300   73.6230  225.1070 N   0  0  0  0  0  0  0  0  0  0  0  0
  132.4790   73.7083  228.2531 H   0  0  0  0  0  0  0  0  0  0  0  0
  131.1797   73.8949  227.0269 H   0  0  0  0  0  0  0  0  0  0  0  0
  132.2101   72.4235  227.0269 H   0  0  0  0  0  0  0  0  0  0  0  0
  133.3731   75.8687  227.6298 H   0  0  0  0  0  0  0  0  0  0  0  0
  135.0055   77.0057  226.0692 H   0  0  0  0  0  0  0  0  0  0  0  0
  134.9338   75.6243  222.2986 H   0  0  0  0  0  0  0  0  0  0  0  0
  136.2224   74.4767  221.7418 H   0  0  0  0  0  0  0  0  0  0  0  0
  133.5458   75.0396  220.6181 H   0  0  0  0  0  0  0  0  0  0  0  0
  135.0548   74.3809  219.8489 H   0  0  0  0  0  0  0  0  0  0  0  0
  132.8386   72.9367  221.2739 H   0  0  0  0  0  0  0  0  0  0  0  0
  133.5926   72.6297  219.6574 H   0  0  0  0  0  0  0  0  0  0  0  0
  134.2635   70.9428  221.1681 H   0  0  0  0  0  0  0  0  0  0  0  0
  136.1660   71.6250  219.6960 H   0  0  0  0  0  0  0  0  0  0  0  0
  141.5967   74.7017  222.1962 H   0  0  0  0  0  0  0  0  0  0  0  0
  141.0043   74.3046  220.5160 H   0  0  0  0  0  0  0  0  0  0  0  0
  142.5031   76.4381  221.0546 H   0  0  0  0  0  0  0  0  0  0  0  0
  141.2028   76.3936  219.7786 H   0  0  0  0  0  0  0  0  0  0  0  0
  141.8330   79.6593  220.4006 H   0  0  0  0  0  0  0  0  0  0  0  0
  142.9033   81.5184  221.6145 H   0  0  0  0  0  0  0  0  0  0  0  0
  143.0649   81.4506  224.1139 H   0  0  0  0  0  0  0  0  0  0  0  0
  142.1061   79.4585  225.2759 H   0  0  0  0  0  0  0  0  0  0  0  0
  138.8677   78.3397  221.8784 H   0  0  0  0  0  0  0  0  0  0  0  0
  138.9337   77.4376  220.3553 H   0  0  0  0  0  0  0  0  0  0  0  0
  138.9239   76.4047  223.2058 H   0  0  0  0  0  0  0  0  0  0  0  0
  137.8022   76.0194  221.8045 H   0  0  0  0  0  0  0  0  0  0  0  0
  137.7382   69.4959  224.3856 H   0  0  0  0  0  0  0  0  0  0  0  0
  138.7756   68.9475  222.9799 H   0  0  0  0  0  0  0  0  0  0  0  0
  138.7732   67.6085  225.1920 H   0  0  0  0  0  0  0  0  0  0  0  0
  140.3095   67.9540  224.3092 H   0  0  0  0  0  0  0  0  0  0  0  0
  139.6409   67.4209  227.4032 H   0  0  0  0  0  0  0  0  0  0  0  0
  140.5530   68.5633  229.4069 H   0  0  0  0  0  0  0  0  0  0  0  0
  141.4611   70.8764  229.2359 H   0  0  0  0  0  0  0  0  0  0  0  0
  141.4321   72.0220  227.0160 H   0  0  0  0  0  0  0  0  0  0  0  0
  140.4829   72.1443  224.8957 H   0  0  0  0  0  0  0  0  0  0  0  0
  141.4490   70.8174  224.1618 H   0  0  0  0  0  0  0  0  0  0  0  0
  134.1295   71.7345  223.3668 H   0  0  0  0  0  0  0  0  0  0  0  0
  135.9109   71.9168  223.0901 H   0  0  0  0  0  0  0  0  0  0  0  0
  1  2  1  0
  2  3  2  0
  3  4  1  0
  4  5  2  0
  5  6  1  0
  6  7  1  0
  7  8  1  0
  8  9  1  0
  9 10  1  0
 10 11  1  0
 11 12  1  0
 12 13  1  0
 13 14  2  0
 14 15  1  0
 15 16  1  0
 16 17  1  0
 17 18  1  0
 18 19  1  0
 19 20  1  0
 20 21  2  0
 21 22  1  0
 22 23  2  0
 23 24  1  0
 24 25  2  0
 19 26  1  0
 26 27  1  0
 15 28  2  0
 28 29  1  0
 29 30  1  0
 30 31  1  0
 31 32  1  0
 32 33  1  0
 33 34  2  0
 34 35  1  0
 35 36  2  0
 36 37  1  0
 37 38  2  0
 38 39  1  0
 29 40  2  0
 11 41  1  0
  6 42  2  0
 42  2  1  0
 41  7  1  0
 40 13  1  0
 27 16  1  0
 39 30  1  0
 25 20  1  0
 38 33  1  0
  1 43  1  0
  1 44  1  0
  1 45  1  0
  3 46  1  0
  4 47  1  0
  8 48  1  0
  8 49  1  0
  9 50  1  0
  9 51  1  0
 10 52  1  0
 10 53  1  0
 11 54  1  1
 12 55  1  0
 17 56  1  0
 17 57  1  0
 18 58  1  0
 18 59  1  0
 21 60  1  0
 22 61  1  0
 23 62  1  0
 24 63  1  0
 26 64  1  0
 26 65  1  0
 27 66  1  0
 27 67  1  0
 31 68  1  0
 31 69  1  0
 32 70  1  0
 32 71  1  0
 34 72  1  0
 35 73  1  0
 36 74  1  0
 37 75  1  0
 39 76  1  0
 39 77  1  0
 41 78  1  0
 41 79  1  0
M  END
>  <smiles>  (69) 
Cc1ccnc(N2CCCC(Nc3nc(N4CCN(c5ccccn5)CC4)nc(N4CCc5ccccc5C4)n3)C2)n1

>  <score_type>  (69) 
oracle

>  <origin>  (69) 
autodockgpu

>  <m_score__min__energy>  (69) 
-10.06

>  <m_primary>  (69) 
energy

>  <rmsd>  (69) 
7.629951060330534

>  <m_score__min__rmsd>  (69) 
7.629951060330534

>  <meeko>  (69) 
{"free_energy": -9.47, "intermolecular_energy": -11.26, "internal_energy": -1.79, "cluster_size": 18, "cluster_id": 4, "rank_in_cluster": 12}

>  <energy>  (69) 
-9.68

>  <cluster_rmsd>  (69) 
0.44

>  <cluster>  (69) 
3

$$$$

     RDKit          3D

 79 85  0  0  1  0  0  0  0  0999 V2000
  145.9180   66.6550  219.1640 C   0  0  0  0  0  0  0  0  0  0  0  0
  145.3140   68.0140  219.2110 C   0  0  0  0  0  0  0  0  0  0  0  0
  146.1640   69.0970  219.3010 C   0  0  0  0  0  0  0  0  0  0  0  0
  145.5890   70.3710  219.3450 C   0  0  0  0  0  0  0  0  0  0  0  0
  144.2360   70.4830  219.2980 N   0  0  0  0  0  0  0  0  0  0  0  0
  143.4180   69.4250  219.2110 C   0  0  0  0  0  0  0  0  0  0  0  0
  142.0180   69.6690  219.1680 N   0  0  0  0  0  0  0  0  0  0  0  0
  141.1330   68.6640  219.7250 C   0  0  0  0  0  0  0  0  0  0  0  0
  140.0820   68.2200  218.7180 C   0  0  0  0  0  0  0  0  0  0  0  0
  139.9230   69.1980  217.5930 C   0  0  0  0  0  0  0  0  0  0  0  0
  140.0360   70.6210  218.0830 C   0  0  1  0  0  0  0  0  0  0  0  0
  139.1170   70.9470  219.1410 N   0  0  0  0  0  0  0  0  0  0  0  0
  139.5350   71.6530  220.3210 C   0  0  0  0  0  0  0  0  0  0  0  0
  139.8280   72.9670  220.2980 N   0  0  0  0  0  0  0  0  0  0  0  0
  140.2200   73.6150  221.4240 C   0  0  0  0  0  0  0  0  0  0  0  0
  140.5340   75.0140  221.4060 N   0  0  0  0  0  0  0  0  0  0  0  0
  141.7600   75.4030  220.7740 C   0  0  0  0  0  0  0  0  0  0  0  0
  141.8290   76.8780  220.4600 C   0  0  0  0  0  0  0  0  0  0  0  0
  141.0480   77.6750  221.3560 N   0  0  0  0  0  0  0  0  0  0  0  0
  141.5190   78.7590  222.1210 C   0  0  0  0  0  0  0  0  0  0  0  0
  141.7760   80.0050  221.5830 C   0  0  0  0  0  0  0  0  0  0  0  0
  142.2380   81.0610  222.3500 C   0  0  0  0  0  0  0  0  0  0  0  0
  142.4590   80.8920  223.6980 C   0  0  0  0  0  0  0  0  0  0  0  0
  142.1930   79.6320  224.2110 C   0  0  0  0  0  0  0  0  0  0  0  0
  141.7440   78.6240  223.4440 N   0  0  0  0  0  0  0  0  0  0  0  0
  139.6250   77.3140  221.4780 C   0  0  0  0  0  0  0  0  0  0  0  0
  139.5980   75.9250  222.0250 C   0  0  0  0  0  0  0  0  0  0  0  0
  140.2930   72.8700  222.5370 N   0  0  0  0  0  0  0  0  0  0  0  0
  140.0090   71.5580  222.6000 C   0  0  0  0  0  0  0  0  0  0  0  0
  140.1190   70.8470  223.8470 N   0  0  0  0  0  0  0  0  0  0  0  0
  139.3260   69.6540  223.9910 C   0  0  0  0  0  0  0  0  0  0  0  0
  139.5880   68.8970  225.2510 C   0  0  0  0  0  0  0  0  0  0  0  0
  139.8220   69.8270  226.3800 C   0  0  0  0  0  0  0  0  0  0  0  0
  139.3650   69.5340  227.6590 C   0  0  0  0  0  0  0  0  0  0  0  0
  139.5860   70.4100  228.7200 C   0  0  0  0  0  0  0  0  0  0  0  0
  140.2700   71.5950  228.5250 C   0  0  0  0  0  0  0  0  0  0  0  0
  140.7270   71.8900  227.2470 C   0  0  0  0  0  0  0  0  0  0  0  0
  140.4990   71.0030  226.1910 C   0  0  0  0  0  0  0  0  0  0  0  0
  141.0040   71.3650  224.8630 C   0  0  0  0  0  0  0  0  0  0  0  0
  139.6250   70.9530  221.4630 N   0  0  0  0  0  0  0  0  0  0  0  0
  141.4380   70.8700  218.5950 C   0  0  0  0  0  0  0  0  0  0  0  0
  143.9640   68.2060  219.1680 N   0  0  0  0  0  0  0  0  0  0  0  0
  146.0801   66.2902  220.1890 H   0  0  0  0  0  0  0  0  0  0  0  0
  145.2395   65.9703  218.6341 H   0  0  0  0  0  0  0  0  0  0  0  0
  146.8809   66.6998  218.6341 H   0  0  0  0  0  0  0  0  0  0  0  0
  147.2552   68.9631  219.3369 H   0  0  0  0  0  0  0  0  0  0  0  0
  146.2220   71.2678  219.4165 H   0  0  0  0  0  0  0  0  0  0  0  0
  141.7300   67.7905  220.0260 H   0  0  0  0  0  0  0  0  0  0  0  0
  140.6152   69.1041  220.5900 H   0  0  0  0  0  0  0  0  0  0  0  0
  140.3804   67.2468  218.3011 H   0  0  0  0  0  0  0  0  0  0  0  0
  139.1185   68.1532  219.2445 H   0  0  0  0  0  0  0  0  0  0  0  0
  140.7075   69.0135  216.8443 H   0  0  0  0  0  0  0  0  0  0  0  0
  138.9245   69.0609  217.1524 H   0  0  0  0  0  0  0  0  0  0  0  0
  139.7906   71.2569  217.2197 H   0  0  0  0  0  0  0  0  0  0  0  0
  138.0920   70.6810  219.0990 H   0  0  0  0  0  0  0  0  0  0  0  0
  142.5942   75.1496  221.4448 H   0  0  0  0  0  0  0  0  0  0  0  0
  141.8184   74.8635  219.8172 H   0  0  0  0  0  0  0  0  0  0  0  0
  142.8781   77.2021  220.5255 H   0  0  0  0  0  0  0  0  0  0  0  0
  141.4192   77.0199  219.4491 H   0  0  0  0  0  0  0  0  0  0  0  0
  141.6077   80.1638  220.5076 H   0  0  0  0  0  0  0  0  0  0  0  0
  142.4289   82.0375  221.8809 H   0  0  0  0  0  0  0  0  0  0  0  0
  142.8264   81.7115  224.3331 H   0  0  0  0  0  0  0  0  0  0  0  0
  142.3551   79.4508  225.2838 H   0  0  0  0  0  0  0  0  0  0  0  0
  139.1129   78.0049  222.1639 H   0  0  0  0  0  0  0  0  0  0  0  0
  139.1093   77.3751  220.5083 H   0  0  0  0  0  0  0  0  0  0  0  0
  139.8284   75.9753  223.0994 H   0  0  0  0  0  0  0  0  0  0  0  0
  138.5936   75.5282  221.8159 H   0  0  0  0  0  0  0  0  0  0  0  0
  138.2642   69.9408  223.9746 H   0  0  0  0  0  0  0  0  0  0  0  0
  139.5990   68.9889  223.1585 H   0  0  0  0  0  0  0  0  0  0  0  0
  138.7184   68.2632  225.4792 H   0  0  0  0  0  0  0  0  0  0  0  0
  140.4855   68.2765  225.1114 H   0  0  0  0  0  0  0  0  0  0  0  0
  138.8199   68.5953  227.8369 H   0  0  0  0  0  0  0  0  0  0  0  0
  139.2123   70.1558  229.7228 H   0  0  0  0  0  0  0  0  0  0  0  0
  140.4480   72.2873  229.3611 H   0  0  0  0  0  0  0  0  0  0  0  0
  141.2720   72.8279  227.0646 H   0  0  0  0  0  0  0  0  0  0  0  0
  141.0564   72.4605  224.7781 H   0  0  0  0  0  0  0  0  0  0  0  0
  142.0071   70.9349  224.7255 H   0  0  0  0  0  0  0  0  0  0  0  0
  142.0687   71.2075  217.7593 H   0  0  0  0  0  0  0  0  0  0  0  0
  141.3861   71.6367  219.3821 H   0  0  0  0  0  0  0  0  0  0  0  0
  1  2  1  0
  2  3  2  0
  3  4  1  0
  4  5  2  0
  5  6  1  0
  6  7  1  0
  7  8  1  0
  8  9  1  0
  9 10  1  0
 10 11  1  0
 11 12  1  0
 12 13  1  0
 13 14  2  0
 14 15  1  0
 15 16  1  0
 16 17  1  0
 17 18  1  0
 18 19  1  0
 19 20  1  0
 20 21  2  0
 21 22  1  0
 22 23  2  0
 23 24  1  0
 24 25  2  0
 19 26  1  0
 26 27  1  0
 15 28  2  0
 28 29  1  0
 29 30  1  0
 30 31  1  0
 31 32  1  0
 32 33  1  0
 33 34  2  0
 34 35  1  0
 35 36  2  0
 36 37  1  0
 37 38  2  0
 38 39  1  0
 29 40  2  0
 11 41  1  0
  6 42  2  0
 42  2  1  0
 41  7  1  0
 40 13  1  0
 27 16  1  0
 39 30  1  0
 25 20  1  0
 38 33  1  0
  1 43  1  0
  1 44  1  0
  1 45  1  0
  3 46  1  0
  4 47  1  0
  8 48  1  0
  8 49  1  0
  9 50  1  0
  9 51  1  0
 10 52  1  0
 10 53  1  0
 11 54  1  6
 12 55  1  0
 17 56  1  0
 17 57  1  0
 18 58  1  0
 18 59  1  0
 21 60  1  0
 22 61  1  0
 23 62  1  0
 24 63  1  0
 26 64  1  0
 26 65  1  0
 27 66  1  0
 27 67  1  0
 31 68  1  0
 31 69  1  0
 32 70  1  0
 32 71  1  0
 34 72  1  0
 35 73  1  0
 36 74  1  0
 37 75  1  0
 39 76  1  0
 39 77  1  0
 41 78  1  0
 41 79  1  0
M  END
>  <smiles>  (70) 
Cc1ccnc(N2CCCC(Nc3nc(N4CCN(c5ccccn5)CC4)nc(N4CCc5ccccc5C4)n3)C2)n1

>  <score_type>  (70) 
oracle

>  <origin>  (70) 
autodockgpu

>  <m_score__min__energy>  (70) 
-10.06

>  <m_primary>  (70) 
energy

>  <rmsd>  (70) 
7.716626731272158

>  <m_score__min__rmsd>  (70) 
7.716626731272158

>  <meeko>  (70) 
{"free_energy": -9.93, "intermolecular_energy": -11.72, "internal_energy": -1.77, "cluster_size": 16, "cluster_id": 1, "rank_in_cluster": 11}

>  <energy>  (70) 
-9.56

>  <cluster_rmsd>  (70) 
1.77

>  <cluster>  (70) 
3

$$$$

     RDKit          3D

 79 85  0  0  1  0  0  0  0  0999 V2000
  146.2710   67.0150  216.5440 C   0  0  0  0  0  0  0  0  0  0  0  0
  145.5610   67.4690  217.7700 C   0  0  0  0  0  0  0  0  0  0  0  0
  146.2260   67.3760  218.9750 C   0  0  0  0  0  0  0  0  0  0  0  0
  145.5520   67.8040  220.1240 C   0  0  0  0  0  0  0  0  0  0  0  0
  144.2880   68.2870  220.0010 N   0  0  0  0  0  0  0  0  0  0  0  0
  143.6500   68.3730  218.8270 C   0  0  0  0  0  0  0  0  0  0  0  0
  142.3270   68.8960  218.8250 N   0  0  0  0  0  0  0  0  0  0  0  0
  141.2240   67.9620  218.9390 C   0  0  0  0  0  0  0  0  0  0  0  0
  140.2270   68.1270  217.8010 C   0  0  0  0  0  0  0  0  0  0  0  0
  140.3660   69.4510  217.1110 C   0  0  0  0  0  0  0  0  0  0  0  0
  140.6740   70.5520  218.0960 C   0  0  1  0  0  0  0  0  0  0  0  0
  139.7170   70.6620  219.1650 N   0  0  0  0  0  0  0  0  0  0  0  0
  139.9900   71.4200  220.3540 C   0  0  0  0  0  0  0  0  0  0  0  0
  140.2160   72.7470  220.3170 N   0  0  0  0  0  0  0  0  0  0  0  0
  140.4710   73.4450  221.4520 C   0  0  0  0  0  0  0  0  0  0  0  0
  140.7130   74.8580  221.4190 N   0  0  0  0  0  0  0  0  0  0  0  0
  141.8940   75.3050  220.7420 C   0  0  0  0  0  0  0  0  0  0  0  0
  141.8770   76.7800  220.4210 C   0  0  0  0  0  0  0  0  0  0  0  0
  141.0910   77.5410  221.3430 N   0  0  0  0  0  0  0  0  0  0  0  0
  141.5340   78.6510  222.0870 C   0  0  0  0  0  0  0  0  0  0  0  0
  141.7790   78.5960  223.4450 C   0  0  0  0  0  0  0  0  0  0  0  0
  142.2160   79.6970  224.1630 C   0  0  0  0  0  0  0  0  0  0  0  0
  142.4200   80.9000  223.5260 C   0  0  0  0  0  0  0  0  0  0  0  0
  142.1660   80.9270  222.1630 C   0  0  0  0  0  0  0  0  0  0  0  0
  141.7430   79.8430  221.4920 N   0  0  0  0  0  0  0  0  0  0  0  0
  139.6920   77.1090  221.5180 C   0  0  0  0  0  0  0  0  0  0  0  0
  139.7550   75.7240  222.0700 C   0  0  0  0  0  0  0  0  0  0  0  0
  140.4810   72.7350  222.5900 N   0  0  0  0  0  0  0  0  0  0  0  0
  140.2600   71.4110  222.6680 C   0  0  0  0  0  0  0  0  0  0  0  0
  140.2930   70.7400  223.9410 N   0  0  0  0  0  0  0  0  0  0  0  0
  139.5230   69.5280  224.0610 C   0  0  0  0  0  0  0  0  0  0  0  0
  139.7080   68.8170  225.3610 C   0  0  0  0  0  0  0  0  0  0  0  0
  139.8290   69.7860  226.4750 C   0  0  0  0  0  0  0  0  0  0  0  0
  139.2830   69.5170  227.7240 C   0  0  0  0  0  0  0  0  0  0  0  0
  139.3980   70.4290  228.7720 C   0  0  0  0  0  0  0  0  0  0  0  0
  140.0630   71.6280  228.5920 C   0  0  0  0  0  0  0  0  0  0  0  0
  140.6090   71.8980  227.3440 C   0  0  0  0  0  0  0  0  0  0  0  0
  140.4860   70.9750  226.3020 C   0  0  0  0  0  0  0  0  0  0  0  0
  141.0830   71.3130  225.0050 C   0  0  0  0  0  0  0  0  0  0  0  0
  140.0110   70.7570  221.5210 N   0  0  0  0  0  0  0  0  0  0  0  0
  142.0330   70.3130  218.7140 C   0  0  0  0  0  0  0  0  0  0  0  0
  144.2910   67.9650  217.7270 N   0  0  0  0  0  0  0  0  0  0  0  0
  147.1660   66.4427  216.8293 H   0  0  0  0  0  0  0  0  0  0  0  0
  145.6021   66.3766  215.9481 H   0  0  0  0  0  0  0  0  0  0  0  0
  146.5698   67.8900  215.9481 H   0  0  0  0  0  0  0  0  0  0  0  0
  147.2504   66.9792  219.0306 H   0  0  0  0  0  0  0  0  0  0  0  0
  146.0370   67.7504  221.1098 H   0  0  0  0  0  0  0  0  0  0  0  0
  141.6216   66.9366  218.9188 H   0  0  0  0  0  0  0  0  0  0  0  0
  140.7006   68.1632  219.8854 H   0  0  0  0  0  0  0  0  0  0  0  0
  140.3932   67.3257  217.0659 H   0  0  0  0  0  0  0  0  0  0  0  0
  139.2152   68.0751  218.2295 H   0  0  0  0  0  0  0  0  0  0  0  0
  141.1824   69.3885  216.3764 H   0  0  0  0  0  0  0  0  0  0  0  0
  139.4131   69.6857  216.6141 H   0  0  0  0  0  0  0  0  0  0  0  0
  140.6397   71.4885  217.5200 H   0  0  0  0  0  0  0  0  0  0  0  0
  138.7690   70.1890  219.1230 H   0  0  0  0  0  0  0  0  0  0  0  0
  142.7635   75.0973  221.3830 H   0  0  0  0  0  0  0  0  0  0  0  0
  141.9452   74.7643  219.7854 H   0  0  0  0  0  0  0  0  0  0  0  0
  142.9102   77.1567  220.4461 H   0  0  0  0  0  0  0  0  0  0  0  0
  141.4232   76.8962  219.4257 H   0  0  0  0  0  0  0  0  0  0  0  0
  141.6217   77.6449  223.9748 H   0  0  0  0  0  0  0  0  0  0  0  0
  142.4003   79.6098  225.2439 H   0  0  0  0  0  0  0  0  0  0  0  0
  142.7659   81.7920  224.0689 H   0  0  0  0  0  0  0  0  0  0  0  0
  142.3160   81.8677  221.6129 H   0  0  0  0  0  0  0  0  0  0  0  0
  139.1708   77.7767  222.2197 H   0  0  0  0  0  0  0  0  0  0  0  0
  139.1392   77.1390  220.5675 H   0  0  0  0  0  0  0  0  0  0  0  0
  140.0220   75.7912  223.1350 H   0  0  0  0  0  0  0  0  0  0  0  0
  138.7649   75.2760  221.9000 H   0  0  0  0  0  0  0  0  0  0  0  0
  138.4582   69.7827  223.9546 H   0  0  0  0  0  0  0  0  0  0  0  0
  139.8765   68.8470  223.2728 H   0  0  0  0  0  0  0  0  0  0  0  0
  138.8411   68.1646  225.5424 H   0  0  0  0  0  0  0  0  0  0  0  0
  140.6305   68.2201  225.3096 H   0  0  0  0  0  0  0  0  0  0  0  0
  138.7510   68.5684  227.8886 H   0  0  0  0  0  0  0  0  0  0  0  0
  138.9557   70.1927  229.7511 H   0  0  0  0  0  0  0  0  0  0  0  0
  140.1572   72.3498  229.4167 H   0  0  0  0  0  0  0  0  0  0  0  0
  141.1421   72.8451  227.1745 H   0  0  0  0  0  0  0  0  0  0  0  0
  141.1126   72.4066  224.8901 H   0  0  0  0  0  0  0  0  0  0  0  0
  142.1049   70.9086  224.9581 H   0  0  0  0  0  0  0  0  0  0  0  0
  142.8000   70.7886  218.0851 H   0  0  0  0  0  0  0  0  0  0  0  0
  142.0320   70.7448  219.7257 H   0  0  0  0  0  0  0  0  0  0  0  0
  1  2  1  0
  2  3  2  0
  3  4  1  0
  4  5  2  0
  5  6  1  0
  6  7  1  0
  7  8  1  0
  8  9  1  0
  9 10  1  0
 10 11  1  0
 11 12  1  0
 12 13  1  0
 13 14  2  0
 14 15  1  0
 15 16  1  0
 16 17  1  0
 17 18  1  0
 18 19  1  0
 19 20  1  0
 20 21  2  0
 21 22  1  0
 22 23  2  0
 23 24  1  0
 24 25  2  0
 19 26  1  0
 26 27  1  0
 15 28  2  0
 28 29  1  0
 29 30  1  0
 30 31  1  0
 31 32  1  0
 32 33  1  0
 33 34  2  0
 34 35  1  0
 35 36  2  0
 36 37  1  0
 37 38  2  0
 38 39  1  0
 29 40  2  0
 11 41  1  0
  6 42  2  0
 42  2  1  0
 41  7  1  0
 40 13  1  0
 27 16  1  0
 39 30  1  0
 25 20  1  0
 38 33  1  0
  1 43  1  0
  1 44  1  0
  1 45  1  0
  3 46  1  0
  4 47  1  0
  8 48  1  0
  8 49  1  0
  9 50  1  0
  9 51  1  0
 10 52  1  0
 10 53  1  0
 11 54  1  6
 12 55  1  0
 17 56  1  0
 17 57  1  0
 18 58  1  0
 18 59  1  0
 21 60  1  0
 22 61  1  0
 23 62  1  0
 24 63  1  0
 26 64  1  0
 26 65  1  0
 27 66  1  0
 27 67  1  0
 31 68  1  0
 31 69  1  0
 32 70  1  0
 32 71  1  0
 34 72  1  0
 35 73  1  0
 36 74  1  0
 37 75  1  0
 39 76  1  0
 39 77  1  0
 41 78  1  0
 41 79  1  0
M  END
>  <smiles>  (71) 
Cc1ccnc(N2CCCC(Nc3nc(N4CCN(c5ccccn5)CC4)nc(N4CCc5ccccc5C4)n3)C2)n1

>  <score_type>  (71) 
oracle

>  <origin>  (71) 
autodockgpu

>  <m_score__min__energy>  (71) 
-10.06

>  <m_primary>  (71) 
energy

>  <rmsd>  (71) 
7.462332412632323

>  <m_score__min__rmsd>  (71) 
7.462332412632323

>  <meeko>  (71) 
{"free_energy": -9.94, "intermolecular_energy": -11.73, "internal_energy": -1.57, "cluster_size": 16, "cluster_id": 1, "rank_in_cluster": 10}

>  <energy>  (71) 
-9.55

>  <cluster_rmsd>  (71) 
1.86

>  <cluster>  (71) 
3

$$$$

     RDKit          3D

 79 85  0  0  1  0  0  0  0  0999 V2000
  132.6720   72.5450  226.9780 C   0  0  0  0  0  0  0  0  0  0  0  0
  133.3620   73.5200  226.0910 C   0  0  0  0  0  0  0  0  0  0  0  0
  133.4990   74.8170  226.5390 C   0  0  0  0  0  0  0  0  0  0  0  0
  134.1490   75.7290  225.7000 C   0  0  0  0  0  0  0  0  0  0  0  0
  134.6080   75.3000  224.4950 N   0  0  0  0  0  0  0  0  0  0  0  0
  134.4680   74.0380  224.0680 C   0  0  0  0  0  0  0  0  0  0  0  0
  134.9910   73.7080  222.7870 N   0  0  0  0  0  0  0  0  0  0  0  0
  135.3510   74.7950  221.8970 C   0  0  0  0  0  0  0  0  0  0  0  0
  134.6580   74.6710  220.5480 C   0  0  0  0  0  0  0  0  0  0  0  0
  134.1450   73.2850  220.2980 C   0  0  0  0  0  0  0  0  0  0  0  0
  135.1010   72.2420  220.8250 C   0  0  1  0  0  0  0  0  0  0  0  0
  136.4380   72.3640  220.3070 N   0  0  0  0  0  0  0  0  0  0  0  0
  137.5450   72.7370  221.1430 C   0  0  0  0  0  0  0  0  0  0  0  0
  138.1040   73.9610  221.0820 N   0  0  0  0  0  0  0  0  0  0  0  0
  139.1480   74.2940  221.8810 C   0  0  0  0  0  0  0  0  0  0  0  0
  139.7470   75.5950  221.8200 N   0  0  0  0  0  0  0  0  0  0  0  0
  141.1020   75.6720  221.3590 C   0  0  0  0  0  0  0  0  0  0  0  0
  141.5200   77.0670  220.9630 C   0  0  0  0  0  0  0  0  0  0  0  0
  140.8090   78.0850  221.6750 N   0  0  0  0  0  0  0  0  0  0  0  0
  141.3880   79.1230  222.4310 C   0  0  0  0  0  0  0  0  0  0  0  0
  142.7520   79.3120  222.5270 C   0  0  0  0  0  0  0  0  0  0  0  0
  143.3060   80.3390  223.2740 C   0  0  0  0  0  0  0  0  0  0  0  0
  142.4910   81.2140  223.9550 C   0  0  0  0  0  0  0  0  0  0  0  0
  141.1260   81.0000  223.8420 C   0  0  0  0  0  0  0  0  0  0  0  0
  140.6160   79.9960  223.1090 N   0  0  0  0  0  0  0  0  0  0  0  0
  139.3390   78.0250  221.6020 C   0  0  0  0  0  0  0  0  0  0  0  0
  138.9470   76.7280  222.2280 C   0  0  0  0  0  0  0  0  0  0  0  0
  139.5760   73.3380  222.7200 N   0  0  0  0  0  0  0  0  0  0  0  0
  139.0460   72.1060  222.8100 C   0  0  0  0  0  0  0  0  0  0  0  0
  139.5800   71.1500  223.7440 N   0  0  0  0  0  0  0  0  0  0  0  0
  138.9540   69.8530  223.7800 C   0  0  0  0  0  0  0  0  0  0  0  0
  139.6400   68.8720  224.6730 C   0  0  0  0  0  0  0  0  0  0  0  0
  140.1380   69.5390  225.8980 C   0  0  0  0  0  0  0  0  0  0  0  0
  140.1130   68.8950  227.1290 C   0  0  0  0  0  0  0  0  0  0  0  0
  140.5830   69.5230  228.2800 C   0  0  0  0  0  0  0  0  0  0  0  0
  141.0900   70.8080  228.2240 C   0  0  0  0  0  0  0  0  0  0  0  0
  141.1150   71.4540  226.9950 C   0  0  0  0  0  0  0  0  0  0  0  0
  140.6410   70.8120  225.8480 C   0  0  0  0  0  0  0  0  0  0  0  0
  140.6920   71.5420  224.5760 C   0  0  0  0  0  0  0  0  0  0  0  0
  138.0130   71.8160  222.0010 N   0  0  0  0  0  0  0  0  0  0  0  0
  135.1770   72.3420  222.3320 C   0  0  0  0  0  0  0  0  0  0  0  0
  133.8490   73.1640  224.8680 N   0  0  0  0  0  0  0  0  0  0  0  0
  132.8591   72.8094  228.0292 H   0  0  0  0  0  0  0  0  0  0  0  0
  131.5902   72.5712  226.7803 H   0  0  0  0  0  0  0  0  0  0  0  0
  133.0565   71.5335  226.7803 H   0  0  0  0  0  0  0  0  0  0  0  0
  133.1109   75.1239  227.5214 H   0  0  0  0  0  0  0  0  0  0  0  0
  134.2861   76.7753  226.0106 H   0  0  0  0  0  0  0  0  0  0  0  0
  135.0584   75.7481  222.3618 H   0  0  0  0  0  0  0  0  0  0  0  0
  136.4374   74.7553  221.7293 H   0  0  0  0  0  0  0  0  0  0  0  0
  133.8110   75.3723  220.5195 H   0  0  0  0  0  0  0  0  0  0  0  0
  135.3973   74.9025  219.7671 H   0  0  0  0  0  0  0  0  0  0  0  0
  133.1735   73.1667  220.8001 H   0  0  0  0  0  0  0  0  0  0  0  0
  134.0420   73.1439  219.2120 H   0  0  0  0  0  0  0  0  0  0  0  0
  134.7020   71.2719  220.4936 H   0  0  0  0  0  0  0  0  0  0  0  0
  136.6660   72.1850  219.2880 H   0  0  0  0  0  0  0  0  0  0  0  0
  141.7652   75.3244  222.1649 H   0  0  0  0  0  0  0  0  0  0  0  0
  141.1764   75.0423  220.4601 H   0  0  0  0  0  0  0  0  0  0  0  0
  142.5949   77.1822  221.1661 H   0  0  0  0  0  0  0  0  0  0  0  0
  141.2898   77.1896  219.8944 H   0  0  0  0  0  0  0  0  0  0  0  0
  143.4224   78.6234  221.9919 H   0  0  0  0  0  0  0  0  0  0  0  0
  144.3988   80.4551  223.3228 H   0  0  0  0  0  0  0  0  0  0  0  0
  142.9006   82.0388  224.5566 H   0  0  0  0  0  0  0  0  0  0  0  0
  140.4369   81.6752  224.3704 H   0  0  0  0  0  0  0  0  0  0  0  0
  138.8945   78.8657  222.1549 H   0  0  0  0  0  0  0  0  0  0  0  0
  138.9847   78.0934  220.5629 H   0  0  0  0  0  0  0  0  0  0  0  0
  139.0342   76.8339  223.3194 H   0  0  0  0  0  0  0  0  0  0  0  0
  137.9197   76.5196  221.8945 H   0  0  0  0  0  0  0  0  0  0  0  0
  137.9197   69.9778  224.1331 H   0  0  0  0  0  0  0  0  0  0  0  0
  139.0069   69.4456  222.7596 H   0  0  0  0  0  0  0  0  0  0  0  0
  138.9286   68.0820  224.9557 H   0  0  0  0  0  0  0  0  0  0  0  0
  140.4952   68.4397  224.1329 H   0  0  0  0  0  0  0  0  0  0  0  0
  139.7152   67.8716  227.1957 H   0  0  0  0  0  0  0  0  0  0  0  0
  140.5505   68.9916  229.2426 H   0  0  0  0  0  0  0  0  0  0  0  0
  141.4643   71.3063  229.1304 H   0  0  0  0  0  0  0  0  0  0  0  0
  141.5106   72.4779  226.9239 H   0  0  0  0  0  0  0  0  0  0  0  0
  140.6381   72.6229  224.7726 H   0  0  0  0  0  0  0  0  0  0  0  0
  141.6339   71.3065  224.0590 H   0  0  0  0  0  0  0  0  0  0  0  0
  134.3920   71.7092  222.7718 H   0  0  0  0  0  0  0  0  0  0  0  0
  136.1755   72.0067  222.6491 H   0  0  0  0  0  0  0  0  0  0  0  0
  1  2  1  0
  2  3  2  0
  3  4  1  0
  4  5  2  0
  5  6  1  0
  6  7  1  0
  7  8  1  0
  8  9  1  0
  9 10  1  0
 10 11  1  0
 11 12  1  0
 12 13  1  0
 13 14  2  0
 14 15  1  0
 15 16  1  0
 16 17  1  0
 17 18  1  0
 18 19  1  0
 19 20  1  0
 20 21  2  0
 21 22  1  0
 22 23  2  0
 23 24  1  0
 24 25  2  0
 19 26  1  0
 26 27  1  0
 15 28  2  0
 28 29  1  0
 29 30  1  0
 30 31  1  0
 31 32  1  0
 32 33  1  0
 33 34  2  0
 34 35  1  0
 35 36  2  0
 36 37  1  0
 37 38  2  0
 38 39  1  0
 29 40  2  0
 11 41  1  0
  6 42  2  0
 42  2  1  0
 41  7  1  0
 40 13  1  0
 27 16  1  0
 39 30  1  0
 25 20  1  0
 38 33  1  0
  1 43  1  0
  1 44  1  0
  1 45  1  0
  3 46  1  0
  4 47  1  0
  8 48  1  0
  8 49  1  0
  9 50  1  0
  9 51  1  0
 10 52  1  0
 10 53  1  0
 11 54  1  1
 12 55  1  0
 17 56  1  0
 17 57  1  0
 18 58  1  0
 18 59  1  0
 21 60  1  0
 22 61  1  0
 23 62  1  0
 24 63  1  0
 26 64  1  0
 26 65  1  0
 27 66  1  0
 27 67  1  0
 31 68  1  0
 31 69  1  0
 32 70  1  0
 32 71  1  0
 34 72  1  0
 35 73  1  0
 36 74  1  0
 37 75  1  0
 39 76  1  0
 39 77  1  0
 41 78  1  0
 41 79  1  0
M  END
>  <smiles>  (72) 
Cc1ccnc(N2CCCC(Nc3nc(N4CCN(c5ccccn5)CC4)nc(N4CCc5ccccc5C4)n3)C2)n1

>  <score_type>  (72) 
oracle

>  <origin>  (72) 
autodockgpu

>  <m_score__min__energy>  (72) 
-10.06

>  <m_primary>  (72) 
energy

>  <rmsd>  (72) 
7.87611395528117

>  <m_score__min__rmsd>  (72) 
7.87611395528117

>  <meeko>  (72) 
{"free_energy": -9.7, "intermolecular_energy": -11.49, "internal_energy": -1.73, "cluster_size": 18, "cluster_id": 4, "rank_in_cluster": 7}

>  <energy>  (72) 
-9.55

>  <cluster_rmsd>  (72) 
1.9

>  <cluster>  (72) 
3

$$$$

     RDKit          3D

 79 85  0  0  1  0  0  0  0  0999 V2000
  140.3740   68.5420  228.4680 C   0  0  0  0  0  0  0  0  0  0  0  0
  140.3860   69.7320  227.5740 C   0  0  0  0  0  0  0  0  0  0  0  0
  141.0770   70.8500  227.9940 C   0  0  0  0  0  0  0  0  0  0  0  0
  141.0840   71.9640  227.1480 C   0  0  0  0  0  0  0  0  0  0  0  0
  140.4160   71.8950  225.9660 N   0  0  0  0  0  0  0  0  0  0  0  0
  139.7460   70.8050  225.5680 C   0  0  0  0  0  0  0  0  0  0  0  0
  139.0860   70.8540  224.3090 N   0  0  0  0  0  0  0  0  0  0  0  0
  137.8110   70.1750  224.1810 C   0  0  0  0  0  0  0  0  0  0  0  0
  137.8140   69.1860  223.0240 C   0  0  0  0  0  0  0  0  0  0  0  0
  138.9210   69.4550  222.0500 C   0  0  0  0  0  0  0  0  0  0  0  0
  139.1370   70.9370  221.8600 C   0  0  1  0  0  0  0  0  0  0  0  0
  137.9540   71.6510  221.4580 N   0  0  0  0  0  0  0  0  0  0  0  0
  137.6180   72.9340  222.0080 C   0  0  0  0  0  0  0  0  0  0  0  0
  138.4120   74.0100  221.8440 N   0  0  0  0  0  0  0  0  0  0  0  0
  138.0760   75.2140  222.3710 C   0  0  0  0  0  0  0  0  0  0  0  0
  138.9170   76.3620  222.2010 N   0  0  0  0  0  0  0  0  0  0  0  0
  140.3030   76.1250  221.9250 C   0  0  0  0  0  0  0  0  0  0  0  0
  141.0220   77.3380  221.3870 C   0  0  0  0  0  0  0  0  0  0  0  0
  140.4470   78.5700  221.8350 N   0  0  0  0  0  0  0  0  0  0  0  0
  141.1290   79.6060  222.5000 C   0  0  0  0  0  0  0  0  0  0  0  0
  141.0000   80.9360  222.1520 C   0  0  0  0  0  0  0  0  0  0  0  0
  141.6780   81.9450  222.8180 C   0  0  0  0  0  0  0  0  0  0  0  0
  142.5160   81.6380  223.8660 C   0  0  0  0  0  0  0  0  0  0  0  0
  142.6270   80.2960  224.1930 C   0  0  0  0  0  0  0  0  0  0  0  0
  141.9570   79.3380  223.5310 N   0  0  0  0  0  0  0  0  0  0  0  0
  139.0090   78.7520  221.5680 C   0  0  0  0  0  0  0  0  0  0  0  0
  138.3100   77.6690  222.3200 C   0  0  0  0  0  0  0  0  0  0  0  0
  136.9200   75.2570  223.0510 N   0  0  0  0  0  0  0  0  0  0  0  0
  136.1010   74.2070  223.2350 C   0  0  0  0  0  0  0  0  0  0  0  0
  134.8800   74.3570  223.9830 N   0  0  0  0  0  0  0  0  0  0  0  0
  134.6960   75.5980  224.6910 C   0  0  0  0  0  0  0  0  0  0  0  0
  133.3550   75.7390  225.3330 C   0  0  0  0  0  0  0  0  0  0  0  0
  132.9030   74.4420  225.8890 C   0  0  0  0  0  0  0  0  0  0  0  0
  132.1890   74.3800  227.0780 C   0  0  0  0  0  0  0  0  0  0  0  0
  131.7630   73.1590  227.5990 C   0  0  0  0  0  0  0  0  0  0  0  0
  132.0420   71.9760  226.9390 C   0  0  0  0  0  0  0  0  0  0  0  0
  132.7560   72.0370  225.7500 C   0  0  0  0  0  0  0  0  0  0  0  0
  133.1770   73.2680  225.2390 C   0  0  0  0  0  0  0  0  0  0  0  0
  133.9280   73.2720  223.9790 C   0  0  0  0  0  0  0  0  0  0  0  0
  136.4710   73.0330  222.6980 N   0  0  0  0  0  0  0  0  0  0  0  0
  139.6280   71.5460  223.1540 C   0  0  0  0  0  0  0  0  0  0  0  0
  139.7390   69.7380  226.3730 N   0  0  0  0  0  0  0  0  0  0  0  0
  140.3773   68.8717  229.5174 H   0  0  0  0  0  0  0  0  0  0  0  0
  139.4698   67.9465  228.2736 H   0  0  0  0  0  0  0  0  0  0  0  0
  141.2660   67.9284  228.2736 H   0  0  0  0  0  0  0  0  0  0  0  0
  141.6036   70.8648  228.9597 H   0  0  0  0  0  0  0  0  0  0  0  0
  141.6210   72.8804  227.4343 H   0  0  0  0  0  0  0  0  0  0  0  0
  137.6012   69.6315  225.1141 H   0  0  0  0  0  0  0  0  0  0  0  0
  137.0376   70.9318  223.9834 H   0  0  0  0  0  0  0  0  0  0  0  0
  137.9365   68.1699  223.4272 H   0  0  0  0  0  0  0  0  0  0  0  0
  136.8597   69.2923  222.4873 H   0  0  0  0  0  0  0  0  0  0  0  0
  139.8495   69.0034  222.4293 H   0  0  0  0  0  0  0  0  0  0  0  0
  138.6433   69.0176  221.0797 H   0  0  0  0  0  0  0  0  0  0  0  0
  139.8754   71.0324  221.0503 H   0  0  0  0  0  0  0  0  0  0  0  0
  137.2790   71.2620  220.7390 H   0  0  0  0  0  0  0  0  0  0  0  0
  140.7959   75.8123  222.8574 H   0  0  0  0  0  0  0  0  0  0  0  0
  140.3515   75.3473  221.1486 H   0  0  0  0  0  0  0  0  0  0  0  0
  142.0707   77.2995  221.7169 H   0  0  0  0  0  0  0  0  0  0  0  0
  140.9369   77.3132  220.2906 H   0  0  0  0  0  0  0  0  0  0  0  0
  140.3360   81.2042  221.3170 H   0  0  0  0  0  0  0  0  0  0  0  0
  141.5462   82.9924  222.5087 H   0  0  0  0  0  0  0  0  0  0  0  0
  143.0677   82.4159  224.4142 H   0  0  0  0  0  0  0  0  0  0  0  0
  143.2868   80.0049  225.0236 H   0  0  0  0  0  0  0  0  0  0  0  0
  138.6766   79.7390  221.9221 H   0  0  0  0  0  0  0  0  0  0  0  0
  138.7898   78.7006  220.4913 H   0  0  0  0  0  0  0  0  0  0  0  0
  138.2966   77.9449  223.3848 H   0  0  0  0  0  0  0  0  0  0  0  0
  137.3045   77.5856  221.8818 H   0  0  0  0  0  0  0  0  0  0  0  0
  135.4638   75.6654  225.4758 H   0  0  0  0  0  0  0  0  0  0  0  0
  134.7784   76.4038  223.9467 H   0  0  0  0  0  0  0  0  0  0  0  0
  133.4192   76.4777  226.1455 H   0  0  0  0  0  0  0  0  0  0  0  0
  132.6316   76.0701  224.5733 H   0  0  0  0  0  0  0  0  0  0  0  0
  131.9555   75.3095  227.6179 H   0  0  0  0  0  0  0  0  0  0  0  0
  131.1998   73.1363  228.5436 H   0  0  0  0  0  0  0  0  0  0  0  0
  131.7065   71.0108  227.3461 H   0  0  0  0  0  0  0  0  0  0  0  0
  132.9920   71.1103  225.2064 H   0  0  0  0  0  0  0  0  0  0  0  0
  134.4626   72.3170  223.8690 H   0  0  0  0  0  0  0  0  0  0  0  0
  133.2297   73.4035  223.1393 H   0  0  0  0  0  0  0  0  0  0  0  0
  140.7259   71.4845  223.1836 H   0  0  0  0  0  0  0  0  0  0  0  0
  139.2924   72.5929  223.1910 H   0  0  0  0  0  0  0  0  0  0  0  0
  1  2  1  0
  2  3  2  0
  3  4  1  0
  4  5  2  0
  5  6  1  0
  6  7  1  0
  7  8  1  0
  8  9  1  0
  9 10  1  0
 10 11  1  0
 11 12  1  0
 12 13  1  0
 13 14  2  0
 14 15  1  0
 15 16  1  0
 16 17  1  0
 17 18  1  0
 18 19  1  0
 19 20  1  0
 20 21  2  0
 21 22  1  0
 22 23  2  0
 23 24  1  0
 24 25  2  0
 19 26  1  0
 26 27  1  0
 15 28  2  0
 28 29  1  0
 29 30  1  0
 30 31  1  0
 31 32  1  0
 32 33  1  0
 33 34  2  0
 34 35  1  0
 35 36  2  0
 36 37  1  0
 37 38  2  0
 38 39  1  0
 29 40  2  0
 11 41  1  0
  6 42  2  0
 42  2  1  0
 41  7  1  0
 40 13  1  0
 27 16  1  0
 39 30  1  0
 25 20  1  0
 38 33  1  0
  1 43  1  0
  1 44  1  0
  1 45  1  0
  3 46  1  0
  4 47  1  0
  8 48  1  0
  8 49  1  0
  9 50  1  0
  9 51  1  0
 10 52  1  0
 10 53  1  0
 11 54  1  6
 12 55  1  0
 17 56  1  0
 17 57  1  0
 18 58  1  0
 18 59  1  0
 21 60  1  0
 22 61  1  0
 23 62  1  0
 24 63  1  0
 26 64  1  0
 26 65  1  0
 27 66  1  0
 27 67  1  0
 31 68  1  0
 31 69  1  0
 32 70  1  0
 32 71  1  0
 34 72  1  0
 35 73  1  0
 36 74  1  0
 37 75  1  0
 39 76  1  0
 39 77  1  0
 41 78  1  0
 41 79  1  0
M  END
>  <smiles>  (73) 
Cc1ccnc(N2CCCC(Nc3nc(N4CCN(c5ccccn5)CC4)nc(N4CCc5ccccc5C4)n3)C2)n1

>  <score_type>  (73) 
oracle

>  <origin>  (73) 
autodockgpu

>  <m_score__min__energy>  (73) 
-10.06

>  <m_primary>  (73) 
energy

>  <rmsd>  (73) 
8.382435803633204

>  <m_score__min__rmsd>  (73) 
8.382435803633204

>  <meeko>  (73) 
{"free_energy": -9.56, "intermolecular_energy": -11.35, "internal_energy": -1.75, "cluster_size": 12, "cluster_id": 3, "rank_in_cluster": 3}

>  <energy>  (73) 
-9.51

>  <cluster_rmsd>  (73) 
1.85

>  <cluster>  (73) 
3

$$$$

     RDKit          3D

 79 85  0  0  1  0  0  0  0  0999 V2000
  141.0970   71.8940  227.9590 C   0  0  0  0  0  0  0  0  0  0  0  0
  140.4970   70.8210  227.1220 C   0  0  0  0  0  0  0  0  0  0  0  0
  140.3080   69.5810  227.6960 C   0  0  0  0  0  0  0  0  0  0  0  0
  139.7440   68.5770  226.9020 C   0  0  0  0  0  0  0  0  0  0  0  0
  139.4120   68.8650  225.6160 N   0  0  0  0  0  0  0  0  0  0  0  0
  139.6000   70.0730  225.0670 C   0  0  0  0  0  0  0  0  0  0  0  0
  139.2130   70.2530  223.7100 N   0  0  0  0  0  0  0  0  0  0  0  0
  137.9700   69.6490  223.2700 C   0  0  0  0  0  0  0  0  0  0  0  0
  138.1780   68.7570  222.0550 C   0  0  0  0  0  0  0  0  0  0  0  0
  139.4680   69.0490  221.3490 C   0  0  0  0  0  0  0  0  0  0  0  0
  139.7650   70.5290  221.3380 C   0  0  1  0  0  0  0  0  0  0  0  0
  138.7120   71.3290  220.7710 N   0  0  0  0  0  0  0  0  0  0  0  0
  138.2240   72.5130  221.4210 C   0  0  0  0  0  0  0  0  0  0  0  0
  138.8700   73.6910  221.3360 N   0  0  0  0  0  0  0  0  0  0  0  0
  138.3910   74.7980  221.9570 C   0  0  0  0  0  0  0  0  0  0  0  0
  139.0750   76.0550  221.8700 N   0  0  0  0  0  0  0  0  0  0  0  0
  140.3540   76.0630  221.2250 C   0  0  0  0  0  0  0  0  0  0  0  0
  140.8200   77.4450  220.8360 C   0  0  0  0  0  0  0  0  0  0  0  0
  140.2960   78.4690  221.6880 N   0  0  0  0  0  0  0  0  0  0  0  0
  141.0520   79.4190  222.3990 C   0  0  0  0  0  0  0  0  0  0  0  0
  141.0660   80.7630  222.0780 C   0  0  0  0  0  0  0  0  0  0  0  0
  141.8150   81.6860  222.7890 C   0  0  0  0  0  0  0  0  0  0  0  0
  142.5830   81.2770  223.8560 C   0  0  0  0  0  0  0  0  0  0  0  0
  142.5510   79.9240  224.1550 C   0  0  0  0  0  0  0  0  0  0  0  0
  141.8140   79.0500  223.4490 N   0  0  0  0  0  0  0  0  0  0  0  0
  138.8290   78.5170  221.8220 C   0  0  0  0  0  0  0  0  0  0  0  0
  138.4290   77.2170  222.4380 C   0  0  0  0  0  0  0  0  0  0  0  0
  137.2510   74.6400  222.6470 N   0  0  0  0  0  0  0  0  0  0  0  0
  136.5780   73.4820  222.7550 C   0  0  0  0  0  0  0  0  0  0  0  0
  135.3610   73.4160  223.5220 N   0  0  0  0  0  0  0  0  0  0  0  0
  134.7500   74.6680  223.8870 C   0  0  0  0  0  0  0  0  0  0  0  0
  133.4260   74.5250  224.5630 C   0  0  0  0  0  0  0  0  0  0  0  0
  133.4280   73.3550  225.4720 C   0  0  0  0  0  0  0  0  0  0  0  0
  132.7490   73.3860  226.6840 C   0  0  0  0  0  0  0  0  0  0  0  0
  132.7500   72.2850  227.5380 C   0  0  0  0  0  0  0  0  0  0  0  0
  133.4290   71.1300  227.1970 C   0  0  0  0  0  0  0  0  0  0  0  0
  134.1090   71.0970  225.9870 C   0  0  0  0  0  0  0  0  0  0  0  0
  134.0990   72.2090  225.1390 C   0  0  0  0  0  0  0  0  0  0  0  0
  134.8340   72.1190  223.8730 C   0  0  0  0  0  0  0  0  0  0  0  0
  137.0850   72.4090  222.1260 N   0  0  0  0  0  0  0  0  0  0  0  0
  140.0010   71.0080  222.7520 C   0  0  0  0  0  0  0  0  0  0  0  0
  140.1390   71.0350  225.8230 N   0  0  0  0  0  0  0  0  0  0  0  0
  140.9601   71.6491  229.0226 H   0  0  0  0  0  0  0  0  0  0  0  0
  142.1713   71.9749  227.7367 H   0  0  0  0  0  0  0  0  0  0  0  0
  140.6034   72.8516  227.7367 H   0  0  0  0  0  0  0  0  0  0  0  0
  140.5909   69.3885  228.7414 H   0  0  0  0  0  0  0  0  0  0  0  0
  139.5720   67.5708  227.3118 H   0  0  0  0  0  0  0  0  0  0  0  0
  137.5576   69.0435  224.0906 H   0  0  0  0  0  0  0  0  0  0  0  0
  137.2769   70.4557  222.9891 H   0  0  0  0  0  0  0  0  0  0  0  0
  138.1844   67.7073  222.3837 H   0  0  0  0  0  0  0  0  0  0  0  0
  137.3567   68.9521  221.3497 H   0  0  0  0  0  0  0  0  0  0  0  0
  140.2854   68.5234  221.8644 H   0  0  0  0  0  0  0  0  0  0  0  0
  139.3793   68.7052  220.3079 H   0  0  0  0  0  0  0  0  0  0  0  0
  140.6560   70.6530  220.7050 H   0  0  0  0  0  0  0  0  0  0  0  0
  138.2500   71.0810  219.8500 H   0  0  0  0  0  0  0  0  0  0  0  0
  141.0937   75.6260  221.9119 H   0  0  0  0  0  0  0  0  0  0  0  0
  140.2537   75.4807  220.2972 H   0  0  0  0  0  0  0  0  0  0  0  0
  141.9184   77.4728  220.8881 H   0  0  0  0  0  0  0  0  0  0  0  0
  140.4538   77.6428  219.8178 H   0  0  0  0  0  0  0  0  0  0  0  0
  140.4611   81.1120  221.2281 H   0  0  0  0  0  0  0  0  0  0  0  0
  141.7962   82.7474  222.5007 H   0  0  0  0  0  0  0  0  0  0  0  0
  143.1891   81.9856  224.4395 H   0  0  0  0  0  0  0  0  0  0  0  0
  143.1498   79.5528  224.9997 H   0  0  0  0  0  0  0  0  0  0  0  0
  138.5316   79.3545  222.4701 H   0  0  0  0  0  0  0  0  0  0  0  0
  138.3403   78.6686  220.8482 H   0  0  0  0  0  0  0  0  0  0  0  0
  138.6743   77.2558  223.5096 H   0  0  0  0  0  0  0  0  0  0  0  0
  137.3526   77.0997  222.2443 H   0  0  0  0  0  0  0  0  0  0  0  0
  135.4306   75.1990  224.5688 H   0  0  0  0  0  0  0  0  0  0  0  0
  134.5713   75.2188  222.9518 H   0  0  0  0  0  0  0  0  0  0  0  0
  133.2173   75.4347  225.1452 H   0  0  0  0  0  0  0  0  0  0  0  0
  132.6508   74.3773  223.7967 H   0  0  0  0  0  0  0  0  0  0  0  0
  132.2015   74.2949  226.9741 H   0  0  0  0  0  0  0  0  0  0  0  0
  132.2054   72.3353  228.4924 H   0  0  0  0  0  0  0  0  0  0  0  0
  133.4305   70.2584  227.8680 H   0  0  0  0  0  0  0  0  0  0  0  0
  134.6590   70.1907  225.6935 H   0  0  0  0  0  0  0  0  0  0  0  0
  135.6635   71.4048  223.9820 H   0  0  0  0  0  0  0  0  0  0  0  0
  134.1526   71.7765  223.0803 H   0  0  0  0  0  0  0  0  0  0  0  0
  141.0673   70.8908  222.9954 H   0  0  0  0  0  0  0  0  0  0  0  0
  139.6982   72.0637  222.8130 H   0  0  0  0  0  0  0  0  0  0  0  0
  1  2  1  0
  2  3  2  0
  3  4  1  0
  4  5  2  0
  5  6  1  0
  6  7  1  0
  7  8  1  0
  8  9  1  0
  9 10  1  0
 10 11  1  0
 11 12  1  0
 12 13  1  0
 13 14  2  0
 14 15  1  0
 15 16  1  0
 16 17  1  0
 17 18  1  0
 18 19  1  0
 19 20  1  0
 20 21  2  0
 21 22  1  0
 22 23  2  0
 23 24  1  0
 24 25  2  0
 19 26  1  0
 26 27  1  0
 15 28  2  0
 28 29  1  0
 29 30  1  0
 30 31  1  0
 31 32  1  0
 32 33  1  0
 33 34  2  0
 34 35  1  0
 35 36  2  0
 36 37  1  0
 37 38  2  0
 38 39  1  0
 29 40  2  0
 11 41  1  0
  6 42  2  0
 42  2  1  0
 41  7  1  0
 40 13  1  0
 27 16  1  0
 39 30  1  0
 25 20  1  0
 38 33  1  0
  1 43  1  0
  1 44  1  0
  1 45  1  0
  3 46  1  0
  4 47  1  0
  8 48  1  0
  8 49  1  0
  9 50  1  0
  9 51  1  0
 10 52  1  0
 10 53  1  0
 11 54  1  6
 12 55  1  0
 17 56  1  0
 17 57  1  0
 18 58  1  0
 18 59  1  0
 21 60  1  0
 22 61  1  0
 23 62  1  0
 24 63  1  0
 26 64  1  0
 26 65  1  0
 27 66  1  0
 27 67  1  0
 31 68  1  0
 31 69  1  0
 32 70  1  0
 32 71  1  0
 34 72  1  0
 35 73  1  0
 36 74  1  0
 37 75  1  0
 39 76  1  0
 39 77  1  0
 41 78  1  0
 41 79  1  0
M  END
>  <smiles>  (74) 
Cc1ccnc(N2CCCC(Nc3nc(N4CCN(c5ccccn5)CC4)nc(N4CCc5ccccc5C4)n3)C2)n1

>  <score_type>  (74) 
oracle

>  <origin>  (74) 
autodockgpu

>  <m_score__min__energy>  (74) 
-10.06

>  <m_primary>  (74) 
energy

>  <rmsd>  (74) 
8.128748026915114

>  <m_score__min__rmsd>  (74) 
8.128748026915114

>  <meeko>  (74) 
{"free_energy": -9.06, "intermolecular_energy": -10.85, "internal_energy": -1.93, "cluster_size": 18, "cluster_id": 4, "rank_in_cluster": 18}

>  <energy>  (74) 
-9.5

>  <cluster_rmsd>  (74) 
1.95

>  <cluster>  (74) 
3

$$$$

     RDKit          3D

 79 85  0  0  1  0  0  0  0  0999 V2000
  140.3350   68.6040  228.3970 C   0  0  0  0  0  0  0  0  0  0  0  0
  140.4270   69.7640  227.4710 C   0  0  0  0  0  0  0  0  0  0  0  0
  141.0610   70.9040  227.9210 C   0  0  0  0  0  0  0  0  0  0  0  0
  141.1430   71.9910  227.0450 C   0  0  0  0  0  0  0  0  0  0  0  0
  140.6000   71.8770  225.8040 N   0  0  0  0  0  0  0  0  0  0  0  0
  139.9850   70.7660  225.3760 C   0  0  0  0  0  0  0  0  0  0  0  0
  139.4560   70.7660  224.0550 N   0  0  0  0  0  0  0  0  0  0  0  0
  138.1650   70.1430  223.8370 C   0  0  0  0  0  0  0  0  0  0  0  0
  138.2290   69.0840  222.7470 C   0  0  0  0  0  0  0  0  0  0  0  0
  139.4390   69.2360  221.8760 C   0  0  0  0  0  0  0  0  0  0  0  0
  139.7540   70.6900  221.6230 C   0  0  1  0  0  0  0  0  0  0  0  0
  138.6580   71.4340  221.0610 N   0  0  0  0  0  0  0  0  0  0  0  0
  138.2150   72.6780  221.6270 C   0  0  0  0  0  0  0  0  0  0  0  0
  138.9390   73.8080  221.5180 N   0  0  0  0  0  0  0  0  0  0  0  0
  138.5010   74.9730  222.0590 C   0  0  0  0  0  0  0  0  0  0  0  0
  139.2670   76.1800  221.9470 N   0  0  0  0  0  0  0  0  0  0  0  0
  140.6610   76.0450  221.6450 C   0  0  0  0  0  0  0  0  0  0  0  0
  141.2960   77.3300  221.1710 C   0  0  0  0  0  0  0  0  0  0  0  0
  140.6530   78.4960  221.6940 N   0  0  0  0  0  0  0  0  0  0  0  0
  141.2770   79.5340  222.4110 C   0  0  0  0  0  0  0  0  0  0  0  0
  141.1530   80.8660  222.0690 C   0  0  0  0  0  0  0  0  0  0  0  0
  141.7740   81.8750  222.7850 C   0  0  0  0  0  0  0  0  0  0  0  0
  142.5490   81.5680  223.8810 C   0  0  0  0  0  0  0  0  0  0  0  0
  142.6560   80.2240  224.2020 C   0  0  0  0  0  0  0  0  0  0  0  0
  142.0420   79.2650  223.4890 N   0  0  0  0  0  0  0  0  0  0  0  0
  139.2030   78.6030  221.4520 C   0  0  0  0  0  0  0  0  0  0  0  0
  138.5820   77.4370  222.1470 C   0  0  0  0  0  0  0  0  0  0  0  0
  137.3210   74.9210  222.6950 N   0  0  0  0  0  0  0  0  0  0  0  0
  136.5700   73.8130  222.8240 C   0  0  0  0  0  0  0  0  0  0  0  0
  135.3160   73.8610  223.5290 N   0  0  0  0  0  0  0  0  0  0  0  0
  134.7640   75.1650  223.7930 C   0  0  0  0  0  0  0  0  0  0  0  0
  133.4030   75.1380  224.4060 C   0  0  0  0  0  0  0  0  0  0  0  0
  133.2890   74.0240  225.3760 C   0  0  0  0  0  0  0  0  0  0  0  0
  132.5550   74.1640  226.5470 C   0  0  0  0  0  0  0  0  0  0  0  0
  132.4480   73.1140  227.4590 C   0  0  0  0  0  0  0  0  0  0  0  0
  133.0710   71.9050  227.2160 C   0  0  0  0  0  0  0  0  0  0  0  0
  133.8060   71.7640  226.0470 C   0  0  0  0  0  0  0  0  0  0  0  0
  133.9050   72.8240  225.1410 C   0  0  0  0  0  0  0  0  0  0  0  0
  134.6940   72.6190  223.9210 C   0  0  0  0  0  0  0  0  0  0  0  0
  137.0390   72.6800  222.2750 N   0  0  0  0  0  0  0  0  0  0  0  0
  140.1480   71.3560  222.9230 C   0  0  0  0  0  0  0  0  0  0  0  0
  139.9060   69.7250  226.2100 N   0  0  0  0  0  0  0  0  0  0  0  0
  140.3634   68.9617  229.4368 H   0  0  0  0  0  0  0  0  0  0  0  0
  139.3915   68.0671  228.2196 H   0  0  0  0  0  0  0  0  0  0  0  0
  141.1821   67.9251  228.2196 H   0  0  0  0  0  0  0  0  0  0  0  0
  141.4872   70.9560  228.9338 H   0  0  0  0  0  0  0  0  0  0  0  0
  141.6387   72.9228  227.3550 H   0  0  0  0  0  0  0  0  0  0  0  0
  137.8341   69.6709  224.7738 H   0  0  0  0  0  0  0  0  0  0  0  0
  137.4575   70.9222  223.5173 H   0  0  0  0  0  0  0  0  0  0  0  0
  138.2560   68.0911  223.2197 H   0  0  0  0  0  0  0  0  0  0  0  0
  137.3396   69.2022  222.1106 H   0  0  0  0  0  0  0  0  0  0  0  0
  140.2996   68.7642  222.3728 H   0  0  0  0  0  0  0  0  0  0  0  0
  139.2339   68.7522  220.9096 H   0  0  0  0  0  0  0  0  0  0  0  0
  140.5731   70.6972  220.8888 H   0  0  0  0  0  0  0  0  0  0  0  0
  138.1290   71.0980  220.2070 H   0  0  0  0  0  0  0  0  0  0  0  0
  141.1843   75.7111  222.5531 H   0  0  0  0  0  0  0  0  0  0  0  0
  140.7479   75.3167  220.8253 H   0  0  0  0  0  0  0  0  0  0  0  0
  142.3494   77.3384  221.4878 H   0  0  0  0  0  0  0  0  0  0  0  0
  141.1970   77.3622  220.0759 H   0  0  0  0  0  0  0  0  0  0  0  0
  140.5391   81.1349  221.1968 H   0  0  0  0  0  0  0  0  0  0  0  0
  141.6481   82.9237  222.4779 H   0  0  0  0  0  0  0  0  0  0  0  0
  143.0556   82.3470  224.4697 H   0  0  0  0  0  0  0  0  0  0  0  0
  143.2647   79.9324  225.0706 H   0  0  0  0  0  0  0  0  0  0  0  0
  138.8151   79.5454  221.8659 H   0  0  0  0  0  0  0  0  0  0  0  0
  138.9730   78.5997  220.3763 H   0  0  0  0  0  0  0  0  0  0  0  0
  138.5654   77.6503  223.2260 H   0  0  0  0  0  0  0  0  0  0  0  0
  137.5779   77.3160  221.7144 H   0  0  0  0  0  0  0  0  0  0  0  0
  135.4415   75.6945  224.4791 H   0  0  0  0  0  0  0  0  0  0  0  0
  134.6641   75.6699  222.8209 H   0  0  0  0  0  0  0  0  0  0  0  0
  133.2221   76.0901  224.9263 H   0  0  0  0  0  0  0  0  0  0  0  0
  132.6586   74.9917  223.6095 H   0  0  0  0  0  0  0  0  0  0  0  0
  132.0501   75.1181  226.7585 H   0  0  0  0  0  0  0  0  0  0  0  0
  131.8622   73.2498  228.3801 H   0  0  0  0  0  0  0  0  0  0  0  0
  132.9866   71.0741  227.9318 H   0  0  0  0  0  0  0  0  0  0  0  0
  134.3138   70.8122  225.8321 H   0  0  0  0  0  0  0  0  0  0  0  0
  135.4717   71.8647  224.1111 H   0  0  0  0  0  0  0  0  0  0  0  0
  134.0324   72.2724  223.1135 H   0  0  0  0  0  0  0  0  0  0  0  0
  141.2324   71.2424  223.0684 H   0  0  0  0  0  0  0  0  0  0  0  0
  139.8696   72.4186  222.8643 H   0  0  0  0  0  0  0  0  0  0  0  0
  1  2  1  0
  2  3  2  0
  3  4  1  0
  4  5  2  0
  5  6  1  0
  6  7  1  0
  7  8  1  0
  8  9  1  0
  9 10  1  0
 10 11  1  0
 11 12  1  0
 12 13  1  0
 13 14  2  0
 14 15  1  0
 15 16  1  0
 16 17  1  0
 17 18  1  0
 18 19  1  0
 19 20  1  0
 20 21  2  0
 21 22  1  0
 22 23  2  0
 23 24  1  0
 24 25  2  0
 19 26  1  0
 26 27  1  0
 15 28  2  0
 28 29  1  0
 29 30  1  0
 30 31  1  0
 31 32  1  0
 32 33  1  0
 33 34  2  0
 34 35  1  0
 35 36  2  0
 36 37  1  0
 37 38  2  0
 38 39  1  0
 29 40  2  0
 11 41  1  0
  6 42  2  0
 42  2  1  0
 41  7  1  0
 40 13  1  0
 27 16  1  0
 39 30  1  0
 25 20  1  0
 38 33  1  0
  1 43  1  0
  1 44  1  0
  1 45  1  0
  3 46  1  0
  4 47  1  0
  8 48  1  0
  8 49  1  0
  9 50  1  0
  9 51  1  0
 10 52  1  0
 10 53  1  0
 11 54  1  6
 12 55  1  0
 17 56  1  0
 17 57  1  0
 18 58  1  0
 18 59  1  0
 21 60  1  0
 22 61  1  0
 23 62  1  0
 24 63  1  0
 26 64  1  0
 26 65  1  0
 27 66  1  0
 27 67  1  0
 31 68  1  0
 31 69  1  0
 32 70  1  0
 32 71  1  0
 34 72  1  0
 35 73  1  0
 36 74  1  0
 37 75  1  0
 39 76  1  0
 39 77  1  0
 41 78  1  0
 41 79  1  0
M  END
>  <smiles>  (75) 
Cc1ccnc(N2CCCC(Nc3nc(N4CCN(c5ccccn5)CC4)nc(N4CCc5ccccc5C4)n3)C2)n1

>  <score_type>  (75) 
oracle

>  <origin>  (75) 
autodockgpu

>  <m_score__min__energy>  (75) 
-10.06

>  <m_primary>  (75) 
energy

>  <rmsd>  (75) 
8.297436817371652

>  <m_score__min__rmsd>  (75) 
8.297436817371652

>  <meeko>  (75) 
{"free_energy": -9.44, "intermolecular_energy": -11.23, "internal_energy": -1.86, "cluster_size": 12, "cluster_id": 3, "rank_in_cluster": 8}

>  <energy>  (75) 
-9.44

>  <cluster_rmsd>  (75) 
1.93

>  <cluster>  (75) 
3

$$$$

     RDKit          3D

 79 85  0  0  1  0  0  0  0  0999 V2000
  132.4340   73.2490  227.1450 C   0  0  0  0  0  0  0  0  0  0  0  0
  133.2890   74.0380  226.2180 C   0  0  0  0  0  0  0  0  0  0  0  0
  133.6660   75.3070  226.6060 C   0  0  0  0  0  0  0  0  0  0  0  0
  134.4700   76.0420  225.7280 C   0  0  0  0  0  0  0  0  0  0  0  0
  134.8380   75.4800  224.5470 N   0  0  0  0  0  0  0  0  0  0  0  0
  134.4670   74.2460  224.1790 C   0  0  0  0  0  0  0  0  0  0  0  0
  134.9160   73.7660  222.9180 N   0  0  0  0  0  0  0  0  0  0  0  0
  135.2700   74.7400  221.9040 C   0  0  0  0  0  0  0  0  0  0  0  0
  134.5090   74.5040  220.6070 C   0  0  0  0  0  0  0  0  0  0  0  0
  133.9370   73.1200  220.5270 C   0  0  0  0  0  0  0  0  0  0  0  0
  134.8810   72.1020  221.1180 C   0  0  1  0  0  0  0  0  0  0  0  0
  136.1950   72.1170  220.5320 N   0  0  0  0  0  0  0  0  0  0  0  0
  137.3620   72.4720  221.2910 C   0  0  0  0  0  0  0  0  0  0  0  0
  137.9610   73.6710  221.1590 N   0  0  0  0  0  0  0  0  0  0  0  0
  139.0620   73.9870  221.8860 C   0  0  0  0  0  0  0  0  0  0  0  0
  139.7040   75.2610  221.7500 N   0  0  0  0  0  0  0  0  0  0  0  0
  141.0680   75.2630  221.3100 C   0  0  0  0  0  0  0  0  0  0  0  0
  141.5390   76.6140  220.8280 C   0  0  0  0  0  0  0  0  0  0  0  0
  140.8510   77.7000  221.4570 N   0  0  0  0  0  0  0  0  0  0  0  0
  141.4510   78.7670  222.1520 C   0  0  0  0  0  0  0  0  0  0  0  0
  141.6050   78.7800  223.5240 C   0  0  0  0  0  0  0  0  0  0  0  0
  142.1990   79.8380  224.1920 C   0  0  0  0  0  0  0  0  0  0  0  0
  142.6590   80.9280  223.4890 C   0  0  0  0  0  0  0  0  0  0  0  0
  142.4920   80.8890  222.1130 C   0  0  0  0  0  0  0  0  0  0  0  0
  141.9130   79.8490  221.4910 N   0  0  0  0  0  0  0  0  0  0  0  0
  139.3810   77.6820  221.3590 C   0  0  0  0  0  0  0  0  0  0  0  0
  138.9360   76.4440  222.0640 C   0  0  0  0  0  0  0  0  0  0  0  0
  139.5010   73.0410  222.7310 N   0  0  0  0  0  0  0  0  0  0  0  0
  138.9310   71.8340  222.8910 C   0  0  0  0  0  0  0  0  0  0  0  0
  139.4810   70.8870  223.8250 N   0  0  0  0  0  0  0  0  0  0  0  0
  138.8510   69.5930  223.8910 C   0  0  0  0  0  0  0  0  0  0  0  0
  139.5520   68.6190  224.7800 C   0  0  0  0  0  0  0  0  0  0  0  0
  140.0810   69.2990  225.9850 C   0  0  0  0  0  0  0  0  0  0  0  0
  140.0800   68.6700  227.2240 C   0  0  0  0  0  0  0  0  0  0  0  0
  140.5790   69.3100  228.3570 C   0  0  0  0  0  0  0  0  0  0  0  0
  141.0890   70.5920  228.2740 C   0  0  0  0  0  0  0  0  0  0  0  0
  141.0900   71.2230  227.0370 C   0  0  0  0  0  0  0  0  0  0  0  0
  140.5880   70.5690  225.9080 C   0  0  0  0  0  0  0  0  0  0  0  0
  140.6140   71.2840  224.6270 C   0  0  0  0  0  0  0  0  0  0  0  0
  137.8430   71.5600  222.1520 N   0  0  0  0  0  0  0  0  0  0  0  0
  135.0330   72.3540  222.6010 C   0  0  0  0  0  0  0  0  0  0  0  0
  133.6990   73.5400  225.0160 N   0  0  0  0  0  0  0  0  0  0  0  0
  132.6982   73.4928  228.1846 H   0  0  0  0  0  0  0  0  0  0  0  0
  131.3767   73.4954  226.9679 H   0  0  0  0  0  0  0  0  0  0  0  0
  132.5949   72.1753  226.9679 H   0  0  0  0  0  0  0  0  0  0  0  0
  133.3459   75.7261  227.5713 H   0  0  0  0  0  0  0  0  0  0  0  0
  134.7989   77.0585  225.9896 H   0  0  0  0  0  0  0  0  0  0  0  0
  135.0328   75.7467  222.2784 H   0  0  0  0  0  0  0  0  0  0  0  0
  136.3452   74.6410  221.6938 H   0  0  0  0  0  0  0  0  0  0  0  0
  133.6862   75.2312  220.5422 H   0  0  0  0  0  0  0  0  0  0  0  0
  135.2176   74.6241  219.7742 H   0  0  0  0  0  0  0  0  0  0  0  0
  132.9872   73.0922  221.0812 H   0  0  0  0  0  0  0  0  0  0  0  0
  133.7767   72.8711  219.4676 H   0  0  0  0  0  0  0  0  0  0  0  0
  134.4332   71.1194  220.9081 H   0  0  0  0  0  0  0  0  0  0  0  0
  136.3620   71.8690  219.5150 H   0  0  0  0  0  0  0  0  0  0  0  0
  141.7060   74.9502  222.1497 H   0  0  0  0  0  0  0  0  0  0  0  0
  141.1358   74.5715  220.4572 H   0  0  0  0  0  0  0  0  0  0  0  0
  142.6138   76.7081  221.0423 H   0  0  0  0  0  0  0  0  0  0  0  0
  141.3304   76.6711  219.7495 H   0  0  0  0  0  0  0  0  0  0  0  0
  141.2433   77.9201  224.1069 H   0  0  0  0  0  0  0  0  0  0  0  0
  142.3033   79.8069  225.2866 H   0  0  0  0  0  0  0  0  0  0  0  0
  143.1334   81.7838  223.9914 H   0  0  0  0  0  0  0  0  0  0  0  0
  142.8457   81.7386  221.5105 H   0  0  0  0  0  0  0  0  0  0  0  0
  138.9548   78.5723  221.8445 H   0  0  0  0  0  0  0  0  0  0  0  0
  139.0473   77.6904  220.3109 H   0  0  0  0  0  0  0  0  0  0  0  0
  139.0082   76.6218  223.1471 H   0  0  0  0  0  0  0  0  0  0  0  0
  137.9083   76.2461  221.7253 H   0  0  0  0  0  0  0  0  0  0  0  0
  137.8254   69.7267  224.2656 H   0  0  0  0  0  0  0  0  0  0  0  0
  138.8803   69.1733  222.8746 H   0  0  0  0  0  0  0  0  0  0  0  0
  138.8432   67.8364  225.0885 H   0  0  0  0  0  0  0  0  0  0  0  0
  140.3923   68.1750  224.2261 H   0  0  0  0  0  0  0  0  0  0  0  0
  139.6786   67.6497  227.3121 H   0  0  0  0  0  0  0  0  0  0  0  0
  140.5669   68.7901  229.3263 H   0  0  0  0  0  0  0  0  0  0  0  0
  141.4844   71.1000  229.1660 H   0  0  0  0  0  0  0  0  0  0  0  0
  141.4884   72.2442  226.9449 H   0  0  0  0  0  0  0  0  0  0  0  0
  140.5694   72.3674  224.8120 H   0  0  0  0  0  0  0  0  0  0  0  0
  141.5431   71.0386  224.0917 H   0  0  0  0  0  0  0  0  0  0  0  0
  134.2490   71.8012  223.1392 H   0  0  0  0  0  0  0  0  0  0  0  0
  136.0336   72.0145  222.9069 H   0  0  0  0  0  0  0  0  0  0  0  0
  1  2  1  0
  2  3  2  0
  3  4  1  0
  4  5  2  0
  5  6  1  0
  6  7  1  0
  7  8  1  0
  8  9  1  0
  9 10  1  0
 10 11  1  0
 11 12  1  0
 12 13  1  0
 13 14  2  0
 14 15  1  0
 15 16  1  0
 16 17  1  0
 17 18  1  0
 18 19  1  0
 19 20  1  0
 20 21  2  0
 21 22  1  0
 22 23  2  0
 23 24  1  0
 24 25  2  0
 19 26  1  0
 26 27  1  0
 15 28  2  0
 28 29  1  0
 29 30  1  0
 30 31  1  0
 31 32  1  0
 32 33  1  0
 33 34  2  0
 34 35  1  0
 35 36  2  0
 36 37  1  0
 37 38  2  0
 38 39  1  0
 29 40  2  0
 11 41  1  0
  6 42  2  0
 42  2  1  0
 41  7  1  0
 40 13  1  0
 27 16  1  0
 39 30  1  0
 25 20  1  0
 38 33  1  0
  1 43  1  0
  1 44  1  0
  1 45  1  0
  3 46  1  0
  4 47  1  0
  8 48  1  0
  8 49  1  0
  9 50  1  0
  9 51  1  0
 10 52  1  0
 10 53  1  0
 11 54  1  1
 12 55  1  0
 17 56  1  0
 17 57  1  0
 18 58  1  0
 18 59  1  0
 21 60  1  0
 22 61  1  0
 23 62  1  0
 24 63  1  0
 26 64  1  0
 26 65  1  0
 27 66  1  0
 27 67  1  0
 31 68  1  0
 31 69  1  0
 32 70  1  0
 32 71  1  0
 34 72  1  0
 35 73  1  0
 36 74  1  0
 37 75  1  0
 39 76  1  0
 39 77  1  0
 41 78  1  0
 41 79  1  0
M  END
>  <smiles>  (76) 
Cc1ccnc(N2CCCC(Nc3nc(N4CCN(c5ccccn5)CC4)nc(N4CCc5ccccc5C4)n3)C2)n1

>  <score_type>  (76) 
oracle

>  <origin>  (76) 
autodockgpu

>  <m_score__min__energy>  (76) 
-10.06

>  <m_primary>  (76) 
energy

>  <rmsd>  (76) 
7.603638260448383

>  <m_score__min__rmsd>  (76) 
7.603638260448383

>  <meeko>  (76) 
{"free_energy": -9.67, "intermolecular_energy": -11.46, "internal_energy": -1.77, "cluster_size": 18, "cluster_id": 4, "rank_in_cluster": 10}

>  <energy>  (76) 
-9.29

>  <cluster_rmsd>  (76) 
1.77

>  <cluster>  (76) 
3

$$$$

     RDKit          3D

 79 85  0  0  1  0  0  0  0  0999 V2000
  145.9470   66.6840  219.3190 C   0  0  0  0  0  0  0  0  0  0  0  0
  145.3400   68.0420  219.3050 C   0  0  0  0  0  0  0  0  0  0  0  0
  146.1860   69.1300  219.3470 C   0  0  0  0  0  0  0  0  0  0  0  0
  145.6070   70.4030  219.3340 C   0  0  0  0  0  0  0  0  0  0  0  0
  144.2530   70.5090  219.2820 N   0  0  0  0  0  0  0  0  0  0  0  0
  143.4390   69.4450  219.2430 C   0  0  0  0  0  0  0  0  0  0  0  0
  142.0380   69.6830  219.1890 N   0  0  0  0  0  0  0  0  0  0  0  0
  141.1540   68.6760  219.7430 C   0  0  0  0  0  0  0  0  0  0  0  0
  140.1120   68.2230  218.7300 C   0  0  0  0  0  0  0  0  0  0  0  0
  139.9570   69.1970  217.6010 C   0  0  0  0  0  0  0  0  0  0  0  0
  140.0600   70.6220  218.0870 C   0  0  1  0  0  0  0  0  0  0  0  0
  139.1320   70.9470  219.1370 N   0  0  0  0  0  0  0  0  0  0  0  0
  139.5390   71.6550  220.3190 C   0  0  0  0  0  0  0  0  0  0  0  0
  139.8250   72.9710  220.2980 N   0  0  0  0  0  0  0  0  0  0  0  0
  140.2070   73.6210  221.4260 C   0  0  0  0  0  0  0  0  0  0  0  0
  140.5140   75.0210  221.4110 N   0  0  0  0  0  0  0  0  0  0  0  0
  141.7290   75.4200  220.7640 C   0  0  0  0  0  0  0  0  0  0  0  0
  141.7850   76.8960  220.4550 C   0  0  0  0  0  0  0  0  0  0  0  0
  141.0130   77.6860  221.3660 N   0  0  0  0  0  0  0  0  0  0  0  0
  141.4890   78.7680  222.1290 C   0  0  0  0  0  0  0  0  0  0  0  0
  141.7460   78.6790  223.4830 C   0  0  0  0  0  0  0  0  0  0  0  0
  142.2150   79.7540  224.2200 C   0  0  0  0  0  0  0  0  0  0  0  0
  142.4400   80.9650  223.6070 C   0  0  0  0  0  0  0  0  0  0  0  0
  142.1740   81.0270  222.2480 C   0  0  0  0  0  0  0  0  0  0  0  0
  141.7200   79.9680  221.5580 N   0  0  0  0  0  0  0  0  0  0  0  0
  139.5940   77.3160  221.5060 C   0  0  0  0  0  0  0  0  0  0  0  0
  139.5810   75.9250  222.0470 C   0  0  0  0  0  0  0  0  0  0  0  0
  140.2780   72.8760  222.5400 N   0  0  0  0  0  0  0  0  0  0  0  0
  140.0000   71.5630  222.6010 C   0  0  0  0  0  0  0  0  0  0  0  0
  140.1070   70.8520  223.8480 N   0  0  0  0  0  0  0  0  0  0  0  0
  139.3070   69.6630  223.9930 C   0  0  0  0  0  0  0  0  0  0  0  0
  139.5660   68.9060  225.2540 C   0  0  0  0  0  0  0  0  0  0  0  0
  139.8050   69.8350  226.3820 C   0  0  0  0  0  0  0  0  0  0  0  0
  139.3470   69.5460  227.6610 C   0  0  0  0  0  0  0  0  0  0  0  0
  139.5740   70.4210  228.7220 C   0  0  0  0  0  0  0  0  0  0  0  0
  140.2650   71.6020  228.5250 C   0  0  0  0  0  0  0  0  0  0  0  0
  140.7230   71.8930  227.2480 C   0  0  0  0  0  0  0  0  0  0  0  0
  140.4890   71.0070  226.1920 C   0  0  0  0  0  0  0  0  0  0  0  0
  140.9960   71.3650  224.8630 C   0  0  0  0  0  0  0  0  0  0  0  0
  139.6260   70.9560  221.4620 N   0  0  0  0  0  0  0  0  0  0  0  0
  141.4560   70.8790  218.6070 C   0  0  0  0  0  0  0  0  0  0  0  0
  143.9890   68.2270  219.2540 N   0  0  0  0  0  0  0  0  0  0  0  0
  146.0926   66.3582  220.3595 H   0  0  0  0  0  0  0  0  0  0  0  0
  145.2787   65.9783  218.8039 H   0  0  0  0  0  0  0  0  0  0  0  0
  146.9186   66.7113  218.8039 H   0  0  0  0  0  0  0  0  0  0  0  0
  147.2776   69.0013  219.3892 H   0  0  0  0  0  0  0  0  0  0  0  0
  146.2373   71.3040  219.3654 H   0  0  0  0  0  0  0  0  0  0  0  0
  141.7530   67.8065  220.0514 H   0  0  0  0  0  0  0  0  0  0  0  0
  140.6278   69.1169  220.6025 H   0  0  0  0  0  0  0  0  0  0  0  0
  140.4180   67.2498  218.3185 H   0  0  0  0  0  0  0  0  0  0  0  0
  139.1450   68.1525  219.2496 H   0  0  0  0  0  0  0  0  0  0  0  0
  140.7478   69.0137  216.8587 H   0  0  0  0  0  0  0  0  0  0  0  0
  138.9622   69.0541  217.1538 H   0  0  0  0  0  0  0  0  0  0  0  0
  139.8177   71.2543  217.2201 H   0  0  0  0  0  0  0  0  0  0  0  0
  138.1080   70.6800  219.0870 H   0  0  0  0  0  0  0  0  0  0  0  0
  142.5737   75.1690  221.4225 H   0  0  0  0  0  0  0  0  0  0  0  0
  141.7776   74.8846  219.8043 H   0  0  0  0  0  0  0  0  0  0  0  0
  142.8332   77.2257  220.5059 H   0  0  0  0  0  0  0  0  0  0  0  0
  141.3589   77.0393  219.4511 H   0  0  0  0  0  0  0  0  0  0  0  0
  141.5721   77.7207  223.9942 H   0  0  0  0  0  0  0  0  0  0  0  0
  142.4078   79.6393  225.2969 H   0  0  0  0  0  0  0  0  0  0  0  0
  142.8110   81.8371  224.1653 H   0  0  0  0  0  0  0  0  0  0  0  0
  142.3404   81.9757  221.7167 H   0  0  0  0  0  0  0  0  0  0  0  0
  139.0876   78.0011  222.2018 H   0  0  0  0  0  0  0  0  0  0  0  0
  139.0654   77.3780  220.5433 H   0  0  0  0  0  0  0  0  0  0  0  0
  139.8253   75.9717  223.1185 H   0  0  0  0  0  0  0  0  0  0  0  0
  138.5759   75.5240  221.8497 H   0  0  0  0  0  0  0  0  0  0  0  0
  138.2467   69.9555  223.9768 H   0  0  0  0  0  0  0  0  0  0  0  0
  139.5754   68.9957  223.1607 H   0  0  0  0  0  0  0  0  0  0  0  0
  138.6934   68.2766  225.4831 H   0  0  0  0  0  0  0  0  0  0  0  0
  140.4607   68.2814  225.1143 H   0  0  0  0  0  0  0  0  0  0  0  0
  138.7959   68.6109  227.8396 H   0  0  0  0  0  0  0  0  0  0  0  0
  139.1999   70.1695  229.7254 H   0  0  0  0  0  0  0  0  0  0  0  0
  140.4473   72.2942  229.3603 H   0  0  0  0  0  0  0  0  0  0  0  0
  141.2741   72.8273  227.0651 H   0  0  0  0  0  0  0  0  0  0  0  0
  141.0555   72.4600  224.7773 H   0  0  0  0  0  0  0  0  0  0  0  0
  141.9962   70.9285  224.7253 H   0  0  0  0  0  0  0  0  0  0  0  0
  142.0907   71.2160  217.7742 H   0  0  0  0  0  0  0  0  0  0  0  0
  141.3950   71.6484  219.3907 H   0  0  0  0  0  0  0  0  0  0  0  0
  1  2  1  0
  2  3  2  0
  3  4  1  0
  4  5  2  0
  5  6  1  0
  6  7  1  0
  7  8  1  0
  8  9  1  0
  9 10  1  0
 10 11  1  0
 11 12  1  0
 12 13  1  0
 13 14  2  0
 14 15  1  0
 15 16  1  0
 16 17  1  0
 17 18  1  0
 18 19  1  0
 19 20  1  0
 20 21  2  0
 21 22  1  0
 22 23  2  0
 23 24  1  0
 24 25  2  0
 19 26  1  0
 26 27  1  0
 15 28  2  0
 28 29  1  0
 29 30  1  0
 30 31  1  0
 31 32  1  0
 32 33  1  0
 33 34  2  0
 34 35  1  0
 35 36  2  0
 36 37  1  0
 37 38  2  0
 38 39  1  0
 29 40  2  0
 11 41  1  0
  6 42  2  0
 42  2  1  0
 41  7  1  0
 40 13  1  0
 27 16  1  0
 39 30  1  0
 25 20  1  0
 38 33  1  0
  1 43  1  0
  1 44  1  0
  1 45  1  0
  3 46  1  0
  4 47  1  0
  8 48  1  0
  8 49  1  0
  9 50  1  0
  9 51  1  0
 10 52  1  0
 10 53  1  0
 11 54  1  6
 12 55  1  0
 17 56  1  0
 17 57  1  0
 18 58  1  0
 18 59  1  0
 21 60  1  0
 22 61  1  0
 23 62  1  0
 24 63  1  0
 26 64  1  0
 26 65  1  0
 27 66  1  0
 27 67  1  0
 31 68  1  0
 31 69  1  0
 32 70  1  0
 32 71  1  0
 34 72  1  0
 35 73  1  0
 36 74  1  0
 37 75  1  0
 39 76  1  0
 39 77  1  0
 41 78  1  0
 41 79  1  0
M  END
>  <smiles>  (77) 
Cc1ccnc(N2CCCC(Nc3nc(N4CCN(c5ccccn5)CC4)nc(N4CCc5ccccc5C4)n3)C2)n1

>  <score_type>  (77) 
oracle

>  <origin>  (77) 
autodockgpu

>  <m_score__min__energy>  (77) 
-10.06

>  <m_primary>  (77) 
energy

>  <rmsd>  (77) 
7.508014139794301

>  <m_score__min__rmsd>  (77) 
7.508014139794301

>  <meeko>  (77) 
{"free_energy": -9.95, "intermolecular_energy": -11.74, "internal_energy": -1.77, "cluster_size": 16, "cluster_id": 1, "rank_in_cluster": 9}

>  <energy>  (77) 
-9.24

>  <cluster_rmsd>  (77) 
1.96

>  <cluster>  (77) 
3

$$$$

     RDKit          3D

 79 85  0  0  1  0  0  0  0  0999 V2000
  141.4710   72.2870  227.6020 C   0  0  0  0  0  0  0  0  0  0  0  0
  140.6800   71.2310  226.9150 C   0  0  0  0  0  0  0  0  0  0  0  0
  140.5880   69.9940  227.5190 C   0  0  0  0  0  0  0  0  0  0  0  0
  139.8420   69.0070  226.8670 C   0  0  0  0  0  0  0  0  0  0  0  0
  139.2500   69.3070  225.6820 N   0  0  0  0  0  0  0  0  0  0  0  0
  139.3450   70.5110  225.1020 C   0  0  0  0  0  0  0  0  0  0  0  0
  138.6800   70.7060  223.8600 N   0  0  0  0  0  0  0  0  0  0  0  0
  137.3160   70.2290  223.7350 C   0  0  0  0  0  0  0  0  0  0  0  0
  137.1530   69.2960  222.5440 C   0  0  0  0  0  0  0  0  0  0  0  0
  138.2720   69.4340  221.5560 C   0  0  0  0  0  0  0  0  0  0  0  0
  138.7040   70.8730  221.4140 C   0  0  1  0  0  0  0  0  0  0  0  0
  137.6350   71.7700  221.0630 N   0  0  0  0  0  0  0  0  0  0  0  0
  137.4180   73.0050  221.7630 C   0  0  0  0  0  0  0  0  0  0  0  0
  138.2470   74.0580  221.6250 N   0  0  0  0  0  0  0  0  0  0  0  0
  138.0240   75.2160  222.2950 C   0  0  0  0  0  0  0  0  0  0  0  0
  138.9030   76.3400  222.1530 N   0  0  0  0  0  0  0  0  0  0  0  0
  140.2910   76.0620  221.9350 C   0  0  0  0  0  0  0  0  0  0  0  0
  141.0650   77.2520  221.4200 C   0  0  0  0  0  0  0  0  0  0  0  0
  140.5080   78.5020  221.8380 N   0  0  0  0  0  0  0  0  0  0  0  0
  141.1910   79.5230  222.5250 C   0  0  0  0  0  0  0  0  0  0  0  0
  142.1690   79.2720  223.4670 C   0  0  0  0  0  0  0  0  0  0  0  0
  142.8330   80.2890  224.1340 C   0  0  0  0  0  0  0  0  0  0  0  0
  142.5260   81.6040  223.8680 C   0  0  0  0  0  0  0  0  0  0  0  0
  141.5400   81.8270  222.9190 C   0  0  0  0  0  0  0  0  0  0  0  0
  140.9130   80.8210  222.2870 N   0  0  0  0  0  0  0  0  0  0  0  0
  139.0870   78.7220  221.5130 C   0  0  0  0  0  0  0  0  0  0  0  0
  138.3280   77.6630  222.2420 C   0  0  0  0  0  0  0  0  0  0  0  0
  136.9410   75.2390  223.0880 N   0  0  0  0  0  0  0  0  0  0  0  0
  136.0910   74.2110  223.2510 C   0  0  0  0  0  0  0  0  0  0  0  0
  134.9550   74.3360  224.1270 N   0  0  0  0  0  0  0  0  0  0  0  0
  135.0260   75.3500  225.1470 C   0  0  0  0  0  0  0  0  0  0  0  0
  133.7650   75.5140  225.9310 C   0  0  0  0  0  0  0  0  0  0  0  0
  133.1250   74.1990  226.1710 C   0  0  0  0  0  0  0  0  0  0  0  0
  132.4750   73.9250  227.3670 C   0  0  0  0  0  0  0  0  0  0  0  0
  131.8710   72.6880  227.5910 C   0  0  0  0  0  0  0  0  0  0  0  0
  131.9070   71.7020  226.6230 C   0  0  0  0  0  0  0  0  0  0  0  0
  132.5570   71.9740  225.4270 C   0  0  0  0  0  0  0  0  0  0  0  0
  133.1580   73.2190  225.2150 C   0  0  0  0  0  0  0  0  0  0  0  0
  133.8310   73.4520  223.9330 C   0  0  0  0  0  0  0  0  0  0  0  0
  136.3480   73.0820  222.5700 N   0  0  0  0  0  0  0  0  0  0  0  0
  139.3010   71.3530  222.7190 C   0  0  0  0  0  0  0  0  0  0  0  0
  140.0560   71.4580  225.7230 N   0  0  0  0  0  0  0  0  0  0  0  0
  141.3788   72.1639  228.6912 H   0  0  0  0  0  0  0  0  0  0  0  0
  142.5284   72.2005  227.3114 H   0  0  0  0  0  0  0  0  0  0  0  0
  141.0907   73.2774  227.3114 H   0  0  0  0  0  0  0  0  0  0  0  0
  141.0840   69.7912  228.4797 H   0  0  0  0  0  0  0  0  0  0  0  0
  139.7364   68.0042  227.3067 H   0  0  0  0  0  0  0  0  0  0  0  0
  137.0423   69.6872  224.6524 H   0  0  0  0  0  0  0  0  0  0  0  0
  136.6611   71.0993  223.5810 H   0  0  0  0  0  0  0  0  0  0  0  0
  137.1286   68.2583  222.9082 H   0  0  0  0  0  0  0  0  0  0  0  0
  136.2170   69.5641  222.0321 H   0  0  0  0  0  0  0  0  0  0  0  0
  139.1285   68.8349  221.8988 H   0  0  0  0  0  0  0  0  0  0  0  0
  137.9164   69.0801  220.5771 H   0  0  0  0  0  0  0  0  0  0  0  0
  139.4355   70.8879  220.5926 H   0  0  0  0  0  0  0  0  0  0  0  0
  136.9600   71.5600  220.2730 H   0  0  0  0  0  0  0  0  0  0  0  0
  140.7368   75.7416  222.8882 H   0  0  0  0  0  0  0  0  0  0  0  0
  140.3492   75.2779  221.1657 H   0  0  0  0  0  0  0  0  0  0  0  0
  142.0982   77.1863  221.7918 H   0  0  0  0  0  0  0  0  0  0  0  0
  141.0227   77.2228  220.3212 H   0  0  0  0  0  0  0  0  0  0  0  0
  142.4301   78.2282  223.6959 H   0  0  0  0  0  0  0  0  0  0  0  0
  143.6065   80.0450  224.8771 H   0  0  0  0  0  0  0  0  0  0  0  0
  143.0354   82.4333  224.3806 H   0  0  0  0  0  0  0  0  0  0  0  0
  141.2617   82.8630  222.6754 H   0  0  0  0  0  0  0  0  0  0  0  0
  138.7685   79.7199  221.8487 H   0  0  0  0  0  0  0  0  0  0  0  0
  138.9095   78.6700  220.4287 H   0  0  0  0  0  0  0  0  0  0  0  0
  138.2799   77.9452  223.3041 H   0  0  0  0  0  0  0  0  0  0  0  0
  137.3385   77.6051  221.7651 H   0  0  0  0  0  0  0  0  0  0  0  0
  135.8342   75.0833  225.8440 H   0  0  0  0  0  0  0  0  0  0  0  0
  135.2072   76.3055  224.6331 H   0  0  0  0  0  0  0  0  0  0  0  0
  133.9989   75.9840  226.8977 H   0  0  0  0  0  0  0  0  0  0  0  0
  133.0711   76.1467  225.3581 H   0  0  0  0  0  0  0  0  0  0  0  0
  132.4358   74.6961  228.1505 H   0  0  0  0  0  0  0  0  0  0  0  0
  131.3614   72.4953  228.5466 H   0  0  0  0  0  0  0  0  0  0  0  0
  131.4319   70.7251  226.7962 H   0  0  0  0  0  0  0  0  0  0  0  0
  132.5997   71.2056  224.6411 H   0  0  0  0  0  0  0  0  0  0  0  0
  134.1857   72.4933  223.5268 H   0  0  0  0  0  0  0  0  0  0  0  0
  133.1229   73.9125  223.2284 H   0  0  0  0  0  0  0  0  0  0  0  0
  140.3777   71.1279  222.7232 H   0  0  0  0  0  0  0  0  0  0  0  0
  139.1259   72.4360  222.7999 H   0  0  0  0  0  0  0  0  0  0  0  0
  1  2  1  0
  2  3  2  0
  3  4  1  0
  4  5  2  0
  5  6  1  0
  6  7  1  0
  7  8  1  0
  8  9  1  0
  9 10  1  0
 10 11  1  0
 11 12  1  0
 12 13  1  0
 13 14  2  0
 14 15  1  0
 15 16  1  0
 16 17  1  0
 17 18  1  0
 18 19  1  0
 19 20  1  0
 20 21  2  0
 21 22  1  0
 22 23  2  0
 23 24  1  0
 24 25  2  0
 19 26  1  0
 26 27  1  0
 15 28  2  0
 28 29  1  0
 29 30  1  0
 30 31  1  0
 31 32  1  0
 32 33  1  0
 33 34  2  0
 34 35  1  0
 35 36  2  0
 36 37  1  0
 37 38  2  0
 38 39  1  0
 29 40  2  0
 11 41  1  0
  6 42  2  0
 42  2  1  0
 41  7  1  0
 40 13  1  0
 27 16  1  0
 39 30  1  0
 25 20  1  0
 38 33  1  0
  1 43  1  0
  1 44  1  0
  1 45  1  0
  3 46  1  0
  4 47  1  0
  8 48  1  0
  8 49  1  0
  9 50  1  0
  9 51  1  0
 10 52  1  0
 10 53  1  0
 11 54  1  6
 12 55  1  0
 17 56  1  0
 17 57  1  0
 18 58  1  0
 18 59  1  0
 21 60  1  0
 22 61  1  0
 23 62  1  0
 24 63  1  0
 26 64  1  0
 26 65  1  0
 27 66  1  0
 27 67  1  0
 31 68  1  0
 31 69  1  0
 32 70  1  0
 32 71  1  0
 34 72  1  0
 35 73  1  0
 36 74  1  0
 37 75  1  0
 39 76  1  0
 39 77  1  0
 41 78  1  0
 41 79  1  0
M  END
>  <smiles>  (78) 
Cc1ccnc(N2CCCC(Nc3nc(N4CCN(c5ccccn5)CC4)nc(N4CCc5ccccc5C4)n3)C2)n1

>  <score_type>  (78) 
oracle

>  <origin>  (78) 
autodockgpu

>  <m_score__min__energy>  (78) 
-10.06

>  <m_primary>  (78) 
energy

>  <rmsd>  (78) 
8.1419189440299

>  <m_score__min__rmsd>  (78) 
8.1419189440299

>  <meeko>  (78) 
{"free_energy": -9.32, "intermolecular_energy": -11.11, "internal_energy": -1.83, "cluster_size": 18, "cluster_id": 4, "rank_in_cluster": 15}

>  <energy>  (78) 
-9.17

>  <cluster_rmsd>  (78) 
1.32

>  <cluster>  (78) 
3

$$$$

     RDKit          3D

 79 85  0  0  1  0  0  0  0  0999 V2000
  140.2940   68.6060  228.3600 C   0  0  0  0  0  0  0  0  0  0  0  0
  140.4030   69.7660  227.4350 C   0  0  0  0  0  0  0  0  0  0  0  0
  141.0290   70.9060  227.8960 C   0  0  0  0  0  0  0  0  0  0  0  0
  141.1270   71.9920  227.0210 C   0  0  0  0  0  0  0  0  0  0  0  0
  140.6060   71.8770  225.7700 N   0  0  0  0  0  0  0  0  0  0  0  0
  139.9990   70.7660  225.3320 C   0  0  0  0  0  0  0  0  0  0  0  0
  139.4940   70.7650  224.0020 N   0  0  0  0  0  0  0  0  0  0  0  0
  138.2110   70.1350  223.7600 C   0  0  0  0  0  0  0  0  0  0  0  0
  138.3000   69.0780  222.6700 C   0  0  0  0  0  0  0  0  0  0  0  0
  139.5250   69.2380  221.8210 C   0  0  0  0  0  0  0  0  0  0  0  0
  139.8370   70.6940  221.5760 C   0  0  1  0  0  0  0  0  0  0  0  0
  138.7470   71.4330  220.9950 N   0  0  0  0  0  0  0  0  0  0  0  0
  138.2600   72.6530  221.5770 C   0  0  0  0  0  0  0  0  0  0  0  0
  138.9430   73.8100  221.4810 N   0  0  0  0  0  0  0  0  0  0  0  0
  138.4660   74.9510  222.0370 C   0  0  0  0  0  0  0  0  0  0  0  0
  139.1880   76.1860  221.9400 N   0  0  0  0  0  0  0  0  0  0  0  0
  140.5420   76.1180  221.4730 C   0  0  0  0  0  0  0  0  0  0  0  0
  141.0910   77.4550  221.0380 C   0  0  0  0  0  0  0  0  0  0  0  0
  140.4870   78.5560  221.7240 N   0  0  0  0  0  0  0  0  0  0  0  0
  141.1670   79.5520  222.4490 C   0  0  0  0  0  0  0  0  0  0  0  0
  142.0120   79.2690  223.5040 C   0  0  0  0  0  0  0  0  0  0  0  0
  142.6750   80.2610  224.2080 C   0  0  0  0  0  0  0  0  0  0  0  0
  142.5030   81.5830  223.8650 C   0  0  0  0  0  0  0  0  0  0  0  0
  141.6490   81.8380  222.8030 C   0  0  0  0  0  0  0  0  0  0  0  0
  141.0190   80.8560  222.1380 N   0  0  0  0  0  0  0  0  0  0  0  0
  139.0170   78.6370  221.6550 C   0  0  0  0  0  0  0  0  0  0  0  0
  138.5040   77.4020  222.3180 C   0  0  0  0  0  0  0  0  0  0  0  0
  137.2890   74.8490  222.6740 N   0  0  0  0  0  0  0  0  0  0  0  0
  136.5790   73.7140  222.7910 C   0  0  0  0  0  0  0  0  0  0  0  0
  135.3240   73.7090  223.4970 N   0  0  0  0  0  0  0  0  0  0  0  0
  134.7040   74.9870  223.7360 C   0  0  0  0  0  0  0  0  0  0  0  0
  133.3470   74.8980  224.3520 C   0  0  0  0  0  0  0  0  0  0  0  0
  133.2940   73.8000  225.3460 C   0  0  0  0  0  0  0  0  0  0  0  0
  132.5560   73.9240  226.5150 C   0  0  0  0  0  0  0  0  0  0  0  0
  132.5060   72.8890  227.4480 C   0  0  0  0  0  0  0  0  0  0  0  0
  133.1940   71.7100  227.2290 C   0  0  0  0  0  0  0  0  0  0  0  0
  133.9340   71.5850  226.0610 C   0  0  0  0  0  0  0  0  0  0  0  0
  133.9740   72.6300  225.1330 C   0  0  0  0  0  0  0  0  0  0  0  0
  134.7720   72.4430  223.9160 C   0  0  0  0  0  0  0  0  0  0  0  0
  137.0860   72.6060  222.2270 N   0  0  0  0  0  0  0  0  0  0  0  0
  140.2030   71.3600  222.8830 C   0  0  0  0  0  0  0  0  0  0  0  0
  139.9050   69.7250  226.1660 N   0  0  0  0  0  0  0  0  0  0  0  0
  140.3275   68.9621  229.4002 H   0  0  0  0  0  0  0  0  0  0  0  0
  139.3428   68.0831  228.1819 H   0  0  0  0  0  0  0  0  0  0  0  0
  141.1312   67.9151  228.1819 H   0  0  0  0  0  0  0  0  0  0  0  0
  141.4367   70.9585  228.9163 H   0  0  0  0  0  0  0  0  0  0  0  0
  141.6173   72.9239  227.3391 H   0  0  0  0  0  0  0  0  0  0  0  0
  137.8661   69.6597  224.6901 H   0  0  0  0  0  0  0  0  0  0  0  0
  137.5051   70.9108  223.4285 H   0  0  0  0  0  0  0  0  0  0  0  0
  138.3238   68.0846  223.1417 H   0  0  0  0  0  0  0  0  0  0  0  0
  137.4214   69.1922  222.0180 H   0  0  0  0  0  0  0  0  0  0  0  0
  140.3789   68.7699  222.3325 H   0  0  0  0  0  0  0  0  0  0  0  0
  139.3397   68.7549  220.8503 H   0  0  0  0  0  0  0  0  0  0  0  0
  140.6696   70.7066  220.8573 H   0  0  0  0  0  0  0  0  0  0  0  0
  138.2540   71.1100  220.1140 H   0  0  0  0  0  0  0  0  0  0  0  0
  141.1727   75.7293  222.2861 H   0  0  0  0  0  0  0  0  0  0  0  0
  140.5502   75.4599  220.5916 H   0  0  0  0  0  0  0  0  0  0  0  0
  142.1732   77.4705  221.2343 H   0  0  0  0  0  0  0  0  0  0  0  0
  140.8669   77.5708  219.9673 H   0  0  0  0  0  0  0  0  0  0  0  0
  142.1639   78.2193  223.7955 H   0  0  0  0  0  0  0  0  0  0  0  0
  143.3397   79.9919  225.0421 H   0  0  0  0  0  0  0  0  0  0  0  0
  143.0154   82.3933  224.4044 H   0  0  0  0  0  0  0  0  0  0  0  0
  141.4817   82.8805  222.4945 H   0  0  0  0  0  0  0  0  0  0  0  0
  138.6585   79.5319  222.1847 H   0  0  0  0  0  0  0  0  0  0  0  0
  138.6665   78.7106  220.6149 H   0  0  0  0  0  0  0  0  0  0  0  0
  138.6066   77.5291  223.4058 H   0  0  0  0  0  0  0  0  0  0  0  0
  137.4596   77.2854  221.9930 H   0  0  0  0  0  0  0  0  0  0  0  0
  135.3527   75.5654  224.4103 H   0  0  0  0  0  0  0  0  0  0  0  0
  134.5771   75.4676  222.7547 H   0  0  0  0  0  0  0  0  0  0  0  0
  133.1145   75.8496  224.8524 H   0  0  0  0  0  0  0  0  0  0  0  0
  132.6117   74.6937  223.5598 H   0  0  0  0  0  0  0  0  0  0  0  0
  132.0015   74.8541  226.7086 H   0  0  0  0  0  0  0  0  0  0  0  0
  131.9137   73.0117  228.3668 H   0  0  0  0  0  0  0  0  0  0  0  0
  133.1560   70.8910  227.9623 H   0  0  0  0  0  0  0  0  0  0  0  0
  134.4924   70.6579  225.8644 H   0  0  0  0  0  0  0  0  0  0  0  0
  135.5904   71.7369  224.1203 H   0  0  0  0  0  0  0  0  0  0  0  0
  134.1300   72.0433  223.1172 H   0  0  0  0  0  0  0  0  0  0  0  0
  141.2852   71.2523  223.0479 H   0  0  0  0  0  0  0  0  0  0  0  0
  139.9193   72.4209  222.8203 H   0  0  0  0  0  0  0  0  0  0  0  0
  1  2  1  0
  2  3  2  0
  3  4  1  0
  4  5  2  0
  5  6  1  0
  6  7  1  0
  7  8  1  0
  8  9  1  0
  9 10  1  0
 10 11  1  0
 11 12  1  0
 12 13  1  0
 13 14  2  0
 14 15  1  0
 15 16  1  0
 16 17  1  0
 17 18  1  0
 18 19  1  0
 19 20  1  0
 20 21  2  0
 21 22  1  0
 22 23  2  0
 23 24  1  0
 24 25  2  0
 19 26  1  0
 26 27  1  0
 15 28  2  0
 28 29  1  0
 29 30  1  0
 30 31  1  0
 31 32  1  0
 32 33  1  0
 33 34  2  0
 34 35  1  0
 35 36  2  0
 36 37  1  0
 37 38  2  0
 38 39  1  0
 29 40  2  0
 11 41  1  0
  6 42  2  0
 42  2  1  0
 41  7  1  0
 40 13  1  0
 27 16  1  0
 39 30  1  0
 25 20  1  0
 38 33  1  0
  1 43  1  0
  1 44  1  0
  1 45  1  0
  3 46  1  0
  4 47  1  0
  8 48  1  0
  8 49  1  0
  9 50  1  0
  9 51  1  0
 10 52  1  0
 10 53  1  0
 11 54  1  6
 12 55  1  0
 17 56  1  0
 17 57  1  0
 18 58  1  0
 18 59  1  0
 21 60  1  0
 22 61  1  0
 23 62  1  0
 24 63  1  0
 26 64  1  0
 26 65  1  0
 27 66  1  0
 27 67  1  0
 31 68  1  0
 31 69  1  0
 32 70  1  0
 32 71  1  0
 34 72  1  0
 35 73  1  0
 36 74  1  0
 37 75  1  0
 39 76  1  0
 39 77  1  0
 41 78  1  0
 41 79  1  0
M  END
>  <smiles>  (79) 
Cc1ccnc(N2CCCC(Nc3nc(N4CCN(c5ccccn5)CC4)nc(N4CCc5ccccc5C4)n3)C2)n1

>  <score_type>  (79) 
oracle

>  <origin>  (79) 
autodockgpu

>  <m_score__min__energy>  (79) 
-10.06

>  <m_primary>  (79) 
energy

>  <rmsd>  (79) 
8.054423418751238

>  <m_score__min__rmsd>  (79) 
8.054423418751238

>  <meeko>  (79) 
{"free_energy": -9.45, "intermolecular_energy": -11.24, "internal_energy": -1.88, "cluster_size": 18, "cluster_id": 4, "rank_in_cluster": 13}

>  <energy>  (79) 
-9.15

>  <cluster_rmsd>  (79) 
1.79

>  <cluster>  (79) 
3

$$$$

     RDKit          3D

 79 85  0  0  1  0  0  0  0  0999 V2000
  140.2990   68.6330  228.4190 C   0  0  0  0  0  0  0  0  0  0  0  0
  140.3880   69.7770  227.4720 C   0  0  0  0  0  0  0  0  0  0  0  0
  141.0160   70.9270  227.9030 C   0  0  0  0  0  0  0  0  0  0  0  0
  141.0950   71.9980  227.0070 C   0  0  0  0  0  0  0  0  0  0  0  0
  140.5550   71.8590  225.7680 N   0  0  0  0  0  0  0  0  0  0  0  0
  139.9460   70.7380  225.3580 C   0  0  0  0  0  0  0  0  0  0  0  0
  139.4200   70.7120  224.0370 N   0  0  0  0  0  0  0  0  0  0  0  0
  138.1260   70.0910  223.8300 C   0  0  0  0  0  0  0  0  0  0  0  0
  138.1850   69.0080  222.7640 C   0  0  0  0  0  0  0  0  0  0  0  0
  139.3990   69.1330  221.8930 C   0  0  0  0  0  0  0  0  0  0  0  0
  139.7220   70.5800  221.6080 C   0  0  1  0  0  0  0  0  0  0  0  0
  138.6310   71.3170  221.0270 N   0  0  0  0  0  0  0  0  0  0  0  0
  138.1760   72.5620  221.5800 C   0  0  0  0  0  0  0  0  0  0  0  0
  138.9120   73.6880  221.5010 N   0  0  0  0  0  0  0  0  0  0  0  0
  138.4630   74.8540  222.0290 C   0  0  0  0  0  0  0  0  0  0  0  0
  139.2410   76.0560  221.9490 N   0  0  0  0  0  0  0  0  0  0  0  0
  140.6300   75.9170  221.6250 C   0  0  0  0  0  0  0  0  0  0  0  0
  141.2740   77.2100  221.1880 C   0  0  0  0  0  0  0  0  0  0  0  0
  140.6490   78.3640  221.7570 N   0  0  0  0  0  0  0  0  0  0  0  0
  141.2940   79.3700  222.5020 C   0  0  0  0  0  0  0  0  0  0  0  0
  142.6670   79.4460  222.6330 C   0  0  0  0  0  0  0  0  0  0  0  0
  143.2860   80.4440  223.3680 C   0  0  0  0  0  0  0  0  0  0  0  0
  142.5310   81.4040  224.0020 C   0  0  0  0  0  0  0  0  0  0  0  0
  141.1560   81.3040  223.8540 C   0  0  0  0  0  0  0  0  0  0  0  0
  140.5820   80.3260  223.1340 N   0  0  0  0  0  0  0  0  0  0  0  0
  139.1980   78.4950  221.5360 C   0  0  0  0  0  0  0  0  0  0  0  0
  138.5720   77.3130  222.1990 C   0  0  0  0  0  0  0  0  0  0  0  0
  137.2600   74.8090  222.6220 N   0  0  0  0  0  0  0  0  0  0  0  0
  136.4970   73.7060  222.7200 C   0  0  0  0  0  0  0  0  0  0  0  0
  135.2180   73.7620  223.3780 N   0  0  0  0  0  0  0  0  0  0  0  0
  134.5670   75.0450  223.4330 C   0  0  0  0  0  0  0  0  0  0  0  0
  133.1900   75.0050  224.0100 C   0  0  0  0  0  0  0  0  0  0  0  0
  133.1210   74.0380  225.1300 C   0  0  0  0  0  0  0  0  0  0  0  0
  132.3380   74.2900  226.2500 C   0  0  0  0  0  0  0  0  0  0  0  0
  132.2720   73.3790  227.3030 C   0  0  0  0  0  0  0  0  0  0  0  0
  132.9880   72.1980  227.2570 C   0  0  0  0  0  0  0  0  0  0  0  0
  133.7720   71.9440  226.1390 C   0  0  0  0  0  0  0  0  0  0  0  0
  133.8280   72.8660  225.0900 C   0  0  0  0  0  0  0  0  0  0  0  0
  134.6730   72.5460  223.9340 C   0  0  0  0  0  0  0  0  0  0  0  0
  136.9780   72.5720  222.1850 N   0  0  0  0  0  0  0  0  0  0  0  0
  140.1160   71.2720  222.8930 C   0  0  0  0  0  0  0  0  0  0  0  0
  139.8700   69.7120  226.2120 N   0  0  0  0  0  0  0  0  0  0  0  0
  140.3283   69.0092  229.4523 H   0  0  0  0  0  0  0  0  0  0  0  0
  139.3560   68.0917  228.2525 H   0  0  0  0  0  0  0  0  0  0  0  0
  141.1469   67.9523  228.2525 H   0  0  0  0  0  0  0  0  0  0  0  0
  141.4397   70.9992  228.9156 H   0  0  0  0  0  0  0  0  0  0  0  0
  141.5862   72.9374  227.3006 H   0  0  0  0  0  0  0  0  0  0  0  0
  137.7910   69.6415  224.7764 H   0  0  0  0  0  0  0  0  0  0  0  0
  137.4239   70.8671  223.4914 H   0  0  0  0  0  0  0  0  0  0  0  0
  138.2039   68.0256  223.2584 H   0  0  0  0  0  0  0  0  0  0  0  0
  137.2979   69.1179  222.1229 H   0  0  0  0  0  0  0  0  0  0  0  0
  140.2556   68.6683  222.4031 H   0  0  0  0  0  0  0  0  0  0  0  0
  139.1947   68.6278  220.9375 H   0  0  0  0  0  0  0  0  0  0  0  0
  140.5425   70.5668  220.8755 H   0  0  0  0  0  0  0  0  0  0  0  0
  138.1150   70.9750  220.1670 H   0  0  0  0  0  0  0  0  0  0  0  0
  141.1604   75.5460  222.5144 H   0  0  0  0  0  0  0  0  0  0  0  0
  140.6985   75.2171  220.7792 H   0  0  0  0  0  0  0  0  0  0  0  0
  142.3306   77.1966  221.4937 H   0  0  0  0  0  0  0  0  0  0  0  0
  141.1644   77.2804  220.0957 H   0  0  0  0  0  0  0  0  0  0  0  0
  143.2905   78.6879  222.1365 H   0  0  0  0  0  0  0  0  0  0  0  0
  144.3830   80.4690  223.4449 H   0  0  0  0  0  0  0  0  0  0  0  0
  142.9934   82.2074  224.5943 H   0  0  0  0  0  0  0  0  0  0  0  0
  140.5133   82.0510  224.3429 H   0  0  0  0  0  0  0  0  0  0  0  0
  138.8256   79.4272  221.9858 H   0  0  0  0  0  0  0  0  0  0  0  0
  138.9555   78.5305  220.4636 H   0  0  0  0  0  0  0  0  0  0  0  0
  138.5700   77.4902  223.2846 H   0  0  0  0  0  0  0  0  0  0  0  0
  137.5617   77.2173  221.7745 H   0  0  0  0  0  0  0  0  0  0  0  0
  135.1808   75.7178  224.0499 H   0  0  0  0  0  0  0  0  0  0  0  0
  134.4663   75.3947  222.3950 H   0  0  0  0  0  0  0  0  0  0  0  0
  132.9241   76.0062  224.3801 H   0  0  0  0  0  0  0  0  0  0  0  0
  132.4863   74.6894  223.2257 H   0  0  0  0  0  0  0  0  0  0  0  0
  131.7603   75.2244  226.3066 H   0  0  0  0  0  0  0  0  0  0  0  0
  131.6444   73.6022  228.1784 H   0  0  0  0  0  0  0  0  0  0  0  0
  132.9383   71.4765  228.0858 H   0  0  0  0  0  0  0  0  0  0  0  0
  134.3524   71.0115  226.0788 H   0  0  0  0  0  0  0  0  0  0  0  0
  135.4956   71.8891  224.2531 H   0  0  0  0  0  0  0  0  0  0  0  0
  134.0676   72.0357  223.1704 H   0  0  0  0  0  0  0  0  0  0  0  0
  141.1996   71.1564  223.0429 H   0  0  0  0  0  0  0  0  0  0  0  0
  139.8418   72.3340  222.8097 H   0  0  0  0  0  0  0  0  0  0  0  0
  1  2  1  0
  2  3  2  0
  3  4  1  0
  4  5  2  0
  5  6  1  0
  6  7  1  0
  7  8  1  0
  8  9  1  0
  9 10  1  0
 10 11  1  0
 11 12  1  0
 12 13  1  0
 13 14  2  0
 14 15  1  0
 15 16  1  0
 16 17  1  0
 17 18  1  0
 18 19  1  0
 19 20  1  0
 20 21  2  0
 21 22  1  0
 22 23  2  0
 23 24  1  0
 24 25  2  0
 19 26  1  0
 26 27  1  0
 15 28  2  0
 28 29  1  0
 29 30  1  0
 30 31  1  0
 31 32  1  0
 32 33  1  0
 33 34  2  0
 34 35  1  0
 35 36  2  0
 36 37  1  0
 37 38  2  0
 38 39  1  0
 29 40  2  0
 11 41  1  0
  6 42  2  0
 42  2  1  0
 41  7  1  0
 40 13  1  0
 27 16  1  0
 39 30  1  0
 25 20  1  0
 38 33  1  0
  1 43  1  0
  1 44  1  0
  1 45  1  0
  3 46  1  0
  4 47  1  0
  8 48  1  0
  8 49  1  0
  9 50  1  0
  9 51  1  0
 10 52  1  0
 10 53  1  0
 11 54  1  6
 12 55  1  0
 17 56  1  0
 17 57  1  0
 18 58  1  0
 18 59  1  0
 21 60  1  0
 22 61  1  0
 23 62  1  0
 24 63  1  0
 26 64  1  0
 26 65  1  0
 27 66  1  0
 27 67  1  0
 31 68  1  0
 31 69  1  0
 32 70  1  0
 32 71  1  0
 34 72  1  0
 35 73  1  0
 36 74  1  0
 37 75  1  0
 39 76  1  0
 39 77  1  0
 41 78  1  0
 41 79  1  0
M  END
>  <smiles>  (80) 
Cc1ccnc(N2CCCC(Nc3nc(N4CCN(c5ccccn5)CC4)nc(N4CCc5ccccc5C4)n3)C2)n1

>  <score_type>  (80) 
oracle

>  <origin>  (80) 
autodockgpu

>  <m_score__min__energy>  (80) 
-10.06

>  <m_primary>  (80) 
energy

>  <rmsd>  (80) 
8.04997730435879

>  <m_score__min__rmsd>  (80) 
8.04997730435879

>  <meeko>  (80) 
{"free_energy": -9.55, "intermolecular_energy": -11.34, "internal_energy": -1.84, "cluster_size": 12, "cluster_id": 3, "rank_in_cluster": 4}

>  <energy>  (80) 
-9.76

>  <cluster_rmsd>  (80) 
0.0

>  <cluster>  (80) 
4

$$$$

     RDKit          3D

 79 85  0  0  1  0  0  0  0  0999 V2000
  133.5970   71.2290  226.8870 C   0  0  0  0  0  0  0  0  0  0  0  0
  133.8230   72.4120  226.0140 C   0  0  0  0  0  0  0  0  0  0  0  0
  133.4630   73.6520  226.4990 C   0  0  0  0  0  0  0  0  0  0  0  0
  133.6780   74.7600  225.6730 C   0  0  0  0  0  0  0  0  0  0  0  0
  134.2260   74.5670  224.4450 N   0  0  0  0  0  0  0  0  0  0  0  0
  134.5730   73.3580  223.9820 C   0  0  0  0  0  0  0  0  0  0  0  0
  135.1380   73.2820  222.6790 N   0  0  0  0  0  0  0  0  0  0  0  0
  135.5010   74.5220  222.0200 C   0  0  0  0  0  0  0  0  0  0  0  0
  134.8490   74.6430  220.6510 C   0  0  0  0  0  0  0  0  0  0  0  0
  134.3720   73.3210  220.1290 C   0  0  0  0  0  0  0  0  0  0  0  0
  135.3330   72.2120  220.4820 C   0  0  1  0  0  0  0  0  0  0  0  0
  136.6820   72.4490  220.0390 N   0  0  0  0  0  0  0  0  0  0  0  0
  137.7220   72.8450  220.9480 C   0  0  0  0  0  0  0  0  0  0  0  0
  138.2560   74.0810  220.9240 N   0  0  0  0  0  0  0  0  0  0  0  0
  139.2370   74.4350  221.7910 C   0  0  0  0  0  0  0  0  0  0  0  0
  139.8100   75.7490  221.7710 N   0  0  0  0  0  0  0  0  0  0  0  0
  141.1570   75.8690  221.2970 C   0  0  0  0  0  0  0  0  0  0  0  0
  141.5430   77.2860  220.9470 C   0  0  0  0  0  0  0  0  0  0  0  0
  140.8220   78.2630  221.7040 N   0  0  0  0  0  0  0  0  0  0  0  0
  141.3900   79.2840  222.4900 C   0  0  0  0  0  0  0  0  0  0  0  0
  142.7490   79.4010  222.7020 C   0  0  0  0  0  0  0  0  0  0  0  0
  143.2930   80.4120  223.4780 C   0  0  0  0  0  0  0  0  0  0  0  0
  142.4720   81.3450  224.0690 C   0  0  0  0  0  0  0  0  0  0  0  0
  141.1120   81.2040  223.8390 C   0  0  0  0  0  0  0  0  0  0  0  0
  140.6120   80.2130  223.0820 N   0  0  0  0  0  0  0  0  0  0  0  0
  139.3520   78.1770  221.6450 C   0  0  0  0  0  0  0  0  0  0  0  0
  138.9930   76.8510  222.2280 C   0  0  0  0  0  0  0  0  0  0  0  0
  139.6280   73.4880  222.6570 N   0  0  0  0  0  0  0  0  0  0  0  0
  139.1200   72.2450  222.7120 C   0  0  0  0  0  0  0  0  0  0  0  0
  139.6100   71.2990  223.6810 N   0  0  0  0  0  0  0  0  0  0  0  0
  138.9460   70.0230  223.7420 C   0  0  0  0  0  0  0  0  0  0  0  0
  139.5870   69.0460  224.6720 C   0  0  0  0  0  0  0  0  0  0  0  0
  140.0870   69.7320  225.8860 C   0  0  0  0  0  0  0  0  0  0  0  0
  140.0230   69.1230  227.1330 C   0  0  0  0  0  0  0  0  0  0  0  0
  140.4940   69.7690  228.2750 C   0  0  0  0  0  0  0  0  0  0  0  0
  141.0400   71.0370  228.1920 C   0  0  0  0  0  0  0  0  0  0  0  0
  141.1040   71.6470  226.9470 C   0  0  0  0  0  0  0  0  0  0  0  0
  140.6280   70.9880  225.8090 C   0  0  0  0  0  0  0  0  0  0  0  0
  140.7210   71.6810  224.5200 C   0  0  0  0  0  0  0  0  0  0  0  0
  138.1510   71.9330  221.8360 N   0  0  0  0  0  0  0  0  0  0  0  0
  135.3650   72.0290  221.9830 C   0  0  0  0  0  0  0  0  0  0  0  0
  134.3690   72.2970  224.7690 N   0  0  0  0  0  0  0  0  0  0  0  0
  133.6555   71.5352  227.9419 H   0  0  0  0  0  0  0  0  0  0  0  0
  132.6020   70.8070  226.6823 H   0  0  0  0  0  0  0  0  0  0  0  0
  134.3664   70.4699  226.6823 H   0  0  0  0  0  0  0  0  0  0  0  0
  133.0222   73.7655  227.5004 H   0  0  0  0  0  0  0  0  0  0  0  0
  133.4078   75.7710  226.0121 H   0  0  0  0  0  0  0  0  0  0  0  0
  135.1762   75.3665  222.6455 H   0  0  0  0  0  0  0  0  0  0  0  0
  136.5923   74.5306  221.8822 H   0  0  0  0  0  0  0  0  0  0  0  0
  133.9887   75.3242  220.7279 H   0  0  0  0  0  0  0  0  0  0  0  0
  135.6051   75.0281  219.9511 H   0  0  0  0  0  0  0  0  0  0  0  0
  133.3888   73.0962  220.5681 H   0  0  0  0  0  0  0  0  0  0  0  0
  134.3038   73.3851  219.0330 H   0  0  0  0  0  0  0  0  0  0  0  0
  134.9627   71.3157  219.9629 H   0  0  0  0  0  0  0  0  0  0  0  0
  136.9680   72.3420  219.0250 H   0  0  0  0  0  0  0  0  0  0  0  0
  141.8369   75.5056  222.0817 H   0  0  0  0  0  0  0  0  0  0  0  0
  141.2322   75.2737  220.3750 H   0  0  0  0  0  0  0  0  0  0  0  0
  142.6180   77.4150  221.1411 H   0  0  0  0  0  0  0  0  0  0  0  0
  141.2966   77.4427  219.8865 H   0  0  0  0  0  0  0  0  0  0  0  0
  143.4237   78.6660  222.2387 H   0  0  0  0  0  0  0  0  0  0  0  0
  144.3821   80.4688  223.6217 H   0  0  0  0  0  0  0  0  0  0  0  0
  142.8732   82.1590  224.6906 H   0  0  0  0  0  0  0  0  0  0  0  0
  140.4188   81.9282  224.2917 H   0  0  0  0  0  0  0  0  0  0  0  0
  138.8979   78.9884  222.2328 H   0  0  0  0  0  0  0  0  0  0  0  0
  138.9840   78.2760  220.6131 H   0  0  0  0  0  0  0  0  0  0  0  0
  139.0908   76.9196  223.3215 H   0  0  0  0  0  0  0  0  0  0  0  0
  137.9662   76.6343  221.8982 H   0  0  0  0  0  0  0  0  0  0  0  0
  137.9105   70.1880  224.0743 H   0  0  0  0  0  0  0  0  0  0  0  0
  139.0042   69.5866  222.7340 H   0  0  0  0  0  0  0  0  0  0  0  0
  138.8469   68.2867  224.9648 H   0  0  0  0  0  0  0  0  0  0  0  0
  140.4360   68.5718  224.1578 H   0  0  0  0  0  0  0  0  0  0  0  0
  139.5934   68.1141  227.2207 H   0  0  0  0  0  0  0  0  0  0  0  0
  140.4308   69.2656  229.2510 H   0  0  0  0  0  0  0  0  0  0  0  0
  141.4143   71.5494  229.0906 H   0  0  0  0  0  0  0  0  0  0  0  0
  141.5322   72.6560  226.8547 H   0  0  0  0  0  0  0  0  0  0  0  0
  140.6965   72.7680  224.6867 H   0  0  0  0  0  0  0  0  0  0  0  0
  141.6635   71.4044  224.0248 H   0  0  0  0  0  0  0  0  0  0  0  0
  134.5815   71.3131  222.2721 H   0  0  0  0  0  0  0  0  0  0  0  0
  136.3611   71.6556  222.2629 H   0  0  0  0  0  0  0  0  0  0  0  0
  1  2  1  0
  2  3  2  0
  3  4  1  0
  4  5  2  0
  5  6  1  0
  6  7  1  0
  7  8  1  0
  8  9  1  0
  9 10  1  0
 10 11  1  0
 11 12  1  0
 12 13  1  0
 13 14  2  0
 14 15  1  0
 15 16  1  0
 16 17  1  0
 17 18  1  0
 18 19  1  0
 19 20  1  0
 20 21  2  0
 21 22  1  0
 22 23  2  0
 23 24  1  0
 24 25  2  0
 19 26  1  0
 26 27  1  0
 15 28  2  0
 28 29  1  0
 29 30  1  0
 30 31  1  0
 31 32  1  0
 32 33  1  0
 33 34  2  0
 34 35  1  0
 35 36  2  0
 36 37  1  0
 37 38  2  0
 38 39  1  0
 29 40  2  0
 11 41  1  0
  6 42  2  0
 42  2  1  0
 41  7  1  0
 40 13  1  0
 27 16  1  0
 39 30  1  0
 25 20  1  0
 38 33  1  0
  1 43  1  0
  1 44  1  0
  1 45  1  0
  3 46  1  0
  4 47  1  0
  8 48  1  0
  8 49  1  0
  9 50  1  0
  9 51  1  0
 10 52  1  0
 10 53  1  0
 11 54  1  6
 12 55  1  0
 17 56  1  0
 17 57  1  0
 18 58  1  0
 18 59  1  0
 21 60  1  0
 22 61  1  0
 23 62  1  0
 24 63  1  0
 26 64  1  0
 26 65  1  0
 27 66  1  0
 27 67  1  0
 31 68  1  0
 31 69  1  0
 32 70  1  0
 32 71  1  0
 34 72  1  0
 35 73  1  0
 36 74  1  0
 37 75  1  0
 39 76  1  0
 39 77  1  0
 41 78  1  0
 41 79  1  0
M  END
>  <smiles>  (81) 
Cc1ccnc(N2CCCC(Nc3nc(N4CCN(c5ccccn5)CC4)nc(N4CCc5ccccc5C4)n3)C2)n1

>  <score_type>  (81) 
oracle

>  <origin>  (81) 
autodockgpu

>  <m_score__min__energy>  (81) 
-10.06

>  <m_primary>  (81) 
energy

>  <rmsd>  (81) 
7.950104136240763

>  <m_score__min__rmsd>  (81) 
7.950104136240763

>  <meeko>  (81) 
{"free_energy": -9.72, "intermolecular_energy": -11.51, "internal_energy": -1.68, "cluster_size": 18, "cluster_id": 4, "rank_in_cluster": 6}

>  <energy>  (81) 
-9.76

>  <cluster_rmsd>  (81) 
0.78

>  <cluster>  (81) 
4

$$$$

     RDKit          3D

 79 85  0  0  1  0  0  0  0  0999 V2000
  145.9610   66.6630  219.0290 C   0  0  0  0  0  0  0  0  0  0  0  0
  145.4020   68.0390  219.1140 C   0  0  0  0  0  0  0  0  0  0  0  0
  146.2850   69.0880  219.2630 C   0  0  0  0  0  0  0  0  0  0  0  0
  145.7520   70.3790  219.3420 C   0  0  0  0  0  0  0  0  0  0  0  0
  144.4040   70.5390  219.2700 N   0  0  0  0  0  0  0  0  0  0  0  0
  143.5550   69.5130  219.1260 C   0  0  0  0  0  0  0  0  0  0  0  0
  142.1640   69.8060  219.0630 N   0  0  0  0  0  0  0  0  0  0  0  0
  141.2290   68.7580  219.4260 C   0  0  0  0  0  0  0  0  0  0  0  0
  140.2140   68.5020  218.3210 C   0  0  0  0  0  0  0  0  0  0  0  0
  140.1320   69.6410  217.3490 C   0  0  0  0  0  0  0  0  0  0  0  0
  140.2590   70.9710  218.0510 C   0  0  1  0  0  0  0  0  0  0  0  0
  139.3020   71.1660  219.1060 N   0  0  0  0  0  0  0  0  0  0  0  0
  139.6380   71.8580  220.3200 C   0  0  0  0  0  0  0  0  0  0  0  0
  139.8650   73.1860  220.3430 N   0  0  0  0  0  0  0  0  0  0  0  0
  140.1810   73.8200  221.5000 C   0  0  0  0  0  0  0  0  0  0  0  0
  140.4230   75.2330  221.5320 N   0  0  0  0  0  0  0  0  0  0  0  0
  141.5220   75.7270  220.7560 C   0  0  0  0  0  0  0  0  0  0  0  0
  141.4740   77.2190  220.5360 C   0  0  0  0  0  0  0  0  0  0  0  0
  140.8010   77.9170  221.5880 N   0  0  0  0  0  0  0  0  0  0  0  0
  141.3290   78.9770  222.3480 C   0  0  0  0  0  0  0  0  0  0  0  0
  140.5400   79.8640  223.0530 C   0  0  0  0  0  0  0  0  0  0  0  0
  141.0760   80.9020  223.7970 C   0  0  0  0  0  0  0  0  0  0  0  0
  142.4400   81.0790  223.8520 C   0  0  0  0  0  0  0  0  0  0  0  0
  143.2080   80.1750  223.1360 C   0  0  0  0  0  0  0  0  0  0  0  0
  142.6610   79.1770  222.4220 N   0  0  0  0  0  0  0  0  0  0  0  0
  139.4290   77.4700  221.8910 C   0  0  0  0  0  0  0  0  0  0  0  0
  139.5480   76.0510  222.3410 C   0  0  0  0  0  0  0  0  0  0  0  0
  140.2500   73.0490  222.5960 N   0  0  0  0  0  0  0  0  0  0  0  0
  140.0300   71.7230  222.6120 C   0  0  0  0  0  0  0  0  0  0  0  0
  140.1290   70.9830  223.8430 N   0  0  0  0  0  0  0  0  0  0  0  0
  139.3320   69.7880  223.9530 C   0  0  0  0  0  0  0  0  0  0  0  0
  139.5830   69.0020  225.1980 C   0  0  0  0  0  0  0  0  0  0  0  0
  139.8110   69.9050  226.3500 C   0  0  0  0  0  0  0  0  0  0  0  0
  139.3430   69.5850  227.6180 C   0  0  0  0  0  0  0  0  0  0  0  0
  139.5600   70.4350  228.7010 C   0  0  0  0  0  0  0  0  0  0  0  0
  140.2480   71.6220  228.5380 C   0  0  0  0  0  0  0  0  0  0  0  0
  140.7150   71.9450  227.2710 C   0  0  0  0  0  0  0  0  0  0  0  0
  140.4920   71.0830  226.1930 C   0  0  0  0  0  0  0  0  0  0  0  0
  141.0080   71.4750  224.8770 C   0  0  0  0  0  0  0  0  0  0  0  0
  139.7210   71.1320  221.4460 N   0  0  0  0  0  0  0  0  0  0  0  0
  141.6420   71.0960  218.6510 C   0  0  0  0  0  0  0  0  0  0  0  0
  144.0610   68.2780  219.0490 N   0  0  0  0  0  0  0  0  0  0  0  0
  146.1211   66.2690  220.0435 H   0  0  0  0  0  0  0  0  0  0  0  0
  145.2555   66.0133  218.4904 H   0  0  0  0  0  0  0  0  0  0  0  0
  146.9197   66.6893  218.4904 H   0  0  0  0  0  0  0  0  0  0  0  0
  147.3700   68.9156  219.3178 H   0  0  0  0  0  0  0  0  0  0  0  0
  146.4128   71.2504  219.4604 H   0  0  0  0  0  0  0  0  0  0  0  0
  141.7893   67.8309  219.6173 H   0  0  0  0  0  0  0  0  0  0  0  0
  140.6834   69.0813  220.3248 H   0  0  0  0  0  0  0  0  0  0  0  0
  140.5061   67.5922  217.7761 H   0  0  0  0  0  0  0  0  0  0  0  0
  139.2260   68.3887  218.7910 H   0  0  0  0  0  0  0  0  0  0  0  0
  140.9451   69.5444  216.6144 H   0  0  0  0  0  0  0  0  0  0  0  0
  139.1516   69.6031  216.8516 H   0  0  0  0  0  0  0  0  0  0  0  0
  140.0693   71.7358  217.2835 H   0  0  0  0  0  0  0  0  0  0  0  0
  138.3060   70.8090  219.0370 H   0  0  0  0  0  0  0  0  0  0  0  0
  142.4576   75.4812  221.2796 H   0  0  0  0  0  0  0  0  0  0  0  0
  141.4631   75.2496  219.7667 H   0  0  0  0  0  0  0  0  0  0  0  0
  142.5048   77.5968  220.4679 H   0  0  0  0  0  0  0  0  0  0  0  0
  140.9097   77.3973  219.6087 H   0  0  0  0  0  0  0  0  0  0  0  0
  139.4472   79.7420  223.0227 H   0  0  0  0  0  0  0  0  0  0  0  0
  140.4109   81.5858  224.3447 H   0  0  0  0  0  0  0  0  0  0  0  0
  142.8957   81.8942  224.4331 H   0  0  0  0  0  0  0  0  0  0  0  0
  144.3030   80.2779  223.1527 H   0  0  0  0  0  0  0  0  0  0  0  0
  138.9930   78.0887  222.6892 H   0  0  0  0  0  0  0  0  0  0  0  0
  138.7728   77.5604  221.0128 H   0  0  0  0  0  0  0  0  0  0  0  0
  139.9329   76.0493  223.3715 H   0  0  0  0  0  0  0  0  0  0  0  0
  138.5432   75.6118  222.2541 H   0  0  0  0  0  0  0  0  0  0  0  0
  138.2709   70.0772  223.9347 H   0  0  0  0  0  0  0  0  0  0  0  0
  139.6099   69.1416  223.1075 H   0  0  0  0  0  0  0  0  0  0  0  0
  138.7102   68.3654  225.4053 H   0  0  0  0  0  0  0  0  0  0  0  0
  140.4803   68.3830  225.0507 H   0  0  0  0  0  0  0  0  0  0  0  0
  138.7920   68.6452  227.7699 H   0  0  0  0  0  0  0  0  0  0  0  0
  139.1797   70.1581  229.6954 H   0  0  0  0  0  0  0  0  0  0  0  0
  140.4215   72.2946  229.3910 H   0  0  0  0  0  0  0  0  0  0  0  0
  141.2640   72.8852  227.1143 H   0  0  0  0  0  0  0  0  0  0  0  0
  141.0636   72.5720  224.8181 H   0  0  0  0  0  0  0  0  0  0  0  0
  142.0111   71.0460  224.7367 H   0  0  0  0  0  0  0  0  0  0  0  0
  142.3185   71.5319  217.9011 H   0  0  0  0  0  0  0  0  0  0  0  0
  141.5744   71.7399  219.5403 H   0  0  0  0  0  0  0  0  0  0  0  0
  1  2  1  0
  2  3  2  0
  3  4  1  0
  4  5  2  0
  5  6  1  0
  6  7  1  0
  7  8  1  0
  8  9  1  0
  9 10  1  0
 10 11  1  0
 11 12  1  0
 12 13  1  0
 13 14  2  0
 14 15  1  0
 15 16  1  0
 16 17  1  0
 17 18  1  0
 18 19  1  0
 19 20  1  0
 20 21  2  0
 21 22  1  0
 22 23  2  0
 23 24  1  0
 24 25  2  0
 19 26  1  0
 26 27  1  0
 15 28  2  0
 28 29  1  0
 29 30  1  0
 30 31  1  0
 31 32  1  0
 32 33  1  0
 33 34  2  0
 34 35  1  0
 35 36  2  0
 36 37  1  0
 37 38  2  0
 38 39  1  0
 29 40  2  0
 11 41  1  0
  6 42  2  0
 42  2  1  0
 41  7  1  0
 40 13  1  0
 27 16  1  0
 39 30  1  0
 25 20  1  0
 38 33  1  0
  1 43  1  0
  1 44  1  0
  1 45  1  0
  3 46  1  0
  4 47  1  0
  8 48  1  0
  8 49  1  0
  9 50  1  0
  9 51  1  0
 10 52  1  0
 10 53  1  0
 11 54  1  6
 12 55  1  0
 17 56  1  0
 17 57  1  0
 18 58  1  0
 18 59  1  0
 21 60  1  0
 22 61  1  0
 23 62  1  0
 24 63  1  0
 26 64  1  0
 26 65  1  0
 27 66  1  0
 27 67  1  0
 31 68  1  0
 31 69  1  0
 32 70  1  0
 32 71  1  0
 34 72  1  0
 35 73  1  0
 36 74  1  0
 37 75  1  0
 39 76  1  0
 39 77  1  0
 41 78  1  0
 41 79  1  0
M  END
>  <smiles>  (82) 
Cc1ccnc(N2CCCC(Nc3nc(N4CCN(c5ccccn5)CC4)nc(N4CCc5ccccc5C4)n3)C2)n1

>  <score_type>  (82) 
oracle

>  <origin>  (82) 
autodockgpu

>  <m_score__min__energy>  (82) 
-10.06

>  <m_primary>  (82) 
energy

>  <rmsd>  (82) 
7.699881381509326

>  <m_score__min__rmsd>  (82) 
7.699881381509326

>  <meeko>  (82) 
{"free_energy": -10.04, "intermolecular_energy": -11.83, "internal_energy": -1.7, "cluster_size": 16, "cluster_id": 1, "rank_in_cluster": 2}

>  <energy>  (82) 
-9.74

>  <cluster_rmsd>  (82) 
0.44

>  <cluster>  (82) 
4

$$$$

     RDKit          3D

 79 85  0  0  1  0  0  0  0  0999 V2000
  133.3240   75.3330  226.7500 C   0  0  0  0  0  0  0  0  0  0  0  0
  133.7220   74.0790  226.0560 C   0  0  0  0  0  0  0  0  0  0  0  0
  133.5660   72.8870  226.7330 C   0  0  0  0  0  0  0  0  0  0  0  0
  133.9420   71.7120  226.0740 C   0  0  0  0  0  0  0  0  0  0  0  0
  134.4390   71.7970  224.8120 N   0  0  0  0  0  0  0  0  0  0  0  0
  134.5880   72.9600  224.1630 C   0  0  0  0  0  0  0  0  0  0  0  0
  135.1190   72.9210  222.8440 N   0  0  0  0  0  0  0  0  0  0  0  0
  135.4740   74.1780  222.2150 C   0  0  0  0  0  0  0  0  0  0  0  0
  134.7880   74.3470  220.8670 C   0  0  0  0  0  0  0  0  0  0  0  0
  134.2870   73.0450  220.3180 C   0  0  0  0  0  0  0  0  0  0  0  0
  135.2490   71.9190  220.6100 C   0  0  1  0  0  0  0  0  0  0  0  0
  136.5880   72.1600  220.1400 N   0  0  0  0  0  0  0  0  0  0  0  0
  137.6420   72.5710  221.0260 C   0  0  0  0  0  0  0  0  0  0  0  0
  138.1750   73.8070  220.9740 N   0  0  0  0  0  0  0  0  0  0  0  0
  139.1690   74.1750  221.8200 C   0  0  0  0  0  0  0  0  0  0  0  0
  139.7410   75.4890  221.7690 N   0  0  0  0  0  0  0  0  0  0  0  0
  141.0730   75.6040  221.2530 C   0  0  0  0  0  0  0  0  0  0  0  0
  141.4480   77.0170  220.8780 C   0  0  0  0  0  0  0  0  0  0  0  0
  140.7500   78.0020  221.6480 N   0  0  0  0  0  0  0  0  0  0  0  0
  141.3420   79.0300  222.4060 C   0  0  0  0  0  0  0  0  0  0  0  0
  140.6070   79.9570  223.1190 C   0  0  0  0  0  0  0  0  0  0  0  0
  141.2050   80.9620  223.8610 C   0  0  0  0  0  0  0  0  0  0  0  0
  142.5760   81.0650  223.9060 C   0  0  0  0  0  0  0  0  0  0  0  0
  143.2890   80.1220  223.1820 C   0  0  0  0  0  0  0  0  0  0  0  0
  142.6830   79.1570  222.4700 N   0  0  0  0  0  0  0  0  0  0  0  0
  139.2790   77.9160  221.6350 C   0  0  0  0  0  0  0  0  0  0  0  0
  138.9390   76.5950  222.2410 C   0  0  0  0  0  0  0  0  0  0  0  0
  139.5750   73.2420  222.6940 N   0  0  0  0  0  0  0  0  0  0  0  0
  139.0680   71.9990  222.7760 C   0  0  0  0  0  0  0  0  0  0  0  0
  139.5750   71.0690  223.7520 N   0  0  0  0  0  0  0  0  0  0  0  0
  138.9200   69.7890  223.8340 C   0  0  0  0  0  0  0  0  0  0  0  0
  139.5780   68.8290  224.7700 C   0  0  0  0  0  0  0  0  0  0  0  0
  140.0830   69.5330  225.9720 C   0  0  0  0  0  0  0  0  0  0  0  0
  140.0360   68.9390  227.2260 C   0  0  0  0  0  0  0  0  0  0  0  0
  140.5130   69.6020  228.3560 C   0  0  0  0  0  0  0  0  0  0  0  0
  141.0480   70.8730  228.2520 C   0  0  0  0  0  0  0  0  0  0  0  0
  141.0960   71.4680  226.9990 C   0  0  0  0  0  0  0  0  0  0  0  0
  140.6150   70.7920  225.8750 C   0  0  0  0  0  0  0  0  0  0  0  0
  140.6900   71.4690  224.5760 C   0  0  0  0  0  0  0  0  0  0  0  0
  138.0850   71.6740  221.9210 N   0  0  0  0  0  0  0  0  0  0  0  0
  135.3180   71.6880  222.1040 C   0  0  0  0  0  0  0  0  0  0  0  0
  134.2280   74.0850  224.7890 N   0  0  0  0  0  0  0  0  0  0  0  0
  133.3723   75.1809  227.8384 H   0  0  0  0  0  0  0  0  0  0  0  0
  134.0088   76.1444  226.4624 H   0  0  0  0  0  0  0  0  0  0  0  0
  132.2966   75.6010  226.4624 H   0  0  0  0  0  0  0  0  0  0  0  0
  133.1602   72.8616  227.7551 H   0  0  0  0  0  0  0  0  0  0  0  0
  133.8372   70.7353  226.5690 H   0  0  0  0  0  0  0  0  0  0  0  0
  135.1717   75.0046  222.8748 H   0  0  0  0  0  0  0  0  0  0  0  0
  136.5614   74.1831  222.0491 H   0  0  0  0  0  0  0  0  0  0  0  0
  133.9357   75.0320  220.9869 H   0  0  0  0  0  0  0  0  0  0  0  0
  135.5287   74.7485  220.1597 H   0  0  0  0  0  0  0  0  0  0  0  0
  133.3145   72.8133  220.7769 H   0  0  0  0  0  0  0  0  0  0  0  0
  134.1894   73.1434  219.2268 H   0  0  0  0  0  0  0  0  0  0  0  0
  134.8590   71.0426  220.0717 H   0  0  0  0  0  0  0  0  0  0  0  0
  136.8560   72.0460  219.1210 H   0  0  0  0  0  0  0  0  0  0  0  0
  141.7765   75.2479  222.0200 H   0  0  0  0  0  0  0  0  0  0  0  0
  141.1201   74.9999  220.3350 H   0  0  0  0  0  0  0  0  0  0  0  0
  142.5285   77.1475  221.0379 H   0  0  0  0  0  0  0  0  0  0  0  0
  141.1693   77.1637  219.8241 H   0  0  0  0  0  0  0  0  0  0  0  0
  139.5090   79.8949  223.0967 H   0  0  0  0  0  0  0  0  0  0  0  0
  140.5823   81.6794  224.4155 H   0  0  0  0  0  0  0  0  0  0  0  0
  143.0794   81.8531  224.4852 H   0  0  0  0  0  0  0  0  0  0  0  0
  144.3881   80.1652  223.1907 H   0  0  0  0  0  0  0  0  0  0  0  0
  138.8431   78.7327  222.2292 H   0  0  0  0  0  0  0  0  0  0  0  0
  138.8791   78.0060  220.6142 H   0  0  0  0  0  0  0  0  0  0  0  0
  139.0711   76.6736  223.3302 H   0  0  0  0  0  0  0  0  0  0  0  0
  137.9025   76.3753  221.9452 H   0  0  0  0  0  0  0  0  0  0  0  0
  137.8864   69.9504  224.1742 H   0  0  0  0  0  0  0  0  0  0  0  0
  138.9705   69.3407  222.8308 H   0  0  0  0  0  0  0  0  0  0  0  0
  138.8473   68.0668  225.0782 H   0  0  0  0  0  0  0  0  0  0  0  0
  140.4269   68.3569  224.2537 H   0  0  0  0  0  0  0  0  0  0  0  0
  139.6152   67.9280  227.3298 H   0  0  0  0  0  0  0  0  0  0  0  0
  140.4634   69.1099  229.3385 H   0  0  0  0  0  0  0  0  0  0  0  0
  141.4263   71.3995  229.1406 H   0  0  0  0  0  0  0  0  0  0  0  0
  141.5157   72.4789  226.8902 H   0  0  0  0  0  0  0  0  0  0  0  0
  140.6589   72.5578  224.7292 H   0  0  0  0  0  0  0  0  0  0  0  0
  141.6296   71.1921  224.0755 H   0  0  0  0  0  0  0  0  0  0  0  0
  134.5363   70.9692  222.3908 H   0  0  0  0  0  0  0  0  0  0  0  0
  136.3175   71.2980  222.3466 H   0  0  0  0  0  0  0  0  0  0  0  0
  1  2  1  0
  2  3  2  0
  3  4  1  0
  4  5  2  0
  5  6  1  0
  6  7  1  0
  7  8  1  0
  8  9  1  0
  9 10  1  0
 10 11  1  0
 11 12  1  0
 12 13  1  0
 13 14  2  0
 14 15  1  0
 15 16  1  0
 16 17  1  0
 17 18  1  0
 18 19  1  0
 19 20  1  0
 20 21  2  0
 21 22  1  0
 22 23  2  0
 23 24  1  0
 24 25  2  0
 19 26  1  0
 26 27  1  0
 15 28  2  0
 28 29  1  0
 29 30  1  0
 30 31  1  0
 31 32  1  0
 32 33  1  0
 33 34  2  0
 34 35  1  0
 35 36  2  0
 36 37  1  0
 37 38  2  0
 38 39  1  0
 29 40  2  0
 11 41  1  0
  6 42  2  0
 42  2  1  0
 41  7  1  0
 40 13  1  0
 27 16  1  0
 39 30  1  0
 25 20  1  0
 38 33  1  0
  1 43  1  0
  1 44  1  0
  1 45  1  0
  3 46  1  0
  4 47  1  0
  8 48  1  0
  8 49  1  0
  9 50  1  0
  9 51  1  0
 10 52  1  0
 10 53  1  0
 11 54  1  6
 12 55  1  0
 17 56  1  0
 17 57  1  0
 18 58  1  0
 18 59  1  0
 21 60  1  0
 22 61  1  0
 23 62  1  0
 24 63  1  0
 26 64  1  0
 26 65  1  0
 27 66  1  0
 27 67  1  0
 31 68  1  0
 31 69  1  0
 32 70  1  0
 32 71  1  0
 34 72  1  0
 35 73  1  0
 36 74  1  0
 37 75  1  0
 39 76  1  0
 39 77  1  0
 41 78  1  0
 41 79  1  0
M  END
>  <smiles>  (83) 
Cc1ccnc(N2CCCC(Nc3nc(N4CCN(c5ccccn5)CC4)nc(N4CCc5ccccc5C4)n3)C2)n1

>  <score_type>  (83) 
oracle

>  <origin>  (83) 
autodockgpu

>  <m_score__min__energy>  (83) 
-10.06

>  <m_primary>  (83) 
energy

>  <rmsd>  (83) 
7.808422572708033

>  <m_score__min__rmsd>  (83) 
7.808422572708033

>  <meeko>  (83) 
{"free_energy": -9.74, "intermolecular_energy": -11.53, "internal_energy": -1.65, "cluster_size": 18, "cluster_id": 4, "rank_in_cluster": 3}

>  <energy>  (83) 
-9.73

>  <cluster_rmsd>  (83) 
0.64

>  <cluster>  (83) 
4

$$$$

     RDKit          3D

 79 85  0  0  1  0  0  0  0  0999 V2000
  146.6910   69.6700  219.3440 C   0  0  0  0  0  0  0  0  0  0  0  0
  145.4420   68.8620  219.3120 C   0  0  0  0  0  0  0  0  0  0  0  0
  145.5560   67.4900  219.3870 C   0  0  0  0  0  0  0  0  0  0  0  0
  144.3780   66.7370  219.3560 C   0  0  0  0  0  0  0  0  0  0  0  0
  143.1870   67.3850  219.2540 N   0  0  0  0  0  0  0  0  0  0  0  0
  143.0870   68.7190  219.1810 C   0  0  0  0  0  0  0  0  0  0  0  0
  141.7840   69.2830  219.0770 N   0  0  0  0  0  0  0  0  0  0  0  0
  140.6460   68.4130  219.3000 C   0  0  0  0  0  0  0  0  0  0  0  0
  139.6740   68.4480  218.1290 C   0  0  0  0  0  0  0  0  0  0  0  0
  139.8730   69.6530  217.2600 C   0  0  0  0  0  0  0  0  0  0  0  0
  140.2060   70.8740  218.0830 C   0  0  1  0  0  0  0  0  0  0  0  0
  139.2380   71.1690  219.1050 N   0  0  0  0  0  0  0  0  0  0  0  0
  139.5960   71.8500  220.3180 C   0  0  0  0  0  0  0  0  0  0  0  0
  139.8330   73.1760  220.3480 N   0  0  0  0  0  0  0  0  0  0  0  0
  140.1690   73.7990  221.5040 C   0  0  0  0  0  0  0  0  0  0  0  0
  140.4230   75.2100  221.5430 N   0  0  0  0  0  0  0  0  0  0  0  0
  141.5380   75.6970  220.7860 C   0  0  0  0  0  0  0  0  0  0  0  0
  141.5060   77.1900  220.5670 C   0  0  0  0  0  0  0  0  0  0  0  0
  140.8210   77.8910  221.6100 N   0  0  0  0  0  0  0  0  0  0  0  0
  141.3460   78.9460  222.3810 C   0  0  0  0  0  0  0  0  0  0  0  0
  140.5530   79.8270  223.0890 C   0  0  0  0  0  0  0  0  0  0  0  0
  141.0860   80.8590  223.8440 C   0  0  0  0  0  0  0  0  0  0  0  0
  142.4500   81.0370  223.9060 C   0  0  0  0  0  0  0  0  0  0  0  0
  143.2210   80.1380  223.1850 C   0  0  0  0  0  0  0  0  0  0  0  0
  142.6770   79.1450  222.4610 N   0  0  0  0  0  0  0  0  0  0  0  0
  139.4410   77.4540  221.8910 C   0  0  0  0  0  0  0  0  0  0  0  0
  139.5420   76.0340  222.3400 C   0  0  0  0  0  0  0  0  0  0  0  0
  140.2470   73.0200  222.5940 N   0  0  0  0  0  0  0  0  0  0  0  0
  140.0190   71.6950  222.6040 C   0  0  0  0  0  0  0  0  0  0  0  0
  140.1290   70.9460  223.8280 N   0  0  0  0  0  0  0  0  0  0  0  0
  139.3440   69.7430  223.9310 C   0  0  0  0  0  0  0  0  0  0  0  0
  139.6070   68.9490  225.1680 C   0  0  0  0  0  0  0  0  0  0  0  0
  139.8290   69.8440  226.3270 C   0  0  0  0  0  0  0  0  0  0  0  0
  139.3690   69.5080  227.5940 C   0  0  0  0  0  0  0  0  0  0  0  0
  139.5810   70.3510  228.6830 C   0  0  0  0  0  0  0  0  0  0  0  0
  140.2570   71.5470  228.5280 C   0  0  0  0  0  0  0  0  0  0  0  0
  140.7170   71.8850  227.2620 C   0  0  0  0  0  0  0  0  0  0  0  0
  140.4990   71.0300  226.1780 C   0  0  0  0  0  0  0  0  0  0  0  0
  141.0070   71.4380  224.8630 C   0  0  0  0  0  0  0  0  0  0  0  0
  139.6880   71.1150  221.4380 N   0  0  0  0  0  0  0  0  0  0  0  0
  141.5460   70.6790  218.7580 C   0  0  0  0  0  0  0  0  0  0  0  0
  144.2110   69.4420  219.2110 N   0  0  0  0  0  0  0  0  0  0  0  0
  146.9801   69.8570  220.3887 H   0  0  0  0  0  0  0  0  0  0  0  0
  147.4960   69.1211  218.8335 H   0  0  0  0  0  0  0  0  0  0  0  0
  146.5203   70.6293  218.8335 H   0  0  0  0  0  0  0  0  0  0  0  0
  146.5397   67.0044  219.4684 H   0  0  0  0  0  0  0  0  0  0  0  0
  144.4143   65.6391  219.4132 H   0  0  0  0  0  0  0  0  0  0  0  0
  141.0059   67.3822  219.4341 H   0  0  0  0  0  0  0  0  0  0  0  0
  140.1156   68.7646  220.1972 H   0  0  0  0  0  0  0  0  0  0  0  0
  139.8217   67.5442  217.5196 H   0  0  0  0  0  0  0  0  0  0  0  0
  138.6544   68.4939  218.5394 H   0  0  0  0  0  0  0  0  0  0  0  0
  140.6981   69.4572  216.5594 H   0  0  0  0  0  0  0  0  0  0  0  0
  138.9373   69.8463  216.7150 H   0  0  0  0  0  0  0  0  0  0  0  0
  140.2152   71.7184  217.3781 H   0  0  0  0  0  0  0  0  0  0  0  0
  138.2180   70.8980  219.0090 H   0  0  0  0  0  0  0  0  0  0  0  0
  142.4629   75.4431  221.3245 H   0  0  0  0  0  0  0  0  0  0  0  0
  141.4908   75.2218  219.7951 H   0  0  0  0  0  0  0  0  0  0  0  0
  142.5408   77.5597  220.5164 H   0  0  0  0  0  0  0  0  0  0  0  0
  140.9593   77.3748  219.6305 H   0  0  0  0  0  0  0  0  0  0  0  0
  139.4604   79.7053  223.0523 H   0  0  0  0  0  0  0  0  0  0  0  0
  140.4183   81.5376  224.3950 H   0  0  0  0  0  0  0  0  0  0  0  0
  142.9031   81.8479  224.4952 H   0  0  0  0  0  0  0  0  0  0  0  0
  144.3159   80.2411  223.2063 H   0  0  0  0  0  0  0  0  0  0  0  0
  138.9975   78.0747  222.6835 H   0  0  0  0  0  0  0  0  0  0  0  0
  138.7991   77.5509  221.0030 H   0  0  0  0  0  0  0  0  0  0  0  0
  139.9111   76.0276  223.3762 H   0  0  0  0  0  0  0  0  0  0  0  0
  138.5353   75.6029  222.2367 H   0  0  0  0  0  0  0  0  0  0  0  0
  138.2801   70.0224  223.9192 H   0  0  0  0  0  0  0  0  0  0  0  0
  139.6248   69.1064  223.0790 H   0  0  0  0  0  0  0  0  0  0  0  0
  138.7416   68.3015  225.3723 H   0  0  0  0  0  0  0  0  0  0  0  0
  140.5103   68.3408  225.0126 H   0  0  0  0  0  0  0  0  0  0  0  0
  138.8286   68.5611  227.7399 H   0  0  0  0  0  0  0  0  0  0  0  0
  139.2067   70.0620  229.6762 H   0  0  0  0  0  0  0  0  0  0  0  0
  140.4263   72.2142  229.3860 H   0  0  0  0  0  0  0  0  0  0  0  0
  141.2564   72.8318  227.1113 H   0  0  0  0  0  0  0  0  0  0  0  0
  141.0519   72.5359  224.8130 H   0  0  0  0  0  0  0  0  0  0  0  0
  142.0138   71.0200  224.7157 H   0  0  0  0  0  0  0  0  0  0  0  0
  142.3403   71.0318  218.0838 H   0  0  0  0  0  0  0  0  0  0  0  0
  141.5455   71.2519  219.6970 H   0  0  0  0  0  0  0  0  0  0  0  0
  1  2  1  0
  2  3  2  0
  3  4  1  0
  4  5  2  0
  5  6  1  0
  6  7  1  0
  7  8  1  0
  8  9  1  0
  9 10  1  0
 10 11  1  0
 11 12  1  0
 12 13  1  0
 13 14  2  0
 14 15  1  0
 15 16  1  0
 16 17  1  0
 17 18  1  0
 18 19  1  0
 19 20  1  0
 20 21  2  0
 21 22  1  0
 22 23  2  0
 23 24  1  0
 24 25  2  0
 19 26  1  0
 26 27  1  0
 15 28  2  0
 28 29  1  0
 29 30  1  0
 30 31  1  0
 31 32  1  0
 32 33  1  0
 33 34  2  0
 34 35  1  0
 35 36  2  0
 36 37  1  0
 37 38  2  0
 38 39  1  0
 29 40  2  0
 11 41  1  0
  6 42  2  0
 42  2  1  0
 41  7  1  0
 40 13  1  0
 27 16  1  0
 39 30  1  0
 25 20  1  0
 38 33  1  0
  1 43  1  0
  1 44  1  0
  1 45  1  0
  3 46  1  0
  4 47  1  0
  8 48  1  0
  8 49  1  0
  9 50  1  0
  9 51  1  0
 10 52  1  0
 10 53  1  0
 11 54  1  6
 12 55  1  0
 17 56  1  0
 17 57  1  0
 18 58  1  0
 18 59  1  0
 21 60  1  0
 22 61  1  0
 23 62  1  0
 24 63  1  0
 26 64  1  0
 26 65  1  0
 27 66  1  0
 27 67  1  0
 31 68  1  0
 31 69  1  0
 32 70  1  0
 32 71  1  0
 34 72  1  0
 35 73  1  0
 36 74  1  0
 37 75  1  0
 39 76  1  0
 39 77  1  0
 41 78  1  0
 41 79  1  0
M  END
>  <smiles>  (84) 
Cc1ccnc(N2CCCC(Nc3nc(N4CCN(c5ccccn5)CC4)nc(N4CCc5ccccc5C4)n3)C2)n1

>  <score_type>  (84) 
oracle

>  <origin>  (84) 
autodockgpu

>  <m_score__min__energy>  (84) 
-10.06

>  <m_primary>  (84) 
energy

>  <rmsd>  (84) 
7.680231754075825

>  <m_score__min__rmsd>  (84) 
7.680231754075825

>  <meeko>  (84) 
{"free_energy": -9.88, "intermolecular_energy": -11.67, "internal_energy": -1.66, "cluster_size": 16, "cluster_id": 1, "rank_in_cluster": 15}

>  <energy>  (84) 
-9.73

>  <cluster_rmsd>  (84) 
0.68

>  <cluster>  (84) 
4

$$$$

     RDKit          3D

 79 85  0  0  1  0  0  0  0  0999 V2000
  145.9320   66.9980  219.3380 C   0  0  0  0  0  0  0  0  0  0  0  0
  145.3560   68.3670  219.2490 C   0  0  0  0  0  0  0  0  0  0  0  0
  146.2260   69.4370  219.2450 C   0  0  0  0  0  0  0  0  0  0  0  0
  145.6770   70.7210  219.1610 C   0  0  0  0  0  0  0  0  0  0  0  0
  144.3260   70.8530  219.0910 N   0  0  0  0  0  0  0  0  0  0  0  0
  143.4890   69.8080  219.0970 C   0  0  0  0  0  0  0  0  0  0  0  0
  142.0930   70.0730  219.0180 N   0  0  0  0  0  0  0  0  0  0  0  0
  141.1760   69.0290  219.4300 C   0  0  0  0  0  0  0  0  0  0  0  0
  140.1680   68.7030  218.3380 C   0  0  0  0  0  0  0  0  0  0  0  0
  140.0680   69.7920  217.3130 C   0  0  0  0  0  0  0  0  0  0  0  0
  140.1710   71.1560  217.9500 C   0  0  1  0  0  0  0  0  0  0  0  0
  139.2080   71.3860  218.9940 N   0  0  0  0  0  0  0  0  0  0  0  0
  139.5610   72.0390  220.2240 C   0  0  0  0  0  0  0  0  0  0  0  0
  139.7870   73.3650  220.2860 N   0  0  0  0  0  0  0  0  0  0  0  0
  140.1190   73.9630  221.4580 C   0  0  0  0  0  0  0  0  0  0  0  0
  140.3620   75.3740  221.5310 N   0  0  0  0  0  0  0  0  0  0  0  0
  141.4790   75.8860  220.7950 C   0  0  0  0  0  0  0  0  0  0  0  0
  141.4380   77.3840  220.6100 C   0  0  0  0  0  0  0  0  0  0  0  0
  140.7390   78.0560  221.6630 N   0  0  0  0  0  0  0  0  0  0  0  0
  141.2500   79.0960  222.4620 C   0  0  0  0  0  0  0  0  0  0  0  0
  142.6020   79.3000  222.6570 C   0  0  0  0  0  0  0  0  0  0  0  0
  143.0880   80.3300  223.4460 C   0  0  0  0  0  0  0  0  0  0  0  0
  142.2170   81.1930  224.0690 C   0  0  0  0  0  0  0  0  0  0  0  0
  140.8660   80.9650  223.8560 C   0  0  0  0  0  0  0  0  0  0  0  0
  140.4210   79.9590  223.0860 N   0  0  0  0  0  0  0  0  0  0  0  0
  139.3610   77.6030  221.9220 C   0  0  0  0  0  0  0  0  0  0  0  0
  139.4680   76.1740  222.3390 C   0  0  0  0  0  0  0  0  0  0  0  0
  140.2030   73.1580  222.5280 N   0  0  0  0  0  0  0  0  0  0  0  0
  139.9850   71.8320  222.5050 C   0  0  0  0  0  0  0  0  0  0  0  0
  140.1010   71.0530  223.7110 N   0  0  0  0  0  0  0  0  0  0  0  0
  139.2850   69.8710  223.8070 C   0  0  0  0  0  0  0  0  0  0  0  0
  139.5520   69.0430  225.0210 C   0  0  0  0  0  0  0  0  0  0  0  0
  139.8260   69.9070  226.1920 C   0  0  0  0  0  0  0  0  0  0  0  0
  139.3850   69.5570  227.4620 C   0  0  0  0  0  0  0  0  0  0  0  0
  139.6440   70.3700  228.5640 C   0  0  0  0  0  0  0  0  0  0  0  0
  140.3510   71.5500  228.4180 C   0  0  0  0  0  0  0  0  0  0  0  0
  140.7920   71.9020  227.1500 C   0  0  0  0  0  0  0  0  0  0  0  0
  140.5250   71.0770  226.0530 C   0  0  0  0  0  0  0  0  0  0  0  0
  141.0150   71.4980  224.7360 C   0  0  0  0  0  0  0  0  0  0  0  0
  139.6590   71.2780  221.3260 N   0  0  0  0  0  0  0  0  0  0  0  0
  141.5500   71.3340  218.5450 C   0  0  0  0  0  0  0  0  0  0  0  0
  144.0100   68.5790  219.1750 N   0  0  0  0  0  0  0  0  0  0  0  0
  146.0499   66.7178  220.3952 H   0  0  0  0  0  0  0  0  0  0  0  0
  145.2581   66.2837  218.8423 H   0  0  0  0  0  0  0  0  0  0  0  0
  146.9138   66.9804  218.8423 H   0  0  0  0  0  0  0  0  0  0  0  0
  147.3139   69.2861  219.3057 H   0  0  0  0  0  0  0  0  0  0  0  0
  146.3272   71.6082  219.1518 H   0  0  0  0  0  0  0  0  0  0  0  0
  141.7514   68.1218  219.6664 H   0  0  0  0  0  0  0  0  0  0  0  0
  140.6234   69.3859  220.3116 H   0  0  0  0  0  0  0  0  0  0  0  0
  140.4768   67.7734  217.8375 H   0  0  0  0  0  0  0  0  0  0  0  0
  139.1812   68.5952  218.8120 H   0  0  0  0  0  0  0  0  0  0  0  0
  140.8837   69.6743  216.5845 H   0  0  0  0  0  0  0  0  0  0  0  0
  139.0891   69.7134  216.8175 H   0  0  0  0  0  0  0  0  0  0  0  0
  139.9699   71.8790  217.1457 H   0  0  0  0  0  0  0  0  0  0  0  0
  138.1970   71.0820  218.9040 H   0  0  0  0  0  0  0  0  0  0  0  0
  142.4014   75.6263  221.3352 H   0  0  0  0  0  0  0  0  0  0  0  0
  141.4432   75.4335  219.7930 H   0  0  0  0  0  0  0  0  0  0  0  0
  142.4705   77.7620  220.5769 H   0  0  0  0  0  0  0  0  0  0  0  0
  140.8979   77.5864  219.6733 H   0  0  0  0  0  0  0  0  0  0  0  0
  143.3174   78.6215  222.1692 H   0  0  0  0  0  0  0  0  0  0  0  0
  144.1730   80.4578  223.5744 H   0  0  0  0  0  0  0  0  0  0  0  0
  142.5728   82.0193  224.7019 H   0  0  0  0  0  0  0  0  0  0  0  0
  140.1333   81.6314  224.3345 H   0  0  0  0  0  0  0  0  0  0  0  0
  138.9064   78.2022  222.7247 H   0  0  0  0  0  0  0  0  0  0  0  0
  138.7261   77.7157  221.0308 H   0  0  0  0  0  0  0  0  0  0  0  0
  139.8280   76.1463  223.3781 H   0  0  0  0  0  0  0  0  0  0  0  0
  138.4652   75.7387  222.2167 H   0  0  0  0  0  0  0  0  0  0  0  0
  138.2295   70.1803  223.8251 H   0  0  0  0  0  0  0  0  0  0  0  0
  139.5293   69.2451  222.9360 H   0  0  0  0  0  0  0  0  0  0  0  0
  138.6726   68.4167  225.2318 H   0  0  0  0  0  0  0  0  0  0  0  0
  140.4329   68.4117  224.8326 H   0  0  0  0  0  0  0  0  0  0  0  0
  138.8218   68.6223  227.6002 H   0  0  0  0  0  0  0  0  0  0  0  0
  139.2829   70.0706  229.5590 H   0  0  0  0  0  0  0  0  0  0  0  0
  140.5586   72.1936  229.2856 H   0  0  0  0  0  0  0  0  0  0  0  0
  141.3552   72.8360  227.0070 H   0  0  0  0  0  0  0  0  0  0  0  0
  141.0901   72.5951  224.7075 H   0  0  0  0  0  0  0  0  0  0  0  0
  142.0058   71.0548  224.5575 H   0  0  0  0  0  0  0  0  0  0  0  0
  142.2204   71.7458  217.7763 H   0  0  0  0  0  0  0  0  0  0  0  0
  141.4699   72.0183  219.4025 H   0  0  0  0  0  0  0  0  0  0  0  0
  1  2  1  0
  2  3  2  0
  3  4  1  0
  4  5  2  0
  5  6  1  0
  6  7  1  0
  7  8  1  0
  8  9  1  0
  9 10  1  0
 10 11  1  0
 11 12  1  0
 12 13  1  0
 13 14  2  0
 14 15  1  0
 15 16  1  0
 16 17  1  0
 17 18  1  0
 18 19  1  0
 19 20  1  0
 20 21  2  0
 21 22  1  0
 22 23  2  0
 23 24  1  0
 24 25  2  0
 19 26  1  0
 26 27  1  0
 15 28  2  0
 28 29  1  0
 29 30  1  0
 30 31  1  0
 31 32  1  0
 32 33  1  0
 33 34  2  0
 34 35  1  0
 35 36  2  0
 36 37  1  0
 37 38  2  0
 38 39  1  0
 29 40  2  0
 11 41  1  0
  6 42  2  0
 42  2  1  0
 41  7  1  0
 40 13  1  0
 27 16  1  0
 39 30  1  0
 25 20  1  0
 38 33  1  0
  1 43  1  0
  1 44  1  0
  1 45  1  0
  3 46  1  0
  4 47  1  0
  8 48  1  0
  8 49  1  0
  9 50  1  0
  9 51  1  0
 10 52  1  0
 10 53  1  0
 11 54  1  6
 12 55  1  0
 17 56  1  0
 17 57  1  0
 18 58  1  0
 18 59  1  0
 21 60  1  0
 22 61  1  0
 23 62  1  0
 24 63  1  0
 26 64  1  0
 26 65  1  0
 27 66  1  0
 27 67  1  0
 31 68  1  0
 31 69  1  0
 32 70  1  0
 32 71  1  0
 34 72  1  0
 35 73  1  0
 36 74  1  0
 37 75  1  0
 39 76  1  0
 39 77  1  0
 41 78  1  0
 41 79  1  0
M  END
>  <smiles>  (85) 
Cc1ccnc(N2CCCC(Nc3nc(N4CCN(c5ccccn5)CC4)nc(N4CCc5ccccc5C4)n3)C2)n1

>  <score_type>  (85) 
oracle

>  <origin>  (85) 
autodockgpu

>  <m_score__min__energy>  (85) 
-10.06

>  <m_primary>  (85) 
energy

>  <rmsd>  (85) 
7.740044781065269

>  <m_score__min__rmsd>  (85) 
7.740044781065269

>  <meeko>  (85) 
{"free_energy": -10.02, "intermolecular_energy": -11.81, "internal_energy": -1.74, "cluster_size": 16, "cluster_id": 1, "rank_in_cluster": 3}

>  <energy>  (85) 
-9.72

>  <cluster_rmsd>  (85) 
0.69

>  <cluster>  (85) 
4

$$$$

     RDKit          3D

 79 85  0  0  1  0  0  0  0  0999 V2000
  145.9060   67.0020  219.3330 C   0  0  0  0  0  0  0  0  0  0  0  0
  145.3260   68.3710  219.2810 C   0  0  0  0  0  0  0  0  0  0  0  0
  146.1930   69.4430  219.3320 C   0  0  0  0  0  0  0  0  0  0  0  0
  145.6410   70.7270  219.2820 C   0  0  0  0  0  0  0  0  0  0  0  0
  144.2920   70.8590  219.1890 N   0  0  0  0  0  0  0  0  0  0  0  0
  143.4580   69.8110  219.1410 C   0  0  0  0  0  0  0  0  0  0  0  0
  142.0630   70.0760  219.0430 N   0  0  0  0  0  0  0  0  0  0  0  0
  141.1410   69.0490  219.4880 C   0  0  0  0  0  0  0  0  0  0  0  0
  140.1400   68.6830  218.4020 C   0  0  0  0  0  0  0  0  0  0  0  0
  140.0490   69.7330  217.3360 C   0  0  0  0  0  0  0  0  0  0  0  0
  140.1500   71.1200  217.9210 C   0  0  1  0  0  0  0  0  0  0  0  0
  139.1810   71.3900  218.9500 N   0  0  0  0  0  0  0  0  0  0  0  0
  139.5390   72.0390  220.1800 C   0  0  0  0  0  0  0  0  0  0  0  0
  139.7640   73.3650  220.2470 N   0  0  0  0  0  0  0  0  0  0  0  0
  140.1000   73.9580  221.4200 C   0  0  0  0  0  0  0  0  0  0  0  0
  140.3410   75.3700  221.4980 N   0  0  0  0  0  0  0  0  0  0  0  0
  141.4580   75.8850  220.7630 C   0  0  0  0  0  0  0  0  0  0  0  0
  141.4150   77.3840  220.5840 C   0  0  0  0  0  0  0  0  0  0  0  0
  140.7160   78.0510  221.6390 N   0  0  0  0  0  0  0  0  0  0  0  0
  141.2260   79.0890  222.4420 C   0  0  0  0  0  0  0  0  0  0  0  0
  142.5770   79.2830  222.6510 C   0  0  0  0  0  0  0  0  0  0  0  0
  143.0630   80.3110  223.4430 C   0  0  0  0  0  0  0  0  0  0  0  0
  142.1920   81.1820  224.0550 C   0  0  0  0  0  0  0  0  0  0  0  0
  140.8410   80.9640  223.8280 C   0  0  0  0  0  0  0  0  0  0  0  0
  140.3980   79.9590  223.0540 N   0  0  0  0  0  0  0  0  0  0  0  0
  139.3380   77.5960  221.8970 C   0  0  0  0  0  0  0  0  0  0  0  0
  139.4470   76.1650  222.3090 C   0  0  0  0  0  0  0  0  0  0  0  0
  140.1900   73.1490  222.4860 N   0  0  0  0  0  0  0  0  0  0  0  0
  139.9730   71.8220  222.4590 C   0  0  0  0  0  0  0  0  0  0  0  0
  140.0960   71.0390  223.6610 N   0  0  0  0  0  0  0  0  0  0  0  0
  139.2770   69.8590  223.7580 C   0  0  0  0  0  0  0  0  0  0  0  0
  139.5510   69.0260  224.9670 C   0  0  0  0  0  0  0  0  0  0  0  0
  139.8350   69.8840  226.1400 C   0  0  0  0  0  0  0  0  0  0  0  0
  139.4030   69.5310  227.4110 C   0  0  0  0  0  0  0  0  0  0  0  0
  139.6730   70.3390  228.5150 C   0  0  0  0  0  0  0  0  0  0  0  0
  140.3810   71.5170  228.3680 C   0  0  0  0  0  0  0  0  0  0  0  0
  140.8140   71.8720  227.0980 C   0  0  0  0  0  0  0  0  0  0  0  0
  140.5370   71.0520  226.0000 C   0  0  0  0  0  0  0  0  0  0  0  0
  141.0190   71.4780  224.6810 C   0  0  0  0  0  0  0  0  0  0  0  0
  139.6430   71.2730  221.2780 N   0  0  0  0  0  0  0  0  0  0  0  0
  141.5250   71.3180  218.5180 C   0  0  0  0  0  0  0  0  0  0  0  0
  143.9820   68.5820  219.1870 N   0  0  0  0  0  0  0  0  0  0  0  0
  146.0348   66.6980  220.3823 H   0  0  0  0  0  0  0  0  0  0  0  0
  145.2290   66.2975  218.8276 H   0  0  0  0  0  0  0  0  0  0  0  0
  146.8830   66.9983  218.8276 H   0  0  0  0  0  0  0  0  0  0  0  0
  147.2800   69.2931  219.4093 H   0  0  0  0  0  0  0  0  0  0  0  0
  146.2885   71.6156  219.3174 H   0  0  0  0  0  0  0  0  0  0  0  0
  141.7134   68.1507  219.7627 H   0  0  0  0  0  0  0  0  0  0  0  0
  140.5828   69.4399  220.3515 H   0  0  0  0  0  0  0  0  0  0  0  0
  140.4509   67.7348  217.9391 H   0  0  0  0  0  0  0  0  0  0  0  0
  139.1498   68.5941  218.8727 H   0  0  0  0  0  0  0  0  0  0  0  0
  140.8695   69.5865  216.6181 H   0  0  0  0  0  0  0  0  0  0  0  0
  139.0731   69.6372  216.8375 H   0  0  0  0  0  0  0  0  0  0  0  0
  139.9552   71.8124  217.0887 H   0  0  0  0  0  0  0  0  0  0  0  0
  138.1600   71.1220  218.8460 H   0  0  0  0  0  0  0  0  0  0  0  0
  142.3808   75.6240  221.3018 H   0  0  0  0  0  0  0  0  0  0  0  0
  141.4229   75.4358  219.7595 H   0  0  0  0  0  0  0  0  0  0  0  0
  142.4470   77.7634  220.5520 H   0  0  0  0  0  0  0  0  0  0  0  0
  140.8741   77.5893  219.6484 H   0  0  0  0  0  0  0  0  0  0  0  0
  143.2922   78.5979  222.1723 H   0  0  0  0  0  0  0  0  0  0  0  0
  144.1475   80.4307  223.5825 H   0  0  0  0  0  0  0  0  0  0  0  0
  142.5475   82.0068  224.6901 H   0  0  0  0  0  0  0  0  0  0  0  0
  140.1078   81.6364  224.2974 H   0  0  0  0  0  0  0  0  0  0  0  0
  138.8832   78.1919  222.7021 H   0  0  0  0  0  0  0  0  0  0  0  0
  138.7024   77.7115  221.0067 H   0  0  0  0  0  0  0  0  0  0  0  0
  139.8076   76.1339  223.3478 H   0  0  0  0  0  0  0  0  0  0  0  0
  138.4447   75.7288  222.1859 H   0  0  0  0  0  0  0  0  0  0  0  0
  138.2226   70.1713  223.7850 H   0  0  0  0  0  0  0  0  0  0  0  0
  139.5124   69.2359  222.8826 H   0  0  0  0  0  0  0  0  0  0  0  0
  138.6719   68.4005  225.1814 H   0  0  0  0  0  0  0  0  0  0  0  0
  140.4297   68.3943  224.7697 H   0  0  0  0  0  0  0  0  0  0  0  0
  138.8378   68.5976  227.5498 H   0  0  0  0  0  0  0  0  0  0  0  0
  139.3194   70.0362  229.5116 H   0  0  0  0  0  0  0  0  0  0  0  0
  140.5960   72.1574  229.2362 H   0  0  0  0  0  0  0  0  0  0  0  0
  141.3789   72.8049  226.9544 H   0  0  0  0  0  0  0  0  0  0  0  0
  141.0963   72.5750  224.6566 H   0  0  0  0  0  0  0  0  0  0  0  0
  142.0078   71.0340  224.4934 H   0  0  0  0  0  0  0  0  0  0  0  0
  142.2013   71.6988  217.7385 H   0  0  0  0  0  0  0  0  0  0  0  0
  141.4399   72.0345  219.3483 H   0  0  0  0  0  0  0  0  0  0  0  0
  1  2  1  0
  2  3  2  0
  3  4  1  0
  4  5  2  0
  5  6  1  0
  6  7  1  0
  7  8  1  0
  8  9  1  0
  9 10  1  0
 10 11  1  0
 11 12  1  0
 12 13  1  0
 13 14  2  0
 14 15  1  0
 15 16  1  0
 16 17  1  0
 17 18  1  0
 18 19  1  0
 19 20  1  0
 20 21  2  0
 21 22  1  0
 22 23  2  0
 23 24  1  0
 24 25  2  0
 19 26  1  0
 26 27  1  0
 15 28  2  0
 28 29  1  0
 29 30  1  0
 30 31  1  0
 31 32  1  0
 32 33  1  0
 33 34  2  0
 34 35  1  0
 35 36  2  0
 36 37  1  0
 37 38  2  0
 38 39  1  0
 29 40  2  0
 11 41  1  0
  6 42  2  0
 42  2  1  0
 41  7  1  0
 40 13  1  0
 27 16  1  0
 39 30  1  0
 25 20  1  0
 38 33  1  0
  1 43  1  0
  1 44  1  0
  1 45  1  0
  3 46  1  0
  4 47  1  0
  8 48  1  0
  8 49  1  0
  9 50  1  0
  9 51  1  0
 10 52  1  0
 10 53  1  0
 11 54  1  6
 12 55  1  0
 17 56  1  0
 17 57  1  0
 18 58  1  0
 18 59  1  0
 21 60  1  0
 22 61  1  0
 23 62  1  0
 24 63  1  0
 26 64  1  0
 26 65  1  0
 27 66  1  0
 27 67  1  0
 31 68  1  0
 31 69  1  0
 32 70  1  0
 32 71  1  0
 34 72  1  0
 35 73  1  0
 36 74  1  0
 37 75  1  0
 39 76  1  0
 39 77  1  0
 41 78  1  0
 41 79  1  0
M  END
>  <smiles>  (86) 
Cc1ccnc(N2CCCC(Nc3nc(N4CCN(c5ccccn5)CC4)nc(N4CCc5ccccc5C4)n3)C2)n1

>  <score_type>  (86) 
oracle

>  <origin>  (86) 
autodockgpu

>  <m_score__min__energy>  (86) 
-10.06

>  <m_primary>  (86) 
energy

>  <rmsd>  (86) 
7.723597434964037

>  <m_score__min__rmsd>  (86) 
7.723597434964037

>  <meeko>  (86) 
{"free_energy": -10.01, "intermolecular_energy": -11.8, "internal_energy": -1.76, "cluster_size": 16, "cluster_id": 1, "rank_in_cluster": 5}

>  <energy>  (86) 
-9.7

>  <cluster_rmsd>  (86) 
0.65

>  <cluster>  (86) 
4

$$$$

     RDKit          3D

 79 85  0  0  1  0  0  0  0  0999 V2000
  133.9000   70.7810  226.9230 C   0  0  0  0  0  0  0  0  0  0  0  0
  133.9510   71.9670  226.0260 C   0  0  0  0  0  0  0  0  0  0  0  0
  133.4090   73.1500  226.4850 C   0  0  0  0  0  0  0  0  0  0  0  0
  133.4610   74.2600  225.6350 C   0  0  0  0  0  0  0  0  0  0  0  0
  134.0340   74.1240  224.4110 N   0  0  0  0  0  0  0  0  0  0  0  0
  134.5570   72.9700  223.9740 C   0  0  0  0  0  0  0  0  0  0  0  0
  135.1300   72.9510  222.6720 N   0  0  0  0  0  0  0  0  0  0  0  0
  135.4810   74.2200  222.0630 C   0  0  0  0  0  0  0  0  0  0  0  0
  134.8350   74.3850  220.6960 C   0  0  0  0  0  0  0  0  0  0  0  0
  134.3770   73.0780  220.1210 C   0  0  0  0  0  0  0  0  0  0  0  0
  135.3510   71.9690  220.4370 C   0  0  1  0  0  0  0  0  0  0  0  0
  136.6980   72.2380  220.0110 N   0  0  0  0  0  0  0  0  0  0  0  0
  137.7120   72.6760  220.9300 C   0  0  0  0  0  0  0  0  0  0  0  0
  138.2180   73.9240  220.8920 N   0  0  0  0  0  0  0  0  0  0  0  0
  139.1740   74.3170  221.7690 C   0  0  0  0  0  0  0  0  0  0  0  0
  139.7170   75.6440  221.7340 N   0  0  0  0  0  0  0  0  0  0  0  0
  141.0140   75.8060  221.1470 C   0  0  0  0  0  0  0  0  0  0  0  0
  141.3400   77.2390  220.8020 C   0  0  0  0  0  0  0  0  0  0  0  0
  140.6690   78.1810  221.6450 N   0  0  0  0  0  0  0  0  0  0  0  0
  141.2840   79.1940  222.4040 C   0  0  0  0  0  0  0  0  0  0  0  0
  140.5710   80.1710  223.0720 C   0  0  0  0  0  0  0  0  0  0  0  0
  141.1910   81.1610  223.8160 C   0  0  0  0  0  0  0  0  0  0  0  0
  142.5640   81.1970  223.9100 C   0  0  0  0  0  0  0  0  0  0  0  0
  143.2540   80.2050  223.2300 C   0  0  0  0  0  0  0  0  0  0  0  0
  142.6260   79.2560  222.5150 N   0  0  0  0  0  0  0  0  0  0  0  0
  139.2020   78.0640  221.7130 C   0  0  0  0  0  0  0  0  0  0  0  0
  138.9220   76.7160  222.2900 C   0  0  0  0  0  0  0  0  0  0  0  0
  139.5720   73.3960  222.6600 N   0  0  0  0  0  0  0  0  0  0  0  0
  139.0920   72.1430  222.7300 C   0  0  0  0  0  0  0  0  0  0  0  0
  139.5860   71.2280  223.7250 N   0  0  0  0  0  0  0  0  0  0  0  0
  138.9350   69.9460  223.8150 C   0  0  0  0  0  0  0  0  0  0  0  0
  139.5810   69.0010  224.7740 C   0  0  0  0  0  0  0  0  0  0  0  0
  140.0660   69.7230  225.9730 C   0  0  0  0  0  0  0  0  0  0  0  0
  140.0010   69.1450  227.2350 C   0  0  0  0  0  0  0  0  0  0  0  0
  140.4590   69.8250  228.3620 C   0  0  0  0  0  0  0  0  0  0  0  0
  140.9920   71.0960  228.2500 C   0  0  0  0  0  0  0  0  0  0  0  0
  141.0570   71.6750  226.9900 C   0  0  0  0  0  0  0  0  0  0  0  0
  140.5950   70.9820  225.8670 C   0  0  0  0  0  0  0  0  0  0  0  0
  140.6880   71.6420  224.5610 C   0  0  0  0  0  0  0  0  0  0  0  0
  138.1460   71.7920  221.8430 N   0  0  0  0  0  0  0  0  0  0  0  0
  135.3760   71.7280  221.9300 C   0  0  0  0  0  0  0  0  0  0  0  0
  134.5100   71.9070  224.7830 N   0  0  0  0  0  0  0  0  0  0  0  0
  133.9143   71.1134  227.9715 H   0  0  0  0  0  0  0  0  0  0  0  0
  132.9767   70.2150  226.7303 H   0  0  0  0  0  0  0  0  0  0  0  0
  134.7713   70.1378  226.7303 H   0  0  0  0  0  0  0  0  0  0  0  0
  132.9524   73.2179  227.4834 H   0  0  0  0  0  0  0  0  0  0  0  0
  133.0446   75.2273  225.9528 H   0  0  0  0  0  0  0  0  0  0  0  0
  135.1421   75.0359  222.7184 H   0  0  0  0  0  0  0  0  0  0  0  0
  136.5728   74.2475  221.9322 H   0  0  0  0  0  0  0  0  0  0  0  0
  133.9660   75.0523  220.7937 H   0  0  0  0  0  0  0  0  0  0  0  0
  135.5902   74.8055  220.0157 H   0  0  0  0  0  0  0  0  0  0  0  0
  133.3946   72.8241  220.5459 H   0  0  0  0  0  0  0  0  0  0  0  0
  134.3126   73.1829  219.0279 H   0  0  0  0  0  0  0  0  0  0  0  0
  134.9956   71.0889  219.8811 H   0  0  0  0  0  0  0  0  0  0  0  0
  137.0030   72.1270  219.0030 H   0  0  0  0  0  0  0  0  0  0  0  0
  141.7676   75.4385  221.8591 H   0  0  0  0  0  0  0  0  0  0  0  0
  141.0187   75.2359  220.2063 H   0  0  0  0  0  0  0  0  0  0  0  0
  142.4252   77.3867  220.9048 H   0  0  0  0  0  0  0  0  0  0  0  0
  140.9987   77.4164  219.7715 H   0  0  0  0  0  0  0  0  0  0  0  0
  139.4727   80.1622  223.0108 H   0  0  0  0  0  0  0  0  0  0  0  0
  140.5853   81.9200  224.3328 H   0  0  0  0  0  0  0  0  0  0  0  0
  143.0853   81.9706  224.4929 H   0  0  0  0  0  0  0  0  0  0  0  0
  144.3529   80.1944  223.2774 H   0  0  0  0  0  0  0  0  0  0  0  0
  138.7856   78.8504  222.3597 H   0  0  0  0  0  0  0  0  0  0  0  0
  138.7425   78.1803  220.7203 H   0  0  0  0  0  0  0  0  0  0  0  0
  139.1146   76.7597  223.3721 H   0  0  0  0  0  0  0  0  0  0  0  0
  137.8746   76.4850  222.0459 H   0  0  0  0  0  0  0  0  0  0  0  0
  137.8956   70.1080  224.1366 H   0  0  0  0  0  0  0  0  0  0  0  0
  139.0040   69.4842  222.8190 H   0  0  0  0  0  0  0  0  0  0  0  0
  138.8475   68.2413  225.0819 H   0  0  0  0  0  0  0  0  0  0  0  0
  140.4386   68.5238  224.2772 H   0  0  0  0  0  0  0  0  0  0  0  0
  139.5813   68.1343  227.3463 H   0  0  0  0  0  0  0  0  0  0  0  0
  140.3959   69.3460  229.3502 H   0  0  0  0  0  0  0  0  0  0  0  0
  141.3555   71.6349  229.1374 H   0  0  0  0  0  0  0  0  0  0  0  0
  141.4749   72.6859  226.8743 H   0  0  0  0  0  0  0  0  0  0  0  0
  140.6519   72.7327  224.6995 H   0  0  0  0  0  0  0  0  0  0  0  0
  141.6358   71.3612  224.0785 H   0  0  0  0  0  0  0  0  0  0  0  0
  134.5992   70.9925  222.1861 H   0  0  0  0  0  0  0  0  0  0  0  0
  136.3745   71.3550  222.2020 H   0  0  0  0  0  0  0  0  0  0  0  0
  1  2  1  0
  2  3  2  0
  3  4  1  0
  4  5  2  0
  5  6  1  0
  6  7  1  0
  7  8  1  0
  8  9  1  0
  9 10  1  0
 10 11  1  0
 11 12  1  0
 12 13  1  0
 13 14  2  0
 14 15  1  0
 15 16  1  0
 16 17  1  0
 17 18  1  0
 18 19  1  0
 19 20  1  0
 20 21  2  0
 21 22  1  0
 22 23  2  0
 23 24  1  0
 24 25  2  0
 19 26  1  0
 26 27  1  0
 15 28  2  0
 28 29  1  0
 29 30  1  0
 30 31  1  0
 31 32  1  0
 32 33  1  0
 33 34  2  0
 34 35  1  0
 35 36  2  0
 36 37  1  0
 37 38  2  0
 38 39  1  0
 29 40  2  0
 11 41  1  0
  6 42  2  0
 42  2  1  0
 41  7  1  0
 40 13  1  0
 27 16  1  0
 39 30  1  0
 25 20  1  0
 38 33  1  0
  1 43  1  0
  1 44  1  0
  1 45  1  0
  3 46  1  0
  4 47  1  0
  8 48  1  0
  8 49  1  0
  9 50  1  0
  9 51  1  0
 10 52  1  0
 10 53  1  0
 11 54  1  6
 12 55  1  0
 17 56  1  0
 17 57  1  0
 18 58  1  0
 18 59  1  0
 21 60  1  0
 22 61  1  0
 23 62  1  0
 24 63  1  0
 26 64  1  0
 26 65  1  0
 27 66  1  0
 27 67  1  0
 31 68  1  0
 31 69  1  0
 32 70  1  0
 32 71  1  0
 34 72  1  0
 35 73  1  0
 36 74  1  0
 37 75  1  0
 39 76  1  0
 39 77  1  0
 41 78  1  0
 41 79  1  0
M  END
>  <smiles>  (87) 
Cc1ccnc(N2CCCC(Nc3nc(N4CCN(c5ccccn5)CC4)nc(N4CCc5ccccc5C4)n3)C2)n1

>  <score_type>  (87) 
oracle

>  <origin>  (87) 
autodockgpu

>  <m_score__min__energy>  (87) 
-10.06

>  <m_primary>  (87) 
energy

>  <rmsd>  (87) 
7.898607907281077

>  <m_score__min__rmsd>  (87) 
7.898607907281077

>  <meeko>  (87) 
{"free_energy": -9.67, "intermolecular_energy": -11.46, "internal_energy": -1.67, "cluster_size": 18, "cluster_id": 4, "rank_in_cluster": 9}

>  <energy>  (87) 
-9.69

>  <cluster_rmsd>  (87) 
0.86

>  <cluster>  (87) 
4

$$$$

     RDKit          3D

 79 85  0  0  1  0  0  0  0  0999 V2000
  140.1810   68.7240  228.3810 C   0  0  0  0  0  0  0  0  0  0  0  0
  140.3290   69.8440  227.4130 C   0  0  0  0  0  0  0  0  0  0  0  0
  141.0680   70.9420  227.8020 C   0  0  0  0  0  0  0  0  0  0  0  0
  141.2020   71.9910  226.8860 C   0  0  0  0  0  0  0  0  0  0  0  0
  140.6050   71.8830  225.6700 N   0  0  0  0  0  0  0  0  0  0  0  0
  139.8880   70.8120  225.3020 C   0  0  0  0  0  0  0  0  0  0  0  0
  139.3110   70.8140  224.0020 N   0  0  0  0  0  0  0  0  0  0  0  0
  138.0160   70.1850  223.8300 C   0  0  0  0  0  0  0  0  0  0  0  0
  138.0430   69.1300  222.7350 C   0  0  0  0  0  0  0  0  0  0  0  0
  139.2210   69.2900  221.8200 C   0  0  0  0  0  0  0  0  0  0  0  0
  139.5190   70.7460  221.5610 C   0  0  1  0  0  0  0  0  0  0  0  0
  138.3990   71.4870  221.0420 N   0  0  0  0  0  0  0  0  0  0  0  0
  137.9770   72.7310  221.6220 C   0  0  0  0  0  0  0  0  0  0  0  0
  138.7190   73.8510  221.5260 N   0  0  0  0  0  0  0  0  0  0  0  0
  138.3010   75.0160  222.0800 C   0  0  0  0  0  0  0  0  0  0  0  0
  139.0870   76.2110  221.9820 N   0  0  0  0  0  0  0  0  0  0  0  0
  140.4180   76.0800  221.4690 C   0  0  0  0  0  0  0  0  0  0  0  0
  141.0260   77.3930  221.0420 C   0  0  0  0  0  0  0  0  0  0  0  0
  140.5060   78.5110  221.7680 N   0  0  0  0  0  0  0  0  0  0  0  0
  141.2630   79.4530  222.4890 C   0  0  0  0  0  0  0  0  0  0  0  0
  142.6370   79.3800  222.6110 C   0  0  0  0  0  0  0  0  0  0  0  0
  143.3680   80.3170  223.3230 C   0  0  0  0  0  0  0  0  0  0  0  0
  142.7280   81.3660  223.9430 C   0  0  0  0  0  0  0  0  0  0  0  0
  141.3490   81.4150  223.8050 C   0  0  0  0  0  0  0  0  0  0  0  0
  140.6650   80.4930  223.1070 N   0  0  0  0  0  0  0  0  0  0  0  0
  139.0410   78.6740  221.7500 C   0  0  0  0  0  0  0  0  0  0  0  0
  138.4830   77.4550  222.4060 C   0  0  0  0  0  0  0  0  0  0  0  0
  137.1200   74.9760  222.7160 N   0  0  0  0  0  0  0  0  0  0  0  0
  136.3510   73.8790  222.8330 C   0  0  0  0  0  0  0  0  0  0  0  0
  135.0980   73.9400  223.5380 N   0  0  0  0  0  0  0  0  0  0  0  0
  134.5750   75.2500  223.8290 C   0  0  0  0  0  0  0  0  0  0  0  0
  133.2130   75.2400  224.4420 C   0  0  0  0  0  0  0  0  0  0  0  0
  133.0740   74.1090  225.3890 C   0  0  0  0  0  0  0  0  0  0  0  0
  132.3430   74.2400  226.5620 C   0  0  0  0  0  0  0  0  0  0  0  0
  132.2120   73.1750  227.4520 C   0  0  0  0  0  0  0  0  0  0  0  0
  132.8100   71.9570  227.1850 C   0  0  0  0  0  0  0  0  0  0  0  0
  133.5420   71.8250  226.0130 C   0  0  0  0  0  0  0  0  0  0  0  0
  133.6650   72.9010  225.1290 C   0  0  0  0  0  0  0  0  0  0  0  0
  134.4490   72.7040  223.9050 C   0  0  0  0  0  0  0  0  0  0  0  0
  136.8010   72.7450  222.2710 N   0  0  0  0  0  0  0  0  0  0  0  0
  139.9570   71.4100  222.8470 C   0  0  0  0  0  0  0  0  0  0  0  0
  139.7580   69.8070  226.1740 N   0  0  0  0  0  0  0  0  0  0  0  0
  140.2329   69.1169  229.4071 H   0  0  0  0  0  0  0  0  0  0  0  0
  139.2099   68.2311  228.2258 H   0  0  0  0  0  0  0  0  0  0  0  0
  140.9907   67.9958  228.2258 H   0  0  0  0  0  0  0  0  0  0  0  0
  141.5351   70.9910  228.7967 H   0  0  0  0  0  0  0  0  0  0  0  0
  141.7815   72.8891  227.1460 H   0  0  0  0  0  0  0  0  0  0  0  0
  137.7229   69.7082  224.7770 H   0  0  0  0  0  0  0  0  0  0  0  0
  137.2938   70.9620  223.5392 H   0  0  0  0  0  0  0  0  0  0  0  0
  138.0908   68.1356  223.2028 H   0  0  0  0  0  0  0  0  0  0  0  0
  137.1302   69.2466  222.1324 H   0  0  0  0  0  0  0  0  0  0  0  0
  140.1013   68.8209  222.2836 H   0  0  0  0  0  0  0  0  0  0  0  0
  138.9837   68.8077  220.8603 H   0  0  0  0  0  0  0  0  0  0  0  0
  140.3106   70.7591  220.7973 H   0  0  0  0  0  0  0  0  0  0  0  0
  137.8370   71.1470  220.2100 H   0  0  0  0  0  0  0  0  0  0  0  0
  141.0523   75.6402  222.2527 H   0  0  0  0  0  0  0  0  0  0  0  0
  140.3607   75.4419  220.5748 H   0  0  0  0  0  0  0  0  0  0  0  0
  142.1131   77.3450  221.2032 H   0  0  0  0  0  0  0  0  0  0  0  0
  140.7750   77.5431  219.9816 H   0  0  0  0  0  0  0  0  0  0  0  0
  143.1694   78.5487  222.1258 H   0  0  0  0  0  0  0  0  0  0  0  0
  144.4617   80.2225  223.3929 H   0  0  0  0  0  0  0  0  0  0  0  0
  143.2805   82.1245  224.5169 H   0  0  0  0  0  0  0  0  0  0  0  0
  140.7962   82.2369  224.2834 H   0  0  0  0  0  0  0  0  0  0  0  0
  138.7499   79.5758  222.3087 H   0  0  0  0  0  0  0  0  0  0  0  0
  138.6611   78.7889  220.7241 H   0  0  0  0  0  0  0  0  0  0  0  0
  138.6276   77.5536  223.4920 H   0  0  0  0  0  0  0  0  0  0  0  0
  137.4238   77.4019  222.1138 H   0  0  0  0  0  0  0  0  0  0  0  0
  135.2638   75.7501  224.5257 H   0  0  0  0  0  0  0  0  0  0  0  0
  134.4865   75.7772  222.8676 H   0  0  0  0  0  0  0  0  0  0  0  0
  133.0529   76.1849  224.9819 H   0  0  0  0  0  0  0  0  0  0  0  0
  132.4659   75.1262  223.6427 H   0  0  0  0  0  0  0  0  0  0  0  0
  131.8590   75.2004  226.7930 H   0  0  0  0  0  0  0  0  0  0  0  0
  131.6277   73.3047  228.3749 H   0  0  0  0  0  0  0  0  0  0  0  0
  132.7081   71.1138  227.8840 H   0  0  0  0  0  0  0  0  0  0  0  0
  134.0288   70.8669  225.7782 H   0  0  0  0  0  0  0  0  0  0  0  0
  135.2101   71.9292  224.0792 H   0  0  0  0  0  0  0  0  0  0  0  0
  133.7798   72.3885  223.0909 H   0  0  0  0  0  0  0  0  0  0  0  0
  141.0466   71.3017  222.9517 H   0  0  0  0  0  0  0  0  0  0  0  0
  139.6707   72.4711  222.8016 H   0  0  0  0  0  0  0  0  0  0  0  0
  1  2  1  0
  2  3  2  0
  3  4  1  0
  4  5  2  0
  5  6  1  0
  6  7  1  0
  7  8  1  0
  8  9  1  0
  9 10  1  0
 10 11  1  0
 11 12  1  0
 12 13  1  0
 13 14  2  0
 14 15  1  0
 15 16  1  0
 16 17  1  0
 17 18  1  0
 18 19  1  0
 19 20  1  0
 20 21  2  0
 21 22  1  0
 22 23  2  0
 23 24  1  0
 24 25  2  0
 19 26  1  0
 26 27  1  0
 15 28  2  0
 28 29  1  0
 29 30  1  0
 30 31  1  0
 31 32  1  0
 32 33  1  0
 33 34  2  0
 34 35  1  0
 35 36  2  0
 36 37  1  0
 37 38  2  0
 38 39  1  0
 29 40  2  0
 11 41  1  0
  6 42  2  0
 42  2  1  0
 41  7  1  0
 40 13  1  0
 27 16  1  0
 39 30  1  0
 25 20  1  0
 38 33  1  0
  1 43  1  0
  1 44  1  0
  1 45  1  0
  3 46  1  0
  4 47  1  0
  8 48  1  0
  8 49  1  0
  9 50  1  0
  9 51  1  0
 10 52  1  0
 10 53  1  0
 11 54  1  6
 12 55  1  0
 17 56  1  0
 17 57  1  0
 18 58  1  0
 18 59  1  0
 21 60  1  0
 22 61  1  0
 23 62  1  0
 24 63  1  0
 26 64  1  0
 26 65  1  0
 27 66  1  0
 27 67  1  0
 31 68  1  0
 31 69  1  0
 32 70  1  0
 32 71  1  0
 34 72  1  0
 35 73  1  0
 36 74  1  0
 37 75  1  0
 39 76  1  0
 39 77  1  0
 41 78  1  0
 41 79  1  0
M  END
>  <smiles>  (88) 
Cc1ccnc(N2CCCC(Nc3nc(N4CCN(c5ccccn5)CC4)nc(N4CCc5ccccc5C4)n3)C2)n1

>  <score_type>  (88) 
oracle

>  <origin>  (88) 
autodockgpu

>  <m_score__min__energy>  (88) 
-10.06

>  <m_primary>  (88) 
energy

>  <rmsd>  (88) 
8.055174323971137

>  <m_score__min__rmsd>  (88) 
8.055174323971137

>  <meeko>  (88) 
{"free_energy": -9.51, "intermolecular_energy": -11.3, "internal_energy": -1.83, "cluster_size": 12, "cluster_id": 3, "rank_in_cluster": 6}

>  <energy>  (88) 
-9.67

>  <cluster_rmsd>  (88) 
0.83

>  <cluster>  (88) 
4

$$$$

     RDKit          3D

 79 85  0  0  1  0  0  0  0  0999 V2000
  141.0360   70.1570  228.0650 C   0  0  0  0  0  0  0  0  0  0  0  0
  140.2430   69.5730  226.9490 C   0  0  0  0  0  0  0  0  0  0  0  0
  140.0390   68.2090  226.9450 C   0  0  0  0  0  0  0  0  0  0  0  0
  139.2930   67.6680  225.8930 C   0  0  0  0  0  0  0  0  0  0  0  0
  138.8090   68.5000  224.9340 N   0  0  0  0  0  0  0  0  0  0  0  0
  139.0140   69.8240  224.9470 C   0  0  0  0  0  0  0  0  0  0  0  0
  138.4560   70.5930  223.8870 N   0  0  0  0  0  0  0  0  0  0  0  0
  137.3580   71.4880  224.1980 C   0  0  0  0  0  0  0  0  0  0  0  0
  136.1490   71.2220  223.3140 C   0  0  0  0  0  0  0  0  0  0  0  0
  136.5040   70.4440  222.0820 C   0  0  0  0  0  0  0  0  0  0  0  0
  137.8420   70.8720  221.5300 C   0  0  1  0  0  0  0  0  0  0  0  0
  137.9350   72.2820  221.2560 N   0  0  0  0  0  0  0  0  0  0  0  0
  139.1800   72.9080  220.9090 C   0  0  0  0  0  0  0  0  0  0  0  0
  140.2270   72.2020  220.4410 N   0  0  0  0  0  0  0  0  0  0  0  0
  141.3940   72.8130  220.1180 C   0  0  0  0  0  0  0  0  0  0  0  0
  142.5120   72.0670  219.6190 N   0  0  0  0  0  0  0  0  0  0  0  0
  142.5050   71.7280  218.2270 C   0  0  0  0  0  0  0  0  0  0  0  0
  143.8560   71.2980  217.7090 C   0  0  0  0  0  0  0  0  0  0  0  0
  144.6760   70.7040  218.7200 N   0  0  0  0  0  0  0  0  0  0  0  0
  145.2750   69.4320  218.6570 C   0  0  0  0  0  0  0  0  0  0  0  0
  145.7380   68.8760  217.4810 C   0  0  0  0  0  0  0  0  0  0  0  0
  146.3260   67.6230  217.4350 C   0  0  0  0  0  0  0  0  0  0  0  0
  146.4660   66.8840  218.5880 C   0  0  0  0  0  0  0  0  0  0  0  0
  145.9940   67.4660  219.7540 C   0  0  0  0  0  0  0  0  0  0  0  0
  145.4270   68.6840  219.7690 N   0  0  0  0  0  0  0  0  0  0  0  0
  144.9020   71.5120  219.9320 C   0  0  0  0  0  0  0  0  0  0  0  0
  143.5590   71.7120  220.5510 C   0  0  0  0  0  0  0  0  0  0  0  0
  141.4310   74.1430  220.2940 N   0  0  0  0  0  0  0  0  0  0  0  0
  140.4090   74.8820  220.7580 C   0  0  0  0  0  0  0  0  0  0  0  0
  140.5500   76.3060  220.9120 N   0  0  0  0  0  0  0  0  0  0  0  0
  140.9810   77.0480  219.7550 C   0  0  0  0  0  0  0  0  0  0  0  0
  140.9780   78.5290  219.9470 C   0  0  0  0  0  0  0  0  0  0  0  0
  141.4200   78.8800  221.3160 C   0  0  0  0  0  0  0  0  0  0  0  0
  142.1960   80.0080  221.5540 C   0  0  0  0  0  0  0  0  0  0  0  0
  142.6100   80.3370  222.8440 C   0  0  0  0  0  0  0  0  0  0  0  0
  142.2560   79.5460  223.9210 C   0  0  0  0  0  0  0  0  0  0  0  0
  141.4820   78.4190  223.6850 C   0  0  0  0  0  0  0  0  0  0  0  0
  141.0720   78.0990  222.3870 C   0  0  0  0  0  0  0  0  0  0  0  0
  140.2550   76.8960  222.1960 C   0  0  0  0  0  0  0  0  0  0  0  0
  139.2700   74.2380  221.0670 N   0  0  0  0  0  0  0  0  0  0  0  0
  138.9320   70.5200  222.5170 C   0  0  0  0  0  0  0  0  0  0  0  0
  139.7260   70.3450  225.9510 N   0  0  0  0  0  0  0  0  0  0  0  0
  140.6052   69.8398  229.0261 H   0  0  0  0  0  0  0  0  0  0  0  0
  142.0770   69.8082  227.9968 H   0  0  0  0  0  0  0  0  0  0  0  0
  141.0118   71.2546  227.9968 H   0  0  0  0  0  0  0  0  0  0  0  0
  140.4484   67.5695  227.7408 H   0  0  0  0  0  0  0  0  0  0  0  0
  139.1011   66.5860  225.8427 H   0  0  0  0  0  0  0  0  0  0  0  0
  137.0690   71.3459  225.2498 H   0  0  0  0  0  0  0  0  0  0  0  0
  137.6945   72.5197  224.0181 H   0  0  0  0  0  0  0  0  0  0  0  0
  135.4075   70.6506  223.8916 H   0  0  0  0  0  0  0  0  0  0  0  0
  135.7466   72.1942  222.9933 H   0  0  0  0  0  0  0  0  0  0  0  0
  136.5458   69.3740  222.3335 H   0  0  0  0  0  0  0  0  0  0  0  0
  135.7361   70.6343  221.3178 H   0  0  0  0  0  0  0  0  0  0  0  0
  137.9584   70.3380  220.5754 H   0  0  0  0  0  0  0  0  0  0  0  0
  137.0900   72.9200  221.2980 H   0  0  0  0  0  0  0  0  0  0  0  0
  141.7935   70.9035  218.0723 H   0  0  0  0  0  0  0  0  0  0  0  0
  142.2177   72.6339  217.6731 H   0  0  0  0  0  0  0  0  0  0  0  0
  143.7058   70.5646  216.9030 H   0  0  0  0  0  0  0  0  0  0  0  0
  144.3746   72.1994  217.3504 H   0  0  0  0  0  0  0  0  0  0  0  0
  145.6362   69.4487  216.5474 H   0  0  0  0  0  0  0  0  0  0  0  0
  146.6816   67.2178  216.4761 H   0  0  0  0  0  0  0  0  0  0  0  0
  146.9275   65.8855  218.5841 H   0  0  0  0  0  0  0  0  0  0  0  0
  146.0868   66.9117  220.6996 H   0  0  0  0  0  0  0  0  0  0  0  0
  145.5676   70.9796  220.6274 H   0  0  0  0  0  0  0  0  0  0  0  0
  145.3813   72.4725  219.6917 H   0  0  0  0  0  0  0  0  0  0  0  0
  143.2695   70.7763  221.0517 H   0  0  0  0  0  0  0  0  0  0  0  0
  143.6591   72.5601  221.2443 H   0  0  0  0  0  0  0  0  0  0  0  0
  142.0050   76.7338  219.5044 H   0  0  0  0  0  0  0  0  0  0  0  0
  140.2622   76.8300  218.9514 H   0  0  0  0  0  0  0  0  0  0  0  0
  141.6611   78.9891  219.2179 H   0  0  0  0  0  0  0  0  0  0  0  0
  139.9541   78.9028  219.7991 H   0  0  0  0  0  0  0  0  0  0  0  0
  142.4883   80.6516  220.7111 H   0  0  0  0  0  0  0  0  0  0  0  0
  143.2244   81.2349  223.0064 H   0  0  0  0  0  0  0  0  0  0  0  0
  142.5800   79.8038  224.9401 H   0  0  0  0  0  0  0  0  0  0  0  0
  141.1887   77.7724  224.5252 H   0  0  0  0  0  0  0  0  0  0  0  0
  140.4803   76.1709  222.9919 H   0  0  0  0  0  0  0  0  0  0  0  0
  139.1901   77.1690  222.2353 H   0  0  0  0  0  0  0  0  0  0  0  0
  139.2805   69.4966  222.3141 H   0  0  0  0  0  0  0  0  0  0  0  0
  139.7511   71.2445  222.3981 H   0  0  0  0  0  0  0  0  0  0  0  0
  1  2  1  0
  2  3  2  0
  3  4  1  0
  4  5  2  0
  5  6  1  0
  6  7  1  0
  7  8  1  0
  8  9  1  0
  9 10  1  0
 10 11  1  0
 11 12  1  0
 12 13  1  0
 13 14  2  0
 14 15  1  0
 15 16  1  0
 16 17  1  0
 17 18  1  0
 18 19  1  0
 19 20  1  0
 20 21  2  0
 21 22  1  0
 22 23  2  0
 23 24  1  0
 24 25  2  0
 19 26  1  0
 26 27  1  0
 15 28  2  0
 28 29  1  0
 29 30  1  0
 30 31  1  0
 31 32  1  0
 32 33  1  0
 33 34  2  0
 34 35  1  0
 35 36  2  0
 36 37  1  0
 37 38  2  0
 38 39  1  0
 29 40  2  0
 11 41  1  0
  6 42  2  0
 42  2  1  0
 41  7  1  0
 40 13  1  0
 27 16  1  0
 39 30  1  0
 25 20  1  0
 38 33  1  0
  1 43  1  0
  1 44  1  0
  1 45  1  0
  3 46  1  0
  4 47  1  0
  8 48  1  0
  8 49  1  0
  9 50  1  0
  9 51  1  0
 10 52  1  0
 10 53  1  0
 11 54  1  6
 12 55  1  0
 17 56  1  0
 17 57  1  0
 18 58  1  0
 18 59  1  0
 21 60  1  0
 22 61  1  0
 23 62  1  0
 24 63  1  0
 26 64  1  0
 26 65  1  0
 27 66  1  0
 27 67  1  0
 31 68  1  0
 31 69  1  0
 32 70  1  0
 32 71  1  0
 34 72  1  0
 35 73  1  0
 36 74  1  0
 37 75  1  0
 39 76  1  0
 39 77  1  0
 41 78  1  0
 41 79  1  0
M  END
>  <smiles>  (89) 
Cc1ccnc(N2CCCC(Nc3nc(N4CCN(c5ccccn5)CC4)nc(N4CCc5ccccc5C4)n3)C2)n1

>  <score_type>  (89) 
oracle

>  <origin>  (89) 
autodockgpu

>  <m_score__min__energy>  (89) 
-10.06

>  <m_primary>  (89) 
energy

>  <rmsd>  (89) 
7.541293609263408

>  <m_score__min__rmsd>  (89) 
7.541293609263408

>  <meeko>  (89) 
{"free_energy": -9.24, "intermolecular_energy": -11.03, "internal_energy": -1.43, "cluster_size": 1, "cluster_id": 5, "rank_in_cluster": 1}

>  <energy>  (89) 
-9.67

>  <cluster_rmsd>  (89) 
0.89

>  <cluster>  (89) 
4

$$$$

     RDKit          3D

 79 85  0  0  1  0  0  0  0  0999 V2000
  139.9410   68.3510  227.5650 C   0  0  0  0  0  0  0  0  0  0  0  0
  140.2240   69.6170  226.8360 C   0  0  0  0  0  0  0  0  0  0  0  0
  140.8070   70.6510  227.5380 C   0  0  0  0  0  0  0  0  0  0  0  0
  141.0700   71.8380  226.8460 C   0  0  0  0  0  0  0  0  0  0  0  0
  140.7410   71.9170  225.5290 N   0  0  0  0  0  0  0  0  0  0  0  0
  140.1740   70.9070  224.8570 C   0  0  0  0  0  0  0  0  0  0  0  0
  139.8760   71.1090  223.4800 N   0  0  0  0  0  0  0  0  0  0  0  0
  138.6820   70.4880  222.9420 C   0  0  0  0  0  0  0  0  0  0  0  0
  138.9940   69.6280  221.7270 C   0  0  0  0  0  0  0  0  0  0  0  0
  140.3230   69.9640  221.1180 C   0  0  0  0  0  0  0  0  0  0  0  0
  140.5840   71.4500  221.1580 C   0  0  1  0  0  0  0  0  0  0  0  0
  139.5540   72.2390  220.5360 N   0  0  0  0  0  0  0  0  0  0  0  0
  139.0430   73.4360  221.1440 C   0  0  0  0  0  0  0  0  0  0  0  0
  137.8610   73.4580  221.7900 N   0  0  0  0  0  0  0  0  0  0  0  0
  137.3960   74.5990  222.3580 C   0  0  0  0  0  0  0  0  0  0  0  0
  136.1390   74.6290  223.0460 N   0  0  0  0  0  0  0  0  0  0  0  0
  135.5040   75.9050  223.1960 C   0  0  0  0  0  0  0  0  0  0  0  0
  134.0460   75.8070  223.5720 C   0  0  0  0  0  0  0  0  0  0  0  0
  133.7380   74.6180  224.3060 N   0  0  0  0  0  0  0  0  0  0  0  0
  133.1140   74.5640  225.5670 C   0  0  0  0  0  0  0  0  0  0  0  0
  132.5700   73.4060  226.0870 C   0  0  0  0  0  0  0  0  0  0  0  0
  131.9600   73.3690  227.3300 C   0  0  0  0  0  0  0  0  0  0  0  0
  131.8770   74.5110  228.0940 C   0  0  0  0  0  0  0  0  0  0  0  0
  132.4320   75.6580  227.5470 C   0  0  0  0  0  0  0  0  0  0  0  0
  133.0180   75.6660  226.3380 N   0  0  0  0  0  0  0  0  0  0  0  0
  134.1190   73.3440  223.6710 C   0  0  0  0  0  0  0  0  0  0  0  0
  135.6050   73.3780  223.5370 C   0  0  0  0  0  0  0  0  0  0  0  0
  138.1810   75.6800  222.2350 N   0  0  0  0  0  0  0  0  0  0  0  0
  139.3650   75.6980  221.6000 C   0  0  0  0  0  0  0  0  0  0  0  0
  140.1330   76.9130  221.5230 N   0  0  0  0  0  0  0  0  0  0  0  0
  141.3910   76.8480  220.8250 C   0  0  0  0  0  0  0  0  0  0  0  0
  142.0690   78.1690  220.6690 C   0  0  0  0  0  0  0  0  0  0  0  0
  141.8860   78.9970  221.8830 C   0  0  0  0  0  0  0  0  0  0  0  0
  142.8980   79.8290  222.3460 C   0  0  0  0  0  0  0  0  0  0  0  0
  142.7230   80.6090  223.4880 C   0  0  0  0  0  0  0  0  0  0  0  0
  141.5320   80.5730  224.1900 C   0  0  0  0  0  0  0  0  0  0  0  0
  140.5200   79.7420  223.7290 C   0  0  0  0  0  0  0  0  0  0  0  0
  140.7080   78.9650  222.5820 C   0  0  0  0  0  0  0  0  0  0  0  0
  139.6040   78.1060  222.1410 C   0  0  0  0  0  0  0  0  0  0  0  0
  139.7890   74.5480  221.0510 N   0  0  0  0  0  0  0  0  0  0  0  0
  140.7100   71.9030  222.5960 C   0  0  0  0  0  0  0  0  0  0  0  0
  139.9230   69.7710  225.5150 N   0  0  0  0  0  0  0  0  0  0  0  0
  139.9821   68.5349  228.6487 H   0  0  0  0  0  0  0  0  0  0  0  0
  138.9393   67.9871  227.2926 H   0  0  0  0  0  0  0  0  0  0  0  0
  140.6924   67.5952  227.2926 H   0  0  0  0  0  0  0  0  0  0  0  0
  141.0564   70.5461  228.6042 H   0  0  0  0  0  0  0  0  0  0  0  0
  141.5351   72.6930  227.3586 H   0  0  0  0  0  0  0  0  0  0  0  0
  138.2279   69.8557  223.7192 H   0  0  0  0  0  0  0  0  0  0  0  0
  137.9917   71.2854  222.6296 H   0  0  0  0  0  0  0  0  0  0  0  0
  139.0024   68.5717  222.0340 H   0  0  0  0  0  0  0  0  0  0  0  0
  138.2189   69.8203  220.9706 H   0  0  0  0  0  0  0  0  0  0  0  0
  141.1152   69.4457  221.6781 H   0  0  0  0  0  0  0  0  0  0  0  0
  140.3150   69.6408  220.0666 H   0  0  0  0  0  0  0  0  0  0  0  0
  141.5132   71.6078  220.5908 H   0  0  0  0  0  0  0  0  0  0  0  0
  139.1270   71.9730  219.6040 H   0  0  0  0  0  0  0  0  0  0  0  0
  136.0301   76.4663  223.9822 H   0  0  0  0  0  0  0  0  0  0  0  0
  135.5550   76.4103  222.2203 H   0  0  0  0  0  0  0  0  0  0  0  0
  133.7837   76.6785  224.1898 H   0  0  0  0  0  0  0  0  0  0  0  0
  133.4659   75.7773  222.6379 H   0  0  0  0  0  0  0  0  0  0  0  0
  132.6230   72.4813  225.4937 H   0  0  0  0  0  0  0  0  0  0  0  0
  131.5409   72.4247  227.7076 H   0  0  0  0  0  0  0  0  0  0  0  0
  131.3969   74.5136  229.0837 H   0  0  0  0  0  0  0  0  0  0  0  0
  132.3911   76.5942  228.1231 H   0  0  0  0  0  0  0  0  0  0  0  0
  133.8116   72.4963  224.3009 H   0  0  0  0  0  0  0  0  0  0  0  0
  133.6296   73.2193  222.6938 H   0  0  0  0  0  0  0  0  0  0  0  0
  136.0428   73.1837  224.5272 H   0  0  0  0  0  0  0  0  0  0  0  0
  135.8671   72.6139  222.7904 H   0  0  0  0  0  0  0  0  0  0  0  0
  142.0621   76.1788  221.3835 H   0  0  0  0  0  0  0  0  0  0  0  0
  141.1733   76.4808  219.8112 H   0  0  0  0  0  0  0  0  0  0  0  0
  143.1439   78.0058  220.5017 H   0  0  0  0  0  0  0  0  0  0  0  0
  141.6252   78.6955  219.8112 H   0  0  0  0  0  0  0  0  0  0  0  0
  143.8532   79.8729  221.8023 H   0  0  0  0  0  0  0  0  0  0  0  0
  143.5399   81.2593  223.8341 H   0  0  0  0  0  0  0  0  0  0  0  0
  141.3901   81.1875  225.0912 H   0  0  0  0  0  0  0  0  0  0  0  0
  139.5634   79.6945  224.2700 H   0  0  0  0  0  0  0  0  0  0  0  0
  138.9890   77.8263  223.0091 H   0  0  0  0  0  0  0  0  0  0  0  0
  138.9869   78.6513  221.4117 H   0  0  0  0  0  0  0  0  0  0  0  0
  141.7594   71.8046  222.9109 H   0  0  0  0  0  0  0  0  0  0  0  0
  140.3786   72.9501  222.6578 H   0  0  0  0  0  0  0  0  0  0  0  0
  1  2  1  0
  2  3  2  0
  3  4  1  0
  4  5  2  0
  5  6  1  0
  6  7  1  0
  7  8  1  0
  8  9  1  0
  9 10  1  0
 10 11  1  0
 11 12  1  0
 12 13  1  0
 13 14  2  0
 14 15  1  0
 15 16  1  0
 16 17  1  0
 17 18  1  0
 18 19  1  0
 19 20  1  0
 20 21  2  0
 21 22  1  0
 22 23  2  0
 23 24  1  0
 24 25  2  0
 19 26  1  0
 26 27  1  0
 15 28  2  0
 28 29  1  0
 29 30  1  0
 30 31  1  0
 31 32  1  0
 32 33  1  0
 33 34  2  0
 34 35  1  0
 35 36  2  0
 36 37  1  0
 37 38  2  0
 38 39  1  0
 29 40  2  0
 11 41  1  0
  6 42  2  0
 42  2  1  0
 41  7  1  0
 40 13  1  0
 27 16  1  0
 39 30  1  0
 25 20  1  0
 38 33  1  0
  1 43  1  0
  1 44  1  0
  1 45  1  0
  3 46  1  0
  4 47  1  0
  8 48  1  0
  8 49  1  0
  9 50  1  0
  9 51  1  0
 10 52  1  0
 10 53  1  0
 11 54  1  6
 12 55  1  0
 17 56  1  0
 17 57  1  0
 18 58  1  0
 18 59  1  0
 21 60  1  0
 22 61  1  0
 23 62  1  0
 24 63  1  0
 26 64  1  0
 26 65  1  0
 27 66  1  0
 27 67  1  0
 31 68  1  0
 31 69  1  0
 32 70  1  0
 32 71  1  0
 34 72  1  0
 35 73  1  0
 36 74  1  0
 37 75  1  0
 39 76  1  0
 39 77  1  0
 41 78  1  0
 41 79  1  0
M  END
>  <smiles>  (90) 
Cc1ccnc(N2CCCC(Nc3nc(N4CCN(c5ccccn5)CC4)nc(N4CCc5ccccc5C4)n3)C2)n1

>  <score_type>  (90) 
oracle

>  <origin>  (90) 
autodockgpu

>  <m_score__min__energy>  (90) 
-10.06

>  <m_primary>  (90) 
energy

>  <rmsd>  (90) 
7.701119735794743

>  <m_score__min__rmsd>  (90) 
7.701119735794743

>  <meeko>  (90) 
{"free_energy": -9.17, "intermolecular_energy": -10.96, "internal_energy": -1.78, "cluster_size": 12, "cluster_id": 3, "rank_in_cluster": 11}

>  <energy>  (90) 
-9.48

>  <cluster_rmsd>  (90) 
0.77

>  <cluster>  (90) 
4

$$$$

     RDKit          3D

 79 85  0  0  1  0  0  0  0  0999 V2000
  145.9230   66.6910  219.3340 C   0  0  0  0  0  0  0  0  0  0  0  0
  145.3430   68.0600  219.2910 C   0  0  0  0  0  0  0  0  0  0  0  0
  146.2100   69.1320  219.3340 C   0  0  0  0  0  0  0  0  0  0  0  0
  145.6580   70.4170  219.2930 C   0  0  0  0  0  0  0  0  0  0  0  0
  144.3070   70.5480  219.2150 N   0  0  0  0  0  0  0  0  0  0  0  0
  143.4730   69.5010  219.1740 C   0  0  0  0  0  0  0  0  0  0  0  0
  142.0780   69.7660  219.0910 N   0  0  0  0  0  0  0  0  0  0  0  0
  141.1620   68.7680  219.6100 C   0  0  0  0  0  0  0  0  0  0  0  0
  140.1370   68.3490  218.5680 C   0  0  0  0  0  0  0  0  0  0  0  0
  140.0260   69.3400  217.4480 C   0  0  0  0  0  0  0  0  0  0  0  0
  140.1440   70.7560  217.9560 C   0  0  1  0  0  0  0  0  0  0  0  0
  139.1980   71.0850  218.9880 N   0  0  0  0  0  0  0  0  0  0  0  0
  139.5900   71.7750  220.1860 C   0  0  0  0  0  0  0  0  0  0  0  0
  139.8600   73.0940  220.1930 N   0  0  0  0  0  0  0  0  0  0  0  0
  140.2270   73.7260  221.3360 C   0  0  0  0  0  0  0  0  0  0  0  0
  140.5170   75.1300  221.3500 N   0  0  0  0  0  0  0  0  0  0  0  0
  141.6880   75.5650  220.6470 C   0  0  0  0  0  0  0  0  0  0  0  0
  141.7110   77.0510  220.3850 C   0  0  0  0  0  0  0  0  0  0  0  0
  140.9850   77.8010  221.3650 N   0  0  0  0  0  0  0  0  0  0  0  0
  141.4920   78.8640  222.1350 C   0  0  0  0  0  0  0  0  0  0  0  0
  141.8010   78.7410  223.4760 C   0  0  0  0  0  0  0  0  0  0  0  0
  142.3010   79.7970  224.2200 C   0  0  0  0  0  0  0  0  0  0  0  0
  142.5050   81.0230  223.6280 C   0  0  0  0  0  0  0  0  0  0  0  0
  142.1860   81.1180  222.2820 C   0  0  0  0  0  0  0  0  0  0  0  0
  141.7030   80.0770  221.5840 N   0  0  0  0  0  0  0  0  0  0  0  0
  139.5790   77.4090  221.5740 C   0  0  0  0  0  0  0  0  0  0  0  0
  139.6130   76.0010  222.0680 C   0  0  0  0  0  0  0  0  0  0  0  0
  140.3000   72.9610  222.4360 N   0  0  0  0  0  0  0  0  0  0  0  0
  140.0380   71.6430  222.4690 C   0  0  0  0  0  0  0  0  0  0  0  0
  140.1450   70.9100  223.7030 N   0  0  0  0  0  0  0  0  0  0  0  0
  139.3130   69.7420  223.8440 C   0  0  0  0  0  0  0  0  0  0  0  0
  139.5710   68.9580  225.0880 C   0  0  0  0  0  0  0  0  0  0  0  0
  139.8570   69.8620  226.2260 C   0  0  0  0  0  0  0  0  0  0  0  0
  139.4130   69.5650  227.5080 C   0  0  0  0  0  0  0  0  0  0  0  0
  139.6840   70.4160  228.5790 C   0  0  0  0  0  0  0  0  0  0  0  0
  140.4050   71.5800  228.3880 C   0  0  0  0  0  0  0  0  0  0  0  0
  140.8500   71.8780  227.1070 C   0  0  0  0  0  0  0  0  0  0  0  0
  140.5720   71.0160  226.0420 C   0  0  0  0  0  0  0  0  0  0  0  0
  141.0660   71.3810  224.7100 C   0  0  0  0  0  0  0  0  0  0  0  0
  139.6780   71.0550  221.3160 N   0  0  0  0  0  0  0  0  0  0  0  0
  141.5330   70.9800  218.5120 C   0  0  0  0  0  0  0  0  0  0  0  0
  143.9980   68.2720  219.2120 N   0  0  0  0  0  0  0  0  0  0  0  0
  146.0543   66.3811  220.3813 H   0  0  0  0  0  0  0  0  0  0  0  0
  145.2448   65.9894  218.8263 H   0  0  0  0  0  0  0  0  0  0  0  0
  146.8988   66.6901  218.8263 H   0  0  0  0  0  0  0  0  0  0  0  0
  147.2978   68.9818  219.3983 H   0  0  0  0  0  0  0  0  0  0  0  0
  146.3057   71.3056  219.3233 H   0  0  0  0  0  0  0  0  0  0  0  0
  141.7373   67.8831  219.9200 H   0  0  0  0  0  0  0  0  0  0  0  0
  140.6239   69.2072  220.4629 H   0  0  0  0  0  0  0  0  0  0  0  0
  140.4343   67.3756  218.1508 H   0  0  0  0  0  0  0  0  0  0  0  0
  139.1570   68.2910  219.0643 H   0  0  0  0  0  0  0  0  0  0  0  0
  140.8303   69.1516  216.7216 H   0  0  0  0  0  0  0  0  0  0  0  0
  139.0397   69.2214  216.9755 H   0  0  0  0  0  0  0  0  0  0  0  0
  139.9338   71.4040  217.0923 H   0  0  0  0  0  0  0  0  0  0  0  0
  138.1710   70.8340  218.9120 H   0  0  0  0  0  0  0  0  0  0  0  0
  142.5723   75.3027  221.2463 H   0  0  0  0  0  0  0  0  0  0  0  0
  141.6855   75.0623  219.6686 H   0  0  0  0  0  0  0  0  0  0  0  0
  142.7570   77.3915  220.3865 H   0  0  0  0  0  0  0  0  0  0  0  0
  141.2261   77.2222  219.4126 H   0  0  0  0  0  0  0  0  0  0  0  0
  141.6445   77.7707  223.9700 H   0  0  0  0  0  0  0  0  0  0  0  0
  142.5354   79.6558  225.2854 H   0  0  0  0  0  0  0  0  0  0  0  0
  142.8997   81.8808  224.1923 H   0  0  0  0  0  0  0  0  0  0  0  0
  142.3336   82.0792  221.7679 H   0  0  0  0  0  0  0  0  0  0  0  0
  139.1064   78.0645  222.3203 H   0  0  0  0  0  0  0  0  0  0  0  0
  138.9944   77.4963  220.6463 H   0  0  0  0  0  0  0  0  0  0  0  0
  139.9186   76.0160  223.1246 H   0  0  0  0  0  0  0  0  0  0  0  0
  138.6026   75.5938  221.9152 H   0  0  0  0  0  0  0  0  0  0  0  0
  138.2616   70.0653  223.8509 H   0  0  0  0  0  0  0  0  0  0  0  0
  139.5478   69.0805  222.9971 H   0  0  0  0  0  0  0  0  0  0  0  0
  138.6842   68.3510  225.3229 H   0  0  0  0  0  0  0  0  0  0  0  0
  140.4441   68.3096  224.9230 H   0  0  0  0  0  0  0  0  0  0  0  0
  138.8381   68.6434  227.6814 H   0  0  0  0  0  0  0  0  0  0  0  0
  139.3208   70.1588  229.5849 H   0  0  0  0  0  0  0  0  0  0  0  0
  140.6209   72.2537  229.2304 H   0  0  0  0  0  0  0  0  0  0  0  0
  141.4252   72.7986  226.9289 H   0  0  0  0  0  0  0  0  0  0  0  0
  141.1555   72.4751  224.6405 H   0  0  0  0  0  0  0  0  0  0  0  0
  142.0507   70.9185  224.5476 H   0  0  0  0  0  0  0  0  0  0  0  0
  142.1934   71.3155  217.6988 H   0  0  0  0  0  0  0  0  0  0  0  0
  141.4684   71.7405  219.3041 H   0  0  0  0  0  0  0  0  0  0  0  0
  1  2  1  0
  2  3  2  0
  3  4  1  0
  4  5  2  0
  5  6  1  0
  6  7  1  0
  7  8  1  0
  8  9  1  0
  9 10  1  0
 10 11  1  0
 11 12  1  0
 12 13  1  0
 13 14  2  0
 14 15  1  0
 15 16  1  0
 16 17  1  0
 17 18  1  0
 18 19  1  0
 19 20  1  0
 20 21  2  0
 21 22  1  0
 22 23  2  0
 23 24  1  0
 24 25  2  0
 19 26  1  0
 26 27  1  0
 15 28  2  0
 28 29  1  0
 29 30  1  0
 30 31  1  0
 31 32  1  0
 32 33  1  0
 33 34  2  0
 34 35  1  0
 35 36  2  0
 36 37  1  0
 37 38  2  0
 38 39  1  0
 29 40  2  0
 11 41  1  0
  6 42  2  0
 42  2  1  0
 41  7  1  0
 40 13  1  0
 27 16  1  0
 39 30  1  0
 25 20  1  0
 38 33  1  0
  1 43  1  0
  1 44  1  0
  1 45  1  0
  3 46  1  0
  4 47  1  0
  8 48  1  0
  8 49  1  0
  9 50  1  0
  9 51  1  0
 10 52  1  0
 10 53  1  0
 11 54  1  6
 12 55  1  0
 17 56  1  0
 17 57  1  0
 18 58  1  0
 18 59  1  0
 21 60  1  0
 22 61  1  0
 23 62  1  0
 24 63  1  0
 26 64  1  0
 26 65  1  0
 27 66  1  0
 27 67  1  0
 31 68  1  0
 31 69  1  0
 32 70  1  0
 32 71  1  0
 34 72  1  0
 35 73  1  0
 36 74  1  0
 37 75  1  0
 39 76  1  0
 39 77  1  0
 41 78  1  0
 41 79  1  0
M  END
>  <smiles>  (91) 
Cc1ccnc(N2CCCC(Nc3nc(N4CCN(c5ccccn5)CC4)nc(N4CCc5ccccc5C4)n3)C2)n1

>  <score_type>  (91) 
oracle

>  <origin>  (91) 
autodockgpu

>  <m_score__min__energy>  (91) 
-10.06

>  <m_primary>  (91) 
energy

>  <rmsd>  (91) 
7.546687423868506

>  <m_score__min__rmsd>  (91) 
7.546687423868506

>  <meeko>  (91) 
{"free_energy": -9.92, "intermolecular_energy": -11.71, "internal_energy": -1.78, "cluster_size": 16, "cluster_id": 1, "rank_in_cluster": 12}

>  <energy>  (91) 
-9.47

>  <cluster_rmsd>  (91) 
0.99

>  <cluster>  (91) 
4

$$$$

     RDKit          3D

 79 85  0  0  1  0  0  0  0  0999 V2000
  133.3830   71.1630  227.0830 C   0  0  0  0  0  0  0  0  0  0  0  0
  133.5910   72.3170  226.1670 C   0  0  0  0  0  0  0  0  0  0  0  0
  133.2290   73.5710  226.6130 C   0  0  0  0  0  0  0  0  0  0  0  0
  133.4280   74.6510  225.7460 C   0  0  0  0  0  0  0  0  0  0  0  0
  133.9610   74.4180  224.5180 N   0  0  0  0  0  0  0  0  0  0  0  0
  134.3090   73.1950  224.0940 C   0  0  0  0  0  0  0  0  0  0  0  0
  134.8580   73.0770  222.7870 N   0  0  0  0  0  0  0  0  0  0  0  0
  134.9090   74.2670  221.9580 C   0  0  0  0  0  0  0  0  0  0  0  0
  134.2280   74.0470  220.6160 C   0  0  0  0  0  0  0  0  0  0  0  0
  134.0690   72.5920  220.2900 C   0  0  0  0  0  0  0  0  0  0  0  0
  135.2690   71.7950  220.7380 C   0  0  1  0  0  0  0  0  0  0  0  0
  136.5180   72.2750  220.2080 N   0  0  0  0  0  0  0  0  0  0  0  0
  137.5930   72.6980  221.0610 C   0  0  0  0  0  0  0  0  0  0  0  0
  138.1240   73.9330  220.9810 N   0  0  0  0  0  0  0  0  0  0  0  0
  139.1390   74.3120  221.7970 C   0  0  0  0  0  0  0  0  0  0  0  0
  139.7080   75.6260  221.7160 N   0  0  0  0  0  0  0  0  0  0  0  0
  141.0860   75.7200  221.3350 C   0  0  0  0  0  0  0  0  0  0  0  0
  141.4930   77.1080  220.9040 C   0  0  0  0  0  0  0  0  0  0  0  0
  140.7150   78.1350  221.5270 N   0  0  0  0  0  0  0  0  0  0  0  0
  141.2200   79.2190  222.2700 C   0  0  0  0  0  0  0  0  0  0  0  0
  142.2200   79.0840  223.2130 C   0  0  0  0  0  0  0  0  0  0  0  0
  142.7070   80.1610  223.9350 C   0  0  0  0  0  0  0  0  0  0  0  0
  142.1930   81.4210  223.7270 C   0  0  0  0  0  0  0  0  0  0  0  0
  141.1910   81.5270  222.7760 C   0  0  0  0  0  0  0  0  0  0  0  0
  140.7380   80.4650  222.0890 N   0  0  0  0  0  0  0  0  0  0  0  0
  139.2540   78.0320  221.3670 C   0  0  0  0  0  0  0  0  0  0  0  0
  138.8560   76.7530  222.0240 C   0  0  0  0  0  0  0  0  0  0  0  0
  139.5680   73.3900  222.6720 N   0  0  0  0  0  0  0  0  0  0  0  0
  139.0640   72.1490  222.7830 C   0  0  0  0  0  0  0  0  0  0  0  0
  139.5960   71.2310  223.7560 N   0  0  0  0  0  0  0  0  0  0  0  0
  138.9770   69.9320  223.8360 C   0  0  0  0  0  0  0  0  0  0  0  0
  139.6610   68.9890  224.7700 C   0  0  0  0  0  0  0  0  0  0  0  0
  140.1460   69.7050  225.9730 C   0  0  0  0  0  0  0  0  0  0  0  0
  140.1150   69.1070  227.2270 C   0  0  0  0  0  0  0  0  0  0  0  0
  140.5730   69.7810  228.3570 C   0  0  0  0  0  0  0  0  0  0  0  0
  141.0730   71.0660  228.2570 C   0  0  0  0  0  0  0  0  0  0  0  0
  141.1040   71.6650  227.0050 C   0  0  0  0  0  0  0  0  0  0  0  0
  140.6420   70.9780  225.8790 C   0  0  0  0  0  0  0  0  0  0  0  0
  140.7000   71.6600  224.5820 C   0  0  0  0  0  0  0  0  0  0  0  0
  138.0600   71.8120  221.9560 N   0  0  0  0  0  0  0  0  0  0  0  0
  135.3640   71.8280  222.2470 C   0  0  0  0  0  0  0  0  0  0  0  0
  134.1210   72.1610  224.9200 N   0  0  0  0  0  0  0  0  0  0  0  0
  133.4450   71.5069  228.1260 H   0  0  0  0  0  0  0  0  0  0  0  0
  132.3912   70.7238  226.9001 H   0  0  0  0  0  0  0  0  0  0  0  0
  134.1590   70.4052  226.9001 H   0  0  0  0  0  0  0  0  0  0  0  0
  132.7990   73.7168  227.6149 H   0  0  0  0  0  0  0  0  0  0  0  0
  133.1574   75.6719  226.0534 H   0  0  0  0  0  0  0  0  0  0  0  0
  134.4029   75.0899  222.4840 H   0  0  0  0  0  0  0  0  0  0  0  0
  135.9655   74.5096  221.7708 H   0  0  0  0  0  0  0  0  0  0  0  0
  133.2325   74.5141  220.6438 H   0  0  0  0  0  0  0  0  0  0  0  0
  134.8622   74.4985  219.8389 H   0  0  0  0  0  0  0  0  0  0  0  0
  133.1729   72.2068  220.7986 H   0  0  0  0  0  0  0  0  0  0  0  0
  133.9720   72.4895  219.1991 H   0  0  0  0  0  0  0  0  0  0  0  0
  135.1130   70.7759  220.3545 H   0  0  0  0  0  0  0  0  0  0  0  0
  136.6990   72.3400  219.1660 H   0  0  0  0  0  0  0  0  0  0  0  0
  141.7066   75.4251  222.1940 H   0  0  0  0  0  0  0  0  0  0  0  0
  141.2312   75.0549  220.4710 H   0  0  0  0  0  0  0  0  0  0  0  0
  142.5504   77.2610  221.1659 H   0  0  0  0  0  0  0  0  0  0  0  0
  141.3256   77.1792  219.8191 H   0  0  0  0  0  0  0  0  0  0  0  0
  142.6446   78.0861  223.3971 H   0  0  0  0  0  0  0  0  0  0  0  0
  143.5058   80.0093  224.6758 H   0  0  0  0  0  0  0  0  0  0  0  0
  142.5578   82.2958  224.2853 H   0  0  0  0  0  0  0  0  0  0  0  0
  140.7510   82.5152  222.5765 H   0  0  0  0  0  0  0  0  0  0  0  0
  138.7555   78.8829  221.8542 H   0  0  0  0  0  0  0  0  0  0  0  0
  138.9634   78.0467  220.3062 H   0  0  0  0  0  0  0  0  0  0  0  0
  138.8721   76.9075  223.1130 H   0  0  0  0  0  0  0  0  0  0  0  0
  137.8570   76.5025  221.6377 H   0  0  0  0  0  0  0  0  0  0  0  0
  137.9393   70.0638  224.1763 H   0  0  0  0  0  0  0  0  0  0  0  0
  139.0407   69.4871  222.8320 H   0  0  0  0  0  0  0  0  0  0  0  0
  138.9516   68.2063  225.0769 H   0  0  0  0  0  0  0  0  0  0  0  0
  140.5225   68.5411  224.2531 H   0  0  0  0  0  0  0  0  0  0  0  0
  139.7224   68.0846  227.3291 H   0  0  0  0  0  0  0  0  0  0  0  0
  140.5364   69.2858  229.3385 H   0  0  0  0  0  0  0  0  0  0  0  0
  141.4371   71.6003  229.1469 H   0  0  0  0  0  0  0  0  0  0  0  0
  141.4950   72.6876  226.8984 H   0  0  0  0  0  0  0  0  0  0  0  0
  140.6391   72.7472  224.7377 H   0  0  0  0  0  0  0  0  0  0  0  0
  141.6473   71.4106  224.0817 H   0  0  0  0  0  0  0  0  0  0  0  0
  134.7750   70.9958  222.6601 H   0  0  0  0  0  0  0  0  0  0  0  0
  136.4238   71.7362  222.5272 H   0  0  0  0  0  0  0  0  0  0  0  0
  1  2  1  0
  2  3  2  0
  3  4  1  0
  4  5  2  0
  5  6  1  0
  6  7  1  0
  7  8  1  0
  8  9  1  0
  9 10  1  0
 10 11  1  0
 11 12  1  0
 12 13  1  0
 13 14  2  0
 14 15  1  0
 15 16  1  0
 16 17  1  0
 17 18  1  0
 18 19  1  0
 19 20  1  0
 20 21  2  0
 21 22  1  0
 22 23  2  0
 23 24  1  0
 24 25  2  0
 19 26  1  0
 26 27  1  0
 15 28  2  0
 28 29  1  0
 29 30  1  0
 30 31  1  0
 31 32  1  0
 32 33  1  0
 33 34  2  0
 34 35  1  0
 35 36  2  0
 36 37  1  0
 37 38  2  0
 38 39  1  0
 29 40  2  0
 11 41  1  0
  6 42  2  0
 42  2  1  0
 41  7  1  0
 40 13  1  0
 27 16  1  0
 39 30  1  0
 25 20  1  0
 38 33  1  0
  1 43  1  0
  1 44  1  0
  1 45  1  0
  3 46  1  0
  4 47  1  0
  8 48  1  0
  8 49  1  0
  9 50  1  0
  9 51  1  0
 10 52  1  0
 10 53  1  0
 11 54  1  6
 12 55  1  0
 17 56  1  0
 17 57  1  0
 18 58  1  0
 18 59  1  0
 21 60  1  0
 22 61  1  0
 23 62  1  0
 24 63  1  0
 26 64  1  0
 26 65  1  0
 27 66  1  0
 27 67  1  0
 31 68  1  0
 31 69  1  0
 32 70  1  0
 32 71  1  0
 34 72  1  0
 35 73  1  0
 36 74  1  0
 37 75  1  0
 39 76  1  0
 39 77  1  0
 41 78  1  0
 41 79  1  0
M  END
>  <smiles>  (92) 
Cc1ccnc(N2CCCC(Nc3nc(N4CCN(c5ccccn5)CC4)nc(N4CCc5ccccc5C4)n3)C2)n1

>  <score_type>  (92) 
oracle

>  <origin>  (92) 
autodockgpu

>  <m_score__min__energy>  (92) 
-10.06

>  <m_primary>  (92) 
energy

>  <rmsd>  (92) 
7.847083942298438

>  <m_score__min__rmsd>  (92) 
7.847083942298438

>  <meeko>  (92) 
{"free_energy": -9.48, "intermolecular_energy": -11.27, "internal_energy": -1.66, "cluster_size": 18, "cluster_id": 4, "rank_in_cluster": 11}

>  <energy>  (92) 
-9.45

>  <cluster_rmsd>  (92) 
1.72

>  <cluster>  (92) 
4

$$$$

     RDKit          3D

 79 85  0  0  1  0  0  0  0  0999 V2000
  141.4080   72.2550  227.7220 C   0  0  0  0  0  0  0  0  0  0  0  0
  140.7920   71.3300  226.7340 C   0  0  0  0  0  0  0  0  0  0  0  0
  140.4280   70.0710  227.1650 C   0  0  0  0  0  0  0  0  0  0  0  0
  139.8500   69.2060  226.2300 C   0  0  0  0  0  0  0  0  0  0  0  0
  139.6760   69.6410  224.9530 N   0  0  0  0  0  0  0  0  0  0  0  0
  140.0340   70.8650  224.5440 C   0  0  0  0  0  0  0  0  0  0  0  0
  139.8010   71.2050  223.1820 N   0  0  0  0  0  0  0  0  0  0  0  0
  138.6850   70.5750  222.5030 C   0  0  0  0  0  0  0  0  0  0  0  0
  139.1240   69.8820  221.2230 C   0  0  0  0  0  0  0  0  0  0  0  0
  140.4580   70.3670  220.7410 C   0  0  0  0  0  0  0  0  0  0  0  0
  140.6140   71.8520  220.9620 C   0  0  1  0  0  0  0  0  0  0  0  0
  139.5680   72.6420  220.3670 N   0  0  0  0  0  0  0  0  0  0  0  0
  138.9660   73.7490  221.0560 C   0  0  0  0  0  0  0  0  0  0  0  0
  137.8190   73.6180  221.7480 N   0  0  0  0  0  0  0  0  0  0  0  0
  137.2670   74.6770  222.3930 C   0  0  0  0  0  0  0  0  0  0  0  0
  136.0450   74.5440  223.1310 N   0  0  0  0  0  0  0  0  0  0  0  0
  135.7740   75.5330  224.1320 C   0  0  0  0  0  0  0  0  0  0  0  0
  134.3330   75.5500  224.5810 C   0  0  0  0  0  0  0  0  0  0  0  0
  133.6960   74.2750  224.4580 N   0  0  0  0  0  0  0  0  0  0  0  0
  133.0450   73.5730  225.4900 C   0  0  0  0  0  0  0  0  0  0  0  0
  132.7910   72.2170  225.4330 C   0  0  0  0  0  0  0  0  0  0  0  0
  132.1500   71.5400  226.4580 C   0  0  0  0  0  0  0  0  0  0  0  0
  131.7390   72.2200  227.5820 C   0  0  0  0  0  0  0  0  0  0  0  0
  132.0060   73.5800  227.6120 C   0  0  0  0  0  0  0  0  0  0  0  0
  132.6310   74.2100  226.6040 N   0  0  0  0  0  0  0  0  0  0  0  0
  133.7370   73.6540  223.1220 C   0  0  0  0  0  0  0  0  0  0  0  0
  135.1810   73.4290  222.8160 C   0  0  0  0  0  0  0  0  0  0  0  0
  137.9320   75.8380  222.2950 N   0  0  0  0  0  0  0  0  0  0  0  0
  139.0780   76.0080  221.6150 C   0  0  0  0  0  0  0  0  0  0  0  0
  139.7150   77.2980  221.5700 N   0  0  0  0  0  0  0  0  0  0  0  0
  140.4160   77.6400  220.3590 C   0  0  0  0  0  0  0  0  0  0  0  0
  140.9370   79.0390  220.3310 C   0  0  0  0  0  0  0  0  0  0  0  0
  141.4360   79.4370  221.6670 C   0  0  0  0  0  0  0  0  0  0  0  0
  142.5570   80.2470  221.8040 C   0  0  0  0  0  0  0  0  0  0  0  0
  143.0250   80.6220  223.0620 C   0  0  0  0  0  0  0  0  0  0  0  0
  142.3810   80.1950  224.2090 C   0  0  0  0  0  0  0  0  0  0  0  0
  141.2620   79.3850  224.0740 C   0  0  0  0  0  0  0  0  0  0  0  0
  140.8020   79.0170  222.8060 C   0  0  0  0  0  0  0  0  0  0  0  0
  139.6150   78.1600  222.7240 C   0  0  0  0  0  0  0  0  0  0  0  0
  139.5920   74.9350  220.9900 N   0  0  0  0  0  0  0  0  0  0  0  0
  140.6270   72.1450  222.4460 C   0  0  0  0  0  0  0  0  0  0  0  0
  140.5860   71.6940  225.4350 N   0  0  0  0  0  0  0  0  0  0  0  0
  141.1780   71.9096  228.7407 H   0  0  0  0  0  0  0  0  0  0  0  0
  142.4984   72.2720  227.5781 H   0  0  0  0  0  0  0  0  0  0  0  0
  141.0033   73.2677  227.5781 H   0  0  0  0  0  0  0  0  0  0  0  0
  140.5868   69.7583  228.2076 H   0  0  0  0  0  0  0  0  0  0  0  0
  139.5415   68.1914  226.5224 H   0  0  0  0  0  0  0  0  0  0  0  0
  138.2335   69.8301  223.1748 H   0  0  0  0  0  0  0  0  0  0  0  0
  137.9592   71.3577  222.2375 H   0  0  0  0  0  0  0  0  0  0  0  0
  139.1879   68.8000  221.4108 H   0  0  0  0  0  0  0  0  0  0  0  0
  138.3815   70.1120  220.4447 H   0  0  0  0  0  0  0  0  0  0  0  0
  141.2512   69.8378  221.2894 H   0  0  0  0  0  0  0  0  0  0  0  0
  140.5310   70.1669  219.6618 H   0  0  0  0  0  0  0  0  0  0  0  0
  141.5609   72.1302  220.4763 H   0  0  0  0  0  0  0  0  0  0  0  0
  139.1960   72.4420  219.3950 H   0  0  0  0  0  0  0  0  0  0  0  0
  136.4095   75.3280  225.0061 H   0  0  0  0  0  0  0  0  0  0  0  0
  135.9872   76.5153  223.6851 H   0  0  0  0  0  0  0  0  0  0  0  0
  134.2978   75.8595  225.6360 H   0  0  0  0  0  0  0  0  0  0  0  0
  133.7928   76.2528  223.9297 H   0  0  0  0  0  0  0  0  0  0  0  0
  133.1087   71.6545  224.5427 H   0  0  0  0  0  0  0  0  0  0  0  0
  131.9694   70.4582  226.3734 H   0  0  0  0  0  0  0  0  0  0  0  0
  131.2263   71.7116  228.4118 H   0  0  0  0  0  0  0  0  0  0  0  0
  131.6953   74.1631  228.4915 H   0  0  0  0  0  0  0  0  0  0  0  0
  133.1943   72.6972  223.1286 H   0  0  0  0  0  0  0  0  0  0  0  0
  133.2602   74.2946  222.3655 H   0  0  0  0  0  0  0  0  0  0  0  0
  135.5220   72.5572  223.3936 H   0  0  0  0  0  0  0  0  0  0  0  0
  135.2490   73.2803  221.7282 H   0  0  0  0  0  0  0  0  0  0  0  0
  141.2669   76.9521  220.2463 H   0  0  0  0  0  0  0  0  0  0  0  0
  139.6897   77.5553  219.5372 H   0  0  0  0  0  0  0  0  0  0  0  0
  141.7599   79.1037  219.6039 H   0  0  0  0  0  0  0  0  0  0  0  0
  140.1194   79.7158  220.0421 H   0  0  0  0  0  0  0  0  0  0  0  0
  143.0837   80.5980  220.9044 H   0  0  0  0  0  0  0  0  0  0  0  0
  143.9148   81.2635  223.1434 H   0  0  0  0  0  0  0  0  0  0  0  0
  142.7466   80.4900  225.2037 H   0  0  0  0  0  0  0  0  0  0  0  0
  140.7333   79.0301  224.9710 H   0  0  0  0  0  0  0  0  0  0  0  0
  139.5440   77.5459  223.6339 H   0  0  0  0  0  0  0  0  0  0  0  0
  138.7175   78.7892  222.6316 H   0  0  0  0  0  0  0  0  0  0  0  0
  141.6611   72.0767  222.8146 H   0  0  0  0  0  0  0  0  0  0  0  0
  140.2214   73.1556  222.6014 H   0  0  0  0  0  0  0  0  0  0  0  0
  1  2  1  0
  2  3  2  0
  3  4  1  0
  4  5  2  0
  5  6  1  0
  6  7  1  0
  7  8  1  0
  8  9  1  0
  9 10  1  0
 10 11  1  0
 11 12  1  0
 12 13  1  0
 13 14  2  0
 14 15  1  0
 15 16  1  0
 16 17  1  0
 17 18  1  0
 18 19  1  0
 19 20  1  0
 20 21  2  0
 21 22  1  0
 22 23  2  0
 23 24  1  0
 24 25  2  0
 19 26  1  0
 26 27  1  0
 15 28  2  0
 28 29  1  0
 29 30  1  0
 30 31  1  0
 31 32  1  0
 32 33  1  0
 33 34  2  0
 34 35  1  0
 35 36  2  0
 36 37  1  0
 37 38  2  0
 38 39  1  0
 29 40  2  0
 11 41  1  0
  6 42  2  0
 42  2  1  0
 41  7  1  0
 40 13  1  0
 27 16  1  0
 39 30  1  0
 25 20  1  0
 38 33  1  0
  1 43  1  0
  1 44  1  0
  1 45  1  0
  3 46  1  0
  4 47  1  0
  8 48  1  0
  8 49  1  0
  9 50  1  0
  9 51  1  0
 10 52  1  0
 10 53  1  0
 11 54  1  6
 12 55  1  0
 17 56  1  0
 17 57  1  0
 18 58  1  0
 18 59  1  0
 21 60  1  0
 22 61  1  0
 23 62  1  0
 24 63  1  0
 26 64  1  0
 26 65  1  0
 27 66  1  0
 27 67  1  0
 31 68  1  0
 31 69  1  0
 32 70  1  0
 32 71  1  0
 34 72  1  0
 35 73  1  0
 36 74  1  0
 37 75  1  0
 39 76  1  0
 39 77  1  0
 41 78  1  0
 41 79  1  0
M  END
>  <smiles>  (93) 
Cc1ccnc(N2CCCC(Nc3nc(N4CCN(c5ccccn5)CC4)nc(N4CCc5ccccc5C4)n3)C2)n1

>  <score_type>  (93) 
oracle

>  <origin>  (93) 
autodockgpu

>  <m_score__min__energy>  (93) 
-10.06

>  <m_primary>  (93) 
energy

>  <rmsd>  (93) 
7.3607917313529985

>  <m_score__min__rmsd>  (93) 
7.3607917313529985

>  <meeko>  (93) 
{"free_energy": -9.24, "intermolecular_energy": -11.03, "internal_energy": -1.75, "cluster_size": 12, "cluster_id": 3, "rank_in_cluster": 10}

>  <energy>  (93) 
-9.34

>  <cluster_rmsd>  (93) 
1.69

>  <cluster>  (93) 
4

$$$$

     RDKit          3D

 79 85  0  0  1  0  0  0  0  0999 V2000
  141.4320   72.2060  227.7990 C   0  0  0  0  0  0  0  0  0  0  0  0
  140.6800   71.1390  227.0850 C   0  0  0  0  0  0  0  0  0  0  0  0
  140.3930   69.9780  227.7720 C   0  0  0  0  0  0  0  0  0  0  0  0
  139.6860   68.9800  227.0940 C   0  0  0  0  0  0  0  0  0  0  0  0
  139.3190   69.1970  225.8030 N   0  0  0  0  0  0  0  0  0  0  0  0
  139.6030   70.3280  225.1440 C   0  0  0  0  0  0  0  0  0  0  0  0
  139.1640   70.4390  223.7950 N   0  0  0  0  0  0  0  0  0  0  0  0
  137.8470   69.9330  223.4620 C   0  0  0  0  0  0  0  0  0  0  0  0
  137.9010   68.9300  222.3200 C   0  0  0  0  0  0  0  0  0  0  0  0
  139.1750   69.0290  221.5360 C   0  0  0  0  0  0  0  0  0  0  0  0
  139.6170   70.4640  221.3860 C   0  0  1  0  0  0  0  0  0  0  0  0
  138.6210   71.3210  220.8000 N   0  0  0  0  0  0  0  0  0  0  0  0
  138.1760   72.5240  221.4480 C   0  0  0  0  0  0  0  0  0  0  0  0
  138.8600   73.6800  221.3520 N   0  0  0  0  0  0  0  0  0  0  0  0
  138.4220   74.8040  221.9720 C   0  0  0  0  0  0  0  0  0  0  0  0
  139.1450   76.0380  221.8740 N   0  0  0  0  0  0  0  0  0  0  0  0
  140.4880   75.9730  221.3780 C   0  0  0  0  0  0  0  0  0  0  0  0
  141.0320   77.3130  220.9480 C   0  0  0  0  0  0  0  0  0  0  0  0
  140.4450   78.4080  221.6590 N   0  0  0  0  0  0  0  0  0  0  0  0
  141.1430   79.3930  222.3820 C   0  0  0  0  0  0  0  0  0  0  0  0
  141.1210   80.7320  222.0440 C   0  0  0  0  0  0  0  0  0  0  0  0
  141.8130   81.6900  222.7660 C   0  0  0  0  0  0  0  0  0  0  0  0
  142.5570   81.3220  223.8640 C   0  0  0  0  0  0  0  0  0  0  0  0
  142.5620   79.9730  224.1810 C   0  0  0  0  0  0  0  0  0  0  0  0
  141.8810   79.0650  223.4620 N   0  0  0  0  0  0  0  0  0  0  0  0
  138.9740   78.4940  221.6220 C   0  0  0  0  0  0  0  0  0  0  0  0
  138.4720   77.2510  222.2810 C   0  0  0  0  0  0  0  0  0  0  0  0
  137.2830   74.6860  222.6710 N   0  0  0  0  0  0  0  0  0  0  0  0
  136.5720   73.5510  222.7900 C   0  0  0  0  0  0  0  0  0  0  0  0
  135.3600   73.5280  223.5660 N   0  0  0  0  0  0  0  0  0  0  0  0
  134.8370   74.7990  223.9980 C   0  0  0  0  0  0  0  0  0  0  0  0
  133.5120   74.7100  224.6820 C   0  0  0  0  0  0  0  0  0  0  0  0
  133.4430   73.5000  225.5330 C   0  0  0  0  0  0  0  0  0  0  0  0
  132.7780   73.5160  226.7520 C   0  0  0  0  0  0  0  0  0  0  0  0
  132.7120   72.3760  227.5520 C   0  0  0  0  0  0  0  0  0  0  0  0
  133.3100   71.1970  227.1470 C   0  0  0  0  0  0  0  0  0  0  0  0
  133.9760   71.1790  225.9290 C   0  0  0  0  0  0  0  0  0  0  0  0
  134.0340   72.3290  225.1370 C   0  0  0  0  0  0  0  0  0  0  0  0
  134.7500   72.2530  223.8590 C   0  0  0  0  0  0  0  0  0  0  0  0
  137.0400   72.4600  222.1620 N   0  0  0  0  0  0  0  0  0  0  0  0
  139.9720   71.0290  222.7430 C   0  0  0  0  0  0  0  0  0  0  0  0
  140.2780   71.2850  225.7890 N   0  0  0  0  0  0  0  0  0  0  0  0
  141.3306   72.0622  228.8848 H   0  0  0  0  0  0  0  0  0  0  0  0
  142.4948   72.1549  227.5200 H   0  0  0  0  0  0  0  0  0  0  0  0
  141.0265   73.1898  227.5200 H   0  0  0  0  0  0  0  0  0  0  0  0
  140.7092   69.8418  228.8167 H   0  0  0  0  0  0  0  0  0  0  0  0
  139.4311   68.0354  227.5967 H   0  0  0  0  0  0  0  0  0  0  0  0
  137.4197   69.4412  224.3483 H   0  0  0  0  0  0  0  0  0  0  0  0
  137.2244   70.7819  223.1431 H   0  0  0  0  0  0  0  0  0  0  0  0
  137.8198   67.9151  222.7364 H   0  0  0  0  0  0  0  0  0  0  0  0
  137.0675   69.1519  221.6373 H   0  0  0  0  0  0  0  0  0  0  0  0
  139.9617   68.4646  222.0581 H   0  0  0  0  0  0  0  0  0  0  0  0
  138.9982   68.6137  220.5328 H   0  0  0  0  0  0  0  0  0  0  0  0
  140.4819   70.4428  220.7066 H   0  0  0  0  0  0  0  0  0  0  0  0
  138.1710   71.1040  219.8650 H   0  0  0  0  0  0  0  0  0  0  0  0
  141.1345   75.5727  222.1728 H   0  0  0  0  0  0  0  0  0  0  0  0
  140.4753   75.3263  220.4883 H   0  0  0  0  0  0  0  0  0  0  0  0
  142.1180   77.3232  221.1228 H   0  0  0  0  0  0  0  0  0  0  0  0
  140.7868   77.4420  219.8835 H   0  0  0  0  0  0  0  0  0  0  0  0
  140.5328   81.0488  221.1701 H   0  0  0  0  0  0  0  0  0  0  0  0
  141.7680   82.7461  222.4617 H   0  0  0  0  0  0  0  0  0  0  0  0
  143.1175   82.0590  224.4579 H   0  0  0  0  0  0  0  0  0  0  0  0
  143.1434   79.6340  225.0511 H   0  0  0  0  0  0  0  0  0  0  0  0
  138.6292   79.3832  222.1702 H   0  0  0  0  0  0  0  0  0  0  0  0
  138.6014   78.5818  220.5907 H   0  0  0  0  0  0  0  0  0  0  0  0
  138.5978   77.3646  223.3679 H   0  0  0  0  0  0  0  0  0  0  0  0
  137.4208   77.1405  221.9765 H   0  0  0  0  0  0  0  0  0  0  0  0
  135.5572   75.2500  224.6965 H   0  0  0  0  0  0  0  0  0  0  0  0
  134.6878   75.4060  223.0928 H   0  0  0  0  0  0  0  0  0  0  0  0
  133.3690   75.6018  225.3099 H   0  0  0  0  0  0  0  0  0  0  0  0
  132.7227   74.6509  223.9181 H   0  0  0  0  0  0  0  0  0  0  0  0
  132.2951   74.4439  227.0922 H   0  0  0  0  0  0  0  0  0  0  0  0
  132.1795   72.4149  228.5138 H   0  0  0  0  0  0  0  0  0  0  0  0
  133.2593   70.2951  227.7747 H   0  0  0  0  0  0  0  0  0  0  0  0
  134.4612   70.2536  225.5851 H   0  0  0  0  0  0  0  0  0  0  0  0
  135.5304   71.4804  223.9226 H   0  0  0  0  0  0  0  0  0  0  0  0
  134.0402   71.9965  223.0587 H   0  0  0  0  0  0  0  0  0  0  0  0
  141.0326   70.8229  222.9493 H   0  0  0  0  0  0  0  0  0  0  0  0
  139.7785   72.1117  222.7265 H   0  0  0  0  0  0  0  0  0  0  0  0
  1  2  1  0
  2  3  2  0
  3  4  1  0
  4  5  2  0
  5  6  1  0
  6  7  1  0
  7  8  1  0
  8  9  1  0
  9 10  1  0
 10 11  1  0
 11 12  1  0
 12 13  1  0
 13 14  2  0
 14 15  1  0
 15 16  1  0
 16 17  1  0
 17 18  1  0
 18 19  1  0
 19 20  1  0
 20 21  2  0
 21 22  1  0
 22 23  2  0
 23 24  1  0
 24 25  2  0
 19 26  1  0
 26 27  1  0
 15 28  2  0
 28 29  1  0
 29 30  1  0
 30 31  1  0
 31 32  1  0
 32 33  1  0
 33 34  2  0
 34 35  1  0
 35 36  2  0
 36 37  1  0
 37 38  2  0
 38 39  1  0
 29 40  2  0
 11 41  1  0
  6 42  2  0
 42  2  1  0
 41  7  1  0
 40 13  1  0
 27 16  1  0
 39 30  1  0
 25 20  1  0
 38 33  1  0
  1 43  1  0
  1 44  1  0
  1 45  1  0
  3 46  1  0
  4 47  1  0
  8 48  1  0
  8 49  1  0
  9 50  1  0
  9 51  1  0
 10 52  1  0
 10 53  1  0
 11 54  1  6
 12 55  1  0
 17 56  1  0
 17 57  1  0
 18 58  1  0
 18 59  1  0
 21 60  1  0
 22 61  1  0
 23 62  1  0
 24 63  1  0
 26 64  1  0
 26 65  1  0
 27 66  1  0
 27 67  1  0
 31 68  1  0
 31 69  1  0
 32 70  1  0
 32 71  1  0
 34 72  1  0
 35 73  1  0
 36 74  1  0
 37 75  1  0
 39 76  1  0
 39 77  1  0
 41 78  1  0
 41 79  1  0
M  END
>  <smiles>  (94) 
Cc1ccnc(N2CCCC(Nc3nc(N4CCN(c5ccccn5)CC4)nc(N4CCc5ccccc5C4)n3)C2)n1

>  <score_type>  (94) 
oracle

>  <origin>  (94) 
autodockgpu

>  <m_score__min__energy>  (94) 
-10.06

>  <m_primary>  (94) 
energy

>  <rmsd>  (94) 
8.143884212299188

>  <m_score__min__rmsd>  (94) 
8.143884212299188

>  <meeko>  (94) 
{"free_energy": -9.07, "intermolecular_energy": -10.86, "internal_energy": -1.93, "cluster_size": 18, "cluster_id": 4, "rank_in_cluster": 17}

>  <energy>  (94) 
-9.32

>  <cluster_rmsd>  (94) 
1.8

>  <cluster>  (94) 
4

$$$$

     RDKit          3D

 79 85  0  0  1  0  0  0  0  0999 V2000
  145.9250   66.7300  219.3290 C   0  0  0  0  0  0  0  0  0  0  0  0
  145.3900   68.1140  219.2240 C   0  0  0  0  0  0  0  0  0  0  0  0
  146.2930   69.1570  219.2000 C   0  0  0  0  0  0  0  0  0  0  0  0
  145.7820   70.4550  219.1010 C   0  0  0  0  0  0  0  0  0  0  0  0
  144.4350   70.6280  219.0350 N   0  0  0  0  0  0  0  0  0  0  0  0
  143.5660   69.6090  219.0600 C   0  0  0  0  0  0  0  0  0  0  0  0
  142.1790   69.9160  218.9840 N   0  0  0  0  0  0  0  0  0  0  0  0
  141.2300   68.8680  219.3080 C   0  0  0  0  0  0  0  0  0  0  0  0
  140.2300   68.6490  218.1830 C   0  0  0  0  0  0  0  0  0  0  0  0
  140.1710   69.8110  217.2390 C   0  0  0  0  0  0  0  0  0  0  0  0
  140.3000   71.1230  217.9740 C   0  0  1  0  0  0  0  0  0  0  0  0
  139.3290   71.3010  219.0210 N   0  0  0  0  0  0  0  0  0  0  0  0
  139.6510   71.9700  220.2500 C   0  0  0  0  0  0  0  0  0  0  0  0
  139.8610   73.3000  220.3040 N   0  0  0  0  0  0  0  0  0  0  0  0
  140.1630   73.9120  221.4760 C   0  0  0  0  0  0  0  0  0  0  0  0
  140.3890   75.3270  221.5400 N   0  0  0  0  0  0  0  0  0  0  0  0
  141.5000   75.8470  220.7990 C   0  0  0  0  0  0  0  0  0  0  0  0
  141.4400   77.3430  220.6050 C   0  0  0  0  0  0  0  0  0  0  0  0
  140.7340   78.0130  221.6540 N   0  0  0  0  0  0  0  0  0  0  0  0
  141.2330   79.0650  222.4460 C   0  0  0  0  0  0  0  0  0  0  0  0
  142.5820   79.2820  222.6450 C   0  0  0  0  0  0  0  0  0  0  0  0
  143.0560   80.3230  223.4270 C   0  0  0  0  0  0  0  0  0  0  0  0
  142.1740   81.1840  224.0390 C   0  0  0  0  0  0  0  0  0  0  0  0
  140.8270   80.9430  223.8220 C   0  0  0  0  0  0  0  0  0  0  0  0
  140.3940   79.9260  223.0580 N   0  0  0  0  0  0  0  0  0  0  0  0
  139.3610   77.5460  221.9160 C   0  0  0  0  0  0  0  0  0  0  0  0
  139.4860   76.1210  222.3430 C   0  0  0  0  0  0  0  0  0  0  0  0
  140.2350   73.1180  222.5550 N   0  0  0  0  0  0  0  0  0  0  0  0
  140.0310   71.7900  222.5410 C   0  0  0  0  0  0  0  0  0  0  0  0
  140.1320   71.0250  223.7570 N   0  0  0  0  0  0  0  0  0  0  0  0
  139.3250   69.8360  223.8500 C   0  0  0  0  0  0  0  0  0  0  0  0
  139.5770   69.0230  225.0770 C   0  0  0  0  0  0  0  0  0  0  0  0
  139.8220   69.9010  226.2440 C   0  0  0  0  0  0  0  0  0  0  0  0
  139.3610   69.5590  227.5090 C   0  0  0  0  0  0  0  0  0  0  0  0
  139.5930   70.3860  228.6070 C   0  0  0  0  0  0  0  0  0  0  0  0
  140.2910   71.5700  228.4630 C   0  0  0  0  0  0  0  0  0  0  0  0
  140.7520   71.9130  227.1990 C   0  0  0  0  0  0  0  0  0  0  0  0
  140.5130   71.0750  226.1060 C   0  0  0  0  0  0  0  0  0  0  0  0
  141.0230   71.4880  224.7940 C   0  0  0  0  0  0  0  0  0  0  0  0
  139.7350   71.2210  221.3610 N   0  0  0  0  0  0  0  0  0  0  0  0
  141.6750   71.2210  218.5970 C   0  0  0  0  0  0  0  0  0  0  0  0
  144.0510   68.3660  219.1540 N   0  0  0  0  0  0  0  0  0  0  0  0
  146.0305   66.4571  220.3894 H   0  0  0  0  0  0  0  0  0  0  0  0
  145.2323   66.0309  218.8376 H   0  0  0  0  0  0  0  0  0  0  0  0
  146.9078   66.6785  218.8376 H   0  0  0  0  0  0  0  0  0  0  0  0
  147.3762   68.9741  219.2567 H   0  0  0  0  0  0  0  0  0  0  0  0
  146.4588   71.3218  219.0769 H   0  0  0  0  0  0  0  0  0  0  0  0
  141.7793   67.9314  219.4844 H   0  0  0  0  0  0  0  0  0  0  0  0
  140.6744   69.1736  220.2068 H   0  0  0  0  0  0  0  0  0  0  0  0
  140.5225   67.7505  217.6199 H   0  0  0  0  0  0  0  0  0  0  0  0
  139.2344   68.5333  218.6362 H   0  0  0  0  0  0  0  0  0  0  0  0
  140.9930   69.7248  216.5131 H   0  0  0  0  0  0  0  0  0  0  0  0
  139.1968   69.7939  216.7284 H   0  0  0  0  0  0  0  0  0  0  0  0
  140.1286   71.9074  217.2222 H   0  0  0  0  0  0  0  0  0  0  0  0
  138.3340   70.9460  218.9320 H   0  0  0  0  0  0  0  0  0  0  0  0
  142.4260   75.6018  221.3398 H   0  0  0  0  0  0  0  0  0  0  0  0
  141.4696   75.3872  219.8002 H   0  0  0  0  0  0  0  0  0  0  0  0
  142.4677   77.7336  220.5684 H   0  0  0  0  0  0  0  0  0  0  0  0
  140.8962   77.5326  219.6678 H   0  0  0  0  0  0  0  0  0  0  0  0
  143.3051   78.6053  222.1664 H   0  0  0  0  0  0  0  0  0  0  0  0
  144.1393   80.4615  223.5589 H   0  0  0  0  0  0  0  0  0  0  0  0
  142.5198   82.0186  224.6666 H   0  0  0  0  0  0  0  0  0  0  0  0
  140.0864   81.6072  224.2914 H   0  0  0  0  0  0  0  0  0  0  0  0
  138.8992   78.1453  222.7145 H   0  0  0  0  0  0  0  0  0  0  0  0
  138.7244   77.6453  221.0244 H   0  0  0  0  0  0  0  0  0  0  0  0
  139.8470   76.1050  223.3819 H   0  0  0  0  0  0  0  0  0  0  0  0
  138.4886   75.6724  222.2247 H   0  0  0  0  0  0  0  0  0  0  0  0
  138.2666   70.1355  223.8454 H   0  0  0  0  0  0  0  0  0  0  0  0
  139.5912   69.2037  222.9901 H   0  0  0  0  0  0  0  0  0  0  0  0
  138.6994   68.3910  225.2782 H   0  0  0  0  0  0  0  0  0  0  0  0
  140.4668   68.3979  224.9111 H   0  0  0  0  0  0  0  0  0  0  0  0
  138.8039   68.6205  227.6465 H   0  0  0  0  0  0  0  0  0  0  0  0
  139.2166   70.0931  229.5982 H   0  0  0  0  0  0  0  0  0  0  0  0
  140.4766   72.2240  229.3277 H   0  0  0  0  0  0  0  0  0  0  0  0
  141.3092   72.8507  227.0567 H   0  0  0  0  0  0  0  0  0  0  0  0
  141.0887   72.5854  224.7563 H   0  0  0  0  0  0  0  0  0  0  0  0
  142.0208   71.0522  224.6378 H   0  0  0  0  0  0  0  0  0  0  0  0
  142.3663   71.6692  217.8682 H   0  0  0  0  0  0  0  0  0  0  0  0
  141.6003   71.8435  219.5008 H   0  0  0  0  0  0  0  0  0  0  0  0
  1  2  1  0
  2  3  2  0
  3  4  1  0
  4  5  2  0
  5  6  1  0
  6  7  1  0
  7  8  1  0
  8  9  1  0
  9 10  1  0
 10 11  1  0
 11 12  1  0
 12 13  1  0
 13 14  2  0
 14 15  1  0
 15 16  1  0
 16 17  1  0
 17 18  1  0
 18 19  1  0
 19 20  1  0
 20 21  2  0
 21 22  1  0
 22 23  2  0
 23 24  1  0
 24 25  2  0
 19 26  1  0
 26 27  1  0
 15 28  2  0
 28 29  1  0
 29 30  1  0
 30 31  1  0
 31 32  1  0
 32 33  1  0
 33 34  2  0
 34 35  1  0
 35 36  2  0
 36 37  1  0
 37 38  2  0
 38 39  1  0
 29 40  2  0
 11 41  1  0
  6 42  2  0
 42  2  1  0
 41  7  1  0
 40 13  1  0
 27 16  1  0
 39 30  1  0
 25 20  1  0
 38 33  1  0
  1 43  1  0
  1 44  1  0
  1 45  1  0
  3 46  1  0
  4 47  1  0
  8 48  1  0
  8 49  1  0
  9 50  1  0
  9 51  1  0
 10 52  1  0
 10 53  1  0
 11 54  1  6
 12 55  1  0
 17 56  1  0
 17 57  1  0
 18 58  1  0
 18 59  1  0
 21 60  1  0
 22 61  1  0
 23 62  1  0
 24 63  1  0
 26 64  1  0
 26 65  1  0
 27 66  1  0
 27 67  1  0
 31 68  1  0
 31 69  1  0
 32 70  1  0
 32 71  1  0
 34 72  1  0
 35 73  1  0
 36 74  1  0
 37 75  1  0
 39 76  1  0
 39 77  1  0
 41 78  1  0
 41 79  1  0
M  END
>  <smiles>  (95) 
Cc1ccnc(N2CCCC(Nc3nc(N4CCN(c5ccccn5)CC4)nc(N4CCc5ccccc5C4)n3)C2)n1

>  <score_type>  (95) 
oracle

>  <origin>  (95) 
autodockgpu

>  <m_score__min__energy>  (95) 
-10.06

>  <m_primary>  (95) 
energy

>  <rmsd>  (95) 
7.722960938169792

>  <m_score__min__rmsd>  (95) 
7.722960938169792

>  <meeko>  (95) 
{"free_energy": -10.06, "intermolecular_energy": -11.85, "internal_energy": -1.7, "cluster_size": 16, "cluster_id": 1, "rank_in_cluster": 1}

>  <energy>  (95) 
-9.32

>  <cluster_rmsd>  (95) 
1.92

>  <cluster>  (95) 
4

$$$$

     RDKit          3D

 79 85  0  0  1  0  0  0  0  0999 V2000
  141.0600   71.9350  227.9420 C   0  0  0  0  0  0  0  0  0  0  0  0
  140.4770   70.8500  227.1080 C   0  0  0  0  0  0  0  0  0  0  0  0
  140.3520   69.5960  227.6710 C   0  0  0  0  0  0  0  0  0  0  0  0
  139.8030   68.5810  226.8800 C   0  0  0  0  0  0  0  0  0  0  0  0
  139.4230   68.8730  225.6090 N   0  0  0  0  0  0  0  0  0  0  0  0
  139.5480   70.0930  225.0710 C   0  0  0  0  0  0  0  0  0  0  0  0
  139.1130   70.2760  223.7280 N   0  0  0  0  0  0  0  0  0  0  0  0
  137.8190   69.7420  223.3520 C   0  0  0  0  0  0  0  0  0  0  0  0
  137.9200   68.8200  222.1460 C   0  0  0  0  0  0  0  0  0  0  0  0
  139.1930   69.0210  221.3810 C   0  0  0  0  0  0  0  0  0  0  0  0
  139.5780   70.4790  221.3300 C   0  0  1  0  0  0  0  0  0  0  0  0
  138.5510   71.3330  220.7940 N   0  0  0  0  0  0  0  0  0  0  0  0
  138.1500   72.5450  221.4530 C   0  0  0  0  0  0  0  0  0  0  0  0
  138.8770   73.6760  221.3700 N   0  0  0  0  0  0  0  0  0  0  0  0
  138.4790   74.8100  222.0000 C   0  0  0  0  0  0  0  0  0  0  0  0
  139.2490   76.0160  221.9160 N   0  0  0  0  0  0  0  0  0  0  0  0
  140.6280   75.8900  221.5500 C   0  0  0  0  0  0  0  0  0  0  0  0
  141.2530   77.1930  221.1140 C   0  0  0  0  0  0  0  0  0  0  0  0
  140.6400   78.3350  221.7210 N   0  0  0  0  0  0  0  0  0  0  0  0
  141.3010   79.3320  222.4620 C   0  0  0  0  0  0  0  0  0  0  0  0
  142.6770   79.4050  222.5650 C   0  0  0  0  0  0  0  0  0  0  0  0
  143.3130   80.3940  223.2980 C   0  0  0  0  0  0  0  0  0  0  0  0
  142.5720   81.3480  223.9580 C   0  0  0  0  0  0  0  0  0  0  0  0
  141.1950   81.2510  223.8380 C   0  0  0  0  0  0  0  0  0  0  0  0
  140.6040   80.2820  223.1190 N   0  0  0  0  0  0  0  0  0  0  0  0
  139.1820   78.4620  221.5450 C   0  0  0  0  0  0  0  0  0  0  0  0
  138.5820   77.2660  222.2070 C   0  0  0  0  0  0  0  0  0  0  0  0
  137.3340   74.7280  222.6950 N   0  0  0  0  0  0  0  0  0  0  0  0
  136.5820   73.6190  222.8000 C   0  0  0  0  0  0  0  0  0  0  0  0
  135.3670   73.6340  223.5720 N   0  0  0  0  0  0  0  0  0  0  0  0
  134.9720   74.8950  224.1450 C   0  0  0  0  0  0  0  0  0  0  0  0
  133.6400   74.8670  224.8190 C   0  0  0  0  0  0  0  0  0  0  0  0
  133.4410   73.5830  225.5300 C   0  0  0  0  0  0  0  0  0  0  0  0
  132.7700   73.5310  226.7460 C   0  0  0  0  0  0  0  0  0  0  0  0
  132.5820   72.3220  227.4140 C   0  0  0  0  0  0  0  0  0  0  0  0
  133.0610   71.1410  226.8790 C   0  0  0  0  0  0  0  0  0  0  0  0
  133.7310   71.1900  225.6640 C   0  0  0  0  0  0  0  0  0  0  0  0
  133.9120   72.4100  225.0040 C   0  0  0  0  0  0  0  0  0  0  0  0
  134.6280   72.4030  223.7240 C   0  0  0  0  0  0  0  0  0  0  0  0
  137.0100   72.5170  222.1630 N   0  0  0  0  0  0  0  0  0  0  0  0
  139.9030   70.9660  222.7240 C   0  0  0  0  0  0  0  0  0  0  0  0
  140.0720   71.0660  225.8240 N   0  0  0  0  0  0  0  0  0  0  0  0
  140.9285   71.6902  229.0063 H   0  0  0  0  0  0  0  0  0  0  0  0
  142.1325   72.0334  227.7182 H   0  0  0  0  0  0  0  0  0  0  0  0
  140.5501   72.8837  227.7182 H   0  0  0  0  0  0  0  0  0  0  0  0
  140.6727   69.4015  228.7051 H   0  0  0  0  0  0  0  0  0  0  0  0
  139.6811   67.5638  227.2805 H   0  0  0  0  0  0  0  0  0  0  0  0
  137.4068   69.1757  224.2002 H   0  0  0  0  0  0  0  0  0  0  0  0
  137.1643   70.5848  223.0856 H   0  0  0  0  0  0  0  0  0  0  0  0
  137.8771   67.7772  222.4934 H   0  0  0  0  0  0  0  0  0  0  0  0
  137.0823   69.0541  221.4726 H   0  0  0  0  0  0  0  0  0  0  0  0
  139.9987   68.4546  221.8710 H   0  0  0  0  0  0  0  0  0  0  0  0
  139.0386   68.6666  220.3512 H   0  0  0  0  0  0  0  0  0  0  0  0
  140.4467   70.5376  220.6577 H   0  0  0  0  0  0  0  0  0  0  0  0
  138.0460   71.1070  219.8900 H   0  0  0  0  0  0  0  0  0  0  0  0
  141.1859   75.5087  222.4180 H   0  0  0  0  0  0  0  0  0  0  0  0
  140.6752   75.2035  220.6918 H   0  0  0  0  0  0  0  0  0  0  0  0
  142.3185   77.1799  221.3870 H   0  0  0  0  0  0  0  0  0  0  0  0
  141.1101   77.2803  220.0268 H   0  0  0  0  0  0  0  0  0  0  0  0
  143.2888   78.6517  222.0470 H   0  0  0  0  0  0  0  0  0  0  0  0
  144.4114   80.4168  223.3526 H   0  0  0  0  0  0  0  0  0  0  0  0
  143.0475   82.1446  224.5490 H   0  0  0  0  0  0  0  0  0  0  0  0
  140.5639   81.9930  224.3490 H   0  0  0  0  0  0  0  0  0  0  0  0
  138.8185   79.3848  222.0208 H   0  0  0  0  0  0  0  0  0  0  0  0
  138.9076   78.5137  220.4810 H   0  0  0  0  0  0  0  0  0  0  0  0
  138.6122   77.4253  223.2950 H   0  0  0  0  0  0  0  0  0  0  0  0
  137.5598   77.1721  221.8116 H   0  0  0  0  0  0  0  0  0  0  0  0
  135.7287   75.1895  224.8871 H   0  0  0  0  0  0  0  0  0  0  0  0
  134.8920   75.6105  223.3133 H   0  0  0  0  0  0  0  0  0  0  0  0
  133.5840   75.6933  225.5429 H   0  0  0  0  0  0  0  0  0  0  0  0
  132.8548   74.9747  224.0562 H   0  0  0  0  0  0  0  0  0  0  0  0
  132.3807   74.4596  227.1888 H   0  0  0  0  0  0  0  0  0  0  0  0
  132.0477   72.3077  228.3754 H   0  0  0  0  0  0  0  0  0  0  0  0
  132.9149   70.1851  227.4033 H   0  0  0  0  0  0  0  0  0  0  0  0
  134.1219   70.2638  225.2176 H   0  0  0  0  0  0  0  0  0  0  0  0
  135.3254   71.5527  223.7000 H   0  0  0  0  0  0  0  0  0  0  0  0
  133.9030   72.3100  222.9020 H   0  0  0  0  0  0  0  0  0  0  0  0
  140.9698   70.7882  222.9248 H   0  0  0  0  0  0  0  0  0  0  0  0
  139.6671   72.0391  222.7777 H   0  0  0  0  0  0  0  0  0  0  0  0
  1  2  1  0
  2  3  2  0
  3  4  1  0
  4  5  2  0
  5  6  1  0
  6  7  1  0
  7  8  1  0
  8  9  1  0
  9 10  1  0
 10 11  1  0
 11 12  1  0
 12 13  1  0
 13 14  2  0
 14 15  1  0
 15 16  1  0
 16 17  1  0
 17 18  1  0
 18 19  1  0
 19 20  1  0
 20 21  2  0
 21 22  1  0
 22 23  2  0
 23 24  1  0
 24 25  2  0
 19 26  1  0
 26 27  1  0
 15 28  2  0
 28 29  1  0
 29 30  1  0
 30 31  1  0
 31 32  1  0
 32 33  1  0
 33 34  2  0
 34 35  1  0
 35 36  2  0
 36 37  1  0
 37 38  2  0
 38 39  1  0
 29 40  2  0
 11 41  1  0
  6 42  2  0
 42  2  1  0
 41  7  1  0
 40 13  1  0
 27 16  1  0
 39 30  1  0
 25 20  1  0
 38 33  1  0
  1 43  1  0
  1 44  1  0
  1 45  1  0
  3 46  1  0
  4 47  1  0
  8 48  1  0
  8 49  1  0
  9 50  1  0
  9 51  1  0
 10 52  1  0
 10 53  1  0
 11 54  1  6
 12 55  1  0
 17 56  1  0
 17 57  1  0
 18 58  1  0
 18 59  1  0
 21 60  1  0
 22 61  1  0
 23 62  1  0
 24 63  1  0
 26 64  1  0
 26 65  1  0
 27 66  1  0
 27 67  1  0
 31 68  1  0
 31 69  1  0
 32 70  1  0
 32 71  1  0
 34 72  1  0
 35 73  1  0
 36 74  1  0
 37 75  1  0
 39 76  1  0
 39 77  1  0
 41 78  1  0
 41 79  1  0
M  END
>  <smiles>  (96) 
Cc1ccnc(N2CCCC(Nc3nc(N4CCN(c5ccccn5)CC4)nc(N4CCc5ccccc5C4)n3)C2)n1

>  <score_type>  (96) 
oracle

>  <origin>  (96) 
autodockgpu

>  <m_score__min__energy>  (96) 
-10.06

>  <m_primary>  (96) 
energy

>  <rmsd>  (96) 
8.014497072721348

>  <m_score__min__rmsd>  (96) 
8.014497072721348

>  <meeko>  (96) 
{"free_energy": -9.34, "intermolecular_energy": -11.13, "internal_energy": -1.91, "cluster_size": 18, "cluster_id": 4, "rank_in_cluster": 14}

>  <energy>  (96) 
-9.07

>  <cluster_rmsd>  (96) 
1.72

>  <cluster>  (96) 
4

$$$$

     RDKit          3D

 79 85  0  0  1  0  0  0  0  0999 V2000
  132.8360   73.8760  226.8750 C   0  0  0  0  0  0  0  0  0  0  0  0
  133.6190   72.8620  226.1190 C   0  0  0  0  0  0  0  0  0  0  0  0
  133.8840   71.6570  226.7350 C   0  0  0  0  0  0  0  0  0  0  0  0
  134.6220   70.7090  226.0180 C   0  0  0  0  0  0  0  0  0  0  0  0
  135.0390   71.0160  224.7620 N   0  0  0  0  0  0  0  0  0  0  0  0
  134.7770   72.1890  224.1710 C   0  0  0  0  0  0  0  0  0  0  0  0
  135.2680   72.3930  222.8520 N   0  0  0  0  0  0  0  0  0  0  0  0
  135.5450   73.7530  222.4300 C   0  0  0  0  0  0  0  0  0  0  0  0
  134.8100   74.1050  221.1460 C   0  0  0  0  0  0  0  0  0  0  0  0
  134.3510   72.8870  220.4010 C   0  0  0  0  0  0  0  0  0  0  0  0
  135.3720   71.7780  220.4810 C   0  0  1  0  0  0  0  0  0  0  0  0
  136.6820   72.1590  220.0250 N   0  0  0  0  0  0  0  0  0  0  0  0
  137.7100   72.5830  220.9350 C   0  0  0  0  0  0  0  0  0  0  0  0
  138.2320   73.8240  220.8920 N   0  0  0  0  0  0  0  0  0  0  0  0
  139.2010   74.2050  221.7610 C   0  0  0  0  0  0  0  0  0  0  0  0
  139.7620   75.5240  221.7210 N   0  0  0  0  0  0  0  0  0  0  0  0
  141.0840   75.6580  221.1870 C   0  0  0  0  0  0  0  0  0  0  0  0
  141.4420   77.0790  220.8260 C   0  0  0  0  0  0  0  0  0  0  0  0
  140.7480   78.0470  221.6190 N   0  0  0  0  0  0  0  0  0  0  0  0
  141.3420   79.0700  222.3830 C   0  0  0  0  0  0  0  0  0  0  0  0
  140.6090   80.0100  223.0810 C   0  0  0  0  0  0  0  0  0  0  0  0
  141.2090   81.0090  223.8290 C   0  0  0  0  0  0  0  0  0  0  0  0
  142.5810   81.0920  223.8950 C   0  0  0  0  0  0  0  0  0  0  0  0
  143.2920   80.1360  223.1850 C   0  0  0  0  0  0  0  0  0  0  0  0
  142.6830   79.1770  222.4680 N   0  0  0  0  0  0  0  0  0  0  0  0
  139.2770   77.9480  221.6270 C   0  0  0  0  0  0  0  0  0  0  0  0
  138.9570   76.6160  222.2200 C   0  0  0  0  0  0  0  0  0  0  0  0
  139.5950   73.2780  222.6480 N   0  0  0  0  0  0  0  0  0  0  0  0
  139.0990   72.0310  222.7220 C   0  0  0  0  0  0  0  0  0  0  0  0
  139.5900   71.1090  223.7130 N   0  0  0  0  0  0  0  0  0  0  0  0
  138.9160   69.8400  223.8150 C   0  0  0  0  0  0  0  0  0  0  0  0
  139.5580   68.8850  224.7670 C   0  0  0  0  0  0  0  0  0  0  0  0
  140.0730   69.6000  225.9570 C   0  0  0  0  0  0  0  0  0  0  0  0
  140.0150   69.0270  227.2210 C   0  0  0  0  0  0  0  0  0  0  0  0
  140.5010   69.7010  228.3400 C   0  0  0  0  0  0  0  0  0  0  0  0
  141.0550   70.9610  228.2180 C   0  0  0  0  0  0  0  0  0  0  0  0
  141.1140   71.5360  226.9550 C   0  0  0  0  0  0  0  0  0  0  0  0
  140.6230   70.8490  225.8410 C   0  0  0  0  0  0  0  0  0  0  0  0
  140.7100   71.5050  224.5320 C   0  0  0  0  0  0  0  0  0  0  0  0
  138.1400   71.6930  221.8430 N   0  0  0  0  0  0  0  0  0  0  0  0
  135.4980   71.3100  221.9130 C   0  0  0  0  0  0  0  0  0  0  0  0
  134.0720   73.0970  224.8530 N   0  0  0  0  0  0  0  0  0  0  0  0
  132.9651   73.7088  227.9545 H   0  0  0  0  0  0  0  0  0  0  0  0
  133.1928   74.8835  226.6148 H   0  0  0  0  0  0  0  0  0  0  0  0
  131.7711   73.7856  226.6148 H   0  0  0  0  0  0  0  0  0  0  0  0
  133.5276   71.4484  227.7545 H   0  0  0  0  0  0  0  0  0  0  0  0
  134.8605   69.7320  226.4635 H   0  0  0  0  0  0  0  0  0  0  0  0
  135.2264   74.4444  223.2240 H   0  0  0  0  0  0  0  0  0  0  0  0
  136.6252   73.8399  222.2412 H   0  0  0  0  0  0  0  0  0  0  0  0
  133.9318   74.7177  221.3977 H   0  0  0  0  0  0  0  0  0  0  0  0
  135.5092   74.6528  220.4972 H   0  0  0  0  0  0  0  0  0  0  0  0
  133.4048   72.5351  220.8379 H   0  0  0  0  0  0  0  0  0  0  0  0
  134.2145   73.1577  219.3436 H   0  0  0  0  0  0  0  0  0  0  0  0
  135.0057   70.9825  219.8155 H   0  0  0  0  0  0  0  0  0  0  0  0
  136.9480   72.1450  218.9990 H   0  0  0  0  0  0  0  0  0  0  0  0
  141.8020   75.2974  221.9383 H   0  0  0  0  0  0  0  0  0  0  0  0
  141.1217   75.0674  220.2597 H   0  0  0  0  0  0  0  0  0  0  0  0
  142.5236   77.2163  220.9718 H   0  0  0  0  0  0  0  0  0  0  0  0
  141.1466   77.2377  219.7784 H   0  0  0  0  0  0  0  0  0  0  0  0
  139.5107   79.9634  223.0413 H   0  0  0  0  0  0  0  0  0  0  0  0
  140.5880   81.7373  224.3712 H   0  0  0  0  0  0  0  0  0  0  0  0
  143.0867   81.8746  224.4796 H   0  0  0  0  0  0  0  0  0  0  0  0
  144.3914   80.1640  223.2098 H   0  0  0  0  0  0  0  0  0  0  0  0
  138.8432   78.7528  222.2387 H   0  0  0  0  0  0  0  0  0  0  0  0
  138.8611   78.0480  220.6136 H   0  0  0  0  0  0  0  0  0  0  0  0
  139.1043   76.6810  223.3082 H   0  0  0  0  0  0  0  0  0  0  0  0
  137.9181   76.3911  221.9368 H   0  0  0  0  0  0  0  0  0  0  0  0
  137.8846   70.0224  224.1511 H   0  0  0  0  0  0  0  0  0  0  0  0
  138.9615   69.3750  222.8192 H   0  0  0  0  0  0  0  0  0  0  0  0
  138.8150   68.1396  225.0869 H   0  0  0  0  0  0  0  0  0  0  0  0
  140.3995   68.3910  224.2592 H   0  0  0  0  0  0  0  0  0  0  0  0
  139.5782   68.0246  227.3408 H   0  0  0  0  0  0  0  0  0  0  0  0
  140.4430   69.2252  229.3301 H   0  0  0  0  0  0  0  0  0  0  0  0
  141.4397   71.4954  229.0992 H   0  0  0  0  0  0  0  0  0  0  0  0
  141.5498   72.5383  226.8306 H   0  0  0  0  0  0  0  0  0  0  0  0
  140.6951   72.5964  224.6685 H   0  0  0  0  0  0  0  0  0  0  0  0
  141.6460   71.2068  224.0371 H   0  0  0  0  0  0  0  0  0  0  0  0
  134.7585   70.5164  222.0954 H   0  0  0  0  0  0  0  0  0  0  0  0
  136.5214   70.9359  222.0636 H   0  0  0  0  0  0  0  0  0  0  0  0
  1  2  1  0
  2  3  2  0
  3  4  1  0
  4  5  2  0
  5  6  1  0
  6  7  1  0
  7  8  1  0
  8  9  1  0
  9 10  1  0
 10 11  1  0
 11 12  1  0
 12 13  1  0
 13 14  2  0
 14 15  1  0
 15 16  1  0
 16 17  1  0
 17 18  1  0
 18 19  1  0
 19 20  1  0
 20 21  2  0
 21 22  1  0
 22 23  2  0
 23 24  1  0
 24 25  2  0
 19 26  1  0
 26 27  1  0
 15 28  2  0
 28 29  1  0
 29 30  1  0
 30 31  1  0
 31 32  1  0
 32 33  1  0
 33 34  2  0
 34 35  1  0
 35 36  2  0
 36 37  1  0
 37 38  2  0
 38 39  1  0
 29 40  2  0
 11 41  1  0
  6 42  2  0
 42  2  1  0
 41  7  1  0
 40 13  1  0
 27 16  1  0
 39 30  1  0
 25 20  1  0
 38 33  1  0
  1 43  1  0
  1 44  1  0
  1 45  1  0
  3 46  1  0
  4 47  1  0
  8 48  1  0
  8 49  1  0
  9 50  1  0
  9 51  1  0
 10 52  1  0
 10 53  1  0
 11 54  1  6
 12 55  1  0
 17 56  1  0
 17 57  1  0
 18 58  1  0
 18 59  1  0
 21 60  1  0
 22 61  1  0
 23 62  1  0
 24 63  1  0
 26 64  1  0
 26 65  1  0
 27 66  1  0
 27 67  1  0
 31 68  1  0
 31 69  1  0
 32 70  1  0
 32 71  1  0
 34 72  1  0
 35 73  1  0
 36 74  1  0
 37 75  1  0
 39 76  1  0
 39 77  1  0
 41 78  1  0
 41 79  1  0
M  END
>  <smiles>  (97) 
Cc1ccnc(N2CCCC(Nc3nc(N4CCN(c5ccccn5)CC4)nc(N4CCc5ccccc5C4)n3)C2)n1

>  <score_type>  (97) 
oracle

>  <origin>  (97) 
autodockgpu

>  <m_score__min__energy>  (97) 
-10.06

>  <m_primary>  (97) 
energy

>  <rmsd>  (97) 
7.824842320082185

>  <m_score__min__rmsd>  (97) 
7.824842320082185

>  <meeko>  (97) 
{"free_energy": -9.73, "intermolecular_energy": -11.52, "internal_energy": -1.59, "cluster_size": 18, "cluster_id": 4, "rank_in_cluster": 4}

>  <energy>  (97) 
-9.06

>  <cluster_rmsd>  (97) 
1.77

>  <cluster>  (97) 
4

$$$$

     RDKit          3D

 79 85  0  0  1  0  0  0  0  0999 V2000
  141.4210   71.8830  226.9140 C   0  0  0  0  0  0  0  0  0  0  0  0
  140.5410   70.8870  226.2460 C   0  0  0  0  0  0  0  0  0  0  0  0
  140.6600   69.5640  226.6200 C   0  0  0  0  0  0  0  0  0  0  0  0
  139.8300   68.6330  225.9870 C   0  0  0  0  0  0  0  0  0  0  0  0
  138.9550   69.0690  225.0420 N   0  0  0  0  0  0  0  0  0  0  0  0
  138.8480   70.3560  224.6840 C   0  0  0  0  0  0  0  0  0  0  0  0
  137.8950   70.6900  223.6830 N   0  0  0  0  0  0  0  0  0  0  0  0
  136.4980   70.4100  223.9500 C   0  0  0  0  0  0  0  0  0  0  0  0
  135.8750   69.5570  222.8550 C   0  0  0  0  0  0  0  0  0  0  0  0
  136.6780   69.5810  221.5900 C   0  0  0  0  0  0  0  0  0  0  0  0
  137.2540   70.9520  221.3310 C   0  0  1  0  0  0  0  0  0  0  0  0
  136.2690   72.0000  221.2980 N   0  0  0  0  0  0  0  0  0  0  0  0
  136.3630   73.1580  222.1440 C   0  0  0  0  0  0  0  0  0  0  0  0
  137.2330   74.1550  221.8930 N   0  0  0  0  0  0  0  0  0  0  0  0
  137.3050   75.2400  222.7040 C   0  0  0  0  0  0  0  0  0  0  0  0
  138.2300   76.3040  222.4430 N   0  0  0  0  0  0  0  0  0  0  0  0
  139.5680   75.9370  222.0870 C   0  0  0  0  0  0  0  0  0  0  0  0
  140.3530   77.0660  221.4650 C   0  0  0  0  0  0  0  0  0  0  0  0
  139.9190   78.3560  221.9090 N   0  0  0  0  0  0  0  0  0  0  0  0
  140.7310   79.3450  222.4950 C   0  0  0  0  0  0  0  0  0  0  0  0
  141.7740   79.0520  223.3510 C   0  0  0  0  0  0  0  0  0  0  0  0
  142.5640   80.0370  223.9190 C   0  0  0  0  0  0  0  0  0  0  0  0
  142.3240   81.3630  223.6390 C   0  0  0  0  0  0  0  0  0  0  0  0
  141.2710   81.6290  222.7760 C   0  0  0  0  0  0  0  0  0  0  0  0
  140.5200   80.6530  222.2390 N   0  0  0  0  0  0  0  0  0  0  0  0
  138.4880   78.6590  221.7280 C   0  0  0  0  0  0  0  0  0  0  0  0
  137.7480   77.6630  222.5590 C   0  0  0  0  0  0  0  0  0  0  0  0
  136.4650   75.2510  223.7500 N   0  0  0  0  0  0  0  0  0  0  0  0
  135.5830   74.2770  224.0330 C   0  0  0  0  0  0  0  0  0  0  0  0
  134.7240   74.3830  225.1830 N   0  0  0  0  0  0  0  0  0  0  0  0
  133.6830   73.3960  225.3150 C   0  0  0  0  0  0  0  0  0  0  0  0
  132.9170   73.4860  226.5930 C   0  0  0  0  0  0  0  0  0  0  0  0
  132.7120   74.9010  226.9810 C   0  0  0  0  0  0  0  0  0  0  0  0
  131.5330   75.3180  227.5850 C   0  0  0  0  0  0  0  0  0  0  0  0
  131.3430   76.6490  227.9510 C   0  0  0  0  0  0  0  0  0  0  0  0
  132.3290   77.5900  227.7210 C   0  0  0  0  0  0  0  0  0  0  0  0
  133.5080   77.1760  227.1180 C   0  0  0  0  0  0  0  0  0  0  0  0
  133.6870   75.8370  226.7560 C   0  0  0  0  0  0  0  0  0  0  0  0
  134.9530   75.4560  226.1210 C   0  0  0  0  0  0  0  0  0  0  0  0
  135.5430   73.2190  223.2060 N   0  0  0  0  0  0  0  0  0  0  0  0
  138.2560   71.2920  222.4120 C   0  0  0  0  0  0  0  0  0  0  0  0
  139.6390   71.2480  225.2880 N   0  0  0  0  0  0  0  0  0  0  0  0
  141.3296   71.7795  228.0053 H   0  0  0  0  0  0  0  0  0  0  0  0
  142.4652   71.7083  226.6153 H   0  0  0  0  0  0  0  0  0  0  0  0
  141.1190   72.8977  226.6153 H   0  0  0  0  0  0  0  0  0  0  0  0
  141.3823   69.2525  227.3890 H   0  0  0  0  0  0  0  0  0  0  0  0
  139.8842   67.5661  226.2493 H   0  0  0  0  0  0  0  0  0  0  0  0
  136.4186   69.8744  224.9075 H   0  0  0  0  0  0  0  0  0  0  0  0
  135.9578   71.3675  223.9875 H   0  0  0  0  0  0  0  0  0  0  0  0
  135.8068   68.5185  223.2112 H   0  0  0  0  0  0  0  0  0  0  0  0
  134.8807   69.9706  222.6306 H   0  0  0  0  0  0  0  0  0  0  0  0
  137.5015   68.8567  221.6747 H   0  0  0  0  0  0  0  0  0  0  0  0
  136.0141   69.3199  220.7527 H   0  0  0  0  0  0  0  0  0  0  0  0
  137.7196   70.9002  220.3357 H   0  0  0  0  0  0  0  0  0  0  0  0
  135.4310   71.9650  220.6510 H   0  0  0  0  0  0  0  0  0  0  0  0
  140.0925   75.6066  222.9957 H   0  0  0  0  0  0  0  0  0  0  0  0
  139.4966   75.1376  221.3347 H   0  0  0  0  0  0  0  0  0  0  0  0
  141.4139   76.9427  221.7281 H   0  0  0  0  0  0  0  0  0  0  0  0
  140.1933   77.0198  220.3776 H   0  0  0  0  0  0  0  0  0  0  0  0
  141.9847   77.9992  223.5900 H   0  0  0  0  0  0  0  0  0  0  0  0
  143.3855   79.7591  224.5957 H   0  0  0  0  0  0  0  0  0  0  0  0
  142.9338   82.1677  224.0756 H   0  0  0  0  0  0  0  0  0  0  0  0
  141.0431   82.6749  222.5227 H   0  0  0  0  0  0  0  0  0  0  0  0
  138.2675   79.6810  222.0698 H   0  0  0  0  0  0  0  0  0  0  0  0
  138.1941   78.5985  220.6697 H   0  0  0  0  0  0  0  0  0  0  0  0
  137.8300   77.9672  223.6129 H   0  0  0  0  0  0  0  0  0  0  0  0
  136.7117   77.6584  222.1902 H   0  0  0  0  0  0  0  0  0  0  0  0
  132.9783   73.5233  224.4801 H   0  0  0  0  0  0  0  0  0  0  0  0
  134.1755   72.4124  225.3087 H   0  0  0  0  0  0  0  0  0  0  0  0
  131.9380   73.0018  226.4623 H   0  0  0  0  0  0  0  0  0  0  0  0
  133.4893   72.9810  227.3851 H   0  0  0  0  0  0  0  0  0  0  0  0
  130.7357   74.5851  227.7777 H   0  0  0  0  0  0  0  0  0  0  0  0
  130.3995   76.9537  228.4274 H   0  0  0  0  0  0  0  0  0  0  0  0
  132.1825   78.6415  228.0090 H   0  0  0  0  0  0  0  0  0  0  0  0
  134.3075   77.9060  226.9233 H   0  0  0  0  0  0  0  0  0  0  0  0
  135.3708   76.3235  225.5891 H   0  0  0  0  0  0  0  0  0  0  0  0
  135.6607   75.1197  226.8930 H   0  0  0  0  0  0  0  0  0  0  0  0
  139.2467   70.9215  222.1099 H   0  0  0  0  0  0  0  0  0  0  0  0
  138.2676   72.3845  222.5394 H   0  0  0  0  0  0  0  0  0  0  0  0
  1  2  1  0
  2  3  2  0
  3  4  1  0
  4  5  2  0
  5  6  1  0
  6  7  1  0
  7  8  1  0
  8  9  1  0
  9 10  1  0
 10 11  1  0
 11 12  1  0
 12 13  1  0
 13 14  2  0
 14 15  1  0
 15 16  1  0
 16 17  1  0
 17 18  1  0
 18 19  1  0
 19 20  1  0
 20 21  2  0
 21 22  1  0
 22 23  2  0
 23 24  1  0
 24 25  2  0
 19 26  1  0
 26 27  1  0
 15 28  2  0
 28 29  1  0
 29 30  1  0
 30 31  1  0
 31 32  1  0
 32 33  1  0
 33 34  2  0
 34 35  1  0
 35 36  2  0
 36 37  1  0
 37 38  2  0
 38 39  1  0
 29 40  2  0
 11 41  1  0
  6 42  2  0
 42  2  1  0
 41  7  1  0
 40 13  1  0
 27 16  1  0
 39 30  1  0
 25 20  1  0
 38 33  1  0
  1 43  1  0
  1 44  1  0
  1 45  1  0
  3 46  1  0
  4 47  1  0
  8 48  1  0
  8 49  1  0
  9 50  1  0
  9 51  1  0
 10 52  1  0
 10 53  1  0
 11 54  1  6
 12 55  1  0
 17 56  1  0
 17 57  1  0
 18 58  1  0
 18 59  1  0
 21 60  1  0
 22 61  1  0
 23 62  1  0
 24 63  1  0
 26 64  1  0
 26 65  1  0
 27 66  1  0
 27 67  1  0
 31 68  1  0
 31 69  1  0
 32 70  1  0
 32 71  1  0
 34 72  1  0
 35 73  1  0
 36 74  1  0
 37 75  1  0
 39 76  1  0
 39 77  1  0
 41 78  1  0
 41 79  1  0
M  END
>  <smiles>  (98) 
Cc1ccnc(N2CCCC(Nc3nc(N4CCN(c5ccccn5)CC4)nc(N4CCc5ccccc5C4)n3)C2)n1

>  <score_type>  (98) 
oracle

>  <origin>  (98) 
autodockgpu

>  <m_score__min__energy>  (98) 
-10.06

>  <m_primary>  (98) 
energy

>  <rmsd>  (98) 
8.012711011483397

>  <m_score__min__rmsd>  (98) 
8.012711011483397

>  <meeko>  (98) 
{"free_energy": -9.15, "intermolecular_energy": -10.94, "internal_energy": -1.82, "cluster_size": 12, "cluster_id": 3, "rank_in_cluster": 12}

>  <energy>  (98) 
-9.24

>  <cluster_rmsd>  (98) 
0.0

>  <cluster>  (98) 
5

$$$$

     RDKit          3D

 79 85  0  0  1  0  0  0  0  0999 V2000
  133.3700   66.5580  224.2200 C   0  0  0  0  0  0  0  0  0  0  0  0
  133.9400   67.8310  224.7380 C   0  0  0  0  0  0  0  0  0  0  0  0
  133.5070   68.2810  225.9670 C   0  0  0  0  0  0  0  0  0  0  0  0
  134.0470   69.4790  226.4470 C   0  0  0  0  0  0  0  0  0  0  0  0
  134.9630   70.1370  225.6880 N   0  0  0  0  0  0  0  0  0  0  0  0
  135.3760   69.6920  224.4940 C   0  0  0  0  0  0  0  0  0  0  0  0
  136.3400   70.4690  223.7920 N   0  0  0  0  0  0  0  0  0  0  0  0
  135.8890   71.2520  222.6590 C   0  0  0  0  0  0  0  0  0  0  0  0
  136.6890   70.9370  221.4030 C   0  0  0  0  0  0  0  0  0  0  0  0
  137.9900   70.2590  221.7130 C   0  0  0  0  0  0  0  0  0  0  0  0
  138.6190   70.8240  222.9630 C   0  0  1  0  0  0  0  0  0  0  0  0
  138.8140   72.2500  222.9240 N   0  0  0  0  0  0  0  0  0  0  0  0
  139.8730   72.8510  222.1630 C   0  0  0  0  0  0  0  0  0  0  0  0
  140.7740   72.1120  221.4870 N   0  0  0  0  0  0  0  0  0  0  0  0
  141.7660   72.7000  220.7740 C   0  0  0  0  0  0  0  0  0  0  0  0
  142.7280   71.9190  220.0530 N   0  0  0  0  0  0  0  0  0  0  0  0
  142.3140   71.3640  218.7990 C   0  0  0  0  0  0  0  0  0  0  0  0
  143.4660   70.8980  217.9410 C   0  0  0  0  0  0  0  0  0  0  0  0
  144.6050   70.4980  218.7090 N   0  0  0  0  0  0  0  0  0  0  0  0
  145.2540   69.2500  218.6360 C   0  0  0  0  0  0  0  0  0  0  0  0
  145.6160   68.6590  217.4410 C   0  0  0  0  0  0  0  0  0  0  0  0
  146.2550   67.4320  217.3870 C   0  0  0  0  0  0  0  0  0  0  0  0
  146.5500   66.7540  218.5480 C   0  0  0  0  0  0  0  0  0  0  0  0
  146.1750   67.3700  219.7320 C   0  0  0  0  0  0  0  0  0  0  0  0
  145.5570   68.5630  219.7560 N   0  0  0  0  0  0  0  0  0  0  0  0
  145.1330   71.4940  219.6580 C   0  0  0  0  0  0  0  0  0  0  0  0
  144.0390   71.7480  220.6400 C   0  0  0  0  0  0  0  0  0  0  0  0
  141.7870   74.0410  220.7880 N   0  0  0  0  0  0  0  0  0  0  0  0
  140.9070   74.8130  221.4490 C   0  0  0  0  0  0  0  0  0  0  0  0
  141.0160   76.2480  221.4010 N   0  0  0  0  0  0  0  0  0  0  0  0
  141.6280   76.8180  220.2280 C   0  0  0  0  0  0  0  0  0  0  0  0
  141.5880   78.3100  220.1860 C   0  0  0  0  0  0  0  0  0  0  0  0
  141.7990   78.8770  221.5380 C   0  0  0  0  0  0  0  0  0  0  0  0
  142.5200   80.0500  221.7200 C   0  0  0  0  0  0  0  0  0  0  0  0
  142.7170   80.5840  222.9930 C   0  0  0  0  0  0  0  0  0  0  0  0
  142.1940   79.9560  224.1080 C   0  0  0  0  0  0  0  0  0  0  0  0
  141.4730   78.7830  223.9280 C   0  0  0  0  0  0  0  0  0  0  0  0
  141.2830   78.2590  222.6460 C   0  0  0  0  0  0  0  0  0  0  0  0
  140.5130   77.0170  222.5140 C   0  0  0  0  0  0  0  0  0  0  0  0
  139.9400   74.1920  222.1440 N   0  0  0  0  0  0  0  0  0  0  0  0
  137.7450   70.5100  224.1560 C   0  0  0  0  0  0  0  0  0  0  0  0
  134.8630   68.5470  224.0330 N   0  0  0  0  0  0  0  0  0  0  0  0
  133.0820   65.9148  225.0646 H   0  0  0  0  0  0  0  0  0  0  0  0
  132.4836   66.7761  223.6062 H   0  0  0  0  0  0  0  0  0  0  0  0
  134.1230   66.0420  223.6062 H   0  0  0  0  0  0  0  0  0  0  0  0
  132.7631   67.7179  226.5497 H   0  0  0  0  0  0  0  0  0  0  0  0
  133.7357   69.8817  227.4221 H   0  0  0  0  0  0  0  0  0  0  0  0
  134.8283   71.0293  222.4713 H   0  0  0  0  0  0  0  0  0  0  0  0
  136.0319   72.3160  222.8988 H   0  0  0  0  0  0  0  0  0  0  0  0
  136.0904   70.2764  220.7586 H   0  0  0  0  0  0  0  0  0  0  0  0
  136.9165   71.8889  220.9009 H   0  0  0  0  0  0  0  0  0  0  0  0
  137.8081   69.1839  221.8580 H   0  0  0  0  0  0  0  0  0  0  0  0
  138.6782   70.4275  220.8716 H   0  0  0  0  0  0  0  0  0  0  0  0
  139.6102   70.3531  223.0395 H   0  0  0  0  0  0  0  0  0  0  0  0
  138.1850   72.9180  223.4540 H   0  0  0  0  0  0  0  0  0  0  0  0
  141.6570   70.5044  218.9978 H   0  0  0  0  0  0  0  0  0  0  0  0
  141.7977   72.1618  218.2449 H   0  0  0  0  0  0  0  0  0  0  0  0
  143.1306   70.0413  217.3380 H   0  0  0  0  0  0  0  0  0  0  0  0
  143.7733   71.7460  217.3113 H   0  0  0  0  0  0  0  0  0  0  0  0
  145.3887   69.1813  216.4999 H   0  0  0  0  0  0  0  0  0  0  0  0
  146.5277   66.9978  216.4138 H   0  0  0  0  0  0  0  0  0  0  0  0
  147.0555   65.7771  218.5370 H   0  0  0  0  0  0  0  0  0  0  0  0
  146.3908   66.8646  220.6849 H   0  0  0  0  0  0  0  0  0  0  0  0
  146.0225   71.0992  220.1707 H   0  0  0  0  0  0  0  0  0  0  0  0
  145.4356   72.4185  219.1444 H   0  0  0  0  0  0  0  0  0  0  0  0
  143.9956   70.8948  221.3330 H   0  0  0  0  0  0  0  0  0  0  0  0
  144.2828   72.6979  221.1382 H   0  0  0  0  0  0  0  0  0  0  0  0
  142.6804   76.4992  220.1974 H   0  0  0  0  0  0  0  0  0  0  0  0
  141.0515   76.4598  219.3624 H   0  0  0  0  0  0  0  0  0  0  0  0
  142.3794   78.6738  219.5142 H   0  0  0  0  0  0  0  0  0  0  0  0
  140.6007   78.6274  219.8192 H   0  0  0  0  0  0  0  0  0  0  0  0
  142.9427   80.5663  220.8455 H   0  0  0  0  0  0  0  0  0  0  0  0
  143.2937   81.5132  223.1110 H   0  0  0  0  0  0  0  0  0  0  0  0
  142.3454   80.3754  225.1136 H   0  0  0  0  0  0  0  0  0  0  0  0
  141.0488   78.2629  224.7995 H   0  0  0  0  0  0  0  0  0  0  0  0
  140.6083   76.4279  223.4381 H   0  0  0  0  0  0  0  0  0  0  0  0
  139.4549   77.2616  222.3389 H   0  0  0  0  0  0  0  0  0  0  0  0
  138.0368   69.5313  224.5648 H   0  0  0  0  0  0  0  0  0  0  0  0
  137.8841   71.3048  224.9037 H   0  0  0  0  0  0  0  0  0  0  0  0
  1  2  1  0
  2  3  2  0
  3  4  1  0
  4  5  2  0
  5  6  1  0
  6  7  1  0
  7  8  1  0
  8  9  1  0
  9 10  1  0
 10 11  1  0
 11 12  1  0
 12 13  1  0
 13 14  2  0
 14 15  1  0
 15 16  1  0
 16 17  1  0
 17 18  1  0
 18 19  1  0
 19 20  1  0
 20 21  2  0
 21 22  1  0
 22 23  2  0
 23 24  1  0
 24 25  2  0
 19 26  1  0
 26 27  1  0
 15 28  2  0
 28 29  1  0
 29 30  1  0
 30 31  1  0
 31 32  1  0
 32 33  1  0
 33 34  2  0
 34 35  1  0
 35 36  2  0
 36 37  1  0
 37 38  2  0
 38 39  1  0
 29 40  2  0
 11 41  1  0
  6 42  2  0
 42  2  1  0
 41  7  1  0
 40 13  1  0
 27 16  1  0
 39 30  1  0
 25 20  1  0
 38 33  1  0
  1 43  1  0
  1 44  1  0
  1 45  1  0
  3 46  1  0
  4 47  1  0
  8 48  1  0
  8 49  1  0
  9 50  1  0
  9 51  1  0
 10 52  1  0
 10 53  1  0
 11 54  1  1
 12 55  1  0
 17 56  1  0
 17 57  1  0
 18 58  1  0
 18 59  1  0
 21 60  1  0
 22 61  1  0
 23 62  1  0
 24 63  1  0
 26 64  1  0
 26 65  1  0
 27 66  1  0
 27 67  1  0
 31 68  1  0
 31 69  1  0
 32 70  1  0
 32 71  1  0
 34 72  1  0
 35 73  1  0
 36 74  1  0
 37 75  1  0
 39 76  1  0
 39 77  1  0
 41 78  1  0
 41 79  1  0
M  END
>  <smiles>  (99) 
Cc1ccnc(N2CCCC(Nc3nc(N4CCN(c5ccccn5)CC4)nc(N4CCc5ccccc5C4)n3)C2)n1

>  <score_type>  (99) 
oracle

>  <origin>  (99) 
autodockgpu

>  <m_score__min__energy>  (99) 
-10.06

>  <m_primary>  (99) 
energy

>  <rmsd>  (99) 
7.682526837609316

>  <m_score__min__rmsd>  (99) 
7.682526837609316

>  <meeko>  (99) 
{"free_energy": -9.92, "intermolecular_energy": -11.71, "internal_energy": -1.43, "cluster_size": 1, "cluster_id": 2, "rank_in_cluster": 1}

>  <energy>  (99) 
-8.82

>  <cluster_rmsd>  (99) 
0.0

>  <cluster>  (99) 
6

$$$$

     RDKit          3D

 79 85  0  0  1  0  0  0  0  0999 V2000
  144.8700   75.7340  214.3740 C   0  0  0  0  0  0  0  0  0  0  0  0
  144.2820   75.9260  215.7270 C   0  0  0  0  0  0  0  0  0  0  0  0
  143.6210   77.1100  215.9840 C   0  0  0  0  0  0  0  0  0  0  0  0
  143.0710   77.2830  217.2580 C   0  0  0  0  0  0  0  0  0  0  0  0
  143.2130   76.2900  218.1750 N   0  0  0  0  0  0  0  0  0  0  0  0
  143.8580   75.1440  217.9170 C   0  0  0  0  0  0  0  0  0  0  0  0
  143.9400   74.1780  218.9580 N   0  0  0  0  0  0  0  0  0  0  0  0
  144.7850   74.4760  220.0990 C   0  0  0  0  0  0  0  0  0  0  0  0
  145.8040   73.3740  220.3460 C   0  0  0  0  0  0  0  0  0  0  0  0
  145.4260   72.0880  219.6740 C   0  0  0  0  0  0  0  0  0  0  0  0
  143.9370   71.8530  219.7350 C   0  0  1  0  0  0  0  0  0  0  0  0
  143.3980   71.8770  221.0690 N   0  0  0  0  0  0  0  0  0  0  0  0
  142.1690   72.5520  221.3810 C   0  0  0  0  0  0  0  0  0  0  0  0
  141.0610   71.8800  221.7470 N   0  0  0  0  0  0  0  0  0  0  0  0
  139.9100   72.5360  222.0380 C   0  0  0  0  0  0  0  0  0  0  0  0
  138.7260   71.8270  222.4280 N   0  0  0  0  0  0  0  0  0  0  0  0
  137.4690   72.3610  221.9930 C   0  0  0  0  0  0  0  0  0  0  0  0
  136.3310   71.3760  222.1070 C   0  0  0  0  0  0  0  0  0  0  0  0
  136.5270   70.4150  223.1490 N   0  0  0  0  0  0  0  0  0  0  0  0
  135.6390   70.1520  224.2090 C   0  0  0  0  0  0  0  0  0  0  0  0
  135.0430   71.1490  224.9560 C   0  0  0  0  0  0  0  0  0  0  0  0
  134.1700   70.8740  225.9950 C   0  0  0  0  0  0  0  0  0  0  0  0
  133.8700   69.5700  226.3180 C   0  0  0  0  0  0  0  0  0  0  0  0
  134.4820   68.5890  225.5520 C   0  0  0  0  0  0  0  0  0  0  0  0
  135.3250   68.8850  224.5490 N   0  0  0  0  0  0  0  0  0  0  0  0
  137.7790   69.6400  223.0910 C   0  0  0  0  0  0  0  0  0  0  0  0
  138.8850   70.6330  223.2270 C   0  0  0  0  0  0  0  0  0  0  0  0
  139.9530   73.8740  221.9390 N   0  0  0  0  0  0  0  0  0  0  0  0
  141.0380   74.5790  221.5770 C   0  0  0  0  0  0  0  0  0  0  0  0
  140.9810   76.0150  221.5000 N   0  0  0  0  0  0  0  0  0  0  0  0
  141.2490   76.6120  220.2160 C   0  0  0  0  0  0  0  0  0  0  0  0
  141.0430   78.0900  220.1780 C   0  0  0  0  0  0  0  0  0  0  0  0
  141.4920   78.7140  221.4440 C   0  0  0  0  0  0  0  0  0  0  0  0
  142.1090   79.9590  221.4520 C   0  0  0  0  0  0  0  0  0  0  0  0
  142.5300   80.5450  222.6450 C   0  0  0  0  0  0  0  0  0  0  0  0
  142.3420   79.8990  223.8520 C   0  0  0  0  0  0  0  0  0  0  0  0
  141.7270   78.6540  223.8450 C   0  0  0  0  0  0  0  0  0  0  0  0
  141.3090   78.0770  222.6430 C   0  0  0  0  0  0  0  0  0  0  0  0
  140.6640   76.7610  222.6950 C   0  0  0  0  0  0  0  0  0  0  0  0
  142.1580   73.8920  221.2970 N   0  0  0  0  0  0  0  0  0  0  0  0
  143.2240   72.9160  218.9290 C   0  0  0  0  0  0  0  0  0  0  0  0
  144.3830   74.9750  216.6990 N   0  0  0  0  0  0  0  0  0  0  0  0
  145.9115   75.3939  214.4717 H   0  0  0  0  0  0  0  0  0  0  0  0
  144.2878   74.9793  213.8249 H   0  0  0  0  0  0  0  0  0  0  0  0
  144.8454   76.6868  213.8249 H   0  0  0  0  0  0  0  0  0  0  0  0
  143.5300   77.8901  215.2138 H   0  0  0  0  0  0  0  0  0  0  0  0
  142.5324   78.2074  217.5137 H   0  0  0  0  0  0  0  0  0  0  0  0
  145.3184   75.4195  219.9111 H   0  0  0  0  0  0  0  0  0  0  0  0
  144.1440   74.5568  220.9893 H   0  0  0  0  0  0  0  0  0  0  0  0
  146.7801   73.7017  219.9590 H   0  0  0  0  0  0  0  0  0  0  0  0
  145.8430   73.1886  221.4295 H   0  0  0  0  0  0  0  0  0  0  0  0
  145.7391   72.1291  218.6203 H   0  0  0  0  0  0  0  0  0  0  0  0
  145.9290   71.2621  220.1983 H   0  0  0  0  0  0  0  0  0  0  0  0
  143.7745   70.8443  219.3273 H   0  0  0  0  0  0  0  0  0  0  0  0
  143.8840   71.3990  221.8810 H   0  0  0  0  0  0  0  0  0  0  0  0
  137.2318   73.2414  222.6083 H   0  0  0  0  0  0  0  0  0  0  0  0
  137.5740   72.6161  220.9281 H   0  0  0  0  0  0  0  0  0  0  0  0
  135.4047   71.9325  222.3128 H   0  0  0  0  0  0  0  0  0  0  0  0
  136.2757   70.8249  221.1566 H   0  0  0  0  0  0  0  0  0  0  0  0
  135.2698   72.1985  224.7172 H   0  0  0  0  0  0  0  0  0  0  0  0
  133.7155   71.6989  226.5632 H   0  0  0  0  0  0  0  0  0  0  0  0
  133.1822   69.3196  227.1391 H   0  0  0  0  0  0  0  0  0  0  0  0
  134.2698   67.5326  225.7734 H   0  0  0  0  0  0  0  0  0  0  0  0
  137.8160   68.9117  223.9145 H   0  0  0  0  0  0  0  0  0  0  0  0
  137.8592   69.0743  222.1510 H   0  0  0  0  0  0  0  0  0  0  0  0
  138.9479   70.9334  224.2833 H   0  0  0  0  0  0  0  0  0  0  0  0
  139.7961   70.1351  222.8639 H   0  0  0  0  0  0  0  0  0  0  0  0
  142.2950   76.4017  219.9485 H   0  0  0  0  0  0  0  0  0  0  0  0
  140.5332   76.1728  219.5056 H   0  0  0  0  0  0  0  0  0  0  0  0
  141.6195   78.5135  219.3424 H   0  0  0  0  0  0  0  0  0  0  0  0
  139.9705   78.2942  220.0440 H   0  0  0  0  0  0  0  0  0  0  0  0
  142.2678   80.4906  220.5022 H   0  0  0  0  0  0  0  0  0  0  0  0
  143.0166   81.5313  222.6252 H   0  0  0  0  0  0  0  0  0  0  0  0
  142.6714   80.3596  224.7951 H   0  0  0  0  0  0  0  0  0  0  0  0
  141.5678   78.1182  224.7924 H   0  0  0  0  0  0  0  0  0  0  0  0
  141.0263   76.2110  223.5761 H   0  0  0  0  0  0  0  0  0  0  0  0
  139.5740   76.8925  222.7635 H   0  0  0  0  0  0  0  0  0  0  0  0
  143.1402   72.5769  217.8859 H   0  0  0  0  0  0  0  0  0  0  0  0
  142.2295   73.0743  219.3716 H   0  0  0  0  0  0  0  0  0  0  0  0
  1  2  1  0
  2  3  2  0
  3  4  1  0
  4  5  2  0
  5  6  1  0
  6  7  1  0
  7  8  1  0
  8  9  1  0
  9 10  1  0
 10 11  1  0
 11 12  1  0
 12 13  1  0
 13 14  2  0
 14 15  1  0
 15 16  1  0
 16 17  1  0
 17 18  1  0
 18 19  1  0
 19 20  1  0
 20 21  2  0
 21 22  1  0
 22 23  2  0
 23 24  1  0
 24 25  2  0
 19 26  1  0
 26 27  1  0
 15 28  2  0
 28 29  1  0
 29 30  1  0
 30 31  1  0
 31 32  1  0
 32 33  1  0
 33 34  2  0
 34 35  1  0
 35 36  2  0
 36 37  1  0
 37 38  2  0
 38 39  1  0
 29 40  2  0
 11 41  1  0
  6 42  2  0
 42  2  1  0
 41  7  1  0
 40 13  1  0
 27 16  1  0
 39 30  1  0
 25 20  1  0
 38 33  1  0
  1 43  1  0
  1 44  1  0
  1 45  1  0
  3 46  1  0
  4 47  1  0
  8 48  1  0
  8 49  1  0
  9 50  1  0
  9 51  1  0
 10 52  1  0
 10 53  1  0
 11 54  1  6
 12 55  1  0
 17 56  1  0
 17 57  1  0
 18 58  1  0
 18 59  1  0
 21 60  1  0
 22 61  1  0
 23 62  1  0
 24 63  1  0
 26 64  1  0
 26 65  1  0
 27 66  1  0
 27 67  1  0
 31 68  1  0
 31 69  1  0
 32 70  1  0
 32 71  1  0
 34 72  1  0
 35 73  1  0
 36 74  1  0
 37 75  1  0
 39 76  1  0
 39 77  1  0
 41 78  1  0
 41 79  1  0
M  END
>  <smiles>  (100) 
Cc1ccnc(N2CCCC(Nc3nc(N4CCN(c5ccccn5)CC4)nc(N4CCc5ccccc5C4)n3)C2)n1

>  <score_type>  (100) 
oracle

>  <origin>  (100) 
autodockgpu

>  <m_score__min__energy>  (100) 
-10.06

>  <m_primary>  (100) 
energy

>  <rmsd>  (100) 
5.9031684721130855

>  <m_score__min__rmsd>  (100) 
5.9031684721130855

>  <meeko>  (100) 
{"free_energy": -8.82, "intermolecular_energy": -10.61, "internal_energy": -1.9, "cluster_size": 1, "cluster_id": 6, "rank_in_cluster": 1}

>  <energy>  (100) 
-8.73

>  <cluster_rmsd>  (100) 
0.0

>  <cluster>  (100) 
7

$$$$
