@<TRIPOS>MOLECULE
*****
 67 73 0 0 0
SMALL
GASTEIGER

@<TRIPOS>ATOM
      1 O         146.6780   70.3100  218.9090 O.3     1  UNL1       -0.5033
      2 C         145.5870   71.0080  219.4080 C.ar    1  UNL1        0.1583
      3 C         145.6840   72.3780  219.5830 C.ar    1  UNL1       -0.0159
      4 C         144.6220   73.0820  220.0730 C.ar    1  UNL1       -0.0474
      5 C         143.4710   72.4150  220.3840 C.ar    1  UNL1        0.0230
      6 C         142.3340   73.1550  220.9050 C.ar    1  UNL1        0.1669
      7 N         141.3240   72.4880  221.5200 N.ar    1  UNL1       -0.1945
      8 C         140.2710   73.1700  222.0040 C.ar    1  UNL1        0.2228
      9 N         139.2430   72.4180  222.6390 N.pl3   1  UNL1       -0.2965
     10 C         139.6090   71.5020  223.6940 C.3     1  UNL1        0.0306
     11 C         138.7190   70.2940  223.8050 C.3     1  UNL1        0.0280
     12 N         137.3900   70.5320  223.2670 N.pl3   1  UNL1       -0.3268
     13 C         136.1960   70.1740  223.9470 C.ar    1  UNL1        0.0333
     14 C         135.6970   68.8890  223.9210 C.ar    1  UNL1       -0.0399
     15 C         134.5220   68.5400  224.6020 C.ar    1  UNL1       -0.0492
     16 C         133.8170   69.4740  225.3280 C.ar    1  UNL1        0.0202
     17 C         132.6590   69.4430  226.0850 C.ar    1  UNL1       -0.0161
     18 C         132.5070   70.7390  226.5460 C.ar    1  UNL1        0.0931
     19 O         133.4850   71.4940  226.1080 O.2     1  UNL1       -0.4629
     20 C         134.3090   70.7620  225.3600 C.ar    1  UNL1        0.1365
     21 C         135.4840   71.1030  224.6770 C.ar    1  UNL1        0.0023
     22 C         137.3660   71.1730  221.9440 C.3     1  UNL1        0.0280
     23 C         137.8420   72.5850  222.2150 C.3     1  UNL1        0.0306
     24 N         140.2180   74.5080  221.8790 N.ar    1  UNL1       -0.1808
     25 C         141.2210   75.2000  221.2640 C.ar    1  UNL1        0.2230
     26 N         141.1640   76.6260  221.1310 N.pl3   1  UNL1       -0.2949
     27 C         141.9340   77.2510  220.0980 C.3     1  UNL1        0.0192
     28 C         141.7890   78.7630  220.1970 C.3     1  UNL1       -0.0115
     29 C         141.8630   79.2050  221.6020 C.ar    1  UNL1       -0.0412
     30 C         142.6450   80.2930  221.9820 C.ar    1  UNL1       -0.0582
     31 C         142.6930   80.6850  223.3060 C.ar    1  UNL1       -0.0615
     32 C         141.9510   79.9650  224.2040 C.ar    1  UNL1       -0.0614
     33 C         141.1680   78.8890  223.8720 C.ar    1  UNL1       -0.0568
     34 C         141.1330   78.5140  222.5460 C.ar    1  UNL1       -0.0269
     35 C         140.3240   77.3650  222.0560 C.3     1  UNL1        0.0402
     36 N         142.2570   74.4950  220.7920 N.ar    1  UNL1       -0.1945
     37 C         143.3280   71.0480  220.2250 C.ar    1  UNL1       -0.0058
     38 C         144.4030   70.3410  219.7300 C.ar    1  UNL1        0.1589
     39 O         144.3600   68.9560  219.5330 O.3     1  UNL1       -0.5033
     40 H         146.6350   69.3220  218.6670 H       1  UNL1        0.2923
     41 H         146.6179   72.8998  219.3269 H       1  UNL1        0.0655
     42 H         144.6920   74.1705  220.2154 H       1  UNL1        0.0626
     43 H         140.6366   71.1563  223.5083 H       1  UNL1        0.0480
     44 H         139.5068   72.0551  224.6393 H       1  UNL1        0.0480
     45 H         139.1806   69.4634  223.2509 H       1  UNL1        0.0479
     46 H         138.6099   70.0555  224.8733 H       1  UNL1        0.0479
     47 H         136.2349   68.1172  223.3510 H       1  UNL1        0.0636
     48 H         134.1574   67.5032  224.5556 H       1  UNL1        0.0625
     49 H         132.0047   68.5800  226.2775 H       1  UNL1        0.0655
     50 H         131.6837   71.0858  227.1878 H       1  UNL1        0.1029
     51 H         135.8486   72.1397  224.7242 H       1  UNL1        0.0673
     52 H         138.0440   70.6583  221.2473 H       1  UNL1        0.0479
     53 H         136.3710   71.1431  221.4760 H       1  UNL1        0.0479
     54 H         137.7804   73.1991  221.3045 H       1  UNL1        0.0480
     55 H         137.2306   73.0981  222.9719 H       1  UNL1        0.0480
     56 H         142.9929   76.9764  220.2137 H       1  UNL1        0.0468
     57 H         141.5710   76.9127  219.1163 H       1  UNL1        0.0468
     58 H         142.5981   79.2411  219.6254 H       1  UNL1        0.0328
     59 H         140.8094   79.0509  219.7878 H       1  UNL1        0.0328
     60 H         143.2260   80.8417  221.2260 H       1  UNL1        0.0620
     61 H         143.3035   81.5421  223.6263 H       1  UNL1        0.0618
     62 H         141.9852   80.2695  225.2605 H       1  UNL1        0.0618
     63 H         140.5902   78.3462  224.6345 H       1  UNL1        0.0621
     64 H         140.0308   76.7214  222.8985 H       1  UNL1        0.0514
     65 H         139.4035   77.7115  221.5634 H       1  UNL1        0.0514
     66 H         142.3868   70.5416  220.4852 H       1  UNL1        0.0662
     67 H         145.1920   68.5190  219.1270 H       1  UNL1        0.2923
@<TRIPOS>BOND
     1     1     2    1
     2     2     3   ar
     3     3     4   ar
     4     4     5   ar
     5     5     6    1
     6     6     7   ar
     7     7     8   ar
     8     8     9    1
     9     9    10    1
    10    10    11    1
    11    11    12    1
    12    12    13    1
    13    13    14   ar
    14    14    15   ar
    15    15    16   ar
    16    16    17   ar
    17    17    18   ar
    18    18    19   ar
    19    19    20   ar
    20    20    21   ar
    21    12    22    1
    22    22    23    1
    23     8    24   ar
    24    24    25   ar
    25    25    26    1
    26    26    27    1
    27    27    28    1
    28    28    29    1
    29    29    30   ar
    30    30    31   ar
    31    31    32   ar
    32    32    33   ar
    33    33    34   ar
    34    34    35    1
    35    25    36   ar
    36     5    37   ar
    37    37    38   ar
    38    38    39    1
    39    38     2   ar
    40    36     6   ar
    41    23     9    1
    42    35    26    1
    43    21    13   ar
    44    34    29   ar
    45    20    16   ar
    46     1    40    1
    47     3    41    1
    48     4    42    1
    49    10    43    1
    50    10    44    1
    51    11    45    1
    52    11    46    1
    53    14    47    1
    54    15    48    1
    55    17    49    1
    56    18    50    1
    57    21    51    1
    58    22    52    1
    59    22    53    1
    60    23    54    1
    61    23    55    1
    62    27    56    1
    63    27    57    1
    64    28    58    1
    65    28    59    1
    66    30    60    1
    67    31    61    1
    68    32    62    1
    69    33    63    1
    70    35    64    1
    71    35    65    1
    72    37    66    1
    73    39    67    1
