@<TRIPOS>MOLECULE
*****
 78 83 0 0 0
SMALL
GASTEIGER

@<TRIPOS>ATOM
      1 C         139.9130   70.0720  226.8880 C.3     1  UNL1       -0.0128
      2 N         139.2590   69.5180  225.7480 N.3     1  UNL1       -0.3053
      3 C         139.2250   68.0920  225.7250 C.3     1  UNL1       -0.0128
      4 C         139.5380   70.1420  224.4960 C.3     1  UNL1        0.0127
      5 C         138.3410   70.7960  223.9200 C.3     1  UNL1       -0.0214
      6 C         138.5480   71.8080  222.8630 C.3     1  UNL1        0.0163
      7 N         139.8700   72.2900  222.6540 N.pl3   1  UNL1       -0.2994
      8 C         140.0650   73.5360  221.9730 C.ar    1  UNL1        0.2237
      9 N         140.9690   73.6580  220.9540 N.ar    1  UNL1       -0.1809
     10 C         141.1180   74.8150  220.3080 C.ar    1  UNL1        0.2211
     11 N         141.9960   75.1040  219.2570 N.pl3   1  UNL1       -0.3121
     12 C         142.9280   76.1940  219.1030 C.3     1  UNL1        0.0246
     13 C         142.2020   77.3820  218.6330 C.3     1  UNL1        0.0148
     14 N         142.1440   78.5710  219.4400 N.3     1  UNL1       -0.2964
     15 C         141.2430   79.5510  218.9710 C.3     1  UNL1        0.0033
     16 C         141.1880   80.7670  219.8430 C.3     1  UNL1       -0.0146
     17 C         141.5300   80.5710  221.2570 C.ar    1  UNL1       -0.0418
     18 C         141.5180   81.6290  222.1200 C.ar    1  UNL1       -0.0582
     19 C         141.8560   81.4480  223.4670 C.ar    1  UNL1       -0.0615
     20 C         142.2050   80.1870  223.9360 C.ar    1  UNL1       -0.0614
     21 C         142.2010   79.1490  223.0240 C.ar    1  UNL1       -0.0571
     22 C         141.8680   79.3220  221.6890 C.ar    1  UNL1       -0.0302
     23 C         141.8820   78.1330  220.8330 C.3     1  UNL1        0.0244
     24 N         140.3340   75.8460  220.7080 N.ar    1  UNL1       -0.1809
     25 C         139.4340   75.7830  221.7000 C.ar    1  UNL1        0.2240
     26 N         138.6990   76.9650  221.9560 N.pl3   1  UNL1       -0.2948
     27 C         137.7120   77.3690  220.9390 C.3     1  UNL1        0.0192
     28 C         138.1520   78.6980  220.3240 C.3     1  UNL1       -0.0115
     29 C         138.1390   79.6580  221.4890 C.ar    1  UNL1       -0.0412
     30 C         137.7840   80.9580  221.1670 C.ar    1  UNL1       -0.0582
     31 C         137.7310   81.9180  222.1650 C.ar    1  UNL1       -0.0615
     32 C         138.0370   81.5180  223.4340 C.ar    1  UNL1       -0.0614
     33 C         138.3950   80.2040  223.7590 C.ar    1  UNL1       -0.0568
     34 C         138.4490   79.2460  222.7650 C.ar    1  UNL1       -0.0269
     35 C         138.8260   77.8290  223.0910 C.3     1  UNL1        0.0402
     36 N         139.3020   74.6210  222.3330 N.ar    1  UNL1       -0.1807
     37 C         140.9870   71.5260  223.1350 C.3     1  UNL1        0.0163
     38 C         140.6840   71.1320  224.5750 C.3     1  UNL1       -0.0214
     39 H         139.4486   69.6786  227.8043 H       1  UNL1        0.0391
     40 H         140.9779   69.7970  226.8695 H       1  UNL1        0.0391
     41 H         139.8168   71.1676  226.8695 H       1  UNL1        0.0391
     42 H         139.2159   67.7088  226.7561 H       1  UNL1        0.0391
     43 H         138.3186   67.7552  225.2006 H       1  UNL1        0.0391
     44 H         140.1144   67.7124  225.2006 H       1  UNL1        0.0391
     45 H         139.8461   69.3267  223.8250 H       1  UNL1        0.0463
     46 H         137.7070   70.0037  223.4954 H       1  UNL1        0.0295
     47 H         137.9030   71.3578  224.7582 H       1  UNL1        0.0295
     48 H         138.2064   71.3666  221.9151 H       1  UNL1        0.0465
     49 H         137.9846   72.6874  223.2083 H       1  UNL1        0.0465
     50 H         141.9740   74.4100  218.4410 H       1  UNL1        0.1489
     51 H         143.4040   76.4116  220.0705 H       1  UNL1        0.0475
     52 H         143.7033   75.9194  218.3726 H       1  UNL1        0.0475
     53 H         142.6604   77.6730  217.6764 H       1  UNL1        0.0442
     54 H         141.1559   77.0421  218.6194 H       1  UNL1        0.0442
     55 H         141.5548   79.8582  217.9618 H       1  UNL1        0.0430
     56 H         140.2394   79.1007  218.9741 H       1  UNL1        0.0430
     57 H         141.8876   81.5080  219.4289 H       1  UNL1        0.0326
     58 H         140.1345   81.0834  219.8379 H       1  UNL1        0.0326
     59 H         141.2413   82.6292  221.7552 H       1  UNL1        0.0620
     60 H         141.8452   82.3059  224.1554 H       1  UNL1        0.0618
     61 H         142.4734   80.0221  224.9900 H       1  UNL1        0.0618
     62 H         142.4738   78.1418  223.3720 H       1  UNL1        0.0621
     63 H         142.6746   77.4454  221.1629 H       1  UNL1        0.0476
     64 H         140.9166   77.6092  220.8926 H       1  UNL1        0.0476
     65 H         137.6540   76.6001  220.1545 H       1  UNL1        0.0468
     66 H         136.7218   77.4828  221.4044 H       1  UNL1        0.0468
     67 H         139.1618   78.6159  219.8956 H       1  UNL1        0.0328
     68 H         137.4990   79.0214  219.5000 H       1  UNL1        0.0328
     69 H         137.5460   81.2260  220.1270 H       1  UNL1        0.0620
     70 H         137.4538   82.9593  221.9439 H       1  UNL1        0.0618
     71 H         138.0005   82.2648  224.2408 H       1  UNL1        0.0618
     72 H         138.6318   79.9361  224.7993 H       1  UNL1        0.0621
     73 H         139.8701   77.8099  223.4367 H       1  UNL1        0.0514
     74 H         138.1414   77.4666  223.8720 H       1  UNL1        0.0514
     75 H         141.1192   70.6246  222.5186 H       1  UNL1        0.0465
     76 H         141.9134   72.1167  223.0809 H       1  UNL1        0.0465
     77 H         141.5648   70.6632  225.0380 H       1  UNL1        0.0295
     78 H         140.4240   72.0065  225.1895 H       1  UNL1        0.0295
@<TRIPOS>BOND
     1     1     2    1
     2     2     3    1
     3     2     4    1
     4     4     5    1
     5     5     6    1
     6     6     7    1
     7     7     8    1
     8     8     9   ar
     9     9    10   ar
    10    10    11    1
    11    11    12    1
    12    12    13    1
    13    13    14    1
    14    14    15    1
    15    15    16    1
    16    16    17    1
    17    17    18   ar
    18    18    19   ar
    19    19    20   ar
    20    20    21   ar
    21    21    22   ar
    22    22    23    1
    23    10    24   ar
    24    24    25   ar
    25    25    26    1
    26    26    27    1
    27    27    28    1
    28    28    29    1
    29    29    30   ar
    30    30    31   ar
    31    31    32   ar
    32    32    33   ar
    33    33    34   ar
    34    34    35    1
    35    25    36   ar
    36     7    37    1
    37    37    38    1
    38    38     4    1
    39    36     8   ar
    40    23    14    1
    41    35    26    1
    42    22    17   ar
    43    34    29   ar
    44     1    39    1
    45     1    40    1
    46     1    41    1
    47     3    42    1
    48     3    43    1
    49     3    44    1
    50     4    45    1
    51     5    46    1
    52     5    47    1
    53     6    48    1
    54     6    49    1
    55    11    50    1
    56    12    51    1
    57    12    52    1
    58    13    53    1
    59    13    54    1
    60    15    55    1
    61    15    56    1
    62    16    57    1
    63    16    58    1
    64    18    59    1
    65    19    60    1
    66    20    61    1
    67    21    62    1
    68    23    63    1
    69    23    64    1
    70    27    65    1
    71    27    66    1
    72    28    67    1
    73    28    68    1
    74    30    69    1
    75    31    70    1
    76    32    71    1
    77    33    72    1
    78    35    73    1
    79    35    74    1
    80    37    75    1
    81    37    76    1
    82    38    77    1
    83    38    78    1
