@<TRIPOS>MOLECULE
*****
 73 77 0 0 0
SMALL
GASTEIGER

@<TRIPOS>ATOM
      1 C         141.1730   71.6860  228.3530 C.ar    1  UNL1       -0.0617
      2 C         141.4800   72.2760  227.1470 C.ar    1  UNL1       -0.0615
      3 C         141.0170   71.7000  225.9850 C.ar    1  UNL1       -0.0586
      4 C         140.2550   70.5560  225.9370 C.ar    1  UNL1       -0.0473
      5 C         139.7750   69.9180  224.7150 C.3     1  UNL1       -0.0263
      6 C         138.2690   69.9900  224.5070 C.3     1  UNL1       -0.0334
      7 C         138.0950   70.5510  223.1120 C.3     1  UNL1        0.0121
      8 N         138.4400   71.9180  222.9450 N.pl3   1  UNL1       -0.3133
      9 C         139.5090   72.4230  222.1710 C.ar    1  UNL1        0.2210
     10 N         139.7960   73.7500  222.3190 N.ar    1  UNL1       -0.1811
     11 C         140.8110   74.3190  221.6400 C.ar    1  UNL1        0.2210
     12 N         141.0920   75.7120  221.8450 N.pl3   1  UNL1       -0.3133
     13 C         140.1020   76.7510  221.6530 C.3     1  UNL1        0.0130
     14 C         139.0090   76.5500  222.7090 C.3     1  UNL1       -0.0246
     15 C         137.7230   76.3060  221.9580 C.3     1  UNL1        0.0005
     16 N         137.0050   75.1410  222.3190 N.3     1  UNL1       -0.2979
     17 C         136.8430   74.1300  221.3370 C.3     1  UNL1        0.0224
     18 C         135.6780   73.2550  221.7780 C.3     1  UNL1        0.0604
     19 O         135.7370   72.9200  223.1050 O.3     1  UNL1       -0.3772
     20 C         135.8120   73.9850  223.9850 C.3     1  UNL1        0.0604
     21 C         135.9030   75.3000  223.2040 C.3     1  UNL1        0.0224
     22 N         141.5800   73.5990  220.7920 N.ar    1  UNL1       -0.1809
     23 C         141.2950   72.2790  220.6460 C.ar    1  UNL1        0.2240
     24 N         142.1400   71.5580  219.7680 N.pl3   1  UNL1       -0.2948
     25 C         143.0180   72.3010  218.8730 C.3     1  UNL1        0.0192
     26 C         144.4280   72.0510  219.4390 C.3     1  UNL1       -0.0115
     27 C         144.6870   70.5840  219.4280 C.ar    1  UNL1       -0.0412
     28 C         146.0000   70.1880  219.2890 C.ar    1  UNL1       -0.0582
     29 C         146.3300   68.8290  219.2580 C.ar    1  UNL1       -0.0615
     30 C         145.2810   67.9460  219.3720 C.ar    1  UNL1       -0.0614
     31 C         143.9650   68.3340  219.5110 C.ar    1  UNL1       -0.0568
     32 C         143.6450   69.6700  219.5430 C.ar    1  UNL1       -0.0269
     33 C         142.2210   70.1170  219.6950 C.3     1  UNL1        0.0402
     34 N         140.2730   71.7150  221.3300 N.ar    1  UNL1       -0.1809
     35 C         139.9480   69.9650  227.1530 C.ar    1  UNL1       -0.0586
     36 C         140.4050   70.5290  228.3380 C.ar    1  UNL1       -0.0615
     37 H         141.5259   72.1187  229.3007 H       1  UNL1        0.0618
     38 H         142.0859   73.1935  227.1125 H       1  UNL1        0.0618
     39 H         141.2735   72.1869  225.0325 H       1  UNL1        0.0620
     40 H         140.2625   70.4076  223.8590 H       1  UNL1        0.0314
     41 H         140.0248   68.8504  224.8042 H       1  UNL1        0.0314
     42 H         137.8199   68.9885  224.5802 H       1  UNL1        0.0283
     43 H         137.7751   70.6119  225.2681 H       1  UNL1        0.0283
     44 H         138.7234   69.9593  222.4302 H       1  UNL1        0.0462
     45 H         137.0178   70.4881  222.8985 H       1  UNL1        0.0462
     46 H         137.8550   72.6430  223.4380 H       1  UNL1        0.1489
     47 H         142.0910   75.9110  222.1350 H       1  UNL1        0.1489
     48 H         140.5670   77.7400  221.7779 H       1  UNL1        0.0462
     49 H         139.6758   76.6964  220.6404 H       1  UNL1        0.0462
     50 H         139.2485   75.6835  223.3429 H       1  UNL1        0.0293
     51 H         138.9246   77.4292  223.3646 H       1  UNL1        0.0293
     52 H         137.0658   77.1719  222.1259 H       1  UNL1        0.0427
     53 H         138.0161   76.1601  220.9078 H       1  UNL1        0.0427
     54 H         136.6233   74.5855  220.3601 H       1  UNL1        0.0449
     55 H         137.7619   73.5339  221.2357 H       1  UNL1        0.0449
     56 H         134.7403   73.8000  221.5947 H       1  UNL1        0.0572
     57 H         135.7279   72.3213  221.1987 H       1  UNL1        0.0572
     58 H         134.9132   73.9985  224.6190 H       1  UNL1        0.0572
     59 H         136.7080   73.8737  224.6134 H       1  UNL1        0.0572
     60 H         134.9768   75.4752  222.6370 H       1  UNL1        0.0449
     61 H         136.0377   76.1631  223.8725 H       1  UNL1        0.0449
     62 H         142.9375   71.9222  217.8434 H       1  UNL1        0.0468
     63 H         142.7654   73.3705  218.8249 H       1  UNL1        0.0468
     64 H         145.1748   72.5646  218.8156 H       1  UNL1        0.0328
     65 H         144.4967   72.4388  220.4661 H       1  UNL1        0.0328
     66 H         146.7931   70.9453  219.2019 H       1  UNL1        0.0620
     67 H         147.3693   68.4857  219.1487 H       1  UNL1        0.0618
     68 H         145.5048   66.8692  219.3511 H       1  UNL1        0.0618
     69 H         143.1729   67.5755  219.5961 H       1  UNL1        0.0621
     70 H         141.6388   69.7665  218.8300 H       1  UNL1        0.0514
     71 H         141.8163   69.6937  220.6261 H       1  UNL1        0.0514
     72 H         139.3414   69.0478  227.1798 H       1  UNL1        0.0620
     73 H         140.1509   70.0447  229.2924 H       1  UNL1        0.0618
@<TRIPOS>BOND
     1     1     2   ar
     2     2     3   ar
     3     3     4   ar
     4     4     5    1
     5     5     6    1
     6     6     7    1
     7     7     8    1
     8     8     9    1
     9     9    10   ar
    10    10    11   ar
    11    11    12    1
    12    12    13    1
    13    13    14    1
    14    14    15    1
    15    15    16    1
    16    16    17    1
    17    17    18    1
    18    18    19    1
    19    19    20    1
    20    20    21    1
    21    11    22   ar
    22    22    23   ar
    23    23    24    1
    24    24    25    1
    25    25    26    1
    26    26    27    1
    27    27    28   ar
    28    28    29   ar
    29    29    30   ar
    30    30    31   ar
    31    31    32   ar
    32    32    33    1
    33    23    34   ar
    34     4    35   ar
    35    35    36   ar
    36    36     1   ar
    37    34     9   ar
    38    21    16    1
    39    33    24    1
    40    32    27   ar
    41     1    37    1
    42     2    38    1
    43     3    39    1
    44     5    40    1
    45     5    41    1
    46     6    42    1
    47     6    43    1
    48     7    44    1
    49     7    45    1
    50     8    46    1
    51    12    47    1
    52    13    48    1
    53    13    49    1
    54    14    50    1
    55    14    51    1
    56    15    52    1
    57    15    53    1
    58    17    54    1
    59    17    55    1
    60    18    56    1
    61    18    57    1
    62    20    58    1
    63    20    59    1
    64    21    60    1
    65    21    61    1
    66    25    62    1
    67    25    63    1
    68    26    64    1
    69    26    65    1
    70    28    66    1
    71    29    67    1
    72    30    68    1
    73    31    69    1
    74    33    70    1
    75    33    71    1
    76    35    72    1
    77    36    73    1
