
     RDKit          3D

 69 75  0  0  0  0  0  0  0  0999 V2000
  134.9180   70.9720  222.6170 O   0  0  0  0  0  0  0  0  0  0  0  0
  135.8610   71.8140  222.9380 C   0  0  0  0  0  0  0  0  0  0  0  0
  135.3670   73.0340  223.5360 C   0  0  0  0  0  0  0  0  0  0  0  0
  134.5740   73.0450  224.6680 C   0  0  0  0  0  0  0  0  0  0  0  0
  134.2840   74.3530  225.0400 C   0  0  0  0  0  0  0  0  0  0  0  0
  133.5700   74.9140  226.0640 C   0  0  0  0  0  0  0  0  0  0  0  0
  133.4880   76.2810  226.1610 C   0  0  0  0  0  0  0  0  0  0  0  0
  132.7590   76.9560  227.2410 C   0  0  0  0  0  0  0  0  0  0  0  0
  131.6740   76.5210  227.9650 C   0  0  0  0  0  0  0  0  0  0  0  0
  131.3460   77.4840  228.8440 N   0  0  0  0  0  0  0  0  0  0  0  0
  132.1700   78.5130  228.7140 N   0  0  0  0  0  0  0  0  0  0  0  0
  133.0540   78.2270  227.7380 C   0  0  0  0  0  0  0  0  0  0  0  0
  134.1140   77.1260  225.2380 C   0  0  0  0  0  0  0  0  0  0  0  0
  134.8180   76.5080  224.2240 C   0  0  0  0  0  0  0  0  0  0  0  0
  134.9130   75.1350  224.1140 C   0  0  0  0  0  0  0  0  0  0  0  0
  135.5550   74.3220  223.2240 N   0  0  0  0  0  0  0  0  0  0  0  0
  137.1440   71.4030  222.6660 N   0  0  0  0  0  0  0  0  0  0  0  0
  137.5300   69.9500  222.6400 C   0  0  0  0  0  0  0  0  0  0  0  0
  138.7270   70.0900  223.5740 C   0  0  1  0  0  0  0  0  0  0  0  0
  138.1940   70.3540  224.9450 C   0  0  0  0  0  0  0  0  0  0  0  0
  138.0090   68.8990  225.4660 C   0  0  0  0  0  0  0  0  0  0  0  0
  139.2080   68.3020  225.0430 N   0  0  0  0  0  0  0  0  0  0  0  0
  140.3250   68.1660  225.8610 C   0  0  0  0  0  0  0  0  0  0  0  0
  140.7710   69.2860  226.7460 C   0  0  0  0  0  0  0  0  0  0  0  0
  139.7970   69.6700  227.7560 C   0  0  0  0  0  0  0  0  0  0  0  0
  139.9680   71.0570  228.3410 C   0  0  0  0  0  0  0  0  0  0  0  0
  141.1290   71.8200  227.7810 C   0  0  0  0  0  0  0  0  0  0  0  0
  140.9170   71.7670  226.2610 C   0  0  0  0  0  0  0  0  0  0  0  0
  141.2870   70.3750  225.8520 C   0  0  0  0  0  0  0  0  0  0  0  0
  139.5480   68.8720  223.7340 C   0  0  0  0  0  0  0  0  0  0  0  0
  139.4100   71.2570  222.9600 C   0  0  0  0  0  0  0  0  0  0  0  0
  140.6970   71.7100  222.8060 C   0  0  0  0  0  0  0  0  0  0  0  0
  140.9630   72.8830  222.1480 C   0  0  0  0  0  0  0  0  0  0  0  0
  139.9370   73.6620  221.6100 C   0  0  0  0  0  0  0  0  0  0  0  0
  138.6410   73.2250  221.7550 C   0  0  0  0  0  0  0  0  0  0  0  0
  138.3850   72.0450  222.4180 C   0  0  0  0  0  0  0  0  0  0  0  0
  134.2227   72.1477  225.1985 H   0  0  0  0  0  0  0  0  0  0  0  0
  133.0658   74.2746  226.8035 H   0  0  0  0  0  0  0  0  0  0  0  0
  131.1635   75.5540  227.8458 H   0  0  0  0  0  0  0  0  0  0  0  0
  132.1130   79.3900  229.2920 H   0  0  0  0  0  0  0  0  0  0  0  0
  133.8676   78.8818  227.3925 H   0  0  0  0  0  0  0  0  0  0  0  0
  134.0488   78.2213  225.3160 H   0  0  0  0  0  0  0  0  0  0  0  0
  135.3233   77.1342  223.4740 H   0  0  0  0  0  0  0  0  0  0  0  0
  136.0990   74.7150  222.4490 H   0  0  0  0  0  0  0  0  0  0  0  0
  136.7466   69.2942  223.0477 H   0  0  0  0  0  0  0  0  0  0  0  0
  137.7110   69.4951  221.6550 H   0  0  0  0  0  0  0  0  0  0  0  0
  138.9134   70.9161  225.5586 H   0  0  0  0  0  0  0  0  0  0  0  0
  137.2818   70.9682  224.9705 H   0  0  0  0  0  0  0  0  0  0  0  0
  137.9103   68.8727  226.5613 H   0  0  0  0  0  0  0  0  0  0  0  0
  137.1014   68.3995  225.0961 H   0  0  0  0  0  0  0  0  0  0  0  0
  140.1285   67.3065  226.5188 H   0  0  0  0  0  0  0  0  0  0  0  0
  141.1484   68.0873  225.1359 H   0  0  0  0  0  0  0  0  0  0  0  0
  141.5968   68.9672  227.3990 H   0  0  0  0  0  0  0  0  0  0  0  0
  138.7978   69.6169  227.2991 H   0  0  0  0  0  0  0  0  0  0  0  0
  139.9428   68.9717  228.5934 H   0  0  0  0  0  0  0  0  0  0  0  0
  139.0504   71.6305  228.1432 H   0  0  0  0  0  0  0  0  0  0  0  0
  140.1645   70.9253  229.4153 H   0  0  0  0  0  0  0  0  0  0  0  0
  141.1220   72.8598  228.1398 H   0  0  0  0  0  0  0  0  0  0  0  0
  142.0975   71.3972  228.0862 H   0  0  0  0  0  0  0  0  0  0  0  0
  139.8656   71.9738  226.0124 H   0  0  0  0  0  0  0  0  0  0  0  0
  141.5248   72.5203  225.7384 H   0  0  0  0  0  0  0  0  0  0  0  0
  140.8905   70.2011  224.8408 H   0  0  0  0  0  0  0  0  0  0  0  0
  142.3842   70.3222  225.9100 H   0  0  0  0  0  0  0  0  0  0  0  0
  140.6171   69.1283  223.6985 H   0  0  0  0  0  0  0  0  0  0  0  0
  139.3494   68.1525  222.9260 H   0  0  0  0  0  0  0  0  0  0  0  0
  141.5297   71.1211  223.2180 H   0  0  0  0  0  0  0  0  0  0  0  0
  142.0057   73.2170  222.0418 H   0  0  0  0  0  0  0  0  0  0  0  0
  140.1595   74.6017  221.0833 H   0  0  0  0  0  0  0  0  0  0  0  0
  137.8105   73.8166  221.3423 H   0  0  0  0  0  0  0  0  0  0  0  0
  1  2  2  0
  2  3  1  0
  3  4  2  0
  4  5  1  0
  5  6  2  0
  6  7  1  0
  7  8  1  0
  8  9  1  0
  9 10  2  0
 10 11  1  0
 11 12  1  0
  7 13  2  0
 13 14  1  0
 14 15  2  0
 15 16  1  0
  2 17  1  0
 17 18  1  0
 19 18  1  6
 19 20  1  0
 20 21  1  0
 21 22  1  0
 22 23  1  0
 23 24  1  0
 24 25  1  0
 25 26  1  0
 26 27  1  0
 27 28  1  0
 28 29  1  0
 22 30  1  0
 19 31  1  0
 31 32  2  0
 32 33  1  0
 33 34  2  0
 34 35  1  0
 35 36  2  0
 16  3  1  0
 36 17  1  0
 15  5  1  0
 30 19  1  0
 36 31  1  0
 12  8  2  0
 29 24  1  0
  4 37  1  0
  6 38  1  0
  9 39  1  0
 11 40  1  0
 12 41  1  0
 13 42  1  0
 14 43  1  0
 16 44  1  0
 18 45  1  0
 18 46  1  0
 20 47  1  0
 20 48  1  0
 21 49  1  0
 21 50  1  0
 23 51  1  0
 23 52  1  0
 24 53  1  0
 25 54  1  0
 25 55  1  0
 26 56  1  0
 26 57  1  0
 27 58  1  0
 27 59  1  0
 28 60  1  0
 28 61  1  0
 29 62  1  0
 29 63  1  0
 30 64  1  0
 30 65  1  0
 32 66  1  0
 33 67  1  0
 34 68  1  0
 35 69  1  0
M  END
