
     RDKit          3D

 74 79  0  0  0  0  0  0  0  0999 V2000
  146.6620   69.4760  218.2810 N   0  0  0  0  0  0  0  0  0  0  0  0
  145.6430   68.8410  219.0500 C   0  0  0  0  0  0  0  0  0  0  0  0
  145.9420   68.1710  220.0740 O   0  0  0  0  0  0  0  0  0  0  0  0
  144.2450   69.0130  218.5790 C   0  0  0  0  0  0  0  0  0  0  0  0
  143.8680   70.4030  218.4850 N   0  0  0  0  0  0  0  0  0  0  0  0
  142.4420   70.5750  218.4910 C   0  0  0  0  0  0  0  0  0  0  0  0
  141.8630   70.6000  219.8860 C   0  0  0  0  0  0  0  0  0  0  0  0
  142.5160   71.6060  220.7930 C   0  0  0  0  0  0  0  0  0  0  0  0
  141.5190   72.6040  221.2440 C   0  0  0  0  0  0  0  0  0  0  0  0
  140.3430   72.1430  221.7010 N   0  0  0  0  0  0  0  0  0  0  0  0
  139.4310   73.0420  222.1120 C   0  0  0  0  0  0  0  0  0  0  0  0
  138.1760   72.5840  222.5990 N   0  0  0  0  0  0  0  0  0  0  0  0
  136.9270   73.2120  222.2040 C   0  0  0  0  0  0  0  0  0  0  0  0
  135.9570   73.2710  223.3740 C   0  0  0  0  0  0  0  0  0  0  0  0
  135.7880   71.9620  223.9850 N   0  0  0  0  0  0  0  0  0  0  0  0
  134.7620   71.8160  224.9600 C   0  0  0  0  0  0  0  0  0  0  0  0
  134.0690   72.8810  225.4990 C   0  0  0  0  0  0  0  0  0  0  0  0
  133.0730   72.6850  226.4480 C   0  0  0  0  0  0  0  0  0  0  0  0
  132.7410   71.4270  226.8830 C   0  0  0  0  0  0  0  0  0  0  0  0
  133.4260   70.3500  226.3520 C   0  0  0  0  0  0  0  0  0  0  0  0
  134.3980   70.5590  225.4250 C   0  0  0  0  0  0  0  0  0  0  0  0
  136.6650   70.9130  223.5610 C   0  0  0  0  0  0  0  0  0  0  0  0
  138.0870   71.4670  223.5130 C   0  0  0  0  0  0  0  0  0  0  0  0
  139.6640   74.3660  222.0780 N   0  0  0  0  0  0  0  0  0  0  0  0
  140.8460   74.8520  221.6220 C   0  0  0  0  0  0  0  0  0  0  0  0
  141.1280   76.2460  221.5720 N   0  0  0  0  0  0  0  0  0  0  0  0
  141.8100   76.8520  220.4410 C   0  0  0  0  0  0  0  0  0  0  0  0
  141.1070   78.1960  220.2040 C   0  0  0  0  0  0  0  0  0  0  0  0
  141.4290   79.0230  221.3980 C   0  0  0  0  0  0  0  0  0  0  0  0
  141.9080   80.3100  221.2610 C   0  0  0  0  0  0  0  0  0  0  0  0
  142.2000   81.0580  222.4050 C   0  0  0  0  0  0  0  0  0  0  0  0
  141.9980   80.4810  223.6460 C   0  0  0  0  0  0  0  0  0  0  0  0
  141.5160   79.1870  223.7570 C   0  0  0  0  0  0  0  0  0  0  0  0
  141.2230   78.4360  222.6310 C   0  0  0  0  0  0  0  0  0  0  0  0
  140.7070   77.0530  222.7010 C   0  0  0  0  0  0  0  0  0  0  0  0
  141.7420   73.9350  221.2150 N   0  0  0  0  0  0  0  0  0  0  0  0
  143.6980   72.2470  220.1070 C   0  0  0  0  0  0  0  0  0  0  0  0
  144.5540   71.2300  219.4270 C   0  0  0  0  0  0  0  0  0  0  0  0
  147.4160   68.9030  217.8340 H   0  0  0  0  0  0  0  0  0  0  0  0
  146.6600   70.5250  218.1620 H   0  0  0  0  0  0  0  0  0  0  0  0
  144.1467   68.5514  217.5854 H   0  0  0  0  0  0  0  0  0  0  0  0
  143.5804   68.5319  219.3117 H   0  0  0  0  0  0  0  0  0  0  0  0
  142.2002   71.5254  217.9927 H   0  0  0  0  0  0  0  0  0  0  0  0
  142.0018   69.7155  217.9642 H   0  0  0  0  0  0  0  0  0  0  0  0
  140.7922   70.8412  219.8134 H   0  0  0  0  0  0  0  0  0  0  0  0
  142.0405   69.6075  220.3258 H   0  0  0  0  0  0  0  0  0  0  0  0
  142.9015   71.0956  221.6879 H   0  0  0  0  0  0  0  0  0  0  0  0
  137.1325   74.2345  221.8543 H   0  0  0  0  0  0  0  0  0  0  0  0
  136.4722   72.6156  221.3993 H   0  0  0  0  0  0  0  0  0  0  0  0
  136.3466   73.9710  224.1278 H   0  0  0  0  0  0  0  0  0  0  0  0
  134.9796   73.6086  222.9988 H   0  0  0  0  0  0  0  0  0  0  0  0
  134.3094   73.9032  225.1715 H   0  0  0  0  0  0  0  0  0  0  0  0
  132.5404   73.5556  226.8584 H   0  0  0  0  0  0  0  0  0  0  0  0
  131.9510   71.2793  227.6341 H   0  0  0  0  0  0  0  0  0  0  0  0
  133.1853   69.3275  226.6785 H   0  0  0  0  0  0  0  0  0  0  0  0
  134.9261   69.6830  225.0203 H   0  0  0  0  0  0  0  0  0  0  0  0
  136.6157   70.0762  224.2733 H   0  0  0  0  0  0  0  0  0  0  0  0
  136.3667   70.5481  222.5671 H   0  0  0  0  0  0  0  0  0  0  0  0
  138.3771   71.8018  224.5199 H   0  0  0  0  0  0  0  0  0  0  0  0
  138.7618   70.6721  223.1626 H   0  0  0  0  0  0  0  0  0  0  0  0
  142.8731   77.0111  220.6744 H   0  0  0  0  0  0  0  0  0  0  0  0
  141.7682   76.2090  219.5495 H   0  0  0  0  0  0  0  0  0  0  0  0
  141.4882   78.6743  219.2897 H   0  0  0  0  0  0  0  0  0  0  0  0
  140.0220   78.0735  220.0703 H   0  0  0  0  0  0  0  0  0  0  0  0
  142.0586   80.7430  220.2611 H   0  0  0  0  0  0  0  0  0  0  0  0
  142.5830   82.0857  222.3202 H   0  0  0  0  0  0  0  0  0  0  0  0
  142.2229   81.0568  224.5559 H   0  0  0  0  0  0  0  0  0  0  0  0
  141.3637   78.7494  224.7547 H   0  0  0  0  0  0  0  0  0  0  0  0
  141.0754   76.5853  223.6260 H   0  0  0  0  0  0  0  0  0  0  0  0
  139.6083   77.1046  222.6841 H   0  0  0  0  0  0  0  0  0  0  0  0
  143.3308   72.9637  219.3576 H   0  0  0  0  0  0  0  0  0  0  0  0
  144.3060   72.7551  220.8701 H   0  0  0  0  0  0  0  0  0  0  0  0
  145.3582   71.7598  218.8954 H   0  0  0  0  0  0  0  0  0  0  0  0
  144.9242   70.5591  220.2162 H   0  0  0  0  0  0  0  0  0  0  0  0
  1  2  1  0
  2  3  2  0
  2  4  1  0
  4  5  1  0
  5  6  1  0
  6  7  1  0
  7  8  1  0
  8  9  1  0
  9 10  2  0
 10 11  1  0
 11 12  1  0
 12 13  1  0
 13 14  1  0
 14 15  1  0
 15 16  1  0
 16 17  2  0
 17 18  1  0
 18 19  2  0
 19 20  1  0
 20 21  2  0
 15 22  1  0
 22 23  1  0
 11 24  2  0
 24 25  1  0
 25 26  1  0
 26 27  1  0
 27 28  1  0
 28 29  1  0
 29 30  2  0
 30 31  1  0
 31 32  2  0
 32 33  1  0
 33 34  2  0
 34 35  1  0
 25 36  2  0
  8 37  1  0
 37 38  1  0
 38  5  1  0
 36  9  1  0
 23 12  1  0
 35 26  1  0
 21 16  1  0
 34 29  1  0
  1 39  1  0
  1 40  1  0
  4 41  1  0
  4 42  1  0
  6 43  1  0
  6 44  1  0
  7 45  1  0
  7 46  1  0
  8 47  1  0
 13 48  1  0
 13 49  1  0
 14 50  1  0
 14 51  1  0
 17 52  1  0
 18 53  1  0
 19 54  1  0
 20 55  1  0
 21 56  1  0
 22 57  1  0
 22 58  1  0
 23 59  1  0
 23 60  1  0
 27 61  1  0
 27 62  1  0
 28 63  1  0
 28 64  1  0
 30 65  1  0
 31 66  1  0
 32 67  1  0
 33 68  1  0
 35 69  1  0
 35 70  1  0
 37 71  1  0
 37 72  1  0
 38 73  1  0
 38 74  1  0
M  END
>  <smiles>  (1) 
NC(=O)CN1CCC(c2nc(N3CCN(c4ccccc4)CC3)nc(N3CCc4ccccc4C3)n2)CC1

>  <score_type>  (1) 
oracle

>  <origin>  (1) 
autodockgpu

>  <m_score__min__energy>  (1) 
-9.5199999999999996

>  <m_primary>  (1) 
energy

>  <rmsd>  (1) 
6.297697103888133

>  <m_score__min__rmsd>  (1) 
6.297697103888133

>  <meeko>  (1) 
{"free_energy": -8.92, "intermolecular_energy": -10.71, "internal_energy": -1.49, "cluster_size": 11, "cluster_id": 3, "rank_in_cluster": 2}

>  <energy>  (1) 
-9.52

>  <cluster_rmsd>  (1) 
0.0

>  <cluster>  (1) 
1

$$$$

     RDKit          3D

 74 79  0  0  0  0  0  0  0  0999 V2000
  146.3590   74.9430  215.8430 N   0  0  0  0  0  0  0  0  0  0  0  0
  146.4700   73.5410  216.0740 C   0  0  0  0  0  0  0  0  0  0  0  0
  147.4400   72.8910  215.6000 O   0  0  0  0  0  0  0  0  0  0  0  0
  145.3990   72.9100  216.8870 C   0  0  0  0  0  0  0  0  0  0  0  0
  145.0150   73.7280  218.0140 N   0  0  0  0  0  0  0  0  0  0  0  0
  143.6110   74.0290  218.0060 C   0  0  0  0  0  0  0  0  0  0  0  0
  142.7760   72.9330  218.6250 C   0  0  0  0  0  0  0  0  0  0  0  0
  143.2200   72.5430  220.0080 C   0  0  0  0  0  0  0  0  0  0  0  0
  142.1340   72.7980  220.9810 C   0  0  0  0  0  0  0  0  0  0  0  0
  141.5290   73.9970  220.9360 N   0  0  0  0  0  0  0  0  0  0  0  0
  140.5420   74.2380  221.8160 C   0  0  0  0  0  0  0  0  0  0  0  0
  139.8840   75.4980  221.7940 N   0  0  0  0  0  0  0  0  0  0  0  0
  140.5860   76.7210  221.4410 C   0  0  0  0  0  0  0  0  0  0  0  0
  140.1110   77.8840  222.2980 C   0  0  0  0  0  0  0  0  0  0  0  0
  138.6630   78.0080  222.2630 N   0  0  0  0  0  0  0  0  0  0  0  0
  138.0850   79.1670  222.8500 C   0  0  0  0  0  0  0  0  0  0  0  0
  136.8300   79.6400  222.5220 C   0  0  0  0  0  0  0  0  0  0  0  0
  136.3080   80.7780  223.1280 C   0  0  0  0  0  0  0  0  0  0  0  0
  137.0210   81.4720  224.0720 C   0  0  0  0  0  0  0  0  0  0  0  0
  138.2790   81.0110  224.4110 C   0  0  0  0  0  0  0  0  0  0  0  0
  138.7750   79.8970  223.8100 C   0  0  0  0  0  0  0  0  0  0  0  0
  137.9210   76.9540  221.6380 C   0  0  0  0  0  0  0  0  0  0  0  0
  138.4820   75.6200  222.1240 C   0  0  0  0  0  0  0  0  0  0  0  0
  140.1510   73.3240  222.7230 N   0  0  0  0  0  0  0  0  0  0  0  0
  140.7470   72.1070  222.7840 C   0  0  0  0  0  0  0  0  0  0  0  0
  140.3610   71.1160  223.7290 N   0  0  0  0  0  0  0  0  0  0  0  0
  139.0760   70.4400  223.6540 C   0  0  0  0  0  0  0  0  0  0  0  0
  139.3560   68.9750  224.0160 C   0  0  0  0  0  0  0  0  0  0  0  0
  139.7520   68.9940  225.4500 C   0  0  0  0  0  0  0  0  0  0  0  0
  139.1680   68.1340  226.3580 C   0  0  0  0  0  0  0  0  0  0  0  0
  139.5660   68.1810  227.6980 C   0  0  0  0  0  0  0  0  0  0  0  0
  140.5370   69.0920  228.0730 C   0  0  0  0  0  0  0  0  0  0  0  0
  141.1080   69.9440  227.1410 C   0  0  0  0  0  0  0  0  0  0  0  0
  140.7230   69.9080  225.8120 C   0  0  0  0  0  0  0  0  0  0  0  0
  141.3030   70.7970  224.7850 C   0  0  0  0  0  0  0  0  0  0  0  0
  141.7330   71.8890  221.8950 N   0  0  0  0  0  0  0  0  0  0  0  0
  144.4970   73.2610  220.3740 C   0  0  0  0  0  0  0  0  0  0  0  0
  145.4900   73.2150  219.2600 C   0  0  0  0  0  0  0  0  0  0  0  0
  146.2820   75.3090  214.8650 H   0  0  0  0  0  0  0  0  0  0  0  0
  146.3570   75.6160  216.6570 H   0  0  0  0  0  0  0  0  0  0  0  0
  144.5175   72.7502  216.2487 H   0  0  0  0  0  0  0  0  0  0  0  0
  145.7884   71.9584  217.2779 H   0  0  0  0  0  0  0  0  0  0  0  0
  143.4471   74.9582  218.5715 H   0  0  0  0  0  0  0  0  0  0  0  0
  143.2992   74.1312  216.9561 H   0  0  0  0  0  0  0  0  0  0  0  0
  141.7334   73.2795  218.6797 H   0  0  0  0  0  0  0  0  0  0  0  0
  142.8896   72.0435  217.9880 H   0  0  0  0  0  0  0  0  0  0  0  0
  143.4377   71.4650  220.0316 H   0  0  0  0  0  0  0  0  0  0  0  0
  141.6650   76.5752  221.5973 H   0  0  0  0  0  0  0  0  0  0  0  0
  140.3795   76.9536  220.3859 H   0  0  0  0  0  0  0  0  0  0  0  0
  140.4316   77.7180  223.3371 H   0  0  0  0  0  0  0  0  0  0  0  0
  140.5489   78.8110  221.8995 H   0  0  0  0  0  0  0  0  0  0  0  0
  136.2322   79.1073  221.7678 H   0  0  0  0  0  0  0  0  0  0  0  0
  135.3044   81.1280  222.8448 H   0  0  0  0  0  0  0  0  0  0  0  0
  136.6026   82.3718  224.5468 H   0  0  0  0  0  0  0  0  0  0  0  0
  138.8772   81.5439  225.1648 H   0  0  0  0  0  0  0  0  0  0  0  0
  139.7792   79.5542  224.1001 H   0  0  0  0  0  0  0  0  0  0  0  0
  136.8588   77.0332  221.9128 H   0  0  0  0  0  0  0  0  0  0  0  0
  138.0083   77.0260  220.5438 H   0  0  0  0  0  0  0  0  0  0  0  0
  138.3622   75.5553  223.2155 H   0  0  0  0  0  0  0  0  0  0  0  0
  137.9325   74.8065  221.6278 H   0  0  0  0  0  0  0  0  0  0  0  0
  138.3672   70.8831  224.3690 H   0  0  0  0  0  0  0  0  0  0  0  0
  138.6262   70.5325  222.6545 H   0  0  0  0  0  0  0  0  0  0  0  0
  138.4528   68.3635  223.8737 H   0  0  0  0  0  0  0  0  0  0  0  0
  140.1397   68.5378  223.3798 H   0  0  0  0  0  0  0  0  0  0  0  0
  138.3980   67.4195  226.0314 H   0  0  0  0  0  0  0  0  0  0  0  0
  139.1151   67.5058  228.4401 H   0  0  0  0  0  0  0  0  0  0  0  0
  140.8598   69.1408  229.1234 H   0  0  0  0  0  0  0  0  0  0  0  0
  141.8790   70.6598  227.4623 H   0  0  0  0  0  0  0  0  0  0  0  0
  141.6216   71.7326  225.2678 H   0  0  0  0  0  0  0  0  0  0  0  0
  142.1518   70.2684  224.3267 H   0  0  0  0  0  0  0  0  0  0  0  0
  144.2636   74.3116  220.6014 H   0  0  0  0  0  0  0  0  0  0  0  0
  144.9364   72.7589  221.2485 H   0  0  0  0  0  0  0  0  0  0  0  0
  146.3690   73.8043  219.5602 H   0  0  0  0  0  0  0  0  0  0  0  0
  145.7179   72.1522  219.0913 H   0  0  0  0  0  0  0  0  0  0  0  0
  1  2  1  0
  2  3  2  0
  2  4  1  0
  4  5  1  0
  5  6  1  0
  6  7  1  0
  7  8  1  0
  8  9  1  0
  9 10  2  0
 10 11  1  0
 11 12  1  0
 12 13  1  0
 13 14  1  0
 14 15  1  0
 15 16  1  0
 16 17  2  0
 17 18  1  0
 18 19  2  0
 19 20  1  0
 20 21  2  0
 15 22  1  0
 22 23  1  0
 11 24  2  0
 24 25  1  0
 25 26  1  0
 26 27  1  0
 27 28  1  0
 28 29  1  0
 29 30  2  0
 30 31  1  0
 31 32  2  0
 32 33  1  0
 33 34  2  0
 34 35  1  0
 25 36  2  0
  8 37  1  0
 37 38  1  0
 38  5  1  0
 36  9  1  0
 23 12  1  0
 35 26  1  0
 21 16  1  0
 34 29  1  0
  1 39  1  0
  1 40  1  0
  4 41  1  0
  4 42  1  0
  6 43  1  0
  6 44  1  0
  7 45  1  0
  7 46  1  0
  8 47  1  0
 13 48  1  0
 13 49  1  0
 14 50  1  0
 14 51  1  0
 17 52  1  0
 18 53  1  0
 19 54  1  0
 20 55  1  0
 21 56  1  0
 22 57  1  0
 22 58  1  0
 23 59  1  0
 23 60  1  0
 27 61  1  0
 27 62  1  0
 28 63  1  0
 28 64  1  0
 30 65  1  0
 31 66  1  0
 32 67  1  0
 33 68  1  0
 35 69  1  0
 35 70  1  0
 37 71  1  0
 37 72  1  0
 38 73  1  0
 38 74  1  0
M  END
>  <smiles>  (2) 
NC(=O)CN1CCC(c2nc(N3CCN(c4ccccc4)CC3)nc(N3CCc4ccccc4C3)n2)CC1

>  <score_type>  (2) 
oracle

>  <origin>  (2) 
autodockgpu

>  <m_score__min__energy>  (2) 
-9.5199999999999996

>  <m_primary>  (2) 
energy

>  <rmsd>  (2) 
8.2838270411915

>  <m_score__min__rmsd>  (2) 
8.2838270411915

>  <meeko>  (2) 
{"free_energy": -8.75, "intermolecular_energy": -10.54, "internal_energy": -1.54, "cluster_size": 25, "cluster_id": 1, "rank_in_cluster": 18}

>  <energy>  (2) 
-9.48

>  <cluster_rmsd>  (2) 
0.15

>  <cluster>  (2) 
1

$$$$

     RDKit          3D

 74 79  0  0  0  0  0  0  0  0999 V2000
  144.1910   68.9110  218.6960 N   0  0  0  0  0  0  0  0  0  0  0  0
  145.5050   69.4440  218.8330 C   0  0  0  0  0  0  0  0  0  0  0  0
  146.3010   68.9680  219.6870 O   0  0  0  0  0  0  0  0  0  0  0  0
  145.8680   70.5680  217.9320 C   0  0  0  0  0  0  0  0  0  0  0  0
  145.5700   71.8550  218.5170 N   0  0  0  0  0  0  0  0  0  0  0  0
  144.2680   72.3280  218.1380 C   0  0  0  0  0  0  0  0  0  0  0  0
  143.1680   71.7710  219.0100 C   0  0  0  0  0  0  0  0  0  0  0  0
  143.3960   71.9860  220.4820 C   0  0  0  0  0  0  0  0  0  0  0  0
  142.3080   72.8150  221.0480 C   0  0  0  0  0  0  0  0  0  0  0  0
  141.2690   72.1740  221.6100 N   0  0  0  0  0  0  0  0  0  0  0  0
  140.2750   72.9180  222.1260 C   0  0  0  0  0  0  0  0  0  0  0  0
  139.1610   72.2680  222.7260 N   0  0  0  0  0  0  0  0  0  0  0  0
  139.3150   71.3890  223.8720 C   0  0  0  0  0  0  0  0  0  0  0  0
  138.3750   70.1980  223.7700 C   0  0  0  0  0  0  0  0  0  0  0  0
  137.0050   70.6250  223.5390 N   0  0  0  0  0  0  0  0  0  0  0  0
  135.9820   69.6400  223.6210 C   0  0  0  0  0  0  0  0  0  0  0  0
  135.6400   68.8100  222.5720 C   0  0  0  0  0  0  0  0  0  0  0  0
  134.6340   67.8600  222.7050 C   0  0  0  0  0  0  0  0  0  0  0  0
  133.9450   67.7120  223.8820 C   0  0  0  0  0  0  0  0  0  0  0  0
  134.2760   68.5360  224.9410 C   0  0  0  0  0  0  0  0  0  0  0  0
  135.2630   69.4590  224.7960 C   0  0  0  0  0  0  0  0  0  0  0  0
  136.7810   72.0090  223.2440 C   0  0  0  0  0  0  0  0  0  0  0  0
  137.8210   72.4540  222.2180 C   0  0  0  0  0  0  0  0  0  0  0  0
  140.2960   74.2630  222.0950 N   0  0  0  0  0  0  0  0  0  0  0  0
  141.3360   74.9290  221.5340 C   0  0  0  0  0  0  0  0  0  0  0  0
  141.3920   76.3500  221.4830 N   0  0  0  0  0  0  0  0  0  0  0  0
  141.7730   77.0610  220.2740 C   0  0  0  0  0  0  0  0  0  0  0  0
  140.8460   78.2830  220.2020 C   0  0  0  0  0  0  0  0  0  0  0  0
  141.2380   79.1410  221.3520 C   0  0  0  0  0  0  0  0  0  0  0  0
  141.4880   80.4880  221.1790 C   0  0  0  0  0  0  0  0  0  0  0  0
  141.8540   81.2640  222.2820 C   0  0  0  0  0  0  0  0  0  0  0  0
  141.9550   80.6540  223.5200 C   0  0  0  0  0  0  0  0  0  0  0  0
  141.6990   79.3010  223.6670 C   0  0  0  0  0  0  0  0  0  0  0  0
  141.3360   78.5220  222.5830 C   0  0  0  0  0  0  0  0  0  0  0  0
  141.0530   77.0750  222.6920 C   0  0  0  0  0  0  0  0  0  0  0  0
  142.3180   74.1640  221.0230 N   0  0  0  0  0  0  0  0  0  0  0  0
  144.7590   72.5890  220.7220 C   0  0  0  0  0  0  0  0  0  0  0  0
  145.8140   71.8950  219.9250 C   0  0  0  0  0  0  0  0  0  0  0  0
  143.5260   68.9350  219.5050 H   0  0  0  0  0  0  0  0  0  0  0  0
  143.8840   68.4870  217.7780 H   0  0  0  0  0  0  0  0  0  0  0  0
  146.9459   70.5170  217.7187 H   0  0  0  0  0  0  0  0  0  0  0  0
  145.2725   70.4692  217.0124 H   0  0  0  0  0  0  0  0  0  0  0  0
  144.2563   73.4252  218.2149 H   0  0  0  0  0  0  0  0  0  0  0  0
  144.0788   71.9898  217.1085 H   0  0  0  0  0  0  0  0  0  0  0  0
  142.2224   72.2584  218.7301 H   0  0  0  0  0  0  0  0  0  0  0  0
  143.1449   70.6839  218.8435 H   0  0  0  0  0  0  0  0  0  0  0  0
  143.3765   71.0162  221.0007 H   0  0  0  0  0  0  0  0  0  0  0  0
  140.3529   71.0268  223.9116 H   0  0  0  0  0  0  0  0  0  0  0  0
  139.0710   71.9533  224.7841 H   0  0  0  0  0  0  0  0  0  0  0  0
  138.6966   69.5582  222.9350 H   0  0  0  0  0  0  0  0  0  0  0  0
  138.4108   69.6449  224.7202 H   0  0  0  0  0  0  0  0  0  0  0  0
  136.1730   68.9021  221.6142 H   0  0  0  0  0  0  0  0  0  0  0  0
  134.3855   67.2143  221.8498 H   0  0  0  0  0  0  0  0  0  0  0  0
  133.1504   66.9577  223.9803 H   0  0  0  0  0  0  0  0  0  0  0  0
  133.7421   68.4451  225.8985 H   0  0  0  0  0  0  0  0  0  0  0  0
  135.5062   70.0986  225.6572 H   0  0  0  0  0  0  0  0  0  0  0  0
  135.7702   72.1426  222.8313 H   0  0  0  0  0  0  0  0  0  0  0  0
  136.8699   72.6114  224.1601 H   0  0  0  0  0  0  0  0  0  0  0  0
  137.6983   71.8600  221.3003 H   0  0  0  0  0  0  0  0  0  0  0  0
  137.6709   73.5232  222.0074 H   0  0  0  0  0  0  0  0  0  0  0  0
  142.8242   77.3797  220.3315 H   0  0  0  0  0  0  0  0  0  0  0  0
  141.6772   76.4252  219.3815 H   0  0  0  0  0  0  0  0  0  0  0  0
  140.9902   78.8207  219.2533 H   0  0  0  0  0  0  0  0  0  0  0  0
  139.7850   77.9962  220.2471 H   0  0  0  0  0  0  0  0  0  0  0  0
  141.3999   80.9457  220.1826 H   0  0  0  0  0  0  0  0  0  0  0  0
  142.0579   82.3390  222.1684 H   0  0  0  0  0  0  0  0  0  0  0  0
  142.2421   81.2511  224.3981 H   0  0  0  0  0  0  0  0  0  0  0  0
  141.7857   78.8385  224.6613 H   0  0  0  0  0  0  0  0  0  0  0  0
  141.6393   76.6628  223.5265 H   0  0  0  0  0  0  0  0  0  0  0  0
  139.9722   76.9577  222.8600 H   0  0  0  0  0  0  0  0  0  0  0  0
  144.7354   73.6507  220.4354 H   0  0  0  0  0  0  0  0  0  0  0  0
  145.0028   72.4759  221.7887 H   0  0  0  0  0  0  0  0  0  0  0  0
  146.7682   72.4159  220.0927 H   0  0  0  0  0  0  0  0  0  0  0  0
  145.8251   70.8499  220.2680 H   0  0  0  0  0  0  0  0  0  0  0  0
  1  2  1  0
  2  3  2  0
  2  4  1  0
  4  5  1  0
  5  6  1  0
  6  7  1  0
  7  8  1  0
  8  9  1  0
  9 10  2  0
 10 11  1  0
 11 12  1  0
 12 13  1  0
 13 14  1  0
 14 15  1  0
 15 16  1  0
 16 17  2  0
 17 18  1  0
 18 19  2  0
 19 20  1  0
 20 21  2  0
 15 22  1  0
 22 23  1  0
 11 24  2  0
 24 25  1  0
 25 26  1  0
 26 27  1  0
 27 28  1  0
 28 29  1  0
 29 30  2  0
 30 31  1  0
 31 32  2  0
 32 33  1  0
 33 34  2  0
 34 35  1  0
 25 36  2  0
  8 37  1  0
 37 38  1  0
 38  5  1  0
 36  9  1  0
 23 12  1  0
 35 26  1  0
 21 16  1  0
 34 29  1  0
  1 39  1  0
  1 40  1  0
  4 41  1  0
  4 42  1  0
  6 43  1  0
  6 44  1  0
  7 45  1  0
  7 46  1  0
  8 47  1  0
 13 48  1  0
 13 49  1  0
 14 50  1  0
 14 51  1  0
 17 52  1  0
 18 53  1  0
 19 54  1  0
 20 55  1  0
 21 56  1  0
 22 57  1  0
 22 58  1  0
 23 59  1  0
 23 60  1  0
 27 61  1  0
 27 62  1  0
 28 63  1  0
 28 64  1  0
 30 65  1  0
 31 66  1  0
 32 67  1  0
 33 68  1  0
 35 69  1  0
 35 70  1  0
 37 71  1  0
 37 72  1  0
 38 73  1  0
 38 74  1  0
M  END
>  <smiles>  (3) 
NC(=O)CN1CCC(c2nc(N3CCN(c4ccccc4)CC3)nc(N3CCc4ccccc4C3)n2)CC1

>  <score_type>  (3) 
oracle

>  <origin>  (3) 
autodockgpu

>  <m_score__min__energy>  (3) 
-9.5199999999999996

>  <m_primary>  (3) 
energy

>  <rmsd>  (3) 
5.702480485530507

>  <m_score__min__rmsd>  (3) 
5.702480485530507

>  <meeko>  (3) 
{"free_energy": -8.3, "intermolecular_energy": -10.09, "internal_energy": -1.44, "cluster_size": 11, "cluster_id": 3, "rank_in_cluster": 11}

>  <energy>  (3) 
-9.46

>  <cluster_rmsd>  (3) 
0.18

>  <cluster>  (3) 
1

$$$$

     RDKit          3D

 74 79  0  0  0  0  0  0  0  0999 V2000
  146.2830   66.7490  218.8450 N   0  0  0  0  0  0  0  0  0  0  0  0
  145.9250   68.1260  218.7520 C   0  0  0  0  0  0  0  0  0  0  0  0
  146.4520   68.9750  219.5200 O   0  0  0  0  0  0  0  0  0  0  0  0
  144.9180   68.4860  217.7210 C   0  0  0  0  0  0  0  0  0  0  0  0
  143.5960   68.6420  218.2810 N   0  0  0  0  0  0  0  0  0  0  0  0
  143.6350   68.8450  219.7030 C   0  0  0  0  0  0  0  0  0  0  0  0
  143.8720   70.2880  220.0790 C   0  0  0  0  0  0  0  0  0  0  0  0
  142.9050   71.2470  219.4390 C   0  0  0  0  0  0  0  0  0  0  0  0
  142.1280   71.9550  220.4810 C   0  0  0  0  0  0  0  0  0  0  0  0
  141.9240   73.2720  220.3150 N   0  0  0  0  0  0  0  0  0  0  0  0
  141.2190   73.9240  221.2570 C   0  0  0  0  0  0  0  0  0  0  0  0
  140.9890   75.3190  221.1090 N   0  0  0  0  0  0  0  0  0  0  0  0
  141.5670   76.0790  220.0130 C   0  0  0  0  0  0  0  0  0  0  0  0
  141.9970   77.4600  220.4800 C   0  0  0  0  0  0  0  0  0  0  0  0
  140.9130   78.1480  221.1620 N   0  0  0  0  0  0  0  0  0  0  0  0
  141.0980   79.5230  221.4780 C   0  0  0  0  0  0  0  0  0  0  0  0
  141.6720   79.9620  222.6550 C   0  0  0  0  0  0  0  0  0  0  0  0
  141.8320   81.3180  222.9150 C   0  0  0  0  0  0  0  0  0  0  0  0
  141.4280   82.2690  222.0130 C   0  0  0  0  0  0  0  0  0  0  0  0
  140.8520   81.8450  220.8300 C   0  0  0  0  0  0  0  0  0  0  0  0
  140.7020   80.5160  220.5910 C   0  0  0  0  0  0  0  0  0  0  0  0
  139.7350   77.3930  221.4670 C   0  0  0  0  0  0  0  0  0  0  0  0
  140.1650   76.0480  222.0480 C   0  0  0  0  0  0  0  0  0  0  0  0
  140.7230   73.3000  222.3400 N   0  0  0  0  0  0  0  0  0  0  0  0
  140.9160   71.9710  222.5270 C   0  0  0  0  0  0  0  0  0  0  0  0
  140.4070   71.2780  223.6600 N   0  0  0  0  0  0  0  0  0  0  0  0
  139.0570   70.7410  223.6890 C   0  0  0  0  0  0  0  0  0  0  0  0
  139.1670   69.3820  224.3970 C   0  0  0  0  0  0  0  0  0  0  0  0
  139.5370   69.7010  225.8020 C   0  0  0  0  0  0  0  0  0  0  0  0
  138.8460   69.1460  226.8600 C   0  0  0  0  0  0  0  0  0  0  0  0
  139.2230   69.4680  228.1680 C   0  0  0  0  0  0  0  0  0  0  0  0
  140.2820   70.3370  228.3600 C   0  0  0  0  0  0  0  0  0  0  0  0
  140.9600   70.8800  227.2810 C   0  0  0  0  0  0  0  0  0  0  0  0
  140.5960   70.5690  225.9820 C   0  0  0  0  0  0  0  0  0  0  0  0
  141.2900   71.1240  224.8000 C   0  0  0  0  0  0  0  0  0  0  0  0
  141.6250   71.3400  221.5720 N   0  0  0  0  0  0  0  0  0  0  0  0
  142.0180   70.5230  218.4550 C   0  0  0  0  0  0  0  0  0  0  0  0
  142.8050   69.6040  217.5800 C   0  0  0  0  0  0  0  0  0  0  0  0
  146.1200   66.2230  219.7360 H   0  0  0  0  0  0  0  0  0  0  0  0
  146.7170   66.2570  218.0170 H   0  0  0  0  0  0  0  0  0  0  0  0
  145.2171   69.4337  217.2493 H   0  0  0  0  0  0  0  0  0  0  0  0
  144.8793   67.6681  216.9865 H   0  0  0  0  0  0  0  0  0  0  0  0
  142.6742   68.5230  220.1310 H   0  0  0  0  0  0  0  0  0  0  0  0
  144.4748   68.2558  220.1000 H   0  0  0  0  0  0  0  0  0  0  0  0
  143.7820   70.3814  221.1713 H   0  0  0  0  0  0  0  0  0  0  0  0
  144.8758   70.5539  219.7161 H   0  0  0  0  0  0  0  0  0  0  0  0
  143.4635   72.0059  218.8714 H   0  0  0  0  0  0  0  0  0  0  0  0
  142.4440   75.5407  219.6243 H   0  0  0  0  0  0  0  0  0  0  0  0
  140.8077   76.1942  219.2255 H   0  0  0  0  0  0  0  0  0  0  0  0
  142.8465   77.3562  221.1710 H   0  0  0  0  0  0  0  0  0  0  0  0
  142.2831   78.0515  219.5978 H   0  0  0  0  0  0  0  0  0  0  0  0
  142.0084   79.2256  223.3997 H   0  0  0  0  0  0  0  0  0  0  0  0
  142.2917   81.6347  223.8628 H   0  0  0  0  0  0  0  0  0  0  0  0
  141.5588   83.3404  222.2252 H   0  0  0  0  0  0  0  0  0  0  0  0
  140.5163   82.5811  220.0847 H   0  0  0  0  0  0  0  0  0  0  0  0
  140.2406   80.2088  219.6409 H   0  0  0  0  0  0  0  0  0  0  0  0
  139.1241   77.9375  222.2020 H   0  0  0  0  0  0  0  0  0  0  0  0
  139.1371   77.2390  220.5566 H   0  0  0  0  0  0  0  0  0  0  0  0
  140.7379   76.2211  222.9709 H   0  0  0  0  0  0  0  0  0  0  0  0
  139.2644   75.4532  222.2603 H   0  0  0  0  0  0  0  0  0  0  0  0
  138.3889   71.4123  224.2485 H   0  0  0  0  0  0  0  0  0  0  0  0
  138.6379   70.6395  222.6770 H   0  0  0  0  0  0  0  0  0  0  0  0
  138.2044   68.8507  224.3631 H   0  0  0  0  0  0  0  0  0  0  0  0
  139.9086   68.7274  223.9158 H   0  0  0  0  0  0  0  0  0  0  0  0
  138.0077   68.4578  226.6766 H   0  0  0  0  0  0  0  0  0  0  0  0
  138.6876   69.0384  229.0275 H   0  0  0  0  0  0  0  0  0  0  0  0
  140.5897   70.6002  229.3828 H   0  0  0  0  0  0  0  0  0  0  0  0
  141.7996   71.5681  227.4588 H   0  0  0  0  0  0  0  0  0  0  0  0
  141.7019   72.1095  225.0630 H   0  0  0  0  0  0  0  0  0  0  0  0
  142.0835   70.4173  224.5155 H   0  0  0  0  0  0  0  0  0  0  0  0
  141.2727   69.9355  219.0112 H   0  0  0  0  0  0  0  0  0  0  0  0
  141.5290   71.2727  217.8156 H   0  0  0  0  0  0  0  0  0  0  0  0
  142.1008   69.0615  216.9320 H   0  0  0  0  0  0  0  0  0  0  0  0
  143.5098   70.2365  217.0203 H   0  0  0  0  0  0  0  0  0  0  0  0
  1  2  1  0
  2  3  2  0
  2  4  1  0
  4  5  1  0
  5  6  1  0
  6  7  1  0
  7  8  1  0
  8  9  1  0
  9 10  2  0
 10 11  1  0
 11 12  1  0
 12 13  1  0
 13 14  1  0
 14 15  1  0
 15 16  1  0
 16 17  2  0
 17 18  1  0
 18 19  2  0
 19 20  1  0
 20 21  2  0
 15 22  1  0
 22 23  1  0
 11 24  2  0
 24 25  1  0
 25 26  1  0
 26 27  1  0
 27 28  1  0
 28 29  1  0
 29 30  2  0
 30 31  1  0
 31 32  2  0
 32 33  1  0
 33 34  2  0
 34 35  1  0
 25 36  2  0
  8 37  1  0
 37 38  1  0
 38  5  1  0
 36  9  1  0
 23 12  1  0
 35 26  1  0
 21 16  1  0
 34 29  1  0
  1 39  1  0
  1 40  1  0
  4 41  1  0
  4 42  1  0
  6 43  1  0
  6 44  1  0
  7 45  1  0
  7 46  1  0
  8 47  1  0
 13 48  1  0
 13 49  1  0
 14 50  1  0
 14 51  1  0
 17 52  1  0
 18 53  1  0
 19 54  1  0
 20 55  1  0
 21 56  1  0
 22 57  1  0
 22 58  1  0
 23 59  1  0
 23 60  1  0
 27 61  1  0
 27 62  1  0
 28 63  1  0
 28 64  1  0
 30 65  1  0
 31 66  1  0
 32 67  1  0
 33 68  1  0
 35 69  1  0
 35 70  1  0
 37 71  1  0
 37 72  1  0
 38 73  1  0
 38 74  1  0
M  END
>  <smiles>  (4) 
NC(=O)CN1CCC(c2nc(N3CCN(c4ccccc4)CC3)nc(N3CCc4ccccc4C3)n2)CC1

>  <score_type>  (4) 
oracle

>  <origin>  (4) 
autodockgpu

>  <m_score__min__energy>  (4) 
-9.5199999999999996

>  <m_primary>  (4) 
energy

>  <rmsd>  (4) 
8.948985955403844

>  <m_score__min__rmsd>  (4) 
8.948985955403844

>  <meeko>  (4) 
{"free_energy": -9.23, "intermolecular_energy": -11.02, "internal_energy": -1.34, "cluster_size": 5, "cluster_id": 2, "rank_in_cluster": 2}

>  <energy>  (4) 
-9.44

>  <cluster_rmsd>  (4) 
0.24

>  <cluster>  (4) 
1

$$$$

     RDKit          3D

 74 79  0  0  0  0  0  0  0  0999 V2000
  145.9070   74.7060  216.0320 N   0  0  0  0  0  0  0  0  0  0  0  0
  146.4500   73.4160  216.2990 C   0  0  0  0  0  0  0  0  0  0  0  0
  147.6260   73.1330  215.9450 O   0  0  0  0  0  0  0  0  0  0  0  0
  145.5670   72.4510  217.0020 C   0  0  0  0  0  0  0  0  0  0  0  0
  145.4550   72.7410  218.4120 N   0  0  0  0  0  0  0  0  0  0  0  0
  144.5140   73.7950  218.6710 C   0  0  0  0  0  0  0  0  0  0  0  0
  143.0890   73.3000  218.7450 C   0  0  0  0  0  0  0  0  0  0  0  0
  142.8910   72.1710  219.7190 C   0  0  0  0  0  0  0  0  0  0  0  0
  141.9420   72.5770  220.7800 C   0  0  0  0  0  0  0  0  0  0  0  0
  141.4420   73.8230  220.7220 N   0  0  0  0  0  0  0  0  0  0  0  0
  140.5790   74.2010  221.6820 C   0  0  0  0  0  0  0  0  0  0  0  0
  140.0340   75.5140  221.6480 N   0  0  0  0  0  0  0  0  0  0  0  0
  140.8620   76.6790  221.3870 C   0  0  0  0  0  0  0  0  0  0  0  0
  140.4200   77.8580  222.2400 C   0  0  0  0  0  0  0  0  0  0  0  0
  138.9950   78.1080  222.0970 N   0  0  0  0  0  0  0  0  0  0  0  0
  138.4720   79.2990  222.6730 C   0  0  0  0  0  0  0  0  0  0  0  0
  137.5210   80.0870  222.0560 C   0  0  0  0  0  0  0  0  0  0  0  0
  137.0400   81.2420  222.6620 C   0  0  0  0  0  0  0  0  0  0  0  0
  137.4900   81.6390  223.8950 C   0  0  0  0  0  0  0  0  0  0  0  0
  138.4420   80.8600  224.5260 C   0  0  0  0  0  0  0  0  0  0  0  0
  138.9030   79.7340  223.9190 C   0  0  0  0  0  0  0  0  0  0  0  0
  138.2190   77.1370  221.3850 C   0  0  0  0  0  0  0  0  0  0  0  0
  138.6260   75.7480  221.8720 C   0  0  0  0  0  0  0  0  0  0  0  0
  140.2120   73.3770  222.6800 N   0  0  0  0  0  0  0  0  0  0  0  0
  140.7040   72.1160  222.7570 C   0  0  0  0  0  0  0  0  0  0  0  0
  140.3390   71.2170  223.7980 N   0  0  0  0  0  0  0  0  0  0  0  0
  139.1110   70.4410  223.7480 C   0  0  0  0  0  0  0  0  0  0  0  0
  139.4740   69.0550  224.2990 C   0  0  0  0  0  0  0  0  0  0  0  0
  139.7900   69.2750  225.7360 C   0  0  0  0  0  0  0  0  0  0  0  0
  139.2200   68.4860  226.7160 C   0  0  0  0  0  0  0  0  0  0  0  0
  139.5410   68.7210  228.0560 C   0  0  0  0  0  0  0  0  0  0  0  0
  140.4230   69.7430  228.3600 C   0  0  0  0  0  0  0  0  0  0  0  0
  140.9810   70.5200  227.3580 C   0  0  0  0  0  0  0  0  0  0  0  0
  140.6720   70.2960  226.0280 C   0  0  0  0  0  0  0  0  0  0  0  0
  141.2430   71.0990  224.9260 C   0  0  0  0  0  0  0  0  0  0  0  0
  141.5660   71.7600  221.7870 N   0  0  0  0  0  0  0  0  0  0  0  0
  144.2180   71.7190  220.2790 C   0  0  0  0  0  0  0  0  0  0  0  0
  145.2440   71.5710  219.2050 C   0  0  0  0  0  0  0  0  0  0  0  0
  145.8190   75.0450  215.0450 H   0  0  0  0  0  0  0  0  0  0  0  0
  145.5940   75.3250  216.8290 H   0  0  0  0  0  0  0  0  0  0  0  0
  144.5647   72.4943  216.5508 H   0  0  0  0  0  0  0  0  0  0  0  0
  146.0103   71.4497  216.8975 H   0  0  0  0  0  0  0  0  0  0  0  0
  144.7719   74.2691  219.6295 H   0  0  0  0  0  0  0  0  0  0  0  0
  144.5750   74.5072  217.8350 H   0  0  0  0  0  0  0  0  0  0  0  0
  142.4455   74.1385  219.0497 H   0  0  0  0  0  0  0  0  0  0  0  0
  142.8307   72.9136  217.7480 H   0  0  0  0  0  0  0  0  0  0  0  0
  142.4518   71.3088  219.1958 H   0  0  0  0  0  0  0  0  0  0  0  0
  141.9092   76.4369  221.6212 H   0  0  0  0  0  0  0  0  0  0  0  0
  140.7603   76.9533  220.3266 H   0  0  0  0  0  0  0  0  0  0  0  0
  140.6415   77.6400  223.2952 H   0  0  0  0  0  0  0  0  0  0  0  0
  140.9650   78.7528  221.9050 H   0  0  0  0  0  0  0  0  0  0  0  0
  137.1370   79.7957  221.0672 H   0  0  0  0  0  0  0  0  0  0  0  0
  136.2839   81.8490  222.1425 H   0  0  0  0  0  0  0  0  0  0  0  0
  137.1037   82.5531  224.3695 H   0  0  0  0  0  0  0  0  0  0  0  0
  138.8251   81.1500  225.5155 H   0  0  0  0  0  0  0  0  0  0  0  0
  139.6602   79.1339  224.4449 H   0  0  0  0  0  0  0  0  0  0  0  0
  137.1488   77.3007  221.5796 H   0  0  0  0  0  0  0  0  0  0  0  0
  138.3984   77.2273  220.3035 H   0  0  0  0  0  0  0  0  0  0  0  0
  138.4146   75.6678  222.9485 H   0  0  0  0  0  0  0  0  0  0  0  0
  138.0516   74.9968  221.3100 H   0  0  0  0  0  0  0  0  0  0  0  0
  138.3350   70.9102  224.3706 H   0  0  0  0  0  0  0  0  0  0  0  0
  138.7103   70.3797  222.7254 H   0  0  0  0  0  0  0  0  0  0  0  0
  138.6252   68.3635  224.1925 H   0  0  0  0  0  0  0  0  0  0  0  0
  140.3195   68.6064  223.7569 H   0  0  0  0  0  0  0  0  0  0  0  0
  138.5209   67.6812  226.4448 H   0  0  0  0  0  0  0  0  0  0  0  0
  139.1007   68.1050  228.8539 H   0  0  0  0  0  0  0  0  0  0  0  0
  140.6842   69.9408  229.4101 H   0  0  0  0  0  0  0  0  0  0  0  0
  141.6799   71.3268  227.6236 H   0  0  0  0  0  0  0  0  0  0  0  0
  141.4684   72.1070  225.3042 H   0  0  0  0  0  0  0  0  0  0  0  0
  142.1505   70.5863  224.5745 H   0  0  0  0  0  0  0  0  0  0  0  0
  144.5697   72.4628  221.0091 H   0  0  0  0  0  0  0  0  0  0  0  0
  144.0747   70.7384  220.7565 H   0  0  0  0  0  0  0  0  0  0  0  0
  146.1994   71.3022  219.6793 H   0  0  0  0  0  0  0  0  0  0  0  0
  144.8662   70.7972  218.5206 H   0  0  0  0  0  0  0  0  0  0  0  0
  1  2  1  0
  2  3  2  0
  2  4  1  0
  4  5  1  0
  5  6  1  0
  6  7  1  0
  7  8  1  0
  8  9  1  0
  9 10  2  0
 10 11  1  0
 11 12  1  0
 12 13  1  0
 13 14  1  0
 14 15  1  0
 15 16  1  0
 16 17  2  0
 17 18  1  0
 18 19  2  0
 19 20  1  0
 20 21  2  0
 15 22  1  0
 22 23  1  0
 11 24  2  0
 24 25  1  0
 25 26  1  0
 26 27  1  0
 27 28  1  0
 28 29  1  0
 29 30  2  0
 30 31  1  0
 31 32  2  0
 32 33  1  0
 33 34  2  0
 34 35  1  0
 25 36  2  0
  8 37  1  0
 37 38  1  0
 38  5  1  0
 36  9  1  0
 23 12  1  0
 35 26  1  0
 21 16  1  0
 34 29  1  0
  1 39  1  0
  1 40  1  0
  4 41  1  0
  4 42  1  0
  6 43  1  0
  6 44  1  0
  7 45  1  0
  7 46  1  0
  8 47  1  0
 13 48  1  0
 13 49  1  0
 14 50  1  0
 14 51  1  0
 17 52  1  0
 18 53  1  0
 19 54  1  0
 20 55  1  0
 21 56  1  0
 22 57  1  0
 22 58  1  0
 23 59  1  0
 23 60  1  0
 27 61  1  0
 27 62  1  0
 28 63  1  0
 28 64  1  0
 30 65  1  0
 31 66  1  0
 32 67  1  0
 33 68  1  0
 35 69  1  0
 35 70  1  0
 37 71  1  0
 37 72  1  0
 38 73  1  0
 38 74  1  0
M  END
>  <smiles>  (5) 
NC(=O)CN1CCC(c2nc(N3CCN(c4ccccc4)CC3)nc(N3CCc4ccccc4C3)n2)CC1

>  <score_type>  (5) 
oracle

>  <origin>  (5) 
autodockgpu

>  <m_score__min__energy>  (5) 
-9.5199999999999996

>  <m_primary>  (5) 
energy

>  <rmsd>  (5) 
8.32551960898829

>  <m_score__min__rmsd>  (5) 
8.32551960898829

>  <meeko>  (5) 
{"free_energy": -9.44, "intermolecular_energy": -11.23, "internal_energy": -1.4, "cluster_size": 25, "cluster_id": 1, "rank_in_cluster": 4}

>  <energy>  (5) 
-9.43

>  <cluster_rmsd>  (5) 
0.23

>  <cluster>  (5) 
1

$$$$

     RDKit          3D

 74 79  0  0  0  0  0  0  0  0999 V2000
  146.3080   70.4660  219.1160 N   0  0  0  0  0  0  0  0  0  0  0  0
  145.5780   71.1150  218.0770 C   0  0  0  0  0  0  0  0  0  0  0  0
  145.6980   72.3560  217.8940 O   0  0  0  0  0  0  0  0  0  0  0  0
  144.6910   70.2590  217.2480 C   0  0  0  0  0  0  0  0  0  0  0  0
  143.2950   70.4530  217.5640 N   0  0  0  0  0  0  0  0  0  0  0  0
  142.9760   70.0000  218.8890 C   0  0  0  0  0  0  0  0  0  0  0  0
  143.2720   71.0360  219.9470 C   0  0  0  0  0  0  0  0  0  0  0  0
  142.6320   72.3710  219.6820 C   0  0  0  0  0  0  0  0  0  0  0  0
  141.6940   72.7090  220.7760 C   0  0  0  0  0  0  0  0  0  0  0  0
  141.1490   73.9370  220.7680 N   0  0  0  0  0  0  0  0  0  0  0  0
  140.2950   74.2540  221.7580 C   0  0  0  0  0  0  0  0  0  0  0  0
  139.7040   75.5470  221.7770 N   0  0  0  0  0  0  0  0  0  0  0  0
  140.4680   76.7430  221.4640 C   0  0  0  0  0  0  0  0  0  0  0  0
  140.0530   77.9000  222.3580 C   0  0  0  0  0  0  0  0  0  0  0  0
  138.6130   78.1000  222.3270 N   0  0  0  0  0  0  0  0  0  0  0  0
  138.0950   79.2680  222.9520 C   0  0  0  0  0  0  0  0  0  0  0  0
  136.8540   79.7990  222.6600 C   0  0  0  0  0  0  0  0  0  0  0  0
  136.3920   80.9430  223.3010 C   0  0  0  0  0  0  0  0  0  0  0  0
  137.1500   81.5850  224.2470 C   0  0  0  0  0  0  0  0  0  0  0  0
  138.3950   81.0650  224.5500 C   0  0  0  0  0  0  0  0  0  0  0  0
  138.8320   79.9460  223.9140 C   0  0  0  0  0  0  0  0  0  0  0  0
  137.8180   77.1070  221.6690 C   0  0  0  0  0  0  0  0  0  0  0  0
  138.3100   75.7300  222.1110 C   0  0  0  0  0  0  0  0  0  0  0  0
  139.9800   73.3870  222.7370 N   0  0  0  0  0  0  0  0  0  0  0  0
  140.5180   72.1420  222.7630 C   0  0  0  0  0  0  0  0  0  0  0  0
  140.2080   71.1990  223.7820 N   0  0  0  0  0  0  0  0  0  0  0  0
  139.0120   70.3750  223.7290 C   0  0  0  0  0  0  0  0  0  0  0  0
  139.4410   68.9890  224.2320 C   0  0  0  0  0  0  0  0  0  0  0  0
  139.7720   69.1800  225.6700 C   0  0  0  0  0  0  0  0  0  0  0  0
  139.2530   68.3400  226.6350 C   0  0  0  0  0  0  0  0  0  0  0  0
  139.5870   68.5500  227.9760 C   0  0  0  0  0  0  0  0  0  0  0  0
  140.4320   69.5970  228.2960 C   0  0  0  0  0  0  0  0  0  0  0  0
  140.9400   70.4250  227.3090 C   0  0  0  0  0  0  0  0  0  0  0  0
  140.6170   70.2290  225.9780 C   0  0  0  0  0  0  0  0  0  0  0  0
  141.1360   71.0860  224.8910 C   0  0  0  0  0  0  0  0  0  0  0  0
  141.3690   71.8480  221.7640 N   0  0  0  0  0  0  0  0  0  0  0  0
  141.9620   72.3750  218.3300 C   0  0  0  0  0  0  0  0  0  0  0  0
  142.8400   71.7780  217.2810 C   0  0  0  0  0  0  0  0  0  0  0  0
  146.1650   70.7490  220.1140 H   0  0  0  0  0  0  0  0  0  0  0  0
  146.9960   69.7000  218.8820 H   0  0  0  0  0  0  0  0  0  0  0  0
  144.8517   70.5044  216.1878 H   0  0  0  0  0  0  0  0  0  0  0  0
  144.9422   69.2089  217.4583 H   0  0  0  0  0  0  0  0  0  0  0  0
  141.9047   69.7535  218.9281 H   0  0  0  0  0  0  0  0  0  0  0  0
  143.6039   69.1217  219.0996 H   0  0  0  0  0  0  0  0  0  0  0  0
  142.9044   70.6604  220.9133 H   0  0  0  0  0  0  0  0  0  0  0  0
  144.3604   71.1954  219.9452 H   0  0  0  0  0  0  0  0  0  0  0  0
  143.4070   73.1513  219.6591 H   0  0  0  0  0  0  0  0  0  0  0  0
  141.5379   76.5368  221.6149 H   0  0  0  0  0  0  0  0  0  0  0  0
  140.2745   77.0202  220.4172 H   0  0  0  0  0  0  0  0  0  0  0  0
  140.3628   77.6839  223.3911 H   0  0  0  0  0  0  0  0  0  0  0  0
  140.5392   78.8155  221.9900 H   0  0  0  0  0  0  0  0  0  0  0  0
  136.2199   79.3082  221.9070 H   0  0  0  0  0  0  0  0  0  0  0  0
  135.3992   81.3411  223.0445 H   0  0  0  0  0  0  0  0  0  0  0  0
  136.7775   82.4890  224.7510 H   0  0  0  0  0  0  0  0  0  0  0  0
  139.0295   81.5552  225.3031 H   0  0  0  0  0  0  0  0  0  0  0  0
  139.8262   79.5552  224.1763 H   0  0  0  0  0  0  0  0  0  0  0  0
  136.7612   77.2317  221.9477 H   0  0  0  0  0  0  0  0  0  0  0  0
  137.9089   77.2101  220.5776 H   0  0  0  0  0  0  0  0  0  0  0  0
  138.1855   75.6358  223.1999 H   0  0  0  0  0  0  0  0  0  0  0  0
  137.7204   74.9625  221.5882 H   0  0  0  0  0  0  0  0  0  0  0  0
  138.2287   70.7933  224.3783 H   0  0  0  0  0  0  0  0  0  0  0  0
  138.5960   70.3274  222.7118 H   0  0  0  0  0  0  0  0  0  0  0  0
  138.6196   68.2663  224.1181 H   0  0  0  0  0  0  0  0  0  0  0  0
  140.2947   68.5918  223.6633 H   0  0  0  0  0  0  0  0  0  0  0  0
  138.5838   67.5143  226.3516 H   0  0  0  0  0  0  0  0  0  0  0  0
  139.1850   67.8944  228.7625 H   0  0  0  0  0  0  0  0  0  0  0  0
  140.7038   69.7742  229.3471 H   0  0  0  0  0  0  0  0  0  0  0  0
  141.6106   71.2513  227.5875 H   0  0  0  0  0  0  0  0  0  0  0  0
  141.3272   72.0911  225.2949 H   0  0  0  0  0  0  0  0  0  0  0  0
  142.0574   70.6215  224.5100 H   0  0  0  0  0  0  0  0  0  0  0  0
  141.0312   71.7920  218.3909 H   0  0  0  0  0  0  0  0  0  0  0  0
  141.7537   73.4187  218.0518 H   0  0  0  0  0  0  0  0  0  0  0  0
  142.2762   71.7520  216.3368 H   0  0  0  0  0  0  0  0  0  0  0  0
  143.7386   72.4105  217.2322 H   0  0  0  0  0  0  0  0  0  0  0  0
  1  2  1  0
  2  3  2  0
  2  4  1  0
  4  5  1  0
  5  6  1  0
  6  7  1  0
  7  8  1  0
  8  9  1  0
  9 10  2  0
 10 11  1  0
 11 12  1  0
 12 13  1  0
 13 14  1  0
 14 15  1  0
 15 16  1  0
 16 17  2  0
 17 18  1  0
 18 19  2  0
 19 20  1  0
 20 21  2  0
 15 22  1  0
 22 23  1  0
 11 24  2  0
 24 25  1  0
 25 26  1  0
 26 27  1  0
 27 28  1  0
 28 29  1  0
 29 30  2  0
 30 31  1  0
 31 32  2  0
 32 33  1  0
 33 34  2  0
 34 35  1  0
 25 36  2  0
  8 37  1  0
 37 38  1  0
 38  5  1  0
 36  9  1  0
 23 12  1  0
 35 26  1  0
 21 16  1  0
 34 29  1  0
  1 39  1  0
  1 40  1  0
  4 41  1  0
  4 42  1  0
  6 43  1  0
  6 44  1  0
  7 45  1  0
  7 46  1  0
  8 47  1  0
 13 48  1  0
 13 49  1  0
 14 50  1  0
 14 51  1  0
 17 52  1  0
 18 53  1  0
 19 54  1  0
 20 55  1  0
 21 56  1  0
 22 57  1  0
 22 58  1  0
 23 59  1  0
 23 60  1  0
 27 61  1  0
 27 62  1  0
 28 63  1  0
 28 64  1  0
 30 65  1  0
 31 66  1  0
 32 67  1  0
 33 68  1  0
 35 69  1  0
 35 70  1  0
 37 71  1  0
 37 72  1  0
 38 73  1  0
 38 74  1  0
M  END
>  <smiles>  (6) 
NC(=O)CN1CCC(c2nc(N3CCN(c4ccccc4)CC3)nc(N3CCc4ccccc4C3)n2)CC1

>  <score_type>  (6) 
oracle

>  <origin>  (6) 
autodockgpu

>  <m_score__min__energy>  (6) 
-9.5199999999999996

>  <m_primary>  (6) 
energy

>  <rmsd>  (6) 
8.356820951245258

>  <m_score__min__rmsd>  (6) 
8.356820951245258

>  <meeko>  (6) 
{"free_energy": -8.73, "intermolecular_energy": -10.52, "internal_energy": -1.32, "cluster_size": 25, "cluster_id": 1, "rank_in_cluster": 19}

>  <energy>  (6) 
-9.43

>  <cluster_rmsd>  (6) 
0.25

>  <cluster>  (6) 
1

$$$$

     RDKit          3D

 74 79  0  0  0  0  0  0  0  0999 V2000
  144.9160   66.7520  216.1580 N   0  0  0  0  0  0  0  0  0  0  0  0
  145.2670   68.0530  216.6220 C   0  0  0  0  0  0  0  0  0  0  0  0
  146.4760   68.3630  216.7960 O   0  0  0  0  0  0  0  0  0  0  0  0
  144.1480   68.9950  216.8810 C   0  0  0  0  0  0  0  0  0  0  0  0
  143.6070   68.8460  218.2110 N   0  0  0  0  0  0  0  0  0  0  0  0
  144.1100   69.8470  219.1110 C   0  0  0  0  0  0  0  0  0  0  0  0
  143.3380   71.1430  219.0330 C   0  0  0  0  0  0  0  0  0  0  0  0
  141.8550   70.9750  219.2140 C   0  0  0  0  0  0  0  0  0  0  0  0
  141.4010   71.7250  220.4060 C   0  0  0  0  0  0  0  0  0  0  0  0
  141.2240   73.0510  220.2740 N   0  0  0  0  0  0  0  0  0  0  0  0
  140.8120   73.7410  221.3520 C   0  0  0  0  0  0  0  0  0  0  0  0
  140.6180   75.1460  221.2440 N   0  0  0  0  0  0  0  0  0  0  0  0
  141.1010   75.8990  220.0990 C   0  0  0  0  0  0  0  0  0  0  0  0
  141.6300   77.2580  220.5290 C   0  0  0  0  0  0  0  0  0  0  0  0
  140.6530   77.9750  221.3320 N   0  0  0  0  0  0  0  0  0  0  0  0
  140.9210   79.3370  221.6390 C   0  0  0  0  0  0  0  0  0  0  0  0
  140.2880   80.3950  221.0180 C   0  0  0  0  0  0  0  0  0  0  0  0
  140.5840   81.7110  221.3560 C   0  0  0  0  0  0  0  0  0  0  0  0
  141.5160   82.0060  222.3180 C   0  0  0  0  0  0  0  0  0  0  0  0
  142.1580   80.9570  222.9490 C   0  0  0  0  0  0  0  0  0  0  0  0
  141.8570   79.6770  222.6080 C   0  0  0  0  0  0  0  0  0  0  0  0
  139.4880   77.2580  221.7570 C   0  0  0  0  0  0  0  0  0  0  0  0
  139.9290   75.8900  222.2740 C   0  0  0  0  0  0  0  0  0  0  0  0
  140.5770   73.1480  222.5360 N   0  0  0  0  0  0  0  0  0  0  0  0
  140.7480   71.8110  222.6910 C   0  0  0  0  0  0  0  0  0  0  0  0
  140.5090   71.1500  223.9270 N   0  0  0  0  0  0  0  0  0  0  0  0
  141.1160   71.5990  225.1690 C   0  0  0  0  0  0  0  0  0  0  0  0
  140.0280   71.4470  226.2410 C   0  0  0  0  0  0  0  0  0  0  0  0
  139.8090   69.9810  226.3720 C   0  0  0  0  0  0  0  0  0  0  0  0
  139.8040   69.3720  227.6100 C   0  0  0  0  0  0  0  0  0  0  0  0
  139.5940   67.9920  227.6940 C   0  0  0  0  0  0  0  0  0  0  0  0
  139.3970   67.2770  226.5270 C   0  0  0  0  0  0  0  0  0  0  0  0
  139.4060   67.9120  225.2950 C   0  0  0  0  0  0  0  0  0  0  0  0
  139.6120   69.2770  225.1990 C   0  0  0  0  0  0  0  0  0  0  0  0
  139.6300   69.9970  223.9080 C   0  0  0  0  0  0  0  0  0  0  0  0
  141.1610   71.1410  221.5990 N   0  0  0  0  0  0  0  0  0  0  0  0
  141.4950   69.5100  219.2870 C   0  0  0  0  0  0  0  0  0  0  0  0
  142.1830   68.7220  218.2220 C   0  0  0  0  0  0  0  0  0  0  0  0
  145.1760   65.9060  216.7180 H   0  0  0  0  0  0  0  0  0  0  0  0
  144.3940   66.6360  215.2470 H   0  0  0  0  0  0  0  0  0  0  0  0
  144.5167   70.0245  216.7617 H   0  0  0  0  0  0  0  0  0  0  0  0
  143.3453   68.7717  216.1628 H   0  0  0  0  0  0  0  0  0  0  0  0
  144.0454   69.4604  220.1388 H   0  0  0  0  0  0  0  0  0  0  0  0
  145.1492   70.0618  218.8213 H   0  0  0  0  0  0  0  0  0  0  0  0
  143.7097   71.8165  219.8193 H   0  0  0  0  0  0  0  0  0  0  0  0
  143.4945   71.5501  218.0231 H   0  0  0  0  0  0  0  0  0  0  0  0
  141.3305   71.3927  218.3420 H   0  0  0  0  0  0  0  0  0  0  0  0
  141.9101   75.3349  219.6120 H   0  0  0  0  0  0  0  0  0  0  0  0
  140.2653   76.0516  219.4002 H   0  0  0  0  0  0  0  0  0  0  0  0
  142.5455   77.1150  221.1218 H   0  0  0  0  0  0  0  0  0  0  0  0
  141.8396   77.8506  219.6263 H   0  0  0  0  0  0  0  0  0  0  0  0
  139.5355   80.1933  220.2414 H   0  0  0  0  0  0  0  0  0  0  0  0
  140.0608   82.5309  220.8421 H   0  0  0  0  0  0  0  0  0  0  0  0
  141.7464   83.0491  222.5803 H   0  0  0  0  0  0  0  0  0  0  0  0
  142.9108   81.1582  223.7254 H   0  0  0  0  0  0  0  0  0  0  0  0
  142.3840   78.8637  223.1284 H   0  0  0  0  0  0  0  0  0  0  0  0
  138.9817   77.8136  222.5601 H   0  0  0  0  0  0  0  0  0  0  0  0
  138.7890   77.1381  220.9162 H   0  0  0  0  0  0  0  0  0  0  0  0
  140.6050   76.0296  223.1305 H   0  0  0  0  0  0  0  0  0  0  0  0
  139.0355   75.3246  222.5774 H   0  0  0  0  0  0  0  0  0  0  0  0
  141.9883   70.9764  225.4167 H   0  0  0  0  0  0  0  0  0  0  0  0
  141.4715   72.6374  225.0953 H   0  0  0  0  0  0  0  0  0  0  0  0
  140.3666   71.8731  227.1969 H   0  0  0  0  0  0  0  0  0  0  0  0
  139.1041   71.9770  225.9661 H   0  0  0  0  0  0  0  0  0  0  0  0
  139.9636   69.9661  228.5219 H   0  0  0  0  0  0  0  0  0  0  0  0
  139.5857   67.4848  228.6701 H   0  0  0  0  0  0  0  0  0  0  0  0
  139.2311   66.1907  226.5770 H   0  0  0  0  0  0  0  0  0  0  0  0
  139.2471   67.3223  224.3802 H   0  0  0  0  0  0  0  0  0  0  0  0
  139.9718   69.3059  223.1235 H   0  0  0  0  0  0  0  0  0  0  0  0
  138.6095   70.3581  223.7127 H   0  0  0  0  0  0  0  0  0  0  0  0
  141.7931   69.1176  220.2705 H   0  0  0  0  0  0  0  0  0  0  0  0
  140.4092   69.4144  219.1389 H   0  0  0  0  0  0  0  0  0  0  0  0
  141.9329   67.6605  218.3659 H   0  0  0  0  0  0  0  0  0  0  0  0
  141.8293   69.1244  217.2613 H   0  0  0  0  0  0  0  0  0  0  0  0
  1  2  1  0
  2  3  2  0
  2  4  1  0
  4  5  1  0
  5  6  1  0
  6  7  1  0
  7  8  1  0
  8  9  1  0
  9 10  2  0
 10 11  1  0
 11 12  1  0
 12 13  1  0
 13 14  1  0
 14 15  1  0
 15 16  1  0
 16 17  2  0
 17 18  1  0
 18 19  2  0
 19 20  1  0
 20 21  2  0
 15 22  1  0
 22 23  1  0
 11 24  2  0
 24 25  1  0
 25 26  1  0
 26 27  1  0
 27 28  1  0
 28 29  1  0
 29 30  2  0
 30 31  1  0
 31 32  2  0
 32 33  1  0
 33 34  2  0
 34 35  1  0
 25 36  2  0
  8 37  1  0
 37 38  1  0
 38  5  1  0
 36  9  1  0
 23 12  1  0
 35 26  1  0
 21 16  1  0
 34 29  1  0
  1 39  1  0
  1 40  1  0
  4 41  1  0
  4 42  1  0
  6 43  1  0
  6 44  1  0
  7 45  1  0
  7 46  1  0
  8 47  1  0
 13 48  1  0
 13 49  1  0
 14 50  1  0
 14 51  1  0
 17 52  1  0
 18 53  1  0
 19 54  1  0
 20 55  1  0
 21 56  1  0
 22 57  1  0
 22 58  1  0
 23 59  1  0
 23 60  1  0
 27 61  1  0
 27 62  1  0
 28 63  1  0
 28 64  1  0
 30 65  1  0
 31 66  1  0
 32 67  1  0
 33 68  1  0
 35 69  1  0
 35 70  1  0
 37 71  1  0
 37 72  1  0
 38 73  1  0
 38 74  1  0
M  END
>  <smiles>  (7) 
NC(=O)CN1CCC(c2nc(N3CCN(c4ccccc4)CC3)nc(N3CCc4ccccc4C3)n2)CC1

>  <score_type>  (7) 
oracle

>  <origin>  (7) 
autodockgpu

>  <m_score__min__energy>  (7) 
-9.5199999999999996

>  <m_primary>  (7) 
energy

>  <rmsd>  (7) 
8.574399803359936

>  <m_score__min__rmsd>  (7) 
8.574399803359936

>  <meeko>  (7) 
{"free_energy": -8.48, "intermolecular_energy": -10.27, "internal_energy": -1.4, "cluster_size": 5, "cluster_id": 2, "rank_in_cluster": 5}

>  <energy>  (7) 
-9.4

>  <cluster_rmsd>  (7) 
0.19

>  <cluster>  (7) 
1

$$$$

     RDKit          3D

 74 79  0  0  0  0  0  0  0  0999 V2000
  138.6370   72.7040  213.5160 N   0  0  0  0  0  0  0  0  0  0  0  0
  138.1910   71.3830  213.8090 C   0  0  0  0  0  0  0  0  0  0  0  0
  137.7960   70.6230  212.8840 O   0  0  0  0  0  0  0  0  0  0  0  0
  138.2180   70.9690  215.2350 C   0  0  0  0  0  0  0  0  0  0  0  0
  139.1080   71.7880  216.0250 N   0  0  0  0  0  0  0  0  0  0  0  0
  138.3900   72.6460  216.9260 C   0  0  0  0  0  0  0  0  0  0  0  0
  138.0170   71.9550  218.2160 C   0  0  0  0  0  0  0  0  0  0  0  0
  139.1840   71.3170  218.9190 C   0  0  0  0  0  0  0  0  0  0  0  0
  139.3690   71.9290  220.2540 C   0  0  0  0  0  0  0  0  0  0  0  0
  139.5190   73.2630  220.3080 N   0  0  0  0  0  0  0  0  0  0  0  0
  139.6890   73.8290  221.5170 C   0  0  0  0  0  0  0  0  0  0  0  0
  139.8530   75.2380  221.6060 N   0  0  0  0  0  0  0  0  0  0  0  0
  140.6690   75.9760  220.6570 C   0  0  0  0  0  0  0  0  0  0  0  0
  141.4330   77.0910  221.3530 C   0  0  0  0  0  0  0  0  0  0  0  0
  140.5430   77.9310  222.1370 N   0  0  0  0  0  0  0  0  0  0  0  0
  141.0770   79.1320  222.6820 C   0  0  0  0  0  0  0  0  0  0  0  0
  140.2960   80.1350  223.2210 C   0  0  0  0  0  0  0  0  0  0  0  0
  140.8680   81.2900  223.7430 C   0  0  0  0  0  0  0  0  0  0  0  0
  142.2270   81.4740  223.7430 C   0  0  0  0  0  0  0  0  0  0  0  0
  143.0220   80.4790  223.2080 C   0  0  0  0  0  0  0  0  0  0  0  0
  142.4480   79.3560  222.7010 C   0  0  0  0  0  0  0  0  0  0  0  0
  139.1910   77.4910  222.3060 C   0  0  0  0  0  0  0  0  0  0  0  0
  139.2110   76.0040  222.6520 C   0  0  0  0  0  0  0  0  0  0  0  0
  139.7110   73.1040  222.6500 N   0  0  0  0  0  0  0  0  0  0  0  0
  139.5600   71.7570  222.6170 C   0  0  0  0  0  0  0  0  0  0  0  0
  139.5780   70.9590  223.7950 N   0  0  0  0  0  0  0  0  0  0  0  0
  138.5190   70.0100  224.0970 C   0  0  0  0  0  0  0  0  0  0  0  0
  139.2210   68.7770  224.6830 C   0  0  0  0  0  0  0  0  0  0  0  0
  139.7840   69.2280  225.9840 C   0  0  0  0  0  0  0  0  0  0  0  0
  139.5740   68.4990  227.1380 C   0  0  0  0  0  0  0  0  0  0  0  0
  140.1180   68.9530  228.3430 C   0  0  0  0  0  0  0  0  0  0  0  0
  140.8550   70.1240  228.3410 C   0  0  0  0  0  0  0  0  0  0  0  0
  141.0520   70.8370  227.1690 C   0  0  0  0  0  0  0  0  0  0  0  0
  140.5180   70.3980  225.9700 C   0  0  0  0  0  0  0  0  0  0  0  0
  140.7020   71.1250  224.6960 C   0  0  0  0  0  0  0  0  0  0  0  0
  139.3930   71.2130  221.3980 N   0  0  0  0  0  0  0  0  0  0  0  0
  140.4270   71.4090  218.0680 C   0  0  0  0  0  0  0  0  0  0  0  0
  140.1500   71.0350  216.6490 C   0  0  0  0  0  0  0  0  0  0  0  0
  137.9860   73.3910  213.0670 H   0  0  0  0  0  0  0  0  0  0  0  0
  139.6260   72.9940  213.7490 H   0  0  0  0  0  0  0  0  0  0  0  0
  137.2014   71.0516  215.6470 H   0  0  0  0  0  0  0  0  0  0  0  0
  138.5851   69.9330  215.2786 H   0  0  0  0  0  0  0  0  0  0  0  0
  139.0212   73.5154  217.1622 H   0  0  0  0  0  0  0  0  0  0  0  0
  137.4563   72.9448  216.4271 H   0  0  0  0  0  0  0  0  0  0  0  0
  137.5688   72.6986  218.8914 H   0  0  0  0  0  0  0  0  0  0  0  0
  137.3165   71.1473  217.9574 H   0  0  0  0  0  0  0  0  0  0  0  0
  138.9783   70.2474  219.0729 H   0  0  0  0  0  0  0  0  0  0  0  0
  141.3859   75.2873  220.1860 H   0  0  0  0  0  0  0  0  0  0  0  0
  140.0098   76.4216  219.8975 H   0  0  0  0  0  0  0  0  0  0  0  0
  142.1867   76.6469  222.0199 H   0  0  0  0  0  0  0  0  0  0  0  0
  141.9128   77.7153  220.5849 H   0  0  0  0  0  0  0  0  0  0  0  0
  139.2023   80.0184  223.2378 H   0  0  0  0  0  0  0  0  0  0  0  0
  140.2179   82.0711  224.1640 H   0  0  0  0  0  0  0  0  0  0  0  0
  142.6724   82.3901  224.1582 H   0  0  0  0  0  0  0  0  0  0  0  0
  144.1157   80.5951  223.1923 H   0  0  0  0  0  0  0  0  0  0  0  0
  143.1063   78.5807  222.2820 H   0  0  0  0  0  0  0  0  0  0  0  0
  138.7149   78.0562  223.1208 H   0  0  0  0  0  0  0  0  0  0  0  0
  138.6196   77.6574  221.3809 H   0  0  0  0  0  0  0  0  0  0  0  0
  139.7623   75.8608  223.5930 H   0  0  0  0  0  0  0  0  0  0  0  0
  138.1734   75.6541  222.7568 H   0  0  0  0  0  0  0  0  0  0  0  0
  137.8187   70.4371  224.8299 H   0  0  0  0  0  0  0  0  0  0  0  0
  137.9334   69.7563  223.2010 H   0  0  0  0  0  0  0  0  0  0  0  0
  138.5005   67.9602  224.8372 H   0  0  0  0  0  0  0  0  0  0  0  0
  140.0008   68.3903  224.0103 H   0  0  0  0  0  0  0  0  0  0  0  0
  138.9847   67.5706  227.1092 H   0  0  0  0  0  0  0  0  0  0  0  0
  139.9631   68.3899  229.2752 H   0  0  0  0  0  0  0  0  0  0  0  0
  141.2900   70.4936  229.2813 H   0  0  0  0  0  0  0  0  0  0  0  0
  141.6414   71.7655  227.1921 H   0  0  0  0  0  0  0  0  0  0  0  0
  140.8232   72.1961  224.9153 H   0  0  0  0  0  0  0  0  0  0  0  0
  141.5921   70.7106  224.2001 H   0  0  0  0  0  0  0  0  0  0  0  0
  140.8046   72.4417  218.0979 H   0  0  0  0  0  0  0  0  0  0  0  0
  141.1722   70.7068  218.4699 H   0  0  0  0  0  0  0  0  0  0  0  0
  141.0733   71.1823  216.0695 H   0  0  0  0  0  0  0  0  0  0  0  0
  139.8105   69.9888  216.6643 H   0  0  0  0  0  0  0  0  0  0  0  0
  1  2  1  0
  2  3  2  0
  2  4  1  0
  4  5  1  0
  5  6  1  0
  6  7  1  0
  7  8  1  0
  8  9  1  0
  9 10  2  0
 10 11  1  0
 11 12  1  0
 12 13  1  0
 13 14  1  0
 14 15  1  0
 15 16  1  0
 16 17  2  0
 17 18  1  0
 18 19  2  0
 19 20  1  0
 20 21  2  0
 15 22  1  0
 22 23  1  0
 11 24  2  0
 24 25  1  0
 25 26  1  0
 26 27  1  0
 27 28  1  0
 28 29  1  0
 29 30  2  0
 30 31  1  0
 31 32  2  0
 32 33  1  0
 33 34  2  0
 34 35  1  0
 25 36  2  0
  8 37  1  0
 37 38  1  0
 38  5  1  0
 36  9  1  0
 23 12  1  0
 35 26  1  0
 21 16  1  0
 34 29  1  0
  1 39  1  0
  1 40  1  0
  4 41  1  0
  4 42  1  0
  6 43  1  0
  6 44  1  0
  7 45  1  0
  7 46  1  0
  8 47  1  0
 13 48  1  0
 13 49  1  0
 14 50  1  0
 14 51  1  0
 17 52  1  0
 18 53  1  0
 19 54  1  0
 20 55  1  0
 21 56  1  0
 22 57  1  0
 22 58  1  0
 23 59  1  0
 23 60  1  0
 27 61  1  0
 27 62  1  0
 28 63  1  0
 28 64  1  0
 30 65  1  0
 31 66  1  0
 32 67  1  0
 33 68  1  0
 35 69  1  0
 35 70  1  0
 37 71  1  0
 37 72  1  0
 38 73  1  0
 38 74  1  0
M  END
>  <smiles>  (8) 
NC(=O)CN1CCC(c2nc(N3CCN(c4ccccc4)CC3)nc(N3CCc4ccccc4C3)n2)CC1

>  <score_type>  (8) 
oracle

>  <origin>  (8) 
autodockgpu

>  <m_score__min__energy>  (8) 
-9.5199999999999996

>  <m_primary>  (8) 
energy

>  <rmsd>  (8) 
8.428390210843455

>  <m_score__min__rmsd>  (8) 
8.428390210843455

>  <meeko>  (8) 
{"free_energy": -8.15, "intermolecular_energy": -9.94, "internal_energy": -1.58, "cluster_size": 7, "cluster_id": 5, "rank_in_cluster": 6}

>  <energy>  (8) 
-9.38

>  <cluster_rmsd>  (8) 
0.29

>  <cluster>  (8) 
1

$$$$

     RDKit          3D

 74 79  0  0  0  0  0  0  0  0999 V2000
  144.1050   68.9470  218.9890 N   0  0  0  0  0  0  0  0  0  0  0  0
  145.4560   69.3980  218.9580 C   0  0  0  0  0  0  0  0  0  0  0  0
  146.3140   68.8950  219.7320 O   0  0  0  0  0  0  0  0  0  0  0  0
  145.7800   70.4710  217.9830 C   0  0  0  0  0  0  0  0  0  0  0  0
  145.4670   71.7850  218.4930 N   0  0  0  0  0  0  0  0  0  0  0  0
  144.1580   72.2190  218.0900 C   0  0  0  0  0  0  0  0  0  0  0  0
  143.0670   71.7000  218.9960 C   0  0  0  0  0  0  0  0  0  0  0  0
  143.2950   72.0030  220.4520 C   0  0  0  0  0  0  0  0  0  0  0  0
  142.1960   72.8480  220.9720 C   0  0  0  0  0  0  0  0  0  0  0  0
  141.0940   72.2260  221.4220 N   0  0  0  0  0  0  0  0  0  0  0  0
  140.0910   72.9860  221.8960 C   0  0  0  0  0  0  0  0  0  0  0  0
  138.9110   72.3550  222.3780 N   0  0  0  0  0  0  0  0  0  0  0  0
  137.6070   72.6290  221.8000 C   0  0  0  0  0  0  0  0  0  0  0  0
  136.5340   72.6680  222.8770 C   0  0  0  0  0  0  0  0  0  0  0  0
  136.5710   71.4710  223.7020 N   0  0  0  0  0  0  0  0  0  0  0  0
  135.5040   71.2700  224.6210 C   0  0  0  0  0  0  0  0  0  0  0  0
  134.6560   72.2780  225.0340 C   0  0  0  0  0  0  0  0  0  0  0  0
  133.6260   72.0290  225.9340 C   0  0  0  0  0  0  0  0  0  0  0  0
  133.4130   70.7730  226.4430 C   0  0  0  0  0  0  0  0  0  0  0  0
  134.2540   69.7530  226.0380 C   0  0  0  0  0  0  0  0  0  0  0  0
  135.2570   70.0130  225.1580 C   0  0  0  0  0  0  0  0  0  0  0  0
  137.6780   70.5790  223.5300 C   0  0  0  0  0  0  0  0  0  0  0  0
  138.9580   71.4100  223.4710 C   0  0  0  0  0  0  0  0  0  0  0  0
  140.1640   74.3280  221.9300 N   0  0  0  0  0  0  0  0  0  0  0  0
  141.2680   74.9770  221.4820 C   0  0  0  0  0  0  0  0  0  0  0  0
  141.3800   76.3950  221.5010 N   0  0  0  0  0  0  0  0  0  0  0  0
  141.8500   77.1450  220.3490 C   0  0  0  0  0  0  0  0  0  0  0  0
  140.9740   78.4040  220.2880 C   0  0  0  0  0  0  0  0  0  0  0  0
  141.3380   79.1930  221.4970 C   0  0  0  0  0  0  0  0  0  0  0  0
  141.6460   80.5350  221.4010 C   0  0  0  0  0  0  0  0  0  0  0  0
  141.9820   81.2440  222.5580 C   0  0  0  0  0  0  0  0  0  0  0  0
  141.9950   80.5750  223.7680 C   0  0  0  0  0  0  0  0  0  0  0  0
  141.6820   79.2270  223.8380 C   0  0  0  0  0  0  0  0  0  0  0  0
  141.3470   78.5140  222.7000 C   0  0  0  0  0  0  0  0  0  0  0  0
  141.0050   77.0770  222.7250 C   0  0  0  0  0  0  0  0  0  0  0  0
  142.2580   74.1960  221.0110 N   0  0  0  0  0  0  0  0  0  0  0  0
  144.6500   72.6360  220.6530 C   0  0  0  0  0  0  0  0  0  0  0  0
  145.7120   71.9110  219.8950 C   0  0  0  0  0  0  0  0  0  0  0  0
  143.5410   69.0370  219.8670 H   0  0  0  0  0  0  0  0  0  0  0  0
  143.6680   68.5190  218.1280 H   0  0  0  0  0  0  0  0  0  0  0  0
  146.8547   70.4273  217.7526 H   0  0  0  0  0  0  0  0  0  0  0  0
  145.1701   70.3044  217.0829 H   0  0  0  0  0  0  0  0  0  0  0  0
  144.1325   73.3186  218.1027 H   0  0  0  0  0  0  0  0  0  0  0  0
  143.9711   71.8192  217.0824 H   0  0  0  0  0  0  0  0  0  0  0  0
  142.1148   72.1584  218.6908 H   0  0  0  0  0  0  0  0  0  0  0  0
  143.0575   70.6049  218.8931 H   0  0  0  0  0  0  0  0  0  0  0  0
  143.2901   71.0651  221.0267 H   0  0  0  0  0  0  0  0  0  0  0  0
  137.6376   73.6014  221.2866 H   0  0  0  0  0  0  0  0  0  0  0  0
  137.3621   71.8267  221.0884 H   0  0  0  0  0  0  0  0  0  0  0  0
  136.6986   73.5486  223.5153 H   0  0  0  0  0  0  0  0  0  0  0  0
  135.5509   72.7218  222.3865 H   0  0  0  0  0  0  0  0  0  0  0  0
  134.7978   73.2967  224.6439 H   0  0  0  0  0  0  0  0  0  0  0  0
  132.9691   72.8551  226.2440 H   0  0  0  0  0  0  0  0  0  0  0  0
  132.5955   70.5826  227.1539 H   0  0  0  0  0  0  0  0  0  0  0  0
  134.1119   68.7339  226.4268 H   0  0  0  0  0  0  0  0  0  0  0  0
  135.9096   69.1813  224.8542 H   0  0  0  0  0  0  0  0  0  0  0  0
  137.7273   69.8795  224.3775 H   0  0  0  0  0  0  0  0  0  0  0  0
  137.5583   70.0005  222.6021 H   0  0  0  0  0  0  0  0  0  0  0  0
  139.0744   71.9593  224.4169 H   0  0  0  0  0  0  0  0  0  0  0  0
  139.8095   70.7320  223.3123 H   0  0  0  0  0  0  0  0  0  0  0  0
  142.9077   77.4194  220.4754 H   0  0  0  0  0  0  0  0  0  0  0  0
  141.7782   76.5550  219.4234 H   0  0  0  0  0  0  0  0  0  0  0  0
  141.1872   78.9782  219.3743 H   0  0  0  0  0  0  0  0  0  0  0  0
  139.9021   78.1579  220.2656 H   0  0  0  0  0  0  0  0  0  0  0  0
  141.6273   81.0412  220.4246 H   0  0  0  0  0  0  0  0  0  0  0  0
  142.2314   82.3141  222.5068 H   0  0  0  0  0  0  0  0  0  0  0  0
  142.2572   81.1199  224.6869 H   0  0  0  0  0  0  0  0  0  0  0  0
  141.7000   78.7162  224.8120 H   0  0  0  0  0  0  0  0  0  0  0  0
  141.5307   76.6040  223.5676 H   0  0  0  0  0  0  0  0  0  0  0  0
  139.9133   76.9953  222.8319 H   0  0  0  0  0  0  0  0  0  0  0  0
  144.6120   73.6790  220.3055 H   0  0  0  0  0  0  0  0  0  0  0  0
  144.8972   72.5879  221.7238 H   0  0  0  0  0  0  0  0  0  0  0  0
  146.6594   72.4535  220.0295 H   0  0  0  0  0  0  0  0  0  0  0  0
  145.7369   70.8879  220.2983 H   0  0  0  0  0  0  0  0  0  0  0  0
  1  2  1  0
  2  3  2  0
  2  4  1  0
  4  5  1  0
  5  6  1  0
  6  7  1  0
  7  8  1  0
  8  9  1  0
  9 10  2  0
 10 11  1  0
 11 12  1  0
 12 13  1  0
 13 14  1  0
 14 15  1  0
 15 16  1  0
 16 17  2  0
 17 18  1  0
 18 19  2  0
 19 20  1  0
 20 21  2  0
 15 22  1  0
 22 23  1  0
 11 24  2  0
 24 25  1  0
 25 26  1  0
 26 27  1  0
 27 28  1  0
 28 29  1  0
 29 30  2  0
 30 31  1  0
 31 32  2  0
 32 33  1  0
 33 34  2  0
 34 35  1  0
 25 36  2  0
  8 37  1  0
 37 38  1  0
 38  5  1  0
 36  9  1  0
 23 12  1  0
 35 26  1  0
 21 16  1  0
 34 29  1  0
  1 39  1  0
  1 40  1  0
  4 41  1  0
  4 42  1  0
  6 43  1  0
  6 44  1  0
  7 45  1  0
  7 46  1  0
  8 47  1  0
 13 48  1  0
 13 49  1  0
 14 50  1  0
 14 51  1  0
 17 52  1  0
 18 53  1  0
 19 54  1  0
 20 55  1  0
 21 56  1  0
 22 57  1  0
 22 58  1  0
 23 59  1  0
 23 60  1  0
 27 61  1  0
 27 62  1  0
 28 63  1  0
 28 64  1  0
 30 65  1  0
 31 66  1  0
 32 67  1  0
 33 68  1  0
 35 69  1  0
 35 70  1  0
 37 71  1  0
 37 72  1  0
 38 73  1  0
 38 74  1  0
M  END
>  <smiles>  (9) 
NC(=O)CN1CCC(c2nc(N3CCN(c4ccccc4)CC3)nc(N3CCc4ccccc4C3)n2)CC1

>  <score_type>  (9) 
oracle

>  <origin>  (9) 
autodockgpu

>  <m_score__min__energy>  (9) 
-9.5199999999999996

>  <m_primary>  (9) 
energy

>  <rmsd>  (9) 
5.757170294737447

>  <m_score__min__rmsd>  (9) 
5.757170294737447

>  <meeko>  (9) 
{"free_energy": -8.88, "intermolecular_energy": -10.67, "internal_energy": -1.42, "cluster_size": 11, "cluster_id": 3, "rank_in_cluster": 5}

>  <energy>  (9) 
-9.2

>  <cluster_rmsd>  (9) 
0.38

>  <cluster>  (9) 
1

$$$$

     RDKit          3D

 74 79  0  0  0  0  0  0  0  0999 V2000
  141.5800   68.9510  214.4910 N   0  0  0  0  0  0  0  0  0  0  0  0
  140.2320   69.3760  214.3050 C   0  0  0  0  0  0  0  0  0  0  0  0
  139.5710   68.9780  213.3080 O   0  0  0  0  0  0  0  0  0  0  0  0
  139.6720   70.2920  215.3310 C   0  0  0  0  0  0  0  0  0  0  0  0
  140.2290   70.0510  216.6410 N   0  0  0  0  0  0  0  0  0  0  0  0
  140.8470   71.2270  217.1860 C   0  0  0  0  0  0  0  0  0  0  0  0
  139.8580   72.1430  217.8680 C   0  0  0  0  0  0  0  0  0  0  0  0
  139.0210   71.4590  218.9140 C   0  0  0  0  0  0  0  0  0  0  0  0
  139.2610   72.0740  220.2380 C   0  0  0  0  0  0  0  0  0  0  0  0
  139.4180   73.4080  220.2830 N   0  0  0  0  0  0  0  0  0  0  0  0
  139.6370   73.9760  221.4820 C   0  0  0  0  0  0  0  0  0  0  0  0
  139.8080   75.3860  221.5610 N   0  0  0  0  0  0  0  0  0  0  0  0
  140.6280   76.1110  220.6060 C   0  0  0  0  0  0  0  0  0  0  0  0
  141.4000   77.2270  221.2930 C   0  0  0  0  0  0  0  0  0  0  0  0
  140.5150   78.0780  222.0710 N   0  0  0  0  0  0  0  0  0  0  0  0
  141.0570   79.2800  222.6060 C   0  0  0  0  0  0  0  0  0  0  0  0
  140.4170   80.5010  222.5330 C   0  0  0  0  0  0  0  0  0  0  0  0
  140.9880   81.6470  223.0740 C   0  0  0  0  0  0  0  0  0  0  0  0
  142.2070   81.6070  223.7020 C   0  0  0  0  0  0  0  0  0  0  0  0
  142.8600   80.3910  223.7840 C   0  0  0  0  0  0  0  0  0  0  0  0
  142.2880   79.2800  223.2500 C   0  0  0  0  0  0  0  0  0  0  0  0
  139.1610   77.6470  222.2440 C   0  0  0  0  0  0  0  0  0  0  0  0
  139.1720   76.1620  222.6010 C   0  0  0  0  0  0  0  0  0  0  0  0
  139.7000   73.2550  222.6160 N   0  0  0  0  0  0  0  0  0  0  0  0
  139.5430   71.9080  222.5930 C   0  0  0  0  0  0  0  0  0  0  0  0
  139.6030   71.1130  223.7720 N   0  0  0  0  0  0  0  0  0  0  0  0
  138.6050   70.1000  224.0680 C   0  0  0  0  0  0  0  0  0  0  0  0
  139.3800   68.9140  224.6590 C   0  0  0  0  0  0  0  0  0  0  0  0
  139.9040   69.4000  225.9640 C   0  0  0  0  0  0  0  0  0  0  0  0
  139.7330   68.6600  227.1170 C   0  0  0  0  0  0  0  0  0  0  0  0
  140.2400   69.1480  228.3250 C   0  0  0  0  0  0  0  0  0  0  0  0
  140.9010   70.3640  228.3270 C   0  0  0  0  0  0  0  0  0  0  0  0
  141.0600   71.0870  227.1550 C   0  0  0  0  0  0  0  0  0  0  0  0
  140.5630   70.6140  225.9530 C   0  0  0  0  0  0  0  0  0  0  0  0
  140.7090   71.3500  224.6800 C   0  0  0  0  0  0  0  0  0  0  0  0
  139.3260   71.3620  221.3830 N   0  0  0  0  0  0  0  0  0  0  0  0
  139.2900   69.9730  218.9150 C   0  0  0  0  0  0  0  0  0  0  0  0
  139.3060   69.4170  217.5290 C   0  0  0  0  0  0  0  0  0  0  0  0
  142.3060   69.1740  213.7700 H   0  0  0  0  0  0  0  0  0  0  0  0
  141.8500   68.4090  215.3570 H   0  0  0  0  0  0  0  0  0  0  0  0
  139.8924   71.3291  215.0379 H   0  0  0  0  0  0  0  0  0  0  0  0
  138.5881   70.1130  215.3873 H   0  0  0  0  0  0  0  0  0  0  0  0
  141.6048   70.9178  217.9209 H   0  0  0  0  0  0  0  0  0  0  0  0
  141.2944   71.7847  216.3501 H   0  0  0  0  0  0  0  0  0  0  0  0
  140.4160   72.9596  218.3494 H   0  0  0  0  0  0  0  0  0  0  0  0
  139.1683   72.5060  217.0917 H   0  0  0  0  0  0  0  0  0  0  0  0
  137.9555   71.5939  218.6762 H   0  0  0  0  0  0  0  0  0  0  0  0
  141.3401   75.4140  220.1401 H   0  0  0  0  0  0  0  0  0  0  0  0
  139.9712   76.5549  219.8434 H   0  0  0  0  0  0  0  0  0  0  0  0
  142.1514   76.7836  221.9628 H   0  0  0  0  0  0  0  0  0  0  0  0
  141.8836   77.8424  220.5201 H   0  0  0  0  0  0  0  0  0  0  0  0
  139.4372   80.5682  222.0376 H   0  0  0  0  0  0  0  0  0  0  0  0
  140.4521   82.6045  222.9971 H   0  0  0  0  0  0  0  0  0  0  0  0
  142.6528   82.5176  224.1287 H   0  0  0  0  0  0  0  0  0  0  0  0
  143.8395   80.3231  224.2800 H   0  0  0  0  0  0  0  0  0  0  0  0
  142.8304   78.3266  223.3323 H   0  0  0  0  0  0  0  0  0  0  0  0
  138.6887   78.2209  223.0549 H   0  0  0  0  0  0  0  0  0  0  0  0
  138.5903   77.8098  221.3178 H   0  0  0  0  0  0  0  0  0  0  0  0
  139.7230   76.0221  223.5427 H   0  0  0  0  0  0  0  0  0  0  0  0
  138.1325   75.8190  222.7093 H   0  0  0  0  0  0  0  0  0  0  0  0
  137.8747   70.4823  224.7964 H   0  0  0  0  0  0  0  0  0  0  0  0
  138.0420   69.8096  223.1687 H   0  0  0  0  0  0  0  0  0  0  0  0
  138.7120   68.0529  224.8084 H   0  0  0  0  0  0  0  0  0  0  0  0
  140.1874   68.5778  223.9919 H   0  0  0  0  0  0  0  0  0  0  0  0
  139.2033   67.6964  227.0855 H   0  0  0  0  0  0  0  0  0  0  0  0
  140.1159   68.5762  229.2565 H   0  0  0  0  0  0  0  0  0  0  0  0
  141.3050   70.7614  229.2698 H   0  0  0  0  0  0  0  0  0  0  0  0
  141.5891   72.0511  227.1807 H   0  0  0  0  0  0  0  0  0  0  0  0
  140.7613   72.4267  224.8989 H   0  0  0  0  0  0  0  0  0  0  0  0
  141.6266   70.9921  224.1901 H   0  0  0  0  0  0  0  0  0  0  0  0
  140.2667   69.7872  219.3856 H   0  0  0  0  0  0  0  0  0  0  0  0
  138.4836   69.4774  219.4755 H   0  0  0  0  0  0  0  0  0  0  0  0
  139.5679   68.3504  217.5909 H   0  0  0  0  0  0  0  0  0  0  0  0
  138.3034   69.5935  217.1123 H   0  0  0  0  0  0  0  0  0  0  0  0
  1  2  1  0
  2  3  2  0
  2  4  1  0
  4  5  1  0
  5  6  1  0
  6  7  1  0
  7  8  1  0
  8  9  1  0
  9 10  2  0
 10 11  1  0
 11 12  1  0
 12 13  1  0
 13 14  1  0
 14 15  1  0
 15 16  1  0
 16 17  2  0
 17 18  1  0
 18 19  2  0
 19 20  1  0
 20 21  2  0
 15 22  1  0
 22 23  1  0
 11 24  2  0
 24 25  1  0
 25 26  1  0
 26 27  1  0
 27 28  1  0
 28 29  1  0
 29 30  2  0
 30 31  1  0
 31 32  2  0
 32 33  1  0
 33 34  2  0
 34 35  1  0
 25 36  2  0
  8 37  1  0
 37 38  1  0
 38  5  1  0
 36  9  1  0
 23 12  1  0
 35 26  1  0
 21 16  1  0
 34 29  1  0
  1 39  1  0
  1 40  1  0
  4 41  1  0
  4 42  1  0
  6 43  1  0
  6 44  1  0
  7 45  1  0
  7 46  1  0
  8 47  1  0
 13 48  1  0
 13 49  1  0
 14 50  1  0
 14 51  1  0
 17 52  1  0
 18 53  1  0
 19 54  1  0
 20 55  1  0
 21 56  1  0
 22 57  1  0
 22 58  1  0
 23 59  1  0
 23 60  1  0
 27 61  1  0
 27 62  1  0
 28 63  1  0
 28 64  1  0
 30 65  1  0
 31 66  1  0
 32 67  1  0
 33 68  1  0
 35 69  1  0
 35 70  1  0
 37 71  1  0
 37 72  1  0
 38 73  1  0
 38 74  1  0
M  END
>  <smiles>  (10) 
NC(=O)CN1CCC(c2nc(N3CCN(c4ccccc4)CC3)nc(N3CCc4ccccc4C3)n2)CC1

>  <score_type>  (10) 
oracle

>  <origin>  (10) 
autodockgpu

>  <m_score__min__energy>  (10) 
-9.5199999999999996

>  <m_primary>  (10) 
energy

>  <rmsd>  (10) 
8.466968179028818

>  <m_score__min__rmsd>  (10) 
8.466968179028818

>  <meeko>  (10) 
{"free_energy": -8.18, "intermolecular_energy": -9.96, "internal_energy": -1.58, "cluster_size": 7, "cluster_id": 5, "rank_in_cluster": 4}

>  <energy>  (10) 
-9.1

>  <cluster_rmsd>  (10) 
1.0

>  <cluster>  (10) 
1

$$$$

     RDKit          3D

 74 79  0  0  0  0  0  0  0  0999 V2000
  146.5420   74.6570  215.8880 N   0  0  0  0  0  0  0  0  0  0  0  0
  146.3470   73.2520  216.0250 C   0  0  0  0  0  0  0  0  0  0  0  0
  147.2100   72.4440  215.5880 O   0  0  0  0  0  0  0  0  0  0  0  0
  145.0970   72.8120  216.6940 C   0  0  0  0  0  0  0  0  0  0  0  0
  144.7500   73.6570  217.8130 N   0  0  0  0  0  0  0  0  0  0  0  0
  143.3430   73.9450  217.8530 C   0  0  0  0  0  0  0  0  0  0  0  0
  142.5450   72.8590  218.5340 C   0  0  0  0  0  0  0  0  0  0  0  0
  143.0470   72.5110  219.9080 C   0  0  0  0  0  0  0  0  0  0  0  0
  141.9980   72.7820  220.9160 C   0  0  0  0  0  0  0  0  0  0  0  0
  141.3970   73.9830  220.8780 N   0  0  0  0  0  0  0  0  0  0  0  0
  140.4420   74.2390  221.7900 C   0  0  0  0  0  0  0  0  0  0  0  0
  139.7900   75.5020  221.7760 N   0  0  0  0  0  0  0  0  0  0  0  0
  140.4530   76.7000  221.2930 C   0  0  0  0  0  0  0  0  0  0  0  0
  140.0740   77.9070  222.1370 C   0  0  0  0  0  0  0  0  0  0  0  0
  138.6310   78.0410  222.2490 N   0  0  0  0  0  0  0  0  0  0  0  0
  138.1210   79.2310  222.8360 C   0  0  0  0  0  0  0  0  0  0  0  0
  136.9350   79.8230  222.4490 C   0  0  0  0  0  0  0  0  0  0  0  0
  136.4790   80.9860  223.0580 C   0  0  0  0  0  0  0  0  0  0  0  0
  137.1880   81.5880  224.0650 C   0  0  0  0  0  0  0  0  0  0  0  0
  138.3770   81.0080  224.4650 C   0  0  0  0  0  0  0  0  0  0  0  0
  138.8100   79.8700  223.8600 C   0  0  0  0  0  0  0  0  0  0  0  0
  137.8240   76.9640  221.7570 C   0  0  0  0  0  0  0  0  0  0  0  0
  138.4300   75.6500  222.2460 C   0  0  0  0  0  0  0  0  0  0  0  0
  140.0810   73.3380  222.7220 N   0  0  0  0  0  0  0  0  0  0  0  0
  140.6740   72.1190  222.7770 C   0  0  0  0  0  0  0  0  0  0  0  0
  140.3190   71.1410  223.7470 N   0  0  0  0  0  0  0  0  0  0  0  0
  139.0790   70.3880  223.6610 C   0  0  0  0  0  0  0  0  0  0  0  0
  139.4330   68.9560  224.0860 C   0  0  0  0  0  0  0  0  0  0  0  0
  139.7830   69.0510  225.5290 C   0  0  0  0  0  0  0  0  0  0  0  0
  139.2240   68.1900  226.4530 C   0  0  0  0  0  0  0  0  0  0  0  0
  139.5780   68.3090  227.8000 C   0  0  0  0  0  0  0  0  0  0  0  0
  140.4820   69.2900  228.1670 C   0  0  0  0  0  0  0  0  0  0  0  0
  141.0290   70.1400  227.2210 C   0  0  0  0  0  0  0  0  0  0  0  0
  140.6870   70.0330  225.8840 C   0  0  0  0  0  0  0  0  0  0  0  0
  141.2460   70.9180  224.8400 C   0  0  0  0  0  0  0  0  0  0  0  0
  141.6260   71.8860  221.8550 N   0  0  0  0  0  0  0  0  0  0  0  0
  144.3300   73.2490  220.2040 C   0  0  0  0  0  0  0  0  0  0  0  0
  145.2790   73.1820  219.0530 C   0  0  0  0  0  0  0  0  0  0  0  0
  146.6360   75.0850  214.9370 H   0  0  0  0  0  0  0  0  0  0  0  0
  146.5940   75.2710  216.7460 H   0  0  0  0  0  0  0  0  0  0  0  0
  144.2758   72.8379  215.9626 H   0  0  0  0  0  0  0  0  0  0  0  0
  145.2598   71.7940  217.0775 H   0  0  0  0  0  0  0  0  0  0  0  0
  143.1922   74.8877  218.3994 H   0  0  0  0  0  0  0  0  0  0  0  0
  142.9887   74.0158  216.8140 H   0  0  0  0  0  0  0  0  0  0  0  0
  141.5019   73.1971  218.6208 H   0  0  0  0  0  0  0  0  0  0  0  0
  142.6429   71.9535  217.9172 H   0  0  0  0  0  0  0  0  0  0  0  0
  143.2763   71.4360  219.9515 H   0  0  0  0  0  0  0  0  0  0  0  0
  141.5421   76.5537  221.3422 H   0  0  0  0  0  0  0  0  0  0  0  0
  140.1367   76.8830  220.2555 H   0  0  0  0  0  0  0  0  0  0  0  0
  140.5021   77.7892  223.1434 H   0  0  0  0  0  0  0  0  0  0  0  0
  140.4697   78.8099  221.6490 H   0  0  0  0  0  0  0  0  0  0  0  0
  136.3405   79.3658  221.6443 H   0  0  0  0  0  0  0  0  0  0  0  0
  135.5303   81.4324  222.7253 H   0  0  0  0  0  0  0  0  0  0  0  0
  136.8203   82.5084  224.5421 H   0  0  0  0  0  0  0  0  0  0  0  0
  138.9709   81.4655  225.2700 H   0  0  0  0  0  0  0  0  0  0  0  0
  139.7592   79.4302  224.2002 H   0  0  0  0  0  0  0  0  0  0  0  0
  136.7969   77.0646  222.1377 H   0  0  0  0  0  0  0  0  0  0  0  0
  137.7955   76.9828  220.6575 H   0  0  0  0  0  0  0  0  0  0  0  0
  138.4259   75.6389  223.3459 H   0  0  0  0  0  0  0  0  0  0  0  0
  137.8292   74.8175  221.8510 H   0  0  0  0  0  0  0  0  0  0  0  0
  138.3239   70.8136  224.3383 H   0  0  0  0  0  0  0  0  0  0  0  0
  138.6553   70.4176  222.6463 H   0  0  0  0  0  0  0  0  0  0  0  0
  138.5719   68.2870  223.9414 H   0  0  0  0  0  0  0  0  0  0  0  0
  140.2598   68.5432  223.4893 H   0  0  0  0  0  0  0  0  0  0  0  0
  138.5080   67.4190  226.1324 H   0  0  0  0  0  0  0  0  0  0  0  0
  139.1458   67.6351  228.5544 H   0  0  0  0  0  0  0  0  0  0  0  0
  140.7696   69.3959  229.2234 H   0  0  0  0  0  0  0  0  0  0  0  0
  141.7462   70.9120  227.5366 H   0  0  0  0  0  0  0  0  0  0  0  0
  141.4944   71.8880  225.2955 H   0  0  0  0  0  0  0  0  0  0  0  0
  142.1384   70.4254  224.4265 H   0  0  0  0  0  0  0  0  0  0  0  0
  144.0957   74.3032  220.4129 H   0  0  0  0  0  0  0  0  0  0  0  0
  144.8083   72.7739  221.0732 H   0  0  0  0  0  0  0  0  0  0  0  0
  146.1630   73.7872  219.3024 H   0  0  0  0  0  0  0  0  0  0  0  0
  145.5109   72.1171  218.9037 H   0  0  0  0  0  0  0  0  0  0  0  0
  1  2  1  0
  2  3  2  0
  2  4  1  0
  4  5  1  0
  5  6  1  0
  6  7  1  0
  7  8  1  0
  8  9  1  0
  9 10  2  0
 10 11  1  0
 11 12  1  0
 12 13  1  0
 13 14  1  0
 14 15  1  0
 15 16  1  0
 16 17  2  0
 17 18  1  0
 18 19  2  0
 19 20  1  0
 20 21  2  0
 15 22  1  0
 22 23  1  0
 11 24  2  0
 24 25  1  0
 25 26  1  0
 26 27  1  0
 27 28  1  0
 28 29  1  0
 29 30  2  0
 30 31  1  0
 31 32  2  0
 32 33  1  0
 33 34  2  0
 34 35  1  0
 25 36  2  0
  8 37  1  0
 37 38  1  0
 38  5  1  0
 36  9  1  0
 23 12  1  0
 35 26  1  0
 21 16  1  0
 34 29  1  0
  1 39  1  0
  1 40  1  0
  4 41  1  0
  4 42  1  0
  6 43  1  0
  6 44  1  0
  7 45  1  0
  7 46  1  0
  8 47  1  0
 13 48  1  0
 13 49  1  0
 14 50  1  0
 14 51  1  0
 17 52  1  0
 18 53  1  0
 19 54  1  0
 20 55  1  0
 21 56  1  0
 22 57  1  0
 22 58  1  0
 23 59  1  0
 23 60  1  0
 27 61  1  0
 27 62  1  0
 28 63  1  0
 28 64  1  0
 30 65  1  0
 31 66  1  0
 32 67  1  0
 33 68  1  0
 35 69  1  0
 35 70  1  0
 37 71  1  0
 37 72  1  0
 38 73  1  0
 38 74  1  0
M  END
>  <smiles>  (11) 
NC(=O)CN1CCC(c2nc(N3CCN(c4ccccc4)CC3)nc(N3CCc4ccccc4C3)n2)CC1

>  <score_type>  (11) 
oracle

>  <origin>  (11) 
autodockgpu

>  <m_score__min__energy>  (11) 
-9.5199999999999996

>  <m_primary>  (11) 
energy

>  <rmsd>  (11) 
8.313597112557993

>  <m_score__min__rmsd>  (11) 
8.313597112557993

>  <meeko>  (11) 
{"free_energy": -8.69, "intermolecular_energy": -10.48, "internal_energy": -1.56, "cluster_size": 25, "cluster_id": 1, "rank_in_cluster": 22}

>  <energy>  (11) 
-9.04

>  <cluster_rmsd>  (11) 
0.48

>  <cluster>  (11) 
1

$$$$

     RDKit          3D

 74 79  0  0  0  0  0  0  0  0999 V2000
  135.8470   72.5000  223.9350 N   0  0  0  0  0  0  0  0  0  0  0  0
  135.5300   71.1400  224.2160 C   0  0  0  0  0  0  0  0  0  0  0  0
  135.0730   70.8120  225.3440 O   0  0  0  0  0  0  0  0  0  0  0  0
  135.7670   70.1590  223.1260 C   0  0  0  0  0  0  0  0  0  0  0  0
  137.1690   70.0190  222.8130 N   0  0  0  0  0  0  0  0  0  0  0  0
  137.4920   70.5790  221.5300 C   0  0  0  0  0  0  0  0  0  0  0  0
  137.7410   72.0670  221.5900 C   0  0  0  0  0  0  0  0  0  0  0  0
  138.7700   72.4680  222.6100 C   0  0  0  0  0  0  0  0  0  0  0  0
  139.9140   73.1300  221.9430 C   0  0  0  0  0  0  0  0  0  0  0  0
  140.7830   72.3490  221.2810 N   0  0  0  0  0  0  0  0  0  0  0  0
  141.8260   72.9410  220.6730 C   0  0  0  0  0  0  0  0  0  0  0  0
  142.7640   72.1400  219.9650 N   0  0  0  0  0  0  0  0  0  0  0  0
  142.4410   71.5360  218.6840 C   0  0  0  0  0  0  0  0  0  0  0  0
  143.0450   70.1450  218.5740 C   0  0  0  0  0  0  0  0  0  0  0  0
  144.4680   70.1620  218.8710 N   0  0  0  0  0  0  0  0  0  0  0  0
  145.2120   68.9780  218.6140 C   0  0  0  0  0  0  0  0  0  0  0  0
  145.5710   68.0780  219.5980 C   0  0  0  0  0  0  0  0  0  0  0  0
  146.2970   66.9320  219.2950 C   0  0  0  0  0  0  0  0  0  0  0  0
  146.6810   66.6520  218.0080 C   0  0  0  0  0  0  0  0  0  0  0  0
  146.3280   67.5430  217.0120 C   0  0  0  0  0  0  0  0  0  0  0  0
  145.6190   68.6590  217.3250 C   0  0  0  0  0  0  0  0  0  0  0  0
  145.0210   71.3730  219.4010 C   0  0  0  0  0  0  0  0  0  0  0  0
  144.0860   71.8890  220.4930 C   0  0  0  0  0  0  0  0  0  0  0  0
  142.0160   74.2720  220.7110 N   0  0  0  0  0  0  0  0  0  0  0  0
  141.1500   75.0800  221.3730 C   0  0  0  0  0  0  0  0  0  0  0  0
  141.3190   76.4910  221.4340 N   0  0  0  0  0  0  0  0  0  0  0  0
  141.7940   77.2590  220.2960 C   0  0  0  0  0  0  0  0  0  0  0  0
  140.9680   78.5530  220.2940 C   0  0  0  0  0  0  0  0  0  0  0  0
  141.3880   79.2880  221.5180 C   0  0  0  0  0  0  0  0  0  0  0  0
  141.7470   80.6190  221.4580 C   0  0  0  0  0  0  0  0  0  0  0  0
  142.1350   81.2770  222.6280 C   0  0  0  0  0  0  0  0  0  0  0  0
  142.1470   80.5690  223.8170 C   0  0  0  0  0  0  0  0  0  0  0  0
  141.7820   79.2330  223.8510 C   0  0  0  0  0  0  0  0  0  0  0  0
  141.3950   78.5710  222.6990 C   0  0  0  0  0  0  0  0  0  0  0  0
  140.9970   77.1470  222.6870 C   0  0  0  0  0  0  0  0  0  0  0  0
  140.1150   74.4650  221.9740 N   0  0  0  0  0  0  0  0  0  0  0  0
  139.1970   71.2730  223.4270 C   0  0  0  0  0  0  0  0  0  0  0  0
  138.0220   70.4640  223.8700 C   0  0  0  0  0  0  0  0  0  0  0  0
  136.5690   73.0010  224.5060 H   0  0  0  0  0  0  0  0  0  0  0  0
  135.3540   73.0090  223.1510 H   0  0  0  0  0  0  0  0  0  0  0  0
  135.3746   69.1802  223.4390 H   0  0  0  0  0  0  0  0  0  0  0  0
  135.2550   70.5262  222.2243 H   0  0  0  0  0  0  0  0  0  0  0  0
  138.3982   70.0856  221.1487 H   0  0  0  0  0  0  0  0  0  0  0  0
  136.6293   70.4128  220.8681 H   0  0  0  0  0  0  0  0  0  0  0  0
  138.0848   72.4016  220.6001 H   0  0  0  0  0  0  0  0  0  0  0  0
  136.7931   72.5393  221.8875 H   0  0  0  0  0  0  0  0  0  0  0  0
  138.3290   73.1945  223.3083 H   0  0  0  0  0  0  0  0  0  0  0  0
  141.3479   71.4631  218.5853 H   0  0  0  0  0  0  0  0  0  0  0  0
  142.8572   72.1649  217.8832 H   0  0  0  0  0  0  0  0  0  0  0  0
  142.5383   69.4770  219.2861 H   0  0  0  0  0  0  0  0  0  0  0  0
  142.9099   69.7884  217.5422 H   0  0  0  0  0  0  0  0  0  0  0  0
  145.2772   68.2715  220.6402 H   0  0  0  0  0  0  0  0  0  0  0  0
  146.5688   66.2363  220.1025 H   0  0  0  0  0  0  0  0  0  0  0  0
  147.2545   65.7427  217.7750 H   0  0  0  0  0  0  0  0  0  0  0  0
  146.6201   67.3492  215.9693 H   0  0  0  0  0  0  0  0  0  0  0  0
  145.3521   69.3492  216.5111 H   0  0  0  0  0  0  0  0  0  0  0  0
  146.0154   71.1728  219.8266 H   0  0  0  0  0  0  0  0  0  0  0  0
  145.1235   72.1238  218.6036 H   0  0  0  0  0  0  0  0  0  0  0  0
  144.0174   71.1372  221.2930 H   0  0  0  0  0  0  0  0  0  0  0  0
  144.4922   72.8327  220.8859 H   0  0  0  0  0  0  0  0  0  0  0  0
  142.8643   77.4874  220.4073 H   0  0  0  0  0  0  0  0  0  0  0  0
  141.6789   76.7025  219.3542 H   0  0  0  0  0  0  0  0  0  0  0  0
  141.1848   79.1473  219.3941 H   0  0  0  0  0  0  0  0  0  0  0  0
  139.8869   78.3498  220.2880 H   0  0  0  0  0  0  0  0  0  0  0  0
  141.7279   81.1567  220.4986 H   0  0  0  0  0  0  0  0  0  0  0  0
  142.4254   82.3377  222.6044 H   0  0  0  0  0  0  0  0  0  0  0  0
  142.4501   81.0732  224.7465 H   0  0  0  0  0  0  0  0  0  0  0  0
  141.8001   78.6905  224.8077 H   0  0  0  0  0  0  0  0  0  0  0  0
  141.5214   76.6272  223.5023 H   0  0  0  0  0  0  0  0  0  0  0  0
  139.9054   77.1039  222.8161 H   0  0  0  0  0  0  0  0  0  0  0  0
  139.8569   70.6397  222.8159 H   0  0  0  0  0  0  0  0  0  0  0  0
  139.7223   71.6371  224.3222 H   0  0  0  0  0  0  0  0  0  0  0  0
  138.3976   69.5780  224.4028 H   0  0  0  0  0  0  0  0  0  0  0  0
  137.4119   71.1246  224.5036 H   0  0  0  0  0  0  0  0  0  0  0  0
  1  2  1  0
  2  3  2  0
  2  4  1  0
  4  5  1  0
  5  6  1  0
  6  7  1  0
  7  8  1  0
  8  9  1  0
  9 10  2  0
 10 11  1  0
 11 12  1  0
 12 13  1  0
 13 14  1  0
 14 15  1  0
 15 16  1  0
 16 17  2  0
 17 18  1  0
 18 19  2  0
 19 20  1  0
 20 21  2  0
 15 22  1  0
 22 23  1  0
 11 24  2  0
 24 25  1  0
 25 26  1  0
 26 27  1  0
 27 28  1  0
 28 29  1  0
 29 30  2  0
 30 31  1  0
 31 32  2  0
 32 33  1  0
 33 34  2  0
 34 35  1  0
 25 36  2  0
  8 37  1  0
 37 38  1  0
 38  5  1  0
 36  9  1  0
 23 12  1  0
 35 26  1  0
 21 16  1  0
 34 29  1  0
  1 39  1  0
  1 40  1  0
  4 41  1  0
  4 42  1  0
  6 43  1  0
  6 44  1  0
  7 45  1  0
  7 46  1  0
  8 47  1  0
 13 48  1  0
 13 49  1  0
 14 50  1  0
 14 51  1  0
 17 52  1  0
 18 53  1  0
 19 54  1  0
 20 55  1  0
 21 56  1  0
 22 57  1  0
 22 58  1  0
 23 59  1  0
 23 60  1  0
 27 61  1  0
 27 62  1  0
 28 63  1  0
 28 64  1  0
 30 65  1  0
 31 66  1  0
 32 67  1  0
 33 68  1  0
 35 69  1  0
 35 70  1  0
 37 71  1  0
 37 72  1  0
 38 73  1  0
 38 74  1  0
M  END
>  <smiles>  (12) 
NC(=O)CN1CCC(c2nc(N3CCN(c4ccccc4)CC3)nc(N3CCc4ccccc4C3)n2)CC1

>  <score_type>  (12) 
oracle

>  <origin>  (12) 
autodockgpu

>  <m_score__min__energy>  (12) 
-9.5199999999999996

>  <m_primary>  (12) 
energy

>  <rmsd>  (12) 
8.17288627840853

>  <m_score__min__rmsd>  (12) 
8.17288627840853

>  <meeko>  (12) 
{"free_energy": -8.42, "intermolecular_energy": -10.21, "internal_energy": -1.42, "cluster_size": 2, "cluster_id": 4, "rank_in_cluster": 1}

>  <energy>  (12) 
-8.98

>  <cluster_rmsd>  (12) 
0.73

>  <cluster>  (12) 
1

$$$$

     RDKit          3D

 74 79  0  0  0  0  0  0  0  0999 V2000
  146.1590   74.6850  216.3180 N   0  0  0  0  0  0  0  0  0  0  0  0
  145.2110   73.6210  216.2830 C   0  0  0  0  0  0  0  0  0  0  0  0
  144.1380   73.7440  215.6320 O   0  0  0  0  0  0  0  0  0  0  0  0
  145.5560   72.3930  217.0420 C   0  0  0  0  0  0  0  0  0  0  0  0
  145.4460   72.5830  218.4690 N   0  0  0  0  0  0  0  0  0  0  0  0
  144.5720   73.6750  218.7990 C   0  0  0  0  0  0  0  0  0  0  0  0
  143.1170   73.2690  218.8250 C   0  0  0  0  0  0  0  0  0  0  0  0
  142.8350   72.0870  219.7110 C   0  0  0  0  0  0  0  0  0  0  0  0
  141.9020   72.4740  220.7920 C   0  0  0  0  0  0  0  0  0  0  0  0
  141.4110   73.7240  220.7710 N   0  0  0  0  0  0  0  0  0  0  0  0
  140.5630   74.0850  221.7500 C   0  0  0  0  0  0  0  0  0  0  0  0
  140.0290   75.4030  221.7550 N   0  0  0  0  0  0  0  0  0  0  0  0
  140.8820   76.5740  221.6460 C   0  0  0  0  0  0  0  0  0  0  0  0
  140.3710   77.7000  222.5320 C   0  0  0  0  0  0  0  0  0  0  0  0
  138.9650   77.9730  222.2810 N   0  0  0  0  0  0  0  0  0  0  0  0
  138.3980   79.1280  222.8860 C   0  0  0  0  0  0  0  0  0  0  0  0
  137.0380   79.3360  223.0020 C   0  0  0  0  0  0  0  0  0  0  0  0
  136.5330   80.4820  223.6040 C   0  0  0  0  0  0  0  0  0  0  0  0
  137.3670   81.4480  224.1070 C   0  0  0  0  0  0  0  0  0  0  0  0
  138.7320   81.2550  223.9990 C   0  0  0  0  0  0  0  0  0  0  0  0
  139.2090   80.1280  223.4070 C   0  0  0  0  0  0  0  0  0  0  0  0
  138.2510   77.0590  221.4410 C   0  0  0  0  0  0  0  0  0  0  0  0
  138.6070   75.6370  221.8690 C   0  0  0  0  0  0  0  0  0  0  0  0
  140.2000   73.2400  222.7310 N   0  0  0  0  0  0  0  0  0  0  0  0
  140.6820   71.9720  222.7710 C   0  0  0  0  0  0  0  0  0  0  0  0
  140.3200   71.0510  223.7930 N   0  0  0  0  0  0  0  0  0  0  0  0
  139.0750   70.3030  223.7480 C   0  0  0  0  0  0  0  0  0  0  0  0
  139.4200   68.8930  224.2500 C   0  0  0  0  0  0  0  0  0  0  0  0
  139.7720   69.0630  225.6850 C   0  0  0  0  0  0  0  0  0  0  0  0
  139.2080   68.2580  226.6540 C   0  0  0  0  0  0  0  0  0  0  0  0
  139.5630   68.4460  227.9930 C   0  0  0  0  0  0  0  0  0  0  0  0
  140.4740   69.4390  228.3060 C   0  0  0  0  0  0  0  0  0  0  0  0
  141.0270   70.2340  227.3150 C   0  0  0  0  0  0  0  0  0  0  0  0
  140.6830   70.0570  225.9860 C   0  0  0  0  0  0  0  0  0  0  0  0
  141.2470   70.8810  224.8960 C   0  0  0  0  0  0  0  0  0  0  0  0
  141.5290   71.6340  221.7820 N   0  0  0  0  0  0  0  0  0  0  0  0
  144.1230   71.5090  220.2450 C   0  0  0  0  0  0  0  0  0  0  0  0
  145.1510   71.3740  219.1710 C   0  0  0  0  0  0  0  0  0  0  0  0
  145.8870   75.6180  216.7090 H   0  0  0  0  0  0  0  0  0  0  0  0
  147.1360   74.5370  215.9470 H   0  0  0  0  0  0  0  0  0  0  0  0
  144.8730   71.5858  216.7387 H   0  0  0  0  0  0  0  0  0  0  0  0
  146.6022   72.1396  216.8155 H   0  0  0  0  0  0  0  0  0  0  0  0
  144.8481   74.0592  219.7921 H   0  0  0  0  0  0  0  0  0  0  0  0
  144.6893   74.4421  218.0194 H   0  0  0  0  0  0  0  0  0  0  0  0
  142.5246   74.1227  219.1859 H   0  0  0  0  0  0  0  0  0  0  0  0
  142.8471   72.9742  217.8002 H   0  0  0  0  0  0  0  0  0  0  0  0
  142.3471   71.2965  219.1219 H   0  0  0  0  0  0  0  0  0  0  0  0
  141.9029   76.3064  221.9560 H   0  0  0  0  0  0  0  0  0  0  0  0
  140.8764   76.9178  220.6011 H   0  0  0  0  0  0  0  0  0  0  0  0
  140.4975   77.4121  223.5861 H   0  0  0  0  0  0  0  0  0  0  0  0
  140.9472   78.6091  222.3051 H   0  0  0  0  0  0  0  0  0  0  0  0
  136.3412   78.5803  222.6105 H   0  0  0  0  0  0  0  0  0  0  0  0
  135.4439   80.6172  223.6786 H   0  0  0  0  0  0  0  0  0  0  0  0
  136.9607   82.3523  224.5837 H   0  0  0  0  0  0  0  0  0  0  0  0
  139.4291   82.0104  224.3906 H   0  0  0  0  0  0  0  0  0  0  0  0
  140.2994   80.0008  223.3366 H   0  0  0  0  0  0  0  0  0  0  0  0
  137.1685   77.2206  221.5510 H   0  0  0  0  0  0  0  0  0  0  0  0
  138.5259   77.2180  220.3878 H   0  0  0  0  0  0  0  0  0  0  0  0
  138.3006   75.4887  222.9150 H   0  0  0  0  0  0  0  0  0  0  0  0
  138.0813   74.9304  221.2100 H   0  0  0  0  0  0  0  0  0  0  0  0
  138.3232   70.7697  224.4015 H   0  0  0  0  0  0  0  0  0  0  0  0
  138.6508   70.2806  222.7333 H   0  0  0  0  0  0  0  0  0  0  0  0
  138.5542   68.2230  224.1423 H   0  0  0  0  0  0  0  0  0  0  0  0
  140.2436   68.4432  223.6760 H   0  0  0  0  0  0  0  0  0  0  0  0
  138.4862   67.4761  226.3754 H   0  0  0  0  0  0  0  0  0  0  0  0
  139.1265   67.8166  228.7824 H   0  0  0  0  0  0  0  0  0  0  0  0
  140.7631   69.5995  229.3551 H   0  0  0  0  0  0  0  0  0  0  0  0
  141.7497   71.0170  227.5883 H   0  0  0  0  0  0  0  0  0  0  0  0
  141.5021   71.8723  225.2987 H   0  0  0  0  0  0  0  0  0  0  0  0
  142.1360   70.3613  224.5091 H   0  0  0  0  0  0  0  0  0  0  0  0
  144.5130   72.1721  221.0313 H   0  0  0  0  0  0  0  0  0  0  0  0
  143.9105   70.5070  220.6461 H   0  0  0  0  0  0  0  0  0  0  0  0
  146.0813   71.0099  219.6315 H   0  0  0  0  0  0  0  0  0  0  0  0
  144.7335   70.6784  218.4282 H   0  0  0  0  0  0  0  0  0  0  0  0
  1  2  1  0
  2  3  2  0
  2  4  1  0
  4  5  1  0
  5  6  1  0
  6  7  1  0
  7  8  1  0
  8  9  1  0
  9 10  2  0
 10 11  1  0
 11 12  1  0
 12 13  1  0
 13 14  1  0
 14 15  1  0
 15 16  1  0
 16 17  2  0
 17 18  1  0
 18 19  2  0
 19 20  1  0
 20 21  2  0
 15 22  1  0
 22 23  1  0
 11 24  2  0
 24 25  1  0
 25 26  1  0
 26 27  1  0
 27 28  1  0
 28 29  1  0
 29 30  2  0
 30 31  1  0
 31 32  2  0
 32 33  1  0
 33 34  2  0
 34 35  1  0
 25 36  2  0
  8 37  1  0
 37 38  1  0
 38  5  1  0
 36  9  1  0
 23 12  1  0
 35 26  1  0
 21 16  1  0
 34 29  1  0
  1 39  1  0
  1 40  1  0
  4 41  1  0
  4 42  1  0
  6 43  1  0
  6 44  1  0
  7 45  1  0
  7 46  1  0
  8 47  1  0
 13 48  1  0
 13 49  1  0
 14 50  1  0
 14 51  1  0
 17 52  1  0
 18 53  1  0
 19 54  1  0
 20 55  1  0
 21 56  1  0
 22 57  1  0
 22 58  1  0
 23 59  1  0
 23 60  1  0
 27 61  1  0
 27 62  1  0
 28 63  1  0
 28 64  1  0
 30 65  1  0
 31 66  1  0
 32 67  1  0
 33 68  1  0
 35 69  1  0
 35 70  1  0
 37 71  1  0
 37 72  1  0
 38 73  1  0
 38 74  1  0
M  END
>  <smiles>  (13) 
NC(=O)CN1CCC(c2nc(N3CCN(c4ccccc4)CC3)nc(N3CCc4ccccc4C3)n2)CC1

>  <score_type>  (13) 
oracle

>  <origin>  (13) 
autodockgpu

>  <m_score__min__energy>  (13) 
-9.5199999999999996

>  <m_primary>  (13) 
energy

>  <rmsd>  (13) 
8.29989847301569

>  <m_score__min__rmsd>  (13) 
8.29989847301569

>  <meeko>  (13) 
{"free_energy": -8.91, "intermolecular_energy": -10.7, "internal_energy": -1.42, "cluster_size": 25, "cluster_id": 1, "rank_in_cluster": 14}

>  <energy>  (13) 
-8.93

>  <cluster_rmsd>  (13) 
0.55

>  <cluster>  (13) 
1

$$$$

     RDKit          3D

 74 79  0  0  0  0  0  0  0  0999 V2000
  144.1430   69.0020  218.9610 N   0  0  0  0  0  0  0  0  0  0  0  0
  145.5020   69.4320  218.9550 C   0  0  0  0  0  0  0  0  0  0  0  0
  146.3430   68.8960  219.7260 O   0  0  0  0  0  0  0  0  0  0  0  0
  145.8550   70.5220  218.0110 C   0  0  0  0  0  0  0  0  0  0  0  0
  145.5480   71.8280  218.5450 N   0  0  0  0  0  0  0  0  0  0  0  0
  144.2550   72.2910  218.1220 C   0  0  0  0  0  0  0  0  0  0  0  0
  143.1350   71.7650  218.9880 C   0  0  0  0  0  0  0  0  0  0  0  0
  143.3310   72.0290  220.4560 C   0  0  0  0  0  0  0  0  0  0  0  0
  142.2330   72.8780  220.9700 C   0  0  0  0  0  0  0  0  0  0  0  0
  141.1270   72.2580  221.4170 N   0  0  0  0  0  0  0  0  0  0  0  0
  140.1240   73.0210  221.8850 C   0  0  0  0  0  0  0  0  0  0  0  0
  138.9400   72.3940  222.3630 N   0  0  0  0  0  0  0  0  0  0  0  0
  137.6370   72.6800  221.7880 C   0  0  0  0  0  0  0  0  0  0  0  0
  136.5660   72.7170  222.8660 C   0  0  0  0  0  0  0  0  0  0  0  0
  136.5950   71.5130  223.6810 N   0  0  0  0  0  0  0  0  0  0  0  0
  135.5290   71.3100  224.5990 C   0  0  0  0  0  0  0  0  0  0  0  0
  134.6790   72.3170  225.0110 C   0  0  0  0  0  0  0  0  0  0  0  0
  133.6480   72.0670  225.9100 C   0  0  0  0  0  0  0  0  0  0  0  0
  133.4370   70.8110  226.4190 C   0  0  0  0  0  0  0  0  0  0  0  0
  134.2790   69.7920  226.0150 C   0  0  0  0  0  0  0  0  0  0  0  0
  135.2820   70.0530  225.1360 C   0  0  0  0  0  0  0  0  0  0  0  0
  137.6970   70.6160  223.5000 C   0  0  0  0  0  0  0  0  0  0  0  0
  138.9820   71.4390  223.4480 C   0  0  0  0  0  0  0  0  0  0  0  0
  140.1990   74.3630  221.9170 N   0  0  0  0  0  0  0  0  0  0  0  0
  141.3060   75.0090  221.4730 C   0  0  0  0  0  0  0  0  0  0  0  0
  141.4210   76.4270  221.4920 N   0  0  0  0  0  0  0  0  0  0  0  0
  141.8830   77.1760  220.3350 C   0  0  0  0  0  0  0  0  0  0  0  0
  141.0090   78.4370  220.2820 C   0  0  0  0  0  0  0  0  0  0  0  0
  141.3850   79.2250  221.4870 C   0  0  0  0  0  0  0  0  0  0  0  0
  141.6950   80.5670  221.3880 C   0  0  0  0  0  0  0  0  0  0  0  0
  142.0420   81.2750  222.5420 C   0  0  0  0  0  0  0  0  0  0  0  0
  142.0640   80.6060  223.7530 C   0  0  0  0  0  0  0  0  0  0  0  0
  141.7490   79.2590  223.8250 C   0  0  0  0  0  0  0  0  0  0  0  0
  141.4030   78.5470  222.6900 C   0  0  0  0  0  0  0  0  0  0  0  0
  141.0590   77.1100  222.7190 C   0  0  0  0  0  0  0  0  0  0  0  0
  142.2970   74.2260  221.0080 N   0  0  0  0  0  0  0  0  0  0  0  0
  144.6900   72.6380  220.7060 C   0  0  0  0  0  0  0  0  0  0  0  0
  145.7600   71.9160  219.9550 C   0  0  0  0  0  0  0  0  0  0  0  0
  143.5710   69.0800  219.8350 H   0  0  0  0  0  0  0  0  0  0  0  0
  143.7100   68.6030  218.0840 H   0  0  0  0  0  0  0  0  0  0  0  0
  146.9330   70.4709  217.7983 H   0  0  0  0  0  0  0  0  0  0  0  0
  145.2591   70.3827  217.0970 H   0  0  0  0  0  0  0  0  0  0  0  0
  144.2444   73.3902  218.1623 H   0  0  0  0  0  0  0  0  0  0  0  0
  144.0872   71.9195  217.1003 H   0  0  0  0  0  0  0  0  0  0  0  0
  142.1968   72.2439  218.6712 H   0  0  0  0  0  0  0  0  0  0  0  0
  143.1135   70.6730  218.8577 H   0  0  0  0  0  0  0  0  0  0  0  0
  143.2979   71.0769  221.0060 H   0  0  0  0  0  0  0  0  0  0  0  0
  137.6728   73.6560  221.2819 H   0  0  0  0  0  0  0  0  0  0  0  0
  137.3867   71.8848  221.0704 H   0  0  0  0  0  0  0  0  0  0  0  0
  136.7374   73.5910  223.5116 H   0  0  0  0  0  0  0  0  0  0  0  0
  135.5829   72.7815  222.3767 H   0  0  0  0  0  0  0  0  0  0  0  0
  134.8200   73.3358  224.6209 H   0  0  0  0  0  0  0  0  0  0  0  0
  132.9893   72.8921  226.2187 H   0  0  0  0  0  0  0  0  0  0  0  0
  132.6195   70.6197  227.1298 H   0  0  0  0  0  0  0  0  0  0  0  0
  134.1376   68.7728  226.4038 H   0  0  0  0  0  0  0  0  0  0  0  0
  135.9353   69.2217  224.8325 H   0  0  0  0  0  0  0  0  0  0  0  0
  137.7424   69.9083  224.3409 H   0  0  0  0  0  0  0  0  0  0  0  0
  137.5733   70.0474  222.5665 H   0  0  0  0  0  0  0  0  0  0  0  0
  139.1024   71.9792  224.3987 H   0  0  0  0  0  0  0  0  0  0  0  0
  139.8294   70.7572  223.2833 H   0  0  0  0  0  0  0  0  0  0  0  0
  142.9424   77.4480  220.4520 H   0  0  0  0  0  0  0  0  0  0  0  0
  141.8020   76.5861  219.4101 H   0  0  0  0  0  0  0  0  0  0  0  0
  141.2152   79.0107  219.3664 H   0  0  0  0  0  0  0  0  0  0  0  0
  139.9365   78.1929  220.2693 H   0  0  0  0  0  0  0  0  0  0  0  0
  141.6691   81.0732  220.4117 H   0  0  0  0  0  0  0  0  0  0  0  0
  142.2931   82.3446  222.4885 H   0  0  0  0  0  0  0  0  0  0  0  0
  142.3349   81.1504  224.6697 H   0  0  0  0  0  0  0  0  0  0  0  0
  141.7743   78.7478  224.7987 H   0  0  0  0  0  0  0  0  0  0  0  0
  141.5921   76.6366  223.5566 H   0  0  0  0  0  0  0  0  0  0  0  0
  139.9682   77.0299  222.8365 H   0  0  0  0  0  0  0  0  0  0  0  0
  144.6750   73.6898  220.3842 H   0  0  0  0  0  0  0  0  0  0  0  0
  144.9105   72.5604  221.7809 H   0  0  0  0  0  0  0  0  0  0  0  0
  146.7115   72.4409  220.1258 H   0  0  0  0  0  0  0  0  0  0  0  0
  145.7599   70.8830  220.3329 H   0  0  0  0  0  0  0  0  0  0  0  0
  1  2  1  0
  2  3  2  0
  2  4  1  0
  4  5  1  0
  5  6  1  0
  6  7  1  0
  7  8  1  0
  8  9  1  0
  9 10  2  0
 10 11  1  0
 11 12  1  0
 12 13  1  0
 13 14  1  0
 14 15  1  0
 15 16  1  0
 16 17  2  0
 17 18  1  0
 18 19  2  0
 19 20  1  0
 20 21  2  0
 15 22  1  0
 22 23  1  0
 11 24  2  0
 24 25  1  0
 25 26  1  0
 26 27  1  0
 27 28  1  0
 28 29  1  0
 29 30  2  0
 30 31  1  0
 31 32  2  0
 32 33  1  0
 33 34  2  0
 34 35  1  0
 25 36  2  0
  8 37  1  0
 37 38  1  0
 38  5  1  0
 36  9  1  0
 23 12  1  0
 35 26  1  0
 21 16  1  0
 34 29  1  0
  1 39  1  0
  1 40  1  0
  4 41  1  0
  4 42  1  0
  6 43  1  0
  6 44  1  0
  7 45  1  0
  7 46  1  0
  8 47  1  0
 13 48  1  0
 13 49  1  0
 14 50  1  0
 14 51  1  0
 17 52  1  0
 18 53  1  0
 19 54  1  0
 20 55  1  0
 21 56  1  0
 22 57  1  0
 22 58  1  0
 23 59  1  0
 23 60  1  0
 27 61  1  0
 27 62  1  0
 28 63  1  0
 28 64  1  0
 30 65  1  0
 31 66  1  0
 32 67  1  0
 33 68  1  0
 35 69  1  0
 35 70  1  0
 37 71  1  0
 37 72  1  0
 38 73  1  0
 38 74  1  0
M  END
>  <smiles>  (14) 
NC(=O)CN1CCC(c2nc(N3CCN(c4ccccc4)CC3)nc(N3CCc4ccccc4C3)n2)CC1

>  <score_type>  (14) 
oracle

>  <origin>  (14) 
autodockgpu

>  <m_score__min__energy>  (14) 
-9.5199999999999996

>  <m_primary>  (14) 
energy

>  <rmsd>  (14) 
5.725560627329857

>  <m_score__min__rmsd>  (14) 
5.725560627329857

>  <meeko>  (14) 
{"free_energy": -8.9, "intermolecular_energy": -10.69, "internal_energy": -1.42, "cluster_size": 11, "cluster_id": 3, "rank_in_cluster": 4}

>  <energy>  (14) 
-8.91

>  <cluster_rmsd>  (14) 
0.72

>  <cluster>  (14) 
1

$$$$

     RDKit          3D

 74 79  0  0  0  0  0  0  0  0999 V2000
  137.3300   71.3760  215.9110 N   0  0  0  0  0  0  0  0  0  0  0  0
  137.2120   69.9560  215.9030 C   0  0  0  0  0  0  0  0  0  0  0  0
  136.0890   69.4110  215.7240 O   0  0  0  0  0  0  0  0  0  0  0  0
  138.4600   69.1800  216.1150 C   0  0  0  0  0  0  0  0  0  0  0  0
  138.7490   68.9810  217.5160 N   0  0  0  0  0  0  0  0  0  0  0  0
  139.8950   69.7360  217.9400 C   0  0  0  0  0  0  0  0  0  0  0  0
  139.5530   71.1630  218.2990 C   0  0  0  0  0  0  0  0  0  0  0  0
  138.4440   71.2840  219.3080 C   0  0  0  0  0  0  0  0  0  0  0  0
  138.9400   71.9570  220.5290 C   0  0  0  0  0  0  0  0  0  0  0  0
  139.1170   73.2880  220.4750 N   0  0  0  0  0  0  0  0  0  0  0  0
  139.5680   73.9080  221.5800 C   0  0  0  0  0  0  0  0  0  0  0  0
  139.7670   75.3160  221.5520 N   0  0  0  0  0  0  0  0  0  0  0  0
  140.6720   75.9420  220.6040 C   0  0  0  0  0  0  0  0  0  0  0  0
  141.4170   77.1000  221.2510 C   0  0  0  0  0  0  0  0  0  0  0  0
  140.4980   78.0300  221.8860 N   0  0  0  0  0  0  0  0  0  0  0  0
  141.0260   79.2630  222.3580 C   0  0  0  0  0  0  0  0  0  0  0  0
  140.5520   80.4960  221.9570 C   0  0  0  0  0  0  0  0  0  0  0  0
  141.1020   81.6740  222.4500 C   0  0  0  0  0  0  0  0  0  0  0  0
  142.1350   81.6550  223.3520 C   0  0  0  0  0  0  0  0  0  0  0  0
  142.6210   80.4280  223.7630 C   0  0  0  0  0  0  0  0  0  0  0  0
  142.0720   79.2850  223.2720 C   0  0  0  0  0  0  0  0  0  0  0  0
  139.1240   77.6390  221.9910 C   0  0  0  0  0  0  0  0  0  0  0  0
  139.0740   76.1900  222.4720 C   0  0  0  0  0  0  0  0  0  0  0  0
  139.8400   73.2410  222.7160 N   0  0  0  0  0  0  0  0  0  0  0  0
  139.6670   71.8980  222.7920 C   0  0  0  0  0  0  0  0  0  0  0  0
  139.9440   71.1600  223.9760 N   0  0  0  0  0  0  0  0  0  0  0  0
  140.9780   71.5680  224.9120 C   0  0  0  0  0  0  0  0  0  0  0  0
  140.3980   71.3070  226.3100 C   0  0  0  0  0  0  0  0  0  0  0  0
  140.2780   69.8280  226.4150 C   0  0  0  0  0  0  0  0  0  0  0  0
  140.7710   69.1520  227.5130 C   0  0  0  0  0  0  0  0  0  0  0  0
  140.6400   67.7620  227.5770 C   0  0  0  0  0  0  0  0  0  0  0  0
  140.0170   67.1030  226.5320 C   0  0  0  0  0  0  0  0  0  0  0  0
  139.5310   67.8040  225.4410 C   0  0  0  0  0  0  0  0  0  0  0  0
  139.6540   69.1810  225.3650 C   0  0  0  0  0  0  0  0  0  0  0  0
  139.1510   69.9700  224.2210 C   0  0  0  0  0  0  0  0  0  0  0  0
  139.2160   71.2990  221.6750 N   0  0  0  0  0  0  0  0  0  0  0  0
  137.8490   69.9280  219.6020 C   0  0  0  0  0  0  0  0  0  0  0  0
  137.6010   69.1540  218.3500 C   0  0  0  0  0  0  0  0  0  0  0  0
  136.8080   71.9440  216.6200 H   0  0  0  0  0  0  0  0  0  0  0  0
  137.9440   71.8610  215.2010 H   0  0  0  0  0  0  0  0  0  0  0  0
  138.3520   68.1972  215.6328 H   0  0  0  0  0  0  0  0  0  0  0  0
  139.2912   69.7523  215.6774 H   0  0  0  0  0  0  0  0  0  0  0  0
  140.3322   69.2462  218.8226 H   0  0  0  0  0  0  0  0  0  0  0  0
  140.6030   69.7657  217.0987 H   0  0  0  0  0  0  0  0  0  0  0  0
  140.4526   71.6421  218.7127 H   0  0  0  0  0  0  0  0  0  0  0  0
  139.2034   71.6512  217.3773 H   0  0  0  0  0  0  0  0  0  0  0  0
  137.6377   71.9067  218.8931 H   0  0  0  0  0  0  0  0  0  0  0  0
  141.4002   75.1955  220.2539 H   0  0  0  0  0  0  0  0  0  0  0  0
  140.0840   76.3296  219.7590 H   0  0  0  0  0  0  0  0  0  0  0  0
  142.1066   76.7028  222.0104 H   0  0  0  0  0  0  0  0  0  0  0  0
  141.9698   77.6386  220.4672 H   0  0  0  0  0  0  0  0  0  0  0  0
  139.7242   80.5474  221.2344 H   0  0  0  0  0  0  0  0  0  0  0  0
  140.7008   82.6401  222.1099 H   0  0  0  0  0  0  0  0  0  0  0  0
  142.5651   82.5910  223.7380 H   0  0  0  0  0  0  0  0  0  0  0  0
  143.4493   80.3764  224.4850 H   0  0  0  0  0  0  0  0  0  0  0  0
  142.4791   78.3235  223.6180 H   0  0  0  0  0  0  0  0  0  0  0  0
  138.6063   78.2885  222.7122 H   0  0  0  0  0  0  0  0  0  0  0  0
  138.6275   77.7317  221.0138 H   0  0  0  0  0  0  0  0  0  0  0  0
  139.5506   76.1224  223.4611 H   0  0  0  0  0  0  0  0  0  0  0  0
  138.0216   75.8754  222.5299 H   0  0  0  0  0  0  0  0  0  0  0  0
  141.8909   70.9739  224.7583 H   0  0  0  0  0  0  0  0  0  0  0  0
  141.2544   72.6242  224.7773 H   0  0  0  0  0  0  0  0  0  0  0  0
  141.0740   71.6948  227.0862 H   0  0  0  0  0  0  0  0  0  0  0  0
  139.4293   71.8083  226.4524 H   0  0  0  0  0  0  0  0  0  0  0  0
  141.2620   69.7018  228.3294 H   0  0  0  0  0  0  0  0  0  0  0  0
  141.0251   67.2023  228.4421 H   0  0  0  0  0  0  0  0  0  0  0  0
  139.9064   66.0092  226.5682 H   0  0  0  0  0  0  0  0  0  0  0  0
  139.0396   67.2583  224.6220 H   0  0  0  0  0  0  0  0  0  0  0  0
  139.1737   69.3392  223.3201 H   0  0  0  0  0  0  0  0  0  0  0  0
  138.1277   70.2937  224.4620 H   0  0  0  0  0  0  0  0  0  0  0  0
  138.5454   69.3630  220.2390 H   0  0  0  0  0  0  0  0  0  0  0  0
  136.8852   70.0779  220.1106 H   0  0  0  0  0  0  0  0  0  0  0  0
  137.2289   68.1578  218.6314 H   0  0  0  0  0  0  0  0  0  0  0  0
  136.8764   69.7375  217.7631 H   0  0  0  0  0  0  0  0  0  0  0  0
  1  2  1  0
  2  3  2  0
  2  4  1  0
  4  5  1  0
  5  6  1  0
  6  7  1  0
  7  8  1  0
  8  9  1  0
  9 10  2  0
 10 11  1  0
 11 12  1  0
 12 13  1  0
 13 14  1  0
 14 15  1  0
 15 16  1  0
 16 17  2  0
 17 18  1  0
 18 19  2  0
 19 20  1  0
 20 21  2  0
 15 22  1  0
 22 23  1  0
 11 24  2  0
 24 25  1  0
 25 26  1  0
 26 27  1  0
 27 28  1  0
 28 29  1  0
 29 30  2  0
 30 31  1  0
 31 32  2  0
 32 33  1  0
 33 34  2  0
 34 35  1  0
 25 36  2  0
  8 37  1  0
 37 38  1  0
 38  5  1  0
 36  9  1  0
 23 12  1  0
 35 26  1  0
 21 16  1  0
 34 29  1  0
  1 39  1  0
  1 40  1  0
  4 41  1  0
  4 42  1  0
  6 43  1  0
  6 44  1  0
  7 45  1  0
  7 46  1  0
  8 47  1  0
 13 48  1  0
 13 49  1  0
 14 50  1  0
 14 51  1  0
 17 52  1  0
 18 53  1  0
 19 54  1  0
 20 55  1  0
 21 56  1  0
 22 57  1  0
 22 58  1  0
 23 59  1  0
 23 60  1  0
 27 61  1  0
 27 62  1  0
 28 63  1  0
 28 64  1  0
 30 65  1  0
 31 66  1  0
 32 67  1  0
 33 68  1  0
 35 69  1  0
 35 70  1  0
 37 71  1  0
 37 72  1  0
 38 73  1  0
 38 74  1  0
M  END
>  <smiles>  (15) 
NC(=O)CN1CCC(c2nc(N3CCN(c4ccccc4)CC3)nc(N3CCc4ccccc4C3)n2)CC1

>  <score_type>  (15) 
oracle

>  <origin>  (15) 
autodockgpu

>  <m_score__min__energy>  (15) 
-9.5199999999999996

>  <m_primary>  (15) 
energy

>  <rmsd>  (15) 
8.466946165026254

>  <m_score__min__rmsd>  (15) 
8.466946165026254

>  <meeko>  (15) 
{"free_energy": -7.99, "intermolecular_energy": -9.78, "internal_energy": -1.51, "cluster_size": 7, "cluster_id": 5, "rank_in_cluster": 7}

>  <energy>  (15) 
-8.81

>  <cluster_rmsd>  (15) 
0.85

>  <cluster>  (15) 
1

$$$$

     RDKit          3D

 74 79  0  0  0  0  0  0  0  0999 V2000
  147.3500   74.1930  216.7350 N   0  0  0  0  0  0  0  0  0  0  0  0
  145.9720   73.8350  216.6700 C   0  0  0  0  0  0  0  0  0  0  0  0
  145.1270   74.6380  216.1920 O   0  0  0  0  0  0  0  0  0  0  0  0
  145.6050   72.4920  217.1890 C   0  0  0  0  0  0  0  0  0  0  0  0
  145.4250   72.4910  218.6220 N   0  0  0  0  0  0  0  0  0  0  0  0
  144.7180   73.6560  219.0760 C   0  0  0  0  0  0  0  0  0  0  0  0
  143.2190   73.5060  218.9720 C   0  0  0  0  0  0  0  0  0  0  0  0
  142.6870   72.2730  219.6510 C   0  0  0  0  0  0  0  0  0  0  0  0
  141.7540   72.6540  220.7350 C   0  0  0  0  0  0  0  0  0  0  0  0
  141.2270   73.8890  220.6950 N   0  0  0  0  0  0  0  0  0  0  0  0
  140.3780   74.2430  221.6760 C   0  0  0  0  0  0  0  0  0  0  0  0
  139.8050   75.5450  221.6610 N   0  0  0  0  0  0  0  0  0  0  0  0
  140.5460   76.7010  221.1860 C   0  0  0  0  0  0  0  0  0  0  0  0
  140.2370   77.9270  222.0310 C   0  0  0  0  0  0  0  0  0  0  0  0
  138.8030   78.1500  222.1330 N   0  0  0  0  0  0  0  0  0  0  0  0
  138.3650   79.3680  222.7210 C   0  0  0  0  0  0  0  0  0  0  0  0
  137.4760   80.2300  222.1100 C   0  0  0  0  0  0  0  0  0  0  0  0
  137.0770   81.4090  222.7290 C   0  0  0  0  0  0  0  0  0  0  0  0
  137.5480   81.7590  223.9680 C   0  0  0  0  0  0  0  0  0  0  0  0
  138.4380   80.9050  224.5930 C   0  0  0  0  0  0  0  0  0  0  0  0
  138.8190   79.7560  223.9750 C   0  0  0  0  0  0  0  0  0  0  0  0
  137.9350   77.1260  221.6340 C   0  0  0  0  0  0  0  0  0  0  0  0
  138.4550   75.7760  222.1220 C   0  0  0  0  0  0  0  0  0  0  0  0
  140.0510   73.4070  222.6770 N   0  0  0  0  0  0  0  0  0  0  0  0
  140.5700   72.1550  222.7360 C   0  0  0  0  0  0  0  0  0  0  0  0
  140.2470   71.2440  223.7790 N   0  0  0  0  0  0  0  0  0  0  0  0
  139.0360   70.4410  223.7510 C   0  0  0  0  0  0  0  0  0  0  0  0
  139.4400   69.0600  224.2860 C   0  0  0  0  0  0  0  0  0  0  0  0
  139.7820   69.2800  225.7180 C   0  0  0  0  0  0  0  0  0  0  0  0
  139.2510   68.4740  226.7050 C   0  0  0  0  0  0  0  0  0  0  0  0
  139.5950   68.7090  228.0390 C   0  0  0  0  0  0  0  0  0  0  0  0
  140.4610   69.7480  228.3300 C   0  0  0  0  0  0  0  0  0  0  0  0
  140.9800   70.5420  227.3210 C   0  0  0  0  0  0  0  0  0  0  0  0
  140.6480   70.3190  225.9960 C   0  0  0  0  0  0  0  0  0  0  0  0
  141.1770   71.1400  224.8870 C   0  0  0  0  0  0  0  0  0  0  0  0
  141.4170   71.8230  221.7440 N   0  0  0  0  0  0  0  0  0  0  0  0
  143.8230   71.4130  220.1480 C   0  0  0  0  0  0  0  0  0  0  0  0
  144.8890   71.2610  219.1140 C   0  0  0  0  0  0  0  0  0  0  0  0
  147.6510   75.0280  217.2920 H   0  0  0  0  0  0  0  0  0  0  0  0
  148.0720   73.6180  216.2210 H   0  0  0  0  0  0  0  0  0  0  0  0
  144.6655   72.1732  216.7138 H   0  0  0  0  0  0  0  0  0  0  0  0
  146.4281   71.8019  216.9517 H   0  0  0  0  0  0  0  0  0  0  0  0
  144.9811   73.8393  220.1282 H   0  0  0  0  0  0  0  0  0  0  0  0
  145.0132   74.4962  218.4303 H   0  0  0  0  0  0  0  0  0  0  0  0
  142.7488   74.3870  219.4333 H   0  0  0  0  0  0  0  0  0  0  0  0
  142.9781   73.4140  217.9027 H   0  0  0  0  0  0  0  0  0  0  0  0
  142.1211   71.6704  218.9253 H   0  0  0  0  0  0  0  0  0  0  0  0
  141.6234   76.4865  221.2427 H   0  0  0  0  0  0  0  0  0  0  0  0
  140.2498   76.9062  220.1467 H   0  0  0  0  0  0  0  0  0  0  0  0
  140.6496   77.7802  223.0401 H   0  0  0  0  0  0  0  0  0  0  0  0
  140.6918   78.8049  221.5490 H   0  0  0  0  0  0  0  0  0  0  0  0
  137.0766   79.9794  221.1162 H   0  0  0  0  0  0  0  0  0  0  0  0
  136.3688   82.0748  222.2141 H   0  0  0  0  0  0  0  0  0  0  0  0
  137.2268   82.6933  224.4516 H   0  0  0  0  0  0  0  0  0  0  0  0
  138.8365   81.1548  225.5874 H   0  0  0  0  0  0  0  0  0  0  0  0
  139.5270   79.0960  224.4976 H   0  0  0  0  0  0  0  0  0  0  0  0
  136.9138   77.2888  222.0091 H   0  0  0  0  0  0  0  0  0  0  0  0
  137.9150   77.1491  220.5344 H   0  0  0  0  0  0  0  0  0  0  0  0
  138.4428   75.7618  223.2218 H   0  0  0  0  0  0  0  0  0  0  0  0
  137.8064   74.9838  221.7198 H   0  0  0  0  0  0  0  0  0  0  0  0
  138.2634   70.8898  224.3927 H   0  0  0  0  0  0  0  0  0  0  0  0
  138.6156   70.3760  222.7366 H   0  0  0  0  0  0  0  0  0  0  0  0
  138.6040   68.3511  224.1937 H   0  0  0  0  0  0  0  0  0  0  0  0
  140.2828   68.6320  223.7234 H   0  0  0  0  0  0  0  0  0  0  0  0
  138.5642   67.6553  226.4442 H   0  0  0  0  0  0  0  0  0  0  0  0
  139.1849   68.0797  228.8426 H   0  0  0  0  0  0  0  0  0  0  0  0
  140.7406   69.9458  229.3753 H   0  0  0  0  0  0  0  0  0  0  0  0
  141.6666   71.3625  227.5765 H   0  0  0  0  0  0  0  0  0  0  0  0
  141.3881   72.1508  225.2662 H   0  0  0  0  0  0  0  0  0  0  0  0
  142.0878   70.6492  224.5133 H   0  0  0  0  0  0  0  0  0  0  0  0
  144.2585   71.8794  221.0440 H   0  0  0  0  0  0  0  0  0  0  0  0
  143.4234   70.4148  220.3801 H   0  0  0  0  0  0  0  0  0  0  0  0
  145.7129   70.6803  219.5544 H   0  0  0  0  0  0  0  0  0  0  0  0
  144.4182   70.7619  218.2542 H   0  0  0  0  0  0  0  0  0  0  0  0
  1  2  1  0
  2  3  2  0
  2  4  1  0
  4  5  1  0
  5  6  1  0
  6  7  1  0
  7  8  1  0
  8  9  1  0
  9 10  2  0
 10 11  1  0
 11 12  1  0
 12 13  1  0
 13 14  1  0
 14 15  1  0
 15 16  1  0
 16 17  2  0
 17 18  1  0
 18 19  2  0
 19 20  1  0
 20 21  2  0
 15 22  1  0
 22 23  1  0
 11 24  2  0
 24 25  1  0
 25 26  1  0
 26 27  1  0
 27 28  1  0
 28 29  1  0
 29 30  2  0
 30 31  1  0
 31 32  2  0
 32 33  1  0
 33 34  2  0
 34 35  1  0
 25 36  2  0
  8 37  1  0
 37 38  1  0
 38  5  1  0
 36  9  1  0
 23 12  1  0
 35 26  1  0
 21 16  1  0
 34 29  1  0
  1 39  1  0
  1 40  1  0
  4 41  1  0
  4 42  1  0
  6 43  1  0
  6 44  1  0
  7 45  1  0
  7 46  1  0
  8 47  1  0
 13 48  1  0
 13 49  1  0
 14 50  1  0
 14 51  1  0
 17 52  1  0
 18 53  1  0
 19 54  1  0
 20 55  1  0
 21 56  1  0
 22 57  1  0
 22 58  1  0
 23 59  1  0
 23 60  1  0
 27 61  1  0
 27 62  1  0
 28 63  1  0
 28 64  1  0
 30 65  1  0
 31 66  1  0
 32 67  1  0
 33 68  1  0
 35 69  1  0
 35 70  1  0
 37 71  1  0
 37 72  1  0
 38 73  1  0
 38 74  1  0
M  END
>  <smiles>  (16) 
NC(=O)CN1CCC(c2nc(N3CCN(c4ccccc4)CC3)nc(N3CCc4ccccc4C3)n2)CC1

>  <score_type>  (16) 
oracle

>  <origin>  (16) 
autodockgpu

>  <m_score__min__energy>  (16) 
-9.5199999999999996

>  <m_primary>  (16) 
energy

>  <rmsd>  (16) 
8.368361930295888

>  <m_score__min__rmsd>  (16) 
8.368361930295888

>  <meeko>  (16) 
{"free_energy": -8.81, "intermolecular_energy": -10.6, "internal_energy": -1.43, "cluster_size": 25, "cluster_id": 1, "rank_in_cluster": 15}

>  <energy>  (16) 
-8.78

>  <cluster_rmsd>  (16) 
1.88

>  <cluster>  (16) 
1

$$$$

     RDKit          3D

 74 79  0  0  0  0  0  0  0  0999 V2000
  145.2270   74.1470  217.1490 N   0  0  0  0  0  0  0  0  0  0  0  0
  145.5730   72.9750  217.8830 C   0  0  0  0  0  0  0  0  0  0  0  0
  146.2770   73.0600  218.9250 O   0  0  0  0  0  0  0  0  0  0  0  0
  145.0670   71.6820  217.3550 C   0  0  0  0  0  0  0  0  0  0  0  0
  143.6890   71.4460  217.7170 N   0  0  0  0  0  0  0  0  0  0  0  0
  143.5520   71.0770  219.0980 C   0  0  0  0  0  0  0  0  0  0  0  0
  143.5020   72.2720  220.0190 C   0  0  0  0  0  0  0  0  0  0  0  0
  142.4540   73.2830  219.6420 C   0  0  0  0  0  0  0  0  0  0  0  0
  141.4690   73.4270  220.7370 C   0  0  0  0  0  0  0  0  0  0  0  0
  140.8370   74.6070  220.8520 N   0  0  0  0  0  0  0  0  0  0  0  0
  139.9400   74.7460  221.8450 C   0  0  0  0  0  0  0  0  0  0  0  0
  139.2570   75.9840  221.9940 N   0  0  0  0  0  0  0  0  0  0  0  0
  139.8850   77.2500  221.6550 C   0  0  0  0  0  0  0  0  0  0  0  0
  139.4880   78.3330  222.6450 C   0  0  0  0  0  0  0  0  0  0  0  0
  138.0430   78.4150  222.7870 N   0  0  0  0  0  0  0  0  0  0  0  0
  137.5130   79.5110  223.5230 C   0  0  0  0  0  0  0  0  0  0  0  0
  138.2930   80.3840  224.2540 C   0  0  0  0  0  0  0  0  0  0  0  0
  137.7250   81.4420  224.9550 C   0  0  0  0  0  0  0  0  0  0  0  0
  136.3710   81.6580  224.9440 C   0  0  0  0  0  0  0  0  0  0  0  0
  135.5760   80.7920  224.2160 C   0  0  0  0  0  0  0  0  0  0  0  0
  136.1470   79.7630  223.5370 C   0  0  0  0  0  0  0  0  0  0  0  0
  137.2570   77.3870  222.1760 C   0  0  0  0  0  0  0  0  0  0  0  0
  137.9010   76.0390  222.4920 C   0  0  0  0  0  0  0  0  0  0  0  0
  139.6660   73.7520  222.7080 N   0  0  0  0  0  0  0  0  0  0  0  0
  140.2910   72.5520  222.6080 C   0  0  0  0  0  0  0  0  0  0  0  0
  140.0270   71.4770  223.5020 N   0  0  0  0  0  0  0  0  0  0  0  0
  138.8000   70.7020  223.4300 C   0  0  0  0  0  0  0  0  0  0  0  0
  139.2130   69.2460  223.6900 C   0  0  0  0  0  0  0  0  0  0  0  0
  139.6640   69.2140  225.1070 C   0  0  0  0  0  0  0  0  0  0  0  0
  139.1900   68.2550  225.9800 C   0  0  0  0  0  0  0  0  0  0  0  0
  139.6370   68.2550  227.3050 C   0  0  0  0  0  0  0  0  0  0  0  0
  140.5450   69.2210  227.7010 C   0  0  0  0  0  0  0  0  0  0  0  0
  141.0050   70.1720  226.8050 C   0  0  0  0  0  0  0  0  0  0  0  0
  140.5710   70.1820  225.4910 C   0  0  0  0  0  0  0  0  0  0  0  0
  141.0340   71.1770  224.5010 C   0  0  0  0  0  0  0  0  0  0  0  0
  141.1850   72.4360  221.6090 N   0  0  0  0  0  0  0  0  0  0  0  0
  141.8050   72.9060  218.3320 C   0  0  0  0  0  0  0  0  0  0  0  0
  142.8200   72.5060  217.3120 C   0  0  0  0  0  0  0  0  0  0  0  0
  145.9780   74.7500  216.7370 H   0  0  0  0  0  0  0  0  0  0  0  0
  144.2120   74.4110  217.0200 H   0  0  0  0  0  0  0  0  0  0  0  0
  145.1484   71.6913  216.2580 H   0  0  0  0  0  0  0  0  0  0  0  0
  145.6741   70.8771  217.7950 H   0  0  0  0  0  0  0  0  0  0  0  0
  142.6223   70.5015  219.2178 H   0  0  0  0  0  0  0  0  0  0  0  0
  144.4366   70.4834  219.3722 H   0  0  0  0  0  0  0  0  0  0  0  0
  143.2905   71.9163  221.0382 H   0  0  0  0  0  0  0  0  0  0  0  0
  144.4767   72.7764  219.9441 H   0  0  0  0  0  0  0  0  0  0  0  0
  142.9286   74.2645  219.4957 H   0  0  0  0  0  0  0  0  0  0  0  0
  140.9779   77.1268  221.6746 H   0  0  0  0  0  0  0  0  0  0  0  0
  139.5509   77.5511  220.6511 H   0  0  0  0  0  0  0  0  0  0  0  0
  139.9319   78.1030  223.6248 H   0  0  0  0  0  0  0  0  0  0  0  0
  139.8553   79.2991  222.2686 H   0  0  0  0  0  0  0  0  0  0  0  0
  139.3832   80.2403  224.2825 H   0  0  0  0  0  0  0  0  0  0  0  0
  138.3745   82.1188  225.5295 H   0  0  0  0  0  0  0  0  0  0  0  0
  135.9289   82.4981  225.4997 H   0  0  0  0  0  0  0  0  0  0  0  0
  134.4858   80.9356  224.1867 H   0  0  0  0  0  0  0  0  0  0  0  0
  135.4899   79.0909  222.9656 H   0  0  0  0  0  0  0  0  0  0  0  0
  136.2333   77.4133  222.5776 H   0  0  0  0  0  0  0  0  0  0  0  0
  137.2131   77.5401  221.0876 H   0  0  0  0  0  0  0  0  0  0  0  0
  137.9118   75.8921  223.5821 H   0  0  0  0  0  0  0  0  0  0  0  0
  137.3152   75.2470  222.0025 H   0  0  0  0  0  0  0  0  0  0  0  0
  138.0866   71.0410  224.1956 H   0  0  0  0  0  0  0  0  0  0  0  0
  138.3044   70.8157  222.4546 H   0  0  0  0  0  0  0  0  0  0  0  0
  138.3575   68.5705  223.5424 H   0  0  0  0  0  0  0  0  0  0  0  0
  140.0029   68.9140  223.0002 H   0  0  0  0  0  0  0  0  0  0  0  0
  138.4684   67.4990  225.6368 H   0  0  0  0  0  0  0  0  0  0  0  0
  139.2736   67.5012  228.0190 H   0  0  0  0  0  0  0  0  0  0  0  0
  140.9060   69.2340  228.7400 H   0  0  0  0  0  0  0  0  0  0  0  0
  141.7262   70.9307  227.1431 H   0  0  0  0  0  0  0  0  0  0  0  0
  141.2940   72.1059  225.0297 H   0  0  0  0  0  0  0  0  0  0  0  0
  141.9042   70.7504  223.9806 H   0  0  0  0  0  0  0  0  0  0  0  0
  141.1189   72.0633  218.5027 H   0  0  0  0  0  0  0  0  0  0  0  0
  141.2615   73.7834  217.9516 H   0  0  0  0  0  0  0  0  0  0  0  0
  142.2863   72.1840  216.4057 H   0  0  0  0  0  0  0  0  0  0  0  0
  143.4593   73.3861  217.1485 H   0  0  0  0  0  0  0  0  0  0  0  0
  1  2  1  0
  2  3  2  0
  2  4  1  0
  4  5  1  0
  5  6  1  0
  6  7  1  0
  7  8  1  0
  8  9  1  0
  9 10  2  0
 10 11  1  0
 11 12  1  0
 12 13  1  0
 13 14  1  0
 14 15  1  0
 15 16  1  0
 16 17  2  0
 17 18  1  0
 18 19  2  0
 19 20  1  0
 20 21  2  0
 15 22  1  0
 22 23  1  0
 11 24  2  0
 24 25  1  0
 25 26  1  0
 26 27  1  0
 27 28  1  0
 28 29  1  0
 29 30  2  0
 30 31  1  0
 31 32  2  0
 32 33  1  0
 33 34  2  0
 34 35  1  0
 25 36  2  0
  8 37  1  0
 37 38  1  0
 38  5  1  0
 36  9  1  0
 23 12  1  0
 35 26  1  0
 21 16  1  0
 34 29  1  0
  1 39  1  0
  1 40  1  0
  4 41  1  0
  4 42  1  0
  6 43  1  0
  6 44  1  0
  7 45  1  0
  7 46  1  0
  8 47  1  0
 13 48  1  0
 13 49  1  0
 14 50  1  0
 14 51  1  0
 17 52  1  0
 18 53  1  0
 19 54  1  0
 20 55  1  0
 21 56  1  0
 22 57  1  0
 22 58  1  0
 23 59  1  0
 23 60  1  0
 27 61  1  0
 27 62  1  0
 28 63  1  0
 28 64  1  0
 30 65  1  0
 31 66  1  0
 32 67  1  0
 33 68  1  0
 35 69  1  0
 35 70  1  0
 37 71  1  0
 37 72  1  0
 38 73  1  0
 38 74  1  0
M  END
>  <smiles>  (17) 
NC(=O)CN1CCC(c2nc(N3CCN(c4ccccc4)CC3)nc(N3CCc4ccccc4C3)n2)CC1

>  <score_type>  (17) 
oracle

>  <origin>  (17) 
autodockgpu

>  <m_score__min__energy>  (17) 
-9.5199999999999996

>  <m_primary>  (17) 
energy

>  <rmsd>  (17) 
8.71744338977613

>  <m_score__min__rmsd>  (17) 
8.71744338977613

>  <meeko>  (17) 
{"free_energy": -8.68, "intermolecular_energy": -10.47, "internal_energy": -1.37, "cluster_size": 25, "cluster_id": 1, "rank_in_cluster": 23}

>  <energy>  (17) 
-8.76

>  <cluster_rmsd>  (17) 
1.13

>  <cluster>  (17) 
1

$$$$

     RDKit          3D

 74 79  0  0  0  0  0  0  0  0999 V2000
  146.6750   69.4870  218.2950 N   0  0  0  0  0  0  0  0  0  0  0  0
  145.6460   68.8500  219.0480 C   0  0  0  0  0  0  0  0  0  0  0  0
  145.9350   68.1300  220.0410 O   0  0  0  0  0  0  0  0  0  0  0  0
  144.2490   69.0810  218.6000 C   0  0  0  0  0  0  0  0  0  0  0  0
  143.9160   70.4850  218.5520 N   0  0  0  0  0  0  0  0  0  0  0  0
  142.4970   70.6990  218.4860 C   0  0  0  0  0  0  0  0  0  0  0  0
  141.8390   70.6750  219.8450 C   0  0  0  0  0  0  0  0  0  0  0  0
  142.4640   71.6180  220.8360 C   0  0  0  0  0  0  0  0  0  0  0  0
  141.4710   72.6220  221.2770 C   0  0  0  0  0  0  0  0  0  0  0  0
  140.2910   72.1690  221.7330 N   0  0  0  0  0  0  0  0  0  0  0  0
  139.3810   73.0740  222.1360 C   0  0  0  0  0  0  0  0  0  0  0  0
  138.1230   72.6250  222.6220 N   0  0  0  0  0  0  0  0  0  0  0  0
  136.8810   73.2780  222.2480 C   0  0  0  0  0  0  0  0  0  0  0  0
  135.9190   73.3270  223.4250 C   0  0  0  0  0  0  0  0  0  0  0  0
  135.7350   72.0100  224.0110 N   0  0  0  0  0  0  0  0  0  0  0  0
  134.7140   71.8590  224.9900 C   0  0  0  0  0  0  0  0  0  0  0  0
  134.0100   72.9200  225.5230 C   0  0  0  0  0  0  0  0  0  0  0  0
  133.0180   72.7190  226.4760 C   0  0  0  0  0  0  0  0  0  0  0  0
  132.7020   71.4600  226.9210 C   0  0  0  0  0  0  0  0  0  0  0  0
  133.3980   70.3880  226.3960 C   0  0  0  0  0  0  0  0  0  0  0  0
  134.3650   70.6010  225.4650 C   0  0  0  0  0  0  0  0  0  0  0  0
  136.5950   70.9570  223.5610 C   0  0  0  0  0  0  0  0  0  0  0  0
  138.0240   71.4920  223.5150 C   0  0  0  0  0  0  0  0  0  0  0  0
  139.6210   74.3970  222.0950 N   0  0  0  0  0  0  0  0  0  0  0  0
  140.8050   74.8760  221.6390 C   0  0  0  0  0  0  0  0  0  0  0  0
  141.0930   76.2680  221.5810 N   0  0  0  0  0  0  0  0  0  0  0  0
  141.7520   76.8690  220.4340 C   0  0  0  0  0  0  0  0  0  0  0  0
  141.0510   78.2170  220.2110 C   0  0  0  0  0  0  0  0  0  0  0  0
  141.4050   79.0430  221.3970 C   0  0  0  0  0  0  0  0  0  0  0  0
  141.8870   80.3280  221.2470 C   0  0  0  0  0  0  0  0  0  0  0  0
  142.2090   81.0750  222.3840 C   0  0  0  0  0  0  0  0  0  0  0  0
  142.0330   80.5000  223.6300 C   0  0  0  0  0  0  0  0  0  0  0  0
  141.5470   79.2090  223.7530 C   0  0  0  0  0  0  0  0  0  0  0  0
  141.2240   78.4590  222.6350 C   0  0  0  0  0  0  0  0  0  0  0  0
  140.7030   77.0780  222.7190 C   0  0  0  0  0  0  0  0  0  0  0  0
  141.6990   73.9520  221.2410 N   0  0  0  0  0  0  0  0  0  0  0  0
  143.7010   72.2550  220.2500 C   0  0  0  0  0  0  0  0  0  0  0  0
  144.5680   71.2460  219.5710 C   0  0  0  0  0  0  0  0  0  0  0  0
  147.4080   68.9130  217.8170 H   0  0  0  0  0  0  0  0  0  0  0  0
  146.7020   70.5410  218.2200 H   0  0  0  0  0  0  0  0  0  0  0  0
  144.1242   68.6529  217.5944 H   0  0  0  0  0  0  0  0  0  0  0  0
  143.5778   68.5997  219.3265 H   0  0  0  0  0  0  0  0  0  0  0  0
  142.3103   71.6788  218.0221 H   0  0  0  0  0  0  0  0  0  0  0  0
  142.0650   69.8789  217.8937 H   0  0  0  0  0  0  0  0  0  0  0  0
  140.7809   70.9501  219.7235 H   0  0  0  0  0  0  0  0  0  0  0  0
  141.9649   69.6582  220.2453 H   0  0  0  0  0  0  0  0  0  0  0  0
  142.7818   71.0552  221.7261 H   0  0  0  0  0  0  0  0  0  0  0  0
  137.0988   74.3044  221.9176 H   0  0  0  0  0  0  0  0  0  0  0  0
  136.4129   72.7043  221.4345 H   0  0  0  0  0  0  0  0  0  0  0  0
  136.3229   74.0064  224.1900 H   0  0  0  0  0  0  0  0  0  0  0  0
  134.9442   73.6852  223.0624 H   0  0  0  0  0  0  0  0  0  0  0  0
  134.2379   73.9426  225.1877 H   0  0  0  0  0  0  0  0  0  0  0  0
  132.4759   73.5861  226.8812 H   0  0  0  0  0  0  0  0  0  0  0  0
  131.9159   71.3083  227.6753 H   0  0  0  0  0  0  0  0  0  0  0  0
  133.1701   69.3652  226.7306 H   0  0  0  0  0  0  0  0  0  0  0  0
  134.9016   69.7280  225.0650 H   0  0  0  0  0  0  0  0  0  0  0  0
  136.5382   70.1072  224.2572 H   0  0  0  0  0  0  0  0  0  0  0  0
  136.2857   70.6158  222.5621 H   0  0  0  0  0  0  0  0  0  0  0  0
  138.3246   71.8033  224.5263 H   0  0  0  0  0  0  0  0  0  0  0  0
  138.6857   70.6948  223.1455 H   0  0  0  0  0  0  0  0  0  0  0  0
  142.8210   77.0226  220.6429 H   0  0  0  0  0  0  0  0  0  0  0  0
  141.6861   76.2251  219.5446 H   0  0  0  0  0  0  0  0  0  0  0  0
  141.4141   78.6923  219.2878 H   0  0  0  0  0  0  0  0  0  0  0  0
  139.9626   78.1008  220.1015 H   0  0  0  0  0  0  0  0  0  0  0  0
  142.0163   80.7595  220.2435 H   0  0  0  0  0  0  0  0  0  0  0  0
  142.5951   82.1007  222.2897 H   0  0  0  0  0  0  0  0  0  0  0  0
  142.2821   81.0752  224.5339 H   0  0  0  0  0  0  0  0  0  0  0  0
  141.4156   78.7728  224.7543 H   0  0  0  0  0  0  0  0  0  0  0  0
  141.0913   76.6094  223.6353 H   0  0  0  0  0  0  0  0  0  0  0  0
  139.6045   77.1348  222.7285 H   0  0  0  0  0  0  0  0  0  0  0  0
  143.3975   73.0166  219.5166 H   0  0  0  0  0  0  0  0  0  0  0  0
  144.2770   72.7083  221.0703 H   0  0  0  0  0  0  0  0  0  0  0  0
  145.4158   71.7762  219.1126 H   0  0  0  0  0  0  0  0  0  0  0  0
  144.8735   70.5280  220.3464 H   0  0  0  0  0  0  0  0  0  0  0  0
  1  2  1  0
  2  3  2  0
  2  4  1  0
  4  5  1  0
  5  6  1  0
  6  7  1  0
  7  8  1  0
  8  9  1  0
  9 10  2  0
 10 11  1  0
 11 12  1  0
 12 13  1  0
 13 14  1  0
 14 15  1  0
 15 16  1  0
 16 17  2  0
 17 18  1  0
 18 19  2  0
 19 20  1  0
 20 21  2  0
 15 22  1  0
 22 23  1  0
 11 24  2  0
 24 25  1  0
 25 26  1  0
 26 27  1  0
 27 28  1  0
 28 29  1  0
 29 30  2  0
 30 31  1  0
 31 32  2  0
 32 33  1  0
 33 34  2  0
 34 35  1  0
 25 36  2  0
  8 37  1  0
 37 38  1  0
 38  5  1  0
 36  9  1  0
 23 12  1  0
 35 26  1  0
 21 16  1  0
 34 29  1  0
  1 39  1  0
  1 40  1  0
  4 41  1  0
  4 42  1  0
  6 43  1  0
  6 44  1  0
  7 45  1  0
  7 46  1  0
  8 47  1  0
 13 48  1  0
 13 49  1  0
 14 50  1  0
 14 51  1  0
 17 52  1  0
 18 53  1  0
 19 54  1  0
 20 55  1  0
 21 56  1  0
 22 57  1  0
 22 58  1  0
 23 59  1  0
 23 60  1  0
 27 61  1  0
 27 62  1  0
 28 63  1  0
 28 64  1  0
 30 65  1  0
 31 66  1  0
 32 67  1  0
 33 68  1  0
 35 69  1  0
 35 70  1  0
 37 71  1  0
 37 72  1  0
 38 73  1  0
 38 74  1  0
M  END
>  <smiles>  (18) 
NC(=O)CN1CCC(c2nc(N3CCN(c4ccccc4)CC3)nc(N3CCc4ccccc4C3)n2)CC1

>  <score_type>  (18) 
oracle

>  <origin>  (18) 
autodockgpu

>  <m_score__min__energy>  (18) 
-9.5199999999999996

>  <m_primary>  (18) 
energy

>  <rmsd>  (18) 
6.332295305809298

>  <m_score__min__rmsd>  (18) 
6.332295305809298

>  <meeko>  (18) 
{"free_energy": -8.91, "intermolecular_energy": -10.7, "internal_energy": -1.5, "cluster_size": 11, "cluster_id": 3, "rank_in_cluster": 3}

>  <energy>  (18) 
-8.75

>  <cluster_rmsd>  (18) 
0.6

>  <cluster>  (18) 
1

$$$$

     RDKit          3D

 74 79  0  0  0  0  0  0  0  0999 V2000
  146.3310   66.9510  218.6710 N   0  0  0  0  0  0  0  0  0  0  0  0
  145.9360   68.2730  218.3130 C   0  0  0  0  0  0  0  0  0  0  0  0
  146.7150   69.2450  218.5050 O   0  0  0  0  0  0  0  0  0  0  0  0
  144.5840   68.4290  217.7170 C   0  0  0  0  0  0  0  0  0  0  0  0
  143.5410   68.3970  218.7150 N   0  0  0  0  0  0  0  0  0  0  0  0
  143.9340   69.0630  219.9250 C   0  0  0  0  0  0  0  0  0  0  0  0
  143.7160   70.5570  219.8660 C   0  0  0  0  0  0  0  0  0  0  0  0
  142.3150   70.9490  219.4850 C   0  0  0  0  0  0  0  0  0  0  0  0
  141.6890   71.7240  220.5790 C   0  0  0  0  0  0  0  0  0  0  0  0
  141.5270   73.0440  220.3900 N   0  0  0  0  0  0  0  0  0  0  0  0
  140.9600   73.7570  221.3800 C   0  0  0  0  0  0  0  0  0  0  0  0
  140.7770   75.1570  221.2100 N   0  0  0  0  0  0  0  0  0  0  0  0
  141.3630   75.8740  220.0900 C   0  0  0  0  0  0  0  0  0  0  0  0
  141.8510   77.2480  220.5230 C   0  0  0  0  0  0  0  0  0  0  0  0
  140.8050   77.9870  221.2100 N   0  0  0  0  0  0  0  0  0  0  0  0
  141.0450   79.3590  221.4970 C   0  0  0  0  0  0  0  0  0  0  0  0
  140.6110   80.3920  220.6890 C   0  0  0  0  0  0  0  0  0  0  0  0
  140.8700   81.7180  221.0150 C   0  0  0  0  0  0  0  0  0  0  0  0
  141.5650   82.0500  222.1500 C   0  0  0  0  0  0  0  0  0  0  0  0
  142.0060   81.0280  222.9690 C   0  0  0  0  0  0  0  0  0  0  0  0
  141.7450   79.7360  222.6360 C   0  0  0  0  0  0  0  0  0  0  0  0
  139.6060   77.2810  221.5500 C   0  0  0  0  0  0  0  0  0  0  0  0
  139.9980   75.9320  222.1480 C   0  0  0  0  0  0  0  0  0  0  0  0
  140.5580   73.1900  222.5310 N   0  0  0  0  0  0  0  0  0  0  0  0
  140.7100   71.8590  222.7420 C   0  0  0  0  0  0  0  0  0  0  0  0
  140.2970   71.2250  223.9470 N   0  0  0  0  0  0  0  0  0  0  0  0
  139.1620   70.3180  223.9880 C   0  0  0  0  0  0  0  0  0  0  0  0
  139.5760   69.1790  224.9310 C   0  0  0  0  0  0  0  0  0  0  0  0
  139.6810   69.8040  226.2770 C   0  0  0  0  0  0  0  0  0  0  0  0
  139.0640   69.2340  227.3730 C   0  0  0  0  0  0  0  0  0  0  0  0
  139.1860   69.8490  228.6230 C   0  0  0  0  0  0  0  0  0  0  0  0
  139.9240   71.0140  228.7230 C   0  0  0  0  0  0  0  0  0  0  0  0
  140.5340   71.5650  227.6070 C   0  0  0  0  0  0  0  0  0  0  0  0
  140.4220   70.9660  226.3650 C   0  0  0  0  0  0  0  0  0  0  0  0
  141.0550   71.5180  225.1480 C   0  0  0  0  0  0  0  0  0  0  0  0
  141.2810   71.1670  221.7390 N   0  0  0  0  0  0  0  0  0  0  0  0
  141.5090   69.7280  219.1130 C   0  0  0  0  0  0  0  0  0  0  0  0
  142.2740   68.8200  218.2080 C   0  0  0  0  0  0  0  0  0  0  0  0
  146.5630   66.7230  219.6670 H   0  0  0  0  0  0  0  0  0  0  0  0
  146.3920   66.1980  217.9330 H   0  0  0  0  0  0  0  0  0  0  0  0
  144.5390   69.3926  217.1883 H   0  0  0  0  0  0  0  0  0  0  0  0
  144.4190   67.5867  217.0290 H   0  0  0  0  0  0  0  0  0  0  0  0
  143.3447   68.6541  220.7590 H   0  0  0  0  0  0  0  0  0  0  0  0
  145.0113   68.8899  220.0645 H   0  0  0  0  0  0  0  0  0  0  0  0
  143.9375   70.9797  220.8571 H   0  0  0  0  0  0  0  0  0  0  0  0
  144.3832   70.9486  219.0840 H   0  0  0  0  0  0  0  0  0  0  0  0
  142.3452   71.5980  218.5974 H   0  0  0  0  0  0  0  0  0  0  0  0
  142.2131   75.2967  219.6975 H   0  0  0  0  0  0  0  0  0  0  0  0
  140.5950   76.0017  219.3129 H   0  0  0  0  0  0  0  0  0  0  0  0
  142.7085   77.1265  221.2011 H   0  0  0  0  0  0  0  0  0  0  0  0
  142.1424   77.8122  219.6248 H   0  0  0  0  0  0  0  0  0  0  0  0
  140.0504   80.1610  219.7712 H   0  0  0  0  0  0  0  0  0  0  0  0
  140.5106   82.5169  220.3498 H   0  0  0  0  0  0  0  0  0  0  0  0
  141.7660   83.1018  222.4016 H   0  0  0  0  0  0  0  0  0  0  0  0
  142.5662   81.2590  223.8870 H   0  0  0  0  0  0  0  0  0  0  0  0
  142.1089   78.9439  223.3069 H   0  0  0  0  0  0  0  0  0  0  0  0
  139.0289   77.8605  222.2856 H   0  0  0  0  0  0  0  0  0  0  0  0
  138.9860   77.1327  220.6535 H   0  0  0  0  0  0  0  0  0  0  0  0
  140.5936   76.1009  223.0572 H   0  0  0  0  0  0  0  0  0  0  0  0
  139.0804   75.3743  222.3867 H   0  0  0  0  0  0  0  0  0  0  0  0
  138.2721   70.8342  224.3773 H   0  0  0  0  0  0  0  0  0  0  0  0
  138.9046   69.9433  222.9863 H   0  0  0  0  0  0  0  0  0  0  0  0
  138.8152   68.3845  224.9331 H   0  0  0  0  0  0  0  0  0  0  0  0
  140.5222   68.7120  224.6202 H   0  0  0  0  0  0  0  0  0  0  0  0
  138.4829   68.3064  227.2640 H   0  0  0  0  0  0  0  0  0  0  0  0
  138.7036   69.4138  229.5106 H   0  0  0  0  0  0  0  0  0  0  0  0
  140.0282   71.5093  229.6996 H   0  0  0  0  0  0  0  0  0  0  0  0
  141.1160   72.4927  227.7104 H   0  0  0  0  0  0  0  0  0  0  0  0
  141.1362   72.6096  225.2566 H   0  0  0  0  0  0  0  0  0  0  0  0
  142.0438   71.0478  225.0426 H   0  0  0  0  0  0  0  0  0  0  0  0
  141.2469   69.1801  220.0301 H   0  0  0  0  0  0  0  0  0  0  0  0
  140.6047   70.0609  218.5826 H   0  0  0  0  0  0  0  0  0  0  0  0
  141.6623   67.9243  218.0251 H   0  0  0  0  0  0  0  0  0  0  0  0
  142.4828   69.3968  217.2949 H   0  0  0  0  0  0  0  0  0  0  0  0
  1  2  1  0
  2  3  2  0
  2  4  1  0
  4  5  1  0
  5  6  1  0
  6  7  1  0
  7  8  1  0
  8  9  1  0
  9 10  2  0
 10 11  1  0
 11 12  1  0
 12 13  1  0
 13 14  1  0
 14 15  1  0
 15 16  1  0
 16 17  2  0
 17 18  1  0
 18 19  2  0
 19 20  1  0
 20 21  2  0
 15 22  1  0
 22 23  1  0
 11 24  2  0
 24 25  1  0
 25 26  1  0
 26 27  1  0
 27 28  1  0
 28 29  1  0
 29 30  2  0
 30 31  1  0
 31 32  2  0
 32 33  1  0
 33 34  2  0
 34 35  1  0
 25 36  2  0
  8 37  1  0
 37 38  1  0
 38  5  1  0
 36  9  1  0
 23 12  1  0
 35 26  1  0
 21 16  1  0
 34 29  1  0
  1 39  1  0
  1 40  1  0
  4 41  1  0
  4 42  1  0
  6 43  1  0
  6 44  1  0
  7 45  1  0
  7 46  1  0
  8 47  1  0
 13 48  1  0
 13 49  1  0
 14 50  1  0
 14 51  1  0
 17 52  1  0
 18 53  1  0
 19 54  1  0
 20 55  1  0
 21 56  1  0
 22 57  1  0
 22 58  1  0
 23 59  1  0
 23 60  1  0
 27 61  1  0
 27 62  1  0
 28 63  1  0
 28 64  1  0
 30 65  1  0
 31 66  1  0
 32 67  1  0
 33 68  1  0
 35 69  1  0
 35 70  1  0
 37 71  1  0
 37 72  1  0
 38 73  1  0
 38 74  1  0
M  END
>  <smiles>  (19) 
NC(=O)CN1CCC(c2nc(N3CCN(c4ccccc4)CC3)nc(N3CCc4ccccc4C3)n2)CC1

>  <score_type>  (19) 
oracle

>  <origin>  (19) 
autodockgpu

>  <m_score__min__energy>  (19) 
-9.5199999999999996

>  <m_primary>  (19) 
energy

>  <rmsd>  (19) 
8.624782538292138

>  <m_score__min__rmsd>  (19) 
8.624782538292138

>  <meeko>  (19) 
{"free_energy": -9.27, "intermolecular_energy": -11.06, "internal_energy": -1.44, "cluster_size": 5, "cluster_id": 2, "rank_in_cluster": 1}

>  <energy>  (19) 
-8.73

>  <cluster_rmsd>  (19) 
1.86

>  <cluster>  (19) 
1

$$$$

     RDKit          3D

 74 79  0  0  0  0  0  0  0  0999 V2000
  135.8320   67.7520  222.1640 N   0  0  0  0  0  0  0  0  0  0  0  0
  135.4780   68.5720  223.2750 C   0  0  0  0  0  0  0  0  0  0  0  0
  134.6730   68.1510  224.1480 O   0  0  0  0  0  0  0  0  0  0  0  0
  136.1020   69.9190  223.3370 C   0  0  0  0  0  0  0  0  0  0  0  0
  137.5260   69.8720  223.1020 N   0  0  0  0  0  0  0  0  0  0  0  0
  137.8660   70.3090  221.7760 C   0  0  0  0  0  0  0  0  0  0  0  0
  137.9820   71.8110  221.6680 C   0  0  0  0  0  0  0  0  0  0  0  0
  138.9190   72.4180  222.6750 C   0  0  0  0  0  0  0  0  0  0  0  0
  140.0350   73.1010  221.9830 C   0  0  0  0  0  0  0  0  0  0  0  0
  140.8980   72.3360  221.2930 N   0  0  0  0  0  0  0  0  0  0  0  0
  141.9150   72.9480  220.6610 C   0  0  0  0  0  0  0  0  0  0  0  0
  142.8450   72.1650  219.9240 N   0  0  0  0  0  0  0  0  0  0  0  0
  142.5220   71.6220  218.6160 C   0  0  0  0  0  0  0  0  0  0  0  0
  143.1070   70.2290  218.4480 C   0  0  0  0  0  0  0  0  0  0  0  0
  144.5280   70.2130  218.7540 N   0  0  0  0  0  0  0  0  0  0  0  0
  145.2560   69.0300  218.4500 C   0  0  0  0  0  0  0  0  0  0  0  0
  145.6570   68.6910  217.1730 C   0  0  0  0  0  0  0  0  0  0  0  0
  146.3700   67.5230  216.9290 C   0  0  0  0  0  0  0  0  0  0  0  0
  146.7020   66.6650  217.9460 C   0  0  0  0  0  0  0  0  0  0  0  0
  146.3080   66.9900  219.2300 C   0  0  0  0  0  0  0  0  0  0  0  0
  145.6120   68.1360  219.4530 C   0  0  0  0  0  0  0  0  0  0  0  0
  145.0950   71.3910  219.3400 C   0  0  0  0  0  0  0  0  0  0  0  0
  144.1610   71.8720  220.4480 C   0  0  0  0  0  0  0  0  0  0  0  0
  142.0860   74.2820  220.7020 N   0  0  0  0  0  0  0  0  0  0  0  0
  141.2260   75.0720  221.3910 C   0  0  0  0  0  0  0  0  0  0  0  0
  141.3750   76.4860  221.4570 N   0  0  0  0  0  0  0  0  0  0  0  0
  141.8200   77.2650  220.3140 C   0  0  0  0  0  0  0  0  0  0  0  0
  140.9750   78.5470  220.3320 C   0  0  0  0  0  0  0  0  0  0  0  0
  141.4040   79.2830  221.5530 C   0  0  0  0  0  0  0  0  0  0  0  0
  141.7420   80.6190  221.4920 C   0  0  0  0  0  0  0  0  0  0  0  0
  142.1400   81.2780  222.6600 C   0  0  0  0  0  0  0  0  0  0  0  0
  142.1830   80.5650  223.8440 C   0  0  0  0  0  0  0  0  0  0  0  0
  141.8370   79.2240  223.8780 C   0  0  0  0  0  0  0  0  0  0  0  0
  141.4410   78.5610  222.7290 C   0  0  0  0  0  0  0  0  0  0  0  0
  141.0640   77.1310  222.7180 C   0  0  0  0  0  0  0  0  0  0  0  0
  140.2160   74.4390  222.0160 N   0  0  0  0  0  0  0  0  0  0  0  0
  139.4030   71.3680  223.6460 C   0  0  0  0  0  0  0  0  0  0  0  0
  138.2810   70.5120  224.1320 C   0  0  0  0  0  0  0  0  0  0  0  0
  135.0930   67.4240  221.4970 H   0  0  0  0  0  0  0  0  0  0  0  0
  136.8380   67.4710  222.0120 H   0  0  0  0  0  0  0  0  0  0  0  0
  135.6379   70.5599  222.5729 H   0  0  0  0  0  0  0  0  0  0  0  0
  135.9398   70.3200  224.3484 H   0  0  0  0  0  0  0  0  0  0  0  0
  138.8302   69.8606  221.4943 H   0  0  0  0  0  0  0  0  0  0  0  0
  137.0562   69.9895  221.1035 H   0  0  0  0  0  0  0  0  0  0  0  0
  138.3463   72.0598  220.6603 H   0  0  0  0  0  0  0  0  0  0  0  0
  136.9829   72.2261  221.8670 H   0  0  0  0  0  0  0  0  0  0  0  0
  138.3820   73.1768  223.2630 H   0  0  0  0  0  0  0  0  0  0  0  0
  141.4286   71.5690  218.5079 H   0  0  0  0  0  0  0  0  0  0  0  0
  142.9525   72.2794  217.8462 H   0  0  0  0  0  0  0  0  0  0  0  0
  142.5864   69.5374  219.1267 H   0  0  0  0  0  0  0  0  0  0  0  0
  142.9736   69.9202  217.4007 H   0  0  0  0  0  0  0  0  0  0  0  0
  145.4078   69.3571  216.3338 H   0  0  0  0  0  0  0  0  0  0  0  0
  146.6740   67.2821  215.8997 H   0  0  0  0  0  0  0  0  0  0  0  0
  147.2668   65.7427  217.7450 H   0  0  0  0  0  0  0  0  0  0  0  0
  146.5568   66.3234  220.0689 H   0  0  0  0  0  0  0  0  0  0  0  0
  145.3136   68.3692  220.4858 H   0  0  0  0  0  0  0  0  0  0  0  0
  146.0836   71.1576  219.7620 H   0  0  0  0  0  0  0  0  0  0  0  0
  145.2134   72.1746  218.5771 H   0  0  0  0  0  0  0  0  0  0  0  0
  144.0769   71.0870  221.2140 H   0  0  0  0  0  0  0  0  0  0  0  0
  144.5780   72.7918  220.8840 H   0  0  0  0  0  0  0  0  0  0  0  0
  142.8886   77.5084  220.4081 H   0  0  0  0  0  0  0  0  0  0  0  0
  141.6975   76.7107  219.3718 H   0  0  0  0  0  0  0  0  0  0  0  0
  141.1683   79.1486  219.4316 H   0  0  0  0  0  0  0  0  0  0  0  0
  139.8971   78.3277  220.3428 H   0  0  0  0  0  0  0  0  0  0  0  0
  141.6990   81.1603  220.5354 H   0  0  0  0  0  0  0  0  0  0  0  0
  142.4136   82.3432  222.6370 H   0  0  0  0  0  0  0  0  0  0  0  0
  142.4958   81.0689  224.7704 H   0  0  0  0  0  0  0  0  0  0  0  0
  141.8775   78.6779  224.8320 H   0  0  0  0  0  0  0  0  0  0  0  0
  141.6098   76.6158  223.5222 H   0  0  0  0  0  0  0  0  0  0  0  0
  139.9757   77.0704  222.8658 H   0  0  0  0  0  0  0  0  0  0  0  0
  140.1458   70.7315  223.1429 H   0  0  0  0  0  0  0  0  0  0  0  0
  139.8472   71.8789  224.5130 H   0  0  0  0  0  0  0  0  0  0  0  0
  138.7029   69.7315  224.7822 H   0  0  0  0  0  0  0  0  0  0  0  0
  137.5840   71.1830  224.6554 H   0  0  0  0  0  0  0  0  0  0  0  0
  1  2  1  0
  2  3  2  0
  2  4  1  0
  4  5  1  0
  5  6  1  0
  6  7  1  0
  7  8  1  0
  8  9  1  0
  9 10  2  0
 10 11  1  0
 11 12  1  0
 12 13  1  0
 13 14  1  0
 14 15  1  0
 15 16  1  0
 16 17  2  0
 17 18  1  0
 18 19  2  0
 19 20  1  0
 20 21  2  0
 15 22  1  0
 22 23  1  0
 11 24  2  0
 24 25  1  0
 25 26  1  0
 26 27  1  0
 27 28  1  0
 28 29  1  0
 29 30  2  0
 30 31  1  0
 31 32  2  0
 32 33  1  0
 33 34  2  0
 34 35  1  0
 25 36  2  0
  8 37  1  0
 37 38  1  0
 38  5  1  0
 36  9  1  0
 23 12  1  0
 35 26  1  0
 21 16  1  0
 34 29  1  0
  1 39  1  0
  1 40  1  0
  4 41  1  0
  4 42  1  0
  6 43  1  0
  6 44  1  0
  7 45  1  0
  7 46  1  0
  8 47  1  0
 13 48  1  0
 13 49  1  0
 14 50  1  0
 14 51  1  0
 17 52  1  0
 18 53  1  0
 19 54  1  0
 20 55  1  0
 21 56  1  0
 22 57  1  0
 22 58  1  0
 23 59  1  0
 23 60  1  0
 27 61  1  0
 27 62  1  0
 28 63  1  0
 28 64  1  0
 30 65  1  0
 31 66  1  0
 32 67  1  0
 33 68  1  0
 35 69  1  0
 35 70  1  0
 37 71  1  0
 37 72  1  0
 38 73  1  0
 38 74  1  0
M  END
>  <smiles>  (20) 
NC(=O)CN1CCC(c2nc(N3CCN(c4ccccc4)CC3)nc(N3CCc4ccccc4C3)n2)CC1

>  <score_type>  (20) 
oracle

>  <origin>  (20) 
autodockgpu

>  <m_score__min__energy>  (20) 
-9.5199999999999996

>  <m_primary>  (20) 
energy

>  <rmsd>  (20) 
8.021627173176944

>  <m_score__min__rmsd>  (20) 
8.021627173176944

>  <meeko>  (20) 
{"free_energy": -8.4, "intermolecular_energy": -10.19, "internal_energy": -1.51, "cluster_size": 2, "cluster_id": 4, "rank_in_cluster": 2}

>  <energy>  (20) 
-8.72

>  <cluster_rmsd>  (20) 
1.26

>  <cluster>  (20) 
1

$$$$

     RDKit          3D

 74 79  0  0  0  0  0  0  0  0999 V2000
  146.6460   69.4720  218.3120 N   0  0  0  0  0  0  0  0  0  0  0  0
  145.6250   68.8350  219.0760 C   0  0  0  0  0  0  0  0  0  0  0  0
  145.9240   68.1370  220.0820 O   0  0  0  0  0  0  0  0  0  0  0  0
  144.2250   69.0380  218.6230 C   0  0  0  0  0  0  0  0  0  0  0  0
  143.8740   70.4360  218.5450 N   0  0  0  0  0  0  0  0  0  0  0  0
  142.4510   70.6310  218.5070 C   0  0  0  0  0  0  0  0  0  0  0  0
  141.8260   70.6370  219.8810 C   0  0  0  0  0  0  0  0  0  0  0  0
  142.4620   71.6130  220.8320 C   0  0  0  0  0  0  0  0  0  0  0  0
  141.4670   72.6180  221.2690 C   0  0  0  0  0  0  0  0  0  0  0  0
  140.2860   72.1640  221.7220 N   0  0  0  0  0  0  0  0  0  0  0  0
  139.3750   73.0690  222.1220 C   0  0  0  0  0  0  0  0  0  0  0  0
  138.1160   72.6200  222.6050 N   0  0  0  0  0  0  0  0  0  0  0  0
  136.8760   73.2880  222.2470 C   0  0  0  0  0  0  0  0  0  0  0  0
  135.9200   73.3230  223.4290 C   0  0  0  0  0  0  0  0  0  0  0  0
  135.7290   71.9960  223.9920 N   0  0  0  0  0  0  0  0  0  0  0  0
  134.7100   71.8350  224.9710 C   0  0  0  0  0  0  0  0  0  0  0  0
  134.3020   70.6050  225.4470 C   0  0  0  0  0  0  0  0  0  0  0  0
  133.3020   70.5000  226.4080 C   0  0  0  0  0  0  0  0  0  0  0  0
  132.6860   71.6150  226.9190 C   0  0  0  0  0  0  0  0  0  0  0  0
  133.0850   72.8530  226.4520 C   0  0  0  0  0  0  0  0  0  0  0  0
  134.0640   72.9380  225.5130 C   0  0  0  0  0  0  0  0  0  0  0  0
  136.5800   70.9450  223.5200 C   0  0  0  0  0  0  0  0  0  0  0  0
  138.0130   71.4720  223.4770 C   0  0  0  0  0  0  0  0  0  0  0  0
  139.6140   74.3920  222.0800 N   0  0  0  0  0  0  0  0  0  0  0  0
  140.8000   74.8710  221.6280 C   0  0  0  0  0  0  0  0  0  0  0  0
  141.0870   76.2630  221.5690 N   0  0  0  0  0  0  0  0  0  0  0  0
  141.7440   76.8650  220.4210 C   0  0  0  0  0  0  0  0  0  0  0  0
  141.0420   78.2120  220.2000 C   0  0  0  0  0  0  0  0  0  0  0  0
  141.3980   79.0390  221.3850 C   0  0  0  0  0  0  0  0  0  0  0  0
  141.8800   80.3230  221.2350 C   0  0  0  0  0  0  0  0  0  0  0  0
  142.2040   81.0710  222.3710 C   0  0  0  0  0  0  0  0  0  0  0  0
  142.0300   80.4950  223.6170 C   0  0  0  0  0  0  0  0  0  0  0  0
  141.5450   79.2040  223.7410 C   0  0  0  0  0  0  0  0  0  0  0  0
  141.2200   78.4540  222.6240 C   0  0  0  0  0  0  0  0  0  0  0  0
  140.6990   77.0740  222.7080 C   0  0  0  0  0  0  0  0  0  0  0  0
  141.6950   73.9480  221.2330 N   0  0  0  0  0  0  0  0  0  0  0  0
  143.6770   72.2480  220.2000 C   0  0  0  0  0  0  0  0  0  0  0  0
  144.5400   71.2320  219.5280 C   0  0  0  0  0  0  0  0  0  0  0  0
  147.3880   68.9000  217.8440 H   0  0  0  0  0  0  0  0  0  0  0  0
  146.6580   70.5240  218.2170 H   0  0  0  0  0  0  0  0  0  0  0  0
  144.1062   68.5869  217.6268 H   0  0  0  0  0  0  0  0  0  0  0  0
  143.5598   68.5636  219.3595 H   0  0  0  0  0  0  0  0  0  0  0  0
  142.2410   71.5951  218.0208 H   0  0  0  0  0  0  0  0  0  0  0  0
  142.0156   69.7896  217.9481 H   0  0  0  0  0  0  0  0  0  0  0  0
  140.7622   70.8969  219.7771 H   0  0  0  0  0  0  0  0  0  0  0  0
  141.9743   69.6330  220.3052 H   0  0  0  0  0  0  0  0  0  0  0  0
  142.8066   71.0781  221.7293 H   0  0  0  0  0  0  0  0  0  0  0  0
  137.0992   74.3184  221.9332 H   0  0  0  0  0  0  0  0  0  0  0  0
  136.4006   72.7318  221.4257 H   0  0  0  0  0  0  0  0  0  0  0  0
  136.3325   73.9854  224.2043 H   0  0  0  0  0  0  0  0  0  0  0  0
  134.9463   73.6951  223.0778 H   0  0  0  0  0  0  0  0  0  0  0  0
  134.7764   69.6914  225.0592 H   0  0  0  0  0  0  0  0  0  0  0  0
  132.9991   69.5047  226.7652 H   0  0  0  0  0  0  0  0  0  0  0  0
  131.8963   71.5257  227.6795 H   0  0  0  0  0  0  0  0  0  0  0  0
  132.6115   73.7672  226.8392 H   0  0  0  0  0  0  0  0  0  0  0  0
  134.3614   73.9374  225.1626 H   0  0  0  0  0  0  0  0  0  0  0  0
  136.5206   70.0837  224.2016 H   0  0  0  0  0  0  0  0  0  0  0  0
  136.2641   70.6228  222.5168 H   0  0  0  0  0  0  0  0  0  0  0  0
  138.3201   71.7627  224.4925 H   0  0  0  0  0  0  0  0  0  0  0  0
  138.6675   70.6773  223.0895 H   0  0  0  0  0  0  0  0  0  0  0  0
  142.8132   77.0192  220.6282 H   0  0  0  0  0  0  0  0  0  0  0  0
  141.6772   76.2215  219.5313 H   0  0  0  0  0  0  0  0  0  0  0  0
  141.4026   78.6874  219.2759 H   0  0  0  0  0  0  0  0  0  0  0  0
  139.9535   78.0947  220.0936 H   0  0  0  0  0  0  0  0  0  0  0  0
  142.0082   80.7542  220.2312 H   0  0  0  0  0  0  0  0  0  0  0  0
  142.5895   82.0969  222.2761 H   0  0  0  0  0  0  0  0  0  0  0  0
  142.2802   81.0701  224.5207 H   0  0  0  0  0  0  0  0  0  0  0  0
  141.4160   78.7678  224.7425 H   0  0  0  0  0  0  0  0  0  0  0  0
  141.0883   76.6052  223.6238 H   0  0  0  0  0  0  0  0  0  0  0  0
  139.6006   77.1316  222.7184 H   0  0  0  0  0  0  0  0  0  0  0  0
  143.3470   72.9859  219.4540 H   0  0  0  0  0  0  0  0  0  0  0  0
  144.2664   72.7296  220.9941 H   0  0  0  0  0  0  0  0  0  0  0  0
  145.3702   71.7598  219.0358 H   0  0  0  0  0  0  0  0  0  0  0  0
  144.8723   70.5387  220.3147 H   0  0  0  0  0  0  0  0  0  0  0  0
  1  2  1  0
  2  3  2  0
  2  4  1  0
  4  5  1  0
  5  6  1  0
  6  7  1  0
  7  8  1  0
  8  9  1  0
  9 10  2  0
 10 11  1  0
 11 12  1  0
 12 13  1  0
 13 14  1  0
 14 15  1  0
 15 16  1  0
 16 17  2  0
 17 18  1  0
 18 19  2  0
 19 20  1  0
 20 21  2  0
 15 22  1  0
 22 23  1  0
 11 24  2  0
 24 25  1  0
 25 26  1  0
 26 27  1  0
 27 28  1  0
 28 29  1  0
 29 30  2  0
 30 31  1  0
 31 32  2  0
 32 33  1  0
 33 34  2  0
 34 35  1  0
 25 36  2  0
  8 37  1  0
 37 38  1  0
 38  5  1  0
 36  9  1  0
 23 12  1  0
 35 26  1  0
 21 16  1  0
 34 29  1  0
  1 39  1  0
  1 40  1  0
  4 41  1  0
  4 42  1  0
  6 43  1  0
  6 44  1  0
  7 45  1  0
  7 46  1  0
  8 47  1  0
 13 48  1  0
 13 49  1  0
 14 50  1  0
 14 51  1  0
 17 52  1  0
 18 53  1  0
 19 54  1  0
 20 55  1  0
 21 56  1  0
 22 57  1  0
 22 58  1  0
 23 59  1  0
 23 60  1  0
 27 61  1  0
 27 62  1  0
 28 63  1  0
 28 64  1  0
 30 65  1  0
 31 66  1  0
 32 67  1  0
 33 68  1  0
 35 69  1  0
 35 70  1  0
 37 71  1  0
 37 72  1  0
 38 73  1  0
 38 74  1  0
M  END
>  <smiles>  (21) 
NC(=O)CN1CCC(c2nc(N3CCN(c4ccccc4)CC3)nc(N3CCc4ccccc4C3)n2)CC1

>  <score_type>  (21) 
oracle

>  <origin>  (21) 
autodockgpu

>  <m_score__min__energy>  (21) 
-9.5199999999999996

>  <m_primary>  (21) 
energy

>  <rmsd>  (21) 
6.438293091950426

>  <m_score__min__rmsd>  (21) 
6.438293091950426

>  <meeko>  (21) 
{"free_energy": -8.94, "intermolecular_energy": -10.73, "internal_energy": -1.5, "cluster_size": 11, "cluster_id": 3, "rank_in_cluster": 1}

>  <energy>  (21) 
-8.72

>  <cluster_rmsd>  (21) 
1.26

>  <cluster>  (21) 
1

$$$$

     RDKit          3D

 74 79  0  0  0  0  0  0  0  0999 V2000
  147.0520   69.7250  216.9580 N   0  0  0  0  0  0  0  0  0  0  0  0
  145.9320   70.4830  216.5080 C   0  0  0  0  0  0  0  0  0  0  0  0
  145.2650   70.1030  215.5090 O   0  0  0  0  0  0  0  0  0  0  0  0
  145.6090   71.7170  217.2710 C   0  0  0  0  0  0  0  0  0  0  0  0
  145.2990   71.4380  218.6530 N   0  0  0  0  0  0  0  0  0  0  0  0
  144.9870   72.6350  219.3850 C   0  0  0  0  0  0  0  0  0  0  0  0
  143.5440   73.0520  219.2320 C   0  0  0  0  0  0  0  0  0  0  0  0
  142.5610   71.9640  219.5650 C   0  0  0  0  0  0  0  0  0  0  0  0
  141.7090   72.3800  220.7020 C   0  0  0  0  0  0  0  0  0  0  0  0
  141.2580   73.6450  220.7090 N   0  0  0  0  0  0  0  0  0  0  0  0
  140.4830   74.0330  221.7380 C   0  0  0  0  0  0  0  0  0  0  0  0
  139.9920   75.3670  221.7730 N   0  0  0  0  0  0  0  0  0  0  0  0
  140.8790   76.5120  221.6540 C   0  0  0  0  0  0  0  0  0  0  0  0
  140.4290   77.6410  222.5680 C   0  0  0  0  0  0  0  0  0  0  0  0
  139.0260   77.9620  222.3590 N   0  0  0  0  0  0  0  0  0  0  0  0
  138.5140   79.1270  222.9940 C   0  0  0  0  0  0  0  0  0  0  0  0
  139.3150   80.0990  223.5590 C   0  0  0  0  0  0  0  0  0  0  0  0
  138.7640   81.2220  224.1650 C   0  0  0  0  0  0  0  0  0  0  0  0
  137.4060   81.4060  224.2250 C   0  0  0  0  0  0  0  0  0  0  0  0
  136.5910   80.4410  223.6630 C   0  0  0  0  0  0  0  0  0  0  0  0
  137.1450   79.3490  223.0730 C   0  0  0  0  0  0  0  0  0  0  0  0
  138.2600   77.0820  221.5290 C   0  0  0  0  0  0  0  0  0  0  0  0
  138.5820   75.6440  221.9300 C   0  0  0  0  0  0  0  0  0  0  0  0
  140.1560   73.1990  222.7410 N   0  0  0  0  0  0  0  0  0  0  0  0
  140.5990   71.9170  222.7540 C   0  0  0  0  0  0  0  0  0  0  0  0
  140.2740   71.0080  223.7980 N   0  0  0  0  0  0  0  0  0  0  0  0
  139.0460   70.2300  223.7850 C   0  0  0  0  0  0  0  0  0  0  0  0
  139.4300   68.8390  224.3080 C   0  0  0  0  0  0  0  0  0  0  0  0
  139.7980   69.0450  225.7350 C   0  0  0  0  0  0  0  0  0  0  0  0
  139.2660   68.2450  226.7270 C   0  0  0  0  0  0  0  0  0  0  0  0
  139.6350   68.4680  228.0560 C   0  0  0  0  0  0  0  0  0  0  0  0
  140.5270   69.4870  228.3380 C   0  0  0  0  0  0  0  0  0  0  0  0
  141.0470   70.2750  227.3240 C   0  0  0  0  0  0  0  0  0  0  0  0
  140.6890   70.0650  226.0040 C   0  0  0  0  0  0  0  0  0  0  0  0
  141.2190   70.8800  224.8900 C   0  0  0  0  0  0  0  0  0  0  0  0
  141.3730   71.5530  221.7150 N   0  0  0  0  0  0  0  0  0  0  0  0
  143.2820   70.6660  219.8350 C   0  0  0  0  0  0  0  0  0  0  0  0
  144.3310   70.3980  218.8070 C   0  0  0  0  0  0  0  0  0  0  0  0
  147.8690   69.5680  216.3220 H   0  0  0  0  0  0  0  0  0  0  0  0
  147.0600   69.3190  217.9330 H   0  0  0  0  0  0  0  0  0  0  0  0
  146.4747   72.3945  217.2319 H   0  0  0  0  0  0  0  0  0  0  0  0
  144.7209   72.1754  216.8115 H   0  0  0  0  0  0  0  0  0  0  0  0
  145.1912   72.4587  220.4514 H   0  0  0  0  0  0  0  0  0  0  0  0
  145.6116   73.4447  218.9797 H   0  0  0  0  0  0  0  0  0  0  0  0
  143.3566   73.9055  219.9001 H   0  0  0  0  0  0  0  0  0  0  0  0
  143.3941   73.3070  218.1725 H   0  0  0  0  0  0  0  0  0  0  0  0
  141.9001   71.7922  218.7026 H   0  0  0  0  0  0  0  0  0  0  0  0
  141.8992   76.2083  221.9315 H   0  0  0  0  0  0  0  0  0  0  0  0
  140.8555   76.8696  220.6140 H   0  0  0  0  0  0  0  0  0  0  0  0
  140.5746   77.3347  223.6144 H   0  0  0  0  0  0  0  0  0  0  0  0
  141.0279   78.5344  222.3374 H   0  0  0  0  0  0  0  0  0  0  0  0
  140.4084   79.9828  223.5291 H   0  0  0  0  0  0  0  0  0  0  0  0
  139.4303   81.9784  224.6053 H   0  0  0  0  0  0  0  0  0  0  0  0
  136.9772   82.2969  224.7071 H   0  0  0  0  0  0  0  0  0  0  0  0
  135.4975   80.5566  223.6932 H   0  0  0  0  0  0  0  0  0  0  0  0
  136.4713   78.5988  222.6333 H   0  0  0  0  0  0  0  0  0  0  0  0
  137.1867   77.2765  221.6715 H   0  0  0  0  0  0  0  0  0  0  0  0
  138.5103   77.2456  220.4704 H   0  0  0  0  0  0  0  0  0  0  0  0
  138.3004   75.4921  222.9824 H   0  0  0  0  0  0  0  0  0  0  0  0
  138.0158   74.9627  221.2780 H   0  0  0  0  0  0  0  0  0  0  0  0
  138.2926   70.6916  224.4402 H   0  0  0  0  0  0  0  0  0  0  0  0
  138.6088   70.1783  222.7769 H   0  0  0  0  0  0  0  0  0  0  0  0
  138.5785   68.1475  224.2255 H   0  0  0  0  0  0  0  0  0  0  0  0
  140.2555   68.3969  223.7309 H   0  0  0  0  0  0  0  0  0  0  0  0
  138.5594   67.4409  226.4736 H   0  0  0  0  0  0  0  0  0  0  0  0
  139.2236   67.8445  228.8635 H   0  0  0  0  0  0  0  0  0  0  0  0
  140.8270   69.6739  229.3797 H   0  0  0  0  0  0  0  0  0  0  0  0
  141.7550   71.0795  227.5720 H   0  0  0  0  0  0  0  0  0  0  0  0
  141.4574   71.8844  225.2699 H   0  0  0  0  0  0  0  0  0  0  0  0
  142.1137   70.3724  224.5003 H   0  0  0  0  0  0  0  0  0  0  0  0
  143.7579   70.7209  220.8252 H   0  0  0  0  0  0  0  0  0  0  0  0
  142.5465   69.8489  219.7984 H   0  0  0  0  0  0  0  0  0  0  0  0
  144.8608   69.4767  219.0909 H   0  0  0  0  0  0  0  0  0  0  0  0
  143.8067   70.3179  217.8433 H   0  0  0  0  0  0  0  0  0  0  0  0
  1  2  1  0
  2  3  2  0
  2  4  1  0
  4  5  1  0
  5  6  1  0
  6  7  1  0
  7  8  1  0
  8  9  1  0
  9 10  2  0
 10 11  1  0
 11 12  1  0
 12 13  1  0
 13 14  1  0
 14 15  1  0
 15 16  1  0
 16 17  2  0
 17 18  1  0
 18 19  2  0
 19 20  1  0
 20 21  2  0
 15 22  1  0
 22 23  1  0
 11 24  2  0
 24 25  1  0
 25 26  1  0
 26 27  1  0
 27 28  1  0
 28 29  1  0
 29 30  2  0
 30 31  1  0
 31 32  2  0
 32 33  1  0
 33 34  2  0
 34 35  1  0
 25 36  2  0
  8 37  1  0
 37 38  1  0
 38  5  1  0
 36  9  1  0
 23 12  1  0
 35 26  1  0
 21 16  1  0
 34 29  1  0
  1 39  1  0
  1 40  1  0
  4 41  1  0
  4 42  1  0
  6 43  1  0
  6 44  1  0
  7 45  1  0
  7 46  1  0
  8 47  1  0
 13 48  1  0
 13 49  1  0
 14 50  1  0
 14 51  1  0
 17 52  1  0
 18 53  1  0
 19 54  1  0
 20 55  1  0
 21 56  1  0
 22 57  1  0
 22 58  1  0
 23 59  1  0
 23 60  1  0
 27 61  1  0
 27 62  1  0
 28 63  1  0
 28 64  1  0
 30 65  1  0
 31 66  1  0
 32 67  1  0
 33 68  1  0
 35 69  1  0
 35 70  1  0
 37 71  1  0
 37 72  1  0
 38 73  1  0
 38 74  1  0
M  END
>  <smiles>  (22) 
NC(=O)CN1CCC(c2nc(N3CCN(c4ccccc4)CC3)nc(N3CCc4ccccc4C3)n2)CC1

>  <score_type>  (22) 
oracle

>  <origin>  (22) 
autodockgpu

>  <m_score__min__energy>  (22) 
-9.5199999999999996

>  <m_primary>  (22) 
energy

>  <rmsd>  (22) 
8.346607658917996

>  <m_score__min__rmsd>  (22) 
8.346607658917996

>  <meeko>  (22) 
{"free_energy": -8.78, "intermolecular_energy": -10.57, "internal_energy": -1.5, "cluster_size": 25, "cluster_id": 1, "rank_in_cluster": 16}

>  <energy>  (22) 
-8.69

>  <cluster_rmsd>  (22) 
0.63

>  <cluster>  (22) 
1

$$$$

     RDKit          3D

 74 79  0  0  0  0  0  0  0  0999 V2000
  146.5750   74.0040  216.7480 N   0  0  0  0  0  0  0  0  0  0  0  0
  145.6490   73.0250  217.2130 C   0  0  0  0  0  0  0  0  0  0  0  0
  145.9300   72.3030  218.2060 O   0  0  0  0  0  0  0  0  0  0  0  0
  144.3680   72.9120  216.4700 C   0  0  0  0  0  0  0  0  0  0  0  0
  143.3440   73.7730  217.0150 N   0  0  0  0  0  0  0  0  0  0  0  0
  142.1820   73.0340  217.4230 C   0  0  0  0  0  0  0  0  0  0  0  0
  142.3160   72.4560  218.8120 C   0  0  0  0  0  0  0  0  0  0  0  0
  142.6830   73.4730  219.8570 C   0  0  0  0  0  0  0  0  0  0  0  0
  141.6170   73.5570  220.8810 C   0  0  0  0  0  0  0  0  0  0  0  0
  140.9350   74.7110  220.9740 N   0  0  0  0  0  0  0  0  0  0  0  0
  139.9650   74.7960  221.9010 C   0  0  0  0  0  0  0  0  0  0  0  0
  139.2280   76.0050  222.0240 N   0  0  0  0  0  0  0  0  0  0  0  0
  139.7720   77.2810  221.5910 C   0  0  0  0  0  0  0  0  0  0  0  0
  139.3700   78.3930  222.5470 C   0  0  0  0  0  0  0  0  0  0  0  0
  137.9320   78.4120  222.7600 N   0  0  0  0  0  0  0  0  0  0  0  0
  137.3840   79.5170  223.4680 C   0  0  0  0  0  0  0  0  0  0  0  0
  136.0400   79.8330  223.4600 C   0  0  0  0  0  0  0  0  0  0  0  0
  135.5530   80.9240  224.1710 C   0  0  0  0  0  0  0  0  0  0  0  0
  136.3880   81.7250  224.9070 C   0  0  0  0  0  0  0  0  0  0  0  0
  137.7370   81.4210  224.9250 C   0  0  0  0  0  0  0  0  0  0  0  0
  138.1970   80.3510  224.2240 C   0  0  0  0  0  0  0  0  0  0  0  0
  137.1700   77.3160  222.2430 C   0  0  0  0  0  0  0  0  0  0  0  0
  137.8970   76.0190  222.5900 C   0  0  0  0  0  0  0  0  0  0  0  0
  139.6670   73.7730  222.7220 N   0  0  0  0  0  0  0  0  0  0  0  0
  140.3410   72.5990  222.6440 C   0  0  0  0  0  0  0  0  0  0  0  0
  140.0530   71.4960  223.4940 N   0  0  0  0  0  0  0  0  0  0  0  0
  138.8210   70.7340  223.3750 C   0  0  0  0  0  0  0  0  0  0  0  0
  139.2180   69.2660  223.5890 C   0  0  0  0  0  0  0  0  0  0  0  0
  139.6460   69.1800  225.0120 C   0  0  0  0  0  0  0  0  0  0  0  0
  139.1500   68.1950  225.8420 C   0  0  0  0  0  0  0  0  0  0  0  0
  139.5740   68.1440  227.1730 C   0  0  0  0  0  0  0  0  0  0  0  0
  140.4830   69.0870  227.6190 C   0  0  0  0  0  0  0  0  0  0  0  0
  140.9660   70.0650  226.7650 C   0  0  0  0  0  0  0  0  0  0  0  0
  140.5540   70.1260  225.4450 C   0  0  0  0  0  0  0  0  0  0  0  0
  141.0420   71.1510  224.4980 C   0  0  0  0  0  0  0  0  0  0  0  0
  141.3080   72.5370  221.7100 N   0  0  0  0  0  0  0  0  0  0  0  0
  142.9680   74.8100  219.2160 C   0  0  0  0  0  0  0  0  0  0  0  0
  143.8420   74.6660  218.0140 C   0  0  0  0  0  0  0  0  0  0  0  0
  147.5270   73.7140  216.4200 H   0  0  0  0  0  0  0  0  0  0  0  0
  146.3060   75.0250  216.7360 H   0  0  0  0  0  0  0  0  0  0  0  0
  144.5419   73.1890  215.4197 H   0  0  0  0  0  0  0  0  0  0  0  0
  144.0174   71.8730  216.5569 H   0  0  0  0  0  0  0  0  0  0  0  0
  141.3124   73.7074  217.4046 H   0  0  0  0  0  0  0  0  0  0  0  0
  142.0609   72.1934  216.7239 H   0  0  0  0  0  0  0  0  0  0  0  0
  141.3548   72.0007  219.0929 H   0  0  0  0  0  0  0  0  0  0  0  0
  143.1340   71.7214  218.7770 H   0  0  0  0  0  0  0  0  0  0  0  0
  143.6054   73.1567  220.3660 H   0  0  0  0  0  0  0  0  0  0  0  0
  140.8694   77.2126  221.5587 H   0  0  0  0  0  0  0  0  0  0  0  0
  139.3727   77.5134  220.5927 H   0  0  0  0  0  0  0  0  0  0  0  0
  139.8732   78.2351  223.5123 H   0  0  0  0  0  0  0  0  0  0  0  0
  139.6684   79.3553  222.1055 H   0  0  0  0  0  0  0  0  0  0  0  0
  135.3421   79.2105  222.8808 H   0  0  0  0  0  0  0  0  0  0  0  0
  134.4766   81.1491  224.1426 H   0  0  0  0  0  0  0  0  0  0  0  0
  135.9954   82.5860  225.4679 H   0  0  0  0  0  0  0  0  0  0  0  0
  138.4353   82.0428  225.5045 H   0  0  0  0  0  0  0  0  0  0  0  0
  139.2748   80.1334  224.2576 H   0  0  0  0  0  0  0  0  0  0  0  0
  136.1679   77.3132  222.6966 H   0  0  0  0  0  0  0  0  0  0  0  0
  137.0638   77.4101  221.1522 H   0  0  0  0  0  0  0  0  0  0  0  0
  137.9700   75.9288  223.6839 H   0  0  0  0  0  0  0  0  0  0  0  0
  137.3287   75.1752  222.1715 H   0  0  0  0  0  0  0  0  0  0  0  0
  138.0982   71.0514  224.1410 H   0  0  0  0  0  0  0  0  0  0  0  0
  138.3422   70.8866  222.3965 H   0  0  0  0  0  0  0  0  0  0  0  0
  138.3596   68.6035  223.4038 H   0  0  0  0  0  0  0  0  0  0  0  0
  140.0161   68.9517  222.9003 H   0  0  0  0  0  0  0  0  0  0  0  0
  138.4285   67.4578  225.4600 H   0  0  0  0  0  0  0  0  0  0  0  0
  139.1921   67.3685  227.8533 H   0  0  0  0  0  0  0  0  0  0  0  0
  140.8261   69.0598  228.6638 H   0  0  0  0  0  0  0  0  0  0  0  0
  141.6880   70.8045  227.1417 H   0  0  0  0  0  0  0  0  0  0  0  0
  141.3021   72.0581  225.0632 H   0  0  0  0  0  0  0  0  0  0  0  0
  141.9164   70.7347  223.9764 H   0  0  0  0  0  0  0  0  0  0  0  0
  142.0164   75.2710  218.9127 H   0  0  0  0  0  0  0  0  0  0  0  0
  143.4921   75.4397  219.9501 H   0  0  0  0  0  0  0  0  0  0  0  0
  143.9613   75.6592  217.5565 H   0  0  0  0  0  0  0  0  0  0  0  0
  144.7898   74.2357  218.3697 H   0  0  0  0  0  0  0  0  0  0  0  0
  1  2  1  0
  2  3  2  0
  2  4  1  0
  4  5  1  0
  5  6  1  0
  6  7  1  0
  7  8  1  0
  8  9  1  0
  9 10  2  0
 10 11  1  0
 11 12  1  0
 12 13  1  0
 13 14  1  0
 14 15  1  0
 15 16  1  0
 16 17  2  0
 17 18  1  0
 18 19  2  0
 19 20  1  0
 20 21  2  0
 15 22  1  0
 22 23  1  0
 11 24  2  0
 24 25  1  0
 25 26  1  0
 26 27  1  0
 27 28  1  0
 28 29  1  0
 29 30  2  0
 30 31  1  0
 31 32  2  0
 32 33  1  0
 33 34  2  0
 34 35  1  0
 25 36  2  0
  8 37  1  0
 37 38  1  0
 38  5  1  0
 36  9  1  0
 23 12  1  0
 35 26  1  0
 21 16  1  0
 34 29  1  0
  1 39  1  0
  1 40  1  0
  4 41  1  0
  4 42  1  0
  6 43  1  0
  6 44  1  0
  7 45  1  0
  7 46  1  0
  8 47  1  0
 13 48  1  0
 13 49  1  0
 14 50  1  0
 14 51  1  0
 17 52  1  0
 18 53  1  0
 19 54  1  0
 20 55  1  0
 21 56  1  0
 22 57  1  0
 22 58  1  0
 23 59  1  0
 23 60  1  0
 27 61  1  0
 27 62  1  0
 28 63  1  0
 28 64  1  0
 30 65  1  0
 31 66  1  0
 32 67  1  0
 33 68  1  0
 35 69  1  0
 35 70  1  0
 37 71  1  0
 37 72  1  0
 38 73  1  0
 38 74  1  0
M  END
>  <smiles>  (23) 
NC(=O)CN1CCC(c2nc(N3CCN(c4ccccc4)CC3)nc(N3CCc4ccccc4C3)n2)CC1

>  <score_type>  (23) 
oracle

>  <origin>  (23) 
autodockgpu

>  <m_score__min__energy>  (23) 
-9.5199999999999996

>  <m_primary>  (23) 
energy

>  <rmsd>  (23) 
8.652979166252306

>  <m_score__min__rmsd>  (23) 
8.652979166252306

>  <meeko>  (23) 
{"free_energy": -8.72, "intermolecular_energy": -10.51, "internal_energy": -1.51, "cluster_size": 25, "cluster_id": 1, "rank_in_cluster": 20}

>  <energy>  (23) 
-8.68

>  <cluster_rmsd>  (23) 
1.15

>  <cluster>  (23) 
1

$$$$

     RDKit          3D

 74 79  0  0  0  0  0  0  0  0999 V2000
  146.0710   74.7810  215.9770 N   0  0  0  0  0  0  0  0  0  0  0  0
  146.5180   73.4500  216.2230 C   0  0  0  0  0  0  0  0  0  0  0  0
  147.6390   73.0650  215.7960 O   0  0  0  0  0  0  0  0  0  0  0  0
  145.6020   72.5690  216.9920 C   0  0  0  0  0  0  0  0  0  0  0  0
  145.4730   72.9850  218.3690 N   0  0  0  0  0  0  0  0  0  0  0  0
  144.3970   73.9190  218.5490 C   0  0  0  0  0  0  0  0  0  0  0  0
  143.0580   73.2400  218.7170 C   0  0  0  0  0  0  0  0  0  0  0  0
  143.0390   72.2020  219.8060 C   0  0  0  0  0  0  0  0  0  0  0  0
  142.0600   72.5790  220.8500 C   0  0  0  0  0  0  0  0  0  0  0  0
  141.5420   73.8180  220.7960 N   0  0  0  0  0  0  0  0  0  0  0  0
  140.6510   74.1700  221.7400 C   0  0  0  0  0  0  0  0  0  0  0  0
  140.0870   75.4750  221.7100 N   0  0  0  0  0  0  0  0  0  0  0  0
  140.9080   76.6590  221.5180 C   0  0  0  0  0  0  0  0  0  0  0  0
  140.4050   77.8100  222.3750 C   0  0  0  0  0  0  0  0  0  0  0  0
  138.9850   78.0410  222.1690 N   0  0  0  0  0  0  0  0  0  0  0  0
  138.4150   79.2090  222.7470 C   0  0  0  0  0  0  0  0  0  0  0  0
  137.3120   79.8550  222.2240 C   0  0  0  0  0  0  0  0  0  0  0  0
  136.7910   80.9930  222.8290 C   0  0  0  0  0  0  0  0  0  0  0  0
  137.3530   81.5160  223.9650 C   0  0  0  0  0  0  0  0  0  0  0  0
  138.4580   80.8810  224.5000 C   0  0  0  0  0  0  0  0  0  0  0  0
  138.9550   79.7690  223.8980 C   0  0  0  0  0  0  0  0  0  0  0  0
  138.2600   77.0760  221.3980 C   0  0  0  0  0  0  0  0  0  0  0  0
  138.6660   75.6820  221.8710 C   0  0  0  0  0  0  0  0  0  0  0  0
  140.2740   73.3280  222.7190 N   0  0  0  0  0  0  0  0  0  0  0  0
  140.7830   72.0720  222.7910 C   0  0  0  0  0  0  0  0  0  0  0  0
  140.4080   71.1550  223.8110 N   0  0  0  0  0  0  0  0  0  0  0  0
  139.1730   70.3920  223.7420 C   0  0  0  0  0  0  0  0  0  0  0  0
  139.5220   68.9900  224.2630 C   0  0  0  0  0  0  0  0  0  0  0  0
  139.8370   69.1750  225.7050 C   0  0  0  0  0  0  0  0  0  0  0  0
  139.2590   68.3710  226.6660 C   0  0  0  0  0  0  0  0  0  0  0  0
  139.5800   68.5730  228.0120 C   0  0  0  0  0  0  0  0  0  0  0  0
  140.4720   69.5790  228.3390 C   0  0  0  0  0  0  0  0  0  0  0  0
  141.0390   70.3720  227.3550 C   0  0  0  0  0  0  0  0  0  0  0  0
  140.7290   70.1810  226.0200 C   0  0  0  0  0  0  0  0  0  0  0  0
  141.3100   71.0030  224.9370 C   0  0  0  0  0  0  0  0  0  0  0  0
  141.6730   71.7430  221.8360 N   0  0  0  0  0  0  0  0  0  0  0  0
  144.4260   72.0000  220.3670 C   0  0  0  0  0  0  0  0  0  0  0  0
  145.4450   71.8860  219.2820 C   0  0  0  0  0  0  0  0  0  0  0  0
  145.9480   75.1200  214.9940 H   0  0  0  0  0  0  0  0  0  0  0  0
  145.8650   75.4290  216.7850 H   0  0  0  0  0  0  0  0  0  0  0  0
  144.6086   72.5928  216.5202 H   0  0  0  0  0  0  0  0  0  0  0  0
  146.0247   71.5535  216.9843 H   0  0  0  0  0  0  0  0  0  0  0  0
  144.6008   74.5221  219.4460 H   0  0  0  0  0  0  0  0  0  0  0  0
  144.3426   74.5419  217.6440 H   0  0  0  0  0  0  0  0  0  0  0  0
  142.3069   74.0074  218.9555 H   0  0  0  0  0  0  0  0  0  0  0  0
  142.8407   72.7194  217.7727 H   0  0  0  0  0  0  0  0  0  0  0  0
  142.7180   71.2374  219.3858 H   0  0  0  0  0  0  0  0  0  0  0  0
  141.9461   76.4274  221.7986 H   0  0  0  0  0  0  0  0  0  0  0  0
  140.8545   76.9573  220.4606 H   0  0  0  0  0  0  0  0  0  0  0  0
  140.5790   77.5705  223.4344 H   0  0  0  0  0  0  0  0  0  0  0  0
  140.9501   78.7210  222.0871 H   0  0  0  0  0  0  0  0  0  0  0  0
  136.8374   79.4621  221.3127 H   0  0  0  0  0  0  0  0  0  0  0  0
  135.9108   81.4834  222.3878 H   0  0  0  0  0  0  0  0  0  0  0  0
  136.9355   82.4171  224.4381 H   0  0  0  0  0  0  0  0  0  0  0  0
  138.9335   81.2747  225.4104 H   0  0  0  0  0  0  0  0  0  0  0  0
  139.8346   79.2848  224.3473 H   0  0  0  0  0  0  0  0  0  0  0  0
  137.1792   77.2185  221.5448 H   0  0  0  0  0  0  0  0  0  0  0  0
  138.4892   77.1953  220.3288 H   0  0  0  0  0  0  0  0  0  0  0  0
  138.4044   75.5722  222.9338 H   0  0  0  0  0  0  0  0  0  0  0  0
  138.1318   74.9361  221.2641 H   0  0  0  0  0  0  0  0  0  0  0  0
  138.4004   70.8547  224.3736 H   0  0  0  0  0  0  0  0  0  0  0  0
  138.7737   70.3571  222.7176 H   0  0  0  0  0  0  0  0  0  0  0  0
  138.6670   68.3091  224.1396 H   0  0  0  0  0  0  0  0  0  0  0  0
  140.3644   68.5456  223.7127 H   0  0  0  0  0  0  0  0  0  0  0  0
  138.5527   67.5790  226.3762 H   0  0  0  0  0  0  0  0  0  0  0  0
  139.1321   67.9443  228.7956 H   0  0  0  0  0  0  0  0  0  0  0  0
  140.7341   69.7511  229.3934 H   0  0  0  0  0  0  0  0  0  0  0  0
  141.7461   71.1653  227.6390 H   0  0  0  0  0  0  0  0  0  0  0  0
  141.5450   72.0000  225.3380 H   0  0  0  0  0  0  0  0  0  0  0  0
  142.2132   70.4898  224.5752 H   0  0  0  0  0  0  0  0  0  0  0  0
  144.6806   72.8573  221.0075 H   0  0  0  0  0  0  0  0  0  0  0  0
  144.4312   71.0638  220.9444 H   0  0  0  0  0  0  0  0  0  0  0  0
  146.4368   71.8052  219.7509 H   0  0  0  0  0  0  0  0  0  0  0  0
  145.1710   70.9994  218.6914 H   0  0  0  0  0  0  0  0  0  0  0  0
  1  2  1  0
  2  3  2  0
  2  4  1  0
  4  5  1  0
  5  6  1  0
  6  7  1  0
  7  8  1  0
  8  9  1  0
  9 10  2  0
 10 11  1  0
 11 12  1  0
 12 13  1  0
 13 14  1  0
 14 15  1  0
 15 16  1  0
 16 17  2  0
 17 18  1  0
 18 19  2  0
 19 20  1  0
 20 21  2  0
 15 22  1  0
 22 23  1  0
 11 24  2  0
 24 25  1  0
 25 26  1  0
 26 27  1  0
 27 28  1  0
 28 29  1  0
 29 30  2  0
 30 31  1  0
 31 32  2  0
 32 33  1  0
 33 34  2  0
 34 35  1  0
 25 36  2  0
  8 37  1  0
 37 38  1  0
 38  5  1  0
 36  9  1  0
 23 12  1  0
 35 26  1  0
 21 16  1  0
 34 29  1  0
  1 39  1  0
  1 40  1  0
  4 41  1  0
  4 42  1  0
  6 43  1  0
  6 44  1  0
  7 45  1  0
  7 46  1  0
  8 47  1  0
 13 48  1  0
 13 49  1  0
 14 50  1  0
 14 51  1  0
 17 52  1  0
 18 53  1  0
 19 54  1  0
 20 55  1  0
 21 56  1  0
 22 57  1  0
 22 58  1  0
 23 59  1  0
 23 60  1  0
 27 61  1  0
 27 62  1  0
 28 63  1  0
 28 64  1  0
 30 65  1  0
 31 66  1  0
 32 67  1  0
 33 68  1  0
 35 69  1  0
 35 70  1  0
 37 71  1  0
 37 72  1  0
 38 73  1  0
 38 74  1  0
M  END
>  <smiles>  (24) 
NC(=O)CN1CCC(c2nc(N3CCN(c4ccccc4)CC3)nc(N3CCc4ccccc4C3)n2)CC1

>  <score_type>  (24) 
oracle

>  <origin>  (24) 
autodockgpu

>  <m_score__min__energy>  (24) 
-9.5199999999999996

>  <m_primary>  (24) 
energy

>  <rmsd>  (24) 
8.280106553451652

>  <m_score__min__rmsd>  (24) 
8.280106553451652

>  <meeko>  (24) 
{"free_energy": -9.38, "intermolecular_energy": -11.17, "internal_energy": -1.43, "cluster_size": 25, "cluster_id": 1, "rank_in_cluster": 8}

>  <energy>  (24) 
-8.57

>  <cluster_rmsd>  (24) 
1.15

>  <cluster>  (24) 
1

$$$$

     RDKit          3D

 74 79  0  0  0  0  0  0  0  0999 V2000
  134.7990   70.0220  215.6070 N   0  0  0  0  0  0  0  0  0  0  0  0
  135.9470   69.3370  216.0990 C   0  0  0  0  0  0  0  0  0  0  0  0
  135.8220   68.2470  216.7180 O   0  0  0  0  0  0  0  0  0  0  0  0
  137.2660   69.9720  215.8430 C   0  0  0  0  0  0  0  0  0  0  0  0
  137.3960   71.2470  216.5080 N   0  0  0  0  0  0  0  0  0  0  0  0
  136.8240   71.2260  217.8260 C   0  0  0  0  0  0  0  0  0  0  0  0
  137.7750   70.6810  218.8650 C   0  0  0  0  0  0  0  0  0  0  0  0
  139.1100   71.3730  218.8850 C   0  0  0  0  0  0  0  0  0  0  0  0
  139.3310   72.0120  220.2010 C   0  0  0  0  0  0  0  0  0  0  0  0
  139.4780   73.3480  220.2250 N   0  0  0  0  0  0  0  0  0  0  0  0
  139.6800   73.9380  221.4170 C   0  0  0  0  0  0  0  0  0  0  0  0
  139.8400   75.3490  221.4740 N   0  0  0  0  0  0  0  0  0  0  0  0
  140.6550   76.0660  220.5080 C   0  0  0  0  0  0  0  0  0  0  0  0
  141.4170   77.1990  221.1780 C   0  0  0  0  0  0  0  0  0  0  0  0
  140.5250   78.0550  221.9430 N   0  0  0  0  0  0  0  0  0  0  0  0
  141.0560   79.2690  222.4590 C   0  0  0  0  0  0  0  0  0  0  0  0
  140.5400   80.5140  222.1580 C   0  0  0  0  0  0  0  0  0  0  0  0
  141.0950   81.6710  222.6920 C   0  0  0  0  0  0  0  0  0  0  0  0
  142.1740   81.6200  223.5370 C   0  0  0  0  0  0  0  0  0  0  0  0
  142.7020   80.3810  223.8480 C   0  0  0  0  0  0  0  0  0  0  0  0
  142.1480   79.2590  223.3180 C   0  0  0  0  0  0  0  0  0  0  0  0
  139.1740   77.6160  222.1210 C   0  0  0  0  0  0  0  0  0  0  0  0
  139.1970   76.1370  222.5010 C   0  0  0  0  0  0  0  0  0  0  0  0
  139.7360   73.2360  222.5630 N   0  0  0  0  0  0  0  0  0  0  0  0
  139.5890   71.8880  222.5620 C   0  0  0  0  0  0  0  0  0  0  0  0
  139.6440   71.1130  223.7540 N   0  0  0  0  0  0  0  0  0  0  0  0
  138.6470   70.1010  224.0590 C   0  0  0  0  0  0  0  0  0  0  0  0
  139.4220   68.9280  224.6770 C   0  0  0  0  0  0  0  0  0  0  0  0
  139.9330   69.4390  225.9770 C   0  0  0  0  0  0  0  0  0  0  0  0
  139.7550   68.7180  227.1410 C   0  0  0  0  0  0  0  0  0  0  0  0
  140.2500   69.2280  228.3450 C   0  0  0  0  0  0  0  0  0  0  0  0
  140.9060   70.4460  228.3310 C   0  0  0  0  0  0  0  0  0  0  0  0
  141.0720   71.1500  227.1500 C   0  0  0  0  0  0  0  0  0  0  0  0
  140.5870   70.6550  225.9520 C   0  0  0  0  0  0  0  0  0  0  0  0
  140.7400   71.3700  224.6670 C   0  0  0  0  0  0  0  0  0  0  0  0
  139.3900   71.3190  221.3590 N   0  0  0  0  0  0  0  0  0  0  0  0
  139.2110   72.3570  217.7450 C   0  0  0  0  0  0  0  0  0  0  0  0
  138.7270   71.7640  216.4630 C   0  0  0  0  0  0  0  0  0  0  0  0
  134.0560   70.3470  216.2710 H   0  0  0  0  0  0  0  0  0  0  0  0
  134.6920   70.2040  214.5720 H   0  0  0  0  0  0  0  0  0  0  0  0
  138.0585   69.3009  216.2057 H   0  0  0  0  0  0  0  0  0  0  0  0
  137.3527   70.1456  214.7602 H   0  0  0  0  0  0  0  0  0  0  0  0
  136.5476   72.2532  218.1062 H   0  0  0  0  0  0  0  0  0  0  0  0
  135.9471   70.5625  217.7973 H   0  0  0  0  0  0  0  0  0  0  0  0
  137.3099   70.7951  219.8553 H   0  0  0  0  0  0  0  0  0  0  0  0
  137.9626   69.6280  218.6081 H   0  0  0  0  0  0  0  0  0  0  0  0
  139.9090   70.6308  218.7412 H   0  0  0  0  0  0  0  0  0  0  0  0
  141.3733   75.3678  220.0535 H   0  0  0  0  0  0  0  0  0  0  0  0
  139.9952   76.4923  219.7380 H   0  0  0  0  0  0  0  0  0  0  0  0
  142.1720   76.7722  221.8547 H   0  0  0  0  0  0  0  0  0  0  0  0
  141.8952   77.8065  220.3955 H   0  0  0  0  0  0  0  0  0  0  0  0
  139.6744   80.5914  221.4837 H   0  0  0  0  0  0  0  0  0  0  0  0
  140.6601   82.6472  222.4316 H   0  0  0  0  0  0  0  0  0  0  0  0
  142.6075   82.5401  223.9559 H   0  0  0  0  0  0  0  0  0  0  0  0
  143.5677   80.3035  224.5222 H   0  0  0  0  0  0  0  0  0  0  0  0
  142.5894   78.2873  223.5843 H   0  0  0  0  0  0  0  0  0  0  0  0
  138.6960   78.1986  222.9223 H   0  0  0  0  0  0  0  0  0  0  0  0
  138.6030   77.7599  221.1919 H   0  0  0  0  0  0  0  0  0  0  0  0
  139.7485   76.0166  223.4451 H   0  0  0  0  0  0  0  0  0  0  0  0
  138.1601   75.7876  222.6136 H   0  0  0  0  0  0  0  0  0  0  0  0
  137.9091   70.4928  224.7746 H   0  0  0  0  0  0  0  0  0  0  0  0
  138.0926   69.7930  223.1602 H   0  0  0  0  0  0  0  0  0  0  0  0
  138.7561   68.0670  224.8360 H   0  0  0  0  0  0  0  0  0  0  0  0
  140.2361   68.5832  224.0225 H   0  0  0  0  0  0  0  0  0  0  0  0
  139.2291   67.7521  227.1213 H   0  0  0  0  0  0  0  0  0  0  0  0
  140.1204   68.6717  229.2851 H   0  0  0  0  0  0  0  0  0  0  0  0
  141.3009   70.8607  229.2702 H   0  0  0  0  0  0  0  0  0  0  0  0
  141.5969   72.1166  227.1643 H   0  0  0  0  0  0  0  0  0  0  0  0
  140.7855   72.4505  224.8680 H   0  0  0  0  0  0  0  0  0  0  0  0
  141.6631   71.0075  224.1910 H   0  0  0  0  0  0  0  0  0  0  0  0
  138.6015   73.2415  217.9818 H   0  0  0  0  0  0  0  0  0  0  0  0
  140.2689   72.6312  217.6197 H   0  0  0  0  0  0  0  0  0  0  0  0
  138.7652   72.5445  215.6888 H   0  0  0  0  0  0  0  0  0  0  0  0
  139.3848   70.9087  216.2491 H   0  0  0  0  0  0  0  0  0  0  0  0
  1  2  1  0
  2  3  2  0
  2  4  1  0
  4  5  1  0
  5  6  1  0
  6  7  1  0
  7  8  1  0
  8  9  1  0
  9 10  2  0
 10 11  1  0
 11 12  1  0
 12 13  1  0
 13 14  1  0
 14 15  1  0
 15 16  1  0
 16 17  2  0
 17 18  1  0
 18 19  2  0
 19 20  1  0
 20 21  2  0
 15 22  1  0
 22 23  1  0
 11 24  2  0
 24 25  1  0
 25 26  1  0
 26 27  1  0
 27 28  1  0
 28 29  1  0
 29 30  2  0
 30 31  1  0
 31 32  2  0
 32 33  1  0
 33 34  2  0
 34 35  1  0
 25 36  2  0
  8 37  1  0
 37 38  1  0
 38  5  1  0
 36  9  1  0
 23 12  1  0
 35 26  1  0
 21 16  1  0
 34 29  1  0
  1 39  1  0
  1 40  1  0
  4 41  1  0
  4 42  1  0
  6 43  1  0
  6 44  1  0
  7 45  1  0
  7 46  1  0
  8 47  1  0
 13 48  1  0
 13 49  1  0
 14 50  1  0
 14 51  1  0
 17 52  1  0
 18 53  1  0
 19 54  1  0
 20 55  1  0
 21 56  1  0
 22 57  1  0
 22 58  1  0
 23 59  1  0
 23 60  1  0
 27 61  1  0
 27 62  1  0
 28 63  1  0
 28 64  1  0
 30 65  1  0
 31 66  1  0
 32 67  1  0
 33 68  1  0
 35 69  1  0
 35 70  1  0
 37 71  1  0
 37 72  1  0
 38 73  1  0
 38 74  1  0
M  END
>  <smiles>  (25) 
NC(=O)CN1CCC(c2nc(N3CCN(c4ccccc4)CC3)nc(N3CCc4ccccc4C3)n2)CC1

>  <score_type>  (25) 
oracle

>  <origin>  (25) 
autodockgpu

>  <m_score__min__energy>  (25) 
-9.5199999999999996

>  <m_primary>  (25) 
energy

>  <rmsd>  (25) 
8.447218897365529

>  <m_score__min__rmsd>  (25) 
8.447218897365529

>  <meeko>  (25) 
{"free_energy": -8.18, "intermolecular_energy": -9.97, "internal_energy": -1.46, "cluster_size": 7, "cluster_id": 5, "rank_in_cluster": 3}

>  <energy>  (25) 
-8.56

>  <cluster_rmsd>  (25) 
1.4

>  <cluster>  (25) 
1

$$$$

     RDKit          3D

 74 79  0  0  0  0  0  0  0  0999 V2000
  144.7640   67.6400  218.2520 N   0  0  0  0  0  0  0  0  0  0  0  0
  145.4340   68.4930  219.1770 C   0  0  0  0  0  0  0  0  0  0  0  0
  145.5840   68.1380  220.3770 O   0  0  0  0  0  0  0  0  0  0  0  0
  145.9300   69.7900  218.6520 C   0  0  0  0  0  0  0  0  0  0  0  0
  144.8520   70.6800  218.2880 N   0  0  0  0  0  0  0  0  0  0  0  0
  143.6410   70.3750  218.9990 C   0  0  0  0  0  0  0  0  0  0  0  0
  143.5930   71.0120  220.3670 C   0  0  0  0  0  0  0  0  0  0  0  0
  143.8320   72.4970  220.3520 C   0  0  0  0  0  0  0  0  0  0  0  0
  142.6440   73.2080  220.8780 C   0  0  0  0  0  0  0  0  0  0  0  0
  141.6120   72.4600  221.3020 N   0  0  0  0  0  0  0  0  0  0  0  0
  140.5280   73.0970  221.7810 C   0  0  0  0  0  0  0  0  0  0  0  0
  139.4190   72.3330  222.2370 N   0  0  0  0  0  0  0  0  0  0  0  0
  138.1590   72.3070  221.5130 C   0  0  0  0  0  0  0  0  0  0  0  0
  136.9830   72.2860  222.4770 C   0  0  0  0  0  0  0  0  0  0  0  0
  137.1200   71.2180  223.4540 N   0  0  0  0  0  0  0  0  0  0  0  0
  136.0050   70.9440  224.2930 C   0  0  0  0  0  0  0  0  0  0  0  0
  135.0910   71.9030  224.6800 C   0  0  0  0  0  0  0  0  0  0  0  0
  134.0150   71.5830  225.5010 C   0  0  0  0  0  0  0  0  0  0  0  0
  133.8220   70.3040  225.9560 C   0  0  0  0  0  0  0  0  0  0  0  0
  134.7290   69.3320  225.5770 C   0  0  0  0  0  0  0  0  0  0  0  0
  135.7750   69.6610  224.7740 C   0  0  0  0  0  0  0  0  0  0  0  0
  138.3680   70.5170  223.5010 C   0  0  0  0  0  0  0  0  0  0  0  0
  139.4970   71.5440  223.4460 C   0  0  0  0  0  0  0  0  0  0  0  0
  140.4560   74.4380  221.8440 N   0  0  0  0  0  0  0  0  0  0  0  0
  141.4870   75.2120  221.4230 C   0  0  0  0  0  0  0  0  0  0  0  0
  141.4450   76.6330  221.4740 N   0  0  0  0  0  0  0  0  0  0  0  0
  141.7730   77.4540  220.3200 C   0  0  0  0  0  0  0  0  0  0  0  0
  140.7630   78.6110  220.3350 C   0  0  0  0  0  0  0  0  0  0  0  0
  141.1000   79.4090  221.5440 C   0  0  0  0  0  0  0  0  0  0  0  0
  141.2550   80.7790  221.4690 C   0  0  0  0  0  0  0  0  0  0  0  0
  141.5710   81.4960  222.6260 C   0  0  0  0  0  0  0  0  0  0  0  0
  141.7180   80.8080  223.8170 C   0  0  0  0  0  0  0  0  0  0  0  0
  141.5560   79.4330  223.8660 C   0  0  0  0  0  0  0  0  0  0  0  0
  141.2430   78.7110  222.7270 C   0  0  0  0  0  0  0  0  0  0  0  0
  141.0620   77.2440  222.7320 C   0  0  0  0  0  0  0  0  0  0  0  0
  142.5590   74.5530  220.9470 N   0  0  0  0  0  0  0  0  0  0  0  0
  144.2060   72.9570  218.9640 C   0  0  0  0  0  0  0  0  0  0  0  0
  145.2250   72.0580  218.3450 C   0  0  0  0  0  0  0  0  0  0  0  0
  143.7680   67.3620  218.4190 H   0  0  0  0  0  0  0  0  0  0  0  0
  145.2710   67.2840  217.3960 H   0  0  0  0  0  0  0  0  0  0  0  0
  146.5430   70.2744  219.4263 H   0  0  0  0  0  0  0  0  0  0  0  0
  146.5185   69.5844  217.7457 H   0  0  0  0  0  0  0  0  0  0  0  0
  142.7861   70.7396  218.4107 H   0  0  0  0  0  0  0  0  0  0  0  0
  143.6030   69.2845  219.1385 H   0  0  0  0  0  0  0  0  0  0  0  0
  142.6005   70.8245  220.8026 H   0  0  0  0  0  0  0  0  0  0  0  0
  144.4035   70.5622  220.9593 H   0  0  0  0  0  0  0  0  0  0  0  0
  144.6794   72.7375  221.0108 H   0  0  0  0  0  0  0  0  0  0  0  0
  138.0892   73.2027  220.8783 H   0  0  0  0  0  0  0  0  0  0  0  0
  138.1255   71.3970  220.8959 H   0  0  0  0  0  0  0  0  0  0  0  0
  136.9347   73.2501  223.0044 H   0  0  0  0  0  0  0  0  0  0  0  0
  136.0633   72.1121  221.8991 H   0  0  0  0  0  0  0  0  0  0  0  0
  135.2158   72.9393  224.3328 H   0  0  0  0  0  0  0  0  0  0  0  0
  133.3049   72.3714  225.7910 H   0  0  0  0  0  0  0  0  0  0  0  0
  132.9686   70.0580  226.6050 H   0  0  0  0  0  0  0  0  0  0  0  0
  134.6045   68.2957  225.9242 H   0  0  0  0  0  0  0  0  0  0  0  0
  136.4797   68.8661  224.4886 H   0  0  0  0  0  0  0  0  0  0  0  0
  138.4354   69.9397  224.4349 H   0  0  0  0  0  0  0  0  0  0  0  0
  138.4452   69.8229  222.6511 H   0  0  0  0  0  0  0  0  0  0  0  0
  139.4195   72.2113  224.3170 H   0  0  0  0  0  0  0  0  0  0  0  0
  140.4585   71.0098  223.4553 H   0  0  0  0  0  0  0  0  0  0  0  0
  142.7998   77.8397  220.4027 H   0  0  0  0  0  0  0  0  0  0  0  0
  141.7194   76.8794  219.3835 H   0  0  0  0  0  0  0  0  0  0  0  0
  140.8656   79.2241  219.4275 H   0  0  0  0  0  0  0  0  0  0  0  0
  139.7245   78.2491  220.3583 H   0  0  0  0  0  0  0  0  0  0  0  0
  141.1310   81.3005  220.5085 H   0  0  0  0  0  0  0  0  0  0  0  0
  141.7005   82.5878  222.5903 H   0  0  0  0  0  0  0  0  0  0  0  0
  141.9665   81.3591  224.7360 H   0  0  0  0  0  0  0  0  0  0  0  0
  141.6779   78.9070  224.8244 H   0  0  0  0  0  0  0  0  0  0  0  0
  141.6795   76.8151  223.5349 H   0  0  0  0  0  0  0  0  0  0  0  0
  139.9929   77.0397  222.8910 H   0  0  0  0  0  0  0  0  0  0  0  0
  143.3042   72.9621  218.3341 H   0  0  0  0  0  0  0  0  0  0  0  0
  144.6369   73.9663  219.0395 H   0  0  0  0  0  0  0  0  0  0  0  0
  145.4092   72.4055  217.3177 H   0  0  0  0  0  0  0  0  0  0  0  0
  146.1164   72.1114  218.9873 H   0  0  0  0  0  0  0  0  0  0  0  0
  1  2  1  0
  2  3  2  0
  2  4  1  0
  4  5  1  0
  5  6  1  0
  6  7  1  0
  7  8  1  0
  8  9  1  0
  9 10  2  0
 10 11  1  0
 11 12  1  0
 12 13  1  0
 13 14  1  0
 14 15  1  0
 15 16  1  0
 16 17  2  0
 17 18  1  0
 18 19  2  0
 19 20  1  0
 20 21  2  0
 15 22  1  0
 22 23  1  0
 11 24  2  0
 24 25  1  0
 25 26  1  0
 26 27  1  0
 27 28  1  0
 28 29  1  0
 29 30  2  0
 30 31  1  0
 31 32  2  0
 32 33  1  0
 33 34  2  0
 34 35  1  0
 25 36  2  0
  8 37  1  0
 37 38  1  0
 38  5  1  0
 36  9  1  0
 23 12  1  0
 35 26  1  0
 21 16  1  0
 34 29  1  0
  1 39  1  0
  1 40  1  0
  4 41  1  0
  4 42  1  0
  6 43  1  0
  6 44  1  0
  7 45  1  0
  7 46  1  0
  8 47  1  0
 13 48  1  0
 13 49  1  0
 14 50  1  0
 14 51  1  0
 17 52  1  0
 18 53  1  0
 19 54  1  0
 20 55  1  0
 21 56  1  0
 22 57  1  0
 22 58  1  0
 23 59  1  0
 23 60  1  0
 27 61  1  0
 27 62  1  0
 28 63  1  0
 28 64  1  0
 30 65  1  0
 31 66  1  0
 32 67  1  0
 33 68  1  0
 35 69  1  0
 35 70  1  0
 37 71  1  0
 37 72  1  0
 38 73  1  0
 38 74  1  0
M  END
>  <smiles>  (26) 
NC(=O)CN1CCC(c2nc(N3CCN(c4ccccc4)CC3)nc(N3CCc4ccccc4C3)n2)CC1

>  <score_type>  (26) 
oracle

>  <origin>  (26) 
autodockgpu

>  <m_score__min__energy>  (26) 
-9.5199999999999996

>  <m_primary>  (26) 
energy

>  <rmsd>  (26) 
5.416163957460546

>  <m_score__min__rmsd>  (26) 
5.416163957460546

>  <meeko>  (26) 
{"free_energy": -8.44, "intermolecular_energy": -10.23, "internal_energy": -1.42, "cluster_size": 11, "cluster_id": 3, "rank_in_cluster": 8}

>  <energy>  (26) 
-9.27

>  <cluster_rmsd>  (26) 
0.0

>  <cluster>  (26) 
2

$$$$

     RDKit          3D

 74 79  0  0  0  0  0  0  0  0999 V2000
  141.4010   66.9820  215.8200 N   0  0  0  0  0  0  0  0  0  0  0  0
  140.8530   68.0400  215.0370 C   0  0  0  0  0  0  0  0  0  0  0  0
  140.7500   67.9200  213.7870 O   0  0  0  0  0  0  0  0  0  0  0  0
  140.4240   69.2590  215.7690 C   0  0  0  0  0  0  0  0  0  0  0  0
  140.2770   69.0230  217.1860 N   0  0  0  0  0  0  0  0  0  0  0  0
  141.2530   69.7440  217.9550 C   0  0  0  0  0  0  0  0  0  0  0  0
  140.8370   71.1690  218.2350 C   0  0  0  0  0  0  0  0  0  0  0  0
  139.4780   71.2890  218.8680 C   0  0  0  0  0  0  0  0  0  0  0  0
  139.5940   71.9230  220.2010 C   0  0  0  0  0  0  0  0  0  0  0  0
  139.7060   73.2620  220.2430 N   0  0  0  0  0  0  0  0  0  0  0  0
  139.8120   73.8470  221.4490 C   0  0  0  0  0  0  0  0  0  0  0  0
  139.9340   75.2620  221.5250 N   0  0  0  0  0  0  0  0  0  0  0  0
  140.6700   76.0210  220.5290 C   0  0  0  0  0  0  0  0  0  0  0  0
  141.4350   77.1640  221.1770 C   0  0  0  0  0  0  0  0  0  0  0  0
  140.5640   77.9790  222.0080 N   0  0  0  0  0  0  0  0  0  0  0  0
  141.0880   79.1990  222.5170 C   0  0  0  0  0  0  0  0  0  0  0  0
  140.5810   80.4400  222.1890 C   0  0  0  0  0  0  0  0  0  0  0  0
  141.1280   81.6040  222.7170 C   0  0  0  0  0  0  0  0  0  0  0  0
  142.1900   81.5620  223.5840 C   0  0  0  0  0  0  0  0  0  0  0  0
  142.7090   80.3270  223.9220 C   0  0  0  0  0  0  0  0  0  0  0  0
  142.1620   79.1980  223.3980 C   0  0  0  0  0  0  0  0  0  0  0  0
  139.2390   77.4950  222.2540 C   0  0  0  0  0  0  0  0  0  0  0  0
  139.3270   76.0110  222.6020 C   0  0  0  0  0  0  0  0  0  0  0  0
  139.8080   73.1390  222.5920 N   0  0  0  0  0  0  0  0  0  0  0  0
  139.6950   71.7870  222.5720 C   0  0  0  0  0  0  0  0  0  0  0  0
  139.6870   71.0050  223.7610 N   0  0  0  0  0  0  0  0  0  0  0  0
  138.6290   70.0510  224.0460 C   0  0  0  0  0  0  0  0  0  0  0  0
  139.3260   68.8330  224.6680 C   0  0  0  0  0  0  0  0  0  0  0  0
  139.8480   69.3060  225.9790 C   0  0  0  0  0  0  0  0  0  0  0  0
  139.6120   68.5920  227.1360 C   0  0  0  0  0  0  0  0  0  0  0  0
  140.1180   69.0670  228.3490 C   0  0  0  0  0  0  0  0  0  0  0  0
  140.8430   70.2450  228.3520 C   0  0  0  0  0  0  0  0  0  0  0  0
  141.0660   70.9440  227.1760 C   0  0  0  0  0  0  0  0  0  0  0  0
  140.5710   70.4830  225.9690 C   0  0  0  0  0  0  0  0  0  0  0  0
  140.7840   71.1950  224.6910 C   0  0  0  0  0  0  0  0  0  0  0  0
  139.5910   71.2230  221.3550 N   0  0  0  0  0  0  0  0  0  0  0  0
  138.8050   69.9390  218.9330 C   0  0  0  0  0  0  0  0  0  0  0  0
  138.9350   69.1990  217.6430 C   0  0  0  0  0  0  0  0  0  0  0  0
  142.3820   66.6560  215.6490 H   0  0  0  0  0  0  0  0  0  0  0  0
  140.8200   66.5220  216.5720 H   0  0  0  0  0  0  0  0  0  0  0  0
  141.1772   70.0462  215.6176 H   0  0  0  0  0  0  0  0  0  0  0  0
  139.4428   69.5613  215.3742 H   0  0  0  0  0  0  0  0  0  0  0  0
  141.3990   69.2251  218.9138 H   0  0  0  0  0  0  0  0  0  0  0  0
  142.1813   69.7783  217.3658 H   0  0  0  0  0  0  0  0  0  0  0  0
  141.5768   71.6199  218.9128 H   0  0  0  0  0  0  0  0  0  0  0  0
  140.7865   71.6855  217.2651 H   0  0  0  0  0  0  0  0  0  0  0  0
  138.8413   71.9370  218.2477 H   0  0  0  0  0  0  0  0  0  0  0  0
  141.3814   75.3537  220.0204 H   0  0  0  0  0  0  0  0  0  0  0  0
  139.9546   76.4408  219.8065 H   0  0  0  0  0  0  0  0  0  0  0  0
  142.2395   76.7481  221.8014 H   0  0  0  0  0  0  0  0  0  0  0  0
  141.8493   77.7998  220.3807 H   0  0  0  0  0  0  0  0  0  0  0  0
  139.7286   80.5094  221.4972 H   0  0  0  0  0  0  0  0  0  0  0  0
  140.7009   82.5774  222.4340 H   0  0  0  0  0  0  0  0  0  0  0  0
  142.6171   82.4868  223.9991 H   0  0  0  0  0  0  0  0  0  0  0  0
  143.5621   80.2574  224.6129 H   0  0  0  0  0  0  0  0  0  0  0  0
  142.5943   78.2290  223.6881 H   0  0  0  0  0  0  0  0  0  0  0  0
  138.7910   78.0477  223.0929 H   0  0  0  0  0  0  0  0  0  0  0  0
  138.6117   77.6383  221.3618 H   0  0  0  0  0  0  0  0  0  0  0  0
  139.9342   75.8900  223.5112 H   0  0  0  0  0  0  0  0  0  0  0  0
  138.3088   75.6281  222.7651 H   0  0  0  0  0  0  0  0  0  0  0  0
  137.9046   70.4812  224.7532 H   0  0  0  0  0  0  0  0  0  0  0  0
  138.0707   69.7799  223.1378 H   0  0  0  0  0  0  0  0  0  0  0  0
  138.6093   68.0111  224.8125 H   0  0  0  0  0  0  0  0  0  0  0  0
  140.1284   68.4459  224.0227 H   0  0  0  0  0  0  0  0  0  0  0  0
  139.0314   67.6583  227.1039 H   0  0  0  0  0  0  0  0  0  0  0  0
  139.9430   68.5144  229.2839 H   0  0  0  0  0  0  0  0  0  0  0  0
  141.2475   70.6317  229.2990 H   0  0  0  0  0  0  0  0  0  0  0  0
  141.6450   71.8789  227.2027 H   0  0  0  0  0  0  0  0  0  0  0  0
  140.8882   72.2701  224.8990 H   0  0  0  0  0  0  0  0  0  0  0  0
  141.6921   70.7838  224.2260 H   0  0  0  0  0  0  0  0  0  0  0  0
  139.2709   69.3458  219.7337 H   0  0  0  0  0  0  0  0  0  0  0  0
  137.7350   70.0966  219.1336 H   0  0  0  0  0  0  0  0  0  0  0  0
  138.4843   68.2040  217.7724 H   0  0  0  0  0  0  0  0  0  0  0  0
  138.4266   69.8102  216.8828 H   0  0  0  0  0  0  0  0  0  0  0  0
  1  2  1  0
  2  3  2  0
  2  4  1  0
  4  5  1  0
  5  6  1  0
  6  7  1  0
  7  8  1  0
  8  9  1  0
  9 10  2  0
 10 11  1  0
 11 12  1  0
 12 13  1  0
 13 14  1  0
 14 15  1  0
 15 16  1  0
 16 17  2  0
 17 18  1  0
 18 19  2  0
 19 20  1  0
 20 21  2  0
 15 22  1  0
 22 23  1  0
 11 24  2  0
 24 25  1  0
 25 26  1  0
 26 27  1  0
 27 28  1  0
 28 29  1  0
 29 30  2  0
 30 31  1  0
 31 32  2  0
 32 33  1  0
 33 34  2  0
 34 35  1  0
 25 36  2  0
  8 37  1  0
 37 38  1  0
 38  5  1  0
 36  9  1  0
 23 12  1  0
 35 26  1  0
 21 16  1  0
 34 29  1  0
  1 39  1  0
  1 40  1  0
  4 41  1  0
  4 42  1  0
  6 43  1  0
  6 44  1  0
  7 45  1  0
  7 46  1  0
  8 47  1  0
 13 48  1  0
 13 49  1  0
 14 50  1  0
 14 51  1  0
 17 52  1  0
 18 53  1  0
 19 54  1  0
 20 55  1  0
 21 56  1  0
 22 57  1  0
 22 58  1  0
 23 59  1  0
 23 60  1  0
 27 61  1  0
 27 62  1  0
 28 63  1  0
 28 64  1  0
 30 65  1  0
 31 66  1  0
 32 67  1  0
 33 68  1  0
 35 69  1  0
 35 70  1  0
 37 71  1  0
 37 72  1  0
 38 73  1  0
 38 74  1  0
M  END
>  <smiles>  (27) 
NC(=O)CN1CCC(c2nc(N3CCN(c4ccccc4)CC3)nc(N3CCc4ccccc4C3)n2)CC1

>  <score_type>  (27) 
oracle

>  <origin>  (27) 
autodockgpu

>  <m_score__min__energy>  (27) 
-9.5199999999999996

>  <m_primary>  (27) 
energy

>  <rmsd>  (27) 
8.402715880131469

>  <m_score__min__rmsd>  (27) 
8.402715880131469

>  <meeko>  (27) 
{"free_energy": -8.21, "intermolecular_energy": -10.0, "internal_energy": -1.59, "cluster_size": 7, "cluster_id": 5, "rank_in_cluster": 2}

>  <energy>  (27) 
-9.23

>  <cluster_rmsd>  (27) 
0.53

>  <cluster>  (27) 
2

$$$$

     RDKit          3D

 74 79  0  0  0  0  0  0  0  0999 V2000
  146.2970   74.9430  215.9500 N   0  0  0  0  0  0  0  0  0  0  0  0
  146.4960   73.5670  216.2640 C   0  0  0  0  0  0  0  0  0  0  0  0
  147.5880   73.0010  215.9900 O   0  0  0  0  0  0  0  0  0  0  0  0
  145.3640   72.8610  216.9170 C   0  0  0  0  0  0  0  0  0  0  0  0
  145.2530   73.1870  218.3200 N   0  0  0  0  0  0  0  0  0  0  0  0
  144.1980   74.1290  218.5700 C   0  0  0  0  0  0  0  0  0  0  0  0
  142.8460   73.4700  218.7030 C   0  0  0  0  0  0  0  0  0  0  0  0
  142.8110   72.3620  219.7200 C   0  0  0  0  0  0  0  0  0  0  0  0
  141.8470   72.6900  220.7940 C   0  0  0  0  0  0  0  0  0  0  0  0
  141.3020   73.9180  220.7850 N   0  0  0  0  0  0  0  0  0  0  0  0
  140.4250   74.2250  221.7580 C   0  0  0  0  0  0  0  0  0  0  0  0
  139.8330   75.5180  221.7750 N   0  0  0  0  0  0  0  0  0  0  0  0
  140.5920   76.7110  221.4420 C   0  0  0  0  0  0  0  0  0  0  0  0
  140.1890   77.8760  222.3330 C   0  0  0  0  0  0  0  0  0  0  0  0
  138.7480   78.0740  222.3220 N   0  0  0  0  0  0  0  0  0  0  0  0
  138.2390   79.2470  222.9450 C   0  0  0  0  0  0  0  0  0  0  0  0
  139.0080   80.0900  223.7230 C   0  0  0  0  0  0  0  0  0  0  0  0
  138.4620   81.2260  224.3090 C   0  0  0  0  0  0  0  0  0  0  0  0
  137.1410   81.5520  224.1350 C   0  0  0  0  0  0  0  0  0  0  0  0
  136.3580   80.7180  223.3590 C   0  0  0  0  0  0  0  0  0  0  0  0
  136.9070   79.6110  222.7930 C   0  0  0  0  0  0  0  0  0  0  0  0
  137.9450   77.0750  221.6840 C   0  0  0  0  0  0  0  0  0  0  0  0
  138.4440   75.7030  222.1290 C   0  0  0  0  0  0  0  0  0  0  0  0
  140.0870   73.3490  222.7200 N   0  0  0  0  0  0  0  0  0  0  0  0
  140.6240   72.1030  222.7470 C   0  0  0  0  0  0  0  0  0  0  0  0
  140.2910   71.1500  223.7500 N   0  0  0  0  0  0  0  0  0  0  0  0
  139.0860   70.3410  223.6700 C   0  0  0  0  0  0  0  0  0  0  0  0
  139.4930   68.9440  224.1600 C   0  0  0  0  0  0  0  0  0  0  0  0
  139.8080   69.1110  225.6050 C   0  0  0  0  0  0  0  0  0  0  0  0
  139.2670   68.2650  226.5510 C   0  0  0  0  0  0  0  0  0  0  0  0
  139.5860   68.4520  227.8990 C   0  0  0  0  0  0  0  0  0  0  0  0
  140.4390   69.4850  228.2440 C   0  0  0  0  0  0  0  0  0  0  0  0
  140.9690   70.3210  227.2740 C   0  0  0  0  0  0  0  0  0  0  0  0
  140.6610   70.1450  225.9370 C   0  0  0  0  0  0  0  0  0  0  0  0
  141.2030   71.0120  224.8690 C   0  0  0  0  0  0  0  0  0  0  0  0
  141.4990   71.8190  221.7660 N   0  0  0  0  0  0  0  0  0  0  0  0
  144.1970   72.0940  220.2560 C   0  0  0  0  0  0  0  0  0  0  0  0
  145.2060   72.0300  219.1580 C   0  0  0  0  0  0  0  0  0  0  0  0
  146.3540   75.2680  214.9560 H   0  0  0  0  0  0  0  0  0  0  0  0
  146.0950   75.6390  216.7180 H   0  0  0  0  0  0  0  0  0  0  0  0
  144.4296   73.1471  216.4120 H   0  0  0  0  0  0  0  0  0  0  0  0
  145.5487   71.7797  216.8355 H   0  0  0  0  0  0  0  0  0  0  0  0
  144.4205   74.6666  219.5035 H   0  0  0  0  0  0  0  0  0  0  0  0
  144.1512   74.8110  217.7082 H   0  0  0  0  0  0  0  0  0  0  0  0
  142.1138   74.2359  218.9985 H   0  0  0  0  0  0  0  0  0  0  0  0
  142.6108   73.0189  217.7277 H   0  0  0  0  0  0  0  0  0  0  0  0
  142.4667   71.4345  219.2392 H   0  0  0  0  0  0  0  0  0  0  0  0
  141.6639   76.5061  221.5797 H   0  0  0  0  0  0  0  0  0  0  0  0
  140.3838   76.9798  220.3959 H   0  0  0  0  0  0  0  0  0  0  0  0
  140.5147   77.6691  223.3631 H   0  0  0  0  0  0  0  0  0  0  0  0
  140.6685   78.7889  221.9500 H   0  0  0  0  0  0  0  0  0  0  0  0
  140.0715   79.8583  223.8818 H   0  0  0  0  0  0  0  0  0  0  0  0
  139.1015   81.8761  224.9241 H   0  0  0  0  0  0  0  0  0  0  0  0
  136.7160   82.4534  224.6007 H   0  0  0  0  0  0  0  0  0  0  0  0
  135.2944   80.9495  223.2001 H   0  0  0  0  0  0  0  0  0  0  0  0
  136.2599   78.9667  222.1797 H   0  0  0  0  0  0  0  0  0  0  0  0
  136.8923   77.2009  221.9771 H   0  0  0  0  0  0  0  0  0  0  0  0
  138.0204   77.1694  220.5907 H   0  0  0  0  0  0  0  0  0  0  0  0
  138.3363   75.6175  223.2204 H   0  0  0  0  0  0  0  0  0  0  0  0
  137.8469   74.9310  221.6216 H   0  0  0  0  0  0  0  0  0  0  0  0
  138.2990   70.7597  224.3144 H   0  0  0  0  0  0  0  0  0  0  0  0
  138.6826   70.3119  222.6471 H   0  0  0  0  0  0  0  0  0  0  0  0
  138.6651   68.2323  224.0259 H   0  0  0  0  0  0  0  0  0  0  0  0
  140.3497   68.5454  223.5969 H   0  0  0  0  0  0  0  0  0  0  0  0
  138.5915   67.4516  226.2476 H   0  0  0  0  0  0  0  0  0  0  0  0
  139.1666   67.7901  228.6710 H   0  0  0  0  0  0  0  0  0  0  0  0
  140.6997   69.6447  229.3007 H   0  0  0  0  0  0  0  0  0  0  0  0
  141.6445   71.1365  227.5717 H   0  0  0  0  0  0  0  0  0  0  0  0
  141.3989   72.0094  225.2896 H   0  0  0  0  0  0  0  0  0  0  0  0
  142.1247   70.5435  224.4935 H   0  0  0  0  0  0  0  0  0  0  0  0
  144.4743   72.9017  220.9494 H   0  0  0  0  0  0  0  0  0  0  0  0
  144.1856   71.1220  220.7709 H   0  0  0  0  0  0  0  0  0  0  0  0
  146.1986   71.8960  219.6126 H   0  0  0  0  0  0  0  0  0  0  0  0
  144.9082   71.1911  218.5118 H   0  0  0  0  0  0  0  0  0  0  0  0
  1  2  1  0
  2  3  2  0
  2  4  1  0
  4  5  1  0
  5  6  1  0
  6  7  1  0
  7  8  1  0
  8  9  1  0
  9 10  2  0
 10 11  1  0
 11 12  1  0
 12 13  1  0
 13 14  1  0
 14 15  1  0
 15 16  1  0
 16 17  2  0
 17 18  1  0
 18 19  2  0
 19 20  1  0
 20 21  2  0
 15 22  1  0
 22 23  1  0
 11 24  2  0
 24 25  1  0
 25 26  1  0
 26 27  1  0
 27 28  1  0
 28 29  1  0
 29 30  2  0
 30 31  1  0
 31 32  2  0
 32 33  1  0
 33 34  2  0
 34 35  1  0
 25 36  2  0
  8 37  1  0
 37 38  1  0
 38  5  1  0
 36  9  1  0
 23 12  1  0
 35 26  1  0
 21 16  1  0
 34 29  1  0
  1 39  1  0
  1 40  1  0
  4 41  1  0
  4 42  1  0
  6 43  1  0
  6 44  1  0
  7 45  1  0
  7 46  1  0
  8 47  1  0
 13 48  1  0
 13 49  1  0
 14 50  1  0
 14 51  1  0
 17 52  1  0
 18 53  1  0
 19 54  1  0
 20 55  1  0
 21 56  1  0
 22 57  1  0
 22 58  1  0
 23 59  1  0
 23 60  1  0
 27 61  1  0
 27 62  1  0
 28 63  1  0
 28 64  1  0
 30 65  1  0
 31 66  1  0
 32 67  1  0
 33 68  1  0
 35 69  1  0
 35 70  1  0
 37 71  1  0
 37 72  1  0
 38 73  1  0
 38 74  1  0
M  END
>  <smiles>  (28) 
NC(=O)CN1CCC(c2nc(N3CCN(c4ccccc4)CC3)nc(N3CCc4ccccc4C3)n2)CC1

>  <score_type>  (28) 
oracle

>  <origin>  (28) 
autodockgpu

>  <m_score__min__energy>  (28) 
-9.5199999999999996

>  <m_primary>  (28) 
energy

>  <rmsd>  (28) 
8.453160806821993

>  <m_score__min__rmsd>  (28) 
8.453160806821993

>  <meeko>  (28) 
{"free_energy": -9.2, "intermolecular_energy": -10.99, "internal_energy": -1.41, "cluster_size": 25, "cluster_id": 1, "rank_in_cluster": 9}

>  <energy>  (28) 
-8.91

>  <cluster_rmsd>  (28) 
1.69

>  <cluster>  (28) 
2

$$$$

     RDKit          3D

 74 79  0  0  0  0  0  0  0  0999 V2000
  144.5300   72.7510  216.3240 N   0  0  0  0  0  0  0  0  0  0  0  0
  145.2950   72.2180  217.4010 C   0  0  0  0  0  0  0  0  0  0  0  0
  145.9460   72.9840  218.1610 O   0  0  0  0  0  0  0  0  0  0  0  0
  145.2800   70.7420  217.5660 C   0  0  0  0  0  0  0  0  0  0  0  0
  144.1570   70.2930  218.3550 N   0  0  0  0  0  0  0  0  0  0  0  0
  144.2890   70.6630  219.7360 C   0  0  0  0  0  0  0  0  0  0  0  0
  143.8120   72.0690  220.0120 C   0  0  0  0  0  0  0  0  0  0  0  0
  142.4130   72.3380  219.5290 C   0  0  0  0  0  0  0  0  0  0  0  0
  141.5420   72.6940  220.6710 C   0  0  0  0  0  0  0  0  0  0  0  0
  141.0290   73.9350  220.6980 N   0  0  0  0  0  0  0  0  0  0  0  0
  140.2360   74.2670  221.7320 C   0  0  0  0  0  0  0  0  0  0  0  0
  139.6800   75.5750  221.7880 N   0  0  0  0  0  0  0  0  0  0  0  0
  140.5010   76.7630  221.6270 C   0  0  0  0  0  0  0  0  0  0  0  0
  140.0370   77.8720  222.5590 C   0  0  0  0  0  0  0  0  0  0  0  0
  138.6120   78.1200  222.4160 N   0  0  0  0  0  0  0  0  0  0  0  0
  138.0710   79.2600  223.0710 C   0  0  0  0  0  0  0  0  0  0  0  0
  136.7230   79.5620  223.0820 C   0  0  0  0  0  0  0  0  0  0  0  0
  136.2440   80.6890  223.7410 C   0  0  0  0  0  0  0  0  0  0  0  0
  137.0910   81.5400  224.4040 C   0  0  0  0  0  0  0  0  0  0  0  0
  138.4420   81.2510  224.4030 C   0  0  0  0  0  0  0  0  0  0  0  0
  138.8950   80.1450  223.7540 C   0  0  0  0  0  0  0  0  0  0  0  0
  137.8530   77.1990  221.6230 C   0  0  0  0  0  0  0  0  0  0  0  0
  138.2660   75.7810  222.0110 C   0  0  0  0  0  0  0  0  0  0  0  0
  139.9500   73.4030  222.7220 N   0  0  0  0  0  0  0  0  0  0  0  0
  140.4560   72.1440  222.7140 C   0  0  0  0  0  0  0  0  0  0  0  0
  140.1760   71.2030  223.7440 N   0  0  0  0  0  0  0  0  0  0  0  0
  139.0030   70.3450  223.7020 C   0  0  0  0  0  0  0  0  0  0  0  0
  139.4720   68.9770  224.2180 C   0  0  0  0  0  0  0  0  0  0  0  0
  139.8020   69.1910  225.6530 C   0  0  0  0  0  0  0  0  0  0  0  0
  139.3090   68.3470  226.6270 C   0  0  0  0  0  0  0  0  0  0  0  0
  139.6400   68.5780  227.9650 C   0  0  0  0  0  0  0  0  0  0  0  0
  140.4570   69.6520  228.2720 C   0  0  0  0  0  0  0  0  0  0  0  0
  140.9390   70.4850  227.2750 C   0  0  0  0  0  0  0  0  0  0  0  0
  140.6180   70.2660  225.9470 C   0  0  0  0  0  0  0  0  0  0  0  0
  141.1090   71.1270  224.8510 C   0  0  0  0  0  0  0  0  0  0  0  0
  141.2470   71.8350  221.6710 N   0  0  0  0  0  0  0  0  0  0  0  0
  141.8860   71.1560  218.7530 C   0  0  0  0  0  0  0  0  0  0  0  0
  142.8970   70.6450  217.7800 C   0  0  0  0  0  0  0  0  0  0  0  0
  145.0000   73.3010  215.5660 H   0  0  0  0  0  0  0  0  0  0  0  0
  143.4850   72.5970  216.2870 H   0  0  0  0  0  0  0  0  0  0  0  0
  145.2238   70.2749  216.5717 H   0  0  0  0  0  0  0  0  0  0  0  0
  146.2008   70.4516  218.0931 H   0  0  0  0  0  0  0  0  0  0  0  0
  143.6966   69.9646  220.3454 H   0  0  0  0  0  0  0  0  0  0  0  0
  145.3583   70.6195  219.9903 H   0  0  0  0  0  0  0  0  0  0  0  0
  143.8433   72.2395  221.0982 H   0  0  0  0  0  0  0  0  0  0  0  0
  144.4788   72.7489  219.4614 H   0  0  0  0  0  0  0  0  0  0  0  0
  142.4223   73.1961  218.8409 H   0  0  0  0  0  0  0  0  0  0  0  0
  141.5469   76.5123  221.8578 H   0  0  0  0  0  0  0  0  0  0  0  0
  140.4112   77.1150  220.5887 H   0  0  0  0  0  0  0  0  0  0  0  0
  140.2471   77.5783  223.5980 H   0  0  0  0  0  0  0  0  0  0  0  0
  140.5778   78.7937  222.2983 H   0  0  0  0  0  0  0  0  0  0  0  0
  136.0164   78.8996  222.5605 H   0  0  0  0  0  0  0  0  0  0  0  0
  135.1649   80.9021  223.7303 H   0  0  0  0  0  0  0  0  0  0  0  0
  136.7047   82.4295  224.9231 H   0  0  0  0  0  0  0  0  0  0  0  0
  139.1486   81.9129  224.9251 H   0  0  0  0  0  0  0  0  0  0  0  0
  139.9756   79.9397  223.7710 H   0  0  0  0  0  0  0  0  0  0  0  0
  136.7791   77.3396  221.8150 H   0  0  0  0  0  0  0  0  0  0  0  0
  138.0448   77.3711  220.5536 H   0  0  0  0  0  0  0  0  0  0  0  0
  138.0423   75.6196  223.0758 H   0  0  0  0  0  0  0  0  0  0  0  0
  137.7050   75.0691  221.3878 H   0  0  0  0  0  0  0  0  0  0  0  0
  138.2096   70.7477  224.3488 H   0  0  0  0  0  0  0  0  0  0  0  0
  138.5863   70.2754  222.6863 H   0  0  0  0  0  0  0  0  0  0  0  0
  138.6707   68.2306  224.1140 H   0  0  0  0  0  0  0  0  0  0  0  0
  140.3350   68.5985  223.6507 H   0  0  0  0  0  0  0  0  0  0  0  0
  138.6619   67.5007  226.3530 H   0  0  0  0  0  0  0  0  0  0  0  0
  139.2585   67.9189  228.7588 H   0  0  0  0  0  0  0  0  0  0  0  0
  140.7271   69.8468  229.3204 H   0  0  0  0  0  0  0  0  0  0  0  0
  141.5864   71.3329  227.5433 H   0  0  0  0  0  0  0  0  0  0  0  0
  141.2721   72.1410  225.2451 H   0  0  0  0  0  0  0  0  0  0  0  0
  142.0423   70.6854  224.4717 H   0  0  0  0  0  0  0  0  0  0  0  0
  141.6297   70.3513  219.4578 H   0  0  0  0  0  0  0  0  0  0  0  0
  140.9987   71.4809  218.1899 H   0  0  0  0  0  0  0  0  0  0  0  0
  142.4814   69.7508  217.2925 H   0  0  0  0  0  0  0  0  0  0  0  0
  143.0958   71.4686  217.0785 H   0  0  0  0  0  0  0  0  0  0  0  0
  1  2  1  0
  2  3  2  0
  2  4  1  0
  4  5  1  0
  5  6  1  0
  6  7  1  0
  7  8  1  0
  8  9  1  0
  9 10  2  0
 10 11  1  0
 11 12  1  0
 12 13  1  0
 13 14  1  0
 14 15  1  0
 15 16  1  0
 16 17  2  0
 17 18  1  0
 18 19  2  0
 19 20  1  0
 20 21  2  0
 15 22  1  0
 22 23  1  0
 11 24  2  0
 24 25  1  0
 25 26  1  0
 26 27  1  0
 27 28  1  0
 28 29  1  0
 29 30  2  0
 30 31  1  0
 31 32  2  0
 32 33  1  0
 33 34  2  0
 34 35  1  0
 25 36  2  0
  8 37  1  0
 37 38  1  0
 38  5  1  0
 36  9  1  0
 23 12  1  0
 35 26  1  0
 21 16  1  0
 34 29  1  0
  1 39  1  0
  1 40  1  0
  4 41  1  0
  4 42  1  0
  6 43  1  0
  6 44  1  0
  7 45  1  0
  7 46  1  0
  8 47  1  0
 13 48  1  0
 13 49  1  0
 14 50  1  0
 14 51  1  0
 17 52  1  0
 18 53  1  0
 19 54  1  0
 20 55  1  0
 21 56  1  0
 22 57  1  0
 22 58  1  0
 23 59  1  0
 23 60  1  0
 27 61  1  0
 27 62  1  0
 28 63  1  0
 28 64  1  0
 30 65  1  0
 31 66  1  0
 32 67  1  0
 33 68  1  0
 35 69  1  0
 35 70  1  0
 37 71  1  0
 37 72  1  0
 38 73  1  0
 38 74  1  0
M  END
>  <smiles>  (29) 
NC(=O)CN1CCC(c2nc(N3CCN(c4ccccc4)CC3)nc(N3CCc4ccccc4C3)n2)CC1

>  <score_type>  (29) 
oracle

>  <origin>  (29) 
autodockgpu

>  <m_score__min__energy>  (29) 
-9.5199999999999996

>  <m_primary>  (29) 
energy

>  <rmsd>  (29) 
8.391869460020924

>  <m_score__min__rmsd>  (29) 
8.391869460020924

>  <meeko>  (29) 
{"free_energy": -8.57, "intermolecular_energy": -10.36, "internal_energy": -1.36, "cluster_size": 25, "cluster_id": 1, "rank_in_cluster": 24}

>  <energy>  (29) 
-8.51

>  <cluster_rmsd>  (29) 
1.98

>  <cluster>  (29) 
2

$$$$

     RDKit          3D

 74 79  0  0  0  0  0  0  0  0999 V2000
  146.4180   74.7650  215.8920 N   0  0  0  0  0  0  0  0  0  0  0  0
  146.6110   73.3700  216.1070 C   0  0  0  0  0  0  0  0  0  0  0  0
  147.5960   72.7760  215.5910 O   0  0  0  0  0  0  0  0  0  0  0  0
  145.6060   72.6780  216.9530 C   0  0  0  0  0  0  0  0  0  0  0  0
  145.3490   73.3860  218.1850 N   0  0  0  0  0  0  0  0  0  0  0  0
  144.0370   73.9720  218.2050 C   0  0  0  0  0  0  0  0  0  0  0  0
  142.9700   72.9970  218.6410 C   0  0  0  0  0  0  0  0  0  0  0  0
  143.2630   72.3260  219.9550 C   0  0  0  0  0  0  0  0  0  0  0  0
  142.2110   72.6580  220.9400 C   0  0  0  0  0  0  0  0  0  0  0  0
  141.6500   73.8770  220.8630 N   0  0  0  0  0  0  0  0  0  0  0  0
  140.6930   74.1880  221.7550 C   0  0  0  0  0  0  0  0  0  0  0  0
  140.0830   75.4720  221.6980 N   0  0  0  0  0  0  0  0  0  0  0  0
  140.8170   76.6490  221.2670 C   0  0  0  0  0  0  0  0  0  0  0  0
  140.4170   77.8660  222.0860 C   0  0  0  0  0  0  0  0  0  0  0  0
  138.9740   78.0450  222.0950 N   0  0  0  0  0  0  0  0  0  0  0  0
  138.4610   79.2510  222.6490 C   0  0  0  0  0  0  0  0  0  0  0  0
  138.8980   79.7830  223.8460 C   0  0  0  0  0  0  0  0  0  0  0  0
  138.3650   80.9670  224.3440 C   0  0  0  0  0  0  0  0  0  0  0  0
  137.3890   81.6500  223.6650 C   0  0  0  0  0  0  0  0  0  0  0  0
  136.9420   81.1290  222.4650 C   0  0  0  0  0  0  0  0  0  0  0  0
  137.4720   79.9710  221.9910 C   0  0  0  0  0  0  0  0  0  0  0  0
  138.1710   76.9950  221.5450 C   0  0  0  0  0  0  0  0  0  0  0  0
  138.6990   75.6620  222.0710 C   0  0  0  0  0  0  0  0  0  0  0  0
  140.2910   73.3250  222.7040 N   0  0  0  0  0  0  0  0  0  0  0  0
  140.8420   72.0890  222.8000 C   0  0  0  0  0  0  0  0  0  0  0  0
  140.4420   71.1500  223.7900 N   0  0  0  0  0  0  0  0  0  0  0  0
  139.1830   70.4300  223.7030 C   0  0  0  0  0  0  0  0  0  0  0  0
  139.4890   69.0010  224.1750 C   0  0  0  0  0  0  0  0  0  0  0  0
  139.8160   69.1270  225.6210 C   0  0  0  0  0  0  0  0  0  0  0  0
  139.2160   68.3100  226.5570 C   0  0  0  0  0  0  0  0  0  0  0  0
  139.5490   68.4570  227.9070 C   0  0  0  0  0  0  0  0  0  0  0  0
  140.4740   69.4220  228.2630 C   0  0  0  0  0  0  0  0  0  0  0  0
  141.0620   70.2300  227.3040 C   0  0  0  0  0  0  0  0  0  0  0  0
  140.7410   70.0940  225.9640 C   0  0  0  0  0  0  0  0  0  0  0  0
  141.3420   70.9330  224.9060 C   0  0  0  0  0  0  0  0  0  0  0  0
  141.7980   71.8000  221.8980 N   0  0  0  0  0  0  0  0  0  0  0  0
  144.6430   72.7000  220.4410 C   0  0  0  0  0  0  0  0  0  0  0  0
  145.6530   72.6100  219.3460 C   0  0  0  0  0  0  0  0  0  0  0  0
  146.2840   75.1340  214.9200 H   0  0  0  0  0  0  0  0  0  0  0  0
  146.4100   75.4320  216.7110 H   0  0  0  0  0  0  0  0  0  0  0  0
  144.6651   72.5953  216.3892 H   0  0  0  0  0  0  0  0  0  0  0  0
  146.0070   71.6867  217.2108 H   0  0  0  0  0  0  0  0  0  0  0  0
  144.0422   74.8229  218.9021 H   0  0  0  0  0  0  0  0  0  0  0  0
  143.7987   74.2883  217.1788 H   0  0  0  0  0  0  0  0  0  0  0  0
  142.0190   73.5419  218.7340 H   0  0  0  0  0  0  0  0  0  0  0  0
  142.9279   72.2052  217.8786 H   0  0  0  0  0  0  0  0  0  0  0  0
  143.2538   71.2345  219.8191 H   0  0  0  0  0  0  0  0  0  0  0  0
  141.8946   76.4680  221.3932 H   0  0  0  0  0  0  0  0  0  0  0  0
  140.5820   76.8431  220.2101 H   0  0  0  0  0  0  0  0  0  0  0  0
  140.7682   77.7334  223.1200 H   0  0  0  0  0  0  0  0  0  0  0  0
  140.8748   78.7567  221.6310 H   0  0  0  0  0  0  0  0  0  0  0  0
  139.6812   79.2612  224.4155 H   0  0  0  0  0  0  0  0  0  0  0  0
  138.7337   81.3634  225.3015 H   0  0  0  0  0  0  0  0  0  0  0  0
  136.9731   82.5868  224.0642 H   0  0  0  0  0  0  0  0  0  0  0  0
  136.1590   81.6507  221.8951 H   0  0  0  0  0  0  0  0  0  0  0  0
  137.0969   79.5821  221.0328 H   0  0  0  0  0  0  0  0  0  0  0  0
  137.1234   77.1277  221.8529 H   0  0  0  0  0  0  0  0  0  0  0  0
  138.2209   77.0155  220.4463 H   0  0  0  0  0  0  0  0  0  0  0  0
  138.6166   75.6495  223.1678 H   0  0  0  0  0  0  0  0  0  0  0  0
  138.1018   74.8494  221.6317 H   0  0  0  0  0  0  0  0  0  0  0  0
  138.4288   70.8959  224.3542 H   0  0  0  0  0  0  0  0  0  0  0  0
  138.7778   70.4421  222.6804 H   0  0  0  0  0  0  0  0  0  0  0  0
  138.6120   68.3523  224.0334 H   0  0  0  0  0  0  0  0  0  0  0  0
  140.3145   68.5489  223.6056 H   0  0  0  0  0  0  0  0  0  0  0  0
  138.4835   67.5511  226.2445 H   0  0  0  0  0  0  0  0  0  0  0  0
  139.0841   67.8173  228.6716 H   0  0  0  0  0  0  0  0  0  0  0  0
  140.7460   69.5492  229.3212 H   0  0  0  0  0  0  0  0  0  0  0  0
  141.7946   70.9908  227.6114 H   0  0  0  0  0  0  0  0  0  0  0  0
  141.6089   71.9085  225.3386 H   0  0  0  0  0  0  0  0  0  0  0  0
  142.2272   70.4041  224.5231 H   0  0  0  0  0  0  0  0  0  0  0  0
  144.6201   73.7317  220.8219 H   0  0  0  0  0  0  0  0  0  0  0  0
  144.9316   71.9951  221.2346 H   0  0  0  0  0  0  0  0  0  0  0  0
  146.6198   72.9528  219.7432 H   0  0  0  0  0  0  0  0  0  0  0  0
  145.6651   71.5590  219.0215 H   0  0  0  0  0  0  0  0  0  0  0  0
  1  2  1  0
  2  3  2  0
  2  4  1  0
  4  5  1  0
  5  6  1  0
  6  7  1  0
  7  8  1  0
  8  9  1  0
  9 10  2  0
 10 11  1  0
 11 12  1  0
 12 13  1  0
 13 14  1  0
 14 15  1  0
 15 16  1  0
 16 17  2  0
 17 18  1  0
 18 19  2  0
 19 20  1  0
 20 21  2  0
 15 22  1  0
 22 23  1  0
 11 24  2  0
 24 25  1  0
 25 26  1  0
 26 27  1  0
 27 28  1  0
 28 29  1  0
 29 30  2  0
 30 31  1  0
 31 32  2  0
 32 33  1  0
 33 34  2  0
 34 35  1  0
 25 36  2  0
  8 37  1  0
 37 38  1  0
 38  5  1  0
 36  9  1  0
 23 12  1  0
 35 26  1  0
 21 16  1  0
 34 29  1  0
  1 39  1  0
  1 40  1  0
  4 41  1  0
  4 42  1  0
  6 43  1  0
  6 44  1  0
  7 45  1  0
  7 46  1  0
  8 47  1  0
 13 48  1  0
 13 49  1  0
 14 50  1  0
 14 51  1  0
 17 52  1  0
 18 53  1  0
 19 54  1  0
 20 55  1  0
 21 56  1  0
 22 57  1  0
 22 58  1  0
 23 59  1  0
 23 60  1  0
 27 61  1  0
 27 62  1  0
 28 63  1  0
 28 64  1  0
 30 65  1  0
 31 66  1  0
 32 67  1  0
 33 68  1  0
 35 69  1  0
 35 70  1  0
 37 71  1  0
 37 72  1  0
 38 73  1  0
 38 74  1  0
M  END
>  <smiles>  (30) 
NC(=O)CN1CCC(c2nc(N3CCN(c4ccccc4)CC3)nc(N3CCc4ccccc4C3)n2)CC1

>  <score_type>  (30) 
oracle

>  <origin>  (30) 
autodockgpu

>  <m_score__min__energy>  (30) 
-9.5199999999999996

>  <m_primary>  (30) 
energy

>  <rmsd>  (30) 
8.4906525267306

>  <m_score__min__rmsd>  (30) 
8.4906525267306

>  <meeko>  (30) 
{"free_energy": -8.93, "intermolecular_energy": -10.72, "internal_energy": -1.51, "cluster_size": 25, "cluster_id": 1, "rank_in_cluster": 13}

>  <energy>  (30) 
-8.48

>  <cluster_rmsd>  (30) 
1.12

>  <cluster>  (30) 
2

$$$$

     RDKit          3D

 74 79  0  0  0  0  0  0  0  0999 V2000
  146.5520   73.9500  216.7560 N   0  0  0  0  0  0  0  0  0  0  0  0
  145.6360   72.9600  217.2170 C   0  0  0  0  0  0  0  0  0  0  0  0
  145.9090   72.2600  218.2280 O   0  0  0  0  0  0  0  0  0  0  0  0
  144.3730   72.8100  216.4500 C   0  0  0  0  0  0  0  0  0  0  0  0
  143.3180   73.6510  216.9640 N   0  0  0  0  0  0  0  0  0  0  0  0
  142.1930   72.8840  217.4200 C   0  0  0  0  0  0  0  0  0  0  0  0
  142.3650   72.3790  218.8330 C   0  0  0  0  0  0  0  0  0  0  0  0
  142.6970   73.4600  219.8250 C   0  0  0  0  0  0  0  0  0  0  0  0
  141.6380   73.5480  220.8550 C   0  0  0  0  0  0  0  0  0  0  0  0
  140.9660   74.7070  220.9580 N   0  0  0  0  0  0  0  0  0  0  0  0
  140.0030   74.7950  221.8910 C   0  0  0  0  0  0  0  0  0  0  0  0
  139.2760   76.0100  222.0250 N   0  0  0  0  0  0  0  0  0  0  0  0
  139.8560   77.2920  221.6660 C   0  0  0  0  0  0  0  0  0  0  0  0
  139.4240   78.3750  222.6420 C   0  0  0  0  0  0  0  0  0  0  0  0
  137.9780   78.4070  222.7890 N   0  0  0  0  0  0  0  0  0  0  0  0
  137.4110   79.4930  223.5110 C   0  0  0  0  0  0  0  0  0  0  0  0
  136.0550   79.7480  223.5590 C   0  0  0  0  0  0  0  0  0  0  0  0
  135.5500   80.8230  224.2820 C   0  0  0  0  0  0  0  0  0  0  0  0
  136.3790   81.6680  224.9740 C   0  0  0  0  0  0  0  0  0  0  0  0
  137.7390   81.4250  224.9360 C   0  0  0  0  0  0  0  0  0  0  0  0
  138.2170   80.3700  224.2250 C   0  0  0  0  0  0  0  0  0  0  0  0
  137.2270   77.3420  222.1950 C   0  0  0  0  0  0  0  0  0  0  0  0
  137.9200   76.0220  222.5280 C   0  0  0  0  0  0  0  0  0  0  0  0
  139.7000   73.7700  222.7090 N   0  0  0  0  0  0  0  0  0  0  0  0
  140.3650   72.5910  222.6210 C   0  0  0  0  0  0  0  0  0  0  0  0
  140.0730   71.4860  223.4680 N   0  0  0  0  0  0  0  0  0  0  0  0
  138.8390   70.7290  223.3450 C   0  0  0  0  0  0  0  0  0  0  0  0
  139.2310   69.2590  223.5550 C   0  0  0  0  0  0  0  0  0  0  0  0
  139.6570   69.1670  224.9780 C   0  0  0  0  0  0  0  0  0  0  0  0
  139.1580   68.1810  225.8050 C   0  0  0  0  0  0  0  0  0  0  0  0
  139.5810   68.1240  227.1360 C   0  0  0  0  0  0  0  0  0  0  0  0
  140.4930   69.0640  227.5850 C   0  0  0  0  0  0  0  0  0  0  0  0
  140.9790   70.0430  226.7340 C   0  0  0  0  0  0  0  0  0  0  0  0
  140.5680   70.1090  225.4140 C   0  0  0  0  0  0  0  0  0  0  0  0
  141.0600   71.1360  224.4710 C   0  0  0  0  0  0  0  0  0  0  0  0
  141.3250   72.5260  221.6810 N   0  0  0  0  0  0  0  0  0  0  0  0
  142.9180   74.7750  219.1170 C   0  0  0  0  0  0  0  0  0  0  0  0
  143.7860   74.6110  217.9130 C   0  0  0  0  0  0  0  0  0  0  0  0
  147.5160   73.6730  216.4530 H   0  0  0  0  0  0  0  0  0  0  0  0
  146.2630   74.9650  216.7210 H   0  0  0  0  0  0  0  0  0  0  0  0
  144.5619   73.0806  215.4007 H   0  0  0  0  0  0  0  0  0  0  0  0
  144.0451   71.7640  216.5417 H   0  0  0  0  0  0  0  0  0  0  0  0
  141.2953   73.5184  217.3800 H   0  0  0  0  0  0  0  0  0  0  0  0
  142.1012   72.0067  216.7629 H   0  0  0  0  0  0  0  0  0  0  0  0
  141.4273   71.8965  219.1459 H   0  0  0  0  0  0  0  0  0  0  0  0
  143.2139   71.6796  218.8234 H   0  0  0  0  0  0  0  0  0  0  0  0
  143.6363   73.2081  220.3392 H   0  0  0  0  0  0  0  0  0  0  0  0
  140.9527   77.2086  221.6828 H   0  0  0  0  0  0  0  0  0  0  0  0
  139.5071   77.5663  220.6595 H   0  0  0  0  0  0  0  0  0  0  0  0
  139.8796   78.1757  223.6232 H   0  0  0  0  0  0  0  0  0  0  0  0
  139.7548   79.3480  222.2498 H   0  0  0  0  0  0  0  0  0  0  0  0
  135.3618   79.0890  223.0156 H   0  0  0  0  0  0  0  0  0  0  0  0
  134.4643   80.9990  224.2992 H   0  0  0  0  0  0  0  0  0  0  0  0
  135.9725   82.5164  225.5440 H   0  0  0  0  0  0  0  0  0  0  0  0
  138.4325   82.0835  225.4796 H   0  0  0  0  0  0  0  0  0  0  0  0
  139.3039   80.2012  224.2145 H   0  0  0  0  0  0  0  0  0  0  0  0
  136.2042   77.3375  222.5997 H   0  0  0  0  0  0  0  0  0  0  0  0
  137.1745   77.4778  221.1047 H   0  0  0  0  0  0  0  0  0  0  0  0
  137.9397   75.8910  223.6200 H   0  0  0  0  0  0  0  0  0  0  0  0
  137.3615   75.2021  222.0528 H   0  0  0  0  0  0  0  0  0  0  0  0
  138.1162   71.0465  224.1111 H   0  0  0  0  0  0  0  0  0  0  0  0
  138.3619   70.8863  222.3664 H   0  0  0  0  0  0  0  0  0  0  0  0
  138.3707   68.5999  223.3667 H   0  0  0  0  0  0  0  0  0  0  0  0
  140.0289   68.9444  222.8663 H   0  0  0  0  0  0  0  0  0  0  0  0
  138.4345   67.4472  225.4203 H   0  0  0  0  0  0  0  0  0  0  0  0
  139.1967   67.3474  227.8136 H   0  0  0  0  0  0  0  0  0  0  0  0
  140.8357   69.0330  228.6298 H   0  0  0  0  0  0  0  0  0  0  0  0
  141.7028   70.7794  227.1132 H   0  0  0  0  0  0  0  0  0  0  0  0
  141.3217   72.0407  225.0394 H   0  0  0  0  0  0  0  0  0  0  0  0
  141.9343   70.7198  223.9492 H   0  0  0  0  0  0  0  0  0  0  0  0
  141.9445   75.1796  218.8030 H   0  0  0  0  0  0  0  0  0  0  0  0
  143.4217   75.4610  219.8139 H   0  0  0  0  0  0  0  0  0  0  0  0
  143.8577   75.5853  217.4074 H   0  0  0  0  0  0  0  0  0  0  0  0
  144.7549   74.2393  218.2777 H   0  0  0  0  0  0  0  0  0  0  0  0
  1  2  1  0
  2  3  2  0
  2  4  1  0
  4  5  1  0
  5  6  1  0
  6  7  1  0
  7  8  1  0
  8  9  1  0
  9 10  2  0
 10 11  1  0
 11 12  1  0
 12 13  1  0
 13 14  1  0
 14 15  1  0
 15 16  1  0
 16 17  2  0
 17 18  1  0
 18 19  2  0
 19 20  1  0
 20 21  2  0
 15 22  1  0
 22 23  1  0
 11 24  2  0
 24 25  1  0
 25 26  1  0
 26 27  1  0
 27 28  1  0
 28 29  1  0
 29 30  2  0
 30 31  1  0
 31 32  2  0
 32 33  1  0
 33 34  2  0
 34 35  1  0
 25 36  2  0
  8 37  1  0
 37 38  1  0
 38  5  1  0
 36  9  1  0
 23 12  1  0
 35 26  1  0
 21 16  1  0
 34 29  1  0
  1 39  1  0
  1 40  1  0
  4 41  1  0
  4 42  1  0
  6 43  1  0
  6 44  1  0
  7 45  1  0
  7 46  1  0
  8 47  1  0
 13 48  1  0
 13 49  1  0
 14 50  1  0
 14 51  1  0
 17 52  1  0
 18 53  1  0
 19 54  1  0
 20 55  1  0
 21 56  1  0
 22 57  1  0
 22 58  1  0
 23 59  1  0
 23 60  1  0
 27 61  1  0
 27 62  1  0
 28 63  1  0
 28 64  1  0
 30 65  1  0
 31 66  1  0
 32 67  1  0
 33 68  1  0
 35 69  1  0
 35 70  1  0
 37 71  1  0
 37 72  1  0
 38 73  1  0
 38 74  1  0
M  END
>  <smiles>  (31) 
NC(=O)CN1CCC(c2nc(N3CCN(c4ccccc4)CC3)nc(N3CCc4ccccc4C3)n2)CC1

>  <score_type>  (31) 
oracle

>  <origin>  (31) 
autodockgpu

>  <m_score__min__energy>  (31) 
-9.5199999999999996

>  <m_primary>  (31) 
energy

>  <rmsd>  (31) 
8.637502688708382

>  <m_score__min__rmsd>  (31) 
8.637502688708382

>  <meeko>  (31) 
{"free_energy": -8.72, "intermolecular_energy": -10.51, "internal_energy": -1.51, "cluster_size": 25, "cluster_id": 1, "rank_in_cluster": 21}

>  <energy>  (31) 
-8.94

>  <cluster_rmsd>  (31) 
0.0

>  <cluster>  (31) 
3

$$$$

     RDKit          3D

 74 79  0  0  0  0  0  0  0  0999 V2000
  145.6710   74.8780  216.2860 N   0  0  0  0  0  0  0  0  0  0  0  0
  146.3710   73.6550  216.5020 C   0  0  0  0  0  0  0  0  0  0  0  0
  147.5920   73.5580  216.2030 O   0  0  0  0  0  0  0  0  0  0  0  0
  145.5930   72.5330  217.0860 C   0  0  0  0  0  0  0  0  0  0  0  0
  145.4620   72.6480  218.5200 N   0  0  0  0  0  0  0  0  0  0  0  0
  144.6470   73.7690  218.8980 C   0  0  0  0  0  0  0  0  0  0  0  0
  143.1710   73.4510  218.8730 C   0  0  0  0  0  0  0  0  0  0  0  0
  142.8000   72.2380  219.6820 C   0  0  0  0  0  0  0  0  0  0  0  0
  141.8680   72.6170  220.7670 C   0  0  0  0  0  0  0  0  0  0  0  0
  141.3590   73.8600  220.7420 N   0  0  0  0  0  0  0  0  0  0  0  0
  140.5110   74.2140  221.7240 C   0  0  0  0  0  0  0  0  0  0  0  0
  139.9580   75.5240  221.7250 N   0  0  0  0  0  0  0  0  0  0  0  0
  140.7890   76.7060  221.5710 C   0  0  0  0  0  0  0  0  0  0  0  0
  140.2900   77.8370  222.4550 C   0  0  0  0  0  0  0  0  0  0  0  0
  138.8730   78.0860  222.2440 N   0  0  0  0  0  0  0  0  0  0  0  0
  138.3080   79.2430  222.8490 C   0  0  0  0  0  0  0  0  0  0  0  0
  137.1350   79.8300  222.4170 C   0  0  0  0  0  0  0  0  0  0  0  0
  136.6230   80.9600  223.0450 C   0  0  0  0  0  0  0  0  0  0  0  0
  137.2620   81.5320  224.1140 C   0  0  0  0  0  0  0  0  0  0  0  0
  138.4380   80.9560  224.5580 C   0  0  0  0  0  0  0  0  0  0  0  0
  138.9260   79.8510  223.9340 C   0  0  0  0  0  0  0  0  0  0  0  0
  138.1470   77.1490  221.4420 C   0  0  0  0  0  0  0  0  0  0  0  0
  138.5370   75.7390  221.8800 C   0  0  0  0  0  0  0  0  0  0  0  0
  140.1670   73.3690  222.7120 N   0  0  0  0  0  0  0  0  0  0  0  0
  140.6670   72.1090  222.7550 C   0  0  0  0  0  0  0  0  0  0  0  0
  140.3250   71.1880  223.7840 N   0  0  0  0  0  0  0  0  0  0  0  0
  139.1200   70.3790  223.7230 C   0  0  0  0  0  0  0  0  0  0  0  0
  139.5200   68.9960  224.2570 C   0  0  0  0  0  0  0  0  0  0  0  0
  139.8270   69.2070  225.6980 C   0  0  0  0  0  0  0  0  0  0  0  0
  139.2790   68.3910  226.6660 C   0  0  0  0  0  0  0  0  0  0  0  0
  139.5900   68.6190  228.0100 C   0  0  0  0  0  0  0  0  0  0  0  0
  140.4440   69.6600  228.3280 C   0  0  0  0  0  0  0  0  0  0  0  0
  140.9820   70.4640  227.3370 C   0  0  0  0  0  0  0  0  0  0  0  0
  140.6810   70.2490  226.0030 C   0  0  0  0  0  0  0  0  0  0  0  0
  141.2310   71.0810  224.9120 C   0  0  0  0  0  0  0  0  0  0  0  0
  141.5140   71.7780  221.7630 N   0  0  0  0  0  0  0  0  0  0  0  0
  144.0400   71.5530  220.2050 C   0  0  0  0  0  0  0  0  0  0  0  0
  145.0810   71.4190  219.1430 C   0  0  0  0  0  0  0  0  0  0  0  0
  145.5890   75.2720  215.3190 H   0  0  0  0  0  0  0  0  0  0  0  0
  145.2350   75.3910  217.1000 H   0  0  0  0  0  0  0  0  0  0  0  0
  144.5885   72.5274  216.6378 H   0  0  0  0  0  0  0  0  0  0  0  0
  146.1329   71.5993  216.8700 H   0  0  0  0  0  0  0  0  0  0  0  0
  144.9234   74.0773  219.9171 H   0  0  0  0  0  0  0  0  0  0  0  0
  144.8264   74.5716  218.1675 H   0  0  0  0  0  0  0  0  0  0  0  0
  142.6225   74.3164  219.2732 H   0  0  0  0  0  0  0  0  0  0  0  0
  142.9067   73.2334  217.8276 H   0  0  0  0  0  0  0  0  0  0  0  0
  142.2794   71.5142  219.0377 H   0  0  0  0  0  0  0  0  0  0  0  0
  141.8233   76.4585  221.8520 H   0  0  0  0  0  0  0  0  0  0  0  0
  140.7445   77.0334  220.5218 H   0  0  0  0  0  0  0  0  0  0  0  0
  140.4535   77.5671  223.5088 H   0  0  0  0  0  0  0  0  0  0  0  0
  140.8455   78.7507  222.1969 H   0  0  0  0  0  0  0  0  0  0  0  0
  136.5965   79.3962  221.5615 H   0  0  0  0  0  0  0  0  0  0  0  0
  135.6864   81.4037  222.6764 H   0  0  0  0  0  0  0  0  0  0  0  0
  136.8502   82.4256  224.6058 H   0  0  0  0  0  0  0  0  0  0  0  0
  138.9768   81.3902  225.4130 H   0  0  0  0  0  0  0  0  0  0  0  0
  139.8630   79.4140  224.3096 H   0  0  0  0  0  0  0  0  0  0  0  0
  137.0663   77.2969  221.5839 H   0  0  0  0  0  0  0  0  0  0  0  0
  138.3865   77.2952  220.3784 H   0  0  0  0  0  0  0  0  0  0  0  0
  138.2655   75.6025  222.9372 H   0  0  0  0  0  0  0  0  0  0  0  0
  138.0016   75.0147  221.2486 H   0  0  0  0  0  0  0  0  0  0  0  0
  138.3307   70.8187  224.3505 H   0  0  0  0  0  0  0  0  0  0  0  0
  138.7227   70.3193  222.6990 H   0  0  0  0  0  0  0  0  0  0  0  0
  138.6908   68.2828  224.1398 H   0  0  0  0  0  0  0  0  0  0  0  0
  140.3784   68.5774  223.7111 H   0  0  0  0  0  0  0  0  0  0  0  0
  138.6043   67.5694  226.3834 H   0  0  0  0  0  0  0  0  0  0  0  0
  139.1637   67.9827  228.7996 H   0  0  0  0  0  0  0  0  0  0  0  0
  140.6988   69.8514  229.3808 H   0  0  0  0  0  0  0  0  0  0  0  0
  141.6587   71.2858  227.6140 H   0  0  0  0  0  0  0  0  0  0  0  0
  141.4282   72.0901  225.3030 H   0  0  0  0  0  0  0  0  0  0  0  0
  142.1528   70.5980  224.5556 H   0  0  0  0  0  0  0  0  0  0  0  0
  144.4515   72.1446  221.0361 H   0  0  0  0  0  0  0  0  0  0  0  0
  143.7602   70.5443  220.5429 H   0  0  0  0  0  0  0  0  0  0  0  0
  145.9780   70.9728  219.5972 H   0  0  0  0  0  0  0  0  0  0  0  0
  144.6391   70.7945  218.3526 H   0  0  0  0  0  0  0  0  0  0  0  0
  1  2  1  0
  2  3  2  0
  2  4  1  0
  4  5  1  0
  5  6  1  0
  6  7  1  0
  7  8  1  0
  8  9  1  0
  9 10  2  0
 10 11  1  0
 11 12  1  0
 12 13  1  0
 13 14  1  0
 14 15  1  0
 15 16  1  0
 16 17  2  0
 17 18  1  0
 18 19  2  0
 19 20  1  0
 20 21  2  0
 15 22  1  0
 22 23  1  0
 11 24  2  0
 24 25  1  0
 25 26  1  0
 26 27  1  0
 27 28  1  0
 28 29  1  0
 29 30  2  0
 30 31  1  0
 31 32  2  0
 32 33  1  0
 33 34  2  0
 34 35  1  0
 25 36  2  0
  8 37  1  0
 37 38  1  0
 38  5  1  0
 36  9  1  0
 23 12  1  0
 35 26  1  0
 21 16  1  0
 34 29  1  0
  1 39  1  0
  1 40  1  0
  4 41  1  0
  4 42  1  0
  6 43  1  0
  6 44  1  0
  7 45  1  0
  7 46  1  0
  8 47  1  0
 13 48  1  0
 13 49  1  0
 14 50  1  0
 14 51  1  0
 17 52  1  0
 18 53  1  0
 19 54  1  0
 20 55  1  0
 21 56  1  0
 22 57  1  0
 22 58  1  0
 23 59  1  0
 23 60  1  0
 27 61  1  0
 27 62  1  0
 28 63  1  0
 28 64  1  0
 30 65  1  0
 31 66  1  0
 32 67  1  0
 33 68  1  0
 35 69  1  0
 35 70  1  0
 37 71  1  0
 37 72  1  0
 38 73  1  0
 38 74  1  0
M  END
>  <smiles>  (32) 
NC(=O)CN1CCC(c2nc(N3CCN(c4ccccc4)CC3)nc(N3CCc4ccccc4C3)n2)CC1

>  <score_type>  (32) 
oracle

>  <origin>  (32) 
autodockgpu

>  <m_score__min__energy>  (32) 
-9.5199999999999996

>  <m_primary>  (32) 
energy

>  <rmsd>  (32) 
8.31753278850919

>  <m_score__min__rmsd>  (32) 
8.31753278850919

>  <meeko>  (32) 
{"free_energy": -9.52, "intermolecular_energy": -11.31, "internal_energy": -1.37, "cluster_size": 25, "cluster_id": 1, "rank_in_cluster": 1}

>  <energy>  (32) 
-8.92

>  <cluster_rmsd>  (32) 
0.08

>  <cluster>  (32) 
3

$$$$

     RDKit          3D

 74 79  0  0  0  0  0  0  0  0999 V2000
  138.6550   68.7330  214.8680 N   0  0  0  0  0  0  0  0  0  0  0  0
  138.7900   70.0680  215.3480 C   0  0  0  0  0  0  0  0  0  0  0  0
  137.8210   70.6430  215.9130 O   0  0  0  0  0  0  0  0  0  0  0  0
  140.1080   70.7210  215.1440 C   0  0  0  0  0  0  0  0  0  0  0  0
  140.8940   70.7530  216.3550 N   0  0  0  0  0  0  0  0  0  0  0  0
  140.9560   72.0720  216.9220 C   0  0  0  0  0  0  0  0  0  0  0  0
  139.7620   72.3910  217.7880 C   0  0  0  0  0  0  0  0  0  0  0  0
  139.5060   71.3710  218.8640 C   0  0  0  0  0  0  0  0  0  0  0  0
  139.6130   72.0030  220.1980 C   0  0  0  0  0  0  0  0  0  0  0  0
  139.7250   73.3410  220.2440 N   0  0  0  0  0  0  0  0  0  0  0  0
  139.8240   73.9240  221.4520 C   0  0  0  0  0  0  0  0  0  0  0  0
  139.9460   75.3380  221.5320 N   0  0  0  0  0  0  0  0  0  0  0  0
  140.6850   76.1000  220.5400 C   0  0  0  0  0  0  0  0  0  0  0  0
  141.4480   77.2420  221.1920 C   0  0  0  0  0  0  0  0  0  0  0  0
  140.5750   78.0540  222.0240 N   0  0  0  0  0  0  0  0  0  0  0  0
  141.0970   79.2730  222.5380 C   0  0  0  0  0  0  0  0  0  0  0  0
  140.5670   80.5120  222.2400 C   0  0  0  0  0  0  0  0  0  0  0  0
  141.1140   81.6750  222.7710 C   0  0  0  0  0  0  0  0  0  0  0  0
  142.1990   81.6340  223.6100 C   0  0  0  0  0  0  0  0  0  0  0  0
  142.7410   80.3990  223.9170 C   0  0  0  0  0  0  0  0  0  0  0  0
  142.1940   79.2720  223.3900 C   0  0  0  0  0  0  0  0  0  0  0  0
  139.2490   77.5700  222.2650 C   0  0  0  0  0  0  0  0  0  0  0  0
  139.3370   76.0850  222.6100 C   0  0  0  0  0  0  0  0  0  0  0  0
  139.8140   73.2130  222.5930 N   0  0  0  0  0  0  0  0  0  0  0  0
  139.7000   71.8610  222.5700 C   0  0  0  0  0  0  0  0  0  0  0  0
  139.6850   71.0770  223.7570 N   0  0  0  0  0  0  0  0  0  0  0  0
  138.6200   70.1300  224.0390 C   0  0  0  0  0  0  0  0  0  0  0  0
  139.3070   68.9050  224.6590 C   0  0  0  0  0  0  0  0  0  0  0  0
  139.8310   69.3710  225.9710 C   0  0  0  0  0  0  0  0  0  0  0  0
  139.5890   68.6560  227.1260 C   0  0  0  0  0  0  0  0  0  0  0  0
  140.0980   69.1240  228.3410 C   0  0  0  0  0  0  0  0  0  0  0  0
  140.8320   70.2970  228.3470 C   0  0  0  0  0  0  0  0  0  0  0  0
  141.0620   70.9960  227.1730 C   0  0  0  0  0  0  0  0  0  0  0  0
  140.5630   70.5420  225.9640 C   0  0  0  0  0  0  0  0  0  0  0  0
  140.7830   71.2550  224.6880 C   0  0  0  0  0  0  0  0  0  0  0  0
  139.6030   71.3000  221.3510 N   0  0  0  0  0  0  0  0  0  0  0  0
  140.4400   70.1950  218.7100 C   0  0  0  0  0  0  0  0  0  0  0  0
  140.5170   69.7400  217.2900 C   0  0  0  0  0  0  0  0  0  0  0  0
  137.9390   68.5060  214.1370 H   0  0  0  0  0  0  0  0  0  0  0  0
  139.2750   67.9670  215.2490 H   0  0  0  0  0  0  0  0  0  0  0  0
  140.6640   70.1642  214.3754 H   0  0  0  0  0  0  0  0  0  0  0  0
  139.9255   71.7600  214.8322 H   0  0  0  0  0  0  0  0  0  0  0  0
  141.8660   72.1489  217.5352 H   0  0  0  0  0  0  0  0  0  0  0  0
  140.9640   72.7911  216.0897 H   0  0  0  0  0  0  0  0  0  0  0  0
  139.9312   73.3665  218.2673 H   0  0  0  0  0  0  0  0  0  0  0  0
  138.8797   72.3938  217.1310 H   0  0  0  0  0  0  0  0  0  0  0  0
  138.4815   70.9832  218.7638 H   0  0  0  0  0  0  0  0  0  0  0  0
  141.3980   75.4340  220.0320 H   0  0  0  0  0  0  0  0  0  0  0  0
  139.9712   76.5215  219.8169 H   0  0  0  0  0  0  0  0  0  0  0  0
  142.2520   76.8253  221.8164 H   0  0  0  0  0  0  0  0  0  0  0  0
  141.8628   77.8802  220.3979 H   0  0  0  0  0  0  0  0  0  0  0  0
  139.6967   80.5807  221.5708 H   0  0  0  0  0  0  0  0  0  0  0  0
  140.6681   82.6470  222.5134 H   0  0  0  0  0  0  0  0  0  0  0  0
  142.6261   82.5580  224.0270 H   0  0  0  0  0  0  0  0  0  0  0  0
  143.6118   80.3293  224.5855 H   0  0  0  0  0  0  0  0  0  0  0  0
  142.6457   78.3041  223.6531 H   0  0  0  0  0  0  0  0  0  0  0  0
  138.7985   78.1209  223.1038 H   0  0  0  0  0  0  0  0  0  0  0  0
  138.6238   77.7156  221.3717 H   0  0  0  0  0  0  0  0  0  0  0  0
  139.9429   75.9623  223.5199 H   0  0  0  0  0  0  0  0  0  0  0  0
  138.3186   75.7015  222.7707 H   0  0  0  0  0  0  0  0  0  0  0  0
  137.8982   70.5640  224.7466 H   0  0  0  0  0  0  0  0  0  0  0  0
  138.0609   69.8650  223.1295 H   0  0  0  0  0  0  0  0  0  0  0  0
  138.5838   68.0884  224.8010 H   0  0  0  0  0  0  0  0  0  0  0  0
  140.1070   68.5130  224.0137 H   0  0  0  0  0  0  0  0  0  0  0  0
  139.0013   67.7268  227.0911 H   0  0  0  0  0  0  0  0  0  0  0  0
  139.9185   68.5704  229.2744 H   0  0  0  0  0  0  0  0  0  0  0  0
  141.2378   70.6792  229.2953 H   0  0  0  0  0  0  0  0  0  0  0  0
  141.6497   71.9254  227.2020 H   0  0  0  0  0  0  0  0  0  0  0  0
  140.8967   72.3286  224.8986 H   0  0  0  0  0  0  0  0  0  0  0  0
  141.6877   70.8368  224.2225 H   0  0  0  0  0  0  0  0  0  0  0  0
  141.4450   70.4903  219.0458 H   0  0  0  0  0  0  0  0  0  0  0  0
  140.0525   69.3644  219.3182 H   0  0  0  0  0  0  0  0  0  0  0  0
  141.2562   68.9276  217.2307 H   0  0  0  0  0  0  0  0  0  0  0  0
  139.5010   69.4240  217.0109 H   0  0  0  0  0  0  0  0  0  0  0  0
  1  2  1  0
  2  3  2  0
  2  4  1  0
  4  5  1  0
  5  6  1  0
  6  7  1  0
  7  8  1  0
  8  9  1  0
  9 10  2  0
 10 11  1  0
 11 12  1  0
 12 13  1  0
 13 14  1  0
 14 15  1  0
 15 16  1  0
 16 17  2  0
 17 18  1  0
 18 19  2  0
 19 20  1  0
 20 21  2  0
 15 22  1  0
 22 23  1  0
 11 24  2  0
 24 25  1  0
 25 26  1  0
 26 27  1  0
 27 28  1  0
 28 29  1  0
 29 30  2  0
 30 31  1  0
 31 32  2  0
 32 33  1  0
 33 34  2  0
 34 35  1  0
 25 36  2  0
  8 37  1  0
 37 38  1  0
 38  5  1  0
 36  9  1  0
 23 12  1  0
 35 26  1  0
 21 16  1  0
 34 29  1  0
  1 39  1  0
  1 40  1  0
  4 41  1  0
  4 42  1  0
  6 43  1  0
  6 44  1  0
  7 45  1  0
  7 46  1  0
  8 47  1  0
 13 48  1  0
 13 49  1  0
 14 50  1  0
 14 51  1  0
 17 52  1  0
 18 53  1  0
 19 54  1  0
 20 55  1  0
 21 56  1  0
 22 57  1  0
 22 58  1  0
 23 59  1  0
 23 60  1  0
 27 61  1  0
 27 62  1  0
 28 63  1  0
 28 64  1  0
 30 65  1  0
 31 66  1  0
 32 67  1  0
 33 68  1  0
 35 69  1  0
 35 70  1  0
 37 71  1  0
 37 72  1  0
 38 73  1  0
 38 74  1  0
M  END
>  <smiles>  (33) 
NC(=O)CN1CCC(c2nc(N3CCN(c4ccccc4)CC3)nc(N3CCc4ccccc4C3)n2)CC1

>  <score_type>  (33) 
oracle

>  <origin>  (33) 
autodockgpu

>  <m_score__min__energy>  (33) 
-9.5199999999999996

>  <m_primary>  (33) 
energy

>  <rmsd>  (33) 
8.455666260725325

>  <m_score__min__rmsd>  (33) 
8.455666260725325

>  <meeko>  (33) 
{"free_energy": -8.22, "intermolecular_energy": -10.01, "internal_energy": -1.54, "cluster_size": 7, "cluster_id": 5, "rank_in_cluster": 1}

>  <energy>  (33) 
-8.91

>  <cluster_rmsd>  (33) 
0.05

>  <cluster>  (33) 
3

$$$$

     RDKit          3D

 74 79  0  0  0  0  0  0  0  0999 V2000
  146.3190   74.8700  215.8920 N   0  0  0  0  0  0  0  0  0  0  0  0
  146.5740   73.4880  216.1320 C   0  0  0  0  0  0  0  0  0  0  0  0
  147.6020   72.9370  215.6540 O   0  0  0  0  0  0  0  0  0  0  0  0
  145.5790   72.7580  216.9580 C   0  0  0  0  0  0  0  0  0  0  0  0
  145.3660   73.3880  218.2400 N   0  0  0  0  0  0  0  0  0  0  0  0
  144.1030   74.0680  218.3020 C   0  0  0  0  0  0  0  0  0  0  0  0
  142.9610   73.1460  218.6600 C   0  0  0  0  0  0  0  0  0  0  0  0
  143.1930   72.3570  219.9190 C   0  0  0  0  0  0  0  0  0  0  0  0
  142.1610   72.6930  220.9260 C   0  0  0  0  0  0  0  0  0  0  0  0
  141.6150   73.9190  220.8700 N   0  0  0  0  0  0  0  0  0  0  0  0
  140.6760   74.2330  221.7810 C   0  0  0  0  0  0  0  0  0  0  0  0
  140.0820   75.5240  221.7480 N   0  0  0  0  0  0  0  0  0  0  0  0
  140.8570   76.7150  221.4450 C   0  0  0  0  0  0  0  0  0  0  0  0
  140.3990   77.8890  222.2970 C   0  0  0  0  0  0  0  0  0  0  0  0
  138.9620   78.0840  222.1980 N   0  0  0  0  0  0  0  0  0  0  0  0
  138.4140   79.2620  222.7760 C   0  0  0  0  0  0  0  0  0  0  0  0
  138.9770   79.9120  223.8560 C   0  0  0  0  0  0  0  0  0  0  0  0
  138.4030   81.0640  224.3830 C   0  0  0  0  0  0  0  0  0  0  0  0
  137.2580   81.5970  223.8490 C   0  0  0  0  0  0  0  0  0  0  0  0
  136.6820   80.9570  222.7670 C   0  0  0  0  0  0  0  0  0  0  0  0
  137.2550   79.8330  222.2640 C   0  0  0  0  0  0  0  0  0  0  0  0
  138.2000   77.0760  221.5250 C   0  0  0  0  0  0  0  0  0  0  0  0
  138.6740   75.7090  222.0160 C   0  0  0  0  0  0  0  0  0  0  0  0
  140.2780   73.3640  222.7270 N   0  0  0  0  0  0  0  0  0  0  0  0
  140.8150   72.1210  222.8010 C   0  0  0  0  0  0  0  0  0  0  0  0
  140.4190   71.1760  223.7880 N   0  0  0  0  0  0  0  0  0  0  0  0
  139.1580   70.4580  223.7030 C   0  0  0  0  0  0  0  0  0  0  0  0
  139.4650   69.0260  224.1650 C   0  0  0  0  0  0  0  0  0  0  0  0
  139.8000   69.1440  225.6100 C   0  0  0  0  0  0  0  0  0  0  0  0
  139.2050   68.3210  226.5450 C   0  0  0  0  0  0  0  0  0  0  0  0
  139.5450   68.4600  227.8940 C   0  0  0  0  0  0  0  0  0  0  0  0
  140.4730   69.4220  228.2500 C   0  0  0  0  0  0  0  0  0  0  0  0
  141.0570   70.2340  227.2920 C   0  0  0  0  0  0  0  0  0  0  0  0
  140.7290   70.1070  225.9540 C   0  0  0  0  0  0  0  0  0  0  0  0
  141.3260   70.9510  224.8980 C   0  0  0  0  0  0  0  0  0  0  0  0
  141.7530   71.8300  221.8810 N   0  0  0  0  0  0  0  0  0  0  0  0
  144.5930   72.5870  220.4360 C   0  0  0  0  0  0  0  0  0  0  0  0
  145.6020   72.5050  219.3390 C   0  0  0  0  0  0  0  0  0  0  0  0
  146.1970   75.2190  214.9120 H   0  0  0  0  0  0  0  0  0  0  0  0
  146.2550   75.5460  216.7020 H   0  0  0  0  0  0  0  0  0  0  0  0
  144.6227   72.7271  216.4153 H   0  0  0  0  0  0  0  0  0  0  0  0
  145.9692   71.7458  217.1401 H   0  0  0  0  0  0  0  0  0  0  0  0
  144.1670   74.8604  219.0622 H   0  0  0  0  0  0  0  0  0  0  0  0
  143.8975   74.4786  217.3024 H   0  0  0  0  0  0  0  0  0  0  0  0
  142.0532   73.7529  218.7928 H   0  0  0  0  0  0  0  0  0  0  0  0
  142.8643   72.4203  217.8390 H   0  0  0  0  0  0  0  0  0  0  0  0
  143.1029   71.2830  219.6988 H   0  0  0  0  0  0  0  0  0  0  0  0
  141.9195   76.5151  221.6478 H   0  0  0  0  0  0  0  0  0  0  0  0
  140.7108   76.9704  220.3851 H   0  0  0  0  0  0  0  0  0  0  0  0
  140.6628   77.6943  223.3470 H   0  0  0  0  0  0  0  0  0  0  0  0
  140.8989   78.7986  221.9326 H   0  0  0  0  0  0  0  0  0  0  0  0
  139.8964   79.5115  224.3080 H   0  0  0  0  0  0  0  0  0  0  0  0
  138.8766   81.5570  225.2447 H   0  0  0  0  0  0  0  0  0  0  0  0
  136.8098   82.5091  224.2700 H   0  0  0  0  0  0  0  0  0  0  0  0
  135.7624   81.3570  222.3150 H   0  0  0  0  0  0  0  0  0  0  0  0
  136.7743   79.3469  221.4022 H   0  0  0  0  0  0  0  0  0  0  0  0
  137.1314   77.2032  221.7530 H   0  0  0  0  0  0  0  0  0  0  0  0
  138.3405   77.1577  220.4371 H   0  0  0  0  0  0  0  0  0  0  0  0
  138.5012   75.6360  223.0999 H   0  0  0  0  0  0  0  0  0  0  0  0
  138.1097   74.9294  221.4833 H   0  0  0  0  0  0  0  0  0  0  0  0
  138.4077   70.9209  224.3608 H   0  0  0  0  0  0  0  0  0  0  0  0
  138.7473   70.4768  222.6827 H   0  0  0  0  0  0  0  0  0  0  0  0
  138.5866   68.3790  224.0245 H   0  0  0  0  0  0  0  0  0  0  0  0
  140.2867   68.5759  223.5885 H   0  0  0  0  0  0  0  0  0  0  0  0
  138.4711   67.5638  226.2320 H   0  0  0  0  0  0  0  0  0  0  0  0
  139.0834   67.8167  228.6576 H   0  0  0  0  0  0  0  0  0  0  0  0
  140.7507   69.5436  229.3074 H   0  0  0  0  0  0  0  0  0  0  0  0
  141.7929   70.9915  227.5997 H   0  0  0  0  0  0  0  0  0  0  0  0
  141.5972   71.9235  225.3348 H   0  0  0  0  0  0  0  0  0  0  0  0
  142.2084   70.4232  224.5071 H   0  0  0  0  0  0  0  0  0  0  0  0
  144.6448   73.5851  220.8954 H   0  0  0  0  0  0  0  0  0  0  0  0
  144.8213   71.8038  221.1739 H   0  0  0  0  0  0  0  0  0  0  0  0
  146.5887   72.7428  219.7632 H   0  0  0  0  0  0  0  0  0  0  0  0
  145.5378   71.4839  218.9350 H   0  0  0  0  0  0  0  0  0  0  0  0
  1  2  1  0
  2  3  2  0
  2  4  1  0
  4  5  1  0
  5  6  1  0
  6  7  1  0
  7  8  1  0
  8  9  1  0
  9 10  2  0
 10 11  1  0
 11 12  1  0
 12 13  1  0
 13 14  1  0
 14 15  1  0
 15 16  1  0
 16 17  2  0
 17 18  1  0
 18 19  2  0
 19 20  1  0
 20 21  2  0
 15 22  1  0
 22 23  1  0
 11 24  2  0
 24 25  1  0
 25 26  1  0
 26 27  1  0
 27 28  1  0
 28 29  1  0
 29 30  2  0
 30 31  1  0
 31 32  2  0
 32 33  1  0
 33 34  2  0
 34 35  1  0
 25 36  2  0
  8 37  1  0
 37 38  1  0
 38  5  1  0
 36  9  1  0
 23 12  1  0
 35 26  1  0
 21 16  1  0
 34 29  1  0
  1 39  1  0
  1 40  1  0
  4 41  1  0
  4 42  1  0
  6 43  1  0
  6 44  1  0
  7 45  1  0
  7 46  1  0
  8 47  1  0
 13 48  1  0
 13 49  1  0
 14 50  1  0
 14 51  1  0
 17 52  1  0
 18 53  1  0
 19 54  1  0
 20 55  1  0
 21 56  1  0
 22 57  1  0
 22 58  1  0
 23 59  1  0
 23 60  1  0
 27 61  1  0
 27 62  1  0
 28 63  1  0
 28 64  1  0
 30 65  1  0
 31 66  1  0
 32 67  1  0
 33 68  1  0
 35 69  1  0
 35 70  1  0
 37 71  1  0
 37 72  1  0
 38 73  1  0
 38 74  1  0
M  END
>  <smiles>  (34) 
NC(=O)CN1CCC(c2nc(N3CCN(c4ccccc4)CC3)nc(N3CCc4ccccc4C3)n2)CC1

>  <score_type>  (34) 
oracle

>  <origin>  (34) 
autodockgpu

>  <m_score__min__energy>  (34) 
-9.5199999999999996

>  <m_primary>  (34) 
energy

>  <rmsd>  (34) 
8.490505159459195

>  <m_score__min__rmsd>  (34) 
8.490505159459195

>  <meeko>  (34) 
{"free_energy": -9.04, "intermolecular_energy": -10.83, "internal_energy": -1.48, "cluster_size": 25, "cluster_id": 1, "rank_in_cluster": 11}

>  <energy>  (34) 
-8.9

>  <cluster_rmsd>  (34) 
1.3

>  <cluster>  (34) 
3

$$$$

     RDKit          3D

 74 79  0  0  0  0  0  0  0  0999 V2000
  146.4890   68.9600  218.6810 N   0  0  0  0  0  0  0  0  0  0  0  0
  145.4290   69.9120  218.6300 C   0  0  0  0  0  0  0  0  0  0  0  0
  144.3880   69.7440  219.3190 O   0  0  0  0  0  0  0  0  0  0  0  0
  145.6250   71.0820  217.7360 C   0  0  0  0  0  0  0  0  0  0  0  0
  145.3340   72.3310  218.4000 N   0  0  0  0  0  0  0  0  0  0  0  0
  144.0560   72.8610  218.0110 C   0  0  0  0  0  0  0  0  0  0  0  0
  142.9140   72.2710  218.8030 C   0  0  0  0  0  0  0  0  0  0  0  0
  143.0930   72.3770  220.2930 C   0  0  0  0  0  0  0  0  0  0  0  0
  142.0040   73.1890  220.8790 C   0  0  0  0  0  0  0  0  0  0  0  0
  140.9250   72.5360  221.3440 N   0  0  0  0  0  0  0  0  0  0  0  0
  139.9290   73.2660  221.8770 C   0  0  0  0  0  0  0  0  0  0  0  0
  138.7740   72.6040  222.3760 N   0  0  0  0  0  0  0  0  0  0  0  0
  137.4400   72.9310  221.9010 C   0  0  0  0  0  0  0  0  0  0  0  0
  136.4340   72.8860  223.0410 C   0  0  0  0  0  0  0  0  0  0  0  0
  136.5080   71.6250  223.7600 N   0  0  0  0  0  0  0  0  0  0  0  0
  135.4960   71.3530  224.7220 C   0  0  0  0  0  0  0  0  0  0  0  0
  134.6790   72.3270  225.2620 C   0  0  0  0  0  0  0  0  0  0  0  0
  133.7020   72.0090  226.1980 C   0  0  0  0  0  0  0  0  0  0  0  0
  133.5130   70.7170  226.6200 C   0  0  0  0  0  0  0  0  0  0  0  0
  134.3220   69.7310  226.0880 C   0  0  0  0  0  0  0  0  0  0  0  0
  135.2730   70.0580  225.1730 C   0  0  0  0  0  0  0  0  0  0  0  0
  137.5940   70.7450  223.4490 C   0  0  0  0  0  0  0  0  0  0  0  0
  138.8760   71.5710  223.3820 C   0  0  0  0  0  0  0  0  0  0  0  0
  139.9870   74.6070  221.9560 N   0  0  0  0  0  0  0  0  0  0  0  0
  141.0670   75.2860  221.4940 C   0  0  0  0  0  0  0  0  0  0  0  0
  141.1630   76.7040  221.5610 N   0  0  0  0  0  0  0  0  0  0  0  0
  141.3430   77.5180  220.3710 C   0  0  0  0  0  0  0  0  0  0  0  0
  140.4610   78.7580  220.5790 C   0  0  0  0  0  0  0  0  0  0  0  0
  141.0850   79.4970  221.7100 C   0  0  0  0  0  0  0  0  0  0  0  0
  141.3460   80.8490  221.6150 C   0  0  0  0  0  0  0  0  0  0  0  0
  141.9320   81.5110  222.6980 C   0  0  0  0  0  0  0  0  0  0  0  0
  142.2340   80.7860  223.8360 C   0  0  0  0  0  0  0  0  0  0  0  0
  141.9620   79.4300  223.9070 C   0  0  0  0  0  0  0  0  0  0  0  0
  141.3810   78.7630  222.8420 C   0  0  0  0  0  0  0  0  0  0  0  0
  141.0730   77.3180  222.8720 C   0  0  0  0  0  0  0  0  0  0  0  0
  142.0500   74.5350  220.9640 N   0  0  0  0  0  0  0  0  0  0  0  0
  144.4600   72.9280  220.6220 C   0  0  0  0  0  0  0  0  0  0  0  0
  145.5270   72.2670  219.8140 C   0  0  0  0  0  0  0  0  0  0  0  0
  146.3170   67.9670  218.3980 H   0  0  0  0  0  0  0  0  0  0  0  0
  147.4500   69.2540  219.0070 H   0  0  0  0  0  0  0  0  0  0  0  0
  146.6711   71.0968  217.3962 H   0  0  0  0  0  0  0  0  0  0  0  0
  144.9303   70.9800  216.8892 H   0  0  0  0  0  0  0  0  0  0  0  0
  144.0652   73.9501  218.1651 H   0  0  0  0  0  0  0  0  0  0  0  0
  143.8964   72.6005  216.9543 H   0  0  0  0  0  0  0  0  0  0  0  0
  141.9898   72.7992  218.5258 H   0  0  0  0  0  0  0  0  0  0  0  0
  142.8740   71.1990  218.5595 H   0  0  0  0  0  0  0  0  0  0  0  0
  143.0334   71.3740  220.7407 H   0  0  0  0  0  0  0  0  0  0  0  0
  137.4493   73.9422  221.4680 H   0  0  0  0  0  0  0  0  0  0  0  0
  137.1453   72.1917  221.1416 H   0  0  0  0  0  0  0  0  0  0  0  0
  136.6459   73.7095  223.7388 H   0  0  0  0  0  0  0  0  0  0  0  0
  135.4238   72.9858  222.6173 H   0  0  0  0  0  0  0  0  0  0  0  0
  134.8038   73.3731  224.9456 H   0  0  0  0  0  0  0  0  0  0  0  0
  133.0679   72.8086  226.6085 H   0  0  0  0  0  0  0  0  0  0  0  0
  132.7384   70.4727  227.3618 H   0  0  0  0  0  0  0  0  0  0  0  0
  134.1969   68.6848  226.4039 H   0  0  0  0  0  0  0  0  0  0  0  0
  135.9014   69.2516  224.7669 H   0  0  0  0  0  0  0  0  0  0  0  0
  137.6865   69.9774  224.2315 H   0  0  0  0  0  0  0  0  0  0  0  0
  137.4137   70.2462  222.4853 H   0  0  0  0  0  0  0  0  0  0  0  0
  139.0542   72.0389  224.3614 H   0  0  0  0  0  0  0  0  0  0  0  0
  139.7095   70.9040  223.1166 H   0  0  0  0  0  0  0  0  0  0  0  0
  142.3977   77.8112  220.2627 H   0  0  0  0  0  0  0  0  0  0  0  0
  141.0652   76.9703  219.4584 H   0  0  0  0  0  0  0  0  0  0  0  0
  140.4499   79.3798  219.6716 H   0  0  0  0  0  0  0  0  0  0  0  0
  139.4162   78.4877  220.7918 H   0  0  0  0  0  0  0  0  0  0  0  0
  141.0955   81.4000  220.6965 H   0  0  0  0  0  0  0  0  0  0  0  0
  142.1487   82.5882  222.6458 H   0  0  0  0  0  0  0  0  0  0  0  0
  142.6962   81.2928  224.6959 H   0  0  0  0  0  0  0  0  0  0  0  0
  142.2113   78.8746  224.8232 H   0  0  0  0  0  0  0  0  0  0  0  0
  141.7859   76.8192  223.5449 H   0  0  0  0  0  0  0  0  0  0  0  0
  140.0372   77.2041  223.2242 H   0  0  0  0  0  0  0  0  0  0  0  0
  144.4700   74.0077  220.4117 H   0  0  0  0  0  0  0  0  0  0  0  0
  144.6630   72.7335  221.6855 H   0  0  0  0  0  0  0  0  0  0  0  0
  146.4855   72.7519  220.0508 H   0  0  0  0  0  0  0  0  0  0  0  0
  145.5023   71.2004  220.0819 H   0  0  0  0  0  0  0  0  0  0  0  0
  1  2  1  0
  2  3  2  0
  2  4  1  0
  4  5  1  0
  5  6  1  0
  6  7  1  0
  7  8  1  0
  8  9  1  0
  9 10  2  0
 10 11  1  0
 11 12  1  0
 12 13  1  0
 13 14  1  0
 14 15  1  0
 15 16  1  0
 16 17  2  0
 17 18  1  0
 18 19  2  0
 19 20  1  0
 20 21  2  0
 15 22  1  0
 22 23  1  0
 11 24  2  0
 24 25  1  0
 25 26  1  0
 26 27  1  0
 27 28  1  0
 28 29  1  0
 29 30  2  0
 30 31  1  0
 31 32  2  0
 32 33  1  0
 33 34  2  0
 34 35  1  0
 25 36  2  0
  8 37  1  0
 37 38  1  0
 38  5  1  0
 36  9  1  0
 23 12  1  0
 35 26  1  0
 21 16  1  0
 34 29  1  0
  1 39  1  0
  1 40  1  0
  4 41  1  0
  4 42  1  0
  6 43  1  0
  6 44  1  0
  7 45  1  0
  7 46  1  0
  8 47  1  0
 13 48  1  0
 13 49  1  0
 14 50  1  0
 14 51  1  0
 17 52  1  0
 18 53  1  0
 19 54  1  0
 20 55  1  0
 21 56  1  0
 22 57  1  0
 22 58  1  0
 23 59  1  0
 23 60  1  0
 27 61  1  0
 27 62  1  0
 28 63  1  0
 28 64  1  0
 30 65  1  0
 31 66  1  0
 32 67  1  0
 33 68  1  0
 35 69  1  0
 35 70  1  0
 37 71  1  0
 37 72  1  0
 38 73  1  0
 38 74  1  0
M  END
>  <smiles>  (35) 
NC(=O)CN1CCC(c2nc(N3CCN(c4ccccc4)CC3)nc(N3CCc4ccccc4C3)n2)CC1

>  <score_type>  (35) 
oracle

>  <origin>  (35) 
autodockgpu

>  <m_score__min__energy>  (35) 
-9.5199999999999996

>  <m_primary>  (35) 
energy

>  <rmsd>  (35) 
5.737378907863033

>  <m_score__min__rmsd>  (35) 
5.737378907863033

>  <meeko>  (35) 
{"free_energy": -8.44, "intermolecular_energy": -10.23, "internal_energy": -1.4, "cluster_size": 11, "cluster_id": 3, "rank_in_cluster": 9}

>  <energy>  (35) 
-8.88

>  <cluster_rmsd>  (35) 
1.3

>  <cluster>  (35) 
3

$$$$

     RDKit          3D

 74 79  0  0  0  0  0  0  0  0999 V2000
  146.6920   69.2700  216.4550 N   0  0  0  0  0  0  0  0  0  0  0  0
  146.6970   70.6560  216.1240 C   0  0  0  0  0  0  0  0  0  0  0  0
  147.7020   71.1750  215.5670 O   0  0  0  0  0  0  0  0  0  0  0  0
  145.4770   71.4300  216.4670 C   0  0  0  0  0  0  0  0  0  0  0  0
  145.4900   71.8900  217.8360 N   0  0  0  0  0  0  0  0  0  0  0  0
  144.6620   73.0490  218.0210 C   0  0  0  0  0  0  0  0  0  0  0  0
  143.2090   72.7000  218.2400 C   0  0  0  0  0  0  0  0  0  0  0  0
  142.9860   71.7150  219.3540 C   0  0  0  0  0  0  0  0  0  0  0  0
  142.1520   72.3270  220.4130 C   0  0  0  0  0  0  0  0  0  0  0  0
  141.8910   73.6410  220.3150 N   0  0  0  0  0  0  0  0  0  0  0  0
  141.1350   74.2060  221.2730 C   0  0  0  0  0  0  0  0  0  0  0  0
  140.8440   75.5960  221.1980 N   0  0  0  0  0  0  0  0  0  0  0  0
  141.0340   76.3520  219.9720 C   0  0  0  0  0  0  0  0  0  0  0  0
  141.5640   77.7450  220.2720 C   0  0  0  0  0  0  0  0  0  0  0  0
  140.7370   78.4240  221.2570 N   0  0  0  0  0  0  0  0  0  0  0  0
  140.9870   79.8040  221.4910 C   0  0  0  0  0  0  0  0  0  0  0  0
  140.8110   80.7820  220.5320 C   0  0  0  0  0  0  0  0  0  0  0  0
  141.0670   82.1190  220.8120 C   0  0  0  0  0  0  0  0  0  0  0  0
  141.5030   82.5170  222.0500 C   0  0  0  0  0  0  0  0  0  0  0  0
  141.6830   81.5500  223.0210 C   0  0  0  0  0  0  0  0  0  0  0  0
  141.4280   80.2460  222.7320 C   0  0  0  0  0  0  0  0  0  0  0  0
  139.7290   77.6540  221.9210 C   0  0  0  0  0  0  0  0  0  0  0  0
  140.3450   76.3220  222.3440 C   0  0  0  0  0  0  0  0  0  0  0  0
  140.6420   73.5000  222.3060 N   0  0  0  0  0  0  0  0  0  0  0  0
  140.8920   72.1720  222.4230 C   0  0  0  0  0  0  0  0  0  0  0  0
  140.3870   71.3930  223.5020 N   0  0  0  0  0  0  0  0  0  0  0  0
  139.0500   70.8240  223.4800 C   0  0  0  0  0  0  0  0  0  0  0  0
  139.1850   69.4240  224.0960 C   0  0  0  0  0  0  0  0  0  0  0  0
  139.5340   69.6560  225.5240 C   0  0  0  0  0  0  0  0  0  0  0  0
  138.8460   69.0160  226.5350 C   0  0  0  0  0  0  0  0  0  0  0  0
  139.2020   69.2580  227.8650 C   0  0  0  0  0  0  0  0  0  0  0  0
  140.2380   70.1370  228.1270 C   0  0  0  0  0  0  0  0  0  0  0  0
  140.9130   70.7660  227.0940 C   0  0  0  0  0  0  0  0  0  0  0  0
  140.5700   70.5350  225.7730 C   0  0  0  0  0  0  0  0  0  0  0  0
  141.2620   71.1830  224.6390 C   0  0  0  0  0  0  0  0  0  0  0  0
  141.6510   71.6290  221.4540 N   0  0  0  0  0  0  0  0  0  0  0  0
  144.3060   71.2090  219.8840 C   0  0  0  0  0  0  0  0  0  0  0  0
  145.2370   70.8430  218.7760 C   0  0  0  0  0  0  0  0  0  0  0  0
  147.4080   68.8850  217.1170 H   0  0  0  0  0  0  0  0  0  0  0  0
  145.9700   68.6260  216.0320 H   0  0  0  0  0  0  0  0  0  0  0  0
  145.4121   72.3027  215.8006 H   0  0  0  0  0  0  0  0  0  0  0  0
  144.6092   70.7657  216.3421 H   0  0  0  0  0  0  0  0  0  0  0  0
  145.0261   73.6050  218.8975 H   0  0  0  0  0  0  0  0  0  0  0  0
  144.7237   73.6508  217.1023 H   0  0  0  0  0  0  0  0  0  0  0  0
  142.6619   73.6240  218.4786 H   0  0  0  0  0  0  0  0  0  0  0  0
  142.8488   72.2264  217.3148 H   0  0  0  0  0  0  0  0  0  0  0  0
  142.4395   70.8424  218.9667 H   0  0  0  0  0  0  0  0  0  0  0  0
  141.7539   75.8230  219.3302 H   0  0  0  0  0  0  0  0  0  0  0  0
  140.0636   76.4466  219.4627 H   0  0  0  0  0  0  0  0  0  0  0  0
  142.5896   77.6621  220.6610 H   0  0  0  0  0  0  0  0  0  0  0  0
  141.5471   78.3309  219.3412 H   0  0  0  0  0  0  0  0  0  0  0  0
  140.4619   80.4976  219.5284 H   0  0  0  0  0  0  0  0  0  0  0  0
  140.9170   82.8729  220.0252 H   0  0  0  0  0  0  0  0  0  0  0  0
  141.7040   83.5770  222.2643 H   0  0  0  0  0  0  0  0  0  0  0  0
  142.0316   81.8345  224.0248 H   0  0  0  0  0  0  0  0  0  0  0  0
  141.5794   79.4992  223.5253 H   0  0  0  0  0  0  0  0  0  0  0  0
  139.3705   78.1966  222.8082 H   0  0  0  0  0  0  0  0  0  0  0  0
  138.8779   77.4809  221.2460 H   0  0  0  0  0  0  0  0  0  0  0  0
  141.1764   76.5142  223.0382 H   0  0  0  0  0  0  0  0  0  0  0  0
  139.5681   75.7155  222.8325 H   0  0  0  0  0  0  0  0  0  0  0  0
  138.3608   71.4405  224.0758 H   0  0  0  0  0  0  0  0  0  0  0  0
  138.6434   70.7811  222.4588 H   0  0  0  0  0  0  0  0  0  0  0  0
  138.2355   68.8744  224.0157 H   0  0  0  0  0  0  0  0  0  0  0  0
  139.9464   68.8204  223.5803 H   0  0  0  0  0  0  0  0  0  0  0  0
  138.0260   68.3226  226.2966 H   0  0  0  0  0  0  0  0  0  0  0  0
  138.6687   68.7591  228.6876 H   0  0  0  0  0  0  0  0  0  0  0  0
  140.5291   70.3387  229.1684 H   0  0  0  0  0  0  0  0  0  0  0  0
  141.7342   71.4598  227.3269 H   0  0  0  0  0  0  0  0  0  0  0  0
  141.6483   72.1577  224.9718 H   0  0  0  0  0  0  0  0  0  0  0  0
  142.0744   70.5149  224.3170 H   0  0  0  0  0  0  0  0  0  0  0  0
  144.7707   71.9962  220.4959 H   0  0  0  0  0  0  0  0  0  0  0  0
  144.1138   70.3078  220.4848 H   0  0  0  0  0  0  0  0  0  0  0  0
  146.1972   70.5428  219.2208 H   0  0  0  0  0  0  0  0  0  0  0  0
  144.7475   70.0337  218.2143 H   0  0  0  0  0  0  0  0  0  0  0  0
  1  2  1  0
  2  3  2  0
  2  4  1  0
  4  5  1  0
  5  6  1  0
  6  7  1  0
  7  8  1  0
  8  9  1  0
  9 10  2  0
 10 11  1  0
 11 12  1  0
 12 13  1  0
 13 14  1  0
 14 15  1  0
 15 16  1  0
 16 17  2  0
 17 18  1  0
 18 19  2  0
 19 20  1  0
 20 21  2  0
 15 22  1  0
 22 23  1  0
 11 24  2  0
 24 25  1  0
 25 26  1  0
 26 27  1  0
 27 28  1  0
 28 29  1  0
 29 30  2  0
 30 31  1  0
 31 32  2  0
 32 33  1  0
 33 34  2  0
 34 35  1  0
 25 36  2  0
  8 37  1  0
 37 38  1  0
 38  5  1  0
 36  9  1  0
 23 12  1  0
 35 26  1  0
 21 16  1  0
 34 29  1  0
  1 39  1  0
  1 40  1  0
  4 41  1  0
  4 42  1  0
  6 43  1  0
  6 44  1  0
  7 45  1  0
  7 46  1  0
  8 47  1  0
 13 48  1  0
 13 49  1  0
 14 50  1  0
 14 51  1  0
 17 52  1  0
 18 53  1  0
 19 54  1  0
 20 55  1  0
 21 56  1  0
 22 57  1  0
 22 58  1  0
 23 59  1  0
 23 60  1  0
 27 61  1  0
 27 62  1  0
 28 63  1  0
 28 64  1  0
 30 65  1  0
 31 66  1  0
 32 67  1  0
 33 68  1  0
 35 69  1  0
 35 70  1  0
 37 71  1  0
 37 72  1  0
 38 73  1  0
 38 74  1  0
M  END
>  <smiles>  (36) 
NC(=O)CN1CCC(c2nc(N3CCN(c4ccccc4)CC3)nc(N3CCc4ccccc4C3)n2)CC1

>  <score_type>  (36) 
oracle

>  <origin>  (36) 
autodockgpu

>  <m_score__min__energy>  (36) 
-9.5199999999999996

>  <m_primary>  (36) 
energy

>  <rmsd>  (36) 
8.926747279300507

>  <m_score__min__rmsd>  (36) 
8.926747279300507

>  <meeko>  (36) 
{"free_energy": -8.91, "intermolecular_energy": -10.7, "internal_energy": -1.39, "cluster_size": 5, "cluster_id": 2, "rank_in_cluster": 3}

>  <energy>  (36) 
-8.88

>  <cluster_rmsd>  (36) 
1.3

>  <cluster>  (36) 
3

$$$$

     RDKit          3D

 74 79  0  0  0  0  0  0  0  0999 V2000
  146.4610   68.2290  217.2990 N   0  0  0  0  0  0  0  0  0  0  0  0
  145.9890   69.1520  218.2770 C   0  0  0  0  0  0  0  0  0  0  0  0
  146.0370   68.8630  219.5020 O   0  0  0  0  0  0  0  0  0  0  0  0
  145.4490   70.4410  217.7730 C   0  0  0  0  0  0  0  0  0  0  0  0
  144.0200   70.5440  217.9580 N   0  0  0  0  0  0  0  0  0  0  0  0
  143.6130   70.0970  219.2610 C   0  0  0  0  0  0  0  0  0  0  0  0
  143.7420   71.1730  220.3130 C   0  0  0  0  0  0  0  0  0  0  0  0
  143.0400   72.4550  219.9560 C   0  0  0  0  0  0  0  0  0  0  0  0
  141.9860   72.7500  220.9530 C   0  0  0  0  0  0  0  0  0  0  0  0
  141.3780   73.9460  220.8770 N   0  0  0  0  0  0  0  0  0  0  0  0
  140.4190   74.2230  221.7780 C   0  0  0  0  0  0  0  0  0  0  0  0
  139.7590   75.4810  221.7240 N   0  0  0  0  0  0  0  0  0  0  0  0
  140.3760   76.6420  221.1060 C   0  0  0  0  0  0  0  0  0  0  0  0
  140.0560   77.9060  221.8880 C   0  0  0  0  0  0  0  0  0  0  0  0
  138.6240   78.0470  222.1020 N   0  0  0  0  0  0  0  0  0  0  0  0
  138.1540   79.2760  222.6400 C   0  0  0  0  0  0  0  0  0  0  0  0
  137.2010   80.0620  222.0230 C   0  0  0  0  0  0  0  0  0  0  0  0
  136.7730   81.2550  222.5920 C   0  0  0  0  0  0  0  0  0  0  0  0
  137.2800   81.6960  223.7880 C   0  0  0  0  0  0  0  0  0  0  0  0
  138.2350   80.9200  224.4190 C   0  0  0  0  0  0  0  0  0  0  0  0
  138.6430   79.7560  223.8490 C   0  0  0  0  0  0  0  0  0  0  0  0
  137.7890   76.9370  221.7540 C   0  0  0  0  0  0  0  0  0  0  0  0
  138.4400   75.6620  222.2870 C   0  0  0  0  0  0  0  0  0  0  0  0
  140.0610   73.3480  222.7350 N   0  0  0  0  0  0  0  0  0  0  0  0
  140.6600   72.1350  222.8280 C   0  0  0  0  0  0  0  0  0  0  0  0
  140.3070   71.1850  223.8270 N   0  0  0  0  0  0  0  0  0  0  0  0
  139.0680   70.4280  223.7640 C   0  0  0  0  0  0  0  0  0  0  0  0
  139.4250   69.0090  224.2290 C   0  0  0  0  0  0  0  0  0  0  0  0
  139.7770   69.1450  225.6680 C   0  0  0  0  0  0  0  0  0  0  0  0
  139.2200   68.3110  226.6160 C   0  0  0  0  0  0  0  0  0  0  0  0
  139.5750   68.4680  227.9590 C   0  0  0  0  0  0  0  0  0  0  0  0
  140.4780   69.4590  228.2970 C   0  0  0  0  0  0  0  0  0  0  0  0
  141.0240   70.2840  227.3260 C   0  0  0  0  0  0  0  0  0  0  0  0
  140.6800   70.1380  225.9930 C   0  0  0  0  0  0  0  0  0  0  0  0
  141.2360   70.9940  224.9240 C   0  0  0  0  0  0  0  0  0  0  0  0
  141.6170   71.8800  221.9170 N   0  0  0  0  0  0  0  0  0  0  0  0
  142.4960   72.3840  218.5500 C   0  0  0  0  0  0  0  0  0  0  0  0
  143.5040   71.8280  217.6000 C   0  0  0  0  0  0  0  0  0  0  0  0
  146.0230   67.2820  217.2160 H   0  0  0  0  0  0  0  0  0  0  0  0
  147.2560   68.4970  216.6570 H   0  0  0  0  0  0  0  0  0  0  0  0
  145.9365   71.2651  218.3144 H   0  0  0  0  0  0  0  0  0  0  0  0
  145.6543   70.4940  216.6936 H   0  0  0  0  0  0  0  0  0  0  0  0
  142.5615   69.7780  219.2110 H   0  0  0  0  0  0  0  0  0  0  0  0
  144.2762   69.2684  219.5502 H   0  0  0  0  0  0  0  0  0  0  0  0
  143.3146   70.7930  221.2527 H   0  0  0  0  0  0  0  0  0  0  0  0
  144.8129   71.4073  220.4036 H   0  0  0  0  0  0  0  0  0  0  0  0
  143.7597   73.2865  219.9808 H   0  0  0  0  0  0  0  0  0  0  0  0
  141.4665   76.5001  221.0811 H   0  0  0  0  0  0  0  0  0  0  0  0
  139.9797   76.7497  220.0856 H   0  0  0  0  0  0  0  0  0  0  0  0
  140.5614   77.8611  222.8640 H   0  0  0  0  0  0  0  0  0  0  0  0
  140.4071   78.7717  221.3073 H   0  0  0  0  0  0  0  0  0  0  0  0
  136.7727   79.7375  221.0631 H   0  0  0  0  0  0  0  0  0  0  0  0
  136.0128   81.8577  222.0734 H   0  0  0  0  0  0  0  0  0  0  0  0
  136.9362   82.6414  224.2331 H   0  0  0  0  0  0  0  0  0  0  0  0
  138.6629   81.2440  225.3792 H   0  0  0  0  0  0  0  0  0  0  0  0
  139.4036   79.1598  224.3744 H   0  0  0  0  0  0  0  0  0  0  0  0
  136.7942   77.0637  222.2060 H   0  0  0  0  0  0  0  0  0  0  0  0
  137.6747   76.8763  220.6616 H   0  0  0  0  0  0  0  0  0  0  0  0
  138.5222   75.7304  223.3818 H   0  0  0  0  0  0  0  0  0  0  0  0
  137.8153   74.8029  222.0010 H   0  0  0  0  0  0  0  0  0  0  0  0
  138.3131   70.8715  224.4300 H   0  0  0  0  0  0  0  0  0  0  0  0
  138.6428   70.4282  222.7495 H   0  0  0  0  0  0  0  0  0  0  0  0
  138.5647   68.3348  224.1047 H   0  0  0  0  0  0  0  0  0  0  0  0
  140.2517   68.5810  223.6430 H   0  0  0  0  0  0  0  0  0  0  0  0
  138.5041   67.5308  226.3180 H   0  0  0  0  0  0  0  0  0  0  0  0
  139.1440   67.8153  228.7324 H   0  0  0  0  0  0  0  0  0  0  0  0
  140.7668   69.5945  229.3497 H   0  0  0  0  0  0  0  0  0  0  0  0
  141.7406   71.0655  227.6187 H   0  0  0  0  0  0  0  0  0  0  0  0
  141.4838   71.9767  225.3518 H   0  0  0  0  0  0  0  0  0  0  0  0
  142.1284   70.4913  224.5230 H   0  0  0  0  0  0  0  0  0  0  0  0
  141.6052   71.7387  218.5438 H   0  0  0  0  0  0  0  0  0  0  0  0
  142.2432   73.4044  218.2262 H   0  0  0  0  0  0  0  0  0  0  0  0
  143.0313   71.7432  216.6104 H   0  0  0  0  0  0  0  0  0  0  0  0
  144.3586   72.5205  217.6146 H   0  0  0  0  0  0  0  0  0  0  0  0
  1  2  1  0
  2  3  2  0
  2  4  1  0
  4  5  1  0
  5  6  1  0
  6  7  1  0
  7  8  1  0
  8  9  1  0
  9 10  2  0
 10 11  1  0
 11 12  1  0
 12 13  1  0
 13 14  1  0
 14 15  1  0
 15 16  1  0
 16 17  2  0
 17 18  1  0
 18 19  2  0
 19 20  1  0
 20 21  2  0
 15 22  1  0
 22 23  1  0
 11 24  2  0
 24 25  1  0
 25 26  1  0
 26 27  1  0
 27 28  1  0
 28 29  1  0
 29 30  2  0
 30 31  1  0
 31 32  2  0
 32 33  1  0
 33 34  2  0
 34 35  1  0
 25 36  2  0
  8 37  1  0
 37 38  1  0
 38  5  1  0
 36  9  1  0
 23 12  1  0
 35 26  1  0
 21 16  1  0
 34 29  1  0
  1 39  1  0
  1 40  1  0
  4 41  1  0
  4 42  1  0
  6 43  1  0
  6 44  1  0
  7 45  1  0
  7 46  1  0
  8 47  1  0
 13 48  1  0
 13 49  1  0
 14 50  1  0
 14 51  1  0
 17 52  1  0
 18 53  1  0
 19 54  1  0
 20 55  1  0
 21 56  1  0
 22 57  1  0
 22 58  1  0
 23 59  1  0
 23 60  1  0
 27 61  1  0
 27 62  1  0
 28 63  1  0
 28 64  1  0
 30 65  1  0
 31 66  1  0
 32 67  1  0
 33 68  1  0
 35 69  1  0
 35 70  1  0
 37 71  1  0
 37 72  1  0
 38 73  1  0
 38 74  1  0
M  END
>  <smiles>  (37) 
NC(=O)CN1CCC(c2nc(N3CCN(c4ccccc4)CC3)nc(N3CCc4ccccc4C3)n2)CC1

>  <score_type>  (37) 
oracle

>  <origin>  (37) 
autodockgpu

>  <m_score__min__energy>  (37) 
-9.5199999999999996

>  <m_primary>  (37) 
energy

>  <rmsd>  (37) 
8.329803155173725

>  <m_score__min__rmsd>  (37) 
8.329803155173725

>  <meeko>  (37) 
{"free_energy": -8.51, "intermolecular_energy": -10.3, "internal_energy": -1.3, "cluster_size": 5, "cluster_id": 2, "rank_in_cluster": 4}

>  <energy>  (37) 
-8.73

>  <cluster_rmsd>  (37) 
1.32

>  <cluster>  (37) 
3

$$$$

     RDKit          3D

 74 79  0  0  0  0  0  0  0  0999 V2000
  145.4880   74.8860  216.3730 N   0  0  0  0  0  0  0  0  0  0  0  0
  146.2850   73.7550  216.7130 C   0  0  0  0  0  0  0  0  0  0  0  0
  147.5420   73.8160  216.6420 O   0  0  0  0  0  0  0  0  0  0  0  0
  145.5610   72.5310  217.1430 C   0  0  0  0  0  0  0  0  0  0  0  0
  145.3920   72.4730  218.5760 N   0  0  0  0  0  0  0  0  0  0  0  0
  144.7300   73.6410  219.0870 C   0  0  0  0  0  0  0  0  0  0  0  0
  143.2260   73.5500  218.9900 C   0  0  0  0  0  0  0  0  0  0  0  0
  142.6540   72.3080  219.6170 C   0  0  0  0  0  0  0  0  0  0  0  0
  141.7430   72.6730  220.7250 C   0  0  0  0  0  0  0  0  0  0  0  0
  141.2270   73.9140  220.7210 N   0  0  0  0  0  0  0  0  0  0  0  0
  140.3990   74.2540  221.7240 C   0  0  0  0  0  0  0  0  0  0  0  0
  139.8390   75.5610  221.7480 N   0  0  0  0  0  0  0  0  0  0  0  0
  140.6630   76.7490  221.6030 C   0  0  0  0  0  0  0  0  0  0  0  0
  140.1650   77.8660  222.5070 C   0  0  0  0  0  0  0  0  0  0  0  0
  138.7450   78.1100  222.3120 N   0  0  0  0  0  0  0  0  0  0  0  0
  138.1790   79.2550  222.9370 C   0  0  0  0  0  0  0  0  0  0  0  0
  136.9280   79.7500  222.6270 C   0  0  0  0  0  0  0  0  0  0  0  0
  136.4190   80.8730  223.2700 C   0  0  0  0  0  0  0  0  0  0  0  0
  137.1390   81.5300  224.2350 C   0  0  0  0  0  0  0  0  0  0  0  0
  138.3940   81.0460  224.5560 C   0  0  0  0  0  0  0  0  0  0  0  0
  138.8770   79.9470  223.9190 C   0  0  0  0  0  0  0  0  0  0  0  0
  138.0160   77.1800  221.5030 C   0  0  0  0  0  0  0  0  0  0  0  0
  138.4180   75.7660  221.9180 C   0  0  0  0  0  0  0  0  0  0  0  0
  140.0800   73.3990  222.7120 N   0  0  0  0  0  0  0  0  0  0  0  0
  140.5880   72.1420  222.7350 C   0  0  0  0  0  0  0  0  0  0  0  0
  140.2730   71.2100  223.7630 N   0  0  0  0  0  0  0  0  0  0  0  0
  139.0980   70.3580  223.6940 C   0  0  0  0  0  0  0  0  0  0  0  0
  139.5450   68.9920  224.2340 C   0  0  0  0  0  0  0  0  0  0  0  0
  139.8350   69.2150  225.6760 C   0  0  0  0  0  0  0  0  0  0  0  0
  139.3100   68.3810  226.6430 C   0  0  0  0  0  0  0  0  0  0  0  0
  139.6040   68.6220  227.9880 C   0  0  0  0  0  0  0  0  0  0  0  0
  140.4170   69.6940  228.3100 C   0  0  0  0  0  0  0  0  0  0  0  0
  140.9320   70.5160  227.3200 C   0  0  0  0  0  0  0  0  0  0  0  0
  140.6480   70.2880  225.9850 C   0  0  0  0  0  0  0  0  0  0  0  0
  141.1750   71.1380  224.8970 C   0  0  0  0  0  0  0  0  0  0  0  0
  141.4150   71.8230  221.7220 N   0  0  0  0  0  0  0  0  0  0  0  0
  143.7620   71.3860  220.0660 C   0  0  0  0  0  0  0  0  0  0  0  0
  144.8150   71.2420  219.0180 C   0  0  0  0  0  0  0  0  0  0  0  0
  145.5340   75.2900  215.4070 H   0  0  0  0  0  0  0  0  0  0  0  0
  144.8500   75.3220  217.0930 H   0  0  0  0  0  0  0  0  0  0  0  0
  144.5687   72.5211  216.6685 H   0  0  0  0  0  0  0  0  0  0  0  0
  146.1591   71.6597  216.8377 H   0  0  0  0  0  0  0  0  0  0  0  0
  145.0071   73.7680  220.1439 H   0  0  0  0  0  0  0  0  0  0  0  0
  145.0503   74.4976  218.4757 H   0  0  0  0  0  0  0  0  0  0  0  0
  142.7918   74.4255  219.4949 H   0  0  0  0  0  0  0  0  0  0  0  0
  142.9742   73.5152  217.9198 H   0  0  0  0  0  0  0  0  0  0  0  0
  142.0617   71.7597  218.8696 H   0  0  0  0  0  0  0  0  0  0  0  0
  141.7008   76.5030  221.8722 H   0  0  0  0  0  0  0  0  0  0  0  0
  140.6086   77.0902  220.5587 H   0  0  0  0  0  0  0  0  0  0  0  0
  140.3392   77.5829  223.5556 H   0  0  0  0  0  0  0  0  0  0  0  0
  140.7131   78.7861  222.2561 H   0  0  0  0  0  0  0  0  0  0  0  0
  136.3233   79.2472  221.8579 H   0  0  0  0  0  0  0  0  0  0  0  0
  135.4187   81.2419  222.9993 H   0  0  0  0  0  0  0  0  0  0  0  0
  136.7294   82.4174  224.7397 H   0  0  0  0  0  0  0  0  0  0  0  0
  138.9994   81.5489  225.3245 H   0  0  0  0  0  0  0  0  0  0  0  0
  139.8778   79.5846  224.1968 H   0  0  0  0  0  0  0  0  0  0  0  0
  136.9359   77.3200  221.6569 H   0  0  0  0  0  0  0  0  0  0  0  0
  138.2445   77.3424  220.4393 H   0  0  0  0  0  0  0  0  0  0  0  0
  138.1564   75.6133  222.9755 H   0  0  0  0  0  0  0  0  0  0  0  0
  137.8813   75.0476  221.2809 H   0  0  0  0  0  0  0  0  0  0  0  0
  138.2884   70.7697  224.3145 H   0  0  0  0  0  0  0  0  0  0  0  0
  138.7103   70.2823  222.6674 H   0  0  0  0  0  0  0  0  0  0  0  0
  138.7432   68.2488  224.1128 H   0  0  0  0  0  0  0  0  0  0  0  0
  140.4221   68.6051  223.6946 H   0  0  0  0  0  0  0  0  0  0  0  0
  138.6668   67.5354  226.3578 H   0  0  0  0  0  0  0  0  0  0  0  0
  139.1965   67.9714  228.7758 H   0  0  0  0  0  0  0  0  0  0  0  0
  140.6576   69.8964  229.3641 H   0  0  0  0  0  0  0  0  0  0  0  0
  141.5763   71.3625  227.5998 H   0  0  0  0  0  0  0  0  0  0  0  0
  141.3325   72.1541  225.2877 H   0  0  0  0  0  0  0  0  0  0  0  0
  142.1165   70.6891  224.5477 H   0  0  0  0  0  0  0  0  0  0  0  0
  144.2199   71.7959  220.9783 H   0  0  0  0  0  0  0  0  0  0  0  0
  143.3279   70.3934  220.2564 H   0  0  0  0  0  0  0  0  0  0  0  0
  145.6203   70.6134  219.4259 H   0  0  0  0  0  0  0  0  0  0  0  0
  144.3210   70.7986  218.1409 H   0  0  0  0  0  0  0  0  0  0  0  0
  1  2  1  0
  2  3  2  0
  2  4  1  0
  4  5  1  0
  5  6  1  0
  6  7  1  0
  7  8  1  0
  8  9  1  0
  9 10  2  0
 10 11  1  0
 11 12  1  0
 12 13  1  0
 13 14  1  0
 14 15  1  0
 15 16  1  0
 16 17  2  0
 17 18  1  0
 18 19  2  0
 19 20  1  0
 20 21  2  0
 15 22  1  0
 22 23  1  0
 11 24  2  0
 24 25  1  0
 25 26  1  0
 26 27  1  0
 27 28  1  0
 28 29  1  0
 29 30  2  0
 30 31  1  0
 31 32  2  0
 32 33  1  0
 33 34  2  0
 34 35  1  0
 25 36  2  0
  8 37  1  0
 37 38  1  0
 38  5  1  0
 36  9  1  0
 23 12  1  0
 35 26  1  0
 21 16  1  0
 34 29  1  0
  1 39  1  0
  1 40  1  0
  4 41  1  0
  4 42  1  0
  6 43  1  0
  6 44  1  0
  7 45  1  0
  7 46  1  0
  8 47  1  0
 13 48  1  0
 13 49  1  0
 14 50  1  0
 14 51  1  0
 17 52  1  0
 18 53  1  0
 19 54  1  0
 20 55  1  0
 21 56  1  0
 22 57  1  0
 22 58  1  0
 23 59  1  0
 23 60  1  0
 27 61  1  0
 27 62  1  0
 28 63  1  0
 28 64  1  0
 30 65  1  0
 31 66  1  0
 32 67  1  0
 33 68  1  0
 35 69  1  0
 35 70  1  0
 37 71  1  0
 37 72  1  0
 38 73  1  0
 38 74  1  0
M  END
>  <smiles>  (38) 
NC(=O)CN1CCC(c2nc(N3CCN(c4ccccc4)CC3)nc(N3CCc4ccccc4C3)n2)CC1

>  <score_type>  (38) 
oracle

>  <origin>  (38) 
autodockgpu

>  <m_score__min__energy>  (38) 
-9.5199999999999996

>  <m_primary>  (38) 
energy

>  <rmsd>  (38) 
8.346197241045077

>  <m_score__min__rmsd>  (38) 
8.346197241045077

>  <meeko>  (38) 
{"free_energy": -9.4, "intermolecular_energy": -11.19, "internal_energy": -1.37, "cluster_size": 25, "cluster_id": 1, "rank_in_cluster": 7}

>  <energy>  (38) 
-8.44

>  <cluster_rmsd>  (38) 
1.36

>  <cluster>  (38) 
3

$$$$

     RDKit          3D

 74 79  0  0  0  0  0  0  0  0999 V2000
  145.9050   74.7120  216.0480 N   0  0  0  0  0  0  0  0  0  0  0  0
  146.4320   73.4110  216.2930 C   0  0  0  0  0  0  0  0  0  0  0  0
  147.6040   73.1200  215.9320 O   0  0  0  0  0  0  0  0  0  0  0  0
  145.5370   72.4450  216.9800 C   0  0  0  0  0  0  0  0  0  0  0  0
  145.4340   72.7100  218.3960 N   0  0  0  0  0  0  0  0  0  0  0  0
  144.5050   73.7690  218.6790 C   0  0  0  0  0  0  0  0  0  0  0  0
  143.0760   73.2870  218.7500 C   0  0  0  0  0  0  0  0  0  0  0  0
  142.8700   72.1420  219.7040 C   0  0  0  0  0  0  0  0  0  0  0  0
  141.9300   72.5380  220.7760 C   0  0  0  0  0  0  0  0  0  0  0  0
  141.4330   73.7850  220.7370 N   0  0  0  0  0  0  0  0  0  0  0  0
  140.5790   74.1540  221.7080 C   0  0  0  0  0  0  0  0  0  0  0  0
  140.0370   75.4690  221.6930 N   0  0  0  0  0  0  0  0  0  0  0  0
  140.8550   76.6290  221.3840 C   0  0  0  0  0  0  0  0  0  0  0  0
  140.4610   77.8150  222.2510 C   0  0  0  0  0  0  0  0  0  0  0  0
  139.0320   78.0690  222.1790 N   0  0  0  0  0  0  0  0  0  0  0  0
  138.5430   79.2650  222.7740 C   0  0  0  0  0  0  0  0  0  0  0  0
  138.9410   79.7130  224.0180 C   0  0  0  0  0  0  0  0  0  0  0  0
  138.4350   80.8920  224.5540 C   0  0  0  0  0  0  0  0  0  0  0  0
  137.5230   81.6520  223.8680 C   0  0  0  0  0  0  0  0  0  0  0  0
  137.1140   81.2170  222.6210 C   0  0  0  0  0  0  0  0  0  0  0  0
  137.6190   80.0630  222.1110 C   0  0  0  0  0  0  0  0  0  0  0  0
  138.2170   77.0980  221.5140 C   0  0  0  0  0  0  0  0  0  0  0  0
  138.6430   75.7100  221.9880 C   0  0  0  0  0  0  0  0  0  0  0  0
  140.2160   73.3190  222.6980 N   0  0  0  0  0  0  0  0  0  0  0  0
  140.7050   72.0550  222.7560 C   0  0  0  0  0  0  0  0  0  0  0  0
  140.3450   71.1450  223.7880 N   0  0  0  0  0  0  0  0  0  0  0  0
  139.1170   70.3680  223.7350 C   0  0  0  0  0  0  0  0  0  0  0  0
  139.4830   68.9760  224.2690 C   0  0  0  0  0  0  0  0  0  0  0  0
  139.8040   69.1810  225.7070 C   0  0  0  0  0  0  0  0  0  0  0  0
  139.2390   68.3810  226.6800 C   0  0  0  0  0  0  0  0  0  0  0  0
  139.5650   68.6010  228.0220 C   0  0  0  0  0  0  0  0  0  0  0  0
  140.4480   69.6200  228.3330 C   0  0  0  0  0  0  0  0  0  0  0  0
  141.0020   70.4080  227.3380 C   0  0  0  0  0  0  0  0  0  0  0  0
  140.6870   70.2000  226.0060 C   0  0  0  0  0  0  0  0  0  0  0  0
  141.2530   71.0150  224.9110 C   0  0  0  0  0  0  0  0  0  0  0  0
  141.5590   71.7090  221.7750 N   0  0  0  0  0  0  0  0  0  0  0  0
  144.1950   71.6660  220.2490 C   0  0  0  0  0  0  0  0  0  0  0  0
  145.2150   71.5270  219.1680 C   0  0  0  0  0  0  0  0  0  0  0  0
  145.8200   75.0690  215.0660 H   0  0  0  0  0  0  0  0  0  0  0  0
  145.6000   75.3220  216.8550 H   0  0  0  0  0  0  0  0  0  0  0  0
  144.5341   72.5115  216.5331 H   0  0  0  0  0  0  0  0  0  0  0  0
  145.9649   71.4394  216.8545 H   0  0  0  0  0  0  0  0  0  0  0  0
  144.7719   74.2224  219.6450 H   0  0  0  0  0  0  0  0  0  0  0  0
  144.5698   74.4965  217.8564 H   0  0  0  0  0  0  0  0  0  0  0  0
  142.4422   74.1261  219.0728 H   0  0  0  0  0  0  0  0  0  0  0  0
  142.8102   72.9214  217.7472 H   0  0  0  0  0  0  0  0  0  0  0  0
  142.4191   71.2941  219.1675 H   0  0  0  0  0  0  0  0  0  0  0  0
  141.9117   76.3840  221.5668 H   0  0  0  0  0  0  0  0  0  0  0  0
  140.7010   76.8976  220.3285 H   0  0  0  0  0  0  0  0  0  0  0  0
  140.7352   77.6027  223.2949 H   0  0  0  0  0  0  0  0  0  0  0  0
  140.9913   78.7058  221.8832 H   0  0  0  0  0  0  0  0  0  0  0  0
  139.6712   79.1268  224.5952 H   0  0  0  0  0  0  0  0  0  0  0  0
  138.7729   81.2214  225.5476 H   0  0  0  0  0  0  0  0  0  0  0  0
  137.1270   82.5836  224.2986 H   0  0  0  0  0  0  0  0  0  0  0  0
  136.3829   81.8025  222.0441 H   0  0  0  0  0  0  0  0  0  0  0  0
  137.2765   79.7423  221.1161 H   0  0  0  0  0  0  0  0  0  0  0  0
  137.1589   77.2675  221.7623 H   0  0  0  0  0  0  0  0  0  0  0  0
  138.3408   77.1812  220.4242 H   0  0  0  0  0  0  0  0  0  0  0  0
  138.4871   75.6370  223.0744 H   0  0  0  0  0  0  0  0  0  0  0  0
  138.0374   74.9578  221.4612 H   0  0  0  0  0  0  0  0  0  0  0  0
  138.3434   70.8297  224.3662 H   0  0  0  0  0  0  0  0  0  0  0  0
  138.7122   70.3175  222.7134 H   0  0  0  0  0  0  0  0  0  0  0  0
  138.6343   68.2850  224.1581 H   0  0  0  0  0  0  0  0  0  0  0  0
  140.3266   68.5337  223.7188 H   0  0  0  0  0  0  0  0  0  0  0  0
  138.5395   67.5787  226.4025 H   0  0  0  0  0  0  0  0  0  0  0  0
  139.1280   67.9762  228.8149 H   0  0  0  0  0  0  0  0  0  0  0  0
  140.7133   69.8066  229.3841 H   0  0  0  0  0  0  0  0  0  0  0  0
  141.7027   71.2111  227.6100 H   0  0  0  0  0  0  0  0  0  0  0  0
  141.4794   72.0189  225.2994 H   0  0  0  0  0  0  0  0  0  0  0  0
  142.1593   70.5065  224.5504 H   0  0  0  0  0  0  0  0  0  0  0  0
  144.5577   72.3926  220.9909 H   0  0  0  0  0  0  0  0  0  0  0  0
  144.0435   70.6782  220.7086 H   0  0  0  0  0  0  0  0  0  0  0  0
  146.1697   71.2399  219.6329 H   0  0  0  0  0  0  0  0  0  0  0  0
  144.8271   70.7694  218.4712 H   0  0  0  0  0  0  0  0  0  0  0  0
  1  2  1  0
  2  3  2  0
  2  4  1  0
  4  5  1  0
  5  6  1  0
  6  7  1  0
  7  8  1  0
  8  9  1  0
  9 10  2  0
 10 11  1  0
 11 12  1  0
 12 13  1  0
 13 14  1  0
 14 15  1  0
 15 16  1  0
 16 17  2  0
 17 18  1  0
 18 19  2  0
 19 20  1  0
 20 21  2  0
 15 22  1  0
 22 23  1  0
 11 24  2  0
 24 25  1  0
 25 26  1  0
 26 27  1  0
 27 28  1  0
 28 29  1  0
 29 30  2  0
 30 31  1  0
 31 32  2  0
 32 33  1  0
 33 34  2  0
 34 35  1  0
 25 36  2  0
  8 37  1  0
 37 38  1  0
 38  5  1  0
 36  9  1  0
 23 12  1  0
 35 26  1  0
 21 16  1  0
 34 29  1  0
  1 39  1  0
  1 40  1  0
  4 41  1  0
  4 42  1  0
  6 43  1  0
  6 44  1  0
  7 45  1  0
  7 46  1  0
  8 47  1  0
 13 48  1  0
 13 49  1  0
 14 50  1  0
 14 51  1  0
 17 52  1  0
 18 53  1  0
 19 54  1  0
 20 55  1  0
 21 56  1  0
 22 57  1  0
 22 58  1  0
 23 59  1  0
 23 60  1  0
 27 61  1  0
 27 62  1  0
 28 63  1  0
 28 64  1  0
 30 65  1  0
 31 66  1  0
 32 67  1  0
 33 68  1  0
 35 69  1  0
 35 70  1  0
 37 71  1  0
 37 72  1  0
 38 73  1  0
 38 74  1  0
M  END
>  <smiles>  (39) 
NC(=O)CN1CCC(c2nc(N3CCN(c4ccccc4)CC3)nc(N3CCc4ccccc4C3)n2)CC1

>  <score_type>  (39) 
oracle

>  <origin>  (39) 
autodockgpu

>  <m_score__min__energy>  (39) 
-9.5199999999999996

>  <m_primary>  (39) 
energy

>  <rmsd>  (39) 
8.50346651497073

>  <m_score__min__rmsd>  (39) 
8.50346651497073

>  <meeko>  (39) 
{"free_energy": -9.43, "intermolecular_energy": -11.22, "internal_energy": -1.4, "cluster_size": 25, "cluster_id": 1, "rank_in_cluster": 6}

>  <energy>  (39) 
-8.44

>  <cluster_rmsd>  (39) 
1.1

>  <cluster>  (39) 
3

$$$$

     RDKit          3D

 74 79  0  0  0  0  0  0  0  0999 V2000
  145.1410   74.0090  217.2160 N   0  0  0  0  0  0  0  0  0  0  0  0
  145.5890   72.8750  217.9530 C   0  0  0  0  0  0  0  0  0  0  0  0
  146.3140   73.0230  218.9740 O   0  0  0  0  0  0  0  0  0  0  0  0
  145.1600   71.5420  217.4560 C   0  0  0  0  0  0  0  0  0  0  0  0
  143.8400   71.1850  217.9210 N   0  0  0  0  0  0  0  0  0  0  0  0
  143.8000   71.0210  219.3480 C   0  0  0  0  0  0  0  0  0  0  0  0
  143.6120   72.3290  220.0800 C   0  0  0  0  0  0  0  0  0  0  0  0
  142.4220   73.1190  219.6090 C   0  0  0  0  0  0  0  0  0  0  0  0
  141.4610   73.3000  220.7210 C   0  0  0  0  0  0  0  0  0  0  0  0
  140.8540   74.4930  220.8290 N   0  0  0  0  0  0  0  0  0  0  0  0
  139.9800   74.6670  221.8360 C   0  0  0  0  0  0  0  0  0  0  0  0
  139.3240   75.9200  221.9770 N   0  0  0  0  0  0  0  0  0  0  0  0
  139.9990   77.1740  221.6890 C   0  0  0  0  0  0  0  0  0  0  0  0
  139.5870   78.2510  222.6810 C   0  0  0  0  0  0  0  0  0  0  0  0
  138.1400   78.3690  222.7620 N   0  0  0  0  0  0  0  0  0  0  0  0
  137.6070   79.4660  223.4930 C   0  0  0  0  0  0  0  0  0  0  0  0
  138.3840   80.3400  224.2260 C   0  0  0  0  0  0  0  0  0  0  0  0
  137.8140   81.4000  224.9220 C   0  0  0  0  0  0  0  0  0  0  0  0
  136.4590   81.6160  224.9060 C   0  0  0  0  0  0  0  0  0  0  0  0
  135.6680   80.7490  224.1760 C   0  0  0  0  0  0  0  0  0  0  0  0
  136.2410   79.7180  223.5010 C   0  0  0  0  0  0  0  0  0  0  0  0
  137.3550   77.3730  222.0980 C   0  0  0  0  0  0  0  0  0  0  0  0
  137.9490   76.0020  222.4170 C   0  0  0  0  0  0  0  0  0  0  0  0
  139.7040   73.6920  222.7200 N   0  0  0  0  0  0  0  0  0  0  0  0
  140.3030   72.4780  222.6290 C   0  0  0  0  0  0  0  0  0  0  0  0
  140.0360   71.4240  223.5450 N   0  0  0  0  0  0  0  0  0  0  0  0
  138.8010   70.6590  223.4980 C   0  0  0  0  0  0  0  0  0  0  0  0
  139.2040   69.2050  223.7820 C   0  0  0  0  0  0  0  0  0  0  0  0
  139.6650   69.1950  225.1970 C   0  0  0  0  0  0  0  0  0  0  0  0
  139.1890   68.2580  226.0920 C   0  0  0  0  0  0  0  0  0  0  0  0
  139.6460   68.2800  227.4130 C   0  0  0  0  0  0  0  0  0  0  0  0
  140.5650   69.2450  227.7840 C   0  0  0  0  0  0  0  0  0  0  0  0
  141.0270   70.1740  226.8660 C   0  0  0  0  0  0  0  0  0  0  0  0
  140.5830   70.1630  225.5550 C   0  0  0  0  0  0  0  0  0  0  0  0
  141.0480   71.1340  224.5430 C   0  0  0  0  0  0  0  0  0  0  0  0
  141.1750   72.3290  221.6140 N   0  0  0  0  0  0  0  0  0  0  0  0
  141.7910   72.4580  218.4080 C   0  0  0  0  0  0  0  0  0  0  0  0
  142.8190   72.0420  217.4080 C   0  0  0  0  0  0  0  0  0  0  0  0
  145.8360   74.6580  216.7760 H   0  0  0  0  0  0  0  0  0  0  0  0
  144.1070   74.2010  217.1140 H   0  0  0  0  0  0  0  0  0  0  0  0
  145.1556   71.5587  216.3561 H   0  0  0  0  0  0  0  0  0  0  0  0
  145.8678   70.7938  217.8423 H   0  0  0  0  0  0  0  0  0  0  0  0
  142.9644   70.3522  219.6021 H   0  0  0  0  0  0  0  0  0  0  0  0
  144.7671   70.6008  219.6614 H   0  0  0  0  0  0  0  0  0  0  0  0
  143.4835   72.1125  221.1508 H   0  0  0  0  0  0  0  0  0  0  0  0
  144.5040   72.9408  219.8799 H   0  0  0  0  0  0  0  0  0  0  0  0
  142.7501   74.1193  219.2899 H   0  0  0  0  0  0  0  0  0  0  0  0
  141.0864   77.0212  221.7539 H   0  0  0  0  0  0  0  0  0  0  0  0
  139.7174   77.5011  220.6772 H   0  0  0  0  0  0  0  0  0  0  0  0
  139.9816   77.9927  223.6748 H   0  0  0  0  0  0  0  0  0  0  0  0
  139.9952   79.2132  222.3382 H   0  0  0  0  0  0  0  0  0  0  0  0
  139.4739   80.1953  224.2601 H   0  0  0  0  0  0  0  0  0  0  0  0
  138.4617   82.0786  225.4965 H   0  0  0  0  0  0  0  0  0  0  0  0
  136.0144   82.4564  225.4592 H   0  0  0  0  0  0  0  0  0  0  0  0
  134.5780   80.8930  224.1415 H   0  0  0  0  0  0  0  0  0  0  0  0
  135.5859   79.0449  222.9285 H   0  0  0  0  0  0  0  0  0  0  0  0
  136.3155   77.4200  222.4547 H   0  0  0  0  0  0  0  0  0  0  0  0
  137.3635   77.5461  221.0117 H   0  0  0  0  0  0  0  0  0  0  0  0
  137.9081   75.8358  223.5036 H   0  0  0  0  0  0  0  0  0  0  0  0
  137.3647   75.2344  221.8885 H   0  0  0  0  0  0  0  0  0  0  0  0
  138.0973   71.0187  224.2631 H   0  0  0  0  0  0  0  0  0  0  0  0
  138.2975   70.7589  222.5251 H   0  0  0  0  0  0  0  0  0  0  0  0
  138.3421   68.5339  223.6527 H   0  0  0  0  0  0  0  0  0  0  0  0
  139.9864   68.8541  223.0931 H   0  0  0  0  0  0  0  0  0  0  0  0
  138.4579   67.5021  225.7692 H   0  0  0  0  0  0  0  0  0  0  0  0
  139.2814   67.5434  228.1441 H   0  0  0  0  0  0  0  0  0  0  0  0
  140.9333   69.2751  228.8201 H   0  0  0  0  0  0  0  0  0  0  0  0
  141.7579   70.9321  227.1838 H   0  0  0  0  0  0  0  0  0  0  0  0
  141.3203   72.0705  225.0517 H   0  0  0  0  0  0  0  0  0  0  0  0
  141.9106   70.6895  224.0249 H   0  0  0  0  0  0  0  0  0  0  0  0
  141.2355   71.5687  218.7404 H   0  0  0  0  0  0  0  0  0  0  0  0
  141.1180   73.1842  217.9288 H   0  0  0  0  0  0  0  0  0  0  0  0
  142.3071   71.5133  216.5904 H   0  0  0  0  0  0  0  0  0  0  0  0
  143.3231   72.9630  217.0801 H   0  0  0  0  0  0  0  0  0  0  0  0
  1  2  1  0
  2  3  2  0
  2  4  1  0
  4  5  1  0
  5  6  1  0
  6  7  1  0
  7  8  1  0
  8  9  1  0
  9 10  2  0
 10 11  1  0
 11 12  1  0
 12 13  1  0
 13 14  1  0
 14 15  1  0
 15 16  1  0
 16 17  2  0
 17 18  1  0
 18 19  2  0
 19 20  1  0
 20 21  2  0
 15 22  1  0
 22 23  1  0
 11 24  2  0
 24 25  1  0
 25 26  1  0
 26 27  1  0
 27 28  1  0
 28 29  1  0
 29 30  2  0
 30 31  1  0
 31 32  2  0
 32 33  1  0
 33 34  2  0
 34 35  1  0
 25 36  2  0
  8 37  1  0
 37 38  1  0
 38  5  1  0
 36  9  1  0
 23 12  1  0
 35 26  1  0
 21 16  1  0
 34 29  1  0
  1 39  1  0
  1 40  1  0
  4 41  1  0
  4 42  1  0
  6 43  1  0
  6 44  1  0
  7 45  1  0
  7 46  1  0
  8 47  1  0
 13 48  1  0
 13 49  1  0
 14 50  1  0
 14 51  1  0
 17 52  1  0
 18 53  1  0
 19 54  1  0
 20 55  1  0
 21 56  1  0
 22 57  1  0
 22 58  1  0
 23 59  1  0
 23 60  1  0
 27 61  1  0
 27 62  1  0
 28 63  1  0
 28 64  1  0
 30 65  1  0
 31 66  1  0
 32 67  1  0
 33 68  1  0
 35 69  1  0
 35 70  1  0
 37 71  1  0
 37 72  1  0
 38 73  1  0
 38 74  1  0
M  END
>  <smiles>  (40) 
NC(=O)CN1CCC(c2nc(N3CCN(c4ccccc4)CC3)nc(N3CCc4ccccc4C3)n2)CC1

>  <score_type>  (40) 
oracle

>  <origin>  (40) 
autodockgpu

>  <m_score__min__energy>  (40) 
-9.5199999999999996

>  <m_primary>  (40) 
energy

>  <rmsd>  (40) 
8.673847124862306

>  <m_score__min__rmsd>  (40) 
8.673847124862306

>  <meeko>  (40) 
{"free_energy": -8.76, "intermolecular_energy": -10.55, "internal_energy": -1.32, "cluster_size": 25, "cluster_id": 1, "rank_in_cluster": 17}

>  <energy>  (40) 
-8.33

>  <cluster_rmsd>  (40) 
1.2

>  <cluster>  (40) 
3

$$$$

     RDKit          3D

 74 79  0  0  0  0  0  0  0  0999 V2000
  146.2100   68.3600  217.6500 N   0  0  0  0  0  0  0  0  0  0  0  0
  146.0140   68.8570  218.9710 C   0  0  0  0  0  0  0  0  0  0  0  0
  145.8650   68.0600  219.9360 O   0  0  0  0  0  0  0  0  0  0  0  0
  145.9950   70.3330  219.1350 C   0  0  0  0  0  0  0  0  0  0  0  0
  144.7350   70.9110  218.7300 N   0  0  0  0  0  0  0  0  0  0  0  0
  143.7010   70.6790  219.7000 C   0  0  0  0  0  0  0  0  0  0  0  0
  143.7110   71.6940  220.8180 C   0  0  0  0  0  0  0  0  0  0  0  0
  143.6710   73.1190  220.3410 C   0  0  0  0  0  0  0  0  0  0  0  0
  142.4500   73.7890  220.8440 C   0  0  0  0  0  0  0  0  0  0  0  0
  141.4220   73.0070  221.2140 N   0  0  0  0  0  0  0  0  0  0  0  0
  140.3090   73.6060  221.6730 C   0  0  0  0  0  0  0  0  0  0  0  0
  139.2030   72.8050  222.0700 N   0  0  0  0  0  0  0  0  0  0  0  0
  137.8580   73.0630  221.5850 C   0  0  0  0  0  0  0  0  0  0  0  0
  136.8320   72.8260  222.6830 C   0  0  0  0  0  0  0  0  0  0  0  0
  136.9970   71.5120  223.2850 N   0  0  0  0  0  0  0  0  0  0  0  0
  135.9900   71.0670  224.1840 C   0  0  0  0  0  0  0  0  0  0  0  0
  135.0380   71.9020  224.7330 C   0  0  0  0  0  0  0  0  0  0  0  0
  134.0710   71.4170  225.6070 C   0  0  0  0  0  0  0  0  0  0  0  0
  134.0270   70.0900  225.9540 C   0  0  0  0  0  0  0  0  0  0  0  0
  134.9740   69.2410  225.4120 C   0  0  0  0  0  0  0  0  0  0  0  0
  135.9120   69.7320  224.5600 C   0  0  0  0  0  0  0  0  0  0  0  0
  138.1620   70.7600  222.9280 C   0  0  0  0  0  0  0  0  0  0  0  0
  139.3700   71.6940  222.9800 C   0  0  0  0  0  0  0  0  0  0  0  0
  140.2020   74.9430  221.7680 N   0  0  0  0  0  0  0  0  0  0  0  0
  141.2290   75.7510  221.4010 C   0  0  0  0  0  0  0  0  0  0  0  0
  141.1520   77.1690  221.4880 N   0  0  0  0  0  0  0  0  0  0  0  0
  141.1620   78.0130  220.3050 C   0  0  0  0  0  0  0  0  0  0  0  0
  140.1470   79.1310  220.5850 C   0  0  0  0  0  0  0  0  0  0  0  0
  140.7380   79.9290  221.6920 C   0  0  0  0  0  0  0  0  0  0  0  0
  140.8240   81.3040  221.6080 C   0  0  0  0  0  0  0  0  0  0  0  0
  141.3850   82.0220  222.6680 C   0  0  0  0  0  0  0  0  0  0  0  0
  141.8400   81.3270  223.7750 C   0  0  0  0  0  0  0  0  0  0  0  0
  141.7420   79.9460  223.8350 C   0  0  0  0  0  0  0  0  0  0  0  0
  141.1880   79.2250  222.7920 C   0  0  0  0  0  0  0  0  0  0  0  0
  141.0630   77.7520  222.8130 C   0  0  0  0  0  0  0  0  0  0  0  0
  142.3310   75.1300  220.9450 N   0  0  0  0  0  0  0  0  0  0  0  0
  143.7750   73.1750  218.8360 C   0  0  0  0  0  0  0  0  0  0  0  0
  144.8540   72.2770  218.3280 C   0  0  0  0  0  0  0  0  0  0  0  0
  145.4770   67.7620  217.1990 H   0  0  0  0  0  0  0  0  0  0  0  0
  147.0950   68.5920  217.1220 H   0  0  0  0  0  0  0  0  0  0  0  0
  146.1712   70.5740  220.1937 H   0  0  0  0  0  0  0  0  0  0  0  0
  146.7818   70.7542  218.4920 H   0  0  0  0  0  0  0  0  0  0  0  0
  142.7261   70.7243  219.1925 H   0  0  0  0  0  0  0  0  0  0  0  0
  143.8817   69.6906  220.1476 H   0  0  0  0  0  0  0  0  0  0  0  0
  142.8326   71.5166  221.4559 H   0  0  0  0  0  0  0  0  0  0  0  0
  144.6581   71.5636  221.3620 H   0  0  0  0  0  0  0  0  0  0  0  0
  144.5372   73.6636  220.7449 H   0  0  0  0  0  0  0  0  0  0  0  0
  137.7906   74.1080  221.2481 H   0  0  0  0  0  0  0  0  0  0  0  0
  137.6466   72.3771  220.7515 H   0  0  0  0  0  0  0  0  0  0  0  0
  136.9550   73.5944  223.4604 H   0  0  0  0  0  0  0  0  0  0  0  0
  135.8276   72.8806  222.2377 H   0  0  0  0  0  0  0  0  0  0  0  0
  135.0442   72.9712  224.4744 H   0  0  0  0  0  0  0  0  0  0  0  0
  133.3276   72.1099  226.0280 H   0  0  0  0  0  0  0  0  0  0  0  0
  133.2589   69.7120  226.6448 H   0  0  0  0  0  0  0  0  0  0  0  0
  134.9683   68.1716  225.6696 H   0  0  0  0  0  0  0  0  0  0  0  0
  136.6519   69.0322  224.1443 H   0  0  0  0  0  0  0  0  0  0  0  0
  138.3017   69.9312  223.6377 H   0  0  0  0  0  0  0  0  0  0  0  0
  138.0487   70.3427  221.9166 H   0  0  0  0  0  0  0  0  0  0  0  0
  139.4824   72.0807  224.0036 H   0  0  0  0  0  0  0  0  0  0  0  0
  140.2650   71.1278  222.6826 H   0  0  0  0  0  0  0  0  0  0  0  0
  142.1645   78.4363  220.1441 H   0  0  0  0  0  0  0  0  0  0  0  0
  140.9024   77.4459  219.3989 H   0  0  0  0  0  0  0  0  0  0  0  0
  140.0066   79.7567  219.6913 H   0  0  0  0  0  0  0  0  0  0  0  0
  139.1579   78.7299  220.8512 H   0  0  0  0  0  0  0  0  0  0  0  0
  140.4545   81.8299  220.7153 H   0  0  0  0  0  0  0  0  0  0  0  0
  141.4633   83.1183  222.6232 H   0  0  0  0  0  0  0  0  0  0  0  0
  142.2847   81.8774  224.6172 H   0  0  0  0  0  0  0  0  0  0  0  0
  142.1102   79.4150  224.7252 H   0  0  0  0  0  0  0  0  0  0  0  0
  141.8699   77.3382  223.4356 H   0  0  0  0  0  0  0  0  0  0  0  0
  140.0715   77.5061  223.2209 H   0  0  0  0  0  0  0  0  0  0  0  0
  142.8149   72.8624  218.3996 H   0  0  0  0  0  0  0  0  0  0  0  0
  144.0199   74.2072  218.5453 H   0  0  0  0  0  0  0  0  0  0  0  0
  144.8397   72.3127  217.2287 H   0  0  0  0  0  0  0  0  0  0  0  0
  145.7947   72.6468  218.7619 H   0  0  0  0  0  0  0  0  0  0  0  0
  1  2  1  0
  2  3  2  0
  2  4  1  0
  4  5  1  0
  5  6  1  0
  6  7  1  0
  7  8  1  0
  8  9  1  0
  9 10  2  0
 10 11  1  0
 11 12  1  0
 12 13  1  0
 13 14  1  0
 14 15  1  0
 15 16  1  0
 16 17  2  0
 17 18  1  0
 18 19  2  0
 19 20  1  0
 20 21  2  0
 15 22  1  0
 22 23  1  0
 11 24  2  0
 24 25  1  0
 25 26  1  0
 26 27  1  0
 27 28  1  0
 28 29  1  0
 29 30  2  0
 30 31  1  0
 31 32  2  0
 32 33  1  0
 33 34  2  0
 34 35  1  0
 25 36  2  0
  8 37  1  0
 37 38  1  0
 38  5  1  0
 36  9  1  0
 23 12  1  0
 35 26  1  0
 21 16  1  0
 34 29  1  0
  1 39  1  0
  1 40  1  0
  4 41  1  0
  4 42  1  0
  6 43  1  0
  6 44  1  0
  7 45  1  0
  7 46  1  0
  8 47  1  0
 13 48  1  0
 13 49  1  0
 14 50  1  0
 14 51  1  0
 17 52  1  0
 18 53  1  0
 19 54  1  0
 20 55  1  0
 21 56  1  0
 22 57  1  0
 22 58  1  0
 23 59  1  0
 23 60  1  0
 27 61  1  0
 27 62  1  0
 28 63  1  0
 28 64  1  0
 30 65  1  0
 31 66  1  0
 32 67  1  0
 33 68  1  0
 35 69  1  0
 35 70  1  0
 37 71  1  0
 37 72  1  0
 38 73  1  0
 38 74  1  0
M  END
>  <smiles>  (41) 
NC(=O)CN1CCC(c2nc(N3CCN(c4ccccc4)CC3)nc(N3CCc4ccccc4C3)n2)CC1

>  <score_type>  (41) 
oracle

>  <origin>  (41) 
autodockgpu

>  <m_score__min__energy>  (41) 
-9.5199999999999996

>  <m_primary>  (41) 
energy

>  <rmsd>  (41) 
5.217217055060214

>  <m_score__min__rmsd>  (41) 
5.217217055060214

>  <meeko>  (41) 
{"free_energy": -8.33, "intermolecular_energy": -10.12, "internal_energy": -1.4, "cluster_size": 11, "cluster_id": 3, "rank_in_cluster": 10}

>  <energy>  (41) 
-8.3

>  <cluster_rmsd>  (41) 
1.75

>  <cluster>  (41) 
3

$$$$

     RDKit          3D

 74 79  0  0  0  0  0  0  0  0999 V2000
  144.1090   68.9400  219.0440 N   0  0  0  0  0  0  0  0  0  0  0  0
  145.4590   69.3900  218.9670 C   0  0  0  0  0  0  0  0  0  0  0  0
  146.3380   68.9040  219.7270 O   0  0  0  0  0  0  0  0  0  0  0  0
  145.7570   70.4420  217.9610 C   0  0  0  0  0  0  0  0  0  0  0  0
  145.4420   71.7650  218.4450 N   0  0  0  0  0  0  0  0  0  0  0  0
  144.1230   72.1800  218.0570 C   0  0  0  0  0  0  0  0  0  0  0  0
  143.0530   71.6740  218.9950 C   0  0  0  0  0  0  0  0  0  0  0  0
  143.3050   72.0130  220.4380 C   0  0  0  0  0  0  0  0  0  0  0  0
  142.2100   72.8630  220.9590 C   0  0  0  0  0  0  0  0  0  0  0  0
  141.1050   72.2440  221.4080 N   0  0  0  0  0  0  0  0  0  0  0  0
  140.1040   73.0080  221.8820 C   0  0  0  0  0  0  0  0  0  0  0  0
  138.9220   72.3820  222.3630 N   0  0  0  0  0  0  0  0  0  0  0  0
  137.6120   72.7060  221.8250 C   0  0  0  0  0  0  0  0  0  0  0  0
  136.5630   72.7220  222.9270 C   0  0  0  0  0  0  0  0  0  0  0  0
  136.5910   71.4910  223.7000 N   0  0  0  0  0  0  0  0  0  0  0  0
  135.5400   71.2730  224.6330 C   0  0  0  0  0  0  0  0  0  0  0  0
  135.2860   70.0480  225.2180 C   0  0  0  0  0  0  0  0  0  0  0  0
  134.2470   69.8880  226.1270 C   0  0  0  0  0  0  0  0  0  0  0  0
  133.4370   70.9380  226.4770 C   0  0  0  0  0  0  0  0  0  0  0  0
  133.6790   72.1700  225.8990 C   0  0  0  0  0  0  0  0  0  0  0  0
  134.6990   72.3110  225.0120 C   0  0  0  0  0  0  0  0  0  0  0  0
  137.6750   70.5850  223.4660 C   0  0  0  0  0  0  0  0  0  0  0  0
  138.9710   71.3910  223.4140 C   0  0  0  0  0  0  0  0  0  0  0  0
  140.1820   74.3500  221.9170 N   0  0  0  0  0  0  0  0  0  0  0  0
  141.2890   74.9950  221.4700 C   0  0  0  0  0  0  0  0  0  0  0  0
  141.4070   76.4120  221.4910 N   0  0  0  0  0  0  0  0  0  0  0  0
  141.8620   77.1630  220.3330 C   0  0  0  0  0  0  0  0  0  0  0  0
  140.9900   78.4260  220.2880 C   0  0  0  0  0  0  0  0  0  0  0  0
  141.3760   79.2110  221.4930 C   0  0  0  0  0  0  0  0  0  0  0  0
  141.6880   80.5520  221.3950 C   0  0  0  0  0  0  0  0  0  0  0  0
  142.0440   81.2570  222.5480 C   0  0  0  0  0  0  0  0  0  0  0  0
  142.0740   80.5850  223.7570 C   0  0  0  0  0  0  0  0  0  0  0  0
  141.7560   79.2390  223.8280 C   0  0  0  0  0  0  0  0  0  0  0  0
  141.4010   78.5290  222.6940 C   0  0  0  0  0  0  0  0  0  0  0  0
  141.0540   77.0930  222.7220 C   0  0  0  0  0  0  0  0  0  0  0  0
  142.2760   74.2110  220.9990 N   0  0  0  0  0  0  0  0  0  0  0  0
  144.6580   72.6610  220.6000 C   0  0  0  0  0  0  0  0  0  0  0  0
  145.7120   71.9260  219.8390 C   0  0  0  0  0  0  0  0  0  0  0  0
  143.5690   69.0490  219.9350 H   0  0  0  0  0  0  0  0  0  0  0  0
  143.6500   68.4940  218.2040 H   0  0  0  0  0  0  0  0  0  0  0  0
  146.8278   70.4014  217.7127 H   0  0  0  0  0  0  0  0  0  0  0  0
  145.1329   70.2490  217.0760 H   0  0  0  0  0  0  0  0  0  0  0  0
  144.0893   73.2794  218.0451 H   0  0  0  0  0  0  0  0  0  0  0  0
  143.9205   71.7559  217.0625 H   0  0  0  0  0  0  0  0  0  0  0  0
  142.0916   72.1176  218.6968 H   0  0  0  0  0  0  0  0  0  0  0  0
  143.0506   70.5767  218.9181 H   0  0  0  0  0  0  0  0  0  0  0  0
  143.3173   71.0880  221.0331 H   0  0  0  0  0  0  0  0  0  0  0  0
  137.6522   73.6979  221.3512 H   0  0  0  0  0  0  0  0  0  0  0  0
  137.3352   71.9392  221.0864 H   0  0  0  0  0  0  0  0  0  0  0  0
  136.7608   73.5711  223.5978 H   0  0  0  0  0  0  0  0  0  0  0  0
  135.5711   72.8173  222.4612 H   0  0  0  0  0  0  0  0  0  0  0  0
  135.9167   69.1844  224.9601 H   0  0  0  0  0  0  0  0  0  0  0  0
  134.0706   68.8989  226.5750 H   0  0  0  0  0  0  0  0  0  0  0  0
  132.6172   70.8033  227.1980 H   0  0  0  0  0  0  0  0  0  0  0  0
  133.0480   73.0336  226.1561 H   0  0  0  0  0  0  0  0  0  0  0  0
  134.8680   73.3037  224.5692 H   0  0  0  0  0  0  0  0  0  0  0  0
  137.7273   69.8490  224.2818 H   0  0  0  0  0  0  0  0  0  0  0  0
  137.5233   70.0497  222.5171 H   0  0  0  0  0  0  0  0  0  0  0  0
  139.1189   71.8972  224.3793 H   0  0  0  0  0  0  0  0  0  0  0  0
  139.8041   70.7027  223.2086 H   0  0  0  0  0  0  0  0  0  0  0  0
  142.9226   77.4330  220.4435 H   0  0  0  0  0  0  0  0  0  0  0  0
  141.7733   76.5752  219.4074 H   0  0  0  0  0  0  0  0  0  0  0  0
  141.1914   79.0012  219.3723 H   0  0  0  0  0  0  0  0  0  0  0  0
  139.9169   78.1843  220.2815 H   0  0  0  0  0  0  0  0  0  0  0  0
  141.6568   81.0603  220.4200 H   0  0  0  0  0  0  0  0  0  0  0  0
  142.2957   82.3265  222.4953 H   0  0  0  0  0  0  0  0  0  0  0  0
  142.3538   81.1263  224.6728 H   0  0  0  0  0  0  0  0  0  0  0  0
  141.7860   78.7261  224.8007 H   0  0  0  0  0  0  0  0  0  0  0  0
  141.5912   76.6165  223.5553 H   0  0  0  0  0  0  0  0  0  0  0  0
  139.9638   77.0150  222.8462 H   0  0  0  0  0  0  0  0  0  0  0  0
  144.6055   73.6954  220.2295 H   0  0  0  0  0  0  0  0  0  0  0  0
  144.9250   72.6400  221.6669 H   0  0  0  0  0  0  0  0  0  0  0  0
  146.6574   72.4787  219.9429 H   0  0  0  0  0  0  0  0  0  0  0  0
  145.7525   70.9129  220.2657 H   0  0  0  0  0  0  0  0  0  0  0  0
  1  2  1  0
  2  3  2  0
  2  4  1  0
  4  5  1  0
  5  6  1  0
  6  7  1  0
  7  8  1  0
  8  9  1  0
  9 10  2  0
 10 11  1  0
 11 12  1  0
 12 13  1  0
 13 14  1  0
 14 15  1  0
 15 16  1  0
 16 17  2  0
 17 18  1  0
 18 19  2  0
 19 20  1  0
 20 21  2  0
 15 22  1  0
 22 23  1  0
 11 24  2  0
 24 25  1  0
 25 26  1  0
 26 27  1  0
 27 28  1  0
 28 29  1  0
 29 30  2  0
 30 31  1  0
 31 32  2  0
 32 33  1  0
 33 34  2  0
 34 35  1  0
 25 36  2  0
  8 37  1  0
 37 38  1  0
 38  5  1  0
 36  9  1  0
 23 12  1  0
 35 26  1  0
 21 16  1  0
 34 29  1  0
  1 39  1  0
  1 40  1  0
  4 41  1  0
  4 42  1  0
  6 43  1  0
  6 44  1  0
  7 45  1  0
  7 46  1  0
  8 47  1  0
 13 48  1  0
 13 49  1  0
 14 50  1  0
 14 51  1  0
 17 52  1  0
 18 53  1  0
 19 54  1  0
 20 55  1  0
 21 56  1  0
 22 57  1  0
 22 58  1  0
 23 59  1  0
 23 60  1  0
 27 61  1  0
 27 62  1  0
 28 63  1  0
 28 64  1  0
 30 65  1  0
 31 66  1  0
 32 67  1  0
 33 68  1  0
 35 69  1  0
 35 70  1  0
 37 71  1  0
 37 72  1  0
 38 73  1  0
 38 74  1  0
M  END
>  <smiles>  (42) 
NC(=O)CN1CCC(c2nc(N3CCN(c4ccccc4)CC3)nc(N3CCc4ccccc4C3)n2)CC1

>  <score_type>  (42) 
oracle

>  <origin>  (42) 
autodockgpu

>  <m_score__min__energy>  (42) 
-9.5199999999999996

>  <m_primary>  (42) 
energy

>  <rmsd>  (42) 
5.879574816406171

>  <m_score__min__rmsd>  (42) 
5.879574816406171

>  <meeko>  (42) 
{"free_energy": -8.88, "intermolecular_energy": -10.67, "internal_energy": -1.42, "cluster_size": 11, "cluster_id": 3, "rank_in_cluster": 6}

>  <energy>  (42) 
-8.42

>  <cluster_rmsd>  (42) 
0.0

>  <cluster>  (42) 
4

$$$$

     RDKit          3D

 74 79  0  0  0  0  0  0  0  0999 V2000
  144.4800   75.0650  216.9830 N   0  0  0  0  0  0  0  0  0  0  0  0
  144.8510   73.6930  216.8830 C   0  0  0  0  0  0  0  0  0  0  0  0
  144.2650   72.9320  216.0670 O   0  0  0  0  0  0  0  0  0  0  0  0
  145.9410   73.2280  217.7780 C   0  0  0  0  0  0  0  0  0  0  0  0
  145.4340   72.6460  218.9990 N   0  0  0  0  0  0  0  0  0  0  0  0
  145.0650   73.6480  219.9590 C   0  0  0  0  0  0  0  0  0  0  0  0
  143.6710   74.1850  219.7350 C   0  0  0  0  0  0  0  0  0  0  0  0
  142.6160   73.1160  219.6630 C   0  0  0  0  0  0  0  0  0  0  0  0
  141.6300   73.3010  220.7510 C   0  0  0  0  0  0  0  0  0  0  0  0
  141.0370   74.5020  220.8530 N   0  0  0  0  0  0  0  0  0  0  0  0
  140.1400   74.6800  221.8400 C   0  0  0  0  0  0  0  0  0  0  0  0
  139.4970   75.9410  221.9740 N   0  0  0  0  0  0  0  0  0  0  0  0
  140.2040   77.1890  221.7400 C   0  0  0  0  0  0  0  0  0  0  0  0
  139.7640   78.2540  222.7320 C   0  0  0  0  0  0  0  0  0  0  0  0
  138.3170   78.3950  222.7480 N   0  0  0  0  0  0  0  0  0  0  0  0
  137.7670   79.4870  223.4740 C   0  0  0  0  0  0  0  0  0  0  0  0
  138.5230   80.3360  224.2570 C   0  0  0  0  0  0  0  0  0  0  0  0
  137.9380   81.3920  224.9460 C   0  0  0  0  0  0  0  0  0  0  0  0
  136.5890   81.6300  224.8730 C   0  0  0  0  0  0  0  0  0  0  0  0
  135.8180   80.7880  224.0930 C   0  0  0  0  0  0  0  0  0  0  0  0
  136.4060   79.7600  223.4250 C   0  0  0  0  0  0  0  0  0  0  0  0
  137.5470   77.4230  222.0310 C   0  0  0  0  0  0  0  0  0  0  0  0
  138.1050   76.0380  222.3510 C   0  0  0  0  0  0  0  0  0  0  0  0
  139.8280   73.7030  222.7090 N   0  0  0  0  0  0  0  0  0  0  0  0
  140.4140   72.4820  222.6230 C   0  0  0  0  0  0  0  0  0  0  0  0
  140.1090   71.4250  223.5250 N   0  0  0  0  0  0  0  0  0  0  0  0
  138.8760   70.6620  223.4270 C   0  0  0  0  0  0  0  0  0  0  0  0
  139.2650   69.2060  223.7220 C   0  0  0  0  0  0  0  0  0  0  0  0
  139.6710   69.1910  225.1530 C   0  0  0  0  0  0  0  0  0  0  0  0
  139.1600   68.2510  226.0250 C   0  0  0  0  0  0  0  0  0  0  0  0
  139.5650   68.2670  227.3630 C   0  0  0  0  0  0  0  0  0  0  0  0
  140.4710   69.2290  227.7730 C   0  0  0  0  0  0  0  0  0  0  0  0
  140.9700   70.1610  226.8770 C   0  0  0  0  0  0  0  0  0  0  0  0
  140.5770   70.1560  225.5500 C   0  0  0  0  0  0  0  0  0  0  0  0
  141.0820   71.1290  224.5600 C   0  0  0  0  0  0  0  0  0  0  0  0
  141.3080   72.3280  221.6300 N   0  0  0  0  0  0  0  0  0  0  0  0
  143.2500   71.7460  219.6910 C   0  0  0  0  0  0  0  0  0  0  0  0
  144.4210   71.6650  218.7680 C   0  0  0  0  0  0  0  0  0  0  0  0
  143.5030   75.3280  217.2550 H   0  0  0  0  0  0  0  0  0  0  0  0
  145.1890   75.8220  216.7800 H   0  0  0  0  0  0  0  0  0  0  0  0
  146.5376   72.4720  217.2464 H   0  0  0  0  0  0  0  0  0  0  0  0
  146.5514   74.1021  218.0488 H   0  0  0  0  0  0  0  0  0  0  0  0
  145.1145   73.2064  220.9652 H   0  0  0  0  0  0  0  0  0  0  0  0
  145.7663   74.4882  219.8484 H   0  0  0  0  0  0  0  0  0  0  0  0
  143.4225   74.8629  220.5648 H   0  0  0  0  0  0  0  0  0  0  0  0
  143.6764   74.6975  218.7617 H   0  0  0  0  0  0  0  0  0  0  0  0
  142.0744   73.2010  218.7094 H   0  0  0  0  0  0  0  0  0  0  0  0
  141.2848   77.0173  221.8512 H   0  0  0  0  0  0  0  0  0  0  0  0
  139.9741   77.5387  220.7227 H   0  0  0  0  0  0  0  0  0  0  0  0
  140.1076   77.9708  223.7378 H   0  0  0  0  0  0  0  0  0  0  0  0
  140.2033   79.2153  222.4272 H   0  0  0  0  0  0  0  0  0  0  0  0
  139.6080   80.1739  224.3372 H   0  0  0  0  0  0  0  0  0  0  0  0
  138.5691   82.0497  225.5618 H   0  0  0  0  0  0  0  0  0  0  0  0
  136.1329   82.4681  225.4203 H   0  0  0  0  0  0  0  0  0  0  0  0
  134.7328   80.9492  224.0132 H   0  0  0  0  0  0  0  0  0  0  0  0
  135.7677   79.1076  222.8110 H   0  0  0  0  0  0  0  0  0  0  0  0
  136.4934   77.4804  222.3418 H   0  0  0  0  0  0  0  0  0  0  0  0
  137.6068   77.6150  220.9495 H   0  0  0  0  0  0  0  0  0  0  0  0
  138.0111   75.8531  223.4313 H   0  0  0  0  0  0  0  0  0  0  0  0
  137.5344   75.2899  221.7811 H   0  0  0  0  0  0  0  0  0  0  0  0
  138.1433   71.0205  224.1650 H   0  0  0  0  0  0  0  0  0  0  0  0
  138.4117   70.7656  222.4352 H   0  0  0  0  0  0  0  0  0  0  0  0
  138.4073   68.5371  223.5577 H   0  0  0  0  0  0  0  0  0  0  0  0
  140.0727   68.8554  223.0626 H   0  0  0  0  0  0  0  0  0  0  0  0
  138.4415   67.4971  225.6708 H   0  0  0  0  0  0  0  0  0  0  0  0
  139.1707   67.5285  228.0765 H   0  0  0  0  0  0  0  0  0  0  0  0
  140.7991   69.2543  228.8226 H   0  0  0  0  0  0  0  0  0  0  0  0
  141.6895   70.9164  227.2259 H   0  0  0  0  0  0  0  0  0  0  0  0
  141.3370   72.0631  225.0819 H   0  0  0  0  0  0  0  0  0  0  0  0
  141.9625   70.6841  224.0734 H   0  0  0  0  0  0  0  0  0  0  0  0
  143.5869   71.5291  220.7154 H   0  0  0  0  0  0  0  0  0  0  0  0
  142.4998   71.0121  219.3614 H   0  0  0  0  0  0  0  0  0  0  0  0
  144.8764   70.6699  218.8792 H   0  0  0  0  0  0  0  0  0  0  0  0
  144.0321   71.8532  217.7564 H   0  0  0  0  0  0  0  0  0  0  0  0
  1  2  1  0
  2  3  2  0
  2  4  1  0
  4  5  1  0
  5  6  1  0
  6  7  1  0
  7  8  1  0
  8  9  1  0
  9 10  2  0
 10 11  1  0
 11 12  1  0
 12 13  1  0
 13 14  1  0
 14 15  1  0
 15 16  1  0
 16 17  2  0
 17 18  1  0
 18 19  2  0
 19 20  1  0
 20 21  2  0
 15 22  1  0
 22 23  1  0
 11 24  2  0
 24 25  1  0
 25 26  1  0
 26 27  1  0
 27 28  1  0
 28 29  1  0
 29 30  2  0
 30 31  1  0
 31 32  2  0
 32 33  1  0
 33 34  2  0
 34 35  1  0
 25 36  2  0
  8 37  1  0
 37 38  1  0
 38  5  1  0
 36  9  1  0
 23 12  1  0
 35 26  1  0
 21 16  1  0
 34 29  1  0
  1 39  1  0
  1 40  1  0
  4 41  1  0
  4 42  1  0
  6 43  1  0
  6 44  1  0
  7 45  1  0
  7 46  1  0
  8 47  1  0
 13 48  1  0
 13 49  1  0
 14 50  1  0
 14 51  1  0
 17 52  1  0
 18 53  1  0
 19 54  1  0
 20 55  1  0
 21 56  1  0
 22 57  1  0
 22 58  1  0
 23 59  1  0
 23 60  1  0
 27 61  1  0
 27 62  1  0
 28 63  1  0
 28 64  1  0
 30 65  1  0
 31 66  1  0
 32 67  1  0
 33 68  1  0
 35 69  1  0
 35 70  1  0
 37 71  1  0
 37 72  1  0
 38 73  1  0
 38 74  1  0
M  END
>  <smiles>  (43) 
NC(=O)CN1CCC(c2nc(N3CCN(c4ccccc4)CC3)nc(N3CCc4ccccc4C3)n2)CC1

>  <score_type>  (43) 
oracle

>  <origin>  (43) 
autodockgpu

>  <m_score__min__energy>  (43) 
-9.5199999999999996

>  <m_primary>  (43) 
energy

>  <rmsd>  (43) 
8.671827367694057

>  <m_score__min__rmsd>  (43) 
8.671827367694057

>  <meeko>  (43) 
{"free_energy": -9.1, "intermolecular_energy": -10.89, "internal_energy": -1.4, "cluster_size": 25, "cluster_id": 1, "rank_in_cluster": 10}

>  <energy>  (43) 
-8.4

>  <cluster_rmsd>  (43) 
1.63

>  <cluster>  (43) 
4

$$$$

     RDKit          3D

 74 79  0  0  0  0  0  0  0  0999 V2000
  145.8280   74.7580  216.2080 N   0  0  0  0  0  0  0  0  0  0  0  0
  146.4110   73.4700  216.3890 C   0  0  0  0  0  0  0  0  0  0  0  0
  147.5880   73.2420  215.9980 O   0  0  0  0  0  0  0  0  0  0  0  0
  145.5680   72.4400  217.0480 C   0  0  0  0  0  0  0  0  0  0  0  0
  145.4500   72.6610  218.4710 N   0  0  0  0  0  0  0  0  0  0  0  0
  144.5600   73.7480  218.7740 C   0  0  0  0  0  0  0  0  0  0  0  0
  143.1110   73.3250  218.8040 C   0  0  0  0  0  0  0  0  0  0  0  0
  142.8410   72.1580  219.7140 C   0  0  0  0  0  0  0  0  0  0  0  0
  141.8980   72.5560  220.7830 C   0  0  0  0  0  0  0  0  0  0  0  0
  141.3910   73.7990  220.7320 N   0  0  0  0  0  0  0  0  0  0  0  0
  140.5340   74.1700  221.7000 C   0  0  0  0  0  0  0  0  0  0  0  0
  139.9820   75.4810  221.6730 N   0  0  0  0  0  0  0  0  0  0  0  0
  140.8100   76.6550  221.4570 C   0  0  0  0  0  0  0  0  0  0  0  0
  140.3360   77.8160  222.3170 C   0  0  0  0  0  0  0  0  0  0  0  0
  138.9140   78.0600  222.1380 N   0  0  0  0  0  0  0  0  0  0  0  0
  138.3670   79.2370  222.7190 C   0  0  0  0  0  0  0  0  0  0  0  0
  137.2910   79.9190  222.1860 C   0  0  0  0  0  0  0  0  0  0  0  0
  136.7920   81.0650  222.7950 C   0  0  0  0  0  0  0  0  0  0  0  0
  137.3480   81.5590  223.9470 C   0  0  0  0  0  0  0  0  0  0  0  0
  138.4250   80.8870  224.4930 C   0  0  0  0  0  0  0  0  0  0  0  0
  138.9020   79.7680  223.8860 C   0  0  0  0  0  0  0  0  0  0  0  0
  138.1640   77.0980  221.3870 C   0  0  0  0  0  0  0  0  0  0  0  0
  138.5660   75.7030  221.8610 C   0  0  0  0  0  0  0  0  0  0  0  0
  140.1790   73.3420  222.6980 N   0  0  0  0  0  0  0  0  0  0  0  0
  140.6780   72.0830  222.7690 C   0  0  0  0  0  0  0  0  0  0  0  0
  140.3260   71.1800  223.8100 N   0  0  0  0  0  0  0  0  0  0  0  0
  139.0860   70.4220  223.7840 C   0  0  0  0  0  0  0  0  0  0  0  0
  139.4420   69.0260  224.3130 C   0  0  0  0  0  0  0  0  0  0  0  0
  139.7970   69.2270  225.7440 C   0  0  0  0  0  0  0  0  0  0  0  0
  139.2400   68.4380  226.7300 C   0  0  0  0  0  0  0  0  0  0  0  0
  139.5980   68.6560  228.0640 C   0  0  0  0  0  0  0  0  0  0  0  0
  140.5020   69.6610  228.3550 C   0  0  0  0  0  0  0  0  0  0  0  0
  141.0470   70.4390  227.3460 C   0  0  0  0  0  0  0  0  0  0  0  0
  140.7010   70.2330  226.0220 C   0  0  0  0  0  0  0  0  0  0  0  0
  141.2560   71.0390  224.9130 C   0  0  0  0  0  0  0  0  0  0  0  0
  141.5340   71.7340  221.7910 N   0  0  0  0  0  0  0  0  0  0  0  0
  144.1340   71.6080  220.2650 C   0  0  0  0  0  0  0  0  0  0  0  0
  145.1670   71.4630  219.1970 C   0  0  0  0  0  0  0  0  0  0  0  0
  145.7120   75.1510  215.2440 H   0  0  0  0  0  0  0  0  0  0  0  0
  145.5130   75.3200  217.0450 H   0  0  0  0  0  0  0  0  0  0  0  0
  144.5633   72.4653  216.6009 H   0  0  0  0  0  0  0  0  0  0  0  0
  146.0487   71.4623  216.8965 H   0  0  0  0  0  0  0  0  0  0  0  0
  144.8274   74.1573  219.7594 H   0  0  0  0  0  0  0  0  0  0  0  0
  144.6700   74.4988  217.9776 H   0  0  0  0  0  0  0  0  0  0  0  0
  142.5069   74.1786  219.1452 H   0  0  0  0  0  0  0  0  0  0  0  0
  142.8479   73.0058  217.7848 H   0  0  0  0  0  0  0  0  0  0  0  0
  142.3663   71.3486  219.1400 H   0  0  0  0  0  0  0  0  0  0  0  0
  141.8513   76.4148  221.7177 H   0  0  0  0  0  0  0  0  0  0  0  0
  140.7377   76.9475  220.3991 H   0  0  0  0  0  0  0  0  0  0  0  0
  140.5289   77.5810  223.3741 H   0  0  0  0  0  0  0  0  0  0  0  0
  140.8843   78.7198  222.0129 H   0  0  0  0  0  0  0  0  0  0  0  0
  136.8203   79.5490  221.2632 H   0  0  0  0  0  0  0  0  0  0  0  0
  135.9344   81.5856  222.3438 H   0  0  0  0  0  0  0  0  0  0  0  0
  136.9475   82.4658  224.4237 H   0  0  0  0  0  0  0  0  0  0  0  0
  138.8951   81.2565  225.4163 H   0  0  0  0  0  0  0  0  0  0  0  0
  139.7597   79.2542  224.3446 H   0  0  0  0  0  0  0  0  0  0  0  0
  137.0878   77.2522  221.5542 H   0  0  0  0  0  0  0  0  0  0  0  0
  138.3726   77.2087  220.3126 H   0  0  0  0  0  0  0  0  0  0  0  0
  138.3247   75.6025  222.9295 H   0  0  0  0  0  0  0  0  0  0  0  0
  138.0126   74.9585  221.2698 H   0  0  0  0  0  0  0  0  0  0  0  0
  138.3327   70.8965  224.4301 H   0  0  0  0  0  0  0  0  0  0  0  0
  138.6593   70.3759  222.7712 H   0  0  0  0  0  0  0  0  0  0  0  0
  138.5806   68.3480  224.2213 H   0  0  0  0  0  0  0  0  0  0  0  0
  140.2673   68.5707  223.7458 H   0  0  0  0  0  0  0  0  0  0  0  0
  138.5222   67.6463  226.4692 H   0  0  0  0  0  0  0  0  0  0  0  0
  139.1684   68.0393  228.8672 H   0  0  0  0  0  0  0  0  0  0  0  0
  140.7920   69.8452  229.4000 H   0  0  0  0  0  0  0  0  0  0  0  0
  141.7653   71.2321  227.6013 H   0  0  0  0  0  0  0  0  0  0  0  0
  141.5050   72.0402  225.2947 H   0  0  0  0  0  0  0  0  0  0  0  0
  142.1474   70.5175  224.5342 H   0  0  0  0  0  0  0  0  0  0  0  0
  144.5129   72.2928  221.0380 H   0  0  0  0  0  0  0  0  0  0  0  0
  143.9329   70.6125  220.6876 H   0  0  0  0  0  0  0  0  0  0  0  0
  146.1000   71.1195  219.6676 H   0  0  0  0  0  0  0  0  0  0  0  0
  144.7601   70.7473  218.4674 H   0  0  0  0  0  0  0  0  0  0  0  0
  1  2  1  0
  2  3  2  0
  2  4  1  0
  4  5  1  0
  5  6  1  0
  6  7  1  0
  7  8  1  0
  8  9  1  0
  9 10  2  0
 10 11  1  0
 11 12  1  0
 12 13  1  0
 13 14  1  0
 14 15  1  0
 15 16  1  0
 16 17  2  0
 17 18  1  0
 18 19  2  0
 19 20  1  0
 20 21  2  0
 15 22  1  0
 22 23  1  0
 11 24  2  0
 24 25  1  0
 25 26  1  0
 26 27  1  0
 27 28  1  0
 28 29  1  0
 29 30  2  0
 30 31  1  0
 31 32  2  0
 32 33  1  0
 33 34  2  0
 34 35  1  0
 25 36  2  0
  8 37  1  0
 37 38  1  0
 38  5  1  0
 36  9  1  0
 23 12  1  0
 35 26  1  0
 21 16  1  0
 34 29  1  0
  1 39  1  0
  1 40  1  0
  4 41  1  0
  4 42  1  0
  6 43  1  0
  6 44  1  0
  7 45  1  0
  7 46  1  0
  8 47  1  0
 13 48  1  0
 13 49  1  0
 14 50  1  0
 14 51  1  0
 17 52  1  0
 18 53  1  0
 19 54  1  0
 20 55  1  0
 21 56  1  0
 22 57  1  0
 22 58  1  0
 23 59  1  0
 23 60  1  0
 27 61  1  0
 27 62  1  0
 28 63  1  0
 28 64  1  0
 30 65  1  0
 31 66  1  0
 32 67  1  0
 33 68  1  0
 35 69  1  0
 35 70  1  0
 37 71  1  0
 37 72  1  0
 38 73  1  0
 38 74  1  0
M  END
>  <smiles>  (44) 
NC(=O)CN1CCC(c2nc(N3CCN(c4ccccc4)CC3)nc(N3CCc4ccccc4C3)n2)CC1

>  <score_type>  (44) 
oracle

>  <origin>  (44) 
autodockgpu

>  <m_score__min__energy>  (44) 
-9.5199999999999996

>  <m_primary>  (44) 
energy

>  <rmsd>  (44) 
8.29893517490972

>  <m_score__min__rmsd>  (44) 
8.29893517490972

>  <meeko>  (44) 
{"free_energy": -9.48, "intermolecular_energy": -11.27, "internal_energy": -1.38, "cluster_size": 25, "cluster_id": 1, "rank_in_cluster": 2}

>  <energy>  (44) 
-8.22

>  <cluster_rmsd>  (44) 
0.0

>  <cluster>  (44) 
5

$$$$

     RDKit          3D

 74 79  0  0  0  0  0  0  0  0999 V2000
  145.1610   71.2600  215.9210 N   0  0  0  0  0  0  0  0  0  0  0  0
  144.8710   72.4910  216.5790 C   0  0  0  0  0  0  0  0  0  0  0  0
  143.7960   73.1040  216.3400 O   0  0  0  0  0  0  0  0  0  0  0  0
  145.8890   72.9930  217.5370 C   0  0  0  0  0  0  0  0  0  0  0  0
  145.5600   72.6660  218.9040 N   0  0  0  0  0  0  0  0  0  0  0  0
  145.0080   73.7910  219.6070 C   0  0  0  0  0  0  0  0  0  0  0  0
  143.5240   73.9520  219.3770 C   0  0  0  0  0  0  0  0  0  0  0  0
  142.7290   72.7090  219.6700 C   0  0  0  0  0  0  0  0  0  0  0  0
  141.7590   72.9720  220.7570 C   0  0  0  0  0  0  0  0  0  0  0  0
  141.1890   74.1880  220.8000 N   0  0  0  0  0  0  0  0  0  0  0  0
  140.3070   74.4360  221.7850 C   0  0  0  0  0  0  0  0  0  0  0  0
  139.6890   75.7140  221.8560 N   0  0  0  0  0  0  0  0  0  0  0  0
  140.4520   76.9420  221.7160 C   0  0  0  0  0  0  0  0  0  0  0  0
  139.9300   78.0140  222.6610 C   0  0  0  0  0  0  0  0  0  0  0  0
  138.4950   78.1950  222.5130 N   0  0  0  0  0  0  0  0  0  0  0  0
  137.8970   79.2980  223.1820 C   0  0  0  0  0  0  0  0  0  0  0  0
  136.5450   79.5770  223.1280 C   0  0  0  0  0  0  0  0  0  0  0  0
  136.0080   80.6670  223.8030 C   0  0  0  0  0  0  0  0  0  0  0  0
  136.7990   81.5050  224.5470 C   0  0  0  0  0  0  0  0  0  0  0  0
  138.1540   81.2390  224.6100 C   0  0  0  0  0  0  0  0  0  0  0  0
  138.6640   80.1690  223.9450 C   0  0  0  0  0  0  0  0  0  0  0  0
  137.7870   77.2500  221.7030 C   0  0  0  0  0  0  0  0  0  0  0  0
  138.2650   75.8480  222.0730 C   0  0  0  0  0  0  0  0  0  0  0  0
  139.9890   73.5130  222.7100 N   0  0  0  0  0  0  0  0  0  0  0  0
  140.5520   72.2800  222.6850 C   0  0  0  0  0  0  0  0  0  0  0  0
  140.2400   71.2790  223.6480 N   0  0  0  0  0  0  0  0  0  0  0  0
  139.0580   70.4420  223.5300 C   0  0  0  0  0  0  0  0  0  0  0  0
  139.4990   69.0380  223.9660 C   0  0  0  0  0  0  0  0  0  0  0  0
  139.8050   69.1560  225.4180 C   0  0  0  0  0  0  0  0  0  0  0  0
  139.2820   68.2590  226.3270 C   0  0  0  0  0  0  0  0  0  0  0  0
  139.5920   68.4000  227.6830 C   0  0  0  0  0  0  0  0  0  0  0  0
  140.4160   69.4410  228.0730 C   0  0  0  0  0  0  0  0  0  0  0  0
  140.9280   70.3280  227.1400 C   0  0  0  0  0  0  0  0  0  0  0  0
  140.6290   70.1980  225.7950 C   0  0  0  0  0  0  0  0  0  0  0  0
  141.1520   71.1200  224.7640 C   0  0  0  0  0  0  0  0  0  0  0  0
  141.4310   72.0540  221.6920 N   0  0  0  0  0  0  0  0  0  0  0  0
  143.6490   71.5560  219.9890 C   0  0  0  0  0  0  0  0  0  0  0  0
  144.7810   71.4730  219.0190 C   0  0  0  0  0  0  0  0  0  0  0  0
  145.2340   71.2270  214.8760 H   0  0  0  0  0  0  0  0  0  0  0  0
  145.3000   70.3780  216.4840 H   0  0  0  0  0  0  0  0  0  0  0  0
  146.8613   72.5422  217.2892 H   0  0  0  0  0  0  0  0  0  0  0  0
  145.9221   74.0891  217.4508 H   0  0  0  0  0  0  0  0  0  0  0  0
  145.1842   73.6537  220.6841 H   0  0  0  0  0  0  0  0  0  0  0  0
  145.5031   74.6962  219.2256 H   0  0  0  0  0  0  0  0  0  0  0  0
  143.1574   74.7601  220.0270 H   0  0  0  0  0  0  0  0  0  0  0  0
  143.3865   74.1777  218.3092 H   0  0  0  0  0  0  0  0  0  0  0  0
  142.1544   72.4235  218.7765 H   0  0  0  0  0  0  0  0  0  0  0  0
  141.5077   76.7390  221.9490 H   0  0  0  0  0  0  0  0  0  0  0  0
  140.3504   77.3039  220.6822 H   0  0  0  0  0  0  0  0  0  0  0  0
  140.1486   77.7158  223.6970 H   0  0  0  0  0  0  0  0  0  0  0  0
  140.4270   78.9644  222.4166 H   0  0  0  0  0  0  0  0  0  0  0  0
  135.8818   78.9251  222.5405 H   0  0  0  0  0  0  0  0  0  0  0  0
  134.9272   80.8614  223.7392 H   0  0  0  0  0  0  0  0  0  0  0  0
  136.3668   82.3653  225.0790 H   0  0  0  0  0  0  0  0  0  0  0  0
  138.8175   81.8914  225.1966 H   0  0  0  0  0  0  0  0  0  0  0  0
  139.7458   79.9822  224.0151 H   0  0  0  0  0  0  0  0  0  0  0  0
  136.7064   77.3359  221.8899 H   0  0  0  0  0  0  0  0  0  0  0  0
  137.9775   77.4464  220.6376 H   0  0  0  0  0  0  0  0  0  0  0  0
  138.0431   75.6601  223.1339 H   0  0  0  0  0  0  0  0  0  0  0  0
  137.7424   75.1191  221.4362 H   0  0  0  0  0  0  0  0  0  0  0  0
  138.2575   70.8138  224.1864 H   0  0  0  0  0  0  0  0  0  0  0  0
  138.6604   70.4428  222.5044 H   0  0  0  0  0  0  0  0  0  0  0  0
  138.6900   68.3112  223.8005 H   0  0  0  0  0  0  0  0  0  0  0  0
  140.3674   68.6838  223.3912 H   0  0  0  0  0  0  0  0  0  0  0  0
  138.6282   67.4418  225.9883 H   0  0  0  0  0  0  0  0  0  0  0  0
  139.1884   67.6965  228.4260 H   0  0  0  0  0  0  0  0  0  0  0  0
  140.6675   69.5658  229.1366 H   0  0  0  0  0  0  0  0  0  0  0  0
  141.5817   71.1476  227.4731 H   0  0  0  0  0  0  0  0  0  0  0  0
  141.3214   72.1046  225.2243 H   0  0  0  0  0  0  0  0  0  0  0  0
  142.0863   70.6902  224.3738 H   0  0  0  0  0  0  0  0  0  0  0  0
  144.0558   71.6932  221.0018 H   0  0  0  0  0  0  0  0  0  0  0  0
  143.0690   70.6237  219.9223 H   0  0  0  0  0  0  0  0  0  0  0  0
  145.4474   70.6586  219.3395 H   0  0  0  0  0  0  0  0  0  0  0  0
  144.3301   71.3009  218.0305 H   0  0  0  0  0  0  0  0  0  0  0  0
  1  2  1  0
  2  3  2  0
  2  4  1  0
  4  5  1  0
  5  6  1  0
  6  7  1  0
  7  8  1  0
  8  9  1  0
  9 10  2  0
 10 11  1  0
 11 12  1  0
 12 13  1  0
 13 14  1  0
 14 15  1  0
 15 16  1  0
 16 17  2  0
 17 18  1  0
 18 19  2  0
 19 20  1  0
 20 21  2  0
 15 22  1  0
 22 23  1  0
 11 24  2  0
 24 25  1  0
 25 26  1  0
 26 27  1  0
 27 28  1  0
 28 29  1  0
 29 30  2  0
 30 31  1  0
 31 32  2  0
 32 33  1  0
 33 34  2  0
 34 35  1  0
 25 36  2  0
  8 37  1  0
 37 38  1  0
 38  5  1  0
 36  9  1  0
 23 12  1  0
 35 26  1  0
 21 16  1  0
 34 29  1  0
  1 39  1  0
  1 40  1  0
  4 41  1  0
  4 42  1  0
  6 43  1  0
  6 44  1  0
  7 45  1  0
  7 46  1  0
  8 47  1  0
 13 48  1  0
 13 49  1  0
 14 50  1  0
 14 51  1  0
 17 52  1  0
 18 53  1  0
 19 54  1  0
 20 55  1  0
 21 56  1  0
 22 57  1  0
 22 58  1  0
 23 59  1  0
 23 60  1  0
 27 61  1  0
 27 62  1  0
 28 63  1  0
 28 64  1  0
 30 65  1  0
 31 66  1  0
 32 67  1  0
 33 68  1  0
 35 69  1  0
 35 70  1  0
 37 71  1  0
 37 72  1  0
 38 73  1  0
 38 74  1  0
M  END
>  <smiles>  (45) 
NC(=O)CN1CCC(c2nc(N3CCN(c4ccccc4)CC3)nc(N3CCc4ccccc4C3)n2)CC1

>  <score_type>  (45) 
oracle

>  <origin>  (45) 
autodockgpu

>  <m_score__min__energy>  (45) 
-9.5199999999999996

>  <m_primary>  (45) 
energy

>  <rmsd>  (45) 
8.42639716220628

>  <m_score__min__rmsd>  (45) 
8.42639716220628

>  <meeko>  (45) 
{"free_energy": -8.56, "intermolecular_energy": -10.35, "internal_energy": -1.51, "cluster_size": 25, "cluster_id": 1, "rank_in_cluster": 25}

>  <energy>  (45) 
-8.21

>  <cluster_rmsd>  (45) 
1.34

>  <cluster>  (45) 
5

$$$$

     RDKit          3D

 74 79  0  0  0  0  0  0  0  0999 V2000
  143.8110   68.4660  219.2200 N   0  0  0  0  0  0  0  0  0  0  0  0
  145.1450   68.9390  219.0570 C   0  0  0  0  0  0  0  0  0  0  0  0
  146.0610   68.5420  219.8270 O   0  0  0  0  0  0  0  0  0  0  0  0
  145.3820   69.9030  217.9530 C   0  0  0  0  0  0  0  0  0  0  0  0
  145.1050   71.2640  218.3480 N   0  0  0  0  0  0  0  0  0  0  0  0
  143.7600   71.6530  218.0280 C   0  0  0  0  0  0  0  0  0  0  0  0
  142.7650   71.2330  219.0830 C   0  0  0  0  0  0  0  0  0  0  0  0
  143.1260   71.6890  220.4700 C   0  0  0  0  0  0  0  0  0  0  0  0
  142.0730   72.5850  221.0000 C   0  0  0  0  0  0  0  0  0  0  0  0
  140.9550   72.0140  221.4780 N   0  0  0  0  0  0  0  0  0  0  0  0
  139.9930   72.8200  221.9600 C   0  0  0  0  0  0  0  0  0  0  0  0
  138.7970   72.2450  222.4710 N   0  0  0  0  0  0  0  0  0  0  0  0
  137.4900   72.6100  221.9530 C   0  0  0  0  0  0  0  0  0  0  0  0
  136.4640   72.6790  223.0730 C   0  0  0  0  0  0  0  0  0  0  0  0
  136.4610   71.4580  223.8620 N   0  0  0  0  0  0  0  0  0  0  0  0
  135.4200   71.2910  224.8170 C   0  0  0  0  0  0  0  0  0  0  0  0
  135.0900   70.0720  225.3760 C   0  0  0  0  0  0  0  0  0  0  0  0
  134.0640   69.9620  226.3080 C   0  0  0  0  0  0  0  0  0  0  0  0
  133.3450   71.0590  226.7080 C   0  0  0  0  0  0  0  0  0  0  0  0
  133.6650   72.2860  226.1580 C   0  0  0  0  0  0  0  0  0  0  0  0
  134.6700   72.3770  225.2480 C   0  0  0  0  0  0  0  0  0  0  0  0
  137.5060   70.5090  223.6210 C   0  0  0  0  0  0  0  0  0  0  0  0
  138.8300   71.2660  223.5350 C   0  0  0  0  0  0  0  0  0  0  0  0
  140.1210   74.1590  221.9760 N   0  0  0  0  0  0  0  0  0  0  0  0
  141.2420   74.7560  221.5000 C   0  0  0  0  0  0  0  0  0  0  0  0
  141.4130   76.1680  221.5000 N   0  0  0  0  0  0  0  0  0  0  0  0
  141.9350   76.8800  220.3450 C   0  0  0  0  0  0  0  0  0  0  0  0
  141.1140   78.1730  220.2490 C   0  0  0  0  0  0  0  0  0  0  0  0
  141.4870   78.9660  221.4520 C   0  0  0  0  0  0  0  0  0  0  0  0
  141.8530   80.2920  221.3410 C   0  0  0  0  0  0  0  0  0  0  0  0
  142.1960   81.0050  222.4930 C   0  0  0  0  0  0  0  0  0  0  0  0
  142.1590   80.3550  223.7140 C   0  0  0  0  0  0  0  0  0  0  0  0
  141.7880   79.0230  223.7980 C   0  0  0  0  0  0  0  0  0  0  0  0
  141.4460   78.3070  222.6650 C   0  0  0  0  0  0  0  0  0  0  0  0
  141.0440   76.8850  222.7060 C   0  0  0  0  0  0  0  0  0  0  0  0
  142.1900   73.9300  221.0210 N   0  0  0  0  0  0  0  0  0  0  0  0
  144.4870   72.3400  220.4740 C   0  0  0  0  0  0  0  0  0  0  0  0
  145.4810   71.5380  219.6990 C   0  0  0  0  0  0  0  0  0  0  0  0
  143.2970   68.6400  220.1160 H   0  0  0  0  0  0  0  0  0  0  0  0
  143.3360   67.9360  218.4390 H   0  0  0  0  0  0  0  0  0  0  0  0
  146.4343   69.8321  217.6406 H   0  0  0  0  0  0  0  0  0  0  0  0
  144.7012   69.6457  217.1282 H   0  0  0  0  0  0  0  0  0  0  0  0
  143.7249   72.7478  217.9272 H   0  0  0  0  0  0  0  0  0  0  0  0
  143.4826   71.1489  217.0905 H   0  0  0  0  0  0  0  0  0  0  0  0
  141.7835   71.6560  218.8228 H   0  0  0  0  0  0  0  0  0  0  0  0
  142.7572   70.1331  219.0980 H   0  0  0  0  0  0  0  0  0  0  0  0
  143.1844   70.8169  221.1378 H   0  0  0  0  0  0  0  0  0  0  0  0
  137.5575   73.5935  221.4650 H   0  0  0  0  0  0  0  0  0  0  0  0
  137.1714   71.8444  221.2303 H   0  0  0  0  0  0  0  0  0  0  0  0
  136.7056   73.5287  223.7285 H   0  0  0  0  0  0  0  0  0  0  0  0
  135.4677   72.8050  222.6241 H   0  0  0  0  0  0  0  0  0  0  0  0
  135.6487   69.1723  225.0787 H   0  0  0  0  0  0  0  0  0  0  0  0
  133.8245   68.9759  226.7326 H   0  0  0  0  0  0  0  0  0  0  0  0
  132.5354   70.9650  227.4467 H   0  0  0  0  0  0  0  0  0  0  0  0
  133.1077   73.1863  226.4561 H   0  0  0  0  0  0  0  0  0  0  0  0
  134.9025   73.3672  224.8291 H   0  0  0  0  0  0  0  0  0  0  0  0
  137.5459   69.7821  224.4456 H   0  0  0  0  0  0  0  0  0  0  0  0
  137.3172   69.9672  222.6825 H   0  0  0  0  0  0  0  0  0  0  0  0
  139.0143   71.7788  224.4905 H   0  0  0  0  0  0  0  0  0  0  0  0
  139.6337   70.5452  223.3243 H   0  0  0  0  0  0  0  0  0  0  0  0
  143.0009   77.1120  220.4869 H   0  0  0  0  0  0  0  0  0  0  0  0
  141.8551   76.2790  219.4272 H   0  0  0  0  0  0  0  0  0  0  0  0
  141.3679   78.7232  219.3310 H   0  0  0  0  0  0  0  0  0  0  0  0
  140.0335   77.9705  220.2104 H   0  0  0  0  0  0  0  0  0  0  0  0
  141.8745   80.7823  220.3566 H   0  0  0  0  0  0  0  0  0  0  0  0
  142.4899   82.0631  222.4303 H   0  0  0  0  0  0  0  0  0  0  0  0
  142.4275   80.9028  224.6293 H   0  0  0  0  0  0  0  0  0  0  0  0
  141.7650   78.5276  224.7798 H   0  0  0  0  0  0  0  0  0  0  0  0
  141.5339   76.4046  223.5658 H   0  0  0  0  0  0  0  0  0  0  0  0
  139.9480   76.8501  222.7933 H   0  0  0  0  0  0  0  0  0  0  0  0
  144.4059   73.3402  220.0235 H   0  0  0  0  0  0  0  0  0  0  0  0
  144.8344   72.4060  221.5156 H   0  0  0  0  0  0  0  0  0  0  0  0
  146.4313   72.0919  219.6844 H   0  0  0  0  0  0  0  0  0  0  0  0
  145.5552   70.5637  220.2042 H   0  0  0  0  0  0  0  0  0  0  0  0
  1  2  1  0
  2  3  2  0
  2  4  1  0
  4  5  1  0
  5  6  1  0
  6  7  1  0
  7  8  1  0
  8  9  1  0
  9 10  2  0
 10 11  1  0
 11 12  1  0
 12 13  1  0
 13 14  1  0
 14 15  1  0
 15 16  1  0
 16 17  2  0
 17 18  1  0
 18 19  2  0
 19 20  1  0
 20 21  2  0
 15 22  1  0
 22 23  1  0
 11 24  2  0
 24 25  1  0
 25 26  1  0
 26 27  1  0
 27 28  1  0
 28 29  1  0
 29 30  2  0
 30 31  1  0
 31 32  2  0
 32 33  1  0
 33 34  2  0
 34 35  1  0
 25 36  2  0
  8 37  1  0
 37 38  1  0
 38  5  1  0
 36  9  1  0
 23 12  1  0
 35 26  1  0
 21 16  1  0
 34 29  1  0
  1 39  1  0
  1 40  1  0
  4 41  1  0
  4 42  1  0
  6 43  1  0
  6 44  1  0
  7 45  1  0
  7 46  1  0
  8 47  1  0
 13 48  1  0
 13 49  1  0
 14 50  1  0
 14 51  1  0
 17 52  1  0
 18 53  1  0
 19 54  1  0
 20 55  1  0
 21 56  1  0
 22 57  1  0
 22 58  1  0
 23 59  1  0
 23 60  1  0
 27 61  1  0
 27 62  1  0
 28 63  1  0
 28 64  1  0
 30 65  1  0
 31 66  1  0
 32 67  1  0
 33 68  1  0
 35 69  1  0
 35 70  1  0
 37 71  1  0
 37 72  1  0
 38 73  1  0
 38 74  1  0
M  END
>  <smiles>  (46) 
NC(=O)CN1CCC(c2nc(N3CCN(c4ccccc4)CC3)nc(N3CCc4ccccc4C3)n2)CC1

>  <score_type>  (46) 
oracle

>  <origin>  (46) 
autodockgpu

>  <m_score__min__energy>  (46) 
-9.5199999999999996

>  <m_primary>  (46) 
energy

>  <rmsd>  (46) 
6.03540436375254

>  <m_score__min__rmsd>  (46) 
6.03540436375254

>  <meeko>  (46) 
{"free_energy": -8.73, "intermolecular_energy": -10.52, "internal_energy": -1.43, "cluster_size": 11, "cluster_id": 3, "rank_in_cluster": 7}

>  <energy>  (46) 
-8.18

>  <cluster_rmsd>  (46) 
1.62

>  <cluster>  (46) 
5

$$$$

     RDKit          3D

 74 79  0  0  0  0  0  0  0  0999 V2000
  145.9700   74.8000  216.0050 N   0  0  0  0  0  0  0  0  0  0  0  0
  146.4860   73.5030  216.2930 C   0  0  0  0  0  0  0  0  0  0  0  0
  147.6500   73.1850  215.9290 O   0  0  0  0  0  0  0  0  0  0  0  0
  145.5900   72.5760  217.0300 C   0  0  0  0  0  0  0  0  0  0  0  0
  145.4620   72.9320  218.4230 N   0  0  0  0  0  0  0  0  0  0  0  0
  144.4360   73.9150  218.6340 C   0  0  0  0  0  0  0  0  0  0  0  0
  143.0590   73.3060  218.7500 C   0  0  0  0  0  0  0  0  0  0  0  0
  142.9640   72.2200  219.7860 C   0  0  0  0  0  0  0  0  0  0  0  0
  141.9900   72.6010  220.8340 C   0  0  0  0  0  0  0  0  0  0  0  0
  141.4710   73.8390  220.7770 N   0  0  0  0  0  0  0  0  0  0  0  0
  140.5860   74.1950  221.7250 C   0  0  0  0  0  0  0  0  0  0  0  0
  140.0210   75.5000  221.6920 N   0  0  0  0  0  0  0  0  0  0  0  0
  140.8360   76.6800  221.4620 C   0  0  0  0  0  0  0  0  0  0  0  0
  140.3570   77.8430  222.3160 C   0  0  0  0  0  0  0  0  0  0  0  0
  138.9320   78.0720  222.1450 N   0  0  0  0  0  0  0  0  0  0  0  0
  138.3780   79.2490  222.7220 C   0  0  0  0  0  0  0  0  0  0  0  0
  137.3040   79.9270  222.1810 C   0  0  0  0  0  0  0  0  0  0  0  0
  136.7970   81.0720  222.7850 C   0  0  0  0  0  0  0  0  0  0  0  0
  137.3450   81.5690  223.9400 C   0  0  0  0  0  0  0  0  0  0  0  0
  138.4210   80.9010  224.4940 C   0  0  0  0  0  0  0  0  0  0  0  0
  138.9040   79.7830  223.8910 C   0  0  0  0  0  0  0  0  0  0  0  0
  138.1860   77.0970  221.4070 C   0  0  0  0  0  0  0  0  0  0  0  0
  138.6050   75.7100  221.8890 C   0  0  0  0  0  0  0  0  0  0  0  0
  140.2140   73.3570  222.7090 N   0  0  0  0  0  0  0  0  0  0  0  0
  140.7240   72.1020  222.7840 C   0  0  0  0  0  0  0  0  0  0  0  0
  140.3550   71.1890  223.8100 N   0  0  0  0  0  0  0  0  0  0  0  0
  139.1090   70.4420  223.7620 C   0  0  0  0  0  0  0  0  0  0  0  0
  139.4480   69.0360  224.2760 C   0  0  0  0  0  0  0  0  0  0  0  0
  139.7910   69.2160  225.7130 C   0  0  0  0  0  0  0  0  0  0  0  0
  139.2190   68.4180  226.6830 C   0  0  0  0  0  0  0  0  0  0  0  0
  139.5650   68.6150  228.0230 C   0  0  0  0  0  0  0  0  0  0  0  0
  140.4760   69.6090  228.3360 C   0  0  0  0  0  0  0  0  0  0  0  0
  141.0360   70.3960  227.3420 C   0  0  0  0  0  0  0  0  0  0  0  0
  140.7010   70.2100  226.0120 C   0  0  0  0  0  0  0  0  0  0  0  0
  141.2730   71.0250  224.9200 C   0  0  0  0  0  0  0  0  0  0  0  0
  141.6090   71.7690  221.8260 N   0  0  0  0  0  0  0  0  0  0  0  0
  144.3280   71.9130  220.3560 C   0  0  0  0  0  0  0  0  0  0  0  0
  145.3570   71.7940  219.2810 C   0  0  0  0  0  0  0  0  0  0  0  0
  145.8750   75.1190  215.0120 H   0  0  0  0  0  0  0  0  0  0  0  0
  145.6830   75.4440  216.7920 H   0  0  0  0  0  0  0  0  0  0  0  0
  144.5935   72.6022  216.5649 H   0  0  0  0  0  0  0  0  0  0  0  0
  146.0302   71.5692  216.9783 H   0  0  0  0  0  0  0  0  0  0  0  0
  144.6582   74.4616  219.5624 H   0  0  0  0  0  0  0  0  0  0  0  0
  144.4311   74.5824  217.7596 H   0  0  0  0  0  0  0  0  0  0  0  0
  142.3482   74.1024  219.0155 H   0  0  0  0  0  0  0  0  0  0  0  0
  142.8285   72.8447  217.7784 H   0  0  0  0  0  0  0  0  0  0  0  0
  142.5967   71.2966  219.3143 H   0  0  0  0  0  0  0  0  0  0  0  0
  141.8812   76.4516  221.7176 H   0  0  0  0  0  0  0  0  0  0  0  0
  140.7537   76.9638  220.4024 H   0  0  0  0  0  0  0  0  0  0  0  0
  140.5594   77.6182  223.3736 H   0  0  0  0  0  0  0  0  0  0  0  0
  140.8946   78.7495  222.0010 H   0  0  0  0  0  0  0  0  0  0  0  0
  136.8410   79.5546  221.2553 H   0  0  0  0  0  0  0  0  0  0  0  0
  135.9403   81.5890  222.3281 H   0  0  0  0  0  0  0  0  0  0  0  0
  136.9389   82.4753  224.4130 H   0  0  0  0  0  0  0  0  0  0  0  0
  138.8846   81.2730  225.4196 H   0  0  0  0  0  0  0  0  0  0  0  0
  139.7603   79.2720  224.3553 H   0  0  0  0  0  0  0  0  0  0  0  0
  137.1096   77.2421  221.5808 H   0  0  0  0  0  0  0  0  0  0  0  0
  138.3857   77.2013  220.3303 H   0  0  0  0  0  0  0  0  0  0  0  0
  138.3728   75.6159  222.9601 H   0  0  0  0  0  0  0  0  0  0  0  0
  138.0543   74.9556  221.3080 H   0  0  0  0  0  0  0  0  0  0  0  0
  138.3534   70.9144  224.4070 H   0  0  0  0  0  0  0  0  0  0  0  0
  138.6919   70.4128  222.7446 H   0  0  0  0  0  0  0  0  0  0  0  0
  138.5818   68.3667  224.1674 H   0  0  0  0  0  0  0  0  0  0  0  0
  140.2745   68.5807  223.7107 H   0  0  0  0  0  0  0  0  0  0  0  0
  138.4983   67.6351  226.4045 H   0  0  0  0  0  0  0  0  0  0  0  0
  139.1217   67.9919  228.8137 H   0  0  0  0  0  0  0  0  0  0  0  0
  140.7588   69.7763  229.3858 H   0  0  0  0  0  0  0  0  0  0  0  0
  141.7576   71.1803  227.6142 H   0  0  0  0  0  0  0  0  0  0  0  0
  141.5270   72.0187  225.3174 H   0  0  0  0  0  0  0  0  0  0  0  0
  142.1632   70.5005  224.5427 H   0  0  0  0  0  0  0  0  0  0  0  0
  144.6193   72.7226  221.0414 H   0  0  0  0  0  0  0  0  0  0  0  0
  144.2713   70.9513  220.8869 H   0  0  0  0  0  0  0  0  0  0  0  0
  146.3347   71.6348  219.7593 H   0  0  0  0  0  0  0  0  0  0  0  0
  145.0434   70.9539  218.6439 H   0  0  0  0  0  0  0  0  0  0  0  0
  1  2  1  0
  2  3  2  0
  2  4  1  0
  4  5  1  0
  5  6  1  0
  6  7  1  0
  7  8  1  0
  8  9  1  0
  9 10  2  0
 10 11  1  0
 11 12  1  0
 12 13  1  0
 13 14  1  0
 14 15  1  0
 15 16  1  0
 16 17  2  0
 17 18  1  0
 18 19  2  0
 19 20  1  0
 20 21  2  0
 15 22  1  0
 22 23  1  0
 11 24  2  0
 24 25  1  0
 25 26  1  0
 26 27  1  0
 27 28  1  0
 28 29  1  0
 29 30  2  0
 30 31  1  0
 31 32  2  0
 32 33  1  0
 33 34  2  0
 34 35  1  0
 25 36  2  0
  8 37  1  0
 37 38  1  0
 38  5  1  0
 36  9  1  0
 23 12  1  0
 35 26  1  0
 21 16  1  0
 34 29  1  0
  1 39  1  0
  1 40  1  0
  4 41  1  0
  4 42  1  0
  6 43  1  0
  6 44  1  0
  7 45  1  0
  7 46  1  0
  8 47  1  0
 13 48  1  0
 13 49  1  0
 14 50  1  0
 14 51  1  0
 17 52  1  0
 18 53  1  0
 19 54  1  0
 20 55  1  0
 21 56  1  0
 22 57  1  0
 22 58  1  0
 23 59  1  0
 23 60  1  0
 27 61  1  0
 27 62  1  0
 28 63  1  0
 28 64  1  0
 30 65  1  0
 31 66  1  0
 32 67  1  0
 33 68  1  0
 35 69  1  0
 35 70  1  0
 37 71  1  0
 37 72  1  0
 38 73  1  0
 38 74  1  0
M  END
>  <smiles>  (47) 
NC(=O)CN1CCC(c2nc(N3CCN(c4ccccc4)CC3)nc(N3CCc4ccccc4C3)n2)CC1

>  <score_type>  (47) 
oracle

>  <origin>  (47) 
autodockgpu

>  <m_score__min__energy>  (47) 
-9.5199999999999996

>  <m_primary>  (47) 
energy

>  <rmsd>  (47) 
8.306004659492597

>  <m_score__min__rmsd>  (47) 
8.306004659492597

>  <meeko>  (47) 
{"free_energy": -9.43, "intermolecular_energy": -11.22, "internal_energy": -1.41, "cluster_size": 25, "cluster_id": 1, "rank_in_cluster": 5}

>  <energy>  (47) 
-8.18

>  <cluster_rmsd>  (47) 
1.12

>  <cluster>  (47) 
5

$$$$

     RDKit          3D

 74 79  0  0  0  0  0  0  0  0999 V2000
  135.9740   66.7530  217.1850 N   0  0  0  0  0  0  0  0  0  0  0  0
  137.1400   67.5650  217.0700 C   0  0  0  0  0  0  0  0  0  0  0  0
  138.2730   67.0980  217.3600 O   0  0  0  0  0  0  0  0  0  0  0  0
  136.9390   68.9600  216.6000 C   0  0  0  0  0  0  0  0  0  0  0  0
  136.4870   69.8320  217.6590 N   0  0  0  0  0  0  0  0  0  0  0  0
  137.0050   69.4370  218.9390 C   0  0  0  0  0  0  0  0  0  0  0  0
  138.3910   69.9760  219.2000 C   0  0  0  0  0  0  0  0  0  0  0  0
  138.5020   71.4670  219.0290 C   0  0  0  0  0  0  0  0  0  0  0  0
  138.9040   72.0960  220.3070 C   0  0  0  0  0  0  0  0  0  0  0  0
  139.1180   73.4220  220.3050 N   0  0  0  0  0  0  0  0  0  0  0  0
  139.4840   74.0030  221.4620 C   0  0  0  0  0  0  0  0  0  0  0  0
  139.7200   75.4040  221.4900 N   0  0  0  0  0  0  0  0  0  0  0  0
  140.6660   76.0400  220.5880 C   0  0  0  0  0  0  0  0  0  0  0  0
  141.4230   77.1530  221.2950 C   0  0  0  0  0  0  0  0  0  0  0  0
  140.5120   78.0850  221.9400 N   0  0  0  0  0  0  0  0  0  0  0  0
  141.0600   79.2860  222.4690 C   0  0  0  0  0  0  0  0  0  0  0  0
  140.5620   80.5400  222.1780 C   0  0  0  0  0  0  0  0  0  0  0  0
  141.1330   81.6850  222.7230 C   0  0  0  0  0  0  0  0  0  0  0  0
  142.2090   81.6100  223.5700 C   0  0  0  0  0  0  0  0  0  0  0  0
  142.7180   80.3610  223.8710 C   0  0  0  0  0  0  0  0  0  0  0  0
  142.1490   79.2510  223.3300 C   0  0  0  0  0  0  0  0  0  0  0  0
  139.1260   77.7270  221.9960 C   0  0  0  0  0  0  0  0  0  0  0  0
  139.0260   76.2640  222.4230 C   0  0  0  0  0  0  0  0  0  0  0  0
  139.6370   73.3000  222.5980 N   0  0  0  0  0  0  0  0  0  0  0  0
  139.4240   71.9610  222.6230 C   0  0  0  0  0  0  0  0  0  0  0  0
  139.5760   71.1860  223.8060 N   0  0  0  0  0  0  0  0  0  0  0  0
  138.6720   70.0960  224.1330 C   0  0  0  0  0  0  0  0  0  0  0  0
  139.5560   68.9850  224.7170 C   0  0  0  0  0  0  0  0  0  0  0  0
  140.0660   69.5260  226.0060 C   0  0  0  0  0  0  0  0  0  0  0  0
  139.9820   68.7870  227.1680 C   0  0  0  0  0  0  0  0  0  0  0  0
  140.4720   69.3270  228.3600 C   0  0  0  0  0  0  0  0  0  0  0  0
  141.0280   70.5940  228.3370 C   0  0  0  0  0  0  0  0  0  0  0  0
  141.1020   71.3150  227.1570 C   0  0  0  0  0  0  0  0  0  0  0  0
  140.6200   70.7910  225.9700 C   0  0  0  0  0  0  0  0  0  0  0  0
  140.6770   71.5240  224.6880 C   0  0  0  0  0  0  0  0  0  0  0  0
  139.0600   71.4020  221.4540 N   0  0  0  0  0  0  0  0  0  0  0  0
  137.2090   72.0330  218.4920 C   0  0  0  0  0  0  0  0  0  0  0  0
  136.6810   71.2160  217.3600 C   0  0  0  0  0  0  0  0  0  0  0  0
  135.7040   66.3500  218.1130 H   0  0  0  0  0  0  0  0  0  0  0  0
  135.3810   66.5530  216.3340 H   0  0  0  0  0  0  0  0  0  0  0  0
  137.8930   69.3430  216.2085 H   0  0  0  0  0  0  0  0  0  0  0  0
  136.1635   68.9454  215.8200 H   0  0  0  0  0  0  0  0  0  0  0  0
  136.3292   69.8106  219.7223 H   0  0  0  0  0  0  0  0  0  0  0  0
  137.0695   68.3389  218.9460 H   0  0  0  0  0  0  0  0  0  0  0  0
  138.6734   69.7228  220.2325 H   0  0  0  0  0  0  0  0  0  0  0  0
  139.0599   69.5164  218.4574 H   0  0  0  0  0  0  0  0  0  0  0  0
  139.2846   71.6941  218.2901 H   0  0  0  0  0  0  0  0  0  0  0  0
  141.3836   75.2875  220.2291 H   0  0  0  0  0  0  0  0  0  0  0  0
  140.1104   76.4734  219.7433 H   0  0  0  0  0  0  0  0  0  0  0  0
  142.0816   76.7105  222.0569 H   0  0  0  0  0  0  0  0  0  0  0  0
  142.0100   77.7040  220.5455 H   0  0  0  0  0  0  0  0  0  0  0  0
  139.6985   80.6354  221.5033 H   0  0  0  0  0  0  0  0  0  0  0  0
  140.7135   82.6698  222.4698 H   0  0  0  0  0  0  0  0  0  0  0  0
  142.6550   82.5197  223.9983 H   0  0  0  0  0  0  0  0  0  0  0  0
  143.5810   80.2651  224.5463 H   0  0  0  0  0  0  0  0  0  0  0  0
  142.5751   78.2704  223.5888 H   0  0  0  0  0  0  0  0  0  0  0  0
  138.6064   78.3642  222.7267 H   0  0  0  0  0  0  0  0  0  0  0  0
  138.6580   77.8672  221.0104 H   0  0  0  0  0  0  0  0  0  0  0  0
  139.4746   76.1488  223.4207 H   0  0  0  0  0  0  0  0  0  0  0  0
  137.9645   75.9761  222.4427 H   0  0  0  0  0  0  0  0  0  0  0  0
  137.9281   70.4238  224.8741 H   0  0  0  0  0  0  0  0  0  0  0  0
  138.1160   69.7503  223.2491 H   0  0  0  0  0  0  0  0  0  0  0  0
  138.9655   68.0729  224.8886 H   0  0  0  0  0  0  0  0  0  0  0  0
  140.3742   68.7107  224.0349 H   0  0  0  0  0  0  0  0  0  0  0  0
  139.5337   67.7826  227.1562 H   0  0  0  0  0  0  0  0  0  0  0  0
  140.4168   68.7560  229.2985 H   0  0  0  0  0  0  0  0  0  0  0  0
  141.4160   71.0339  229.2676 H   0  0  0  0  0  0  0  0  0  0  0  0
  141.5506   72.3193  227.1631 H   0  0  0  0  0  0  0  0  0  0  0  0
  140.6432   72.6035  224.8969 H   0  0  0  0  0  0  0  0  0  0  0  0
  141.6110   71.2395  224.1813 H   0  0  0  0  0  0  0  0  0  0  0  0
  136.4628   72.0481  219.3001 H   0  0  0  0  0  0  0  0  0  0  0  0
  137.4058   73.0496  218.1207 H   0  0  0  0  0  0  0  0  0  0  0  0
  135.7125   71.6392  217.0551 H   0  0  0  0  0  0  0  0  0  0  0  0
  137.4420   71.2577  216.5668 H   0  0  0  0  0  0  0  0  0  0  0  0
  1  2  1  0
  2  3  2  0
  2  4  1  0
  4  5  1  0
  5  6  1  0
  6  7  1  0
  7  8  1  0
  8  9  1  0
  9 10  2  0
 10 11  1  0
 11 12  1  0
 12 13  1  0
 13 14  1  0
 14 15  1  0
 15 16  1  0
 16 17  2  0
 17 18  1  0
 18 19  2  0
 19 20  1  0
 20 21  2  0
 15 22  1  0
 22 23  1  0
 11 24  2  0
 24 25  1  0
 25 26  1  0
 26 27  1  0
 27 28  1  0
 28 29  1  0
 29 30  2  0
 30 31  1  0
 31 32  2  0
 32 33  1  0
 33 34  2  0
 34 35  1  0
 25 36  2  0
  8 37  1  0
 37 38  1  0
 38  5  1  0
 36  9  1  0
 23 12  1  0
 35 26  1  0
 21 16  1  0
 34 29  1  0
  1 39  1  0
  1 40  1  0
  4 41  1  0
  4 42  1  0
  6 43  1  0
  6 44  1  0
  7 45  1  0
  7 46  1  0
  8 47  1  0
 13 48  1  0
 13 49  1  0
 14 50  1  0
 14 51  1  0
 17 52  1  0
 18 53  1  0
 19 54  1  0
 20 55  1  0
 21 56  1  0
 22 57  1  0
 22 58  1  0
 23 59  1  0
 23 60  1  0
 27 61  1  0
 27 62  1  0
 28 63  1  0
 28 64  1  0
 30 65  1  0
 31 66  1  0
 32 67  1  0
 33 68  1  0
 35 69  1  0
 35 70  1  0
 37 71  1  0
 37 72  1  0
 38 73  1  0
 38 74  1  0
M  END
>  <smiles>  (48) 
NC(=O)CN1CCC(c2nc(N3CCN(c4ccccc4)CC3)nc(N3CCc4ccccc4C3)n2)CC1

>  <score_type>  (48) 
oracle

>  <origin>  (48) 
autodockgpu

>  <m_score__min__energy>  (48) 
-9.5199999999999996

>  <m_primary>  (48) 
energy

>  <rmsd>  (48) 
8.46508159980985

>  <m_score__min__rmsd>  (48) 
8.46508159980985

>  <meeko>  (48) 
{"free_energy": -8.16, "intermolecular_energy": -9.95, "internal_energy": -1.45, "cluster_size": 7, "cluster_id": 5, "rank_in_cluster": 5}

>  <energy>  (48) 
-8.16

>  <cluster_rmsd>  (48) 
1.89

>  <cluster>  (48) 
5

$$$$

     RDKit          3D

 74 79  0  0  0  0  0  0  0  0999 V2000
  146.6150   74.3820  216.3280 N   0  0  0  0  0  0  0  0  0  0  0  0
  145.4300   73.6050  216.4860 C   0  0  0  0  0  0  0  0  0  0  0  0
  144.3140   74.0660  216.1270 O   0  0  0  0  0  0  0  0  0  0  0  0
  145.5900   72.2560  217.0860 C   0  0  0  0  0  0  0  0  0  0  0  0
  145.4450   72.2770  218.5220 N   0  0  0  0  0  0  0  0  0  0  0  0
  144.7700   73.4600  218.9770 C   0  0  0  0  0  0  0  0  0  0  0  0
  143.2660   73.3350  218.9110 C   0  0  0  0  0  0  0  0  0  0  0  0
  142.7290   72.1210  219.6190 C   0  0  0  0  0  0  0  0  0  0  0  0
  141.8290   72.5320  220.7190 C   0  0  0  0  0  0  0  0  0  0  0  0
  141.3500   73.7870  220.6940 N   0  0  0  0  0  0  0  0  0  0  0  0
  140.5320   74.1700  221.6900 C   0  0  0  0  0  0  0  0  0  0  0  0
  140.0120   75.4930  221.6910 N   0  0  0  0  0  0  0  0  0  0  0  0
  140.8660   76.6510  221.4910 C   0  0  0  0  0  0  0  0  0  0  0  0
  140.4260   77.8070  222.3750 C   0  0  0  0  0  0  0  0  0  0  0  0
  139.0090   78.0880  222.2100 N   0  0  0  0  0  0  0  0  0  0  0  0
  138.4940   79.2670  222.8170 C   0  0  0  0  0  0  0  0  0  0  0  0
  138.9710   79.7790  224.0080 C   0  0  0  0  0  0  0  0  0  0  0  0
  138.4350   80.9370  224.5590 C   0  0  0  0  0  0  0  0  0  0  0  0
  137.4150   81.6150  223.9400 C   0  0  0  0  0  0  0  0  0  0  0  0
  136.9270   81.1140  222.7470 C   0  0  0  0  0  0  0  0  0  0  0  0
  137.4620   79.9810  222.2210 C   0  0  0  0  0  0  0  0  0  0  0  0
  138.2310   77.1580  221.4480 C   0  0  0  0  0  0  0  0  0  0  0  0
  138.6030   75.7450  221.8940 C   0  0  0  0  0  0  0  0  0  0  0  0
  140.1870   73.3410  222.6920 N   0  0  0  0  0  0  0  0  0  0  0  0
  140.6580   72.0700  222.7360 C   0  0  0  0  0  0  0  0  0  0  0  0
  140.3150   71.1660  223.7800 N   0  0  0  0  0  0  0  0  0  0  0  0
  139.0990   70.3700  223.7400 C   0  0  0  0  0  0  0  0  0  0  0  0
  139.4880   68.9900  224.2880 C   0  0  0  0  0  0  0  0  0  0  0  0
  139.8110   69.2150  225.7230 C   0  0  0  0  0  0  0  0  0  0  0  0
  139.2620   68.4180  226.7070 C   0  0  0  0  0  0  0  0  0  0  0  0
  139.5890   68.6590  228.0450 C   0  0  0  0  0  0  0  0  0  0  0  0
  140.4570   69.6940  228.3410 C   0  0  0  0  0  0  0  0  0  0  0  0
  140.9960   70.4790  227.3350 C   0  0  0  0  0  0  0  0  0  0  0  0
  140.6800   70.2510  226.0070 C   0  0  0  0  0  0  0  0  0  0  0  0
  141.2290   71.0630  224.9010 C   0  0  0  0  0  0  0  0  0  0  0  0
  141.4750   71.7090  221.7300 N   0  0  0  0  0  0  0  0  0  0  0  0
  143.8620   71.2470  220.1010 C   0  0  0  0  0  0  0  0  0  0  0  0
  144.9000   71.0630  219.0440 C   0  0  0  0  0  0  0  0  0  0  0  0
  146.7060   75.3060  216.8110 H   0  0  0  0  0  0  0  0  0  0  0  0
  147.4040   74.0280  215.7200 H   0  0  0  0  0  0  0  0  0  0  0  0
  144.8262   71.5872  216.6626 H   0  0  0  0  0  0  0  0  0  0  0  0
  146.6053   71.9018  216.8544 H   0  0  0  0  0  0  0  0  0  0  0  0
  145.0617   73.6524  220.0200 H   0  0  0  0  0  0  0  0  0  0  0  0
  145.0641   74.2864  218.3132 H   0  0  0  0  0  0  0  0  0  0  0  0
  142.8225   74.2302  219.3713 H   0  0  0  0  0  0  0  0  0  0  0  0
  142.9979   73.2330  217.8490 H   0  0  0  0  0  0  0  0  0  0  0  0
  142.1356   71.5194  218.9148 H   0  0  0  0  0  0  0  0  0  0  0  0
  141.9030   76.3814  221.7399 H   0  0  0  0  0  0  0  0  0  0  0  0
  140.7932   76.9646  220.4392 H   0  0  0  0  0  0  0  0  0  0  0  0
  140.6200   77.5482  223.4264 H   0  0  0  0  0  0  0  0  0  0  0  0
  140.9940   78.7028  222.0837 H   0  0  0  0  0  0  0  0  0  0  0  0
  139.7894   79.2611  224.5295 H   0  0  0  0  0  0  0  0  0  0  0  0
  138.8363   81.3175  225.5099 H   0  0  0  0  0  0  0  0  0  0  0  0
  136.9969   82.5320  224.3808 H   0  0  0  0  0  0  0  0  0  0  0  0
  136.1082   81.6311  222.2254 H   0  0  0  0  0  0  0  0  0  0  0  0
  137.0550   79.6081  221.2695 H   0  0  0  0  0  0  0  0  0  0  0  0
  137.1600   77.3347  221.6262 H   0  0  0  0  0  0  0  0  0  0  0  0
  138.4345   77.2831  220.3742 H   0  0  0  0  0  0  0  0  0  0  0  0
  138.3672   75.6310  222.9624 H   0  0  0  0  0  0  0  0  0  0  0  0
  138.0276   75.0247  221.2940 H   0  0  0  0  0  0  0  0  0  0  0  0
  138.3206   70.8269  224.3688 H   0  0  0  0  0  0  0  0  0  0  0  0
  138.6915   70.3020  222.7205 H   0  0  0  0  0  0  0  0  0  0  0  0
  138.6496   68.2851  224.1876 H   0  0  0  0  0  0  0  0  0  0  0  0
  140.3366   68.5550  223.7396 H   0  0  0  0  0  0  0  0  0  0  0  0
  138.5743   67.6016  226.4414 H   0  0  0  0  0  0  0  0  0  0  0  0
  139.1640   68.0372  228.8467 H   0  0  0  0  0  0  0  0  0  0  0  0
  140.7229   69.8966  229.3890 H   0  0  0  0  0  0  0  0  0  0  0  0
  141.6854   71.2956  227.5955 H   0  0  0  0  0  0  0  0  0  0  0  0
  141.4406   72.0747  225.2776 H   0  0  0  0  0  0  0  0  0  0  0  0
  142.1421   70.5652  224.5427 H   0  0  0  0  0  0  0  0  0  0  0  0
  144.3268   71.7171  220.9802 H   0  0  0  0  0  0  0  0  0  0  0  0
  143.4509   70.2591  220.3561 H   0  0  0  0  0  0  0  0  0  0  0  0
  145.7244   70.4742  219.4726 H   0  0  0  0  0  0  0  0  0  0  0  0
  144.4000   70.5608  218.2027 H   0  0  0  0  0  0  0  0  0  0  0  0
  1  2  1  0
  2  3  2  0
  2  4  1  0
  4  5  1  0
  5  6  1  0
  6  7  1  0
  7  8  1  0
  8  9  1  0
  9 10  2  0
 10 11  1  0
 11 12  1  0
 12 13  1  0
 13 14  1  0
 14 15  1  0
 15 16  1  0
 16 17  2  0
 17 18  1  0
 18 19  2  0
 19 20  1  0
 20 21  2  0
 15 22  1  0
 22 23  1  0
 11 24  2  0
 24 25  1  0
 25 26  1  0
 26 27  1  0
 27 28  1  0
 28 29  1  0
 29 30  2  0
 30 31  1  0
 31 32  2  0
 32 33  1  0
 33 34  2  0
 34 35  1  0
 25 36  2  0
  8 37  1  0
 37 38  1  0
 38  5  1  0
 36  9  1  0
 23 12  1  0
 35 26  1  0
 21 16  1  0
 34 29  1  0
  1 39  1  0
  1 40  1  0
  4 41  1  0
  4 42  1  0
  6 43  1  0
  6 44  1  0
  7 45  1  0
  7 46  1  0
  8 47  1  0
 13 48  1  0
 13 49  1  0
 14 50  1  0
 14 51  1  0
 17 52  1  0
 18 53  1  0
 19 54  1  0
 20 55  1  0
 21 56  1  0
 22 57  1  0
 22 58  1  0
 23 59  1  0
 23 60  1  0
 27 61  1  0
 27 62  1  0
 28 63  1  0
 28 64  1  0
 30 65  1  0
 31 66  1  0
 32 67  1  0
 33 68  1  0
 35 69  1  0
 35 70  1  0
 37 71  1  0
 37 72  1  0
 38 73  1  0
 38 74  1  0
M  END
>  <smiles>  (49) 
NC(=O)CN1CCC(c2nc(N3CCN(c4ccccc4)CC3)nc(N3CCc4ccccc4C3)n2)CC1

>  <score_type>  (49) 
oracle

>  <origin>  (49) 
autodockgpu

>  <m_score__min__energy>  (49) 
-9.5199999999999996

>  <m_primary>  (49) 
energy

>  <rmsd>  (49) 
8.505075568289936

>  <m_score__min__rmsd>  (49) 
8.505075568289936

>  <meeko>  (49) 
{"free_energy": -8.98, "intermolecular_energy": -10.77, "internal_energy": -1.4, "cluster_size": 25, "cluster_id": 1, "rank_in_cluster": 12}

>  <energy>  (49) 
-8.15

>  <cluster_rmsd>  (49) 
1.57

>  <cluster>  (49) 
5

$$$$

     RDKit          3D

 74 79  0  0  0  0  0  0  0  0999 V2000
  145.9170   74.7320  216.1190 N   0  0  0  0  0  0  0  0  0  0  0  0
  146.4500   73.4320  216.3580 C   0  0  0  0  0  0  0  0  0  0  0  0
  147.6260   73.1510  216.0050 O   0  0  0  0  0  0  0  0  0  0  0  0
  145.5550   72.4560  217.0300 C   0  0  0  0  0  0  0  0  0  0  0  0
  145.4470   72.7020  218.4490 N   0  0  0  0  0  0  0  0  0  0  0  0
  144.5430   73.7790  218.7410 C   0  0  0  0  0  0  0  0  0  0  0  0
  143.1010   73.3320  218.7940 C   0  0  0  0  0  0  0  0  0  0  0  0
  142.8600   72.1790  219.7290 C   0  0  0  0  0  0  0  0  0  0  0  0
  141.9220   72.5810  220.8000 C   0  0  0  0  0  0  0  0  0  0  0  0
  141.4200   73.8270  220.7500 N   0  0  0  0  0  0  0  0  0  0  0  0
  140.5670   74.2020  221.7200 C   0  0  0  0  0  0  0  0  0  0  0  0
  140.0220   75.5150  221.6950 N   0  0  0  0  0  0  0  0  0  0  0  0
  140.8580   76.6870  221.5010 C   0  0  0  0  0  0  0  0  0  0  0  0
  140.3770   77.8440  222.3620 C   0  0  0  0  0  0  0  0  0  0  0  0
  138.9590   78.0960  222.1630 N   0  0  0  0  0  0  0  0  0  0  0  0
  138.4090   79.2710  222.7450 C   0  0  0  0  0  0  0  0  0  0  0  0
  137.3600   79.9750  222.1890 C   0  0  0  0  0  0  0  0  0  0  0  0
  136.8560   81.1180  222.7990 C   0  0  0  0  0  0  0  0  0  0  0  0
  137.3810   81.5880  223.9760 C   0  0  0  0  0  0  0  0  0  0  0  0
  138.4320   80.8930  224.5460 C   0  0  0  0  0  0  0  0  0  0  0  0
  138.9130   79.7770  223.9370 C   0  0  0  0  0  0  0  0  0  0  0  0
  138.2160   77.1430  221.3940 C   0  0  0  0  0  0  0  0  0  0  0  0
  138.6040   75.7420  221.8630 C   0  0  0  0  0  0  0  0  0  0  0  0
  140.2110   73.3750  222.7200 N   0  0  0  0  0  0  0  0  0  0  0  0
  140.7040   72.1130  222.7880 C   0  0  0  0  0  0  0  0  0  0  0  0
  140.3490   71.2120  223.8300 N   0  0  0  0  0  0  0  0  0  0  0  0
  139.1320   70.4180  223.7790 C   0  0  0  0  0  0  0  0  0  0  0  0
  139.5140   69.0380  224.3340 C   0  0  0  0  0  0  0  0  0  0  0  0
  139.8230   69.2660  225.7710 C   0  0  0  0  0  0  0  0  0  0  0  0
  139.2630   68.4710  226.7510 C   0  0  0  0  0  0  0  0  0  0  0  0
  139.5770   68.7130  228.0910 C   0  0  0  0  0  0  0  0  0  0  0  0
  140.4450   69.7480  228.3950 C   0  0  0  0  0  0  0  0  0  0  0  0
  140.9940   70.5300  227.3930 C   0  0  0  0  0  0  0  0  0  0  0  0
  140.6910   70.3000  226.0620 C   0  0  0  0  0  0  0  0  0  0  0  0
  141.2520   71.1090  224.9600 C   0  0  0  0  0  0  0  0  0  0  0  0
  141.5550   71.7610  221.8080 N   0  0  0  0  0  0  0  0  0  0  0  0
  144.1680   71.6610  220.2770 C   0  0  0  0  0  0  0  0  0  0  0  0
  145.1930   71.5130  219.2010 C   0  0  0  0  0  0  0  0  0  0  0  0
  145.8380   75.0960  215.1400 H   0  0  0  0  0  0  0  0  0  0  0  0
  145.6020   75.3340  216.9290 H   0  0  0  0  0  0  0  0  0  0  0  0
  144.5533   72.5265  216.5810 H   0  0  0  0  0  0  0  0  0  0  0  0
  145.9855   71.4531  216.8929 H   0  0  0  0  0  0  0  0  0  0  0  0
  144.8135   74.2110  219.7158 H   0  0  0  0  0  0  0  0  0  0  0  0
  144.6324   74.5168  217.9300 H   0  0  0  0  0  0  0  0  0  0  0  0
  142.4858   74.1818  219.1247 H   0  0  0  0  0  0  0  0  0  0  0  0
  142.8334   72.9884  217.7839 H   0  0  0  0  0  0  0  0  0  0  0  0
  142.3928   71.3513  219.1753 H   0  0  0  0  0  0  0  0  0  0  0  0
  141.8941   76.4399  221.7756 H   0  0  0  0  0  0  0  0  0  0  0  0
  140.8023   76.9879  220.4444 H   0  0  0  0  0  0  0  0  0  0  0  0
  140.5527   77.6005  223.4202 H   0  0  0  0  0  0  0  0  0  0  0  0
  140.9343   78.7473  222.0730 H   0  0  0  0  0  0  0  0  0  0  0  0
  136.9147   79.6252  221.2460 H   0  0  0  0  0  0  0  0  0  0  0  0
  136.0198   81.6561  222.3286 H   0  0  0  0  0  0  0  0  0  0  0  0
  136.9770   82.4929  224.4534 H   0  0  0  0  0  0  0  0  0  0  0  0
  138.8773   81.2422  225.4893 H   0  0  0  0  0  0  0  0  0  0  0  0
  139.7484   79.2443  224.4148 H   0  0  0  0  0  0  0  0  0  0  0  0
  137.1382   77.3012  221.5464 H   0  0  0  0  0  0  0  0  0  0  0  0
  138.4416   77.2607  220.3238 H   0  0  0  0  0  0  0  0  0  0  0  0
  138.3457   75.6341  222.9268 H   0  0  0  0  0  0  0  0  0  0  0  0
  138.0563   75.0048  221.2575 H   0  0  0  0  0  0  0  0  0  0  0  0
  138.3479   70.8773  224.3989 H   0  0  0  0  0  0  0  0  0  0  0  0
  138.7345   70.3487  222.7557 H   0  0  0  0  0  0  0  0  0  0  0  0
  138.6757   68.3339  224.2269 H   0  0  0  0  0  0  0  0  0  0  0  0
  140.3672   68.6005  223.7950 H   0  0  0  0  0  0  0  0  0  0  0  0
  138.5766   67.6553  226.4798 H   0  0  0  0  0  0  0  0  0  0  0  0
  139.1428   68.0930  228.8892 H   0  0  0  0  0  0  0  0  0  0  0  0
  140.7015   69.9514  229.4452 H   0  0  0  0  0  0  0  0  0  0  0  0
  141.6815   71.3466  227.6586 H   0  0  0  0  0  0  0  0  0  0  0  0
  141.4619   72.1209  225.3369 H   0  0  0  0  0  0  0  0  0  0  0  0
  142.1675   70.6088  224.6112 H   0  0  0  0  0  0  0  0  0  0  0  0
  144.5430   72.3665  221.0331 H   0  0  0  0  0  0  0  0  0  0  0  0
  143.9880   70.6705  220.7202 H   0  0  0  0  0  0  0  0  0  0  0  0
  146.1367   71.1953  219.6684 H   0  0  0  0  0  0  0  0  0  0  0  0
  144.7920   70.7759  218.4898 H   0  0  0  0  0  0  0  0  0  0  0  0
  1  2  1  0
  2  3  2  0
  2  4  1  0
  4  5  1  0
  5  6  1  0
  6  7  1  0
  7  8  1  0
  8  9  1  0
  9 10  2  0
 10 11  1  0
 11 12  1  0
 12 13  1  0
 13 14  1  0
 14 15  1  0
 15 16  1  0
 16 17  2  0
 17 18  1  0
 18 19  2  0
 19 20  1  0
 20 21  2  0
 15 22  1  0
 22 23  1  0
 11 24  2  0
 24 25  1  0
 25 26  1  0
 26 27  1  0
 27 28  1  0
 28 29  1  0
 29 30  2  0
 30 31  1  0
 31 32  2  0
 32 33  1  0
 33 34  2  0
 34 35  1  0
 25 36  2  0
  8 37  1  0
 37 38  1  0
 38  5  1  0
 36  9  1  0
 23 12  1  0
 35 26  1  0
 21 16  1  0
 34 29  1  0
  1 39  1  0
  1 40  1  0
  4 41  1  0
  4 42  1  0
  6 43  1  0
  6 44  1  0
  7 45  1  0
  7 46  1  0
  8 47  1  0
 13 48  1  0
 13 49  1  0
 14 50  1  0
 14 51  1  0
 17 52  1  0
 18 53  1  0
 19 54  1  0
 20 55  1  0
 21 56  1  0
 22 57  1  0
 22 58  1  0
 23 59  1  0
 23 60  1  0
 27 61  1  0
 27 62  1  0
 28 63  1  0
 28 64  1  0
 30 65  1  0
 31 66  1  0
 32 67  1  0
 33 68  1  0
 35 69  1  0
 35 70  1  0
 37 71  1  0
 37 72  1  0
 38 73  1  0
 38 74  1  0
M  END
>  <smiles>  (50) 
NC(=O)CN1CCC(c2nc(N3CCN(c4ccccc4)CC3)nc(N3CCc4ccccc4C3)n2)CC1

>  <score_type>  (50) 
oracle

>  <origin>  (50) 
autodockgpu

>  <m_score__min__energy>  (50) 
-9.5199999999999996

>  <m_primary>  (50) 
energy

>  <rmsd>  (50) 
8.32085415644734

>  <m_score__min__rmsd>  (50) 
8.32085415644734

>  <meeko>  (50) 
{"free_energy": -9.46, "intermolecular_energy": -11.25, "internal_energy": -1.4, "cluster_size": 25, "cluster_id": 1, "rank_in_cluster": 3}

>  <energy>  (50) 
-7.99

>  <cluster_rmsd>  (50) 
1.51

>  <cluster>  (50) 
5

$$$$
