@<TRIPOS>MOLECULE
*****
 61 66 0 0 0
SMALL
GASTEIGER

@<TRIPOS>ATOM
      1 O         137.7970   72.0570  221.4930 O.2     1  UNL1       -0.2680
      2 C         138.9770   72.1990  221.9560 C.2     1  UNL1        0.2672
      3 C         139.3010   71.3420  223.0800 C.ar    1  UNL1        0.1034
      4 C         139.0720   69.9950  223.2740 C.ar    1  UNL1       -0.0241
      5 C         139.5840   69.6210  224.5080 C.ar    1  UNL1        0.0018
      6 C         139.6670   68.4720  225.2440 C.ar    1  UNL1       -0.0525
      7 C         140.2700   68.4310  226.4990 C.ar    1  UNL1       -0.0597
      8 C         140.7970   69.6110  226.9980 C.ar    1  UNL1       -0.0414
      9 C         140.7380   70.7930  226.2980 C.ar    1  UNL1        0.0648
     10 CL        141.4100   72.2730  226.9500 Cl      1  UNL1       -0.0814
     11 C         140.1310   70.7920  225.0540 C.ar    1  UNL1        0.0656
     12 N         139.9450   71.7920  224.1810 N.ar    1  UNL1       -0.3494
     13 N         139.8580   73.1460  221.3730 N.am    1  UNL1       -0.2651
     14 C         139.4190   74.4620  220.9540 C.3     1  UNL1        0.0310
     15 C         140.6900   75.2760  221.0790 C.3     1  UNL1        0.0275
     16 C         140.7750   76.2990  219.9510 C.3     1  UNL1       -0.0278
     17 C         140.0610   77.4690  220.6230 C.3     1  UNL1       -0.0002
     18 N         140.3710   77.4030  221.9860 N.3     1  UNL1       -0.3011
     19 C         140.8030   78.4760  222.7270 C.3     1  UNL1        0.0018
     20 C         142.0900   79.1530  222.5060 C.3     1  UNL1       -0.0260
     21 C         142.3710   79.9720  223.7780 C.3     1  UNL1       -0.0364
     22 C         142.0260   81.4150  223.6300 C.3     1  UNL1       -0.0038
     23 N         140.8670   81.5000  222.7470 N.3     1  UNL1       -0.3160
     24 C         141.3170   81.2540  221.3700 C.3     1  UNL1       -0.0038
     25 C         142.1820   80.0420  221.3050 C.3     1  UNL1       -0.0364
     26 C         140.6930   76.0690  222.3570 C.3     1  UNL1        0.0101
     27 C         141.7490   74.2730  220.9950 C.ar    1  UNL1       -0.0170
     28 C         143.1170   74.4720  220.7700 C.ar    1  UNL1       -0.0562
     29 C         143.9910   73.4180  220.6740 C.ar    1  UNL1       -0.0614
     30 C         143.4540   72.1360  220.8090 C.ar    1  UNL1       -0.0600
     31 C         142.1120   71.9460  221.0310 C.ar    1  UNL1       -0.0400
     32 C         141.2440   73.0040  221.1270 C.ar    1  UNL1        0.0404
     33 H         138.5648   69.3252  222.5640 H       1  UNL1        0.0646
     34 H         139.2420   67.5458  224.8299 H       1  UNL1        0.0624
     35 H         140.3258   67.4947  227.0736 H       1  UNL1        0.0618
     36 H         141.2786   69.6021  227.9869 H       1  UNL1        0.0633
     37 H         140.2540   72.7620  224.3450 H       1  UNL1        0.1661
     38 H         139.0535   74.4493  219.9166 H       1  UNL1        0.0478
     39 H         138.5804   74.8577  221.5457 H       1  UNL1        0.0478
     40 H         141.8166   76.5446  219.6965 H       1  UNL1        0.0287
     41 H         140.3463   75.9761  218.9908 H       1  UNL1        0.0287
     42 H         140.4138   78.4212  220.2001 H       1  UNL1        0.0427
     43 H         138.9742   77.4130  220.4623 H       1  UNL1        0.0427
     44 H         140.0319   79.2516  222.6096 H       1  UNL1        0.0429
     45 H         140.9756   78.0039  223.7054 H       1  UNL1        0.0429
     46 H         142.8332   78.3686  222.3002 H       1  UNL1        0.0314
     47 H         141.7770   79.5525  224.6033 H       1  UNL1        0.0281
     48 H         143.4511   79.9107  223.9768 H       1  UNL1        0.0281
     49 H         141.7822   81.8457  224.6124 H       1  UNL1        0.0424
     50 H         142.8746   81.9755  223.2109 H       1  UNL1        0.0424
     51 H         140.5570   82.5190  222.7910 H       1  UNL1        0.1219
     52 H         140.4387   81.1054  220.7246 H       1  UNL1        0.0424
     53 H         141.9000   82.1222  221.0289 H       1  UNL1        0.0424
     54 H         141.8893   79.4572  220.4205 H       1  UNL1        0.0281
     55 H         143.2212   80.3995  221.2572 H       1  UNL1        0.0281
     56 H         141.6861   76.0317  222.8286 H       1  UNL1        0.0436
     57 H         139.9733   75.6664  223.0849 H       1  UNL1        0.0436
     58 H         143.5003   75.4980  220.6678 H       1  UNL1        0.0621
     59 H         145.0654   73.5759  220.4987 H       1  UNL1        0.0618
     60 H         144.1181   71.2621  220.7362 H       1  UNL1        0.0618
     61 H         141.7242   70.9218  221.1342 H       1  UNL1        0.0636
@<TRIPOS>BOND
     1     1     2    2
     2     2     3    1
     3     3     4   ar
     4     4     5   ar
     5     5     6   ar
     6     6     7   ar
     7     7     8   ar
     8     8     9   ar
     9     9    10    1
    10     9    11   ar
    11    11    12   ar
    12     2    13   am
    13    13    14    1
    14    15    14    1
    15    15    16    1
    16    16    17    1
    17    17    18    1
    18    18    19    1
    19    19    20    1
    20    20    21    1
    21    21    22    1
    22    22    23    1
    23    23    24    1
    24    24    25    1
    25    18    26    1
    26    15    27    1
    27    27    28   ar
    28    28    29   ar
    29    29    30   ar
    30    30    31   ar
    31    31    32   ar
    32    12     3   ar
    33    32    13    1
    34    11     5   ar
    35    26    15    1
    36    32    27   ar
    37    25    20    1
    38     4    33    1
    39     6    34    1
    40     7    35    1
    41     8    36    1
    42    12    37    1
    43    14    38    1
    44    14    39    1
    45    16    40    1
    46    16    41    1
    47    17    42    1
    48    17    43    1
    49    19    44    1
    50    19    45    1
    51    20    46    1
    52    21    47    1
    53    21    48    1
    54    22    49    1
    55    22    50    1
    56    23    51    1
    57    24    52    1
    58    24    53    1
    59    25    54    1
    60    25    55    1
    61    26    56    1
    62    26    57    1
    63    28    58    1
    64    29    59    1
    65    30    60    1
    66    31    61    1
