
     RDKit          3D

 74 80  0  0  0  0  0  0  0  0999 V2000
  141.5860   81.6340  223.4550 C   0  0  0  0  0  0  0  0  0  0  0  0
  142.7300   80.8660  223.3620 C   0  0  0  0  0  0  0  0  0  0  0  0
  142.6450   79.4900  223.2420 C   0  0  0  0  0  0  0  0  0  0  0  0
  141.4000   78.9050  223.2180 C   0  0  0  0  0  0  0  0  0  0  0  0
  140.2320   79.6450  223.3090 C   0  0  0  0  0  0  0  0  0  0  0  0
  140.3560   81.0110  223.4270 C   0  0  0  0  0  0  0  0  0  0  0  0
  138.8970   78.9820  223.2800 C   0  0  0  0  0  0  0  0  0  0  0  0
  138.8880   77.8600  222.2840 C   0  0  0  0  0  0  0  0  0  0  0  0
  140.0750   77.0150  222.4090 N   0  0  0  0  0  0  0  0  0  0  0  0
  140.0570   75.7060  221.8330 C   0  0  0  0  0  0  0  0  0  0  0  0
  138.9040   75.1050  221.4870 N   0  0  0  0  0  0  0  0  0  0  0  0
  138.8500   73.8850  220.9470 C   0  0  0  0  0  0  0  0  0  0  0  0
  137.6090   73.2590  220.5830 N   0  0  0  0  0  0  0  0  0  0  0  0
  137.2220   71.9680  221.0540 C   0  0  0  0  0  0  0  0  0  0  0  0
  137.6000   71.7570  222.5080 C   0  0  0  0  0  0  0  0  0  0  0  0
  138.6630   70.7040  222.5690 C   0  0  0  0  0  0  0  0  0  0  0  0
  139.6500   70.9130  223.6740 C   0  0  0  0  0  0  0  0  0  0  0  0
  139.5850   69.7600  224.5600 N   0  0  0  0  0  0  0  0  0  0  0  0
  139.0750   68.5480  224.2460 C   0  0  0  0  0  0  0  0  0  0  0  0
  139.1940   67.7480  225.3270 N   0  0  0  0  0  0  0  0  0  0  0  0
  139.7830   68.4720  226.3190 C   0  0  0  0  0  0  0  0  0  0  0  0
  140.1190   68.1080  227.6070 C   0  0  0  0  0  0  0  0  0  0  0  0
  140.7230   69.0780  228.4160 C   0  0  0  0  0  0  0  0  0  0  0  0
  140.9590   70.3270  227.9220 C   0  0  0  0  0  0  0  0  0  0  0  0
  140.6210   70.6830  226.6340 C   0  0  0  0  0  0  0  0  0  0  0  0
  140.0310   69.7430  225.8380 C   0  0  0  0  0  0  0  0  0  0  0  0
  140.0390   73.2570  220.7540 N   0  0  0  0  0  0  0  0  0  0  0  0
  141.2190   73.8010  221.0780 C   0  0  0  0  0  0  0  0  0  0  0  0
  142.4620   73.1230  220.8680 N   0  0  0  0  0  0  0  0  0  0  0  0
  143.6050   73.8690  220.3810 C   0  0  0  0  0  0  0  0  0  0  0  0
  144.8710   73.1080  220.7930 C   0  0  0  0  0  0  0  0  0  0  0  0
  144.7470   71.7810  220.0920 C   0  0  0  0  0  0  0  0  0  0  0  0
  145.7680   71.3090  219.3130 C   0  0  0  0  0  0  0  0  0  0  0  0
  145.6320   70.0900  218.6790 C   0  0  0  0  0  0  0  0  0  0  0  0
  144.4430   69.3850  218.8640 C   0  0  0  0  0  0  0  0  0  0  0  0
  143.4200   69.8910  219.6640 C   0  0  0  0  0  0  0  0  0  0  0  0
  143.5580   71.1100  220.2960 C   0  0  0  0  0  0  0  0  0  0  0  0
  142.5040   71.7030  221.1600 C   0  0  0  0  0  0  0  0  0  0  0  0
  141.2050   75.0380  221.6210 N   0  0  0  0  0  0  0  0  0  0  0  0
  141.2710   77.4470  223.0920 C   0  0  0  0  0  0  0  0  0  0  0  0
  141.6549   82.7277  223.5501 H   0  0  0  0  0  0  0  0  0  0  0  0
  143.7166   81.3519  223.3835 H   0  0  0  0  0  0  0  0  0  0  0  0
  143.5548   78.8762  223.1673 H   0  0  0  0  0  0  0  0  0  0  0  0
  139.4460   81.6244  223.5012 H   0  0  0  0  0  0  0  0  0  0  0  0
  138.6704   78.5809  224.2789 H   0  0  0  0  0  0  0  0  0  0  0  0
  138.1385   79.7230  222.9874 H   0  0  0  0  0  0  0  0  0  0  0  0
  137.9925   77.2432  222.4502 H   0  0  0  0  0  0  0  0  0  0  0  0
  138.8840   78.2978  221.2749 H   0  0  0  0  0  0  0  0  0  0  0  0
  136.9880   73.7800  219.9580 H   0  0  0  0  0  0  0  0  0  0  0  0
  136.1316   71.8648  220.9519 H   0  0  0  0  0  0  0  0  0  0  0  0
  137.7509   71.2141  220.4524 H   0  0  0  0  0  0  0  0  0  0  0  0
  137.9824   72.6967  222.9331 H   0  0  0  0  0  0  0  0  0  0  0  0
  136.7195   71.4409  223.0866 H   0  0  0  0  0  0  0  0  0  0  0  0
  138.1776   69.7279  222.7162 H   0  0  0  0  0  0  0  0  0  0  0  0
  139.2221   70.7546  221.6230 H   0  0  0  0  0  0  0  0  0  0  0  0
  140.6634   71.0062  223.2565 H   0  0  0  0  0  0  0  0  0  0  0  0
  139.4141   71.8338  224.2276 H   0  0  0  0  0  0  0  0  0  0  0  0
  138.6386   68.2630  223.2774 H   0  0  0  0  0  0  0  0  0  0  0  0
  139.9198   67.0940  227.9839 H   0  0  0  0  0  0  0  0  0  0  0  0
  141.0072   68.8327  229.4500 H   0  0  0  0  0  0  0  0  0  0  0  0
  141.4349   71.0752  228.5730 H   0  0  0  0  0  0  0  0  0  0  0  0
  140.8211   71.6970  226.2574 H   0  0  0  0  0  0  0  0  0  0  0  0
  143.5583   73.9522  219.2851 H   0  0  0  0  0  0  0  0  0  0  0  0
  143.6111   74.8837  220.8057 H   0  0  0  0  0  0  0  0  0  0  0  0
  145.7732   73.6423  220.4606 H   0  0  0  0  0  0  0  0  0  0  0  0
  144.9633   73.0019  221.8840 H   0  0  0  0  0  0  0  0  0  0  0  0
  146.6903   71.8963  219.1927 H   0  0  0  0  0  0  0  0  0  0  0  0
  146.4372   69.6871  218.0471 H   0  0  0  0  0  0  0  0  0  0  0  0
  144.3101   68.4115  218.3693 H   0  0  0  0  0  0  0  0  0  0  0  0
  142.4932   69.3128  219.7929 H   0  0  0  0  0  0  0  0  0  0  0  0
  141.5301   71.2429  220.9367 H   0  0  0  0  0  0  0  0  0  0  0  0
  142.7253   71.5284  222.2233 H   0  0  0  0  0  0  0  0  0  0  0  0
  141.2670   77.0126  224.1026 H   0  0  0  0  0  0  0  0  0  0  0  0
  142.1222   77.1060  222.4845 H   0  0  0  0  0  0  0  0  0  0  0  0
  1  2  2  0
  2  3  1  0
  3  4  2  0
  4  5  1  0
  5  6  2  0
  5  7  1  0
  7  8  1  0
  8  9  1  0
  9 10  1  0
 10 11  2  0
 11 12  1  0
 12 13  1  0
 13 14  1  0
 14 15  1  0
 15 16  1  0
 16 17  1  0
 17 18  1  0
 18 19  1  0
 19 20  2  0
 20 21  1  0
 21 22  2  0
 22 23  1  0
 23 24  2  0
 24 25  1  0
 25 26  2  0
 12 27  2  0
 27 28  1  0
 28 29  1  0
 29 30  1  0
 30 31  1  0
 31 32  1  0
 32 33  2  0
 33 34  1  0
 34 35  2  0
 35 36  1  0
 36 37  2  0
 37 38  1  0
 28 39  2  0
  9 40  1  0
  6  1  1  0
 39 10  1  0
 40  4  1  0
 26 18  1  0
 38 29  1  0
 26 21  1  0
 37 32  1  0
  1 41  1  0
  2 42  1  0
  3 43  1  0
  6 44  1  0
  7 45  1  0
  7 46  1  0
  8 47  1  0
  8 48  1  0
 13 49  1  0
 14 50  1  0
 14 51  1  0
 15 52  1  0
 15 53  1  0
 16 54  1  0
 16 55  1  0
 17 56  1  0
 17 57  1  0
 19 58  1  0
 22 59  1  0
 23 60  1  0
 24 61  1  0
 25 62  1  0
 30 63  1  0
 30 64  1  0
 31 65  1  0
 31 66  1  0
 33 67  1  0
 34 68  1  0
 35 69  1  0
 36 70  1  0
 38 71  1  0
 38 72  1  0
 40 73  1  0
 40 74  1  0
M  END
>  <smiles>  (1) 
c1ccc2c(c1)CCN(c1nc(NCCCCn3cnc4ccccc43)nc(N3CCc4ccccc4C3)n1)C2

>  <score_type>  (1) 
oracle

>  <origin>  (1) 
autodockgpu

>  <m_score__min__energy>  (1) 
-11.42

>  <m_primary>  (1) 
energy

>  <rmsd>  (1) 
4.907255153286477

>  <m_score__min__rmsd>  (1) 
4.907255153286477

>  <meeko>  (1) 
{"free_energy": -10.57, "intermolecular_energy": -12.96, "internal_energy": -1.49, "cluster_size": 18, "cluster_id": 1, "rank_in_cluster": 9}

>  <energy>  (1) 
-11.42

>  <cluster_rmsd>  (1) 
0.0

>  <cluster>  (1) 
1

$$$$

     RDKit          3D

 74 80  0  0  0  0  0  0  0  0999 V2000
  145.5620   70.2740  218.7970 C   0  0  0  0  0  0  0  0  0  0  0  0
  144.4490   69.5160  219.1030 C   0  0  0  0  0  0  0  0  0  0  0  0
  143.4390   70.0370  219.8930 C   0  0  0  0  0  0  0  0  0  0  0  0
  143.5670   71.3230  220.3640 C   0  0  0  0  0  0  0  0  0  0  0  0
  144.6690   72.1110  220.0760 C   0  0  0  0  0  0  0  0  0  0  0  0
  145.6530   71.5600  219.2880 C   0  0  0  0  0  0  0  0  0  0  0  0
  144.7790   73.5030  220.6020 C   0  0  0  0  0  0  0  0  0  0  0  0
  143.4470   74.1910  220.5510 C   0  0  0  0  0  0  0  0  0  0  0  0
  142.3770   73.3400  221.0700 N   0  0  0  0  0  0  0  0  0  0  0  0
  141.1400   73.9430  221.4600 C   0  0  0  0  0  0  0  0  0  0  0  0
  139.9900   73.2440  221.4730 N   0  0  0  0  0  0  0  0  0  0  0  0
  138.8170   73.7730  221.8330 C   0  0  0  0  0  0  0  0  0  0  0  0
  137.6000   73.0110  221.8410 N   0  0  0  0  0  0  0  0  0  0  0  0
  137.1810   72.2260  222.9570 C   0  0  0  0  0  0  0  0  0  0  0  0
  136.9730   70.7710  222.5820 C   0  0  0  0  0  0  0  0  0  0  0  0
  138.3170   70.1290  222.4260 C   0  0  0  0  0  0  0  0  0  0  0  0
  139.3240   70.5930  223.4300 C   0  0  0  0  0  0  0  0  0  0  0  0
  139.3820   69.6060  224.4990 N   0  0  0  0  0  0  0  0  0  0  0  0
  138.9330   68.3330  224.4260 C   0  0  0  0  0  0  0  0  0  0  0  0
  139.1640   67.7360  225.6150 N   0  0  0  0  0  0  0  0  0  0  0  0
  139.7620   68.6490  226.4300 C   0  0  0  0  0  0  0  0  0  0  0  0
  140.1930   68.5290  227.7360 C   0  0  0  0  0  0  0  0  0  0  0  0
  140.7810   69.6520  228.3290 C   0  0  0  0  0  0  0  0  0  0  0  0
  140.9090   70.8100  227.6190 C   0  0  0  0  0  0  0  0  0  0  0  0
  140.4750   70.9230  226.3160 C   0  0  0  0  0  0  0  0  0  0  0  0
  139.9010   69.8310  225.7290 C   0  0  0  0  0  0  0  0  0  0  0  0
  138.8320   75.0830  222.1950 N   0  0  0  0  0  0  0  0  0  0  0  0
  139.9420   75.8310  222.2010 C   0  0  0  0  0  0  0  0  0  0  0  0
  139.9370   77.2100  222.5850 N   0  0  0  0  0  0  0  0  0  0  0  0
  138.7190   77.9820  222.4450 C   0  0  0  0  0  0  0  0  0  0  0  0
  138.7990   79.1640  223.4190 C   0  0  0  0  0  0  0  0  0  0  0  0
  139.9980   79.9470  222.9500 C   0  0  0  0  0  0  0  0  0  0  0  0
  139.8950   81.2870  222.6980 C   0  0  0  0  0  0  0  0  0  0  0  0
  141.0080   81.9840  222.2680 C   0  0  0  0  0  0  0  0  0  0  0  0
  142.2000   81.2800  222.1080 C   0  0  0  0  0  0  0  0  0  0  0  0
  142.2740   79.9140  222.3720 C   0  0  0  0  0  0  0  0  0  0  0  0
  141.1620   79.2190  222.8020 C   0  0  0  0  0  0  0  0  0  0  0  0
  141.1760   77.7630  223.1000 C   0  0  0  0  0  0  0  0  0  0  0  0
  141.0960   75.2360  221.8270 N   0  0  0  0  0  0  0  0  0  0  0  0
  142.5140   71.9090  221.2060 C   0  0  0  0  0  0  0  0  0  0  0  0
  146.3648   69.8582  218.1705 H   0  0  0  0  0  0  0  0  0  0  0  0
  144.3645   68.4899  218.7158 H   0  0  0  0  0  0  0  0  0  0  0  0
  142.5520   69.4349  220.1392 H   0  0  0  0  0  0  0  0  0  0  0  0
  146.5393   72.1632  219.0420 H   0  0  0  0  0  0  0  0  0  0  0  0
  145.1294   73.4695  221.6442 H   0  0  0  0  0  0  0  0  0  0  0  0
  145.4926   74.0630  219.9797 H   0  0  0  0  0  0  0  0  0  0  0  0
  143.4968   75.1089  221.1551 H   0  0  0  0  0  0  0  0  0  0  0  0
  143.2211   74.4220  219.4995 H   0  0  0  0  0  0  0  0  0  0  0  0
  137.0200   73.0470  220.9980 H   0  0  0  0  0  0  0  0  0  0  0  0
  137.9503   72.2842  223.7410 H   0  0  0  0  0  0  0  0  0  0  0  0
  136.2199   72.6261  223.3122 H   0  0  0  0  0  0  0  0  0  0  0  0
  136.4064   70.2600  223.3743 H   0  0  0  0  0  0  0  0  0  0  0  0
  136.4071   70.6991  221.6415 H   0  0  0  0  0  0  0  0  0  0  0  0
  138.1967   69.0407  222.5320 H   0  0  0  0  0  0  0  0  0  0  0  0
  138.6967   70.4140  221.4337 H   0  0  0  0  0  0  0  0  0  0  0  0
  140.3111   70.6853  222.9533 H   0  0  0  0  0  0  0  0  0  0  0  0
  139.0371   71.5757  223.8326 H   0  0  0  0  0  0  0  0  0  0  0  0
  138.4611   67.8645  223.5497 H   0  0  0  0  0  0  0  0  0  0  0  0
  140.0785   67.5856  228.2900 H   0  0  0  0  0  0  0  0  0  0  0  0
  141.1400   69.6011  229.3675 H   0  0  0  0  0  0  0  0  0  0  0  0
  141.3738   71.6819  228.1025 H   0  0  0  0  0  0  0  0  0  0  0  0
  140.5877   71.8673  225.7632 H   0  0  0  0  0  0  0  0  0  0  0  0
  138.6273   78.3527  221.4134 H   0  0  0  0  0  0  0  0  0  0  0  0
  137.8408   77.3584  222.6686 H   0  0  0  0  0  0  0  0  0  0  0  0
  137.8871   79.7768  223.3650 H   0  0  0  0  0  0  0  0  0  0  0  0
  138.8890   78.8419  224.4669 H   0  0  0  0  0  0  0  0  0  0  0  0
  138.9348   81.8055  222.8363 H   0  0  0  0  0  0  0  0  0  0  0  0
  140.9547   83.0625  222.0582 H   0  0  0  0  0  0  0  0  0  0  0  0
  143.0997   81.8130  221.7667 H   0  0  0  0  0  0  0  0  0  0  0  0
  143.2284   79.3842  222.2363 H   0  0  0  0  0  0  0  0  0  0  0  0
  142.0358   77.2853  222.6075 H   0  0  0  0  0  0  0  0  0  0  0  0
  141.2639   77.5857  224.1821 H   0  0  0  0  0  0  0  0  0  0  0  0
  142.7466   71.6828  222.2571 H   0  0  0  0  0  0  0  0  0  0  0  0
  141.5622   71.4670  220.8762 H   0  0  0  0  0  0  0  0  0  0  0  0
  1  2  2  0
  2  3  1  0
  3  4  2  0
  4  5  1  0
  5  6  2  0
  5  7  1  0
  7  8  1  0
  8  9  1  0
  9 10  1  0
 10 11  2  0
 11 12  1  0
 12 13  1  0
 13 14  1  0
 14 15  1  0
 15 16  1  0
 16 17  1  0
 17 18  1  0
 18 19  1  0
 19 20  2  0
 20 21  1  0
 21 22  2  0
 22 23  1  0
 23 24  2  0
 24 25  1  0
 25 26  2  0
 12 27  2  0
 27 28  1  0
 28 29  1  0
 29 30  1  0
 30 31  1  0
 31 32  1  0
 32 33  2  0
 33 34  1  0
 34 35  2  0
 35 36  1  0
 36 37  2  0
 37 38  1  0
 28 39  2  0
  9 40  1  0
  6  1  1  0
 39 10  1  0
 40  4  1  0
 26 18  1  0
 38 29  1  0
 26 21  1  0
 37 32  1  0
  1 41  1  0
  2 42  1  0
  3 43  1  0
  6 44  1  0
  7 45  1  0
  7 46  1  0
  8 47  1  0
  8 48  1  0
 13 49  1  0
 14 50  1  0
 14 51  1  0
 15 52  1  0
 15 53  1  0
 16 54  1  0
 16 55  1  0
 17 56  1  0
 17 57  1  0
 19 58  1  0
 22 59  1  0
 23 60  1  0
 24 61  1  0
 25 62  1  0
 30 63  1  0
 30 64  1  0
 31 65  1  0
 31 66  1  0
 33 67  1  0
 34 68  1  0
 35 69  1  0
 36 70  1  0
 38 71  1  0
 38 72  1  0
 40 73  1  0
 40 74  1  0
M  END
>  <smiles>  (2) 
c1ccc2c(c1)CCN(c1nc(NCCCCn3cnc4ccccc43)nc(N3CCc4ccccc4C3)n1)C2

>  <score_type>  (2) 
oracle

>  <origin>  (2) 
autodockgpu

>  <m_score__min__energy>  (2) 
-11.42

>  <m_primary>  (2) 
energy

>  <rmsd>  (2) 
4.930855432079287

>  <m_score__min__rmsd>  (2) 
4.930855432079287

>  <meeko>  (2) 
{"free_energy": -10.56, "intermolecular_energy": -12.95, "internal_energy": -1.49, "cluster_size": 18, "cluster_id": 1, "rank_in_cluster": 10}

>  <energy>  (2) 
-11.27

>  <cluster_rmsd>  (2) 
0.28

>  <cluster>  (2) 
1

$$$$

     RDKit          3D

 74 80  0  0  0  0  0  0  0  0999 V2000
  142.3890   80.8950  223.1700 C   0  0  0  0  0  0  0  0  0  0  0  0
  141.1960   81.0570  223.8470 C   0  0  0  0  0  0  0  0  0  0  0  0
  140.1350   80.1980  223.6180 C   0  0  0  0  0  0  0  0  0  0  0  0
  140.2940   79.1810  222.7050 C   0  0  0  0  0  0  0  0  0  0  0  0
  141.4760   78.9900  222.0090 C   0  0  0  0  0  0  0  0  0  0  0  0
  142.5090   79.8630  222.2620 C   0  0  0  0  0  0  0  0  0  0  0  0
  141.6180   77.8780  221.0240 C   0  0  0  0  0  0  0  0  0  0  0  0
  140.9460   76.6370  221.5320 C   0  0  0  0  0  0  0  0  0  0  0  0
  139.6140   76.9210  222.0640 N   0  0  0  0  0  0  0  0  0  0  0  0
  138.6870   75.8440  222.2250 C   0  0  0  0  0  0  0  0  0  0  0  0
  138.9490   74.6130  221.7470 N   0  0  0  0  0  0  0  0  0  0  0  0
  138.1080   73.5840  221.8790 C   0  0  0  0  0  0  0  0  0  0  0  0
  138.4050   72.2770  221.3630 N   0  0  0  0  0  0  0  0  0  0  0  0
  139.3660   71.4050  221.9580 C   0  0  0  0  0  0  0  0  0  0  0  0
  138.7280   70.4440  222.9430 C   0  0  0  0  0  0  0  0  0  0  0  0
  138.9060   70.9970  224.3230 C   0  0  0  0  0  0  0  0  0  0  0  0
  140.2650   71.5720  224.5680 C   0  0  0  0  0  0  0  0  0  0  0  0
  140.6260   71.3010  225.9520 N   0  0  0  0  0  0  0  0  0  0  0  0
  140.9500   72.2270  226.8820 C   0  0  0  0  0  0  0  0  0  0  0  0
  141.2210   71.5870  228.0380 N   0  0  0  0  0  0  0  0  0  0  0  0
  141.0630   70.2510  227.8220 C   0  0  0  0  0  0  0  0  0  0  0  0
  141.2220   69.1850  228.6840 C   0  0  0  0  0  0  0  0  0  0  0  0
  140.9880   67.9020  228.1760 C   0  0  0  0  0  0  0  0  0  0  0  0
  140.6180   67.7420  226.8720 C   0  0  0  0  0  0  0  0  0  0  0  0
  140.4610   68.8110  226.0180 C   0  0  0  0  0  0  0  0  0  0  0  0
  140.6870   70.0670  226.5050 C   0  0  0  0  0  0  0  0  0  0  0  0
  136.9450   73.8360  222.5340 N   0  0  0  0  0  0  0  0  0  0  0  0
  136.6260   75.0370  223.0320 C   0  0  0  0  0  0  0  0  0  0  0  0
  135.3950   75.2830  223.7180 N   0  0  0  0  0  0  0  0  0  0  0  0
  135.0850   76.6270  224.1640 C   0  0  0  0  0  0  0  0  0  0  0  0
  133.5630   76.7320  224.3120 C   0  0  0  0  0  0  0  0  0  0  0  0
  133.2250   75.7160  225.3710 C   0  0  0  0  0  0  0  0  0  0  0  0
  132.4820   76.0720  226.4630 C   0  0  0  0  0  0  0  0  0  0  0  0
  132.1860   75.1220  227.4220 C   0  0  0  0  0  0  0  0  0  0  0  0
  132.6630   73.8270  227.2300 C   0  0  0  0  0  0  0  0  0  0  0  0
  133.4180   73.4930  226.1070 C   0  0  0  0  0  0  0  0  0  0  0  0
  133.7130   74.4430  225.1500 C   0  0  0  0  0  0  0  0  0  0  0  0
  134.5130   74.1510  223.9320 C   0  0  0  0  0  0  0  0  0  0  0  0
  137.5200   76.0370  222.8640 N   0  0  0  0  0  0  0  0  0  0  0  0
  139.1900   78.2500  222.4360 C   0  0  0  0  0  0  0  0  0  0  0  0
  143.2312   81.5788  223.3521 H   0  0  0  0  0  0  0  0  0  0  0  0
  141.0882   81.8754  224.5741 H   0  0  0  0  0  0  0  0  0  0  0  0
  139.1837   80.3259  224.1552 H   0  0  0  0  0  0  0  0  0  0  0  0
  143.4597   79.7342  221.7238 H   0  0  0  0  0  0  0  0  0  0  0  0
  141.1549   78.1765  220.0719 H   0  0  0  0  0  0  0  0  0  0  0  0
  142.6876   77.6682  220.8762 H   0  0  0  0  0  0  0  0  0  0  0  0
  140.8533   75.9180  220.7047 H   0  0  0  0  0  0  0  0  0  0  0  0
  141.5593   76.2246  222.3467 H   0  0  0  0  0  0  0  0  0  0  0  0
  137.8920   71.9760  220.5300 H   0  0  0  0  0  0  0  0  0  0  0  0
  139.8586   70.8247  221.1639 H   0  0  0  0  0  0  0  0  0  0  0  0
  140.0914   72.0230  222.5074 H   0  0  0  0  0  0  0  0  0  0  0  0
  137.6560   70.3399  222.7196 H   0  0  0  0  0  0  0  0  0  0  0  0
  139.2021   69.4543  222.8676 H   0  0  0  0  0  0  0  0  0  0  0  0
  138.1598   71.7901  224.4786 H   0  0  0  0  0  0  0  0  0  0  0  0
  138.7794   70.1593  225.0246 H   0  0  0  0  0  0  0  0  0  0  0  0
  140.9959   71.1029  223.8930 H   0  0  0  0  0  0  0  0  0  0  0  0
  140.2607   72.6557  224.3797 H   0  0  0  0  0  0  0  0  0  0  0  0
  140.9864   73.3149  226.7234 H   0  0  0  0  0  0  0  0  0  0  0  0
  141.5215   69.3380  229.7313 H   0  0  0  0  0  0  0  0  0  0  0  0
  141.1023   67.0230  228.8274 H   0  0  0  0  0  0  0  0  0  0  0  0
  140.4393   66.7258  226.4906 H   0  0  0  0  0  0  0  0  0  0  0  0
  140.1614   68.6573  224.9708 H   0  0  0  0  0  0  0  0  0  0  0  0
  135.5694   76.8210  225.1323 H   0  0  0  0  0  0  0  0  0  0  0  0
  135.4525   77.3672  223.4380 H   0  0  0  0  0  0  0  0  0  0  0  0
  133.2709   77.7427  224.6333 H   0  0  0  0  0  0  0  0  0  0  0  0
  133.0335   76.5471  223.3658 H   0  0  0  0  0  0  0  0  0  0  0  0
  132.1232   77.1056  226.5768 H   0  0  0  0  0  0  0  0  0  0  0  0
  131.5914   75.3805  228.3106 H   0  0  0  0  0  0  0  0  0  0  0  0
  132.4394   73.0533  227.9792 H   0  0  0  0  0  0  0  0  0  0  0  0
  133.7822   72.4626  225.9822 H   0  0  0  0  0  0  0  0  0  0  0  0
  135.1040   73.2351  224.0796 H   0  0  0  0  0  0  0  0  0  0  0  0
  133.8581   73.9956  223.0620 H   0  0  0  0  0  0  0  0  0  0  0  0
  138.5842   78.6613  221.6151 H   0  0  0  0  0  0  0  0  0  0  0  0
  138.6247   78.1504  223.3744 H   0  0  0  0  0  0  0  0  0  0  0  0
  1  2  2  0
  2  3  1  0
  3  4  2  0
  4  5  1  0
  5  6  2  0
  5  7  1  0
  7  8  1  0
  8  9  1  0
  9 10  1  0
 10 11  2  0
 11 12  1  0
 12 13  1  0
 13 14  1  0
 14 15  1  0
 15 16  1  0
 16 17  1  0
 17 18  1  0
 18 19  1  0
 19 20  2  0
 20 21  1  0
 21 22  2  0
 22 23  1  0
 23 24  2  0
 24 25  1  0
 25 26  2  0
 12 27  2  0
 27 28  1  0
 28 29  1  0
 29 30  1  0
 30 31  1  0
 31 32  1  0
 32 33  2  0
 33 34  1  0
 34 35  2  0
 35 36  1  0
 36 37  2  0
 37 38  1  0
 28 39  2  0
  9 40  1  0
  6  1  1  0
 39 10  1  0
 40  4  1  0
 26 18  1  0
 38 29  1  0
 26 21  1  0
 37 32  1  0
  1 41  1  0
  2 42  1  0
  3 43  1  0
  6 44  1  0
  7 45  1  0
  7 46  1  0
  8 47  1  0
  8 48  1  0
 13 49  1  0
 14 50  1  0
 14 51  1  0
 15 52  1  0
 15 53  1  0
 16 54  1  0
 16 55  1  0
 17 56  1  0
 17 57  1  0
 19 58  1  0
 22 59  1  0
 23 60  1  0
 24 61  1  0
 25 62  1  0
 30 63  1  0
 30 64  1  0
 31 65  1  0
 31 66  1  0
 33 67  1  0
 34 68  1  0
 35 69  1  0
 36 70  1  0
 38 71  1  0
 38 72  1  0
 40 73  1  0
 40 74  1  0
M  END
>  <smiles>  (3) 
c1ccc2c(c1)CCN(c1nc(NCCCCn3cnc4ccccc43)nc(N3CCc4ccccc4C3)n1)C2

>  <score_type>  (3) 
oracle

>  <origin>  (3) 
autodockgpu

>  <m_score__min__energy>  (3) 
-11.42

>  <m_primary>  (3) 
energy

>  <rmsd>  (3) 
4.575290653353086

>  <m_score__min__rmsd>  (3) 
4.575290653353086

>  <meeko>  (3) 
{"free_energy": -10.42, "intermolecular_energy": -12.8, "internal_energy": -1.27, "cluster_size": 10, "cluster_id": 2, "rank_in_cluster": 1}

>  <energy>  (3) 
-11.05

>  <cluster_rmsd>  (3) 
0.52

>  <cluster>  (3) 
1

$$$$

     RDKit          3D

 74 80  0  0  0  0  0  0  0  0999 V2000
  142.1870   79.7660  221.9280 C   0  0  0  0  0  0  0  0  0  0  0  0
  141.9640   79.2450  223.1870 C   0  0  0  0  0  0  0  0  0  0  0  0
  141.3480   78.0160  223.3410 C   0  0  0  0  0  0  0  0  0  0  0  0
  140.9620   77.3250  222.2140 C   0  0  0  0  0  0  0  0  0  0  0  0
  141.1710   77.8170  220.9370 C   0  0  0  0  0  0  0  0  0  0  0  0
  141.7860   79.0430  220.8230 C   0  0  0  0  0  0  0  0  0  0  0  0
  140.7420   77.0450  219.7350 C   0  0  0  0  0  0  0  0  0  0  0  0
  141.0100   75.5810  219.9270 C   0  0  0  0  0  0  0  0  0  0  0  0
  140.5650   75.1170  221.2400 N   0  0  0  0  0  0  0  0  0  0  0  0
  140.3770   73.7150  221.4530 C   0  0  0  0  0  0  0  0  0  0  0  0
  140.2470   72.8580  220.4230 N   0  0  0  0  0  0  0  0  0  0  0  0
  140.0720   71.5440  220.5840 C   0  0  0  0  0  0  0  0  0  0  0  0
  139.9360   70.6450  219.4720 N   0  0  0  0  0  0  0  0  0  0  0  0
  140.9020   69.6410  219.1600 C   0  0  0  0  0  0  0  0  0  0  0  0
  141.7160   70.0000  217.9310 C   0  0  0  0  0  0  0  0  0  0  0  0
  141.7390   71.4910  217.8010 C   0  0  0  0  0  0  0  0  0  0  0  0
  142.9230   72.0080  217.0460 C   0  0  0  0  0  0  0  0  0  0  0  0
  144.0910   71.8940  217.9080 N   0  0  0  0  0  0  0  0  0  0  0  0
  145.0390   70.9340  217.8340 C   0  0  0  0  0  0  0  0  0  0  0  0
  145.9540   71.1690  218.7980 N   0  0  0  0  0  0  0  0  0  0  0  0
  145.5690   72.2870  219.4740 C   0  0  0  0  0  0  0  0  0  0  0  0
  146.1640   72.9320  220.5390 C   0  0  0  0  0  0  0  0  0  0  0  0
  145.5310   74.0780  221.0370 C   0  0  0  0  0  0  0  0  0  0  0  0
  144.3700   74.5160  220.4700 C   0  0  0  0  0  0  0  0  0  0  0  0
  143.7820   73.8660  219.4070 C   0  0  0  0  0  0  0  0  0  0  0  0
  144.3920   72.7480  218.9150 C   0  0  0  0  0  0  0  0  0  0  0  0
  140.0290   71.0940  221.8650 N   0  0  0  0  0  0  0  0  0  0  0  0
  140.1510   71.8950  222.9310 C   0  0  0  0  0  0  0  0  0  0  0  0
  140.1030   71.4010  224.2730 N   0  0  0  0  0  0  0  0  0  0  0  0
  141.0850   71.8590  225.2350 C   0  0  0  0  0  0  0  0  0  0  0  0
  140.4910   71.6710  226.6370 C   0  0  0  0  0  0  0  0  0  0  0  0
  140.2720   70.1850  226.7470 C   0  0  0  0  0  0  0  0  0  0  0  0
  140.7690   69.4880  227.8140 C   0  0  0  0  0  0  0  0  0  0  0  0
  140.5560   68.1250  227.8930 C   0  0  0  0  0  0  0  0  0  0  0  0
  139.8340   67.5150  226.8690 C   0  0  0  0  0  0  0  0  0  0  0  0
  139.3390   68.2510  225.7940 C   0  0  0  0  0  0  0  0  0  0  0  0
  139.5530   69.6130  225.7170 C   0  0  0  0  0  0  0  0  0  0  0  0
  139.0530   70.4530  224.5970 C   0  0  0  0  0  0  0  0  0  0  0  0
  140.3260   73.2140  222.7000 N   0  0  0  0  0  0  0  0  0  0  0  0
  140.3050   76.0170  222.3400 C   0  0  0  0  0  0  0  0  0  0  0  0
  142.6772   80.7433  221.8074 H   0  0  0  0  0  0  0  0  0  0  0  0
  142.2789   79.8121  224.0754 H   0  0  0  0  0  0  0  0  0  0  0  0
  141.1701   77.5991  224.3433 H   0  0  0  0  0  0  0  0  0  0  0  0
  141.9633   79.4593  219.8204 H   0  0  0  0  0  0  0  0  0  0  0  0
  139.6648   77.1975  219.5724 H   0  0  0  0  0  0  0  0  0  0  0  0
  141.3112   77.3993  218.8630 H   0  0  0  0  0  0  0  0  0  0  0  0
  140.4754   75.0158  219.1493 H   0  0  0  0  0  0  0  0  0  0  0  0
  142.0957   75.4192  219.8562 H   0  0  0  0  0  0  0  0  0  0  0  0
  139.0990   70.7440  218.8900 H   0  0  0  0  0  0  0  0  0  0  0  0
  141.5831   69.5249  220.0160 H   0  0  0  0  0  0  0  0  0  0  0  0
  140.3642   68.7046  218.9505 H   0  0  0  0  0  0  0  0  0  0  0  0
  142.7426   69.6204  218.0410 H   0  0  0  0  0  0  0  0  0  0  0  0
  141.2670   69.5484  217.0341 H   0  0  0  0  0  0  0  0  0  0  0  0
  140.8260   71.8085  217.2760 H   0  0  0  0  0  0  0  0  0  0  0  0
  141.8006   71.9028  218.8191 H   0  0  0  0  0  0  0  0  0  0  0  0
  143.0730   71.4124  216.1334 H   0  0  0  0  0  0  0  0  0  0  0  0
  142.7630   73.0569  216.7559 H   0  0  0  0  0  0  0  0  0  0  0  0
  145.0612   70.1040  217.1125 H   0  0  0  0  0  0  0  0  0  0  0  0
  147.1004   72.5601  220.9804 H   0  0  0  0  0  0  0  0  0  0  0  0
  145.9698   74.6245  221.8848 H   0  0  0  0  0  0  0  0  0  0  0  0
  143.8875   75.4178  220.8749 H   0  0  0  0  0  0  0  0  0  0  0  0
  142.8454   74.2381  218.9661 H   0  0  0  0  0  0  0  0  0  0  0  0
  142.0081   71.2687  225.1374 H   0  0  0  0  0  0  0  0  0  0  0  0
  141.3299   72.9170  225.0601 H   0  0  0  0  0  0  0  0  0  0  0  0
  141.1929   72.0204  227.4085 H   0  0  0  0  0  0  0  0  0  0  0  0
  139.5649   72.2462  226.7837 H   0  0  0  0  0  0  0  0  0  0  0  0
  141.3332   70.0080  228.6022 H   0  0  0  0  0  0  0  0  0  0  0  0
  140.9447   67.5390  228.7389 H   0  0  0  0  0  0  0  0  0  0  0  0
  139.6511   66.4311  226.9100 H   0  0  0  0  0  0  0  0  0  0  0  0
  138.7728   67.7424  224.9998 H   0  0  0  0  0  0  0  0  0  0  0  0
  138.8305   69.8231  223.7231 H   0  0  0  0  0  0  0  0  0  0  0  0
  138.1280   70.9756  224.8821 H   0  0  0  0  0  0  0  0  0  0  0  0
  139.2191   76.1807  222.4029 H   0  0  0  0  0  0  0  0  0  0  0  0
  140.7164   75.5414  223.2425 H   0  0  0  0  0  0  0  0  0  0  0  0
  1  2  2  0
  2  3  1  0
  3  4  2  0
  4  5  1  0
  5  6  2  0
  5  7  1  0
  7  8  1  0
  8  9  1  0
  9 10  1  0
 10 11  2  0
 11 12  1  0
 12 13  1  0
 13 14  1  0
 14 15  1  0
 15 16  1  0
 16 17  1  0
 17 18  1  0
 18 19  1  0
 19 20  2  0
 20 21  1  0
 21 22  2  0
 22 23  1  0
 23 24  2  0
 24 25  1  0
 25 26  2  0
 12 27  2  0
 27 28  1  0
 28 29  1  0
 29 30  1  0
 30 31  1  0
 31 32  1  0
 32 33  2  0
 33 34  1  0
 34 35  2  0
 35 36  1  0
 36 37  2  0
 37 38  1  0
 28 39  2  0
  9 40  1  0
  6  1  1  0
 39 10  1  0
 40  4  1  0
 26 18  1  0
 38 29  1  0
 26 21  1  0
 37 32  1  0
  1 41  1  0
  2 42  1  0
  3 43  1  0
  6 44  1  0
  7 45  1  0
  7 46  1  0
  8 47  1  0
  8 48  1  0
 13 49  1  0
 14 50  1  0
 14 51  1  0
 15 52  1  0
 15 53  1  0
 16 54  1  0
 16 55  1  0
 17 56  1  0
 17 57  1  0
 19 58  1  0
 22 59  1  0
 23 60  1  0
 24 61  1  0
 25 62  1  0
 30 63  1  0
 30 64  1  0
 31 65  1  0
 31 66  1  0
 33 67  1  0
 34 68  1  0
 35 69  1  0
 36 70  1  0
 38 71  1  0
 38 72  1  0
 40 73  1  0
 40 74  1  0
M  END
>  <smiles>  (4) 
c1ccc2c(c1)CCN(c1nc(NCCCCn3cnc4ccccc43)nc(N3CCc4ccccc4C3)n1)C2

>  <score_type>  (4) 
oracle

>  <origin>  (4) 
autodockgpu

>  <m_score__min__energy>  (4) 
-11.42

>  <m_primary>  (4) 
energy

>  <rmsd>  (4) 
8.78024073219109

>  <m_score__min__rmsd>  (4) 
8.78024073219109

>  <meeko>  (4) 
{"free_energy": -9.86, "intermolecular_energy": -12.24, "internal_energy": -2.08, "cluster_size": 14, "cluster_id": 4, "rank_in_cluster": 1}

>  <energy>  (4) 
-10.95

>  <cluster_rmsd>  (4) 
0.39

>  <cluster>  (4) 
1

$$$$

     RDKit          3D

 74 80  0  0  0  0  0  0  0  0999 V2000
  141.5720   79.9910  221.5970 C   0  0  0  0  0  0  0  0  0  0  0  0
  141.8110   79.4380  222.8390 C   0  0  0  0  0  0  0  0  0  0  0  0
  141.4420   78.1330  223.1110 C   0  0  0  0  0  0  0  0  0  0  0  0
  140.8320   77.3990  222.1190 C   0  0  0  0  0  0  0  0  0  0  0  0
  140.5770   77.9220  220.8620 C   0  0  0  0  0  0  0  0  0  0  0  0
  140.9590   79.2230  220.6280 C   0  0  0  0  0  0  0  0  0  0  0  0
  139.9150   77.1020  219.8070 C   0  0  0  0  0  0  0  0  0  0  0  0
  140.4230   75.6900  219.8410 C   0  0  0  0  0  0  0  0  0  0  0  0
  140.4610   75.1610  221.2040 N   0  0  0  0  0  0  0  0  0  0  0  0
  140.5380   73.7460  221.3960 C   0  0  0  0  0  0  0  0  0  0  0  0
  140.8000   72.9110  220.3740 N   0  0  0  0  0  0  0  0  0  0  0  0
  140.8790   71.5850  220.5160 C   0  0  0  0  0  0  0  0  0  0  0  0
  141.1610   70.7090  219.4140 N   0  0  0  0  0  0  0  0  0  0  0  0
  142.1150   69.6490  219.4860 C   0  0  0  0  0  0  0  0  0  0  0  0
  143.5400   70.1670  219.5010 C   0  0  0  0  0  0  0  0  0  0  0  0
  143.7770   70.9290  218.2340 C   0  0  0  0  0  0  0  0  0  0  0  0
  144.9890   71.8050  218.2780 C   0  0  0  0  0  0  0  0  0  0  0  0
  144.6980   72.9330  219.1510 N   0  0  0  0  0  0  0  0  0  0  0  0
  144.8690   72.9620  220.4920 C   0  0  0  0  0  0  0  0  0  0  0  0
  144.4880   74.1770  220.9390 N   0  0  0  0  0  0  0  0  0  0  0  0
  144.0770   74.9070  219.8650 C   0  0  0  0  0  0  0  0  0  0  0  0
  143.5980   76.1990  219.7990 C   0  0  0  0  0  0  0  0  0  0  0  0
  143.2470   76.6950  218.5370 C   0  0  0  0  0  0  0  0  0  0  0  0
  143.3840   75.9050  217.4320 C   0  0  0  0  0  0  0  0  0  0  0  0
  143.8630   74.6150  217.5070 C   0  0  0  0  0  0  0  0  0  0  0  0
  144.2080   74.1240  218.7340 C   0  0  0  0  0  0  0  0  0  0  0  0
  140.6790   71.1000  221.7690 N   0  0  0  0  0  0  0  0  0  0  0  0
  140.4140   71.8780  222.8260 C   0  0  0  0  0  0  0  0  0  0  0  0
  140.2040   71.3480  224.1390 N   0  0  0  0  0  0  0  0  0  0  0  0
  141.0590   71.7840  225.2250 C   0  0  0  0  0  0  0  0  0  0  0  0
  140.2990   71.5550  226.5380 C   0  0  0  0  0  0  0  0  0  0  0  0
  140.0780   70.0660  226.5810 C   0  0  0  0  0  0  0  0  0  0  0  0
  140.4470   69.3410  227.6820 C   0  0  0  0  0  0  0  0  0  0  0  0
  140.2350   67.9770  227.6980 C   0  0  0  0  0  0  0  0  0  0  0  0
  139.6490   67.3910  226.5770 C   0  0  0  0  0  0  0  0  0  0  0  0
  139.2840   68.1550  225.4700 C   0  0  0  0  0  0  0  0  0  0  0  0
  139.4960   69.5190  225.4550 C   0  0  0  0  0  0  0  0  0  0  0  0
  139.1310   70.3870  224.3060 C   0  0  0  0  0  0  0  0  0  0  0  0
  140.3470   73.2110  222.6150 N   0  0  0  0  0  0  0  0  0  0  0  0
  140.4260   76.0100  222.3720 C   0  0  0  0  0  0  0  0  0  0  0  0
  141.8660   81.0291  221.3827 H   0  0  0  0  0  0  0  0  0  0  0  0
  142.2992   80.0404  223.6192 H   0  0  0  0  0  0  0  0  0  0  0  0
  141.6322   77.6906  224.1000 H   0  0  0  0  0  0  0  0  0  0  0  0
  140.7700   79.6644  219.6383 H   0  0  0  0  0  0  0  0  0  0  0  0
  138.8285   77.0998  219.9791 H   0  0  0  0  0  0  0  0  0  0  0  0
  140.1428   77.5379  218.8231 H   0  0  0  0  0  0  0  0  0  0  0  0
  139.7601   75.0580  219.2318 H   0  0  0  0  0  0  0  0  0  0  0  0
  141.4484   75.6850  219.4427 H   0  0  0  0  0  0  0  0  0  0  0  0
  140.6430   70.8680  218.5450 H   0  0  0  0  0  0  0  0  0  0  0  0
  141.9369   69.0729  220.4060 H   0  0  0  0  0  0  0  0  0  0  0  0
  141.9917   69.0198  218.5922 H   0  0  0  0  0  0  0  0  0  0  0  0
  143.6856   70.8301  220.3665 H   0  0  0  0  0  0  0  0  0  0  0  0
  144.2473   69.3280  219.5764 H   0  0  0  0  0  0  0  0  0  0  0  0
  143.8992   70.2078  217.4125 H   0  0  0  0  0  0  0  0  0  0  0  0
  142.9086   71.5881  218.0875 H   0  0  0  0  0  0  0  0  0  0  0  0
  145.8449   71.2383  218.6733 H   0  0  0  0  0  0  0  0  0  0  0  0
  145.2411   72.1592  217.2676 H   0  0  0  0  0  0  0  0  0  0  0  0
  145.2524   72.1378  221.1114 H   0  0  0  0  0  0  0  0  0  0  0  0
  143.4956   76.8165  220.7035 H   0  0  0  0  0  0  0  0  0  0  0  0
  142.8613   77.7202  218.4363 H   0  0  0  0  0  0  0  0  0  0  0  0
  143.1028   76.3116  216.4494 H   0  0  0  0  0  0  0  0  0  0  0  0
  143.9648   73.9971  216.6027 H   0  0  0  0  0  0  0  0  0  0  0  0
  141.9914   71.2004  225.2252 H   0  0  0  0  0  0  0  0  0  0  0  0
  141.3166   72.8471  225.1094 H   0  0  0  0  0  0  0  0  0  0  0  0
  140.8987   71.8856  227.3988 H   0  0  0  0  0  0  0  0  0  0  0  0
  139.3579   72.1225  226.5850 H   0  0  0  0  0  0  0  0  0  0  0  0
  140.9084   69.8409  228.5464 H   0  0  0  0  0  0  0  0  0  0  0  0
  140.5202   67.3701  228.5700 H   0  0  0  0  0  0  0  0  0  0  0  0
  139.4714   66.3055  226.5660 H   0  0  0  0  0  0  0  0  0  0  0  0
  138.8223   67.6662  224.5994 H   0  0  0  0  0  0  0  0  0  0  0  0
  139.0225   69.7806  223.3947 H   0  0  0  0  0  0  0  0  0  0  0  0
  138.1739   70.8972  224.4896 H   0  0  0  0  0  0  0  0  0  0  0  0
  139.3978   76.0168  222.7628 H   0  0  0  0  0  0  0  0  0  0  0  0
  141.1509   75.5940  223.0871 H   0  0  0  0  0  0  0  0  0  0  0  0
  1  2  2  0
  2  3  1  0
  3  4  2  0
  4  5  1  0
  5  6  2  0
  5  7  1  0
  7  8  1  0
  8  9  1  0
  9 10  1  0
 10 11  2  0
 11 12  1  0
 12 13  1  0
 13 14  1  0
 14 15  1  0
 15 16  1  0
 16 17  1  0
 17 18  1  0
 18 19  1  0
 19 20  2  0
 20 21  1  0
 21 22  2  0
 22 23  1  0
 23 24  2  0
 24 25  1  0
 25 26  2  0
 12 27  2  0
 27 28  1  0
 28 29  1  0
 29 30  1  0
 30 31  1  0
 31 32  1  0
 32 33  2  0
 33 34  1  0
 34 35  2  0
 35 36  1  0
 36 37  2  0
 37 38  1  0
 28 39  2  0
  9 40  1  0
  6  1  1  0
 39 10  1  0
 40  4  1  0
 26 18  1  0
 38 29  1  0
 26 21  1  0
 37 32  1  0
  1 41  1  0
  2 42  1  0
  3 43  1  0
  6 44  1  0
  7 45  1  0
  7 46  1  0
  8 47  1  0
  8 48  1  0
 13 49  1  0
 14 50  1  0
 14 51  1  0
 15 52  1  0
 15 53  1  0
 16 54  1  0
 16 55  1  0
 17 56  1  0
 17 57  1  0
 19 58  1  0
 22 59  1  0
 23 60  1  0
 24 61  1  0
 25 62  1  0
 30 63  1  0
 30 64  1  0
 31 65  1  0
 31 66  1  0
 33 67  1  0
 34 68  1  0
 35 69  1  0
 36 70  1  0
 38 71  1  0
 38 72  1  0
 40 73  1  0
 40 74  1  0
M  END
>  <smiles>  (5) 
c1ccc2c(c1)CCN(c1nc(NCCCCn3cnc4ccccc43)nc(N3CCc4ccccc4C3)n1)C2

>  <score_type>  (5) 
oracle

>  <origin>  (5) 
autodockgpu

>  <m_score__min__energy>  (5) 
-11.42

>  <m_primary>  (5) 
energy

>  <rmsd>  (5) 
9.139887616225078

>  <m_score__min__rmsd>  (5) 
9.139887616225078

>  <meeko>  (5) 
{"free_energy": -9.13, "intermolecular_energy": -11.52, "internal_energy": -2.71, "cluster_size": 14, "cluster_id": 4, "rank_in_cluster": 10}

>  <energy>  (5) 
-10.94

>  <cluster_rmsd>  (5) 
0.48

>  <cluster>  (5) 
1

$$$$

     RDKit          3D

 74 80  0  0  0  0  0  0  0  0999 V2000
  139.3250   69.2850  226.6600 C   0  0  0  0  0  0  0  0  0  0  0  0
  140.5280   69.9560  226.7560 C   0  0  0  0  0  0  0  0  0  0  0  0
  140.9900   70.7270  225.7040 C   0  0  0  0  0  0  0  0  0  0  0  0
  140.2250   70.8120  224.5630 C   0  0  0  0  0  0  0  0  0  0  0  0
  139.0140   70.1530  224.4330 C   0  0  0  0  0  0  0  0  0  0  0  0
  138.5870   69.3950  225.4990 C   0  0  0  0  0  0  0  0  0  0  0  0
  138.2080   70.2640  223.1830 C   0  0  0  0  0  0  0  0  0  0  0  0
  138.2530   71.6660  222.6500 C   0  0  0  0  0  0  0  0  0  0  0  0
  139.6160   72.1980  222.6420 N   0  0  0  0  0  0  0  0  0  0  0  0
  139.9110   73.3350  221.8260 C   0  0  0  0  0  0  0  0  0  0  0  0
  140.2300   73.2050  220.5260 N   0  0  0  0  0  0  0  0  0  0  0  0
  140.5100   74.2440  219.7350 C   0  0  0  0  0  0  0  0  0  0  0  0
  140.8480   74.0850  218.3480 N   0  0  0  0  0  0  0  0  0  0  0  0
  142.0570   73.4680  217.9070 C   0  0  0  0  0  0  0  0  0  0  0  0
  143.2190   74.4440  217.8860 C   0  0  0  0  0  0  0  0  0  0  0  0
  143.2900   75.1180  219.2210 C   0  0  0  0  0  0  0  0  0  0  0  0
  143.4410   74.1670  220.3660 C   0  0  0  0  0  0  0  0  0  0  0  0
  144.4160   73.1550  219.9860 N   0  0  0  0  0  0  0  0  0  0  0  0
  145.7270   73.3730  219.7380 C   0  0  0  0  0  0  0  0  0  0  0  0
  146.2970   72.1920  219.4170 N   0  0  0  0  0  0  0  0  0  0  0  0
  145.3300   71.2350  219.4670 C   0  0  0  0  0  0  0  0  0  0  0  0
  145.4060   69.8780  219.2240 C   0  0  0  0  0  0  0  0  0  0  0  0
  144.2290   69.1310  219.3550 C   0  0  0  0  0  0  0  0  0  0  0  0
  143.0650   69.7470  219.7110 C   0  0  0  0  0  0  0  0  0  0  0  0
  142.9970   71.1020  219.9510 C   0  0  0  0  0  0  0  0  0  0  0  0
  144.1400   71.8400  219.8270 C   0  0  0  0  0  0  0  0  0  0  0  0
  140.4580   75.4730  220.3120 N   0  0  0  0  0  0  0  0  0  0  0  0
  140.1480   75.6680  221.6000 C   0  0  0  0  0  0  0  0  0  0  0  0
  140.1000   76.9710  222.1900 N   0  0  0  0  0  0  0  0  0  0  0  0
  138.9990   77.8560  221.8670 C   0  0  0  0  0  0  0  0  0  0  0  0
  138.8650   78.8720  223.0090 C   0  0  0  0  0  0  0  0  0  0  0  0
  140.1780   79.6090  223.0020 C   0  0  0  0  0  0  0  0  0  0  0  0
  140.2060   80.9760  222.9540 C   0  0  0  0  0  0  0  0  0  0  0  0
  141.4230   81.6310  222.9480 C   0  0  0  0  0  0  0  0  0  0  0  0
  142.5820   80.8580  222.9890 C   0  0  0  0  0  0  0  0  0  0  0  0
  142.5230   79.4660  223.0370 C   0  0  0  0  0  0  0  0  0  0  0  0
  141.3060   78.8140  223.0430 C   0  0  0  0  0  0  0  0  0  0  0  0
  141.1760   77.3350  223.0920 C   0  0  0  0  0  0  0  0  0  0  0  0
  139.8750   74.5750  222.3460 N   0  0  0  0  0  0  0  0  0  0  0  0
  140.6830   71.6220  223.4260 C   0  0  0  0  0  0  0  0  0  0  0  0
  138.9601   68.6716  227.4970 H   0  0  0  0  0  0  0  0  0  0  0  0
  141.1243   69.8769  227.6769 H   0  0  0  0  0  0  0  0  0  0  0  0
  141.9489   71.2609  225.7781 H   0  0  0  0  0  0  0  0  0  0  0  0
  137.6285   68.8606  225.4235 H   0  0  0  0  0  0  0  0  0  0  0  0
  138.6157   69.5764  222.4274 H   0  0  0  0  0  0  0  0  0  0  0  0
  137.1636   70.0034  223.4094 H   0  0  0  0  0  0  0  0  0  0  0  0
  137.8630   71.6691  221.6215 H   0  0  0  0  0  0  0  0  0  0  0  0
  137.6403   72.3021  223.3056 H   0  0  0  0  0  0  0  0  0  0  0  0
  140.1770   74.4370  217.6590 H   0  0  0  0  0  0  0  0  0  0  0  0
  142.3016   72.6393  218.5878 H   0  0  0  0  0  0  0  0  0  0  0  0
  141.8988   73.1062  216.8803 H   0  0  0  0  0  0  0  0  0  0  0  0
  144.1565   73.9022  217.6924 H   0  0  0  0  0  0  0  0  0  0  0  0
  143.0730   75.1906  217.0915 H   0  0  0  0  0  0  0  0  0  0  0  0
  144.1525   75.8007  219.2202 H   0  0  0  0  0  0  0  0  0  0  0  0
  142.3367   75.6474  219.3656 H   0  0  0  0  0  0  0  0  0  0  0  0
  143.7928   74.7083  221.2566 H   0  0  0  0  0  0  0  0  0  0  0  0
  142.4749   73.6968  220.6016 H   0  0  0  0  0  0  0  0  0  0  0  0
  146.2404   74.3445  219.7890 H   0  0  0  0  0  0  0  0  0  0  0  0
  146.3555   69.4017  218.9383 H   0  0  0  0  0  0  0  0  0  0  0  0
  144.2429   68.0466  219.1707 H   0  0  0  0  0  0  0  0  0  0  0  0
  142.1513   69.1424  219.8096 H   0  0  0  0  0  0  0  0  0  0  0  0
  142.0467   71.5775  220.2352 H   0  0  0  0  0  0  0  0  0  0  0  0
  139.2046   78.3800  220.9219 H   0  0  0  0  0  0  0  0  0  0  0  0
  138.0669   77.2837  221.7499 H   0  0  0  0  0  0  0  0  0  0  0  0
  138.0291   79.5620  222.8215 H   0  0  0  0  0  0  0  0  0  0  0  0
  138.6551   78.3934  223.9769 H   0  0  0  0  0  0  0  0  0  0  0  0
  139.2676   81.5490  222.9204 H   0  0  0  0  0  0  0  0  0  0  0  0
  141.4753   82.7292  222.9120 H   0  0  0  0  0  0  0  0  0  0  0  0
  143.5627   81.3561  222.9834 H   0  0  0  0  0  0  0  0  0  0  0  0
  143.4545   78.8818  223.0704 H   0  0  0  0  0  0  0  0  0  0  0  0
  142.1154   76.8628  222.7686 H   0  0  0  0  0  0  0  0  0  0  0  0
  140.9606   76.9947  224.1156 H   0  0  0  0  0  0  0  0  0  0  0  0
  141.2879   70.9814  222.7675 H   0  0  0  0  0  0  0  0  0  0  0  0
  141.2554   72.4620  223.8464 H   0  0  0  0  0  0  0  0  0  0  0  0
  1  2  2  0
  2  3  1  0
  3  4  2  0
  4  5  1  0
  5  6  2  0
  5  7  1  0
  7  8  1  0
  8  9  1  0
  9 10  1  0
 10 11  2  0
 11 12  1  0
 12 13  1  0
 13 14  1  0
 14 15  1  0
 15 16  1  0
 16 17  1  0
 17 18  1  0
 18 19  1  0
 19 20  2  0
 20 21  1  0
 21 22  2  0
 22 23  1  0
 23 24  2  0
 24 25  1  0
 25 26  2  0
 12 27  2  0
 27 28  1  0
 28 29  1  0
 29 30  1  0
 30 31  1  0
 31 32  1  0
 32 33  2  0
 33 34  1  0
 34 35  2  0
 35 36  1  0
 36 37  2  0
 37 38  1  0
 28 39  2  0
  9 40  1  0
  6  1  1  0
 39 10  1  0
 40  4  1  0
 26 18  1  0
 38 29  1  0
 26 21  1  0
 37 32  1  0
  1 41  1  0
  2 42  1  0
  3 43  1  0
  6 44  1  0
  7 45  1  0
  7 46  1  0
  8 47  1  0
  8 48  1  0
 13 49  1  0
 14 50  1  0
 14 51  1  0
 15 52  1  0
 15 53  1  0
 16 54  1  0
 16 55  1  0
 17 56  1  0
 17 57  1  0
 19 58  1  0
 22 59  1  0
 23 60  1  0
 24 61  1  0
 25 62  1  0
 30 63  1  0
 30 64  1  0
 31 65  1  0
 31 66  1  0
 33 67  1  0
 34 68  1  0
 35 69  1  0
 36 70  1  0
 38 71  1  0
 38 72  1  0
 40 73  1  0
 40 74  1  0
M  END
>  <smiles>  (6) 
c1ccc2c(c1)CCN(c1nc(NCCCCn3cnc4ccccc43)nc(N3CCc4ccccc4C3)n1)C2

>  <score_type>  (6) 
oracle

>  <origin>  (6) 
autodockgpu

>  <m_score__min__energy>  (6) 
-11.42

>  <m_primary>  (6) 
energy

>  <rmsd>  (6) 
8.165917142906064

>  <m_score__min__rmsd>  (6) 
8.165917142906064

>  <meeko>  (6) 
{"free_energy": -9.75, "intermolecular_energy": -12.14, "internal_energy": -1.72, "cluster_size": 2, "cluster_id": 5, "rank_in_cluster": 1}

>  <energy>  (6) 
-10.89

>  <cluster_rmsd>  (6) 
1.53

>  <cluster>  (6) 
1

$$$$

     RDKit          3D

 74 80  0  0  0  0  0  0  0  0999 V2000
  142.3960   80.2240  223.1100 C   0  0  0  0  0  0  0  0  0  0  0  0
  141.2020   80.2400  223.8030 C   0  0  0  0  0  0  0  0  0  0  0  0
  140.2010   79.3340  223.5030 C   0  0  0  0  0  0  0  0  0  0  0  0
  140.4200   78.4170  222.5000 C   0  0  0  0  0  0  0  0  0  0  0  0
  141.6050   78.3720  221.7850 C   0  0  0  0  0  0  0  0  0  0  0  0
  142.5780   79.2890  222.1110 C   0  0  0  0  0  0  0  0  0  0  0  0
  141.8130   77.3660  220.7030 C   0  0  0  0  0  0  0  0  0  0  0  0
  141.2330   76.0400  221.0990 C   0  0  0  0  0  0  0  0  0  0  0  0
  139.8900   76.1820  221.6600 N   0  0  0  0  0  0  0  0  0  0  0  0
  139.0420   75.0320  221.7270 C   0  0  0  0  0  0  0  0  0  0  0  0
  137.8080   75.0360  221.1890 N   0  0  0  0  0  0  0  0  0  0  0  0
  136.9900   73.9810  221.2320 C   0  0  0  0  0  0  0  0  0  0  0  0
  135.6760   74.0030  220.6520 N   0  0  0  0  0  0  0  0  0  0  0  0
  134.5940   73.2150  221.1460 C   0  0  0  0  0  0  0  0  0  0  0  0
  134.4650   73.3090  222.6550 C   0  0  0  0  0  0  0  0  0  0  0  0
  134.6950   74.7330  223.0590 C   0  0  0  0  0  0  0  0  0  0  0  0
  135.3810   74.8770  224.3800 C   0  0  0  0  0  0  0  0  0  0  0  0
  134.4230   74.5430  225.4240 N   0  0  0  0  0  0  0  0  0  0  0  0
  134.1380   73.2990  225.8690 C   0  0  0  0  0  0  0  0  0  0  0  0
  133.2040   73.4010  226.8370 N   0  0  0  0  0  0  0  0  0  0  0  0
  132.9080   74.7210  226.9940 C   0  0  0  0  0  0  0  0  0  0  0  0
  132.0220   75.3390  227.8520 C   0  0  0  0  0  0  0  0  0  0  0  0
  131.9260   76.7350  227.7900 C   0  0  0  0  0  0  0  0  0  0  0  0
  132.6940   77.4320  226.9020 C   0  0  0  0  0  0  0  0  0  0  0  0
  133.5770   76.8070  226.0480 C   0  0  0  0  0  0  0  0  0  0  0  0
  133.6770   75.4460  226.1030 C   0  0  0  0  0  0  0  0  0  0  0  0
  137.4660   72.8730  221.8580 N   0  0  0  0  0  0  0  0  0  0  0  0
  138.6830   72.8070  222.4130 C   0  0  0  0  0  0  0  0  0  0  0  0
  139.1660   71.6310  223.0680 N   0  0  0  0  0  0  0  0  0  0  0  0
  138.3420   70.4380  223.0860 C   0  0  0  0  0  0  0  0  0  0  0  0
  139.2680   69.2340  223.2970 C   0  0  0  0  0  0  0  0  0  0  0  0
  139.8960   69.4820  224.6430 C   0  0  0  0  0  0  0  0  0  0  0  0
  139.8590   68.5200  225.6140 C   0  0  0  0  0  0  0  0  0  0  0  0
  140.4420   68.7710  226.8410 C   0  0  0  0  0  0  0  0  0  0  0  0
  141.0470   70.0120  227.0370 C   0  0  0  0  0  0  0  0  0  0  0  0
  141.0690   70.9730  226.0280 C   0  0  0  0  0  0  0  0  0  0  0  0
  140.4870   70.7200  224.8030 C   0  0  0  0  0  0  0  0  0  0  0  0
  140.4750   71.7030  223.6880 C   0  0  0  0  0  0  0  0  0  0  0  0
  139.4620   73.9080  222.3350 N   0  0  0  0  0  0  0  0  0  0  0  0
  139.3790   77.4390  222.1540 C   0  0  0  0  0  0  0  0  0  0  0  0
  143.1906   80.9457  223.3504 H   0  0  0  0  0  0  0  0  0  0  0  0
  141.0453   80.9804  224.6013 H   0  0  0  0  0  0  0  0  0  0  0  0
  139.2494   79.3459  224.0546 H   0  0  0  0  0  0  0  0  0  0  0  0
  143.5293   79.2765  221.5589 H   0  0  0  0  0  0  0  0  0  0  0  0
  141.3208   77.7163  219.7837 H   0  0  0  0  0  0  0  0  0  0  0  0
  142.8930   77.2451  220.5328 H   0  0  0  0  0  0  0  0  0  0  0  0
  141.1814   75.3939  220.2102 H   0  0  0  0  0  0  0  0  0  0  0  0
  141.8816   75.5991  221.8703 H   0  0  0  0  0  0  0  0  0  0  0  0
  135.5300   74.6210  219.8480 H   0  0  0  0  0  0  0  0  0  0  0  0
  133.6588   73.5682  220.6869 H   0  0  0  0  0  0  0  0  0  0  0  0
  134.7925   72.1646  220.8867 H   0  0  0  0  0  0  0  0  0  0  0  0
  133.4571   72.9933  222.9625 H   0  0  0  0  0  0  0  0  0  0  0  0
  135.2033   72.6535  223.1400 H   0  0  0  0  0  0  0  0  0  0  0  0
  135.3156   75.2167  222.2903 H   0  0  0  0  0  0  0  0  0  0  0  0
  133.7060   75.2047  223.1559 H   0  0  0  0  0  0  0  0  0  0  0  0
  136.2412   74.1932  224.4303 H   0  0  0  0  0  0  0  0  0  0  0  0
  135.7449   75.9068  224.5110 H   0  0  0  0  0  0  0  0  0  0  0  0
  134.5897   72.3646  225.5047 H   0  0  0  0  0  0  0  0  0  0  0  0
  131.4131   74.7566  228.5591 H   0  0  0  0  0  0  0  0  0  0  0  0
  131.2325   77.2693  228.4561 H   0  0  0  0  0  0  0  0  0  0  0  0
  132.6051   78.5278  226.8670 H   0  0  0  0  0  0  0  0  0  0  0  0
  134.1855   77.3893  225.3404 H   0  0  0  0  0  0  0  0  0  0  0  0
  137.6133   70.4985  223.9078 H   0  0  0  0  0  0  0  0  0  0  0  0
  137.7894   70.3375  222.1402 H   0  0  0  0  0  0  0  0  0  0  0  0
  138.6934   68.2960  223.3015 H   0  0  0  0  0  0  0  0  0  0  0  0
  140.0150   69.1317  222.4961 H   0  0  0  0  0  0  0  0  0  0  0  0
  139.3692   67.5544  225.4198 H   0  0  0  0  0  0  0  0  0  0  0  0
  140.4294   68.0146  227.6395 H   0  0  0  0  0  0  0  0  0  0  0  0
  141.5158   70.2367  228.0064 H   0  0  0  0  0  0  0  0  0  0  0  0
  141.5552   71.9428  226.2101 H   0  0  0  0  0  0  0  0  0  0  0  0
  140.6527   72.7165  224.0770 H   0  0  0  0  0  0  0  0  0  0  0  0
  141.2661   71.4759  222.9582 H   0  0  0  0  0  0  0  0  0  0  0  0
  138.7361   77.8793  221.3776 H   0  0  0  0  0  0  0  0  0  0  0  0
  138.8330   77.2159  223.0825 H   0  0  0  0  0  0  0  0  0  0  0  0
  1  2  2  0
  2  3  1  0
  3  4  2  0
  4  5  1  0
  5  6  2  0
  5  7  1  0
  7  8  1  0
  8  9  1  0
  9 10  1  0
 10 11  2  0
 11 12  1  0
 12 13  1  0
 13 14  1  0
 14 15  1  0
 15 16  1  0
 16 17  1  0
 17 18  1  0
 18 19  1  0
 19 20  2  0
 20 21  1  0
 21 22  2  0
 22 23  1  0
 23 24  2  0
 24 25  1  0
 25 26  2  0
 12 27  2  0
 27 28  1  0
 28 29  1  0
 29 30  1  0
 30 31  1  0
 31 32  1  0
 32 33  2  0
 33 34  1  0
 34 35  2  0
 35 36  1  0
 36 37  2  0
 37 38  1  0
 28 39  2  0
  9 40  1  0
  6  1  1  0
 39 10  1  0
 40  4  1  0
 26 18  1  0
 38 29  1  0
 26 21  1  0
 37 32  1  0
  1 41  1  0
  2 42  1  0
  3 43  1  0
  6 44  1  0
  7 45  1  0
  7 46  1  0
  8 47  1  0
  8 48  1  0
 13 49  1  0
 14 50  1  0
 14 51  1  0
 15 52  1  0
 15 53  1  0
 16 54  1  0
 16 55  1  0
 17 56  1  0
 17 57  1  0
 19 58  1  0
 22 59  1  0
 23 60  1  0
 24 61  1  0
 25 62  1  0
 30 63  1  0
 30 64  1  0
 31 65  1  0
 31 66  1  0
 33 67  1  0
 34 68  1  0
 35 69  1  0
 36 70  1  0
 38 71  1  0
 38 72  1  0
 40 73  1  0
 40 74  1  0
M  END
>  <smiles>  (7) 
c1ccc2c(c1)CCN(c1nc(NCCCCn3cnc4ccccc43)nc(N3CCc4ccccc4C3)n1)C2

>  <score_type>  (7) 
oracle

>  <origin>  (7) 
autodockgpu

>  <m_score__min__energy>  (7) 
-11.42

>  <m_primary>  (7) 
energy

>  <rmsd>  (7) 
9.150419438979748

>  <m_score__min__rmsd>  (7) 
9.150419438979748

>  <meeko>  (7) 
{"free_energy": -9.84, "intermolecular_energy": -12.23, "internal_energy": -1.33, "cluster_size": 10, "cluster_id": 2, "rank_in_cluster": 7}

>  <energy>  (7) 
-10.81

>  <cluster_rmsd>  (7) 
1.38

>  <cluster>  (7) 
1

$$$$

     RDKit          3D

 74 80  0  0  0  0  0  0  0  0999 V2000
  145.5440   70.2760  218.8150 C   0  0  0  0  0  0  0  0  0  0  0  0
  144.4150   69.5290  219.0870 C   0  0  0  0  0  0  0  0  0  0  0  0
  143.3910   70.0550  219.8540 C   0  0  0  0  0  0  0  0  0  0  0  0
  143.5210   71.3370  220.3380 C   0  0  0  0  0  0  0  0  0  0  0  0
  144.6390   72.1140  220.0850 C   0  0  0  0  0  0  0  0  0  0  0  0
  145.6370   71.5570  219.3180 C   0  0  0  0  0  0  0  0  0  0  0  0
  144.7500   73.5000  220.6240 C   0  0  0  0  0  0  0  0  0  0  0  0
  143.4280   74.2040  220.5430 C   0  0  0  0  0  0  0  0  0  0  0  0
  142.3350   73.3620  221.0270 N   0  0  0  0  0  0  0  0  0  0  0  0
  141.0950   73.9750  221.3900 C   0  0  0  0  0  0  0  0  0  0  0  0
  139.9350   73.2960  221.3470 N   0  0  0  0  0  0  0  0  0  0  0  0
  138.7590   73.8360  221.6790 C   0  0  0  0  0  0  0  0  0  0  0  0
  137.5300   73.0940  221.6280 N   0  0  0  0  0  0  0  0  0  0  0  0
  137.2540   71.9860  222.4840 C   0  0  0  0  0  0  0  0  0  0  0  0
  137.8350   70.6930  221.9440 C   0  0  0  0  0  0  0  0  0  0  0  0
  139.2580   70.5900  222.4010 C   0  0  0  0  0  0  0  0  0  0  0  0
  139.4680   69.5800  223.4840 C   0  0  0  0  0  0  0  0  0  0  0  0
  140.0170   70.2690  224.6430 N   0  0  0  0  0  0  0  0  0  0  0  0
  140.4220   71.5580  224.6780 C   0  0  0  0  0  0  0  0  0  0  0  0
  140.8670   71.8260  225.9240 N   0  0  0  0  0  0  0  0  0  0  0  0
  140.7360   70.6910  226.6660 C   0  0  0  0  0  0  0  0  0  0  0  0
  141.0490   70.4520  227.9890 C   0  0  0  0  0  0  0  0  0  0  0  0
  140.8020   69.1680  228.4900 C   0  0  0  0  0  0  0  0  0  0  0  0
  140.2710   68.2090  227.6770 C   0  0  0  0  0  0  0  0  0  0  0  0
  139.9620   68.4560  226.3570 C   0  0  0  0  0  0  0  0  0  0  0  0
  140.1990   69.7060  225.8600 C   0  0  0  0  0  0  0  0  0  0  0  0
  138.7830   75.1360  222.0730 N   0  0  0  0  0  0  0  0  0  0  0  0
  139.9040   75.8660  222.1360 C   0  0  0  0  0  0  0  0  0  0  0  0
  139.9080   77.2350  222.5530 N   0  0  0  0  0  0  0  0  0  0  0  0
  138.6920   78.0160  222.4380 C   0  0  0  0  0  0  0  0  0  0  0  0
  138.7830   79.1730  223.4400 C   0  0  0  0  0  0  0  0  0  0  0  0
  139.9830   79.9610  222.9840 C   0  0  0  0  0  0  0  0  0  0  0  0
  139.8870   81.3080  222.7650 C   0  0  0  0  0  0  0  0  0  0  0  0
  141.0010   82.0100  222.3460 C   0  0  0  0  0  0  0  0  0  0  0  0
  142.1890   81.3030  222.1640 C   0  0  0  0  0  0  0  0  0  0  0  0
  142.2570   79.9310  222.3950 C   0  0  0  0  0  0  0  0  0  0  0  0
  141.1430   79.2320  222.8130 C   0  0  0  0  0  0  0  0  0  0  0  0
  141.1510   77.7690  223.0760 C   0  0  0  0  0  0  0  0  0  0  0  0
  141.0600   75.2600  221.7870 N   0  0  0  0  0  0  0  0  0  0  0  0
  142.4530   71.9280  221.1560 C   0  0  0  0  0  0  0  0  0  0  0  0
  146.3577   69.8555  218.2058 H   0  0  0  0  0  0  0  0  0  0  0  0
  144.3291   68.5066  218.6903 H   0  0  0  0  0  0  0  0  0  0  0  0
  142.4914   69.4610  220.0726 H   0  0  0  0  0  0  0  0  0  0  0  0
  146.5362   72.1516  219.0994 H   0  0  0  0  0  0  0  0  0  0  0  0
  145.0720   73.4548  221.6748 H   0  0  0  0  0  0  0  0  0  0  0  0
  145.4859   74.0562  220.0248 H   0  0  0  0  0  0  0  0  0  0  0  0
  143.4724   75.1169  221.1552 H   0  0  0  0  0  0  0  0  0  0  0  0
  143.2327   74.4454  219.4877 H   0  0  0  0  0  0  0  0  0  0  0  0
  136.8330   73.3920  220.9390 H   0  0  0  0  0  0  0  0  0  0  0  0
  137.6896   72.1850  223.4743 H   0  0  0  0  0  0  0  0  0  0  0  0
  136.1621   71.8682  222.5464 H   0  0  0  0  0  0  0  0  0  0  0  0
  137.2586   69.8378  222.3266 H   0  0  0  0  0  0  0  0  0  0  0  0
  137.7884   70.6863  220.8450 H   0  0  0  0  0  0  0  0  0  0  0  0
  139.8807   70.3096  221.5386 H   0  0  0  0  0  0  0  0  0  0  0  0
  139.5349   71.5702  222.8163 H   0  0  0  0  0  0  0  0  0  0  0  0
  138.5085   69.1115  223.7484 H   0  0  0  0  0  0  0  0  0  0  0  0
  140.1590   68.7944  223.1444 H   0  0  0  0  0  0  0  0  0  0  0  0
  140.3939   72.2662  223.8367 H   0  0  0  0  0  0  0  0  0  0  0  0
  141.4764   71.2406  228.6258 H   0  0  0  0  0  0  0  0  0  0  0  0
  141.0359   68.9323  229.5387 H   0  0  0  0  0  0  0  0  0  0  0  0
  140.0836   67.2064  228.0888 H   0  0  0  0  0  0  0  0  0  0  0  0
  139.5356   67.6670  225.7201 H   0  0  0  0  0  0  0  0  0  0  0  0
  138.5967   78.4122  221.4163 H   0  0  0  0  0  0  0  0  0  0  0  0
  137.8120   77.3912  222.6506 H   0  0  0  0  0  0  0  0  0  0  0  0
  137.8739   79.7914  223.4059 H   0  0  0  0  0  0  0  0  0  0  0  0
  138.8768   78.8248  224.4792 H   0  0  0  0  0  0  0  0  0  0  0  0
  138.9304   81.8282  222.9212 H   0  0  0  0  0  0  0  0  0  0  0  0
  140.9521   83.0933  222.1617 H   0  0  0  0  0  0  0  0  0  0  0  0
  143.0901   81.8392  221.8315 H   0  0  0  0  0  0  0  0  0  0  0  0
  143.2080   79.3996  222.2427 H   0  0  0  0  0  0  0  0  0  0  0  0
  142.0066   77.2991  222.5689 H   0  0  0  0  0  0  0  0  0  0  0  0
  141.2422   77.5653  224.1531 H   0  0  0  0  0  0  0  0  0  0  0  0
  142.6554   71.6918  222.2111 H   0  0  0  0  0  0  0  0  0  0  0  0
  141.5055   71.4987  220.7982 H   0  0  0  0  0  0  0  0  0  0  0  0
  1  2  2  0
  2  3  1  0
  3  4  2  0
  4  5  1  0
  5  6  2  0
  5  7  1  0
  7  8  1  0
  8  9  1  0
  9 10  1  0
 10 11  2  0
 11 12  1  0
 12 13  1  0
 13 14  1  0
 14 15  1  0
 15 16  1  0
 16 17  1  0
 17 18  1  0
 18 19  1  0
 19 20  2  0
 20 21  1  0
 21 22  2  0
 22 23  1  0
 23 24  2  0
 24 25  1  0
 25 26  2  0
 12 27  2  0
 27 28  1  0
 28 29  1  0
 29 30  1  0
 30 31  1  0
 31 32  1  0
 32 33  2  0
 33 34  1  0
 34 35  2  0
 35 36  1  0
 36 37  2  0
 37 38  1  0
 28 39  2  0
  9 40  1  0
  6  1  1  0
 39 10  1  0
 40  4  1  0
 26 18  1  0
 38 29  1  0
 26 21  1  0
 37 32  1  0
  1 41  1  0
  2 42  1  0
  3 43  1  0
  6 44  1  0
  7 45  1  0
  7 46  1  0
  8 47  1  0
  8 48  1  0
 13 49  1  0
 14 50  1  0
 14 51  1  0
 15 52  1  0
 15 53  1  0
 16 54  1  0
 16 55  1  0
 17 56  1  0
 17 57  1  0
 19 58  1  0
 22 59  1  0
 23 60  1  0
 24 61  1  0
 25 62  1  0
 30 63  1  0
 30 64  1  0
 31 65  1  0
 31 66  1  0
 33 67  1  0
 34 68  1  0
 35 69  1  0
 36 70  1  0
 38 71  1  0
 38 72  1  0
 40 73  1  0
 40 74  1  0
M  END
>  <smiles>  (8) 
c1ccc2c(c1)CCN(c1nc(NCCCCn3cnc4ccccc43)nc(N3CCc4ccccc4C3)n1)C2

>  <score_type>  (8) 
oracle

>  <origin>  (8) 
autodockgpu

>  <m_score__min__energy>  (8) 
-11.42

>  <m_primary>  (8) 
energy

>  <rmsd>  (8) 
4.50194600357377

>  <m_score__min__rmsd>  (8) 
4.50194600357377

>  <meeko>  (8) 
{"free_energy": -10.2, "intermolecular_energy": -12.58, "internal_energy": -1.64, "cluster_size": 18, "cluster_id": 1, "rank_in_cluster": 16}

>  <energy>  (8) 
-10.63

>  <cluster_rmsd>  (8) 
0.71

>  <cluster>  (8) 
1

$$$$

     RDKit          3D

 74 80  0  0  0  0  0  0  0  0999 V2000
  140.0030   69.8880  228.2270 C   0  0  0  0  0  0  0  0  0  0  0  0
  140.7110   71.0710  228.1650 C   0  0  0  0  0  0  0  0  0  0  0  0
  140.9840   71.6650  226.9450 C   0  0  0  0  0  0  0  0  0  0  0  0
  140.5350   71.0520  225.7970 C   0  0  0  0  0  0  0  0  0  0  0  0
  139.8220   69.8650  225.8230 C   0  0  0  0  0  0  0  0  0  0  0  0
  139.5690   69.3040  227.0540 C   0  0  0  0  0  0  0  0  0  0  0  0
  139.3480   69.2240  224.5620 C   0  0  0  0  0  0  0  0  0  0  0  0
  138.8610   70.2630  223.5950 C   0  0  0  0  0  0  0  0  0  0  0  0
  139.7930   71.3850  223.4910 N   0  0  0  0  0  0  0  0  0  0  0  0
  139.7030   72.2580  222.3610 C   0  0  0  0  0  0  0  0  0  0  0  0
  139.5050   71.7820  221.1180 N   0  0  0  0  0  0  0  0  0  0  0  0
  139.4150   72.5670  220.0410 C   0  0  0  0  0  0  0  0  0  0  0  0
  139.2040   72.0400  218.7220 N   0  0  0  0  0  0  0  0  0  0  0  0
  140.2480   71.4630  217.9380 C   0  0  0  0  0  0  0  0  0  0  0  0
  140.6410   70.0870  218.4400 C   0  0  0  0  0  0  0  0  0  0  0  0
  142.1090   69.9040  218.2110 C   0  0  0  0  0  0  0  0  0  0  0  0
  142.8830   69.6450  219.4640 C   0  0  0  0  0  0  0  0  0  0  0  0
  144.0000   70.5780  219.5050 N   0  0  0  0  0  0  0  0  0  0  0  0
  145.2820   70.2930  219.1860 C   0  0  0  0  0  0  0  0  0  0  0  0
  146.0160   71.4140  219.3500 N   0  0  0  0  0  0  0  0  0  0  0  0
  145.1800   72.4020  219.7750 C   0  0  0  0  0  0  0  0  0  0  0  0
  145.4450   73.7210  220.0810 C   0  0  0  0  0  0  0  0  0  0  0  0
  144.3700   74.5160  220.4980 C   0  0  0  0  0  0  0  0  0  0  0  0
  143.1200   73.9790  220.5890 C   0  0  0  0  0  0  0  0  0  0  0  0
  142.8630   72.6600  220.2820 C   0  0  0  0  0  0  0  0  0  0  0  0
  143.9050   71.8770  219.8740 C   0  0  0  0  0  0  0  0  0  0  0  0
  139.5340   73.9030  220.2570 N   0  0  0  0  0  0  0  0  0  0  0  0
  139.7320   74.4380  221.4680 C   0  0  0  0  0  0  0  0  0  0  0  0
  139.8560   75.8480  221.6750 N   0  0  0  0  0  0  0  0  0  0  0  0
  141.0690   76.3760  222.2670 C   0  0  0  0  0  0  0  0  0  0  0  0
  141.1930   77.8460  221.8490 C   0  0  0  0  0  0  0  0  0  0  0  0
  139.9700   78.5010  222.4360 C   0  0  0  0  0  0  0  0  0  0  0  0
  140.0880   79.6180  223.2160 C   0  0  0  0  0  0  0  0  0  0  0  0
  138.9520   80.2000  223.7440 C   0  0  0  0  0  0  0  0  0  0  0  0
  137.7210   79.6150  223.4540 C   0  0  0  0  0  0  0  0  0  0  0  0
  137.6320   78.4760  222.6560 C   0  0  0  0  0  0  0  0  0  0  0  0
  138.7680   77.8960  222.1290 C   0  0  0  0  0  0  0  0  0  0  0  0
  138.7390   76.6820  221.2720 C   0  0  0  0  0  0  0  0  0  0  0  0
  139.8140   73.5890  222.5170 N   0  0  0  0  0  0  0  0  0  0  0  0
  140.8060   71.6530  224.4850 C   0  0  0  0  0  0  0  0  0  0  0  0
  139.7876   69.4171  229.1975 H   0  0  0  0  0  0  0  0  0  0  0  0
  141.0614   71.5460  229.0932 H   0  0  0  0  0  0  0  0  0  0  0  0
  141.5483   72.6078  226.8937 H   0  0  0  0  0  0  0  0  0  0  0  0
  139.0038   68.3617  227.1047 H   0  0  0  0  0  0  0  0  0  0  0  0
  140.1785   68.6656  224.1054 H   0  0  0  0  0  0  0  0  0  0  0  0
  138.5180   68.5424  224.7996 H   0  0  0  0  0  0  0  0  0  0  0  0
  138.7471   69.8012  222.6031 H   0  0  0  0  0  0  0  0  0  0  0  0
  137.8991   70.6495  223.9630 H   0  0  0  0  0  0  0  0  0  0  0  0
  138.2530   72.0900  218.3450 H   0  0  0  0  0  0  0  0  0  0  0  0
  139.9038   71.3763  216.8968 H   0  0  0  0  0  0  0  0  0  0  0  0
  141.1297   72.1165  218.0124 H   0  0  0  0  0  0  0  0  0  0  0  0
  140.4193   70.0058  219.5144 H   0  0  0  0  0  0  0  0  0  0  0  0
  140.0744   69.3119  217.9031 H   0  0  0  0  0  0  0  0  0  0  0  0
  142.2512   69.0505  217.5318 H   0  0  0  0  0  0  0  0  0  0  0  0
  142.4888   70.8449  217.7861 H   0  0  0  0  0  0  0  0  0  0  0  0
  142.2363   69.7985  220.3405 H   0  0  0  0  0  0  0  0  0  0  0  0
  143.2508   68.6084  219.4781 H   0  0  0  0  0  0  0  0  0  0  0  0
  145.6616   69.3165  218.8507 H   0  0  0  0  0  0  0  0  0  0  0  0
  146.4619   74.1325  220.0005 H   0  0  0  0  0  0  0  0  0  0  0  0
  144.5341   75.5736  220.7521 H   0  0  0  0  0  0  0  0  0  0  0  0
  142.2888   74.6198  220.9184 H   0  0  0  0  0  0  0  0  0  0  0  0
  141.8459   72.2491  220.3634 H   0  0  0  0  0  0  0  0  0  0  0  0
  141.0134   76.3020  223.3631 H   0  0  0  0  0  0  0  0  0  0  0  0
  141.9441   75.8041  221.9248 H   0  0  0  0  0  0  0  0  0  0  0  0
  142.1102   78.2926  222.2603 H   0  0  0  0  0  0  0  0  0  0  0  0
  141.2550   77.9702  220.7578 H   0  0  0  0  0  0  0  0  0  0  0  0
  141.0789   80.0493  223.4212 H   0  0  0  0  0  0  0  0  0  0  0  0
  139.0172   81.0988  224.3748 H   0  0  0  0  0  0  0  0  0  0  0  0
  136.8021   80.0607  223.8627 H   0  0  0  0  0  0  0  0  0  0  0  0
  136.6468   78.0350  222.4441 H   0  0  0  0  0  0  0  0  0  0  0  0
  137.7925   76.1406  221.4167 H   0  0  0  0  0  0  0  0  0  0  0  0
  138.8158   76.9519  220.2084 H   0  0  0  0  0  0  0  0  0  0  0  0
  141.7643   71.2586  224.1161 H   0  0  0  0  0  0  0  0  0  0  0  0
  140.8228   72.7428  224.6337 H   0  0  0  0  0  0  0  0  0  0  0  0
  1  2  2  0
  2  3  1  0
  3  4  2  0
  4  5  1  0
  5  6  2  0
  5  7  1  0
  7  8  1  0
  8  9  1  0
  9 10  1  0
 10 11  2  0
 11 12  1  0
 12 13  1  0
 13 14  1  0
 14 15  1  0
 15 16  1  0
 16 17  1  0
 17 18  1  0
 18 19  1  0
 19 20  2  0
 20 21  1  0
 21 22  2  0
 22 23  1  0
 23 24  2  0
 24 25  1  0
 25 26  2  0
 12 27  2  0
 27 28  1  0
 28 29  1  0
 29 30  1  0
 30 31  1  0
 31 32  1  0
 32 33  2  0
 33 34  1  0
 34 35  2  0
 35 36  1  0
 36 37  2  0
 37 38  1  0
 28 39  2  0
  9 40  1  0
  6  1  1  0
 39 10  1  0
 40  4  1  0
 26 18  1  0
 38 29  1  0
 26 21  1  0
 37 32  1  0
  1 41  1  0
  2 42  1  0
  3 43  1  0
  6 44  1  0
  7 45  1  0
  7 46  1  0
  8 47  1  0
  8 48  1  0
 13 49  1  0
 14 50  1  0
 14 51  1  0
 15 52  1  0
 15 53  1  0
 16 54  1  0
 16 55  1  0
 17 56  1  0
 17 57  1  0
 19 58  1  0
 22 59  1  0
 23 60  1  0
 24 61  1  0
 25 62  1  0
 30 63  1  0
 30 64  1  0
 31 65  1  0
 31 66  1  0
 33 67  1  0
 34 68  1  0
 35 69  1  0
 36 70  1  0
 38 71  1  0
 38 72  1  0
 40 73  1  0
 40 74  1  0
M  END
>  <smiles>  (9) 
c1ccc2c(c1)CCN(c1nc(NCCCCn3cnc4ccccc43)nc(N3CCc4ccccc4C3)n1)C2

>  <score_type>  (9) 
oracle

>  <origin>  (9) 
autodockgpu

>  <m_score__min__energy>  (9) 
-11.42

>  <m_primary>  (9) 
energy

>  <rmsd>  (9) 
8.288368772908848

>  <m_score__min__rmsd>  (9) 
8.288368772908848

>  <meeko>  (9) 
{"free_energy": -9.42, "intermolecular_energy": -11.81, "internal_energy": -2.18, "cluster_size": 14, "cluster_id": 4, "rank_in_cluster": 6}

>  <energy>  (9) 
-10.57

>  <cluster_rmsd>  (9) 
1.56

>  <cluster>  (9) 
1

$$$$

     RDKit          3D

 74 80  0  0  0  0  0  0  0  0999 V2000
  142.2670   80.7260  223.2010 C   0  0  0  0  0  0  0  0  0  0  0  0
  141.0480   80.9070  223.8240 C   0  0  0  0  0  0  0  0  0  0  0  0
  139.9820   80.0720  223.5410 C   0  0  0  0  0  0  0  0  0  0  0  0
  140.1620   79.0580  222.6280 C   0  0  0  0  0  0  0  0  0  0  0  0
  141.3710   78.8480  221.9850 C   0  0  0  0  0  0  0  0  0  0  0  0
  142.4080   79.6980  222.2910 C   0  0  0  0  0  0  0  0  0  0  0  0
  141.5350   77.7400  221.0000 C   0  0  0  0  0  0  0  0  0  0  0  0
  140.8160   76.5090  221.4670 C   0  0  0  0  0  0  0  0  0  0  0  0
  139.4670   76.8170  221.9400 N   0  0  0  0  0  0  0  0  0  0  0  0
  138.5130   75.7570  222.0500 C   0  0  0  0  0  0  0  0  0  0  0  0
  138.6870   74.5840  221.4130 N   0  0  0  0  0  0  0  0  0  0  0  0
  137.8180   73.5730  221.4940 C   0  0  0  0  0  0  0  0  0  0  0  0
  138.0210   72.3280  220.8070 N   0  0  0  0  0  0  0  0  0  0  0  0
  138.2270   71.0900  221.4850 C   0  0  0  0  0  0  0  0  0  0  0  0
  139.6990   70.7450  221.6020 C   0  0  0  0  0  0  0  0  0  0  0  0
  140.1600   71.1110  222.9790 C   0  0  0  0  0  0  0  0  0  0  0  0
  139.0720   71.0720  224.0050 C   0  0  0  0  0  0  0  0  0  0  0  0
  139.2540   69.8730  224.8100 N   0  0  0  0  0  0  0  0  0  0  0  0
  138.8310   68.6310  224.4870 C   0  0  0  0  0  0  0  0  0  0  0  0
  139.1860   67.7920  225.4830 N   0  0  0  0  0  0  0  0  0  0  0  0
  139.8360   68.5220  226.4310 C   0  0  0  0  0  0  0  0  0  0  0  0
  140.3910   68.1290  227.6320 C   0  0  0  0  0  0  0  0  0  0  0  0
  141.0050   69.1140  228.4150 C   0  0  0  0  0  0  0  0  0  0  0  0
  141.0380   70.4070  227.9800 C   0  0  0  0  0  0  0  0  0  0  0  0
  140.4820   70.7920  226.7800 C   0  0  0  0  0  0  0  0  0  0  0  0
  139.8810   69.8380  226.0100 C   0  0  0  0  0  0  0  0  0  0  0  0
  136.7200   73.7810  222.2670 N   0  0  0  0  0  0  0  0  0  0  0  0
  136.4900   74.9250  222.9250 C   0  0  0  0  0  0  0  0  0  0  0  0
  135.3270   75.1250  223.7340 N   0  0  0  0  0  0  0  0  0  0  0  0
  135.1290   76.4020  224.3900 C   0  0  0  0  0  0  0  0  0  0  0  0
  133.6290   76.5560  224.6710 C   0  0  0  0  0  0  0  0  0  0  0  0
  133.3090   75.4130  225.5980 C   0  0  0  0  0  0  0  0  0  0  0  0
  132.6680   75.6400  226.7840 C   0  0  0  0  0  0  0  0  0  0  0  0
  132.3850   74.5750  227.6180 C   0  0  0  0  0  0  0  0  0  0  0  0
  132.7720   73.3010  227.2060 C   0  0  0  0  0  0  0  0  0  0  0  0
  133.4240   73.1000  225.9910 C   0  0  0  0  0  0  0  0  0  0  0  0
  133.7060   74.1650  225.1600 C   0  0  0  0  0  0  0  0  0  0  0  0
  134.3980   74.0170  223.8530 C   0  0  0  0  0  0  0  0  0  0  0  0
  137.4080   75.9090  222.8020 N   0  0  0  0  0  0  0  0  0  0  0  0
  139.0530   78.1520  222.3030 C   0  0  0  0  0  0  0  0  0  0  0  0
  143.1133   81.3914  223.4267 H   0  0  0  0  0  0  0  0  0  0  0  0
  140.9235   81.7224  224.5518 H   0  0  0  0  0  0  0  0  0  0  0  0
  139.0101   80.2156  224.0357 H   0  0  0  0  0  0  0  0  0  0  0  0
  143.3794   79.5541  221.7953 H   0  0  0  0  0  0  0  0  0  0  0  0
  141.1219   78.0541  220.0301 H   0  0  0  0  0  0  0  0  0  0  0  0
  142.6059   77.5093  220.9001 H   0  0  0  0  0  0  0  0  0  0  0  0
  140.7468   75.7978  220.6307 H   0  0  0  0  0  0  0  0  0  0  0  0
  141.3831   76.0780  222.3052 H   0  0  0  0  0  0  0  0  0  0  0  0
  138.0120   72.3530  219.7830 H   0  0  0  0  0  0  0  0  0  0  0  0
  137.7978   71.1625  222.4952 H   0  0  0  0  0  0  0  0  0  0  0  0
  137.7373   70.2969  220.9009 H   0  0  0  0  0  0  0  0  0  0  0  0
  139.8427   69.6671  221.4359 H   0  0  0  0  0  0  0  0  0  0  0  0
  140.2789   71.2984  220.8487 H   0  0  0  0  0  0  0  0  0  0  0  0
  140.9481   70.4055  223.2809 H   0  0  0  0  0  0  0  0  0  0  0  0
  140.5226   72.1485  222.9326 H   0  0  0  0  0  0  0  0  0  0  0  0
  139.1313   71.9641  224.6458 H   0  0  0  0  0  0  0  0  0  0  0  0
  138.0867   71.0575  223.5161 H   0  0  0  0  0  0  0  0  0  0  0  0
  138.2906   68.3518  223.5705 H   0  0  0  0  0  0  0  0  0  0  0  0
  140.3524   67.0804  227.9619 H   0  0  0  0  0  0  0  0  0  0  0  0
  141.4603   68.8459  229.3798 H   0  0  0  0  0  0  0  0  0  0  0  0
  141.5248   71.1672  228.6086 H   0  0  0  0  0  0  0  0  0  0  0  0
  140.5212   71.8408  226.4506 H   0  0  0  0  0  0  0  0  0  0  0  0
  135.6916   76.4287  225.3349 H   0  0  0  0  0  0  0  0  0  0  0  0
  135.4868   77.2225  223.7506 H   0  0  0  0  0  0  0  0  0  0  0  0
  133.4196   77.5214  225.1549 H   0  0  0  0  0  0  0  0  0  0  0  0
  133.0236   76.5367  223.7528 H   0  0  0  0  0  0  0  0  0  0  0  0
  132.3799   76.6618  227.0720 H   0  0  0  0  0  0  0  0  0  0  0  0
  131.8699   74.7281  228.5778 H   0  0  0  0  0  0  0  0  0  0  0  0
  132.5585   72.4372  227.8527 H   0  0  0  0  0  0  0  0  0  0  0  0
  133.7166   72.0828  225.6915 H   0  0  0  0  0  0  0  0  0  0  0  0
  134.9434   73.0623  223.8208 H   0  0  0  0  0  0  0  0  0  0  0  0
  133.6746   74.0220  223.0243 H   0  0  0  0  0  0  0  0  0  0  0  0
  138.4929   78.5810  221.4591 H   0  0  0  0  0  0  0  0  0  0  0  0
  138.4441   78.0576  223.2142 H   0  0  0  0  0  0  0  0  0  0  0  0
  1  2  2  0
  2  3  1  0
  3  4  2  0
  4  5  1  0
  5  6  2  0
  5  7  1  0
  7  8  1  0
  8  9  1  0
  9 10  1  0
 10 11  2  0
 11 12  1  0
 12 13  1  0
 13 14  1  0
 14 15  1  0
 15 16  1  0
 16 17  1  0
 17 18  1  0
 18 19  1  0
 19 20  2  0
 20 21  1  0
 21 22  2  0
 22 23  1  0
 23 24  2  0
 24 25  1  0
 25 26  2  0
 12 27  2  0
 27 28  1  0
 28 29  1  0
 29 30  1  0
 30 31  1  0
 31 32  1  0
 32 33  2  0
 33 34  1  0
 34 35  2  0
 35 36  1  0
 36 37  2  0
 37 38  1  0
 28 39  2  0
  9 40  1  0
  6  1  1  0
 39 10  1  0
 40  4  1  0
 26 18  1  0
 38 29  1  0
 26 21  1  0
 37 32  1  0
  1 41  1  0
  2 42  1  0
  3 43  1  0
  6 44  1  0
  7 45  1  0
  7 46  1  0
  8 47  1  0
  8 48  1  0
 13 49  1  0
 14 50  1  0
 14 51  1  0
 15 52  1  0
 15 53  1  0
 16 54  1  0
 16 55  1  0
 17 56  1  0
 17 57  1  0
 19 58  1  0
 22 59  1  0
 23 60  1  0
 24 61  1  0
 25 62  1  0
 30 63  1  0
 30 64  1  0
 31 65  1  0
 31 66  1  0
 33 67  1  0
 34 68  1  0
 35 69  1  0
 36 70  1  0
 38 71  1  0
 38 72  1  0
 40 73  1  0
 40 74  1  0
M  END
>  <smiles>  (10) 
c1ccc2c(c1)CCN(c1nc(NCCCCn3cnc4ccccc43)nc(N3CCc4ccccc4C3)n1)C2

>  <score_type>  (10) 
oracle

>  <origin>  (10) 
autodockgpu

>  <m_score__min__energy>  (10) 
-11.42

>  <m_primary>  (10) 
energy

>  <rmsd>  (10) 
4.805479073657872

>  <m_score__min__rmsd>  (10) 
4.805479073657872

>  <meeko>  (10) 
{"free_energy": -10.31, "intermolecular_energy": -12.69, "internal_energy": -1.35, "cluster_size": 10, "cluster_id": 2, "rank_in_cluster": 2}

>  <energy>  (10) 
-10.56

>  <cluster_rmsd>  (10) 
1.51

>  <cluster>  (10) 
1

$$$$

     RDKit          3D

 74 80  0  0  0  0  0  0  0  0999 V2000
  139.9550   70.4190  228.3300 C   0  0  0  0  0  0  0  0  0  0  0  0
  140.8780   71.4350  228.1790 C   0  0  0  0  0  0  0  0  0  0  0  0
  141.2570   71.8600  226.9180 C   0  0  0  0  0  0  0  0  0  0  0  0
  140.6970   71.2490  225.8190 C   0  0  0  0  0  0  0  0  0  0  0  0
  139.7690   70.2270  225.9340 C   0  0  0  0  0  0  0  0  0  0  0  0
  139.4160   69.8310  227.2040 C   0  0  0  0  0  0  0  0  0  0  0  0
  139.1790   69.5840  224.7240 C   0  0  0  0  0  0  0  0  0  0  0  0
  138.8980   70.6110  223.6660 C   0  0  0  0  0  0  0  0  0  0  0  0
  140.0280   71.5210  223.4830 N   0  0  0  0  0  0  0  0  0  0  0  0
  140.1060   72.2950  222.2820 C   0  0  0  0  0  0  0  0  0  0  0  0
  140.1210   71.7140  221.0690 N   0  0  0  0  0  0  0  0  0  0  0  0
  140.1920   72.4050  219.9290 C   0  0  0  0  0  0  0  0  0  0  0  0
  140.2070   71.7660  218.6420 N   0  0  0  0  0  0  0  0  0  0  0  0
  141.3960   71.2500  218.0440 C   0  0  0  0  0  0  0  0  0  0  0  0
  141.7210   71.9450  216.7350 C   0  0  0  0  0  0  0  0  0  0  0  0
  141.6630   73.4240  216.9610 C   0  0  0  0  0  0  0  0  0  0  0  0
  142.9850   74.1070  216.8030 C   0  0  0  0  0  0  0  0  0  0  0  0
  143.4500   74.5000  218.1250 N   0  0  0  0  0  0  0  0  0  0  0  0
  143.1190   75.6370  218.7750 C   0  0  0  0  0  0  0  0  0  0  0  0
  143.7490   75.6390  219.9690 N   0  0  0  0  0  0  0  0  0  0  0  0
  144.4770   74.4910  220.0580 C   0  0  0  0  0  0  0  0  0  0  0  0
  145.2880   74.0280  221.0740 C   0  0  0  0  0  0  0  0  0  0  0  0
  145.9200   72.7930  220.8850 C   0  0  0  0  0  0  0  0  0  0  0  0
  145.7230   72.0960  219.7280 C   0  0  0  0  0  0  0  0  0  0  0  0
  144.9110   72.5650  218.7190 C   0  0  0  0  0  0  0  0  0  0  0  0
  144.2900   73.7680  218.8950 C   0  0  0  0  0  0  0  0  0  0  0  0
  140.2490   73.7570  220.0450 N   0  0  0  0  0  0  0  0  0  0  0  0
  140.2380   74.3950  221.2230 C   0  0  0  0  0  0  0  0  0  0  0  0
  140.3000   75.8210  221.3250 N   0  0  0  0  0  0  0  0  0  0  0  0
  140.4250   76.6150  220.1190 C   0  0  0  0  0  0  0  0  0  0  0  0
  139.8940   78.0200  220.4270 C   0  0  0  0  0  0  0  0  0  0  0  0
  140.8070   78.5300  221.5120 C   0  0  0  0  0  0  0  0  0  0  0  0
  141.4300   79.7400  221.3830 C   0  0  0  0  0  0  0  0  0  0  0  0
  142.2630   80.1860  222.3910 C   0  0  0  0  0  0  0  0  0  0  0  0
  142.4330   79.3700  223.5090 C   0  0  0  0  0  0  0  0  0  0  0  0
  141.7840   78.1410  223.6120 C   0  0  0  0  0  0  0  0  0  0  0  0
  140.9520   77.6970  222.6040 C   0  0  0  0  0  0  0  0  0  0  0  0
  140.2340   76.3980  222.6550 C   0  0  0  0  0  0  0  0  0  0  0  0
  140.1660   73.6380  222.3390 N   0  0  0  0  0  0  0  0  0  0  0  0
  141.0760   71.6730  224.4650 C   0  0  0  0  0  0  0  0  0  0  0  0
  139.6538   70.0833  229.3333 H   0  0  0  0  0  0  0  0  0  0  0  0
  141.3158   71.9106  229.0690 H   0  0  0  0  0  0  0  0  0  0  0  0
  141.9912   72.6700  226.7962 H   0  0  0  0  0  0  0  0  0  0  0  0
  138.6817   69.0210  227.3251 H   0  0  0  0  0  0  0  0  0  0  0  0
  139.8865   68.8407  224.3279 H   0  0  0  0  0  0  0  0  0  0  0  0
  138.2341   69.0963  225.0057 H   0  0  0  0  0  0  0  0  0  0  0  0
  138.6963   70.0970  222.7146 H   0  0  0  0  0  0  0  0  0  0  0  0
  138.0281   71.2037  223.9854 H   0  0  0  0  0  0  0  0  0  0  0  0
  139.3130   71.6870  218.1490 H   0  0  0  0  0  0  0  0  0  0  0  0
  142.2352   71.3938  218.7405 H   0  0  0  0  0  0  0  0  0  0  0  0
  141.2342   70.1829  217.8314 H   0  0  0  0  0  0  0  0  0  0  0  0
  142.7297   71.6588  216.4023 H   0  0  0  0  0  0  0  0  0  0  0  0
  140.9976   71.6513  215.9601 H   0  0  0  0  0  0  0  0  0  0  0  0
  140.9583   73.8589  216.2370 H   0  0  0  0  0  0  0  0  0  0  0  0
  141.3426   73.5787  218.0019 H   0  0  0  0  0  0  0  0  0  0  0  0
  143.7083   73.4179  216.3426 H   0  0  0  0  0  0  0  0  0  0  0  0
  142.8833   74.9906  216.1558 H   0  0  0  0  0  0  0  0  0  0  0  0
  142.4514   76.4252  218.3967 H   0  0  0  0  0  0  0  0  0  0  0  0
  145.4325   74.6075  221.9978 H   0  0  0  0  0  0  0  0  0  0  0  0
  146.5751   72.3845  221.6686 H   0  0  0  0  0  0  0  0  0  0  0  0
  146.2292   71.1282  219.5971 H   0  0  0  0  0  0  0  0  0  0  0  0
  144.7667   71.9853  217.7954 H   0  0  0  0  0  0  0  0  0  0  0  0
  141.4809   76.6719  219.8160 H   0  0  0  0  0  0  0  0  0  0  0  0
  139.8530   76.1592  219.2974 H   0  0  0  0  0  0  0  0  0  0  0  0
  139.9501   78.6624  219.5358 H   0  0  0  0  0  0  0  0  0  0  0  0
  138.8376   78.0136  220.7335 H   0  0  0  0  0  0  0  0  0  0  0  0
  141.2694   80.3534  220.4841 H   0  0  0  0  0  0  0  0  0  0  0  0
  142.7767   81.1556  222.3140 H   0  0  0  0  0  0  0  0  0  0  0  0
  143.0916   79.7026  224.3248 H   0  0  0  0  0  0  0  0  0  0  0  0
  141.9363   77.5183  224.5059 H   0  0  0  0  0  0  0  0  0  0  0  0
  140.7174   75.7280  223.3813 H   0  0  0  0  0  0  0  0  0  0  0  0
  139.1892   76.5404  222.9684 H   0  0  0  0  0  0  0  0  0  0  0  0
  141.9395   71.0719  224.1441 H   0  0  0  0  0  0  0  0  0  0  0  0
  141.3031   72.7478  224.5218 H   0  0  0  0  0  0  0  0  0  0  0  0
  1  2  2  0
  2  3  1  0
  3  4  2  0
  4  5  1  0
  5  6  2  0
  5  7  1  0
  7  8  1  0
  8  9  1  0
  9 10  1  0
 10 11  2  0
 11 12  1  0
 12 13  1  0
 13 14  1  0
 14 15  1  0
 15 16  1  0
 16 17  1  0
 17 18  1  0
 18 19  1  0
 19 20  2  0
 20 21  1  0
 21 22  2  0
 22 23  1  0
 23 24  2  0
 24 25  1  0
 25 26  2  0
 12 27  2  0
 27 28  1  0
 28 29  1  0
 29 30  1  0
 30 31  1  0
 31 32  1  0
 32 33  2  0
 33 34  1  0
 34 35  2  0
 35 36  1  0
 36 37  2  0
 37 38  1  0
 28 39  2  0
  9 40  1  0
  6  1  1  0
 39 10  1  0
 40  4  1  0
 26 18  1  0
 38 29  1  0
 26 21  1  0
 37 32  1  0
  1 41  1  0
  2 42  1  0
  3 43  1  0
  6 44  1  0
  7 45  1  0
  7 46  1  0
  8 47  1  0
  8 48  1  0
 13 49  1  0
 14 50  1  0
 14 51  1  0
 15 52  1  0
 15 53  1  0
 16 54  1  0
 16 55  1  0
 17 56  1  0
 17 57  1  0
 19 58  1  0
 22 59  1  0
 23 60  1  0
 24 61  1  0
 25 62  1  0
 30 63  1  0
 30 64  1  0
 31 65  1  0
 31 66  1  0
 33 67  1  0
 34 68  1  0
 35 69  1  0
 36 70  1  0
 38 71  1  0
 38 72  1  0
 40 73  1  0
 40 74  1  0
M  END
>  <smiles>  (11) 
c1ccc2c(c1)CCN(c1nc(NCCCCn3cnc4ccccc43)nc(N3CCc4ccccc4C3)n1)C2

>  <score_type>  (11) 
oracle

>  <origin>  (11) 
autodockgpu

>  <m_score__min__energy>  (11) 
-11.42

>  <m_primary>  (11) 
energy

>  <rmsd>  (11) 
8.914994460499338

>  <m_score__min__rmsd>  (11) 
8.914994460499338

>  <meeko>  (11) 
{"free_energy": -9.28, "intermolecular_energy": -11.66, "internal_energy": -2.39, "cluster_size": 14, "cluster_id": 4, "rank_in_cluster": 8}

>  <energy>  (11) 
-10.55

>  <cluster_rmsd>  (11) 
1.35

>  <cluster>  (11) 
1

$$$$

     RDKit          3D

 74 80  0  0  0  0  0  0  0  0999 V2000
  141.7310   80.1380  223.0960 C   0  0  0  0  0  0  0  0  0  0  0  0
  140.6280   79.7230  223.8160 C   0  0  0  0  0  0  0  0  0  0  0  0
  139.9320   78.5860  223.4440 C   0  0  0  0  0  0  0  0  0  0  0  0
  140.3620   77.8790  222.3440 C   0  0  0  0  0  0  0  0  0  0  0  0
  141.4640   78.2670  221.6000 C   0  0  0  0  0  0  0  0  0  0  0  0
  142.1310   79.4020  221.9990 C   0  0  0  0  0  0  0  0  0  0  0  0
  141.9060   77.4800  220.4120 C   0  0  0  0  0  0  0  0  0  0  0  0
  141.7760   76.0090  220.6780 C   0  0  0  0  0  0  0  0  0  0  0  0
  140.4860   75.6800  221.2830 N   0  0  0  0  0  0  0  0  0  0  0  0
  140.0300   74.3240  221.2460 C   0  0  0  0  0  0  0  0  0  0  0  0
  139.5040   73.7890  220.1290 N   0  0  0  0  0  0  0  0  0  0  0  0
  139.0690   72.5280  220.0580 C   0  0  0  0  0  0  0  0  0  0  0  0
  138.5110   71.9730  218.8570 N   0  0  0  0  0  0  0  0  0  0  0  0
  139.0380   70.8100  218.2190 C   0  0  0  0  0  0  0  0  0  0  0  0
  140.3930   71.0710  217.5910 C   0  0  0  0  0  0  0  0  0  0  0  0
  141.3870   70.1390  218.2110 C   0  0  0  0  0  0  0  0  0  0  0  0
  141.8120   70.5450  219.5870 C   0  0  0  0  0  0  0  0  0  0  0  0
  143.2480   70.7840  219.5630 N   0  0  0  0  0  0  0  0  0  0  0  0
  144.1890   69.9120  219.1360 C   0  0  0  0  0  0  0  0  0  0  0  0
  145.3970   70.4980  219.2700 N   0  0  0  0  0  0  0  0  0  0  0  0
  145.2030   71.7440  219.7840 C   0  0  0  0  0  0  0  0  0  0  0  0
  146.1160   72.7280  220.1020 C   0  0  0  0  0  0  0  0  0  0  0  0
  145.6180   73.9290  220.6230 C   0  0  0  0  0  0  0  0  0  0  0  0
  144.2750   74.0910  220.8000 C   0  0  0  0  0  0  0  0  0  0  0  0
  143.3690   73.1030  220.4800 C   0  0  0  0  0  0  0  0  0  0  0  0
  143.8460   71.9280  219.9710 C   0  0  0  0  0  0  0  0  0  0  0  0
  139.1810   71.7870  221.1920 N   0  0  0  0  0  0  0  0  0  0  0  0
  139.6940   72.2620  222.3340 C   0  0  0  0  0  0  0  0  0  0  0  0
  139.8030   71.4650  223.5170 N   0  0  0  0  0  0  0  0  0  0  0  0
  138.6730   70.6620  223.9400 C   0  0  0  0  0  0  0  0  0  0  0  0
  139.2100   69.5230  224.8160 C   0  0  0  0  0  0  0  0  0  0  0  0
  139.8460   70.2270  225.9860 C   0  0  0  0  0  0  0  0  0  0  0  0
  139.5100   69.8860  227.2670 C   0  0  0  0  0  0  0  0  0  0  0  0
  140.1070   70.5460  228.3240 C   0  0  0  0  0  0  0  0  0  0  0  0
  141.0360   71.5430  228.0320 C   0  0  0  0  0  0  0  0  0  0  0  0
  141.3580   71.8690  226.7160 C   0  0  0  0  0  0  0  0  0  0  0  0
  140.7620   71.2090  225.6610 C   0  0  0  0  0  0  0  0  0  0  0  0
  141.0620   71.5100  224.2380 C   0  0  0  0  0  0  0  0  0  0  0  0
  140.1160   73.5450  222.3390 N   0  0  0  0  0  0  0  0  0  0  0  0
  139.6480   76.6680  221.9200 C   0  0  0  0  0  0  0  0  0  0  0  0
  142.2829   81.0422  223.3925 H   0  0  0  0  0  0  0  0  0  0  0  0
  140.2999   80.3010  224.6925 H   0  0  0  0  0  0  0  0  0  0  0  0
  139.0529   78.2540  224.0159 H   0  0  0  0  0  0  0  0  0  0  0  0
  143.0099   79.7331  221.4264 H   0  0  0  0  0  0  0  0  0  0  0  0
  141.2812   77.7481  219.5473 H   0  0  0  0  0  0  0  0  0  0  0  0
  142.9610   77.7120  220.2041 H   0  0  0  0  0  0  0  0  0  0  0  0
  141.8726   75.4650  219.7268 H   0  0  0  0  0  0  0  0  0  0  0  0
  142.5691   75.7168  221.3820 H   0  0  0  0  0  0  0  0  0  0  0  0
  137.6970   72.4490  218.4560 H   0  0  0  0  0  0  0  0  0  0  0  0
  139.1416   70.0106  218.9675 H   0  0  0  0  0  0  0  0  0  0  0  0
  138.3431   70.5177  217.4180 H   0  0  0  0  0  0  0  0  0  0  0  0
  140.3411   70.8916  216.5070 H   0  0  0  0  0  0  0  0  0  0  0  0
  140.6948   72.1148  217.7622 H   0  0  0  0  0  0  0  0  0  0  0  0
  140.9360   69.1373  218.2678 H   0  0  0  0  0  0  0  0  0  0  0  0
  142.2858   70.1580  217.5771 H   0  0  0  0  0  0  0  0  0  0  0  0
  141.2857   71.4641  219.8842 H   0  0  0  0  0  0  0  0  0  0  0  0
  141.5688   69.7533  220.3109 H   0  0  0  0  0  0  0  0  0  0  0  0
  144.0021   68.9003  218.7468 H   0  0  0  0  0  0  0  0  0  0  0  0
  147.1949   72.5751  219.9520 H   0  0  0  0  0  0  0  0  0  0  0  0
  146.3098   74.7416  220.8895 H   0  0  0  0  0  0  0  0  0  0  0  0
  143.9032   75.0410  221.2115 H   0  0  0  0  0  0  0  0  0  0  0  0
  142.2902   73.2563  220.6304 H   0  0  0  0  0  0  0  0  0  0  0  0
  137.9704   71.2798  224.5185 H   0  0  0  0  0  0  0  0  0  0  0  0
  138.1405   70.2573  223.0667 H   0  0  0  0  0  0  0  0  0  0  0  0
  138.3914   68.8694  225.1517 H   0  0  0  0  0  0  0  0  0  0  0  0
  139.9176   68.8748  224.2782 H   0  0  0  0  0  0  0  0  0  0  0  0
  138.7709   69.0932  227.4543 H   0  0  0  0  0  0  0  0  0  0  0  0
  139.8566   70.2921  229.3646 H   0  0  0  0  0  0  0  0  0  0  0  0
  141.5246   72.0831  228.8564 H   0  0  0  0  0  0  0  0  0  0  0  0
  142.0950   72.6608  226.5162 H   0  0  0  0  0  0  0  0  0  0  0  0
  141.5112   72.5103  224.1506 H   0  0  0  0  0  0  0  0  0  0  0  0
  141.7752   70.7810  223.8258 H   0  0  0  0  0  0  0  0  0  0  0  0
  138.8609   76.9622  221.2102 H   0  0  0  0  0  0  0  0  0  0  0  0
  139.2466   76.2018  222.8319 H   0  0  0  0  0  0  0  0  0  0  0  0
  1  2  2  0
  2  3  1  0
  3  4  2  0
  4  5  1  0
  5  6  2  0
  5  7  1  0
  7  8  1  0
  8  9  1  0
  9 10  1  0
 10 11  2  0
 11 12  1  0
 12 13  1  0
 13 14  1  0
 14 15  1  0
 15 16  1  0
 16 17  1  0
 17 18  1  0
 18 19  1  0
 19 20  2  0
 20 21  1  0
 21 22  2  0
 22 23  1  0
 23 24  2  0
 24 25  1  0
 25 26  2  0
 12 27  2  0
 27 28  1  0
 28 29  1  0
 29 30  1  0
 30 31  1  0
 31 32  1  0
 32 33  2  0
 33 34  1  0
 34 35  2  0
 35 36  1  0
 36 37  2  0
 37 38  1  0
 28 39  2  0
  9 40  1  0
  6  1  1  0
 39 10  1  0
 40  4  1  0
 26 18  1  0
 38 29  1  0
 26 21  1  0
 37 32  1  0
  1 41  1  0
  2 42  1  0
  3 43  1  0
  6 44  1  0
  7 45  1  0
  7 46  1  0
  8 47  1  0
  8 48  1  0
 13 49  1  0
 14 50  1  0
 14 51  1  0
 15 52  1  0
 15 53  1  0
 16 54  1  0
 16 55  1  0
 17 56  1  0
 17 57  1  0
 19 58  1  0
 22 59  1  0
 23 60  1  0
 24 61  1  0
 25 62  1  0
 30 63  1  0
 30 64  1  0
 31 65  1  0
 31 66  1  0
 33 67  1  0
 34 68  1  0
 35 69  1  0
 36 70  1  0
 38 71  1  0
 38 72  1  0
 40 73  1  0
 40 74  1  0
M  END
>  <smiles>  (12) 
c1ccc2c(c1)CCN(c1nc(NCCCCn3cnc4ccccc43)nc(N3CCc4ccccc4C3)n1)C2

>  <score_type>  (12) 
oracle

>  <origin>  (12) 
autodockgpu

>  <m_score__min__energy>  (12) 
-11.42

>  <m_primary>  (12) 
energy

>  <rmsd>  (12) 
8.439234165183063

>  <m_score__min__rmsd>  (12) 
8.439234165183063

>  <meeko>  (12) 
{"free_energy": -9.8, "intermolecular_energy": -12.19, "internal_energy": -2.15, "cluster_size": 14, "cluster_id": 4, "rank_in_cluster": 2}

>  <energy>  (12) 
-10.54

>  <cluster_rmsd>  (12) 
1.88

>  <cluster>  (12) 
1

$$$$

     RDKit          3D

 74 80  0  0  0  0  0  0  0  0999 V2000
  141.8640   81.8340  222.7720 C   0  0  0  0  0  0  0  0  0  0  0  0
  141.3730   81.1660  223.8760 C   0  0  0  0  0  0  0  0  0  0  0  0
  140.8930   79.8730  223.7610 C   0  0  0  0  0  0  0  0  0  0  0  0
  140.9170   79.2680  222.5250 C   0  0  0  0  0  0  0  0  0  0  0  0
  141.4020   79.9090  221.3970 C   0  0  0  0  0  0  0  0  0  0  0  0
  141.8700   81.1940  221.5500 C   0  0  0  0  0  0  0  0  0  0  0  0
  141.4140   79.2270  220.0700 C   0  0  0  0  0  0  0  0  0  0  0  0
  141.7980   77.7840  220.2240 C   0  0  0  0  0  0  0  0  0  0  0  0
  141.0730   77.1450  221.3210 N   0  0  0  0  0  0  0  0  0  0  0  0
  141.0090   75.7170  221.3700 C   0  0  0  0  0  0  0  0  0  0  0  0
  139.9100   75.0770  221.8100 N   0  0  0  0  0  0  0  0  0  0  0  0
  139.8140   73.7460  221.8690 C   0  0  0  0  0  0  0  0  0  0  0  0
  138.6330   73.0800  222.3410 N   0  0  0  0  0  0  0  0  0  0  0  0
  138.1920   71.8220  221.8300 C   0  0  0  0  0  0  0  0  0  0  0  0
  139.3350   71.0170  221.2410 C   0  0  0  0  0  0  0  0  0  0  0  0
  139.5920   69.8430  222.1340 C   0  0  0  0  0  0  0  0  0  0  0  0
  138.5350   69.6360  223.1720 C   0  0  0  0  0  0  0  0  0  0  0  0
  139.1650   69.0530  224.3470 N   0  0  0  0  0  0  0  0  0  0  0  0
  139.2430   67.7330  224.6310 C   0  0  0  0  0  0  0  0  0  0  0  0
  139.8990   67.5920  225.8020 N   0  0  0  0  0  0  0  0  0  0  0  0
  140.2310   68.8360  226.2470 C   0  0  0  0  0  0  0  0  0  0  0  0
  140.9040   69.2230  227.3880 C   0  0  0  0  0  0  0  0  0  0  0  0
  141.1050   70.5940  227.5870 C   0  0  0  0  0  0  0  0  0  0  0  0
  140.6410   71.4910  226.6700 C   0  0  0  0  0  0  0  0  0  0  0  0
  139.9690   71.0970  225.5330 C   0  0  0  0  0  0  0  0  0  0  0  0
  139.7690   69.7610  225.3300 C   0  0  0  0  0  0  0  0  0  0  0  0
  140.9020   73.0440  221.4550 N   0  0  0  0  0  0  0  0  0  0  0  0
  142.0240   73.6220  221.0090 C   0  0  0  0  0  0  0  0  0  0  0  0
  143.1600   72.8650  220.5780 N   0  0  0  0  0  0  0  0  0  0  0  0
  144.1220   73.4750  219.6820 C   0  0  0  0  0  0  0  0  0  0  0  0
  145.4530   72.7320  219.8480 C   0  0  0  0  0  0  0  0  0  0  0  0
  145.1400   71.3180  219.4320 C   0  0  0  0  0  0  0  0  0  0  0  0
  145.9040   70.6870  218.4890 C   0  0  0  0  0  0  0  0  0  0  0  0
  145.5970   69.3910  218.1230 C   0  0  0  0  0  0  0  0  0  0  0  0
  144.5070   68.7770  218.7390 C   0  0  0  0  0  0  0  0  0  0  0  0
  143.7460   69.4460  219.6960 C   0  0  0  0  0  0  0  0  0  0  0  0
  144.0550   70.7410  220.0610 C   0  0  0  0  0  0  0  0  0  0  0  0
  143.2830   71.5070  221.0730 C   0  0  0  0  0  0  0  0  0  0  0  0
  142.0570   74.9730  220.9740 N   0  0  0  0  0  0  0  0  0  0  0  0
  140.4160   77.8970  222.3650 C   0  0  0  0  0  0  0  0  0  0  0  0
  142.2449   82.8617  222.8655 H   0  0  0  0  0  0  0  0  0  0  0  0
  141.3632   81.6659  224.8558 H   0  0  0  0  0  0  0  0  0  0  0  0
  140.5004   79.3398  224.6394 H   0  0  0  0  0  0  0  0  0  0  0  0
  142.2609   81.7272  220.6709 H   0  0  0  0  0  0  0  0  0  0  0  0
  140.4112   79.2889  219.6221 H   0  0  0  0  0  0  0  0  0  0  0  0
  142.1504   79.7238  219.4213 H   0  0  0  0  0  0  0  0  0  0  0  0
  141.5694   77.2526  219.2884 H   0  0  0  0  0  0  0  0  0  0  0  0
  142.8733   77.7380  220.4512 H   0  0  0  0  0  0  0  0  0  0  0  0
  138.0960   73.5460  223.0790 H   0  0  0  0  0  0  0  0  0  0  0  0
  137.7365   71.2458  222.6488 H   0  0  0  0  0  0  0  0  0  0  0  0
  137.4643   72.0165  221.0284 H   0  0  0  0  0  0  0  0  0  0  0  0
  139.0631   70.6663  220.2345 H   0  0  0  0  0  0  0  0  0  0  0  0
  140.2381   71.6404  221.1651 H   0  0  0  0  0  0  0  0  0  0  0  0
  139.6491   68.9383  221.5109 H   0  0  0  0  0  0  0  0  0  0  0  0
  140.5325   70.0442  222.6678 H   0  0  0  0  0  0  0  0  0  0  0  0
  138.0761   70.6006  223.4346 H   0  0  0  0  0  0  0  0  0  0  0  0
  137.7497   68.9678  222.7889 H   0  0  0  0  0  0  0  0  0  0  0  0
  138.8412   66.9156  224.0142 H   0  0  0  0  0  0  0  0  0  0  0  0
  141.2689   68.4817  228.1141 H   0  0  0  0  0  0  0  0  0  0  0  0
  141.6369   70.9478  228.4825 H   0  0  0  0  0  0  0  0  0  0  0  0
  140.8087   72.5642  226.8437 H   0  0  0  0  0  0  0  0  0  0  0  0
  139.6032   71.8390  224.8080 H   0  0  0  0  0  0  0  0  0  0  0  0
  143.7724   73.3889  218.6426 H   0  0  0  0  0  0  0  0  0  0  0  0
  144.2452   74.5421  219.9189 H   0  0  0  0  0  0  0  0  0  0  0  0
  146.2268   73.1676  219.1988 H   0  0  0  0  0  0  0  0  0  0  0  0
  145.8450   72.7929  220.8740 H   0  0  0  0  0  0  0  0  0  0  0  0
  146.7556   71.2072  218.0261 H   0  0  0  0  0  0  0  0  0  0  0  0
  146.1946   68.8590  217.3681 H   0  0  0  0  0  0  0  0  0  0  0  0
  144.2428   67.7451  218.4644 H   0  0  0  0  0  0  0  0  0  0  0  0
  142.8909   68.9372  220.1650 H   0  0  0  0  0  0  0  0  0  0  0  0
  142.2859   71.0613  221.2035 H   0  0  0  0  0  0  0  0  0  0  0  0
  143.7918   71.4905  222.0481 H   0  0  0  0  0  0  0  0  0  0  0  0
  139.3424   77.9471  222.1308 H   0  0  0  0  0  0  0  0  0  0  0  0
  140.6218   77.3727  223.3099 H   0  0  0  0  0  0  0  0  0  0  0  0
  1  2  2  0
  2  3  1  0
  3  4  2  0
  4  5  1  0
  5  6  2  0
  5  7  1  0
  7  8  1  0
  8  9  1  0
  9 10  1  0
 10 11  2  0
 11 12  1  0
 12 13  1  0
 13 14  1  0
 14 15  1  0
 15 16  1  0
 16 17  1  0
 17 18  1  0
 18 19  1  0
 19 20  2  0
 20 21  1  0
 21 22  2  0
 22 23  1  0
 23 24  2  0
 24 25  1  0
 25 26  2  0
 12 27  2  0
 27 28  1  0
 28 29  1  0
 29 30  1  0
 30 31  1  0
 31 32  1  0
 32 33  2  0
 33 34  1  0
 34 35  2  0
 35 36  1  0
 36 37  2  0
 37 38  1  0
 28 39  2  0
  9 40  1  0
  6  1  1  0
 39 10  1  0
 40  4  1  0
 26 18  1  0
 38 29  1  0
 26 21  1  0
 37 32  1  0
  1 41  1  0
  2 42  1  0
  3 43  1  0
  6 44  1  0
  7 45  1  0
  7 46  1  0
  8 47  1  0
  8 48  1  0
 13 49  1  0
 14 50  1  0
 14 51  1  0
 15 52  1  0
 15 53  1  0
 16 54  1  0
 16 55  1  0
 17 56  1  0
 17 57  1  0
 19 58  1  0
 22 59  1  0
 23 60  1  0
 24 61  1  0
 25 62  1  0
 30 63  1  0
 30 64  1  0
 31 65  1  0
 31 66  1  0
 33 67  1  0
 34 68  1  0
 35 69  1  0
 36 70  1  0
 38 71  1  0
 38 72  1  0
 40 73  1  0
 40 74  1  0
M  END
>  <smiles>  (13) 
c1ccc2c(c1)CCN(c1nc(NCCCCn3cnc4ccccc43)nc(N3CCc4ccccc4C3)n1)C2

>  <score_type>  (13) 
oracle

>  <origin>  (13) 
autodockgpu

>  <m_score__min__energy>  (13) 
-11.42

>  <m_primary>  (13) 
energy

>  <rmsd>  (13) 
5.174522846136826

>  <m_score__min__rmsd>  (13) 
5.174522846136826

>  <meeko>  (13) 
{"free_energy": -10.34, "intermolecular_energy": -12.73, "internal_energy": -1.14, "cluster_size": 18, "cluster_id": 1, "rank_in_cluster": 14}

>  <energy>  (13) 
-10.42

>  <cluster_rmsd>  (13) 
1.47

>  <cluster>  (13) 
1

$$$$

     RDKit          3D

 74 80  0  0  0  0  0  0  0  0999 V2000
  141.4820   80.2350  221.6450 C   0  0  0  0  0  0  0  0  0  0  0  0
  141.9370   79.6620  222.8150 C   0  0  0  0  0  0  0  0  0  0  0  0
  141.6470   78.3420  223.1120 C   0  0  0  0  0  0  0  0  0  0  0  0
  140.8970   77.6140  222.2170 C   0  0  0  0  0  0  0  0  0  0  0  0
  140.4240   78.1570  221.0340 C   0  0  0  0  0  0  0  0  0  0  0  0
  140.7320   79.4730  220.7730 C   0  0  0  0  0  0  0  0  0  0  0  0
  139.6120   77.3430  220.0840 C   0  0  0  0  0  0  0  0  0  0  0  0
  140.1500   75.9450  219.9960 C   0  0  0  0  0  0  0  0  0  0  0  0
  140.4280   75.3880  221.3200 N   0  0  0  0  0  0  0  0  0  0  0  0
  140.5660   73.9710  221.4600 C   0  0  0  0  0  0  0  0  0  0  0  0
  140.9000   73.1900  220.4170 N   0  0  0  0  0  0  0  0  0  0  0  0
  141.0380   71.8650  220.5110 C   0  0  0  0  0  0  0  0  0  0  0  0
  141.3950   71.0470  219.3850 N   0  0  0  0  0  0  0  0  0  0  0  0
  141.7520   69.6700  219.5060 C   0  0  0  0  0  0  0  0  0  0  0  0
  143.1560   69.4000  218.9990 C   0  0  0  0  0  0  0  0  0  0  0  0
  144.1210   70.1450  219.8680 C   0  0  0  0  0  0  0  0  0  0  0  0
  145.0530   71.0330  219.1050 C   0  0  0  0  0  0  0  0  0  0  0  0
  145.0650   72.3360  219.7530 N   0  0  0  0  0  0  0  0  0  0  0  0
  145.7880   72.6710  220.8450 C   0  0  0  0  0  0  0  0  0  0  0  0
  145.5310   73.9620  221.1410 N   0  0  0  0  0  0  0  0  0  0  0  0
  144.6400   74.4310  220.2240 C   0  0  0  0  0  0  0  0  0  0  0  0
  144.0690   75.6810  220.0960 C   0  0  0  0  0  0  0  0  0  0  0  0
  143.1720   75.8770  219.0390 C   0  0  0  0  0  0  0  0  0  0  0  0
  142.8920   74.8520  218.1830 C   0  0  0  0  0  0  0  0  0  0  0  0
  143.4670   73.6070  218.3170 C   0  0  0  0  0  0  0  0  0  0  0  0
  144.3430   73.4070  219.3450 C   0  0  0  0  0  0  0  0  0  0  0  0
  140.8240   71.3220  221.7380 N   0  0  0  0  0  0  0  0  0  0  0  0
  140.4890   72.0450  222.8140 C   0  0  0  0  0  0  0  0  0  0  0  0
  140.2660   71.4530  224.0980 N   0  0  0  0  0  0  0  0  0  0  0  0
  141.0890   71.8600  225.2200 C   0  0  0  0  0  0  0  0  0  0  0  0
  140.3100   71.5590  226.5050 C   0  0  0  0  0  0  0  0  0  0  0  0
  140.1210   70.0650  226.4810 C   0  0  0  0  0  0  0  0  0  0  0  0
  140.4840   69.3010  227.5560 C   0  0  0  0  0  0  0  0  0  0  0  0
  140.3020   67.9330  227.5100 C   0  0  0  0  0  0  0  0  0  0  0  0
  139.7500   67.3840  226.3530 C   0  0  0  0  0  0  0  0  0  0  0  0
  139.3910   68.1870  225.2730 C   0  0  0  0  0  0  0  0  0  0  0  0
  139.5730   69.5540  225.3210 C   0  0  0  0  0  0  0  0  0  0  0  0
  139.2110   70.4640  224.2020 C   0  0  0  0  0  0  0  0  0  0  0  0
  140.3640   73.3800  222.6520 N   0  0  0  0  0  0  0  0  0  0  0  0
  140.5690   76.2100  222.4990 C   0  0  0  0  0  0  0  0  0  0  0  0
  141.7140   81.2845  221.4109 H   0  0  0  0  0  0  0  0  0  0  0  0
  142.5356   80.2600  223.5179 H   0  0  0  0  0  0  0  0  0  0  0  0
  142.0086   77.8840  224.0445 H   0  0  0  0  0  0  0  0  0  0  0  0
  140.3692   79.9310  219.8410 H   0  0  0  0  0  0  0  0  0  0  0  0
  138.5704   77.3084  220.4358 H   0  0  0  0  0  0  0  0  0  0  0  0
  139.6608   77.8061  219.0874 H   0  0  0  0  0  0  0  0  0  0  0  0
  139.4087   75.3089  219.4901 H   0  0  0  0  0  0  0  0  0  0  0  0
  141.0937   75.9756  219.4317 H   0  0  0  0  0  0  0  0  0  0  0  0
  141.3870   71.4920  218.4630 H   0  0  0  0  0  0  0  0  0  0  0  0
  141.6953   69.3803  220.5656 H   0  0  0  0  0  0  0  0  0  0  0  0
  141.0513   69.0825  218.8946 H   0  0  0  0  0  0  0  0  0  0  0  0
  143.3679   68.3217  219.0473 H   0  0  0  0  0  0  0  0  0  0  0  0
  143.2522   69.7319  217.9547 H   0  0  0  0  0  0  0  0  0  0  0  0
  143.5472   70.7660  220.5717 H   0  0  0  0  0  0  0  0  0  0  0  0
  144.7393   69.3935  220.3808 H   0  0  0  0  0  0  0  0  0  0  0  0
  146.0658   70.6039  219.1109 H   0  0  0  0  0  0  0  0  0  0  0  0
  144.7201   71.1288  218.0609 H   0  0  0  0  0  0  0  0  0  0  0  0
  146.4684   72.0059  221.3970 H   0  0  0  0  0  0  0  0  0  0  0  0
  144.3096   76.4929  220.7981 H   0  0  0  0  0  0  0  0  0  0  0  0
  142.6930   76.8572  218.8987 H   0  0  0  0  0  0  0  0  0  0  0  0
  142.1841   75.0252  217.3590 H   0  0  0  0  0  0  0  0  0  0  0  0
  143.2266   72.7956  217.6143 H   0  0  0  0  0  0  0  0  0  0  0  0
  142.0341   71.2971  225.2146 H   0  0  0  0  0  0  0  0  0  0  0  0
  141.3242   72.9326  225.1552 H   0  0  0  0  0  0  0  0  0  0  0  0
  140.8856   71.8653  227.3910 H   0  0  0  0  0  0  0  0  0  0  0  0
  139.3557   72.1037  226.5566 H   0  0  0  0  0  0  0  0  0  0  0  0
  140.9175   69.7727  228.4502 H   0  0  0  0  0  0  0  0  0  0  0  0
  140.5841   67.2952  228.3607 H   0  0  0  0  0  0  0  0  0  0  0  0
  139.5952   66.2966  226.2922 H   0  0  0  0  0  0  0  0  0  0  0  0
  138.9580   67.7267  224.3726 H   0  0  0  0  0  0  0  0  0  0  0  0
  139.1330   69.8955  223.2635 H   0  0  0  0  0  0  0  0  0  0  0  0
  138.2398   70.9458  224.3879 H   0  0  0  0  0  0  0  0  0  0  0  0
  139.6202   76.1821  223.0548 H   0  0  0  0  0  0  0  0  0  0  0  0
  141.4112   75.7974  223.0739 H   0  0  0  0  0  0  0  0  0  0  0  0
  1  2  2  0
  2  3  1  0
  3  4  2  0
  4  5  1  0
  5  6  2  0
  5  7  1  0
  7  8  1  0
  8  9  1  0
  9 10  1  0
 10 11  2  0
 11 12  1  0
 12 13  1  0
 13 14  1  0
 14 15  1  0
 15 16  1  0
 16 17  1  0
 17 18  1  0
 18 19  1  0
 19 20  2  0
 20 21  1  0
 21 22  2  0
 22 23  1  0
 23 24  2  0
 24 25  1  0
 25 26  2  0
 12 27  2  0
 27 28  1  0
 28 29  1  0
 29 30  1  0
 30 31  1  0
 31 32  1  0
 32 33  2  0
 33 34  1  0
 34 35  2  0
 35 36  1  0
 36 37  2  0
 37 38  1  0
 28 39  2  0
  9 40  1  0
  6  1  1  0
 39 10  1  0
 40  4  1  0
 26 18  1  0
 38 29  1  0
 26 21  1  0
 37 32  1  0
  1 41  1  0
  2 42  1  0
  3 43  1  0
  6 44  1  0
  7 45  1  0
  7 46  1  0
  8 47  1  0
  8 48  1  0
 13 49  1  0
 14 50  1  0
 14 51  1  0
 15 52  1  0
 15 53  1  0
 16 54  1  0
 16 55  1  0
 17 56  1  0
 17 57  1  0
 19 58  1  0
 22 59  1  0
 23 60  1  0
 24 61  1  0
 25 62  1  0
 30 63  1  0
 30 64  1  0
 31 65  1  0
 31 66  1  0
 33 67  1  0
 34 68  1  0
 35 69  1  0
 36 70  1  0
 38 71  1  0
 38 72  1  0
 40 73  1  0
 40 74  1  0
M  END
>  <smiles>  (14) 
c1ccc2c(c1)CCN(c1nc(NCCCCn3cnc4ccccc43)nc(N3CCc4ccccc4C3)n1)C2

>  <score_type>  (14) 
oracle

>  <origin>  (14) 
autodockgpu

>  <m_score__min__energy>  (14) 
-11.42

>  <m_primary>  (14) 
energy

>  <rmsd>  (14) 
8.655843551313604

>  <m_score__min__rmsd>  (14) 
8.655843551313604

>  <meeko>  (14) 
{"free_energy": -9.27, "intermolecular_energy": -11.66, "internal_energy": -2.69, "cluster_size": 14, "cluster_id": 4, "rank_in_cluster": 9}

>  <energy>  (14) 
-10.34

>  <cluster_rmsd>  (14) 
0.9

>  <cluster>  (14) 
1

$$$$

     RDKit          3D

 74 80  0  0  0  0  0  0  0  0999 V2000
  142.2120   81.3240  222.6820 C   0  0  0  0  0  0  0  0  0  0  0  0
  142.1610   80.6200  223.8690 C   0  0  0  0  0  0  0  0  0  0  0  0
  141.7340   79.3040  223.8890 C   0  0  0  0  0  0  0  0  0  0  0  0
  141.3620   78.7120  222.7030 C   0  0  0  0  0  0  0  0  0  0  0  0
  141.4010   79.3880  221.4950 C   0  0  0  0  0  0  0  0  0  0  0  0
  141.8310   80.6950  221.5140 C   0  0  0  0  0  0  0  0  0  0  0  0
  140.9920   78.7200  220.2260 C   0  0  0  0  0  0  0  0  0  0  0  0
  141.4740   77.2990  220.2000 C   0  0  0  0  0  0  0  0  0  0  0  0
  141.2000   76.6120  221.4620 N   0  0  0  0  0  0  0  0  0  0  0  0
  141.2250   75.1820  221.4910 C   0  0  0  0  0  0  0  0  0  0  0  0
  140.2430   74.4720  222.0770 N   0  0  0  0  0  0  0  0  0  0  0  0
  140.2340   73.1380  222.1230 C   0  0  0  0  0  0  0  0  0  0  0  0
  139.1760   72.3970  222.7530 N   0  0  0  0  0  0  0  0  0  0  0  0
  138.4480   71.3640  222.0890 C   0  0  0  0  0  0  0  0  0  0  0  0
  139.0730   69.9990  222.3070 C   0  0  0  0  0  0  0  0  0  0  0  0
  138.4250   69.3700  223.5010 C   0  0  0  0  0  0  0  0  0  0  0  0
  139.2110   68.2360  224.0810 C   0  0  0  0  0  0  0  0  0  0  0  0
  139.5210   68.5650  225.4650 N   0  0  0  0  0  0  0  0  0  0  0  0
  139.2950   67.7730  226.5360 C   0  0  0  0  0  0  0  0  0  0  0  0
  139.7160   68.4260  227.6400 N   0  0  0  0  0  0  0  0  0  0  0  0
  140.2080   69.6340  227.2470 C   0  0  0  0  0  0  0  0  0  0  0  0
  140.7520   70.6590  227.9940 C   0  0  0  0  0  0  0  0  0  0  0  0
  141.1810   71.8020  227.3080 C   0  0  0  0  0  0  0  0  0  0  0  0
  141.0510   71.8720  225.9520 C   0  0  0  0  0  0  0  0  0  0  0  0
  140.5060   70.8450  225.2130 C   0  0  0  0  0  0  0  0  0  0  0  0
  140.0860   69.7250  225.8730 C   0  0  0  0  0  0  0  0  0  0  0  0
  141.2850   72.5060  221.5380 N   0  0  0  0  0  0  0  0  0  0  0  0
  142.2920   73.1550  220.9400 C   0  0  0  0  0  0  0  0  0  0  0  0
  143.3920   72.4720  220.3300 N   0  0  0  0  0  0  0  0  0  0  0  0
  144.1190   73.1150  219.2540 C   0  0  0  0  0  0  0  0  0  0  0  0
  145.5170   72.4880  219.1930 C   0  0  0  0  0  0  0  0  0  0  0  0
  145.2560   71.0370  218.8830 C   0  0  0  0  0  0  0  0  0  0  0  0
  145.8880   70.4260  217.8350 C   0  0  0  0  0  0  0  0  0  0  0  0
  145.6320   69.0950  217.5700 C   0  0  0  0  0  0  0  0  0  0  0  0
  144.7290   68.4250  218.3940 C   0  0  0  0  0  0  0  0  0  0  0  0
  144.1000   69.0740  219.4550 C   0  0  0  0  0  0  0  0  0  0  0  0
  144.3570   70.4040  219.7190 C   0  0  0  0  0  0  0  0  0  0  0  0
  143.7190   71.1510  220.8330 C   0  0  0  0  0  0  0  0  0  0  0  0
  142.2420   74.5050  220.9280 N   0  0  0  0  0  0  0  0  0  0  0  0
  140.9040   77.3170  222.6870 C   0  0  0  0  0  0  0  0  0  0  0  0
  142.5512   82.3703  222.6676 H   0  0  0  0  0  0  0  0  0  0  0  0
  142.4624   81.1097  224.8067 H   0  0  0  0  0  0  0  0  0  0  0  0
  141.6926   78.7420  224.8337 H   0  0  0  0  0  0  0  0  0  0  0  0
  141.8724   81.2561  220.5688 H   0  0  0  0  0  0  0  0  0  0  0  0
  139.8948   78.7314  220.1484 H   0  0  0  0  0  0  0  0  0  0  0  0
  141.4381   79.2621  219.3792 H   0  0  0  0  0  0  0  0  0  0  0  0
  140.9641   76.7644  219.3850 H   0  0  0  0  0  0  0  0  0  0  0  0
  142.5629   77.3089  220.0441 H   0  0  0  0  0  0  0  0  0  0  0  0
  138.9510   72.6370  223.7230 H   0  0  0  0  0  0  0  0  0  0  0  0
  137.4186   71.3494  222.4765 H   0  0  0  0  0  0  0  0  0  0  0  0
  138.4636   71.5767  221.0099 H   0  0  0  0  0  0  0  0  0  0  0  0
  138.9093   69.3692  221.4202 H   0  0  0  0  0  0  0  0  0  0  0  0
  140.1557   70.1003  222.4730 H   0  0  0  0  0  0  0  0  0  0  0  0
  138.3022   70.1405  224.2764 H   0  0  0  0  0  0  0  0  0  0  0  0
  137.4622   68.9571  223.1656 H   0  0  0  0  0  0  0  0  0  0  0  0
  138.6168   67.3111  224.0412 H   0  0  0  0  0  0  0  0  0  0  0  0
  140.1373   68.0808  223.5084 H   0  0  0  0  0  0  0  0  0  0  0  0
  138.8455   66.7693  226.5125 H   0  0  0  0  0  0  0  0  0  0  0  0
  140.8451   70.5811  229.0873 H   0  0  0  0  0  0  0  0  0  0  0  0
  141.6227   72.6431  227.8625 H   0  0  0  0  0  0  0  0  0  0  0  0
  141.3927   72.7787  225.4312 H   0  0  0  0  0  0  0  0  0  0  0  0
  140.4115   70.9247  224.1200 H   0  0  0  0  0  0  0  0  0  0  0  0
  143.5950   72.9547  218.3002 H   0  0  0  0  0  0  0  0  0  0  0  0
  144.1910   74.1981  219.4323 H   0  0  0  0  0  0  0  0  0  0  0  0
  146.1198   72.9544  218.3999 H   0  0  0  0  0  0  0  0  0  0  0  0
  146.0822   72.6251  220.1267 H   0  0  0  0  0  0  0  0  0  0  0  0
  146.5944   70.9902  217.2084 H   0  0  0  0  0  0  0  0  0  0  0  0
  146.1260   68.5789  216.7336 H   0  0  0  0  0  0  0  0  0  0  0  0
  144.5088   67.3643  218.2033 H   0  0  0  0  0  0  0  0  0  0  0  0
  143.3914   68.5204  220.0885 H   0  0  0  0  0  0  0  0  0  0  0  0
  142.8041   70.6342  221.1584 H   0  0  0  0  0  0  0  0  0  0  0  0
  144.3962   71.2182  221.6972 H   0  0  0  0  0  0  0  0  0  0  0  0
  139.8140   77.3098  222.8347 H   0  0  0  0  0  0  0  0  0  0  0  0
  141.4457   76.7967  223.4906 H   0  0  0  0  0  0  0  0  0  0  0  0
  1  2  2  0
  2  3  1  0
  3  4  2  0
  4  5  1  0
  5  6  2  0
  5  7  1  0
  7  8  1  0
  8  9  1  0
  9 10  1  0
 10 11  2  0
 11 12  1  0
 12 13  1  0
 13 14  1  0
 14 15  1  0
 15 16  1  0
 16 17  1  0
 17 18  1  0
 18 19  1  0
 19 20  2  0
 20 21  1  0
 21 22  2  0
 22 23  1  0
 23 24  2  0
 24 25  1  0
 25 26  2  0
 12 27  2  0
 27 28  1  0
 28 29  1  0
 29 30  1  0
 30 31  1  0
 31 32  1  0
 32 33  2  0
 33 34  1  0
 34 35  2  0
 35 36  1  0
 36 37  2  0
 37 38  1  0
 28 39  2  0
  9 40  1  0
  6  1  1  0
 39 10  1  0
 40  4  1  0
 26 18  1  0
 38 29  1  0
 26 21  1  0
 37 32  1  0
  1 41  1  0
  2 42  1  0
  3 43  1  0
  6 44  1  0
  7 45  1  0
  7 46  1  0
  8 47  1  0
  8 48  1  0
 13 49  1  0
 14 50  1  0
 14 51  1  0
 15 52  1  0
 15 53  1  0
 16 54  1  0
 16 55  1  0
 17 56  1  0
 17 57  1  0
 19 58  1  0
 22 59  1  0
 23 60  1  0
 24 61  1  0
 25 62  1  0
 30 63  1  0
 30 64  1  0
 31 65  1  0
 31 66  1  0
 33 67  1  0
 34 68  1  0
 35 69  1  0
 36 70  1  0
 38 71  1  0
 38 72  1  0
 40 73  1  0
 40 74  1  0
M  END
>  <smiles>  (15) 
c1ccc2c(c1)CCN(c1nc(NCCCCn3cnc4ccccc43)nc(N3CCc4ccccc4C3)n1)C2

>  <score_type>  (15) 
oracle

>  <origin>  (15) 
autodockgpu

>  <m_score__min__energy>  (15) 
-11.42

>  <m_primary>  (15) 
energy

>  <rmsd>  (15) 
5.289158566413618

>  <m_score__min__rmsd>  (15) 
5.289158566413618

>  <meeko>  (15) 
{"free_energy": -10.94, "intermolecular_energy": -13.32, "internal_energy": -1.41, "cluster_size": 18, "cluster_id": 1, "rank_in_cluster": 5}

>  <energy>  (15) 
-10.25

>  <cluster_rmsd>  (15) 
1.3

>  <cluster>  (15) 
1

$$$$

     RDKit          3D

 74 80  0  0  0  0  0  0  0  0999 V2000
  139.8150   70.3170  228.2630 C   0  0  0  0  0  0  0  0  0  0  0  0
  140.7430   71.3330  228.1530 C   0  0  0  0  0  0  0  0  0  0  0  0
  141.1550   71.7790  226.9090 C   0  0  0  0  0  0  0  0  0  0  0  0
  140.6190   71.1900  225.7870 C   0  0  0  0  0  0  0  0  0  0  0  0
  139.6860   70.1690  225.8600 C   0  0  0  0  0  0  0  0  0  0  0  0
  139.3010   69.7510  227.1140 C   0  0  0  0  0  0  0  0  0  0  0  0
  139.1230   69.5500  224.6250 C   0  0  0  0  0  0  0  0  0  0  0  0
  138.8720   70.5970  223.5800 C   0  0  0  0  0  0  0  0  0  0  0  0
  140.0080   71.5060  223.4400 N   0  0  0  0  0  0  0  0  0  0  0  0
  140.1170   72.3020  222.2560 C   0  0  0  0  0  0  0  0  0  0  0  0
  140.1830   71.7410  221.0350 N   0  0  0  0  0  0  0  0  0  0  0  0
  140.2840   72.4520  219.9090 C   0  0  0  0  0  0  0  0  0  0  0  0
  140.3530   71.8360  218.6130 N   0  0  0  0  0  0  0  0  0  0  0  0
  140.0110   70.4690  218.3830 C   0  0  0  0  0  0  0  0  0  0  0  0
  141.2350   69.6160  218.1110 C   0  0  0  0  0  0  0  0  0  0  0  0
  142.3870   70.1880  218.8760 C   0  0  0  0  0  0  0  0  0  0  0  0
  143.5950   70.4530  218.0340 C   0  0  0  0  0  0  0  0  0  0  0  0
  144.5360   71.2310  218.8260 N   0  0  0  0  0  0  0  0  0  0  0  0
  145.7610   70.8240  219.2260 C   0  0  0  0  0  0  0  0  0  0  0  0
  146.3260   71.8220  219.9380 N   0  0  0  0  0  0  0  0  0  0  0  0
  145.4410   72.8570  219.9800 C   0  0  0  0  0  0  0  0  0  0  0  0
  145.5460   74.0940  220.5810 C   0  0  0  0  0  0  0  0  0  0  0  0
  144.4600   74.9690  220.4560 C   0  0  0  0  0  0  0  0  0  0  0  0
  143.3520   74.5850  219.7590 C   0  0  0  0  0  0  0  0  0  0  0  0
  143.2540   73.3470  219.1620 C   0  0  0  0  0  0  0  0  0  0  0  0
  144.3090   72.4870  219.2780 C   0  0  0  0  0  0  0  0  0  0  0  0
  140.3190   73.8030  220.0500 N   0  0  0  0  0  0  0  0  0  0  0  0
  140.2580   74.4210  221.2370 C   0  0  0  0  0  0  0  0  0  0  0  0
  140.2970   75.8460  221.3650 N   0  0  0  0  0  0  0  0  0  0  0  0
  140.3820   76.6640  220.1720 C   0  0  0  0  0  0  0  0  0  0  0  0
  139.8330   78.0540  220.5170 C   0  0  0  0  0  0  0  0  0  0  0  0
  140.7590   78.5590  221.5920 C   0  0  0  0  0  0  0  0  0  0  0  0
  141.3590   79.7820  221.4730 C   0  0  0  0  0  0  0  0  0  0  0  0
  142.2050   80.2240  222.4720 C   0  0  0  0  0  0  0  0  0  0  0  0
  142.4130   79.3910  223.5700 C   0  0  0  0  0  0  0  0  0  0  0  0
  141.7880   78.1490  223.6640 C   0  0  0  0  0  0  0  0  0  0  0  0
  140.9430   77.7090  222.6650 C   0  0  0  0  0  0  0  0  0  0  0  0
  140.2480   76.3960  222.7060 C   0  0  0  0  0  0  0  0  0  0  0  0
  140.1570   73.6440  222.3370 N   0  0  0  0  0  0  0  0  0  0  0  0
  141.0320   71.6370  224.4500 C   0  0  0  0  0  0  0  0  0  0  0  0
  139.4898   69.9635  229.2526 H   0  0  0  0  0  0  0  0  0  0  0  0
  141.1588   71.7923  229.0619 H   0  0  0  0  0  0  0  0  0  0  0  0
  141.8955   72.5875  226.8193 H   0  0  0  0  0  0  0  0  0  0  0  0
  138.5615   68.9416  227.2028 H   0  0  0  0  0  0  0  0  0  0  0  0
  139.8370   68.8109  224.2327 H   0  0  0  0  0  0  0  0  0  0  0  0
  138.1699   69.0610  224.8748 H   0  0  0  0  0  0  0  0  0  0  0  0
  138.6916   70.1010  222.6149 H   0  0  0  0  0  0  0  0  0  0  0  0
  137.9972   71.1874  223.8901 H   0  0  0  0  0  0  0  0  0  0  0  0
  140.6620   72.4220  217.8330 H   0  0  0  0  0  0  0  0  0  0  0  0
  139.4954   70.0773  219.2722 H   0  0  0  0  0  0  0  0  0  0  0  0
  139.3621   70.4254  217.4959 H   0  0  0  0  0  0  0  0  0  0  0  0
  141.0480   68.5825  218.4380 H   0  0  0  0  0  0  0  0  0  0  0  0
  141.4609   69.6104  217.0345 H   0  0  0  0  0  0  0  0  0  0  0  0
  142.0654   71.1367  219.3305 H   0  0  0  0  0  0  0  0  0  0  0  0
  142.6770   69.4397  219.6283 H   0  0  0  0  0  0  0  0  0  0  0  0
  144.0573   69.5007  217.7349 H   0  0  0  0  0  0  0  0  0  0  0  0
  143.3128   71.0057  217.1258 H   0  0  0  0  0  0  0  0  0  0  0  0
  146.2188   69.8477  219.0088 H   0  0  0  0  0  0  0  0  0  0  0  0
  146.4496   74.3825  221.1380 H   0  0  0  0  0  0  0  0  0  0  0  0
  144.5003   75.9657  220.9197 H   0  0  0  0  0  0  0  0  0  0  0  0
  142.5093   75.2865  219.6707 H   0  0  0  0  0  0  0  0  0  0  0  0
  142.3495   73.0586  218.6063 H   0  0  0  0  0  0  0  0  0  0  0  0
  141.4300   76.7454  219.8479 H   0  0  0  0  0  0  0  0  0  0  0  0
  139.8004   76.2130  219.3545 H   0  0  0  0  0  0  0  0  0  0  0  0
  139.8597   78.7137  219.6372 H   0  0  0  0  0  0  0  0  0  0  0  0
  138.7833   78.0237  220.8444 H   0  0  0  0  0  0  0  0  0  0  0  0
  141.1697   80.4088  220.5891 H   0  0  0  0  0  0  0  0  0  0  0  0
  142.6996   81.2041  222.4028 H   0  0  0  0  0  0  0  0  0  0  0  0
  143.0832   79.7202  224.3777 H   0  0  0  0  0  0  0  0  0  0  0  0
  141.9698   77.5130  224.5429 H   0  0  0  0  0  0  0  0  0  0  0  0
  140.7575   75.7211  223.4095 H   0  0  0  0  0  0  0  0  0  0  0  0
  139.2076   76.5139  223.0432 H   0  0  0  0  0  0  0  0  0  0  0  0
  141.9014   71.0390  224.1395 H   0  0  0  0  0  0  0  0  0  0  0  0
  141.2603   72.7099  224.5317 H   0  0  0  0  0  0  0  0  0  0  0  0
  1  2  2  0
  2  3  1  0
  3  4  2  0
  4  5  1  0
  5  6  2  0
  5  7  1  0
  7  8  1  0
  8  9  1  0
  9 10  1  0
 10 11  2  0
 11 12  1  0
 12 13  1  0
 13 14  1  0
 14 15  1  0
 15 16  1  0
 16 17  1  0
 17 18  1  0
 18 19  1  0
 19 20  2  0
 20 21  1  0
 21 22  2  0
 22 23  1  0
 23 24  2  0
 24 25  1  0
 25 26  2  0
 12 27  2  0
 27 28  1  0
 28 29  1  0
 29 30  1  0
 30 31  1  0
 31 32  1  0
 32 33  2  0
 33 34  1  0
 34 35  2  0
 35 36  1  0
 36 37  2  0
 37 38  1  0
 28 39  2  0
  9 40  1  0
  6  1  1  0
 39 10  1  0
 40  4  1  0
 26 18  1  0
 38 29  1  0
 26 21  1  0
 37 32  1  0
  1 41  1  0
  2 42  1  0
  3 43  1  0
  6 44  1  0
  7 45  1  0
  7 46  1  0
  8 47  1  0
  8 48  1  0
 13 49  1  0
 14 50  1  0
 14 51  1  0
 15 52  1  0
 15 53  1  0
 16 54  1  0
 16 55  1  0
 17 56  1  0
 17 57  1  0
 19 58  1  0
 22 59  1  0
 23 60  1  0
 24 61  1  0
 25 62  1  0
 30 63  1  0
 30 64  1  0
 31 65  1  0
 31 66  1  0
 33 67  1  0
 34 68  1  0
 35 69  1  0
 36 70  1  0
 38 71  1  0
 38 72  1  0
 40 73  1  0
 40 74  1  0
M  END
>  <smiles>  (16) 
c1ccc2c(c1)CCN(c1nc(NCCCCn3cnc4ccccc43)nc(N3CCc4ccccc4C3)n1)C2

>  <score_type>  (16) 
oracle

>  <origin>  (16) 
autodockgpu

>  <m_score__min__energy>  (16) 
-11.42

>  <m_primary>  (16) 
energy

>  <rmsd>  (16) 
8.587712578604236

>  <m_score__min__rmsd>  (16) 
8.587712578604236

>  <meeko>  (16) 
{"free_energy": -9.43, "intermolecular_energy": -11.81, "internal_energy": -2.15, "cluster_size": 14, "cluster_id": 4, "rank_in_cluster": 5}

>  <energy>  (16) 
-10.2

>  <cluster_rmsd>  (16) 
1.61

>  <cluster>  (16) 
1

$$$$

     RDKit          3D

 74 80  0  0  0  0  0  0  0  0999 V2000
  141.4470   81.8590  222.7520 C   0  0  0  0  0  0  0  0  0  0  0  0
  142.5630   81.0540  222.6390 C   0  0  0  0  0  0  0  0  0  0  0  0
  142.4540   79.6790  222.7480 C   0  0  0  0  0  0  0  0  0  0  0  0
  141.2100   79.1320  222.9700 C   0  0  0  0  0  0  0  0  0  0  0  0
  140.0700   79.9090  223.0880 C   0  0  0  0  0  0  0  0  0  0  0  0
  140.2180   81.2730  222.9740 C   0  0  0  0  0  0  0  0  0  0  0  0
  138.7360   79.2860  223.3280 C   0  0  0  0  0  0  0  0  0  0  0  0
  138.5920   78.0250  222.5280 C   0  0  0  0  0  0  0  0  0  0  0  0
  139.7790   77.1770  222.6360 N   0  0  0  0  0  0  0  0  0  0  0  0
  139.6780   75.7960  222.2790 C   0  0  0  0  0  0  0  0  0  0  0  0
  138.5010   75.1460  222.3070 N   0  0  0  0  0  0  0  0  0  0  0  0
  138.3690   73.8580  221.9790 C   0  0  0  0  0  0  0  0  0  0  0  0
  137.1030   73.1800  222.0140 N   0  0  0  0  0  0  0  0  0  0  0  0
  136.9790   71.7740  222.2230 C   0  0  0  0  0  0  0  0  0  0  0  0
  137.7350   71.3130  223.4550 C   0  0  0  0  0  0  0  0  0  0  0  0
  138.1260   69.8810  223.2600 C   0  0  0  0  0  0  0  0  0  0  0  0
  139.6040   69.6520  223.3010 C   0  0  0  0  0  0  0  0  0  0  0  0
  140.1220   70.2720  224.5130 N   0  0  0  0  0  0  0  0  0  0  0  0
  140.6360   71.5190  224.6070 C   0  0  0  0  0  0  0  0  0  0  0  0
  141.0080   71.7260  225.8870 N   0  0  0  0  0  0  0  0  0  0  0  0
  140.7200   70.5970  226.5930 C   0  0  0  0  0  0  0  0  0  0  0  0
  140.9090   70.3100  227.9300 C   0  0  0  0  0  0  0  0  0  0  0  0
  140.5120   69.0460  228.3830 C   0  0  0  0  0  0  0  0  0  0  0  0
  139.9620   68.1520  227.5120 C   0  0  0  0  0  0  0  0  0  0  0  0
  139.7770   68.4450  226.1780 C   0  0  0  0  0  0  0  0  0  0  0  0
  140.1610   69.6760  225.7270 C   0  0  0  0  0  0  0  0  0  0  0  0
  139.5050   73.2110  221.6050 N   0  0  0  0  0  0  0  0  0  0  0  0
  140.7060   73.8020  221.5580 C   0  0  0  0  0  0  0  0  0  0  0  0
  141.8910   73.1040  221.1620 N   0  0  0  0  0  0  0  0  0  0  0  0
  142.9980   73.8480  220.5960 C   0  0  0  0  0  0  0  0  0  0  0  0
  144.2730   73.0230  220.8090 C   0  0  0  0  0  0  0  0  0  0  0  0
  144.0220   71.7520  220.0420 C   0  0  0  0  0  0  0  0  0  0  0  0
  144.9300   71.3060  219.1210 C   0  0  0  0  0  0  0  0  0  0  0  0
  144.6770   70.1370  218.4290 C   0  0  0  0  0  0  0  0  0  0  0  0
  143.4920   69.4570  218.7040 C   0  0  0  0  0  0  0  0  0  0  0  0
  142.5850   69.9360  219.6480 C   0  0  0  0  0  0  0  0  0  0  0  0
  142.8390   71.1040  220.3380 C   0  0  0  0  0  0  0  0  0  0  0  0
  141.9130   71.6660  221.3550 C   0  0  0  0  0  0  0  0  0  0  0  0
  140.7710   75.1070  221.9020 N   0  0  0  0  0  0  0  0  0  0  0  0
  141.0560   77.6760  223.0900 C   0  0  0  0  0  0  0  0  0  0  0  0
  141.5366   82.9520  222.6662 H   0  0  0  0  0  0  0  0  0  0  0  0
  143.5480   81.5101  222.4607 H   0  0  0  0  0  0  0  0  0  0  0  0
  143.3423   79.0364  222.6592 H   0  0  0  0  0  0  0  0  0  0  0  0
  139.3293   81.9151  223.0626 H   0  0  0  0  0  0  0  0  0  0  0  0
  138.6343   79.0495  224.3975 H   0  0  0  0  0  0  0  0  0  0  0  0
  137.9527   79.9939  223.0193 H   0  0  0  0  0  0  0  0  0  0  0  0
  137.7197   77.4660  222.8977 H   0  0  0  0  0  0  0  0  0  0  0  0
  138.4637   78.3022  221.4713 H   0  0  0  0  0  0  0  0  0  0  0  0
  136.2640   73.7510  221.8830 H   0  0  0  0  0  0  0  0  0  0  0  0
  135.9145   71.5259  222.3462 H   0  0  0  0  0  0  0  0  0  0  0  0
  137.4088   71.2618  221.3496 H   0  0  0  0  0  0  0  0  0  0  0  0
  138.6361   71.9292  223.5904 H   0  0  0  0  0  0  0  0  0  0  0  0
  137.1006   71.4138  224.3479 H   0  0  0  0  0  0  0  0  0  0  0  0
  137.6592   69.2818  224.0556 H   0  0  0  0  0  0  0  0  0  0  0  0
  137.7820   69.5867  222.2575 H   0  0  0  0  0  0  0  0  0  0  0  0
  139.8143   68.5724  223.3148 H   0  0  0  0  0  0  0  0  0  0  0  0
  140.0833   70.0897  222.4129 H   0  0  0  0  0  0  0  0  0  0  0  0
  140.7339   72.2402  223.7822 H   0  0  0  0  0  0  0  0  0  0  0  0
  141.3549   71.0470  228.6141 H   0  0  0  0  0  0  0  0  0  0  0  0
  140.6436   68.7741  229.4407 H   0  0  0  0  0  0  0  0  0  0  0  0
  139.6559   67.1641  227.8867 H   0  0  0  0  0  0  0  0  0  0  0  0
  139.3318   67.7070  225.4944 H   0  0  0  0  0  0  0  0  0  0  0  0
  142.8308   74.0079  219.5206 H   0  0  0  0  0  0  0  0  0  0  0  0
  143.0898   74.8306  221.0819 H   0  0  0  0  0  0  0  0  0  0  0  0
  145.1513   73.5522  220.4108 H   0  0  0  0  0  0  0  0  0  0  0  0
  144.4833   72.8389  221.8729 H   0  0  0  0  0  0  0  0  0  0  0  0
  145.8536   71.8731  218.9329 H   0  0  0  0  0  0  0  0  0  0  0  0
  145.3896   69.7546  217.6834 H   0  0  0  0  0  0  0  0  0  0  0  0
  143.2681   68.5242  218.1657 H   0  0  0  0  0  0  0  0  0  0  0  0
  141.6579   69.3777  219.8449 H   0  0  0  0  0  0  0  0  0  0  0  0
  140.9037   71.2511  221.2168 H   0  0  0  0  0  0  0  0  0  0  0  0
  142.2467   71.4120  222.3719 H   0  0  0  0  0  0  0  0  0  0  0  0
  141.1769   77.4023  224.1485 H   0  0  0  0  0  0  0  0  0  0  0  0
  141.8211   77.2225  222.4428 H   0  0  0  0  0  0  0  0  0  0  0  0
  1  2  2  0
  2  3  1  0
  3  4  2  0
  4  5  1  0
  5  6  2  0
  5  7  1  0
  7  8  1  0
  8  9  1  0
  9 10  1  0
 10 11  2  0
 11 12  1  0
 12 13  1  0
 13 14  1  0
 14 15  1  0
 15 16  1  0
 16 17  1  0
 17 18  1  0
 18 19  1  0
 19 20  2  0
 20 21  1  0
 21 22  2  0
 22 23  1  0
 23 24  2  0
 24 25  1  0
 25 26  2  0
 12 27  2  0
 27 28  1  0
 28 29  1  0
 29 30  1  0
 30 31  1  0
 31 32  1  0
 32 33  2  0
 33 34  1  0
 34 35  2  0
 35 36  1  0
 36 37  2  0
 37 38  1  0
 28 39  2  0
  9 40  1  0
  6  1  1  0
 39 10  1  0
 40  4  1  0
 26 18  1  0
 38 29  1  0
 26 21  1  0
 37 32  1  0
  1 41  1  0
  2 42  1  0
  3 43  1  0
  6 44  1  0
  7 45  1  0
  7 46  1  0
  8 47  1  0
  8 48  1  0
 13 49  1  0
 14 50  1  0
 14 51  1  0
 15 52  1  0
 15 53  1  0
 16 54  1  0
 16 55  1  0
 17 56  1  0
 17 57  1  0
 19 58  1  0
 22 59  1  0
 23 60  1  0
 24 61  1  0
 25 62  1  0
 30 63  1  0
 30 64  1  0
 31 65  1  0
 31 66  1  0
 33 67  1  0
 34 68  1  0
 35 69  1  0
 36 70  1  0
 38 71  1  0
 38 72  1  0
 40 73  1  0
 40 74  1  0
M  END
>  <smiles>  (17) 
c1ccc2c(c1)CCN(c1nc(NCCCCn3cnc4ccccc43)nc(N3CCc4ccccc4C3)n1)C2

>  <score_type>  (17) 
oracle

>  <origin>  (17) 
autodockgpu

>  <m_score__min__energy>  (17) 
-11.42

>  <m_primary>  (17) 
energy

>  <rmsd>  (17) 
4.207092370297277

>  <m_score__min__rmsd>  (17) 
4.207092370297277

>  <meeko>  (17) 
{"free_energy": -9.82, "intermolecular_energy": -12.21, "internal_energy": -1.81, "cluster_size": 18, "cluster_id": 1, "rank_in_cluster": 18}

>  <energy>  (17) 
-10.08

>  <cluster_rmsd>  (17) 
1.5

>  <cluster>  (17) 
1

$$$$

     RDKit          3D

 74 80  0  0  0  0  0  0  0  0999 V2000
  145.7810   69.0460  218.1770 C   0  0  0  0  0  0  0  0  0  0  0  0
  144.7050   68.4100  218.7650 C   0  0  0  0  0  0  0  0  0  0  0  0
  143.8730   69.0930  219.6340 C   0  0  0  0  0  0  0  0  0  0  0  0
  144.1380   70.4170  219.8980 C   0  0  0  0  0  0  0  0  0  0  0  0
  145.2080   71.0860  219.3260 C   0  0  0  0  0  0  0  0  0  0  0  0
  146.0140   70.3750  218.4670 C   0  0  0  0  0  0  0  0  0  0  0  0
  145.4700   72.5220  219.6330 C   0  0  0  0  0  0  0  0  0  0  0  0
  144.1810   73.2870  219.7110 C   0  0  0  0  0  0  0  0  0  0  0  0
  143.1810   72.5820  220.5120 N   0  0  0  0  0  0  0  0  0  0  0  0
  142.0590   73.3110  221.0180 C   0  0  0  0  0  0  0  0  0  0  0  0
  140.9600   72.6840  221.4750 N   0  0  0  0  0  0  0  0  0  0  0  0
  139.8950   73.3320  221.9550 C   0  0  0  0  0  0  0  0  0  0  0  0
  138.7310   72.6440  222.4390 N   0  0  0  0  0  0  0  0  0  0  0  0
  137.8910   71.8510  221.6010 C   0  0  0  0  0  0  0  0  0  0  0  0
  138.4240   70.4400  221.4350 C   0  0  0  0  0  0  0  0  0  0  0  0
  138.5680   69.8280  222.7930 C   0  0  0  0  0  0  0  0  0  0  0  0
  139.9190   70.0320  223.4020 C   0  0  0  0  0  0  0  0  0  0  0  0
  139.8380   69.6720  224.8110 N   0  0  0  0  0  0  0  0  0  0  0  0
  139.3230   68.5250  225.3060 C   0  0  0  0  0  0  0  0  0  0  0  0
  139.4270   68.5620  226.6510 N   0  0  0  0  0  0  0  0  0  0  0  0
  140.0120   69.7450  226.9910 C   0  0  0  0  0  0  0  0  0  0  0  0
  140.3330   70.2540  228.2330 C   0  0  0  0  0  0  0  0  0  0  0  0
  140.9380   71.5160  228.2780 C   0  0  0  0  0  0  0  0  0  0  0  0
  141.1870   72.1940  227.1210 C   0  0  0  0  0  0  0  0  0  0  0  0
  140.8630   71.6790  225.8840 C   0  0  0  0  0  0  0  0  0  0  0  0
  140.2730   70.4480  225.8310 C   0  0  0  0  0  0  0  0  0  0  0  0
  139.9680   74.6880  221.9630 N   0  0  0  0  0  0  0  0  0  0  0  0
  141.0320   75.3710  221.5220 C   0  0  0  0  0  0  0  0  0  0  0  0
  141.0890   76.8010  221.5380 N   0  0  0  0  0  0  0  0  0  0  0  0
  141.7180   77.4990  220.4350 C   0  0  0  0  0  0  0  0  0  0  0  0
  141.1490   78.9230  220.3980 C   0  0  0  0  0  0  0  0  0  0  0  0
  141.5550   79.5160  221.7210 C   0  0  0  0  0  0  0  0  0  0  0  0
  142.2130   80.7150  221.7720 C   0  0  0  0  0  0  0  0  0  0  0  0
  142.5760   81.2390  222.9970 C   0  0  0  0  0  0  0  0  0  0  0  0
  142.2510   80.5130  224.1420 C   0  0  0  0  0  0  0  0  0  0  0  0
  141.5810   79.2940  224.0590 C   0  0  0  0  0  0  0  0  0  0  0  0
  141.2190   78.7720  222.8340 C   0  0  0  0  0  0  0  0  0  0  0  0
  140.5040   77.4780  222.6790 C   0  0  0  0  0  0  0  0  0  0  0  0
  142.0760   74.6560  221.0490 N   0  0  0  0  0  0  0  0  0  0  0  0
  143.2760   71.1740  220.8160 C   0  0  0  0  0  0  0  0  0  0  0  0
  146.4426   68.5011  217.4876 H   0  0  0  0  0  0  0  0  0  0  0  0
  144.5080   67.3514  218.5404 H   0  0  0  0  0  0  0  0  0  0  0  0
  143.0167   68.5876  220.1045 H   0  0  0  0  0  0  0  0  0  0  0  0
  146.8701   70.8812  217.9971 H   0  0  0  0  0  0  0  0  0  0  0  0
  145.9938   72.5962  220.5974 H   0  0  0  0  0  0  0  0  0  0  0  0
  146.0894   72.9498  218.8309 H   0  0  0  0  0  0  0  0  0  0  0  0
  144.3761   74.2685  220.1677 H   0  0  0  0  0  0  0  0  0  0  0  0
  143.7862   73.3985  218.6904 H   0  0  0  0  0  0  0  0  0  0  0  0
  138.5120   72.7400  223.4350 H   0  0  0  0  0  0  0  0  0  0  0  0
  136.8875   71.8013  222.0489 H   0  0  0  0  0  0  0  0  0  0  0  0
  137.8600   72.3219  220.6074 H   0  0  0  0  0  0  0  0  0  0  0  0
  137.7215   69.8458  220.8321 H   0  0  0  0  0  0  0  0  0  0  0  0
  139.3979   70.4610  220.9241 H   0  0  0  0  0  0  0  0  0  0  0  0
  137.8155   70.2767  223.4581 H   0  0  0  0  0  0  0  0  0  0  0  0
  138.4283   68.7434  222.6743 H   0  0  0  0  0  0  0  0  0  0  0  0
  140.6570   69.3926  222.8954 H   0  0  0  0  0  0  0  0  0  0  0  0
  140.2320   71.0809  223.2935 H   0  0  0  0  0  0  0  0  0  0  0  0
  138.8932   67.7030  224.7147 H   0  0  0  0  0  0  0  0  0  0  0  0
  140.1215   69.6895  229.1531 H   0  0  0  0  0  0  0  0  0  0  0  0
  141.2124   71.9604  229.2461 H   0  0  0  0  0  0  0  0  0  0  0  0
  141.6621   73.1846  227.1768 H   0  0  0  0  0  0  0  0  0  0  0  0
  141.0739   72.2442  224.9642 H   0  0  0  0  0  0  0  0  0  0  0  0
  142.8069   77.5346  220.5866 H   0  0  0  0  0  0  0  0  0  0  0  0
  141.5175   76.9796  219.4863 H   0  0  0  0  0  0  0  0  0  0  0  0
  141.5824   79.4950  219.5644 H   0  0  0  0  0  0  0  0  0  0  0  0
  140.0598   78.9382  220.2453 H   0  0  0  0  0  0  0  0  0  0  0  0
  142.4508   81.2569  220.8447 H   0  0  0  0  0  0  0  0  0  0  0  0
  143.1057   82.2005  223.0673 H   0  0  0  0  0  0  0  0  0  0  0  0
  142.5287   80.9100  225.1296 H   0  0  0  0  0  0  0  0  0  0  0  0
  141.3382   78.7423  224.9792 H   0  0  0  0  0  0  0  0  0  0  0  0
  140.6292   76.8670  223.5851 H   0  0  0  0  0  0  0  0  0  0  0  0
  139.4270   77.6419  222.5268 H   0  0  0  0  0  0  0  0  0  0  0  0
  143.6784   71.0672  221.8342 H   0  0  0  0  0  0  0  0  0  0  0  0
  142.2625   70.7590  220.7128 H   0  0  0  0  0  0  0  0  0  0  0  0
  1  2  2  0
  2  3  1  0
  3  4  2  0
  4  5  1  0
  5  6  2  0
  5  7  1  0
  7  8  1  0
  8  9  1  0
  9 10  1  0
 10 11  2  0
 11 12  1  0
 12 13  1  0
 13 14  1  0
 14 15  1  0
 15 16  1  0
 16 17  1  0
 17 18  1  0
 18 19  1  0
 19 20  2  0
 20 21  1  0
 21 22  2  0
 22 23  1  0
 23 24  2  0
 24 25  1  0
 25 26  2  0
 12 27  2  0
 27 28  1  0
 28 29  1  0
 29 30  1  0
 30 31  1  0
 31 32  1  0
 32 33  2  0
 33 34  1  0
 34 35  2  0
 35 36  1  0
 36 37  2  0
 37 38  1  0
 28 39  2  0
  9 40  1  0
  6  1  1  0
 39 10  1  0
 40  4  1  0
 26 18  1  0
 38 29  1  0
 26 21  1  0
 37 32  1  0
  1 41  1  0
  2 42  1  0
  3 43  1  0
  6 44  1  0
  7 45  1  0
  7 46  1  0
  8 47  1  0
  8 48  1  0
 13 49  1  0
 14 50  1  0
 14 51  1  0
 15 52  1  0
 15 53  1  0
 16 54  1  0
 16 55  1  0
 17 56  1  0
 17 57  1  0
 19 58  1  0
 22 59  1  0
 23 60  1  0
 24 61  1  0
 25 62  1  0
 30 63  1  0
 30 64  1  0
 31 65  1  0
 31 66  1  0
 33 67  1  0
 34 68  1  0
 35 69  1  0
 36 70  1  0
 38 71  1  0
 38 72  1  0
 40 73  1  0
 40 74  1  0
M  END
>  <smiles>  (18) 
c1ccc2c(c1)CCN(c1nc(NCCCCn3cnc4ccccc43)nc(N3CCc4ccccc4C3)n1)C2

>  <score_type>  (18) 
oracle

>  <origin>  (18) 
autodockgpu

>  <m_score__min__energy>  (18) 
-11.42

>  <m_primary>  (18) 
energy

>  <rmsd>  (18) 
5.3290029711704205

>  <m_score__min__rmsd>  (18) 
5.3290029711704205

>  <meeko>  (18) 
{"free_energy": -11.05, "intermolecular_energy": -13.43, "internal_energy": -1.52, "cluster_size": 18, "cluster_id": 1, "rank_in_cluster": 3}

>  <energy>  (18) 
-9.82

>  <cluster_rmsd>  (18) 
1.66

>  <cluster>  (18) 
1

$$$$

     RDKit          3D

 74 80  0  0  0  0  0  0  0  0999 V2000
  142.2240   79.7700  221.9690 C   0  0  0  0  0  0  0  0  0  0  0  0
  142.0130   79.2370  223.2250 C   0  0  0  0  0  0  0  0  0  0  0  0
  141.3930   78.0080  223.3740 C   0  0  0  0  0  0  0  0  0  0  0  0
  140.9930   77.3300  222.2440 C   0  0  0  0  0  0  0  0  0  0  0  0
  141.1900   77.8350  220.9700 C   0  0  0  0  0  0  0  0  0  0  0  0
  141.8090   79.0590  220.8610 C   0  0  0  0  0  0  0  0  0  0  0  0
  140.7450   77.0770  219.7650 C   0  0  0  0  0  0  0  0  0  0  0  0
  141.0090   75.6100  219.9390 C   0  0  0  0  0  0  0  0  0  0  0  0
  140.5760   75.1340  221.2520 N   0  0  0  0  0  0  0  0  0  0  0  0
  140.3860   73.7310  221.4520 C   0  0  0  0  0  0  0  0  0  0  0  0
  140.2550   72.8830  220.4150 N   0  0  0  0  0  0  0  0  0  0  0  0
  140.0770   71.5680  220.5640 C   0  0  0  0  0  0  0  0  0  0  0  0
  139.9400   70.6790  219.4450 N   0  0  0  0  0  0  0  0  0  0  0  0
  140.8160   69.5760  219.2160 C   0  0  0  0  0  0  0  0  0  0  0  0
  142.2290   70.0290  218.9010 C   0  0  0  0  0  0  0  0  0  0  0  0
  142.2040   70.7850  217.6090 C   0  0  0  0  0  0  0  0  0  0  0  0
  143.5180   71.4040  217.2510 C   0  0  0  0  0  0  0  0  0  0  0  0
  143.6120   72.6870  217.9320 N   0  0  0  0  0  0  0  0  0  0  0  0
  142.9780   73.8240  217.5690 C   0  0  0  0  0  0  0  0  0  0  0  0
  143.3170   74.7940  218.4450 N   0  0  0  0  0  0  0  0  0  0  0  0
  144.1700   74.2510  219.3580 C   0  0  0  0  0  0  0  0  0  0  0  0
  144.7940   74.8280  220.4460 C   0  0  0  0  0  0  0  0  0  0  0  0
  145.6300   74.0130  221.2190 C   0  0  0  0  0  0  0  0  0  0  0  0
  145.8030   72.7010  220.8850 C   0  0  0  0  0  0  0  0  0  0  0  0
  145.1760   72.1330  219.7970 C   0  0  0  0  0  0  0  0  0  0  0  0
  144.3590   72.9200  219.0370 C   0  0  0  0  0  0  0  0  0  0  0  0
  140.0310   71.1070  221.8420 N   0  0  0  0  0  0  0  0  0  0  0  0
  140.1540   71.8980  222.9150 C   0  0  0  0  0  0  0  0  0  0  0  0
  140.1020   71.3930  224.2530 N   0  0  0  0  0  0  0  0  0  0  0  0
  141.0530   71.8790  225.2320 C   0  0  0  0  0  0  0  0  0  0  0  0
  140.4450   71.6590  226.6230 C   0  0  0  0  0  0  0  0  0  0  0  0
  140.2760   70.1660  226.7200 C   0  0  0  0  0  0  0  0  0  0  0  0
  140.7820   69.4780  227.7890 C   0  0  0  0  0  0  0  0  0  0  0  0
  140.6160   68.1090  227.8560 C   0  0  0  0  0  0  0  0  0  0  0  0
  139.9320   67.4810  226.8170 C   0  0  0  0  0  0  0  0  0  0  0  0
  139.4280   68.2070  225.7400 C   0  0  0  0  0  0  0  0  0  0  0  0
  139.5950   69.5760  225.6750 C   0  0  0  0  0  0  0  0  0  0  0  0
  139.0820   70.4060  224.5540 C   0  0  0  0  0  0  0  0  0  0  0  0
  140.3320   73.2200  222.6950 N   0  0  0  0  0  0  0  0  0  0  0  0
  140.3320   76.0240  222.3630 C   0  0  0  0  0  0  0  0  0  0  0  0
  142.7157   80.7471  221.8529 H   0  0  0  0  0  0  0  0  0  0  0  0
  142.3404   79.7938  224.1154 H   0  0  0  0  0  0  0  0  0  0  0  0
  141.2235   77.5821  224.3739 H   0  0  0  0  0  0  0  0  0  0  0  0
  141.9783   79.4838  219.8606 H   0  0  0  0  0  0  0  0  0  0  0  0
  139.6668   77.2354  219.6156 H   0  0  0  0  0  0  0  0  0  0  0  0
  141.3064   77.4380  218.8906 H   0  0  0  0  0  0  0  0  0  0  0  0
  140.4639   75.0551  219.1612 H   0  0  0  0  0  0  0  0  0  0  0  0
  142.0933   75.4446  219.8550 H   0  0  0  0  0  0  0  0  0  0  0  0
  139.1710   70.8620  218.7940 H   0  0  0  0  0  0  0  0  0  0  0  0
  140.8375   68.9463  220.1177 H   0  0  0  0  0  0  0  0  0  0  0  0
  140.4373   69.0155  218.3485 H   0  0  0  0  0  0  0  0  0  0  0  0
  142.5987   70.6809  219.7062 H   0  0  0  0  0  0  0  0  0  0  0  0
  142.8961   69.1583  218.8175 H   0  0  0  0  0  0  0  0  0  0  0  0
  141.9163   70.0909  216.8056 H   0  0  0  0  0  0  0  0  0  0  0  0
  141.4830   71.6069  217.7304 H   0  0  0  0  0  0  0  0  0  0  0  0
  144.3399   70.7485  217.5749 H   0  0  0  0  0  0  0  0  0  0  0  0
  143.5904   71.5434  216.1623 H   0  0  0  0  0  0  0  0  0  0  0  0
  142.3025   73.9393  216.7085 H   0  0  0  0  0  0  0  0  0  0  0  0
  144.6402   75.8881  220.6962 H   0  0  0  0  0  0  0  0  0  0  0  0
  146.1474   74.4302  222.0955 H   0  0  0  0  0  0  0  0  0  0  0  0
  146.4641   72.0768  221.5041 H   0  0  0  0  0  0  0  0  0  0  0  0
  145.3298   71.0728  219.5473 H   0  0  0  0  0  0  0  0  0  0  0  0
  141.9981   71.3231  225.1442 H   0  0  0  0  0  0  0  0  0  0  0  0
  141.2629   72.9463  225.0680 H   0  0  0  0  0  0  0  0  0  0  0  0
  141.1226   72.0267  227.4076 H   0  0  0  0  0  0  0  0  0  0  0  0
  139.4970   72.2002  226.7590 H   0  0  0  0  0  0  0  0  0  0  0  0
  141.3168   70.0114  228.5887 H   0  0  0  0  0  0  0  0  0  0  0  0
  141.0119   67.5313  228.7042 H   0  0  0  0  0  0  0  0  0  0  0  0
  139.7872   66.3910  226.8477 H   0  0  0  0  0  0  0  0  0  0  0  0
  138.8920   67.6846  224.9339 H   0  0  0  0  0  0  0  0  0  0  0  0
  138.8951   69.7754  223.6723 H   0  0  0  0  0  0  0  0  0  0  0  0
  138.1347   70.8929  224.8287 H   0  0  0  0  0  0  0  0  0  0  0  0
  139.2475   76.1918  222.4390 H   0  0  0  0  0  0  0  0  0  0  0  0
  140.7513   75.5375  223.2560 H   0  0  0  0  0  0  0  0  0  0  0  0
  1  2  2  0
  2  3  1  0
  3  4  2  0
  4  5  1  0
  5  6  2  0
  5  7  1  0
  7  8  1  0
  8  9  1  0
  9 10  1  0
 10 11  2  0
 11 12  1  0
 12 13  1  0
 13 14  1  0
 14 15  1  0
 15 16  1  0
 16 17  1  0
 17 18  1  0
 18 19  1  0
 19 20  2  0
 20 21  1  0
 21 22  2  0
 22 23  1  0
 23 24  2  0
 24 25  1  0
 25 26  2  0
 12 27  2  0
 27 28  1  0
 28 29  1  0
 29 30  1  0
 30 31  1  0
 31 32  1  0
 32 33  2  0
 33 34  1  0
 34 35  2  0
 35 36  1  0
 36 37  2  0
 37 38  1  0
 28 39  2  0
  9 40  1  0
  6  1  1  0
 39 10  1  0
 40  4  1  0
 26 18  1  0
 38 29  1  0
 26 21  1  0
 37 32  1  0
  1 41  1  0
  2 42  1  0
  3 43  1  0
  6 44  1  0
  7 45  1  0
  7 46  1  0
  8 47  1  0
  8 48  1  0
 13 49  1  0
 14 50  1  0
 14 51  1  0
 15 52  1  0
 15 53  1  0
 16 54  1  0
 16 55  1  0
 17 56  1  0
 17 57  1  0
 19 58  1  0
 22 59  1  0
 23 60  1  0
 24 61  1  0
 25 62  1  0
 30 63  1  0
 30 64  1  0
 31 65  1  0
 31 66  1  0
 33 67  1  0
 34 68  1  0
 35 69  1  0
 36 70  1  0
 38 71  1  0
 38 72  1  0
 40 73  1  0
 40 74  1  0
M  END
>  <smiles>  (19) 
c1ccc2c(c1)CCN(c1nc(NCCCCn3cnc4ccccc43)nc(N3CCc4ccccc4C3)n1)C2

>  <score_type>  (19) 
oracle

>  <origin>  (19) 
autodockgpu

>  <m_score__min__energy>  (19) 
-11.42

>  <m_primary>  (19) 
energy

>  <rmsd>  (19) 
8.380854336298283

>  <m_score__min__rmsd>  (19) 
8.380854336298283

>  <meeko>  (19) 
{"free_energy": -9.38, "intermolecular_energy": -11.77, "internal_energy": -2.29, "cluster_size": 14, "cluster_id": 4, "rank_in_cluster": 7}

>  <energy>  (19) 
-10.42

>  <cluster_rmsd>  (19) 
0.0

>  <cluster>  (19) 
2

$$$$

     RDKit          3D

 74 80  0  0  0  0  0  0  0  0999 V2000
  139.4910   69.3730  228.1520 C   0  0  0  0  0  0  0  0  0  0  0  0
  140.3010   70.4710  228.3630 C   0  0  0  0  0  0  0  0  0  0  0  0
  140.8260   71.1750  227.2940 C   0  0  0  0  0  0  0  0  0  0  0  0
  140.5230   70.7580  226.0170 C   0  0  0  0  0  0  0  0  0  0  0  0
  139.7140   69.6620  225.7690 C   0  0  0  0  0  0  0  0  0  0  0  0
  139.2100   68.9870  226.8570 C   0  0  0  0  0  0  0  0  0  0  0  0
  139.4040   69.2350  224.3740 C   0  0  0  0  0  0  0  0  0  0  0  0
  139.1800   70.4300  223.4950 C   0  0  0  0  0  0  0  0  0  0  0  0
  140.2110   71.4470  223.6920 N   0  0  0  0  0  0  0  0  0  0  0  0
  140.3900   72.4550  222.6920 C   0  0  0  0  0  0  0  0  0  0  0  0
  141.4540   72.4500  221.8690 N   0  0  0  0  0  0  0  0  0  0  0  0
  141.6520   73.3730  220.9250 C   0  0  0  0  0  0  0  0  0  0  0  0
  142.7950   73.3500  220.0550 N   0  0  0  0  0  0  0  0  0  0  0  0
  143.7180   74.4350  219.9540 C   0  0  0  0  0  0  0  0  0  0  0  0
  143.2790   75.4600  218.9250 C   0  0  0  0  0  0  0  0  0  0  0  0
  143.0710   76.7680  219.6240 C   0  0  0  0  0  0  0  0  0  0  0  0
  141.6310   77.1320  219.7990 C   0  0  0  0  0  0  0  0  0  0  0  0
  141.4700   77.7130  221.1240 N   0  0  0  0  0  0  0  0  0  0  0  0
  141.2110   77.0310  222.2620 C   0  0  0  0  0  0  0  0  0  0  0  0
  141.1340   77.9180  223.2760 N   0  0  0  0  0  0  0  0  0  0  0  0
  141.3470   79.1610  222.7610 C   0  0  0  0  0  0  0  0  0  0  0  0
  141.3700   80.3910  223.3850 C   0  0  0  0  0  0  0  0  0  0  0  0
  141.6180   81.5160  222.5890 C   0  0  0  0  0  0  0  0  0  0  0  0
  141.8250   81.3700  221.2480 C   0  0  0  0  0  0  0  0  0  0  0  0
  141.8010   80.1380  220.6320 C   0  0  0  0  0  0  0  0  0  0  0  0
  141.5600   79.0350  221.4010 C   0  0  0  0  0  0  0  0  0  0  0  0
  140.7100   74.3460  220.8260 N   0  0  0  0  0  0  0  0  0  0  0  0
  139.6300   74.4080  221.6150 C   0  0  0  0  0  0  0  0  0  0  0  0
  138.6480   75.4420  221.4950 N   0  0  0  0  0  0  0  0  0  0  0  0
  138.1240   75.7770  220.1860 C   0  0  0  0  0  0  0  0  0  0  0  0
  136.7530   76.4340  220.3840 C   0  0  0  0  0  0  0  0  0  0  0  0
  137.0520   77.6740  221.1850 C   0  0  0  0  0  0  0  0  0  0  0  0
  136.6080   78.8970  220.7630 C   0  0  0  0  0  0  0  0  0  0  0  0
  136.8940   80.0200  221.5140 C   0  0  0  0  0  0  0  0  0  0  0  0
  137.6350   79.8550  222.6840 C   0  0  0  0  0  0  0  0  0  0  0  0
  138.0750   78.5960  223.0880 C   0  0  0  0  0  0  0  0  0  0  0  0
  137.7870   77.4750  222.3370 C   0  0  0  0  0  0  0  0  0  0  0  0
  138.2270   76.1060  222.7140 C   0  0  0  0  0  0  0  0  0  0  0  0
  139.4880   73.4430  222.5500 N   0  0  0  0  0  0  0  0  0  0  0  0
  141.0630   71.4810  224.8570 C   0  0  0  0  0  0  0  0  0  0  0  0
  139.0757   68.8140  229.0035 H   0  0  0  0  0  0  0  0  0  0  0  0
  140.5310   70.7890  229.3906 H   0  0  0  0  0  0  0  0  0  0  0  0
  141.4720   72.0496  227.4606 H   0  0  0  0  0  0  0  0  0  0  0  0
  138.5634   68.1130  226.6895 H   0  0  0  0  0  0  0  0  0  0  0  0
  140.2469   68.6486  223.9794 H   0  0  0  0  0  0  0  0  0  0  0  0
  138.4887   68.6250  224.3843 H   0  0  0  0  0  0  0  0  0  0  0  0
  139.1943   70.1069  222.4436 H   0  0  0  0  0  0  0  0  0  0  0  0
  138.2077   70.8719  223.7584 H   0  0  0  0  0  0  0  0  0  0  0  0
  142.9360   72.5070  219.4910 H   0  0  0  0  0  0  0  0  0  0  0  0
  143.7964   74.9272  220.9346 H   0  0  0  0  0  0  0  0  0  0  0  0
  144.6886   74.0272  219.6351 H   0  0  0  0  0  0  0  0  0  0  0  0
  144.0560   75.5696  218.1541 H   0  0  0  0  0  0  0  0  0  0  0  0
  142.3457   75.1360  218.4413 H   0  0  0  0  0  0  0  0  0  0  0  0
  143.5379   76.7089  220.6182 H   0  0  0  0  0  0  0  0  0  0  0  0
  143.5257   77.5462  218.9934 H   0  0  0  0  0  0  0  0  0  0  0  0
  141.3354   77.8635  219.0325 H   0  0  0  0  0  0  0  0  0  0  0  0
  140.9965   76.2396  219.6942 H   0  0  0  0  0  0  0  0  0  0  0  0
  141.0848   75.9416  222.3468 H   0  0  0  0  0  0  0  0  0  0  0  0
  141.1998   80.4846  224.4677 H   0  0  0  0  0  0  0  0  0  0  0  0
  141.6460   82.5169  223.0444 H   0  0  0  0  0  0  0  0  0  0  0  0
  142.0173   82.2656  220.6389 H   0  0  0  0  0  0  0  0  0  0  0  0
  141.9714   80.0449  219.5493 H   0  0  0  0  0  0  0  0  0  0  0  0
  138.8044   76.4766  219.6784 H   0  0  0  0  0  0  0  0  0  0  0  0
  138.0308   74.8728  219.5665 H   0  0  0  0  0  0  0  0  0  0  0  0
  136.3012   76.6943  219.4154 H   0  0  0  0  0  0  0  0  0  0  0  0
  136.0351   75.7694  220.8870 H   0  0  0  0  0  0  0  0  0  0  0  0
  136.0277   78.9853  219.8327 H   0  0  0  0  0  0  0  0  0  0  0  0
  136.5476   81.0153  221.1988 H   0  0  0  0  0  0  0  0  0  0  0  0
  137.8764   80.7345  223.2990 H   0  0  0  0  0  0  0  0  0  0  0  0
  138.6580   78.4949  224.0153 H   0  0  0  0  0  0  0  0  0  0  0  0
  139.0665   76.1613  223.4227 H   0  0  0  0  0  0  0  0  0  0  0  0
  137.4099   75.5520  223.1992 H   0  0  0  0  0  0  0  0  0  0  0  0
  142.0310   71.0319  224.5901 H   0  0  0  0  0  0  0  0  0  0  0  0
  141.1516   72.5363  225.1543 H   0  0  0  0  0  0  0  0  0  0  0  0
  1  2  2  0
  2  3  1  0
  3  4  2  0
  4  5  1  0
  5  6  2  0
  5  7  1  0
  7  8  1  0
  8  9  1  0
  9 10  1  0
 10 11  2  0
 11 12  1  0
 12 13  1  0
 13 14  1  0
 14 15  1  0
 15 16  1  0
 16 17  1  0
 17 18  1  0
 18 19  1  0
 19 20  2  0
 20 21  1  0
 21 22  2  0
 22 23  1  0
 23 24  2  0
 24 25  1  0
 25 26  2  0
 12 27  2  0
 27 28  1  0
 28 29  1  0
 29 30  1  0
 30 31  1  0
 31 32  1  0
 32 33  2  0
 33 34  1  0
 34 35  2  0
 35 36  1  0
 36 37  2  0
 37 38  1  0
 28 39  2  0
  9 40  1  0
  6  1  1  0
 39 10  1  0
 40  4  1  0
 26 18  1  0
 38 29  1  0
 26 21  1  0
 37 32  1  0
  1 41  1  0
  2 42  1  0
  3 43  1  0
  6 44  1  0
  7 45  1  0
  7 46  1  0
  8 47  1  0
  8 48  1  0
 13 49  1  0
 14 50  1  0
 14 51  1  0
 15 52  1  0
 15 53  1  0
 16 54  1  0
 16 55  1  0
 17 56  1  0
 17 57  1  0
 19 58  1  0
 22 59  1  0
 23 60  1  0
 24 61  1  0
 25 62  1  0
 30 63  1  0
 30 64  1  0
 31 65  1  0
 31 66  1  0
 33 67  1  0
 34 68  1  0
 35 69  1  0
 36 70  1  0
 38 71  1  0
 38 72  1  0
 40 73  1  0
 40 74  1  0
M  END
>  <smiles>  (20) 
c1ccc2c(c1)CCN(c1nc(NCCCCn3cnc4ccccc43)nc(N3CCc4ccccc4C3)n1)C2

>  <score_type>  (20) 
oracle

>  <origin>  (20) 
autodockgpu

>  <m_score__min__energy>  (20) 
-11.42

>  <m_primary>  (20) 
energy

>  <rmsd>  (20) 
10.378488232764104

>  <m_score__min__rmsd>  (20) 
10.378488232764104

>  <meeko>  (20) 
{"free_energy": -8.9, "intermolecular_energy": -11.29, "internal_energy": -2.74, "cluster_size": 2, "cluster_id": 7, "rank_in_cluster": 1}

>  <energy>  (20) 
-10.31

>  <cluster_rmsd>  (20) 
1.07

>  <cluster>  (20) 
2

$$$$

     RDKit          3D

 74 80  0  0  0  0  0  0  0  0999 V2000
  141.7510   80.8030  222.6900 C   0  0  0  0  0  0  0  0  0  0  0  0
  142.4610   79.8840  223.4380 C   0  0  0  0  0  0  0  0  0  0  0  0
  142.0840   78.5530  223.4590 C   0  0  0  0  0  0  0  0  0  0  0  0
  140.9900   78.1640  222.7200 C   0  0  0  0  0  0  0  0  0  0  0  0
  140.2560   79.0590  221.9590 C   0  0  0  0  0  0  0  0  0  0  0  0
  140.6590   80.3740  221.9630 C   0  0  0  0  0  0  0  0  0  0  0  0
  139.0740   78.6080  221.1690 C   0  0  0  0  0  0  0  0  0  0  0  0
  139.3410   77.2730  220.5380 C   0  0  0  0  0  0  0  0  0  0  0  0
  139.9340   76.3340  221.4900 N   0  0  0  0  0  0  0  0  0  0  0  0
  139.8960   74.9340  221.1970 C   0  0  0  0  0  0  0  0  0  0  0  0
  139.8810   74.4800  219.9300 N   0  0  0  0  0  0  0  0  0  0  0  0
  139.8460   73.1820  219.6200 C   0  0  0  0  0  0  0  0  0  0  0  0
  139.8310   72.7160  218.2610 N   0  0  0  0  0  0  0  0  0  0  0  0
  140.9170   72.9200  217.3570 C   0  0  0  0  0  0  0  0  0  0  0  0
  142.0560   71.9510  217.6080 C   0  0  0  0  0  0  0  0  0  0  0  0
  143.2890   72.4940  216.9560 C   0  0  0  0  0  0  0  0  0  0  0  0
  144.3910   72.8020  217.9200 C   0  0  0  0  0  0  0  0  0  0  0  0
  143.8730   73.7270  218.9170 N   0  0  0  0  0  0  0  0  0  0  0  0
  143.6910   73.4570  220.2290 C   0  0  0  0  0  0  0  0  0  0  0  0
  143.1950   74.5630  220.8230 N   0  0  0  0  0  0  0  0  0  0  0  0
  143.0690   75.5270  219.8680 C   0  0  0  0  0  0  0  0  0  0  0  0
  142.6100   76.8240  219.9690 C   0  0  0  0  0  0  0  0  0  0  0  0
  142.5930   77.5970  218.8020 C   0  0  0  0  0  0  0  0  0  0  0  0
  143.0180   77.0600  217.6220 C   0  0  0  0  0  0  0  0  0  0  0  0
  143.4750   75.7630  217.5290 C   0  0  0  0  0  0  0  0  0  0  0  0
  143.4960   75.0020  218.6630 C   0  0  0  0  0  0  0  0  0  0  0  0
  139.8260   72.3120  220.6640 N   0  0  0  0  0  0  0  0  0  0  0  0
  139.8380   72.7010  221.9450 C   0  0  0  0  0  0  0  0  0  0  0  0
  139.8150   71.7690  223.0310 N   0  0  0  0  0  0  0  0  0  0  0  0
  138.5660   71.1280  223.3910 C   0  0  0  0  0  0  0  0  0  0  0  0
  138.9040   69.8240  224.1230 C   0  0  0  0  0  0  0  0  0  0  0  0
  139.6590   70.2730  225.3470 C   0  0  0  0  0  0  0  0  0  0  0  0
  139.2770   69.8530  226.5910 C   0  0  0  0  0  0  0  0  0  0  0  0
  139.9840   70.2780  227.6980 C   0  0  0  0  0  0  0  0  0  0  0  0
  141.0700   71.1290  227.4950 C   0  0  0  0  0  0  0  0  0  0  0  0
  141.4350   71.5400  226.2150 C   0  0  0  0  0  0  0  0  0  0  0  0
  140.7280   71.1140  225.1090 C   0  0  0  0  0  0  0  0  0  0  0  0
  141.0670   71.5180  223.7200 C   0  0  0  0  0  0  0  0  0  0  0  0
  139.8730   74.0290  222.1910 N   0  0  0  0  0  0  0  0  0  0  0  0
  140.5610   76.7590  222.7190 C   0  0  0  0  0  0  0  0  0  0  0  0
  142.0515   81.8610  222.6740 H   0  0  0  0  0  0  0  0  0  0  0  0
  143.3333   80.2131  224.0218 H   0  0  0  0  0  0  0  0  0  0  0  0
  142.6476   77.8199  224.0547 H   0  0  0  0  0  0  0  0  0  0  0  0
  140.0935   81.1065  221.3684 H   0  0  0  0  0  0  0  0  0  0  0  0
  138.2032   78.5253  221.8360 H   0  0  0  0  0  0  0  0  0  0  0  0
  138.8756   79.3431  220.3751 H   0  0  0  0  0  0  0  0  0  0  0  0
  138.3918   76.8562  220.1703 H   0  0  0  0  0  0  0  0  0  0  0  0
  140.0529   77.4200  219.7124 H   0  0  0  0  0  0  0  0  0  0  0  0
  138.9950   72.2160  217.9470 H   0  0  0  0  0  0  0  0  0  0  0  0
  140.5533   72.7814  216.3282 H   0  0  0  0  0  0  0  0  0  0  0  0
  141.2992   73.9400  217.5104 H   0  0  0  0  0  0  0  0  0  0  0  0
  142.2232   71.8461  218.6902 H   0  0  0  0  0  0  0  0  0  0  0  0
  141.8112   70.9630  217.1910 H   0  0  0  0  0  0  0  0  0  0  0  0
  143.6567   71.7502  216.2338 H   0  0  0  0  0  0  0  0  0  0  0  0
  143.0079   73.4421  216.4742 H   0  0  0  0  0  0  0  0  0  0  0  0
  144.7280   71.8763  218.4094 H   0  0  0  0  0  0  0  0  0  0  0  0
  145.2458   73.2497  217.3919 H   0  0  0  0  0  0  0  0  0  0  0  0
  143.9094   72.5007  220.7268 H   0  0  0  0  0  0  0  0  0  0  0  0
  142.2700   77.2355  220.9308 H   0  0  0  0  0  0  0  0  0  0  0  0
  142.2370   78.6372  218.8364 H   0  0  0  0  0  0  0  0  0  0  0  0
  142.9952   77.6824  216.7153 H   0  0  0  0  0  0  0  0  0  0  0  0
  143.8139   75.3516  216.5668 H   0  0  0  0  0  0  0  0  0  0  0  0
  137.9832   71.7875  224.0508 H   0  0  0  0  0  0  0  0  0  0  0  0
  137.9669   70.9205  222.4921 H   0  0  0  0  0  0  0  0  0  0  0  0
  137.9870   69.2861  224.4056 H   0  0  0  0  0  0  0  0  0  0  0  0
  139.4863   69.1294  223.4997 H   0  0  0  0  0  0  0  0  0  0  0  0
  138.4134   69.1819  226.7087 H   0  0  0  0  0  0  0  0  0  0  0  0
  139.6991   69.9550  228.7102 H   0  0  0  0  0  0  0  0  0  0  0  0
  141.6488   71.4820  228.3612 H   0  0  0  0  0  0  0  0  0  0  0  0
  142.2963   72.2116  226.0844 H   0  0  0  0  0  0  0  0  0  0  0  0
  141.6808   72.4307  223.7317 H   0  0  0  0  0  0  0  0  0  0  0  0
  141.6420   70.7296  223.2123 H   0  0  0  0  0  0  0  0  0  0  0  0
  139.8430   76.6167  223.5401 H   0  0  0  0  0  0  0  0  0  0  0  0
  141.4695   76.1504  222.8380 H   0  0  0  0  0  0  0  0  0  0  0  0
  1  2  2  0
  2  3  1  0
  3  4  2  0
  4  5  1  0
  5  6  2  0
  5  7  1  0
  7  8  1  0
  8  9  1  0
  9 10  1  0
 10 11  2  0
 11 12  1  0
 12 13  1  0
 13 14  1  0
 14 15  1  0
 15 16  1  0
 16 17  1  0
 17 18  1  0
 18 19  1  0
 19 20  2  0
 20 21  1  0
 21 22  2  0
 22 23  1  0
 23 24  2  0
 24 25  1  0
 25 26  2  0
 12 27  2  0
 27 28  1  0
 28 29  1  0
 29 30  1  0
 30 31  1  0
 31 32  1  0
 32 33  2  0
 33 34  1  0
 34 35  2  0
 35 36  1  0
 36 37  2  0
 37 38  1  0
 28 39  2  0
  9 40  1  0
  6  1  1  0
 39 10  1  0
 40  4  1  0
 26 18  1  0
 38 29  1  0
 26 21  1  0
 37 32  1  0
  1 41  1  0
  2 42  1  0
  3 43  1  0
  6 44  1  0
  7 45  1  0
  7 46  1  0
  8 47  1  0
  8 48  1  0
 13 49  1  0
 14 50  1  0
 14 51  1  0
 15 52  1  0
 15 53  1  0
 16 54  1  0
 16 55  1  0
 17 56  1  0
 17 57  1  0
 19 58  1  0
 22 59  1  0
 23 60  1  0
 24 61  1  0
 25 62  1  0
 30 63  1  0
 30 64  1  0
 31 65  1  0
 31 66  1  0
 33 67  1  0
 34 68  1  0
 35 69  1  0
 36 70  1  0
 38 71  1  0
 38 72  1  0
 40 73  1  0
 40 74  1  0
M  END
>  <smiles>  (21) 
c1ccc2c(c1)CCN(c1nc(NCCCCn3cnc4ccccc43)nc(N3CCc4ccccc4C3)n1)C2

>  <score_type>  (21) 
oracle

>  <origin>  (21) 
autodockgpu

>  <m_score__min__energy>  (21) 
-11.42

>  <m_primary>  (21) 
energy

>  <rmsd>  (21) 
9.605643276594188

>  <m_score__min__rmsd>  (21) 
9.605643276594188

>  <meeko>  (21) 
{"free_energy": -8.44, "intermolecular_energy": -10.83, "internal_energy": -3.04, "cluster_size": 14, "cluster_id": 4, "rank_in_cluster": 13}

>  <energy>  (21) 
-10.27

>  <cluster_rmsd>  (21) 
1.11

>  <cluster>  (21) 
2

$$$$

     RDKit          3D

 74 80  0  0  0  0  0  0  0  0999 V2000
  145.4730   70.0330  218.4320 C   0  0  0  0  0  0  0  0  0  0  0  0
  144.3920   69.2900  218.8620 C   0  0  0  0  0  0  0  0  0  0  0  0
  143.4590   69.8390  219.7240 C   0  0  0  0  0  0  0  0  0  0  0  0
  143.6310   71.1390  220.1420 C   0  0  0  0  0  0  0  0  0  0  0  0
  144.7040   71.9130  219.7300 C   0  0  0  0  0  0  0  0  0  0  0  0
  145.6120   71.3330  218.8740 C   0  0  0  0  0  0  0  0  0  0  0  0
  144.8640   73.3190  220.2010 C   0  0  0  0  0  0  0  0  0  0  0  0
  143.5340   74.0120  220.2490 C   0  0  0  0  0  0  0  0  0  0  0  0
  142.5140   73.1820  220.8890 N   0  0  0  0  0  0  0  0  0  0  0  0
  141.3190   73.8020  221.3720 C   0  0  0  0  0  0  0  0  0  0  0  0
  140.1570   73.1280  221.4470 N   0  0  0  0  0  0  0  0  0  0  0  0
  139.0220   73.6740  221.8920 C   0  0  0  0  0  0  0  0  0  0  0  0
  137.7910   72.9370  221.9650 N   0  0  0  0  0  0  0  0  0  0  0  0
  137.6370   71.7550  222.7500 C   0  0  0  0  0  0  0  0  0  0  0  0
  137.8690   70.4980  221.9350 C   0  0  0  0  0  0  0  0  0  0  0  0
  139.1430   69.8630  222.4000 C   0  0  0  0  0  0  0  0  0  0  0  0
  139.9400   70.7270  223.3260 C   0  0  0  0  0  0  0  0  0  0  0  0
  139.8300   70.1710  224.6670 N   0  0  0  0  0  0  0  0  0  0  0  0
  139.2190   69.0110  224.9950 C   0  0  0  0  0  0  0  0  0  0  0  0
  139.3290   68.8400  226.3290 N   0  0  0  0  0  0  0  0  0  0  0  0
  140.0150   69.9040  226.8310 C   0  0  0  0  0  0  0  0  0  0  0  0
  140.3820   70.1940  228.1290 C   0  0  0  0  0  0  0  0  0  0  0  0
  141.0940   71.3800  228.3510 C   0  0  0  0  0  0  0  0  0  0  0  0
  141.3980   72.1980  227.3020 C   0  0  0  0  0  0  0  0  0  0  0  0
  141.0270   71.9010  226.0090 C   0  0  0  0  0  0  0  0  0  0  0  0
  140.3330   70.7470  225.7840 C   0  0  0  0  0  0  0  0  0  0  0  0
  139.0900   74.9750  222.2780 N   0  0  0  0  0  0  0  0  0  0  0  0
  140.2150   75.7000  222.2270 C   0  0  0  0  0  0  0  0  0  0  0  0
  140.2660   77.0700  222.6370 N   0  0  0  0  0  0  0  0  0  0  0  0
  139.1570   77.9480  222.3210 C   0  0  0  0  0  0  0  0  0  0  0  0
  139.1790   79.1090  223.3220 C   0  0  0  0  0  0  0  0  0  0  0  0
  140.5000   79.7870  223.0720 C   0  0  0  0  0  0  0  0  0  0  0  0
  140.5560   81.1330  222.8380 C   0  0  0  0  0  0  0  0  0  0  0  0
  141.7790   81.7330  222.6100 C   0  0  0  0  0  0  0  0  0  0  0  0
  142.9170   80.9270  222.6280 C   0  0  0  0  0  0  0  0  0  0  0  0
  142.8290   79.5580  222.8690 C   0  0  0  0  0  0  0  0  0  0  0  0
  141.6060   78.9600  223.0970 C   0  0  0  0  0  0  0  0  0  0  0  0
  141.4460   77.5060  223.3590 C   0  0  0  0  0  0  0  0  0  0  0  0
  141.3280   75.0880  221.7660 N   0  0  0  0  0  0  0  0  0  0  0  0
  142.6610   71.7550  221.0560 C   0  0  0  0  0  0  0  0  0  0  0  0
  146.2134   69.5949  217.7465 H   0  0  0  0  0  0  0  0  0  0  0  0
  144.2712   68.2527  218.5165 H   0  0  0  0  0  0  0  0  0  0  0  0
  142.5972   69.2483  220.0682 H   0  0  0  0  0  0  0  0  0  0  0  0
  146.4747   71.9234  218.5317 H   0  0  0  0  0  0  0  0  0  0  0  0
  145.3067   73.3152  221.2080 H   0  0  0  0  0  0  0  0  0  0  0  0
  145.5199   73.8563  219.5003 H   0  0  0  0  0  0  0  0  0  0  0  0
  143.6400   74.9479  220.8172 H   0  0  0  0  0  0  0  0  0  0  0  0
  143.2143   74.2121  219.2157 H   0  0  0  0  0  0  0  0  0  0  0  0
  137.0000   73.2950  221.4230 H   0  0  0  0  0  0  0  0  0  0  0  0
  138.3618   71.7809  223.5770 H   0  0  0  0  0  0  0  0  0  0  0  0
  136.6040   71.7297  223.1271 H   0  0  0  0  0  0  0  0  0  0  0  0
  137.0311   69.8004  222.0810 H   0  0  0  0  0  0  0  0  0  0  0  0
  137.9388   70.7476  220.8660 H   0  0  0  0  0  0  0  0  0  0  0  0
  138.8946   68.9283  222.9240 H   0  0  0  0  0  0  0  0  0  0  0  0
  139.7619   69.6904  221.5072 H   0  0  0  0  0  0  0  0  0  0  0  0
  140.9941   70.7378  223.0118 H   0  0  0  0  0  0  0  0  0  0  0  0
  139.5595   71.7589  223.3079 H   0  0  0  0  0  0  0  0  0  0  0  0
  138.7187   68.3250  224.2956 H   0  0  0  0  0  0  0  0  0  0  0  0
  140.1251   69.5191  228.9587 H   0  0  0  0  0  0  0  0  0  0  0  0
  141.4076   71.6515  229.3698 H   0  0  0  0  0  0  0  0  0  0  0  0
  141.9577   73.1250  227.4952 H   0  0  0  0  0  0  0  0  0  0  0  0
  141.2833   72.5762  225.1793 H   0  0  0  0  0  0  0  0  0  0  0  0
  139.2658   78.3346  221.2970 H   0  0  0  0  0  0  0  0  0  0  0  0
  138.2041   77.4023  222.3861 H   0  0  0  0  0  0  0  0  0  0  0  0
  138.3441   79.8006  223.1358 H   0  0  0  0  0  0  0  0  0  0  0  0
  139.0695   78.7702  224.3628 H   0  0  0  0  0  0  0  0  0  0  0  0
  139.6343   81.7333  222.8314 H   0  0  0  0  0  0  0  0  0  0  0  0
  141.8532   82.8139  222.4200 H   0  0  0  0  0  0  0  0  0  0  0  0
  143.9027   81.3810  222.4485 H   0  0  0  0  0  0  0  0  0  0  0  0
  143.7437   78.9470  222.8777 H   0  0  0  0  0  0  0  0  0  0  0  0
  142.3307   76.9586  223.0017 H   0  0  0  0  0  0  0  0  0  0  0  0
  141.3399   77.3116  224.4365 H   0  0  0  0  0  0  0  0  0  0  0  0
  142.9877   71.5603  222.0882 H   0  0  0  0  0  0  0  0  0  0  0  0
  141.6826   71.3074  220.8271 H   0  0  0  0  0  0  0  0  0  0  0  0
  1  2  2  0
  2  3  1  0
  3  4  2  0
  4  5  1  0
  5  6  2  0
  5  7  1  0
  7  8  1  0
  8  9  1  0
  9 10  1  0
 10 11  2  0
 11 12  1  0
 12 13  1  0
 13 14  1  0
 14 15  1  0
 15 16  1  0
 16 17  1  0
 17 18  1  0
 18 19  1  0
 19 20  2  0
 20 21  1  0
 21 22  2  0
 22 23  1  0
 23 24  2  0
 24 25  1  0
 25 26  2  0
 12 27  2  0
 27 28  1  0
 28 29  1  0
 29 30  1  0
 30 31  1  0
 31 32  1  0
 32 33  2  0
 33 34  1  0
 34 35  2  0
 35 36  1  0
 36 37  2  0
 37 38  1  0
 28 39  2  0
  9 40  1  0
  6  1  1  0
 39 10  1  0
 40  4  1  0
 26 18  1  0
 38 29  1  0
 26 21  1  0
 37 32  1  0
  1 41  1  0
  2 42  1  0
  3 43  1  0
  6 44  1  0
  7 45  1  0
  7 46  1  0
  8 47  1  0
  8 48  1  0
 13 49  1  0
 14 50  1  0
 14 51  1  0
 15 52  1  0
 15 53  1  0
 16 54  1  0
 16 55  1  0
 17 56  1  0
 17 57  1  0
 19 58  1  0
 22 59  1  0
 23 60  1  0
 24 61  1  0
 25 62  1  0
 30 63  1  0
 30 64  1  0
 31 65  1  0
 31 66  1  0
 33 67  1  0
 34 68  1  0
 35 69  1  0
 36 70  1  0
 38 71  1  0
 38 72  1  0
 40 73  1  0
 40 74  1  0
M  END
>  <smiles>  (22) 
c1ccc2c(c1)CCN(c1nc(NCCCCn3cnc4ccccc43)nc(N3CCc4ccccc4C3)n1)C2

>  <score_type>  (22) 
oracle

>  <origin>  (22) 
autodockgpu

>  <m_score__min__energy>  (22) 
-11.42

>  <m_primary>  (22) 
energy

>  <rmsd>  (22) 
5.140801822358788

>  <m_score__min__rmsd>  (22) 
5.140801822358788

>  <meeko>  (22) 
{"free_energy": -10.25, "intermolecular_energy": -12.64, "internal_energy": -1.72, "cluster_size": 18, "cluster_id": 1, "rank_in_cluster": 15}

>  <energy>  (22) 
-10.11

>  <cluster_rmsd>  (22) 
1.91

>  <cluster>  (22) 
2

$$$$

     RDKit          3D

 74 80  0  0  0  0  0  0  0  0999 V2000
  140.4840   68.3910  228.2550 C   0  0  0  0  0  0  0  0  0  0  0  0
  141.0430   69.6500  228.3510 C   0  0  0  0  0  0  0  0  0  0  0  0
  141.0270   70.5120  227.2680 C   0  0  0  0  0  0  0  0  0  0  0  0
  140.4430   70.0880  226.0960 C   0  0  0  0  0  0  0  0  0  0  0  0
  139.8720   68.8330  225.9650 C   0  0  0  0  0  0  0  0  0  0  0  0
  139.9070   68.0030  227.0630 C   0  0  0  0  0  0  0  0  0  0  0  0
  139.2460   68.4030  224.6820 C   0  0  0  0  0  0  0  0  0  0  0  0
  138.4870   69.5380  224.0600 C   0  0  0  0  0  0  0  0  0  0  0  0
  139.2640   70.7770  224.0670 N   0  0  0  0  0  0  0  0  0  0  0  0
  138.8810   71.8400  223.1900 C   0  0  0  0  0  0  0  0  0  0  0  0
  137.6050   72.2590  223.1080 N   0  0  0  0  0  0  0  0  0  0  0  0
  137.2120   73.2490  222.3020 C   0  0  0  0  0  0  0  0  0  0  0  0
  135.8450   73.6830  222.2280 N   0  0  0  0  0  0  0  0  0  0  0  0
  135.4460   74.8910  221.5800 C   0  0  0  0  0  0  0  0  0  0  0  0
  135.7210   76.1130  222.4370 C   0  0  0  0  0  0  0  0  0  0  0  0
  136.8540   76.8740  221.8220 C   0  0  0  0  0  0  0  0  0  0  0  0
  137.4530   77.8980  222.7340 C   0  0  0  0  0  0  0  0  0  0  0  0
  138.9010   77.7730  222.6620 N   0  0  0  0  0  0  0  0  0  0  0  0
  139.5840   76.6550  222.3280 C   0  0  0  0  0  0  0  0  0  0  0  0
  140.9030   76.9370  222.3750 N   0  0  0  0  0  0  0  0  0  0  0  0
  141.0380   78.2420  222.7420 C   0  0  0  0  0  0  0  0  0  0  0  0
  142.1750   79.0010  222.9290 C   0  0  0  0  0  0  0  0  0  0  0  0
  142.0050   80.3370  223.3120 C   0  0  0  0  0  0  0  0  0  0  0  0
  140.7500   80.8420  223.4870 C   0  0  0  0  0  0  0  0  0  0  0  0
  139.6190   80.0780  223.2980 C   0  0  0  0  0  0  0  0  0  0  0  0
  139.7750   78.7730  222.9240 C   0  0  0  0  0  0  0  0  0  0  0  0
  138.1790   73.8310  221.5460 N   0  0  0  0  0  0  0  0  0  0  0  0
  139.4650   73.4590  221.5810 C   0  0  0  0  0  0  0  0  0  0  0  0
  140.4690   74.0850  220.7760 N   0  0  0  0  0  0  0  0  0  0  0  0
  141.8500   74.0570  221.2140 C   0  0  0  0  0  0  0  0  0  0  0  0
  142.7370   74.2420  219.9770 C   0  0  0  0  0  0  0  0  0  0  0  0
  142.3590   75.6030  219.4530 C   0  0  0  0  0  0  0  0  0  0  0  0
  143.3200   76.5440  219.2090 C   0  0  0  0  0  0  0  0  0  0  0  0
  142.9490   77.7850  218.7290 C   0  0  0  0  0  0  0  0  0  0  0  0
  141.5930   78.0250  218.5130 C   0  0  0  0  0  0  0  0  0  0  0  0
  140.6350   77.0460  218.7720 C   0  0  0  0  0  0  0  0  0  0  0  0
  141.0080   75.8060  219.2510 C   0  0  0  0  0  0  0  0  0  0  0  0
  140.0360   74.7220  219.5470 C   0  0  0  0  0  0  0  0  0  0  0  0
  139.7970   72.4520  222.4180 N   0  0  0  0  0  0  0  0  0  0  0  0
  140.4070   70.9760  224.9260 C   0  0  0  0  0  0  0  0  0  0  0  0
  140.4984   67.7071  229.1164 H   0  0  0  0  0  0  0  0  0  0  0  0
  141.5051   69.9707  229.2963 H   0  0  0  0  0  0  0  0  0  0  0  0
  141.4719   71.5153  227.3425 H   0  0  0  0  0  0  0  0  0  0  0  0
  139.4615   67.0001  226.9878 H   0  0  0  0  0  0  0  0  0  0  0  0
  140.0330   68.0711  223.9888 H   0  0  0  0  0  0  0  0  0  0  0  0
  138.5475   67.5782  224.8864 H   0  0  0  0  0  0  0  0  0  0  0  0
  138.2432   69.2761  223.0198 H   0  0  0  0  0  0  0  0  0  0  0  0
  137.5732   69.7032  224.6497 H   0  0  0  0  0  0  0  0  0  0  0  0
  135.1390   73.0840  222.6660 H   0  0  0  0  0  0  0  0  0  0  0  0
  136.0012   74.9874  220.6353 H   0  0  0  0  0  0  0  0  0  0  0  0
  134.3620   74.8385  221.4007 H   0  0  0  0  0  0  0  0  0  0  0  0
  134.8242   76.7488  222.4767 H   0  0  0  0  0  0  0  0  0  0  0  0
  135.9821   75.8066  223.4607 H   0  0  0  0  0  0  0  0  0  0  0  0
  137.6400   76.1586  221.5385 H   0  0  0  0  0  0  0  0  0  0  0  0
  136.4466   77.4137  220.9544 H   0  0  0  0  0  0  0  0  0  0  0  0
  137.1491   78.9057  222.4144 H   0  0  0  0  0  0  0  0  0  0  0  0
  137.1068   77.7394  223.7660 H   0  0  0  0  0  0  0  0  0  0  0  0
  139.1411   75.6834  222.0636 H   0  0  0  0  0  0  0  0  0  0  0  0
  143.1775   78.5725  222.7827 H   0  0  0  0  0  0  0  0  0  0  0  0
  142.8835   80.9794  223.4718 H   0  0  0  0  0  0  0  0  0  0  0  0
  140.6371   81.8937  223.7889 H   0  0  0  0  0  0  0  0  0  0  0  0
  138.6169   80.5073  223.4444 H   0  0  0  0  0  0  0  0  0  0  0  0
  142.0321   74.8716  221.9304 H   0  0  0  0  0  0  0  0  0  0  0  0
  142.0767   73.1019  221.7105 H   0  0  0  0  0  0  0  0  0  0  0  0
  143.8016   74.2115  220.2520 H   0  0  0  0  0  0  0  0  0  0  0  0
  142.5912   73.4472  219.2307 H   0  0  0  0  0  0  0  0  0  0  0  0
  144.3800   76.3149  219.3933 H   0  0  0  0  0  0  0  0  0  0  0  0
  143.7013   78.5608  218.5233 H   0  0  0  0  0  0  0  0  0  0  0  0
  141.2728   79.0055  218.1309 H   0  0  0  0  0  0  0  0  0  0  0  0
  139.5717   77.2635  218.5930 H   0  0  0  0  0  0  0  0  0  0  0  0
  139.0281   75.1436  219.6753 H   0  0  0  0  0  0  0  0  0  0  0  0
  139.9966   73.9954  218.7221 H   0  0  0  0  0  0  0  0  0  0  0  0
  141.3178   70.8034  224.3338 H   0  0  0  0  0  0  0  0  0  0  0  0
  140.3376   72.0039  225.3114 H   0  0  0  0  0  0  0  0  0  0  0  0
  1  2  2  0
  2  3  1  0
  3  4  2  0
  4  5  1  0
  5  6  2  0
  5  7  1  0
  7  8  1  0
  8  9  1  0
  9 10  1  0
 10 11  2  0
 11 12  1  0
 12 13  1  0
 13 14  1  0
 14 15  1  0
 15 16  1  0
 16 17  1  0
 17 18  1  0
 18 19  1  0
 19 20  2  0
 20 21  1  0
 21 22  2  0
 22 23  1  0
 23 24  2  0
 24 25  1  0
 25 26  2  0
 12 27  2  0
 27 28  1  0
 28 29  1  0
 29 30  1  0
 30 31  1  0
 31 32  1  0
 32 33  2  0
 33 34  1  0
 34 35  2  0
 35 36  1  0
 36 37  2  0
 37 38  1  0
 28 39  2  0
  9 40  1  0
  6  1  1  0
 39 10  1  0
 40  4  1  0
 26 18  1  0
 38 29  1  0
 26 21  1  0
 37 32  1  0
  1 41  1  0
  2 42  1  0
  3 43  1  0
  6 44  1  0
  7 45  1  0
  7 46  1  0
  8 47  1  0
  8 48  1  0
 13 49  1  0
 14 50  1  0
 14 51  1  0
 15 52  1  0
 15 53  1  0
 16 54  1  0
 16 55  1  0
 17 56  1  0
 17 57  1  0
 19 58  1  0
 22 59  1  0
 23 60  1  0
 24 61  1  0
 25 62  1  0
 30 63  1  0
 30 64  1  0
 31 65  1  0
 31 66  1  0
 33 67  1  0
 34 68  1  0
 35 69  1  0
 36 70  1  0
 38 71  1  0
 38 72  1  0
 40 73  1  0
 40 74  1  0
M  END
>  <smiles>  (23) 
c1ccc2c(c1)CCN(c1nc(NCCCCn3cnc4ccccc43)nc(N3CCc4ccccc4C3)n1)C2

>  <score_type>  (23) 
oracle

>  <origin>  (23) 
autodockgpu

>  <m_score__min__energy>  (23) 
-11.42

>  <m_primary>  (23) 
energy

>  <rmsd>  (23) 
9.541323264411783

>  <m_score__min__rmsd>  (23) 
9.541323264411783

>  <meeko>  (23) 
{"free_energy": -8.96, "intermolecular_energy": -11.35, "internal_energy": -2.59, "cluster_size": 1, "cluster_id": 6, "rank_in_cluster": 1}

>  <energy>  (23) 
-10.02

>  <cluster_rmsd>  (23) 
1.51

>  <cluster>  (23) 
2

$$$$

     RDKit          3D

 74 80  0  0  0  0  0  0  0  0999 V2000
  141.4070   81.7150  222.8190 C   0  0  0  0  0  0  0  0  0  0  0  0
  142.5490   80.9440  222.9080 C   0  0  0  0  0  0  0  0  0  0  0  0
  142.4630   79.5660  222.9960 C   0  0  0  0  0  0  0  0  0  0  0  0
  141.2170   78.9810  222.9930 C   0  0  0  0  0  0  0  0  0  0  0  0
  140.0510   79.7230  222.9050 C   0  0  0  0  0  0  0  0  0  0  0  0
  140.1760   81.0910  222.8190 C   0  0  0  0  0  0  0  0  0  0  0  0
  138.7150   79.0610  222.9040 C   0  0  0  0  0  0  0  0  0  0  0  0
  138.7540   77.7990  222.0920 C   0  0  0  0  0  0  0  0  0  0  0  0
  139.9270   76.9860  222.4110 N   0  0  0  0  0  0  0  0  0  0  0  0
  139.9330   75.6040  222.0420 C   0  0  0  0  0  0  0  0  0  0  0  0
  138.7990   74.8800  222.0070 N   0  0  0  0  0  0  0  0  0  0  0  0
  138.7670   73.5890  221.6670 C   0  0  0  0  0  0  0  0  0  0  0  0
  137.5470   72.8320  221.6350 N   0  0  0  0  0  0  0  0  0  0  0  0
  136.8110   72.4920  222.8110 C   0  0  0  0  0  0  0  0  0  0  0  0
  137.4080   71.2960  223.5270 C   0  0  0  0  0  0  0  0  0  0  0  0
  138.1680   70.4790  222.5280 C   0  0  0  0  0  0  0  0  0  0  0  0
  139.5730   70.1780  222.9450 C   0  0  0  0  0  0  0  0  0  0  0  0
  139.5220   69.4140  224.1830 N   0  0  0  0  0  0  0  0  0  0  0  0
  139.0590   68.1510  224.3150 C   0  0  0  0  0  0  0  0  0  0  0  0
  139.1760   67.7920  225.6100 N   0  0  0  0  0  0  0  0  0  0  0  0
  139.7170   68.8430  226.2870 C   0  0  0  0  0  0  0  0  0  0  0  0
  140.0320   68.9740  227.6240 C   0  0  0  0  0  0  0  0  0  0  0  0
  140.5860   70.1900  228.0420 C   0  0  0  0  0  0  0  0  0  0  0  0
  140.7940   71.1910  227.1390 C   0  0  0  0  0  0  0  0  0  0  0  0
  140.4770   71.0530  225.8050 C   0  0  0  0  0  0  0  0  0  0  0  0
  139.9370   69.8700  225.3880 C   0  0  0  0  0  0  0  0  0  0  0  0
  139.9590   73.0200  221.3480 N   0  0  0  0  0  0  0  0  0  0  0  0
  141.1200   73.6860  221.3640 C   0  0  0  0  0  0  0  0  0  0  0  0
  142.3660   73.0680  221.0250 N   0  0  0  0  0  0  0  0  0  0  0  0
  143.4420   73.8820  220.4970 C   0  0  0  0  0  0  0  0  0  0  0  0
  144.7610   73.1490  220.7710 C   0  0  0  0  0  0  0  0  0  0  0  0
  144.6300   71.8570  220.0070 C   0  0  0  0  0  0  0  0  0  0  0  0
  145.6040   71.4680  219.1300 C   0  0  0  0  0  0  0  0  0  0  0  0
  145.4610   70.2790  218.4400 C   0  0  0  0  0  0  0  0  0  0  0  0
  144.3140   69.5210  218.6720 C   0  0  0  0  0  0  0  0  0  0  0  0
  143.3380   69.9440  219.5720 C   0  0  0  0  0  0  0  0  0  0  0  0
  143.4830   71.1310  220.2610 C   0  0  0  0  0  0  0  0  0  0  0  0
  142.4780   71.6370  221.2320 C   0  0  0  0  0  0  0  0  0  0  0  0
  141.0840   74.9900  221.7170 N   0  0  0  0  0  0  0  0  0  0  0  0
  141.0870   77.5200  223.0850 C   0  0  0  0  0  0  0  0  0  0  0  0
  141.4773   82.8105  222.7491 H   0  0  0  0  0  0  0  0  0  0  0  0
  143.5359   81.4297  222.9090 H   0  0  0  0  0  0  0  0  0  0  0  0
  143.3718   78.9504  223.0669 H   0  0  0  0  0  0  0  0  0  0  0  0
  139.2667   81.7059  222.7481 H   0  0  0  0  0  0  0  0  0  0  0  0
  138.4311   78.8172  223.9384 H   0  0  0  0  0  0  0  0  0  0  0  0
  137.9785   79.7469  222.4601 H   0  0  0  0  0  0  0  0  0  0  0  0
  137.8468   77.2129  222.3004 H   0  0  0  0  0  0  0  0  0  0  0  0
  138.8085   78.0770  221.0291 H   0  0  0  0  0  0  0  0  0  0  0  0
  137.2060   72.5330  220.7170 H   0  0  0  0  0  0  0  0  0  0  0  0
  136.8152   73.3539  223.4945 H   0  0  0  0  0  0  0  0  0  0  0  0
  135.7865   72.2306  222.5077 H   0  0  0  0  0  0  0  0  0  0  0  0
  138.0879   71.6393  224.3207 H   0  0  0  0  0  0  0  0  0  0  0  0
  136.6103   70.6907  223.9823 H   0  0  0  0  0  0  0  0  0  0  0  0
  137.6371   69.5268  222.3816 H   0  0  0  0  0  0  0  0  0  0  0  0
  138.2260   71.0721  221.6034 H   0  0  0  0  0  0  0  0  0  0  0  0
  140.0761   69.5893  222.1637 H   0  0  0  0  0  0  0  0  0  0  0  0
  140.1348   71.1117  223.0956 H   0  0  0  0  0  0  0  0  0  0  0  0
  138.6562   67.5240  223.5059 H   0  0  0  0  0  0  0  0  0  0  0  0
  139.8545   68.1536  228.3350 H   0  0  0  0  0  0  0  0  0  0  0  0
  140.8535   70.3381  229.0986 H   0  0  0  0  0  0  0  0  0  0  0  0
  141.2290   72.1395  227.4871 H   0  0  0  0  0  0  0  0  0  0  0  0
  140.6543   71.8741  225.0948 H   0  0  0  0  0  0  0  0  0  0  0  0
  143.3092   74.0214  219.4140 H   0  0  0  0  0  0  0  0  0  0  0  0
  143.4457   74.8723  220.9758 H   0  0  0  0  0  0  0  0  0  0  0  0
  145.6166   73.7346  220.4037 H   0  0  0  0  0  0  0  0  0  0  0  0
  144.9391   72.9881  221.8445 H   0  0  0  0  0  0  0  0  0  0  0  0
  146.4938   72.0959  218.9749 H   0  0  0  0  0  0  0  0  0  0  0  0
  146.2292   69.9408  217.7290 H   0  0  0  0  0  0  0  0  0  0  0  0
  144.1770   68.5712  218.1344 H   0  0  0  0  0  0  0  0  0  0  0  0
  142.4430   69.3257  219.7350 H   0  0  0  0  0  0  0  0  0  0  0  0
  141.5060   71.1532  221.0553 H   0  0  0  0  0  0  0  0  0  0  0  0
  142.7852   71.4142  222.2645 H   0  0  0  0  0  0  0  0  0  0  0  0
  141.0252   77.2453  224.1484 H   0  0  0  0  0  0  0  0  0  0  0  0
  141.9684   77.0918  222.5852 H   0  0  0  0  0  0  0  0  0  0  0  0
  1  2  2  0
  2  3  1  0
  3  4  2  0
  4  5  1  0
  5  6  2  0
  5  7  1  0
  7  8  1  0
  8  9  1  0
  9 10  1  0
 10 11  2  0
 11 12  1  0
 12 13  1  0
 13 14  1  0
 14 15  1  0
 15 16  1  0
 16 17  1  0
 17 18  1  0
 18 19  1  0
 19 20  2  0
 20 21  1  0
 21 22  2  0
 22 23  1  0
 23 24  2  0
 24 25  1  0
 25 26  2  0
 12 27  2  0
 27 28  1  0
 28 29  1  0
 29 30  1  0
 30 31  1  0
 31 32  1  0
 32 33  2  0
 33 34  1  0
 34 35  2  0
 35 36  1  0
 36 37  2  0
 37 38  1  0
 28 39  2  0
  9 40  1  0
  6  1  1  0
 39 10  1  0
 40  4  1  0
 26 18  1  0
 38 29  1  0
 26 21  1  0
 37 32  1  0
  1 41  1  0
  2 42  1  0
  3 43  1  0
  6 44  1  0
  7 45  1  0
  7 46  1  0
  8 47  1  0
  8 48  1  0
 13 49  1  0
 14 50  1  0
 14 51  1  0
 15 52  1  0
 15 53  1  0
 16 54  1  0
 16 55  1  0
 17 56  1  0
 17 57  1  0
 19 58  1  0
 22 59  1  0
 23 60  1  0
 24 61  1  0
 25 62  1  0
 30 63  1  0
 30 64  1  0
 31 65  1  0
 31 66  1  0
 33 67  1  0
 34 68  1  0
 35 69  1  0
 36 70  1  0
 38 71  1  0
 38 72  1  0
 40 73  1  0
 40 74  1  0
M  END
>  <smiles>  (24) 
c1ccc2c(c1)CCN(c1nc(NCCCCn3cnc4ccccc43)nc(N3CCc4ccccc4C3)n1)C2

>  <score_type>  (24) 
oracle

>  <origin>  (24) 
autodockgpu

>  <m_score__min__energy>  (24) 
-11.42

>  <m_primary>  (24) 
energy

>  <rmsd>  (24) 
4.7497623711647154

>  <m_score__min__rmsd>  (24) 
4.7497623711647154

>  <meeko>  (24) 
{"free_energy": -10.42, "intermolecular_energy": -12.81, "internal_energy": -1.65, "cluster_size": 18, "cluster_id": 1, "rank_in_cluster": 13}

>  <energy>  (24) 
-9.9

>  <cluster_rmsd>  (24) 
1.9

>  <cluster>  (24) 
2

$$$$

     RDKit          3D

 74 80  0  0  0  0  0  0  0  0999 V2000
  141.5410   81.2880  223.0610 C   0  0  0  0  0  0  0  0  0  0  0  0
  142.6550   80.4720  223.0430 C   0  0  0  0  0  0  0  0  0  0  0  0
  142.5200   79.0980  222.9580 C   0  0  0  0  0  0  0  0  0  0  0  0
  141.2540   78.5620  222.8910 C   0  0  0  0  0  0  0  0  0  0  0  0
  140.1150   79.3500  222.9060 C   0  0  0  0  0  0  0  0  0  0  0  0
  140.2880   80.7120  222.9920 C   0  0  0  0  0  0  0  0  0  0  0  0
  138.7560   78.7400  222.8330 C   0  0  0  0  0  0  0  0  0  0  0  0
  138.7470   77.5900  221.8680 C   0  0  0  0  0  0  0  0  0  0  0  0
  139.8910   76.7030  222.0730 N   0  0  0  0  0  0  0  0  0  0  0  0
  139.8470   75.3790  221.5320 C   0  0  0  0  0  0  0  0  0  0  0  0
  139.8890   75.1590  220.2060 N   0  0  0  0  0  0  0  0  0  0  0  0
  139.8500   73.9380  219.6660 C   0  0  0  0  0  0  0  0  0  0  0  0
  139.8960   73.7220  218.2470 N   0  0  0  0  0  0  0  0  0  0  0  0
  140.4500   72.5460  217.6560 C   0  0  0  0  0  0  0  0  0  0  0  0
  141.9050   72.7350  217.2710 C   0  0  0  0  0  0  0  0  0  0  0  0
  142.0160   73.9820  216.4490 C   0  0  0  0  0  0  0  0  0  0  0  0
  143.0220   74.9580  216.9730 C   0  0  0  0  0  0  0  0  0  0  0  0
  144.1600   74.2040  217.4780 N   0  0  0  0  0  0  0  0  0  0  0  0
  145.1500   73.6680  216.7300 C   0  0  0  0  0  0  0  0  0  0  0  0
  146.0170   73.0490  217.5580 N   0  0  0  0  0  0  0  0  0  0  0  0
  145.5590   73.2030  218.8320 C   0  0  0  0  0  0  0  0  0  0  0  0
  146.0860   72.7570  220.0270 C   0  0  0  0  0  0  0  0  0  0  0  0
  145.3870   73.0710  221.1990 C   0  0  0  0  0  0  0  0  0  0  0  0
  144.2300   73.7920  221.1310 C   0  0  0  0  0  0  0  0  0  0  0  0
  143.7110   74.2340  219.9330 C   0  0  0  0  0  0  0  0  0  0  0  0
  144.3860   73.9330  218.7850 C   0  0  0  0  0  0  0  0  0  0  0  0
  139.7650   72.8970  220.5360 N   0  0  0  0  0  0  0  0  0  0  0  0
  139.7200   73.0510  221.8650 C   0  0  0  0  0  0  0  0  0  0  0  0
  139.6290   71.9410  222.7640 N   0  0  0  0  0  0  0  0  0  0  0  0
  138.3490   71.2930  222.9660 C   0  0  0  0  0  0  0  0  0  0  0  0
  138.6200   69.8670  223.4610 C   0  0  0  0  0  0  0  0  0  0  0  0
  139.3440   70.0610  224.7670 C   0  0  0  0  0  0  0  0  0  0  0  0
  138.9050   69.4400  225.9040 C   0  0  0  0  0  0  0  0  0  0  0  0
  139.5860   69.6340  227.0900 C   0  0  0  0  0  0  0  0  0  0  0  0
  140.7040   70.4660  227.0750 C   0  0  0  0  0  0  0  0  0  0  0  0
  141.1270   71.0870  225.9010 C   0  0  0  0  0  0  0  0  0  0  0  0
  140.4460   70.8910  224.7170 C   0  0  0  0  0  0  0  0  0  0  0  0
  140.8470   71.5240  223.4340 C   0  0  0  0  0  0  0  0  0  0  0  0
  139.7620   74.3120  222.3470 N   0  0  0  0  0  0  0  0  0  0  0  0
  141.0720   77.1070  222.7990 C   0  0  0  0  0  0  0  0  0  0  0  0
  141.6502   82.3804  223.1293 H   0  0  0  0  0  0  0  0  0  0  0  0
  143.6588   80.9187  223.0967 H   0  0  0  0  0  0  0  0  0  0  0  0
  143.4065   78.4469  222.9442 H   0  0  0  0  0  0  0  0  0  0  0  0
  139.4009   81.3622  223.0062 H   0  0  0  0  0  0  0  0  0  0  0  0
  138.4678   78.3775  223.8308 H   0  0  0  0  0  0  0  0  0  0  0  0
  138.0424   79.5016  222.4855 H   0  0  0  0  0  0  0  0  0  0  0  0
  137.8201   77.0144  222.0080 H   0  0  0  0  0  0  0  0  0  0  0  0
  138.8077   77.9977  220.8481 H   0  0  0  0  0  0  0  0  0  0  0  0
  139.5080   74.4570  217.6490 H   0  0  0  0  0  0  0  0  0  0  0  0
  140.3781   71.7185  218.3771 H   0  0  0  0  0  0  0  0  0  0  0  0
  139.8819   72.3261  216.7401 H   0  0  0  0  0  0  0  0  0  0  0  0
  142.5202   72.8313  218.1778 H   0  0  0  0  0  0  0  0  0  0  0  0
  142.2600   71.8682  216.6943 H   0  0  0  0  0  0  0  0  0  0  0  0
  142.3058   73.6995  215.4261 H   0  0  0  0  0  0  0  0  0  0  0  0
  141.0356   74.4795  216.4841 H   0  0  0  0  0  0  0  0  0  0  0  0
  143.3478   75.6286  216.1642 H   0  0  0  0  0  0  0  0  0  0  0  0
  142.5810   75.5673  217.7756 H   0  0  0  0  0  0  0  0  0  0  0  0
  145.2343   73.7264  215.6348 H   0  0  0  0  0  0  0  0  0  0  0  0
  147.0200   72.1767  220.0576 H   0  0  0  0  0  0  0  0  0  0  0  0
  145.7702   72.7367  222.1744 H   0  0  0  0  0  0  0  0  0  0  0  0
  143.6944   74.0279  222.0624 H   0  0  0  0  0  0  0  0  0  0  0  0
  142.7770   74.8143  219.9026 H   0  0  0  0  0  0  0  0  0  0  0  0
  137.7641   71.8450  223.7164 H   0  0  0  0  0  0  0  0  0  0  0  0
  137.7759   71.2721  222.0273 H   0  0  0  0  0  0  0  0  0  0  0  0
  137.6772   69.3216  223.6148 H   0  0  0  0  0  0  0  0  0  0  0  0
  139.2024   69.2742  222.7403 H   0  0  0  0  0  0  0  0  0  0  0  0
  138.0170   68.7915  225.8741 H   0  0  0  0  0  0  0  0  0  0  0  0
  139.2556   69.1462  228.0189 H   0  0  0  0  0  0  0  0  0  0  0  0
  141.2630   70.6358  228.0070 H   0  0  0  0  0  0  0  0  0  0  0  0
  142.0123   71.7396  225.9185 H   0  0  0  0  0  0  0  0  0  0  0  0
  141.4884   72.3964  223.6281 H   0  0  0  0  0  0  0  0  0  0  0  0
  141.4146   70.8180  222.8101 H   0  0  0  0  0  0  0  0  0  0  0  0
  141.0047   76.7025  223.8197 H   0  0  0  0  0  0  0  0  0  0  0  0
  141.9354   76.7151  222.2414 H   0  0  0  0  0  0  0  0  0  0  0  0
  1  2  2  0
  2  3  1  0
  3  4  2  0
  4  5  1  0
  5  6  2  0
  5  7  1  0
  7  8  1  0
  8  9  1  0
  9 10  1  0
 10 11  2  0
 11 12  1  0
 12 13  1  0
 13 14  1  0
 14 15  1  0
 15 16  1  0
 16 17  1  0
 17 18  1  0
 18 19  1  0
 19 20  2  0
 20 21  1  0
 21 22  2  0
 22 23  1  0
 23 24  2  0
 24 25  1  0
 25 26  2  0
 12 27  2  0
 27 28  1  0
 28 29  1  0
 29 30  1  0
 30 31  1  0
 31 32  1  0
 32 33  2  0
 33 34  1  0
 34 35  2  0
 35 36  1  0
 36 37  2  0
 37 38  1  0
 28 39  2  0
  9 40  1  0
  6  1  1  0
 39 10  1  0
 40  4  1  0
 26 18  1  0
 38 29  1  0
 26 21  1  0
 37 32  1  0
  1 41  1  0
  2 42  1  0
  3 43  1  0
  6 44  1  0
  7 45  1  0
  7 46  1  0
  8 47  1  0
  8 48  1  0
 13 49  1  0
 14 50  1  0
 14 51  1  0
 15 52  1  0
 15 53  1  0
 16 54  1  0
 16 55  1  0
 17 56  1  0
 17 57  1  0
 19 58  1  0
 22 59  1  0
 23 60  1  0
 24 61  1  0
 25 62  1  0
 30 63  1  0
 30 64  1  0
 31 65  1  0
 31 66  1  0
 33 67  1  0
 34 68  1  0
 35 69  1  0
 36 70  1  0
 38 71  1  0
 38 72  1  0
 40 73  1  0
 40 74  1  0
M  END
>  <smiles>  (25) 
c1ccc2c(c1)CCN(c1nc(NCCCCn3cnc4ccccc43)nc(N3CCc4ccccc4C3)n1)C2

>  <score_type>  (25) 
oracle

>  <origin>  (25) 
autodockgpu

>  <m_score__min__energy>  (25) 
-11.42

>  <m_primary>  (25) 
energy

>  <rmsd>  (25) 
9.212823167512381

>  <m_score__min__rmsd>  (25) 
9.212823167512381

>  <meeko>  (25) 
{"free_energy": -9.47, "intermolecular_energy": -11.86, "internal_energy": -1.82, "cluster_size": 14, "cluster_id": 4, "rank_in_cluster": 4}

>  <energy>  (25) 
-9.84

>  <cluster_rmsd>  (25) 
1.67

>  <cluster>  (25) 
2

$$$$

     RDKit          3D

 74 80  0  0  0  0  0  0  0  0999 V2000
  141.9950   81.4710  222.4510 C   0  0  0  0  0  0  0  0  0  0  0  0
  142.6700   80.7400  223.4080 C   0  0  0  0  0  0  0  0  0  0  0  0
  142.3820   79.4010  223.6040 C   0  0  0  0  0  0  0  0  0  0  0  0
  141.4100   78.8140  222.8270 C   0  0  0  0  0  0  0  0  0  0  0  0
  140.7130   79.5170  221.8580 C   0  0  0  0  0  0  0  0  0  0  0  0
  141.0260   80.8470  221.6910 C   0  0  0  0  0  0  0  0  0  0  0  0
  139.6640   78.8530  221.0310 C   0  0  0  0  0  0  0  0  0  0  0  0
  140.0900   77.4640  220.6560 C   0  0  0  0  0  0  0  0  0  0  0  0
  140.6270   76.7350  221.8040 N   0  0  0  0  0  0  0  0  0  0  0  0
  140.7160   75.3090  221.7390 C   0  0  0  0  0  0  0  0  0  0  0  0
  139.7430   74.5200  222.2330 N   0  0  0  0  0  0  0  0  0  0  0  0
  139.7910   73.1860  222.1890 C   0  0  0  0  0  0  0  0  0  0  0  0
  138.7420   72.3610  222.7200 N   0  0  0  0  0  0  0  0  0  0  0  0
  137.8060   71.6670  221.8960 C   0  0  0  0  0  0  0  0  0  0  0  0
  137.7730   70.1810  222.2020 C   0  0  0  0  0  0  0  0  0  0  0  0
  138.1340   69.9890  223.6420 C   0  0  0  0  0  0  0  0  0  0  0  0
  139.2010   68.9630  223.8610 C   0  0  0  0  0  0  0  0  0  0  0  0
  139.4810   68.9020  225.2880 N   0  0  0  0  0  0  0  0  0  0  0  0
  139.2230   67.8540  226.1020 C   0  0  0  0  0  0  0  0  0  0  0  0
  139.6240   68.1800  227.3490 N   0  0  0  0  0  0  0  0  0  0  0  0
  140.1360   69.4410  227.3060 C   0  0  0  0  0  0  0  0  0  0  0  0
  140.6730   70.2180  228.3120 C   0  0  0  0  0  0  0  0  0  0  0  0
  141.1280   71.4970  227.9690 C   0  0  0  0  0  0  0  0  0  0  0  0
  141.0310   71.9320  226.6790 C   0  0  0  0  0  0  0  0  0  0  0  0
  140.4940   71.1500  225.6800 C   0  0  0  0  0  0  0  0  0  0  0  0
  140.0480   69.9010  226.0060 C   0  0  0  0  0  0  0  0  0  0  0  0
  140.8930   72.6410  221.6100 N   0  0  0  0  0  0  0  0  0  0  0  0
  141.8940   73.3710  221.1020 C   0  0  0  0  0  0  0  0  0  0  0  0
  143.0470   72.7780  220.4960 N   0  0  0  0  0  0  0  0  0  0  0  0
  143.6950   73.4530  219.3900 C   0  0  0  0  0  0  0  0  0  0  0  0
  145.1470   72.9620  219.3270 C   0  0  0  0  0  0  0  0  0  0  0  0
  145.0240   71.4830  219.0680 C   0  0  0  0  0  0  0  0  0  0  0  0
  145.6990   70.9030  218.0300 C   0  0  0  0  0  0  0  0  0  0  0  0
  145.5720   69.5450  217.8110 C   0  0  0  0  0  0  0  0  0  0  0  0
  144.7480   68.8180  218.6690 C   0  0  0  0  0  0  0  0  0  0  0  0
  144.0720   69.4370  219.7180 C   0  0  0  0  0  0  0  0  0  0  0  0
  144.2010   70.7940  219.9360 C   0  0  0  0  0  0  0  0  0  0  0  0
  143.5070   71.5120  221.0360 C   0  0  0  0  0  0  0  0  0  0  0  0
  141.7840   74.7150  221.1780 N   0  0  0  0  0  0  0  0  0  0  0  0
  141.0770   77.3950  223.0080 C   0  0  0  0  0  0  0  0  0  0  0  0
  142.2259   82.5353  222.2963 H   0  0  0  0  0  0  0  0  0  0  0  0
  143.4437   81.2264  224.0202 H   0  0  0  0  0  0  0  0  0  0  0  0
  142.9195   78.8173  224.3659 H   0  0  0  0  0  0  0  0  0  0  0  0
  140.4879   81.4301  220.9291 H   0  0  0  0  0  0  0  0  0  0  0  0
  138.7282   78.8013  221.6069 H   0  0  0  0  0  0  0  0  0  0  0  0
  139.5126   79.4384  220.1121 H   0  0  0  0  0  0  0  0  0  0  0  0
  139.2198   76.9182  220.2624 H   0  0  0  0  0  0  0  0  0  0  0  0
  140.8828   77.5413  219.8973 H   0  0  0  0  0  0  0  0  0  0  0  0
  138.6820   72.2800  223.7390 H   0  0  0  0  0  0  0  0  0  0  0  0
  136.8036   72.0870  222.0655 H   0  0  0  0  0  0  0  0  0  0  0  0
  138.1172   71.7917  220.8483 H   0  0  0  0  0  0  0  0  0  0  0  0
  136.7637   69.7853  222.0157 H   0  0  0  0  0  0  0  0  0  0  0  0
  138.4863   69.6457  221.5580 H   0  0  0  0  0  0  0  0  0  0  0  0
  138.4884   70.9502  224.0427 H   0  0  0  0  0  0  0  0  0  0  0  0
  137.2304   69.6290  224.1556 H   0  0  0  0  0  0  0  0  0  0  0  0
  138.8532   67.9814  223.5066 H   0  0  0  0  0  0  0  0  0  0  0  0
  140.1106   69.2332  223.3046 H   0  0  0  0  0  0  0  0  0  0  0  0
  138.7654   66.9003  225.8003 H   0  0  0  0  0  0  0  0  0  0  0  0
  140.7411   69.8464  229.3451 H   0  0  0  0  0  0  0  0  0  0  0  0
  141.5635   72.1509  228.7389 H   0  0  0  0  0  0  0  0  0  0  0  0
  141.3935   72.9400  226.4288 H   0  0  0  0  0  0  0  0  0  0  0  0
  140.4262   71.5218  224.6470 H   0  0  0  0  0  0  0  0  0  0  0  0
  143.1774   73.2123  218.4497 H   0  0  0  0  0  0  0  0  0  0  0  0
  143.6639   74.5431  219.5337 H   0  0  0  0  0  0  0  0  0  0  0  0
  145.6916   73.4575  218.5098 H   0  0  0  0  0  0  0  0  0  0  0  0
  145.7080   73.1843  220.2467 H   0  0  0  0  0  0  0  0  0  0  0  0
  146.3381   71.5129  217.3745 H   0  0  0  0  0  0  0  0  0  0  0  0
  146.1050   69.0521  216.9846 H   0  0  0  0  0  0  0  0  0  0  0  0
  144.6294   67.7353  218.5148 H   0  0  0  0  0  0  0  0  0  0  0  0
  143.4287   68.8382  220.3795 H   0  0  0  0  0  0  0  0  0  0  0  0
  142.6508   70.9201  221.3917 H   0  0  0  0  0  0  0  0  0  0  0  0
  144.1848   71.6727  221.8874 H   0  0  0  0  0  0  0  0  0  0  0  0
  140.2786   77.3212  223.7611 H   0  0  0  0  0  0  0  0  0  0  0  0
  142.0033   76.8896  223.3187 H   0  0  0  0  0  0  0  0  0  0  0  0
  1  2  2  0
  2  3  1  0
  3  4  2  0
  4  5  1  0
  5  6  2  0
  5  7  1  0
  7  8  1  0
  8  9  1  0
  9 10  1  0
 10 11  2  0
 11 12  1  0
 12 13  1  0
 13 14  1  0
 14 15  1  0
 15 16  1  0
 16 17  1  0
 17 18  1  0
 18 19  1  0
 19 20  2  0
 20 21  1  0
 21 22  2  0
 22 23  1  0
 23 24  2  0
 24 25  1  0
 25 26  2  0
 12 27  2  0
 27 28  1  0
 28 29  1  0
 29 30  1  0
 30 31  1  0
 31 32  1  0
 32 33  2  0
 33 34  1  0
 34 35  2  0
 35 36  1  0
 36 37  2  0
 37 38  1  0
 28 39  2  0
  9 40  1  0
  6  1  1  0
 39 10  1  0
 40  4  1  0
 26 18  1  0
 38 29  1  0
 26 21  1  0
 37 32  1  0
  1 41  1  0
  2 42  1  0
  3 43  1  0
  6 44  1  0
  7 45  1  0
  7 46  1  0
  8 47  1  0
  8 48  1  0
 13 49  1  0
 14 50  1  0
 14 51  1  0
 15 52  1  0
 15 53  1  0
 16 54  1  0
 16 55  1  0
 17 56  1  0
 17 57  1  0
 19 58  1  0
 22 59  1  0
 23 60  1  0
 24 61  1  0
 25 62  1  0
 30 63  1  0
 30 64  1  0
 31 65  1  0
 31 66  1  0
 33 67  1  0
 34 68  1  0
 35 69  1  0
 36 70  1  0
 38 71  1  0
 38 72  1  0
 40 73  1  0
 40 74  1  0
M  END
>  <smiles>  (26) 
c1ccc2c(c1)CCN(c1nc(NCCCCn3cnc4ccccc43)nc(N3CCc4ccccc4C3)n1)C2

>  <score_type>  (26) 
oracle

>  <origin>  (26) 
autodockgpu

>  <m_score__min__energy>  (26) 
-11.42

>  <m_primary>  (26) 
energy

>  <rmsd>  (26) 
5.332430954519786

>  <m_score__min__rmsd>  (26) 
5.332430954519786

>  <meeko>  (26) 
{"free_energy": -10.63, "intermolecular_energy": -13.01, "internal_energy": -1.37, "cluster_size": 18, "cluster_id": 1, "rank_in_cluster": 8}

>  <energy>  (26) 
-9.62

>  <cluster_rmsd>  (26) 
1.96

>  <cluster>  (26) 
2

$$$$

     RDKit          3D

 74 80  0  0  0  0  0  0  0  0999 V2000
  145.8760   68.8210  217.9550 C   0  0  0  0  0  0  0  0  0  0  0  0
  145.0550   68.2000  218.8750 C   0  0  0  0  0  0  0  0  0  0  0  0
  144.3300   68.9460  219.7870 C   0  0  0  0  0  0  0  0  0  0  0  0
  144.4420   70.3170  219.7570 C   0  0  0  0  0  0  0  0  0  0  0  0
  145.2560   70.9730  218.8470 C   0  0  0  0  0  0  0  0  0  0  0  0
  145.9620   70.1990  217.9560 C   0  0  0  0  0  0  0  0  0  0  0  0
  145.3570   72.4610  218.8400 C   0  0  0  0  0  0  0  0  0  0  0  0
  144.0140   73.0820  219.0870 C   0  0  0  0  0  0  0  0  0  0  0  0
  143.3200   72.4440  220.2050 N   0  0  0  0  0  0  0  0  0  0  0  0
  142.2320   73.1320  220.8290 C   0  0  0  0  0  0  0  0  0  0  0  0
  141.2060   72.4640  221.3870 N   0  0  0  0  0  0  0  0  0  0  0  0
  140.1740   73.0730  221.9790 C   0  0  0  0  0  0  0  0  0  0  0  0
  139.0870   72.3440  222.5700 N   0  0  0  0  0  0  0  0  0  0  0  0
  138.6010   71.1100  222.0430 C   0  0  0  0  0  0  0  0  0  0  0  0
  137.4500   70.5570  222.8620 C   0  0  0  0  0  0  0  0  0  0  0  0
  137.9600   69.4080  223.6760 C   0  0  0  0  0  0  0  0  0  0  0  0
  139.4480   69.3990  223.8320 C   0  0  0  0  0  0  0  0  0  0  0  0
  139.7510   69.2590  225.2490 N   0  0  0  0  0  0  0  0  0  0  0  0
  139.5650   68.1460  225.9930 C   0  0  0  0  0  0  0  0  0  0  0  0
  139.9640   68.4100  227.2550 N   0  0  0  0  0  0  0  0  0  0  0  0
  140.4010   69.6990  227.2930 C   0  0  0  0  0  0  0  0  0  0  0  0
  140.9050   70.4380  228.3440 C   0  0  0  0  0  0  0  0  0  0  0  0
  141.2800   71.7610  228.0830 C   0  0  0  0  0  0  0  0  0  0  0  0
  141.1400   72.2750  226.8270 C   0  0  0  0  0  0  0  0  0  0  0  0
  140.6360   71.5310  225.7820 C   0  0  0  0  0  0  0  0  0  0  0  0
  140.2680   70.2390  226.0270 C   0  0  0  0  0  0  0  0  0  0  0  0
  140.2040   74.4310  221.9950 N   0  0  0  0  0  0  0  0  0  0  0  0
  141.1960   75.1520  221.4570 C   0  0  0  0  0  0  0  0  0  0  0  0
  141.2090   76.5830  221.4840 N   0  0  0  0  0  0  0  0  0  0  0  0
  141.7870   77.3090  220.3710 C   0  0  0  0  0  0  0  0  0  0  0  0
  141.1730   78.7140  220.3600 C   0  0  0  0  0  0  0  0  0  0  0  0
  141.5950   79.3100  221.6780 C   0  0  0  0  0  0  0  0  0  0  0  0
  142.2170   80.5280  221.7210 C   0  0  0  0  0  0  0  0  0  0  0  0
  142.5950   81.0540  222.9410 C   0  0  0  0  0  0  0  0  0  0  0  0
  142.3240   80.3090  224.0880 C   0  0  0  0  0  0  0  0  0  0  0  0
  141.6900   79.0710  224.0120 C   0  0  0  0  0  0  0  0  0  0  0  0
  141.3120   78.5470  222.7930 C   0  0  0  0  0  0  0  0  0  0  0  0
  140.6340   77.2330  222.6460 C   0  0  0  0  0  0  0  0  0  0  0  0
  142.2100   74.4760  220.8740 N   0  0  0  0  0  0  0  0  0  0  0  0
  143.6870   71.1410  220.7100 C   0  0  0  0  0  0  0  0  0  0  0  0
  146.4533   68.2265  217.2316 H   0  0  0  0  0  0  0  0  0  0  0  0
  144.9767   67.1028  218.8829 H   0  0  0  0  0  0  0  0  0  0  0  0
  143.6768   68.4527  220.5218 H   0  0  0  0  0  0  0  0  0  0  0  0
  146.6152   70.6929  217.2216 H   0  0  0  0  0  0  0  0  0  0  0  0
  146.0535   72.7799  219.6294 H   0  0  0  0  0  0  0  0  0  0  0  0
  145.7231   72.7872  217.8553 H   0  0  0  0  0  0  0  0  0  0  0  0
  144.1514   74.1493  219.3151 H   0  0  0  0  0  0  0  0  0  0  0  0
  143.4027   72.9475  218.1825 H   0  0  0  0  0  0  0  0  0  0  0  0
  138.6560   72.7450  223.4070 H   0  0  0  0  0  0  0  0  0  0  0  0
  138.2559   71.2755  221.0117 H   0  0  0  0  0  0  0  0  0  0  0  0
  139.4228   70.3795  222.0749 H   0  0  0  0  0  0  0  0  0  0  0  0
  137.0581   71.3396  223.5283 H   0  0  0  0  0  0  0  0  0  0  0  0
  136.6402   70.2205  222.1979 H   0  0  0  0  0  0  0  0  0  0  0  0
  137.5057   69.4616  224.6763 H   0  0  0  0  0  0  0  0  0  0  0  0
  137.6859   68.4867  223.1412 H   0  0  0  0  0  0  0  0  0  0  0  0
  139.8768   68.5540  223.2733 H   0  0  0  0  0  0  0  0  0  0  0  0
  139.8790   70.3318  223.4395 H   0  0  0  0  0  0  0  0  0  0  0  0
  139.1584   67.1897  225.6321 H   0  0  0  0  0  0  0  0  0  0  0  0
  141.0081   70.0035  229.3493 H   0  0  0  0  0  0  0  0  0  0  0  0
  141.6877   72.3865  228.8908 H   0  0  0  0  0  0  0  0  0  0  0  0
  141.4392   73.3173  226.6423 H   0  0  0  0  0  0  0  0  0  0  0  0
  140.5329   71.9665  224.7771 H   0  0  0  0  0  0  0  0  0  0  0  0
  142.8778   77.3780  220.4950 H   0  0  0  0  0  0  0  0  0  0  0  0
  141.5784   76.7905  219.4235 H   0  0  0  0  0  0  0  0  0  0  0  0
  141.5665   79.3055  219.5202 H   0  0  0  0  0  0  0  0  0  0  0  0
  140.0802   78.6961  220.2354 H   0  0  0  0  0  0  0  0  0  0  0  0
  142.4143   81.0834  220.7922 H   0  0  0  0  0  0  0  0  0  0  0  0
  143.0950   82.0317  223.0057 H   0  0  0  0  0  0  0  0  0  0  0  0
  142.6163   80.7063  225.0712 H   0  0  0  0  0  0  0  0  0  0  0  0
  141.4886   78.5052  224.9336 H   0  0  0  0  0  0  0  0  0  0  0  0
  140.8023   76.6193  223.5433 H   0  0  0  0  0  0  0  0  0  0  0  0
  139.5488   77.3644  222.5236 H   0  0  0  0  0  0  0  0  0  0  0  0
  144.3042   71.2810  221.6097 H   0  0  0  0  0  0  0  0  0  0  0  0
  142.7483   70.6059  220.9163 H   0  0  0  0  0  0  0  0  0  0  0  0
  1  2  2  0
  2  3  1  0
  3  4  2  0
  4  5  1  0
  5  6  2  0
  5  7  1  0
  7  8  1  0
  8  9  1  0
  9 10  1  0
 10 11  2  0
 11 12  1  0
 12 13  1  0
 13 14  1  0
 14 15  1  0
 15 16  1  0
 16 17  1  0
 17 18  1  0
 18 19  1  0
 19 20  2  0
 20 21  1  0
 21 22  2  0
 22 23  1  0
 23 24  2  0
 24 25  1  0
 25 26  2  0
 12 27  2  0
 27 28  1  0
 28 29  1  0
 29 30  1  0
 30 31  1  0
 31 32  1  0
 32 33  2  0
 33 34  1  0
 34 35  2  0
 35 36  1  0
 36 37  2  0
 37 38  1  0
 28 39  2  0
  9 40  1  0
  6  1  1  0
 39 10  1  0
 40  4  1  0
 26 18  1  0
 38 29  1  0
 26 21  1  0
 37 32  1  0
  1 41  1  0
  2 42  1  0
  3 43  1  0
  6 44  1  0
  7 45  1  0
  7 46  1  0
  8 47  1  0
  8 48  1  0
 13 49  1  0
 14 50  1  0
 14 51  1  0
 15 52  1  0
 15 53  1  0
 16 54  1  0
 16 55  1  0
 17 56  1  0
 17 57  1  0
 19 58  1  0
 22 59  1  0
 23 60  1  0
 24 61  1  0
 25 62  1  0
 30 63  1  0
 30 64  1  0
 31 65  1  0
 31 66  1  0
 33 67  1  0
 34 68  1  0
 35 69  1  0
 36 70  1  0
 38 71  1  0
 38 72  1  0
 40 73  1  0
 40 74  1  0
M  END
>  <smiles>  (27) 
c1ccc2c(c1)CCN(c1nc(NCCCCn3cnc4ccccc43)nc(N3CCc4ccccc4C3)n1)C2

>  <score_type>  (27) 
oracle

>  <origin>  (27) 
autodockgpu

>  <m_score__min__energy>  (27) 
-11.42

>  <m_primary>  (27) 
energy

>  <rmsd>  (27) 
5.247971009562173

>  <m_score__min__rmsd>  (27) 
5.247971009562173

>  <meeko>  (27) 
{"free_energy": -11.42, "intermolecular_energy": -13.81, "internal_energy": -1.4, "cluster_size": 18, "cluster_id": 1, "rank_in_cluster": 1}

>  <energy>  (27) 
-9.56

>  <cluster_rmsd>  (27) 
2.0

>  <cluster>  (27) 
2

$$$$

     RDKit          3D

 74 80  0  0  0  0  0  0  0  0999 V2000
  137.6990   81.4560  222.8490 C   0  0  0  0  0  0  0  0  0  0  0  0
  138.4770   80.9710  223.8820 C   0  0  0  0  0  0  0  0  0  0  0  0
  138.8710   79.6450  223.9040 C   0  0  0  0  0  0  0  0  0  0  0  0
  138.4730   78.8210  222.8760 C   0  0  0  0  0  0  0  0  0  0  0  0
  137.6940   79.2730  221.8240 C   0  0  0  0  0  0  0  0  0  0  0  0
  137.3210   80.5980  221.8360 C   0  0  0  0  0  0  0  0  0  0  0  0
  137.2780   78.3560  220.7240 C   0  0  0  0  0  0  0  0  0  0  0  0
  138.4010   77.4290  220.3600 C   0  0  0  0  0  0  0  0  0  0  0  0
  139.0280   76.8460  221.5450 N   0  0  0  0  0  0  0  0  0  0  0  0
  139.8290   75.6700  221.3980 C   0  0  0  0  0  0  0  0  0  0  0  0
  140.9010   75.6470  220.5830 N   0  0  0  0  0  0  0  0  0  0  0  0
  141.6720   74.5690  220.4220 C   0  0  0  0  0  0  0  0  0  0  0  0
  142.8120   74.5630  219.5480 N   0  0  0  0  0  0  0  0  0  0  0  0
  143.5490   75.7410  219.2230 C   0  0  0  0  0  0  0  0  0  0  0  0
  142.8740   76.5500  218.1310 C   0  0  0  0  0  0  0  0  0  0  0  0
  142.7010   77.9530  218.6240 C   0  0  0  0  0  0  0  0  0  0  0  0
  141.3300   78.2370  219.1530 C   0  0  0  0  0  0  0  0  0  0  0  0
  141.3870   79.4820  219.9050 N   0  0  0  0  0  0  0  0  0  0  0  0
  141.1910   80.7210  219.4020 C   0  0  0  0  0  0  0  0  0  0  0  0
  141.3260   81.6110  220.4070 N   0  0  0  0  0  0  0  0  0  0  0  0
  141.6080   80.9160  221.5440 C   0  0  0  0  0  0  0  0  0  0  0  0
  141.8330   81.3660  222.8290 C   0  0  0  0  0  0  0  0  0  0  0  0
  142.1050   80.4060  223.8120 C   0  0  0  0  0  0  0  0  0  0  0  0
  142.1390   79.0820  223.4820 C   0  0  0  0  0  0  0  0  0  0  0  0
  141.9140   78.6410  222.1960 C   0  0  0  0  0  0  0  0  0  0  0  0
  141.6480   79.5710  221.2310 C   0  0  0  0  0  0  0  0  0  0  0  0
  141.3220   73.4650  221.1320 N   0  0  0  0  0  0  0  0  0  0  0  0
  140.2680   73.4240  221.9570 C   0  0  0  0  0  0  0  0  0  0  0  0
  139.9150   72.2510  222.6970 N   0  0  0  0  0  0  0  0  0  0  0  0
  138.5240   71.8530  222.7760 C   0  0  0  0  0  0  0  0  0  0  0  0
  138.4840   70.3510  223.0810 C   0  0  0  0  0  0  0  0  0  0  0  0
  139.1620   70.2290  224.4200 C   0  0  0  0  0  0  0  0  0  0  0  0
  138.5510   69.5700  225.4510 C   0  0  0  0  0  0  0  0  0  0  0  0
  139.1930   69.4710  226.6700 C   0  0  0  0  0  0  0  0  0  0  0  0
  140.4510   70.0570  226.7970 C   0  0  0  0  0  0  0  0  0  0  0  0
  141.0490   70.7230  225.7290 C   0  0  0  0  0  0  0  0  0  0  0  0
  140.4070   70.8200  224.5110 C   0  0  0  0  0  0  0  0  0  0  0  0
  140.9910   71.5170  223.3350 C   0  0  0  0  0  0  0  0  0  0  0  0
  139.5280   74.5490  222.0760 N   0  0  0  0  0  0  0  0  0  0  0  0
  138.8730   77.4070  222.8670 C   0  0  0  0  0  0  0  0  0  0  0  0
  137.3853   82.5102  222.8338 H   0  0  0  0  0  0  0  0  0  0  0  0
  138.7861   81.6450  224.6945 H   0  0  0  0  0  0  0  0  0  0  0  0
  139.4899   79.2571  224.7265 H   0  0  0  0  0  0  0  0  0  0  0  0
  136.7025   80.9850  221.0128 H   0  0  0  0  0  0  0  0  0  0  0  0
  136.4121   77.7635  221.0545 H   0  0  0  0  0  0  0  0  0  0  0  0
  137.0118   78.9564  219.8416 H   0  0  0  0  0  0  0  0  0  0  0  0
  138.0041   76.6181  219.7315 H   0  0  0  0  0  0  0  0  0  0  0  0
  139.1632   78.0100  219.8201 H   0  0  0  0  0  0  0  0  0  0  0  0
  143.0930   73.6610  219.1520 H   0  0  0  0  0  0  0  0  0  0  0  0
  143.6370   76.3650  220.1246 H   0  0  0  0  0  0  0  0  0  0  0  0
  144.5386   75.4322  218.8550 H   0  0  0  0  0  0  0  0  0  0  0  0
  143.4995   76.5482  217.2262 H   0  0  0  0  0  0  0  0  0  0  0  0
  141.8957   76.1117  217.8844 H   0  0  0  0  0  0  0  0  0  0  0  0
  143.4285   78.1307  219.4297 H   0  0  0  0  0  0  0  0  0  0  0  0
  142.8593   78.6194  217.7633 H   0  0  0  0  0  0  0  0  0  0  0  0
  140.6211   78.3374  218.3179 H   0  0  0  0  0  0  0  0  0  0  0  0
  140.9924   77.4145  219.8007 H   0  0  0  0  0  0  0  0  0  0  0  0
  140.9610   80.9623  218.3537 H   0  0  0  0  0  0  0  0  0  0  0  0
  141.8000   82.4383  223.0721 H   0  0  0  0  0  0  0  0  0  0  0  0
  142.2912   80.7191  224.8499 H   0  0  0  0  0  0  0  0  0  0  0  0
  142.3530   78.3430  224.2682 H   0  0  0  0  0  0  0  0  0  0  0  0
  141.9476   77.5687  221.9528 H   0  0  0  0  0  0  0  0  0  0  0  0
  138.0198   72.4115  223.5784 H   0  0  0  0  0  0  0  0  0  0  0  0
  138.0083   72.0669  221.8282 H   0  0  0  0  0  0  0  0  0  0  0  0
  137.4459   69.9912  223.1349 H   0  0  0  0  0  0  0  0  0  0  0  0
  138.9760   69.7493  222.3027 H   0  0  0  0  0  0  0  0  0  0  0  0
  137.5561   69.1223  225.3105 H   0  0  0  0  0  0  0  0  0  0  0  0
  138.7252   68.9452  227.5154 H   0  0  0  0  0  0  0  0  0  0  0  0
  140.9819   69.9926  227.7583 H   0  0  0  0  0  0  0  0  0  0  0  0
  142.0430   71.1761  225.8580 H   0  0  0  0  0  0  0  0  0  0  0  0
  141.7798   72.2110  223.6610 H   0  0  0  0  0  0  0  0  0  0  0  0
  141.4415   70.7964  222.6366 H   0  0  0  0  0  0  0  0  0  0  0  0
  138.1051   76.8274  223.4003 H   0  0  0  0  0  0  0  0  0  0  0  0
  139.8590   77.3533  223.3518 H   0  0  0  0  0  0  0  0  0  0  0  0
  1  2  2  0
  2  3  1  0
  3  4  2  0
  4  5  1  0
  5  6  2  0
  5  7  1  0
  7  8  1  0
  8  9  1  0
  9 10  1  0
 10 11  2  0
 11 12  1  0
 12 13  1  0
 13 14  1  0
 14 15  1  0
 15 16  1  0
 16 17  1  0
 17 18  1  0
 18 19  1  0
 19 20  2  0
 20 21  1  0
 21 22  2  0
 22 23  1  0
 23 24  2  0
 24 25  1  0
 25 26  2  0
 12 27  2  0
 27 28  1  0
 28 29  1  0
 29 30  1  0
 30 31  1  0
 31 32  1  0
 32 33  2  0
 33 34  1  0
 34 35  2  0
 35 36  1  0
 36 37  2  0
 37 38  1  0
 28 39  2  0
  9 40  1  0
  6  1  1  0
 39 10  1  0
 40  4  1  0
 26 18  1  0
 38 29  1  0
 26 21  1  0
 37 32  1  0
  1 41  1  0
  2 42  1  0
  3 43  1  0
  6 44  1  0
  7 45  1  0
  7 46  1  0
  8 47  1  0
  8 48  1  0
 13 49  1  0
 14 50  1  0
 14 51  1  0
 15 52  1  0
 15 53  1  0
 16 54  1  0
 16 55  1  0
 17 56  1  0
 17 57  1  0
 19 58  1  0
 22 59  1  0
 23 60  1  0
 24 61  1  0
 25 62  1  0
 30 63  1  0
 30 64  1  0
 31 65  1  0
 31 66  1  0
 33 67  1  0
 34 68  1  0
 35 69  1  0
 36 70  1  0
 38 71  1  0
 38 72  1  0
 40 73  1  0
 40 74  1  0
M  END
>  <smiles>  (28) 
c1ccc2c(c1)CCN(c1nc(NCCCCn3cnc4ccccc43)nc(N3CCc4ccccc4C3)n1)C2

>  <score_type>  (28) 
oracle

>  <origin>  (28) 
autodockgpu

>  <m_score__min__energy>  (28) 
-11.42

>  <m_primary>  (28) 
energy

>  <rmsd>  (28) 
10.819384626039344

>  <m_score__min__rmsd>  (28) 
10.819384626039344

>  <meeko>  (28) 
{"free_energy": -8.6, "intermolecular_energy": -10.98, "internal_energy": -3.24, "cluster_size": 2, "cluster_id": 7, "rank_in_cluster": 2}

>  <energy>  (28) 
-9.49

>  <cluster_rmsd>  (28) 
1.91

>  <cluster>  (28) 
2

$$$$

     RDKit          3D

 74 80  0  0  0  0  0  0  0  0999 V2000
  132.5820   72.6060  227.4030 C   0  0  0  0  0  0  0  0  0  0  0  0
  133.3710   71.6160  226.8510 C   0  0  0  0  0  0  0  0  0  0  0  0
  134.1680   71.8820  225.7520 C   0  0  0  0  0  0  0  0  0  0  0  0
  134.1580   73.1520  225.2210 C   0  0  0  0  0  0  0  0  0  0  0  0
  133.3790   74.1680  225.7490 C   0  0  0  0  0  0  0  0  0  0  0  0
  132.6000   73.8670  226.8430 C   0  0  0  0  0  0  0  0  0  0  0  0
  133.3890   75.5350  225.1520 C   0  0  0  0  0  0  0  0  0  0  0  0
  134.7800   75.9190  224.7390 C   0  0  0  0  0  0  0  0  0  0  0  0
  135.4440   74.8410  224.0080 N   0  0  0  0  0  0  0  0  0  0  0  0
  136.5920   75.1490  223.2120 C   0  0  0  0  0  0  0  0  0  0  0  0
  137.0590   74.2900  222.2870 N   0  0  0  0  0  0  0  0  0  0  0  0
  138.1260   74.5440  221.5270 C   0  0  0  0  0  0  0  0  0  0  0  0
  138.6100   73.6150  220.5440 N   0  0  0  0  0  0  0  0  0  0  0  0
  138.9200   72.2550  220.8460 C   0  0  0  0  0  0  0  0  0  0  0  0
  139.8530   72.1360  222.0370 C   0  0  0  0  0  0  0  0  0  0  0  0
  139.5600   70.8450  222.7370 C   0  0  0  0  0  0  0  0  0  0  0  0
  138.9160   71.0220  224.0760 C   0  0  0  0  0  0  0  0  0  0  0  0
  139.1660   69.8200  224.8580 N   0  0  0  0  0  0  0  0  0  0  0  0
  138.7730   68.5680  224.5340 C   0  0  0  0  0  0  0  0  0  0  0  0
  139.1920   67.7300  225.5060 N   0  0  0  0  0  0  0  0  0  0  0  0
  139.8500   68.4710  226.4400 C   0  0  0  0  0  0  0  0  0  0  0  0
  140.4600   68.0820  227.6160 C   0  0  0  0  0  0  0  0  0  0  0  0
  141.0690   69.0790  228.3890 C   0  0  0  0  0  0  0  0  0  0  0  0
  141.0430   70.3770  227.9700 C   0  0  0  0  0  0  0  0  0  0  0  0
  140.4320   70.7570  226.7950 C   0  0  0  0  0  0  0  0  0  0  0  0
  139.8360   69.7920  226.0350 C   0  0  0  0  0  0  0  0  0  0  0  0
  138.7400   75.7400  221.7290 N   0  0  0  0  0  0  0  0  0  0  0  0
  138.3250   76.6360  222.6330 C   0  0  0  0  0  0  0  0  0  0  0  0
  138.9860   77.8900  222.8310 N   0  0  0  0  0  0  0  0  0  0  0  0
  138.1980   79.0700  223.1250 C   0  0  0  0  0  0  0  0  0  0  0  0
  139.1080   80.0740  223.8430 C   0  0  0  0  0  0  0  0  0  0  0  0
  140.1880   80.3760  222.8380 C   0  0  0  0  0  0  0  0  0  0  0  0
  140.4850   81.6700  222.5060 C   0  0  0  0  0  0  0  0  0  0  0  0
  141.4790   81.9220  221.5810 C   0  0  0  0  0  0  0  0  0  0  0  0
  142.1430   80.8330  221.0200 C   0  0  0  0  0  0  0  0  0  0  0  0
  141.8190   79.5260  221.3780 C   0  0  0  0  0  0  0  0  0  0  0  0
  140.8250   79.2750  222.3020 C   0  0  0  0  0  0  0  0  0  0  0  0
  140.4330   77.9050  222.7240 C   0  0  0  0  0  0  0  0  0  0  0  0
  137.2390   76.3180  223.3710 N   0  0  0  0  0  0  0  0  0  0  0  0
  134.9910   73.4710  224.0540 C   0  0  0  0  0  0  0  0  0  0  0  0
  131.9484   72.3924  228.2764 H   0  0  0  0  0  0  0  0  0  0  0  0
  133.3657   70.6070  227.2891 H   0  0  0  0  0  0  0  0  0  0  0  0
  134.7971   71.0945  225.3113 H   0  0  0  0  0  0  0  0  0  0  0  0
  131.9728   74.6556  227.2843 H   0  0  0  0  0  0  0  0  0  0  0  0
  132.7326   75.5492  224.2694 H   0  0  0  0  0  0  0  0  0  0  0  0
  133.0303   76.2537  225.9035 H   0  0  0  0  0  0  0  0  0  0  0  0
  134.7275   76.8080  224.0933 H   0  0  0  0  0  0  0  0  0  0  0  0
  135.3629   76.1263  225.6486 H   0  0  0  0  0  0  0  0  0  0  0  0
  138.7290   73.9640  219.5890 H   0  0  0  0  0  0  0  0  0  0  0  0
  137.9860   71.7194  221.0715 H   0  0  0  0  0  0  0  0  0  0  0  0
  139.4270   71.8198  219.9722 H   0  0  0  0  0  0  0  0  0  0  0  0
  140.8978   72.1438  221.6932 H   0  0  0  0  0  0  0  0  0  0  0  0
  139.7011   72.9821  222.7233 H   0  0  0  0  0  0  0  0  0  0  0  0
  138.8858   70.2508  222.1027 H   0  0  0  0  0  0  0  0  0  0  0  0
  140.5245   70.3441  222.9068 H   0  0  0  0  0  0  0  0  0  0  0  0
  139.3486   71.8956  224.5857 H   0  0  0  0  0  0  0  0  0  0  0  0
  137.8342   71.1849  223.9611 H   0  0  0  0  0  0  0  0  0  0  0  0
  138.2092   68.2814  223.6340 H   0  0  0  0  0  0  0  0  0  0  0  0
  140.4675   67.0290  227.9339 H   0  0  0  0  0  0  0  0  0  0  0  0
  141.5679   68.8154  229.3333 H   0  0  0  0  0  0  0  0  0  0  0  0
  141.5259   71.1459  228.5909 H   0  0  0  0  0  0  0  0  0  0  0  0
  140.4246   71.8102  226.4776 H   0  0  0  0  0  0  0  0  0  0  0  0
  137.8195   79.5097  222.1904 H   0  0  0  0  0  0  0  0  0  0  0  0
  137.3376   78.8095  223.7589 H   0  0  0  0  0  0  0  0  0  0  0  0
  138.5524   80.9865  224.1050 H   0  0  0  0  0  0  0  0  0  0  0  0
  139.5095   79.6788  224.7878 H   0  0  0  0  0  0  0  0  0  0  0  0
  139.9368   82.5021  222.9719 H   0  0  0  0  0  0  0  0  0  0  0  0
  141.7389   82.9520  221.2955 H   0  0  0  0  0  0  0  0  0  0  0  0
  142.9381   81.0085  220.2804 H   0  0  0  0  0  0  0  0  0  0  0  0
  142.3609   78.6857  220.9195 H   0  0  0  0  0  0  0  0  0  0  0  0
  140.7638   77.1702  221.9752 H   0  0  0  0  0  0  0  0  0  0  0  0
  140.8997   77.6424  223.6848 H   0  0  0  0  0  0  0  0  0  0  0  0
  134.4036   73.2710  223.1457 H   0  0  0  0  0  0  0  0  0  0  0  0
  135.8908   72.8424  224.1261 H   0  0  0  0  0  0  0  0  0  0  0  0
  1  2  2  0
  2  3  1  0
  3  4  2  0
  4  5  1  0
  5  6  2  0
  5  7  1  0
  7  8  1  0
  8  9  1  0
  9 10  1  0
 10 11  2  0
 11 12  1  0
 12 13  1  0
 13 14  1  0
 14 15  1  0
 15 16  1  0
 16 17  1  0
 17 18  1  0
 18 19  1  0
 19 20  2  0
 20 21  1  0
 21 22  2  0
 22 23  1  0
 23 24  2  0
 24 25  1  0
 25 26  2  0
 12 27  2  0
 27 28  1  0
 28 29  1  0
 29 30  1  0
 30 31  1  0
 31 32  1  0
 32 33  2  0
 33 34  1  0
 34 35  2  0
 35 36  1  0
 36 37  2  0
 37 38  1  0
 28 39  2  0
  9 40  1  0
  6  1  1  0
 39 10  1  0
 40  4  1  0
 26 18  1  0
 38 29  1  0
 26 21  1  0
 37 32  1  0
  1 41  1  0
  2 42  1  0
  3 43  1  0
  6 44  1  0
  7 45  1  0
  7 46  1  0
  8 47  1  0
  8 48  1  0
 13 49  1  0
 14 50  1  0
 14 51  1  0
 15 52  1  0
 15 53  1  0
 16 54  1  0
 16 55  1  0
 17 56  1  0
 17 57  1  0
 19 58  1  0
 22 59  1  0
 23 60  1  0
 24 61  1  0
 25 62  1  0
 30 63  1  0
 30 64  1  0
 31 65  1  0
 31 66  1  0
 33 67  1  0
 34 68  1  0
 35 69  1  0
 36 70  1  0
 38 71  1  0
 38 72  1  0
 40 73  1  0
 40 74  1  0
M  END
>  <smiles>  (29) 
c1ccc2c(c1)CCN(c1nc(NCCCCn3cnc4ccccc43)nc(N3CCc4ccccc4C3)n1)C2

>  <score_type>  (29) 
oracle

>  <origin>  (29) 
autodockgpu

>  <m_score__min__energy>  (29) 
-11.42

>  <m_primary>  (29) 
energy

>  <rmsd>  (29) 
4.92333689341456

>  <m_score__min__rmsd>  (29) 
4.92333689341456

>  <meeko>  (29) 
{"free_energy": -10.02, "intermolecular_energy": -12.4, "internal_energy": -1.34, "cluster_size": 10, "cluster_id": 2, "rank_in_cluster": 5}

>  <energy>  (29) 
-9.91

>  <cluster_rmsd>  (29) 
0.0

>  <cluster>  (29) 
3

$$$$

     RDKit          3D

 74 80  0  0  0  0  0  0  0  0999 V2000
  140.6020   69.7030  228.3430 C   0  0  0  0  0  0  0  0  0  0  0  0
  141.0730   71.0000  228.2810 C   0  0  0  0  0  0  0  0  0  0  0  0
  141.0550   71.6990  227.0870 C   0  0  0  0  0  0  0  0  0  0  0  0
  140.5560   71.0760  225.9650 C   0  0  0  0  0  0  0  0  0  0  0  0
  140.0750   69.7770  225.9920 C   0  0  0  0  0  0  0  0  0  0  0  0
  140.1100   69.1130  227.1970 C   0  0  0  0  0  0  0  0  0  0  0  0
  139.5420   69.1290  224.7590 C   0  0  0  0  0  0  0  0  0  0  0  0
  138.7420   70.1100  223.9530 C   0  0  0  0  0  0  0  0  0  0  0  0
  139.4360   71.3900  223.8140 N   0  0  0  0  0  0  0  0  0  0  0  0
  139.0290   72.2910  222.7800 C   0  0  0  0  0  0  0  0  0  0  0  0
  138.0600   71.9650  221.9050 N   0  0  0  0  0  0  0  0  0  0  0  0
  137.6540   72.7800  220.9280 C   0  0  0  0  0  0  0  0  0  0  0  0
  136.6180   72.4150  220.0030 N   0  0  0  0  0  0  0  0  0  0  0  0
  135.2930   72.0740  220.4120 C   0  0  0  0  0  0  0  0  0  0  0  0
  135.2780   70.8780  221.3460 C   0  0  0  0  0  0  0  0  0  0  0  0
  134.5130   71.2530  222.5770 C   0  0  0  0  0  0  0  0  0  0  0  0
  135.3540   71.3030  223.8130 C   0  0  0  0  0  0  0  0  0  0  0  0
  134.9770   72.4900  224.5670 N   0  0  0  0  0  0  0  0  0  0  0  0
  134.3100   72.5030  225.7420 C   0  0  0  0  0  0  0  0  0  0  0  0
  134.1490   73.7880  226.1220 N   0  0  0  0  0  0  0  0  0  0  0  0
  134.7240   74.5780  225.1730 C   0  0  0  0  0  0  0  0  0  0  0  0
  134.8240   75.9520  225.1000 C   0  0  0  0  0  0  0  0  0  0  0  0
  135.4800   76.4950  223.9880 C   0  0  0  0  0  0  0  0  0  0  0  0
  135.9900   75.6710  223.0280 C   0  0  0  0  0  0  0  0  0  0  0  0
  135.8850   74.2990  223.1070 C   0  0  0  0  0  0  0  0  0  0  0  0
  135.2480   73.7610  224.1880 C   0  0  0  0  0  0  0  0  0  0  0  0
  138.2750   73.9870  220.8520 N   0  0  0  0  0  0  0  0  0  0  0  0
  139.2450   74.3690  221.6920 C   0  0  0  0  0  0  0  0  0  0  0  0
  139.8880   75.6440  221.5950 N   0  0  0  0  0  0  0  0  0  0  0  0
  141.2930   75.7060  221.2480 C   0  0  0  0  0  0  0  0  0  0  0  0
  141.5670   77.0930  220.6550 C   0  0  0  0  0  0  0  0  0  0  0  0
  141.2400   78.0440  221.7760 C   0  0  0  0  0  0  0  0  0  0  0  0
  142.1450   78.9920  222.1690 C   0  0  0  0  0  0  0  0  0  0  0  0
  141.8230   79.8530  223.2000 C   0  0  0  0  0  0  0  0  0  0  0  0
  140.5740   79.7140  223.8020 C   0  0  0  0  0  0  0  0  0  0  0  0
  139.6720   78.7390  223.3810 C   0  0  0  0  0  0  0  0  0  0  0  0
  139.9960   77.8800  222.3500 C   0  0  0  0  0  0  0  0  0  0  0  0
  139.0790   76.8200  221.8560 C   0  0  0  0  0  0  0  0  0  0  0  0
  139.6100   73.4970  222.6580 N   0  0  0  0  0  0  0  0  0  0  0  0
  140.5210   71.7870  224.6800 C   0  0  0  0  0  0  0  0  0  0  0  0
  140.6190   69.1483  229.2927 H   0  0  0  0  0  0  0  0  0  0  0  0
  141.4658   71.4814  229.1887 H   0  0  0  0  0  0  0  0  0  0  0  0
  141.4316   72.7312  227.0352 H   0  0  0  0  0  0  0  0  0  0  0  0
  139.7343   68.0804  227.2480 H   0  0  0  0  0  0  0  0  0  0  0  0
  140.3820   68.7612  224.1514 H   0  0  0  0  0  0  0  0  0  0  0  0
  138.8897   68.2926  225.0505 H   0  0  0  0  0  0  0  0  0  0  0  0
  138.5662   69.6893  222.9519 H   0  0  0  0  0  0  0  0  0  0  0  0
  137.7920   70.2904  224.4774 H   0  0  0  0  0  0  0  0  0  0  0  0
  136.8610   72.4070  219.0080 H   0  0  0  0  0  0  0  0  0  0  0  0
  134.8484   72.9359  220.9311 H   0  0  0  0  0  0  0  0  0  0  0  0
  134.7163   71.8111  219.5130 H   0  0  0  0  0  0  0  0  0  0  0  0
  134.7908   70.0252  220.8506 H   0  0  0  0  0  0  0  0  0  0  0  0
  136.3063   70.5912  221.6113 H   0  0  0  0  0  0  0  0  0  0  0  0
  134.0665   72.2459  222.4199 H   0  0  0  0  0  0  0  0  0  0  0  0
  133.7537   70.4729  222.7349 H   0  0  0  0  0  0  0  0  0  0  0  0
  135.1778   70.4033  224.4208 H   0  0  0  0  0  0  0  0  0  0  0  0
  136.4208   71.3422  223.5476 H   0  0  0  0  0  0  0  0  0  0  0  0
  133.9587   71.6186  226.2938 H   0  0  0  0  0  0  0  0  0  0  0  0
  134.4042   76.5971  225.8859 H   0  0  0  0  0  0  0  0  0  0  0  0
  135.5839   77.5856  223.8889 H   0  0  0  0  0  0  0  0  0  0  0  0
  136.5020   76.1162  222.1622 H   0  0  0  0  0  0  0  0  0  0  0  0
  136.3034   73.6545  222.3198 H   0  0  0  0  0  0  0  0  0  0  0  0
  141.9079   75.5552  222.1476 H   0  0  0  0  0  0  0  0  0  0  0  0
  141.5448   74.9200  220.5208 H   0  0  0  0  0  0  0  0  0  0  0  0
  142.6215   77.1887  220.3570 H   0  0  0  0  0  0  0  0  0  0  0  0
  140.9744   77.2890  219.7492 H   0  0  0  0  0  0  0  0  0  0  0  0
  143.1213   79.0679  221.6679 H   0  0  0  0  0  0  0  0  0  0  0  0
  142.5311   80.6250  223.5356 H   0  0  0  0  0  0  0  0  0  0  0  0
  140.2946   80.3872  224.6258 H   0  0  0  0  0  0  0  0  0  0  0  0
  138.6928   78.6530  223.8747 H   0  0  0  0  0  0  0  0  0  0  0  0
  138.3187   76.5935  222.6180 H   0  0  0  0  0  0  0  0  0  0  0  0
  138.5576   77.1469  220.9443 H   0  0  0  0  0  0  0  0  0  0  0  0
  141.4688   71.5975  224.1548 H   0  0  0  0  0  0  0  0  0  0  0  0
  140.3678   72.8514  224.9114 H   0  0  0  0  0  0  0  0  0  0  0  0
  1  2  2  0
  2  3  1  0
  3  4  2  0
  4  5  1  0
  5  6  2  0
  5  7  1  0
  7  8  1  0
  8  9  1  0
  9 10  1  0
 10 11  2  0
 11 12  1  0
 12 13  1  0
 13 14  1  0
 14 15  1  0
 15 16  1  0
 16 17  1  0
 17 18  1  0
 18 19  1  0
 19 20  2  0
 20 21  1  0
 21 22  2  0
 22 23  1  0
 23 24  2  0
 24 25  1  0
 25 26  2  0
 12 27  2  0
 27 28  1  0
 28 29  1  0
 29 30  1  0
 30 31  1  0
 31 32  1  0
 32 33  2  0
 33 34  1  0
 34 35  2  0
 35 36  1  0
 36 37  2  0
 37 38  1  0
 28 39  2  0
  9 40  1  0
  6  1  1  0
 39 10  1  0
 40  4  1  0
 26 18  1  0
 38 29  1  0
 26 21  1  0
 37 32  1  0
  1 41  1  0
  2 42  1  0
  3 43  1  0
  6 44  1  0
  7 45  1  0
  7 46  1  0
  8 47  1  0
  8 48  1  0
 13 49  1  0
 14 50  1  0
 14 51  1  0
 15 52  1  0
 15 53  1  0
 16 54  1  0
 16 55  1  0
 17 56  1  0
 17 57  1  0
 19 58  1  0
 22 59  1  0
 23 60  1  0
 24 61  1  0
 25 62  1  0
 30 63  1  0
 30 64  1  0
 31 65  1  0
 31 66  1  0
 33 67  1  0
 34 68  1  0
 35 69  1  0
 36 70  1  0
 38 71  1  0
 38 72  1  0
 40 73  1  0
 40 74  1  0
M  END
>  <smiles>  (30) 
c1ccc2c(c1)CCN(c1nc(NCCCCn3cnc4ccccc43)nc(N3CCc4ccccc4C3)n1)C2

>  <score_type>  (30) 
oracle

>  <origin>  (30) 
autodockgpu

>  <m_score__min__energy>  (30) 
-11.42

>  <m_primary>  (30) 
energy

>  <rmsd>  (30) 
7.6704764772557805

>  <m_score__min__rmsd>  (30) 
7.6704764772557805

>  <meeko>  (30) 
{"free_energy": -9.49, "intermolecular_energy": -11.88, "internal_energy": -2.55, "cluster_size": 10, "cluster_id": 2, "rank_in_cluster": 10}

>  <energy>  (30) 
-9.31

>  <cluster_rmsd>  (30) 
1.99

>  <cluster>  (30) 
3

$$$$

     RDKit          3D

 74 80  0  0  0  0  0  0  0  0999 V2000
  141.8250   80.4250  222.4140 C   0  0  0  0  0  0  0  0  0  0  0  0
  142.2980   79.5660  223.3850 C   0  0  0  0  0  0  0  0  0  0  0  0
  141.8080   78.2760  223.4830 C   0  0  0  0  0  0  0  0  0  0  0  0
  140.8420   77.8670  222.5920 C   0  0  0  0  0  0  0  0  0  0  0  0
  140.3450   78.7030  221.6050 C   0  0  0  0  0  0  0  0  0  0  0  0
  140.8560   79.9790  221.5390 C   0  0  0  0  0  0  0  0  0  0  0  0
  139.2980   78.2310  220.6540 C   0  0  0  0  0  0  0  0  0  0  0  0
  139.5590   76.8120  220.2430 C   0  0  0  0  0  0  0  0  0  0  0  0
  139.8780   75.9660  221.3930 N   0  0  0  0  0  0  0  0  0  0  0  0
  139.7720   74.5460  221.2590 C   0  0  0  0  0  0  0  0  0  0  0  0
  139.6110   73.9630  220.0570 N   0  0  0  0  0  0  0  0  0  0  0  0
  139.5090   72.6410  219.8940 C   0  0  0  0  0  0  0  0  0  0  0  0
  139.3390   72.0360  218.6030 N   0  0  0  0  0  0  0  0  0  0  0  0
  139.9930   70.8270  218.2170 C   0  0  0  0  0  0  0  0  0  0  0  0
  141.3750   71.0860  217.6490 C   0  0  0  0  0  0  0  0  0  0  0  0
  142.3510   71.1240  218.7840 C   0  0  0  0  0  0  0  0  0  0  0  0
  143.4780   72.0840  218.5740 C   0  0  0  0  0  0  0  0  0  0  0  0
  143.2140   73.2710  219.3750 N   0  0  0  0  0  0  0  0  0  0  0  0
  142.9760   73.2910  220.7060 C   0  0  0  0  0  0  0  0  0  0  0  0
  142.7780   74.5730  221.0790 N   0  0  0  0  0  0  0  0  0  0  0  0
  142.8960   75.3540  219.9690 C   0  0  0  0  0  0  0  0  0  0  0  0
  142.7810   76.7210  219.8260 C   0  0  0  0  0  0  0  0  0  0  0  0
  142.9550   77.2550  218.5440 C   0  0  0  0  0  0  0  0  0  0  0  0
  143.2260   76.4290  217.4920 C   0  0  0  0  0  0  0  0  0  0  0  0
  143.3390   75.0630  217.6430 C   0  0  0  0  0  0  0  0  0  0  0  0
  143.1720   74.5340  218.8910 C   0  0  0  0  0  0  0  0  0  0  0  0
  139.5770   71.8870  221.0230 N   0  0  0  0  0  0  0  0  0  0  0  0
  139.7350   72.4080  222.2460 C   0  0  0  0  0  0  0  0  0  0  0  0
  139.8030   71.5970  223.4230 N   0  0  0  0  0  0  0  0  0  0  0  0
  138.6290   70.8580  223.8460 C   0  0  0  0  0  0  0  0  0  0  0  0
  139.1020   69.6830  224.7100 C   0  0  0  0  0  0  0  0  0  0  0  0
  139.7850   70.3390  225.8820 C   0  0  0  0  0  0  0  0  0  0  0  0
  139.4360   70.0090  227.1630 C   0  0  0  0  0  0  0  0  0  0  0  0
  140.0750   70.6240  228.2210 C   0  0  0  0  0  0  0  0  0  0  0  0
  141.0600   71.5670  227.9320 C   0  0  0  0  0  0  0  0  0  0  0  0
  141.3950   71.8840  226.6170 C   0  0  0  0  0  0  0  0  0  0  0  0
  140.7550   71.2680  225.5600 C   0  0  0  0  0  0  0  0  0  0  0  0
  141.0650   71.5620  224.1370 C   0  0  0  0  0  0  0  0  0  0  0  0
  139.8310   73.7520  222.3430 N   0  0  0  0  0  0  0  0  0  0  0  0
  140.2990   76.5040  222.6650 C   0  0  0  0  0  0  0  0  0  0  0  0
  142.2150   81.4508  222.3387 H   0  0  0  0  0  0  0  0  0  0  0  0
  143.0716   79.9101  224.0873 H   0  0  0  0  0  0  0  0  0  0  0  0
  142.1829   77.5908  224.2576 H   0  0  0  0  0  0  0  0  0  0  0  0
  140.4804   80.6644  220.7649 H   0  0  0  0  0  0  0  0  0  0  0  0
  138.3136   78.2910  221.1412 H   0  0  0  0  0  0  0  0  0  0  0  0
  139.3188   78.8692  219.7583 H   0  0  0  0  0  0  0  0  0  0  0  0
  138.6622   76.4142  219.7455 H   0  0  0  0  0  0  0  0  0  0  0  0
  140.4229   76.8054  219.5621 H   0  0  0  0  0  0  0  0  0  0  0  0
  138.7140   72.5100  217.9440 H   0  0  0  0  0  0  0  0  0  0  0  0
  140.0876   70.1769  219.0993 H   0  0  0  0  0  0  0  0  0  0  0  0
  139.3875   70.3480  217.4334 H   0  0  0  0  0  0  0  0  0  0  0  0
  141.6472   70.2803  216.9513 H   0  0  0  0  0  0  0  0  0  0  0  0
  141.3881   72.0426  217.1061 H   0  0  0  0  0  0  0  0  0  0  0  0
  141.8112   71.4161  219.6969 H   0  0  0  0  0  0  0  0  0  0  0  0
  142.7935   70.1200  218.8620 H   0  0  0  0  0  0  0  0  0  0  0  0
  144.4250   71.6229  218.8911 H   0  0  0  0  0  0  0  0  0  0  0  0
  143.5585   72.3515  217.5101 H   0  0  0  0  0  0  0  0  0  0  0  0
  142.9485   72.4143  221.3698 H   0  0  0  0  0  0  0  0  0  0  0  0
  142.5606   77.3679  220.6880 H   0  0  0  0  0  0  0  0  0  0  0  0
  142.8733   78.3403  218.3844 H   0  0  0  0  0  0  0  0  0  0  0  0
  143.3585   76.8669  216.4916 H   0  0  0  0  0  0  0  0  0  0  0  0
  143.5580   74.4162  216.7806 H   0  0  0  0  0  0  0  0  0  0  0  0
  137.9667   71.5114  224.4329 H   0  0  0  0  0  0  0  0  0  0  0  0
  138.0694   70.4922  222.9724 H   0  0  0  0  0  0  0  0  0  0  0  0
  138.2478   69.0765  225.0454 H   0  0  0  0  0  0  0  0  0  0  0  0
  139.7671   68.9983  224.1633 H   0  0  0  0  0  0  0  0  0  0  0  0
  138.6525   69.2596  227.3485 H   0  0  0  0  0  0  0  0  0  0  0  0
  139.8146   70.3773  229.2609 H   0  0  0  0  0  0  0  0  0  0  0  0
  141.5831   72.0708  228.7582 H   0  0  0  0  0  0  0  0  0  0  0  0
  142.1768   72.6321  226.4192 H   0  0  0  0  0  0  0  0  0  0  0  0
  141.5720   72.5347  224.0546 H   0  0  0  0  0  0  0  0  0  0  0  0
  141.7317   70.7953  223.7155 H   0  0  0  0  0  0  0  0  0  0  0  0
  139.4303   76.5144  223.3397 H   0  0  0  0  0  0  0  0  0  0  0  0
  141.1125   75.8585  223.0277 H   0  0  0  0  0  0  0  0  0  0  0  0
  1  2  2  0
  2  3  1  0
  3  4  2  0
  4  5  1  0
  5  6  2  0
  5  7  1  0
  7  8  1  0
  8  9  1  0
  9 10  1  0
 10 11  2  0
 11 12  1  0
 12 13  1  0
 13 14  1  0
 14 15  1  0
 15 16  1  0
 16 17  1  0
 17 18  1  0
 18 19  1  0
 19 20  2  0
 20 21  1  0
 21 22  2  0
 22 23  1  0
 23 24  2  0
 24 25  1  0
 25 26  2  0
 12 27  2  0
 27 28  1  0
 28 29  1  0
 29 30  1  0
 30 31  1  0
 31 32  1  0
 32 33  2  0
 33 34  1  0
 34 35  2  0
 35 36  1  0
 36 37  2  0
 37 38  1  0
 28 39  2  0
  9 40  1  0
  6  1  1  0
 39 10  1  0
 40  4  1  0
 26 18  1  0
 38 29  1  0
 26 21  1  0
 37 32  1  0
  1 41  1  0
  2 42  1  0
  3 43  1  0
  6 44  1  0
  7 45  1  0
  7 46  1  0
  8 47  1  0
  8 48  1  0
 13 49  1  0
 14 50  1  0
 14 51  1  0
 15 52  1  0
 15 53  1  0
 16 54  1  0
 16 55  1  0
 17 56  1  0
 17 57  1  0
 19 58  1  0
 22 59  1  0
 23 60  1  0
 24 61  1  0
 25 62  1  0
 30 63  1  0
 30 64  1  0
 31 65  1  0
 31 66  1  0
 33 67  1  0
 34 68  1  0
 35 69  1  0
 36 70  1  0
 38 71  1  0
 38 72  1  0
 40 73  1  0
 40 74  1  0
M  END
>  <smiles>  (31) 
c1ccc2c(c1)CCN(c1nc(NCCCCn3cnc4ccccc43)nc(N3CCc4ccccc4C3)n1)C2

>  <score_type>  (31) 
oracle

>  <origin>  (31) 
autodockgpu

>  <m_score__min__energy>  (31) 
-11.42

>  <m_primary>  (31) 
energy

>  <rmsd>  (31) 
9.050473881419197

>  <m_score__min__rmsd>  (31) 
9.050473881419197

>  <meeko>  (31) 
{"free_energy": -8.38, "intermolecular_energy": -10.77, "internal_energy": -3.14, "cluster_size": 14, "cluster_id": 4, "rank_in_cluster": 14}

>  <energy>  (31) 
-8.74

>  <cluster_rmsd>  (31) 
1.61

>  <cluster>  (31) 
3

$$$$

     RDKit          3D

 74 80  0  0  0  0  0  0  0  0999 V2000
  146.2890   72.0260  220.0870 C   0  0  0  0  0  0  0  0  0  0  0  0
  146.3230   73.3750  220.3760 C   0  0  0  0  0  0  0  0  0  0  0  0
  145.1520   74.1090  220.4530 C   0  0  0  0  0  0  0  0  0  0  0  0
  143.9550   73.4650  220.2380 C   0  0  0  0  0  0  0  0  0  0  0  0
  143.8840   72.1130  219.9460 C   0  0  0  0  0  0  0  0  0  0  0  0
  145.0680   71.4160  219.8760 C   0  0  0  0  0  0  0  0  0  0  0  0
  142.5710   71.4430  219.7160 C   0  0  0  0  0  0  0  0  0  0  0  0
  141.5400   71.9640  220.6740 C   0  0  0  0  0  0  0  0  0  0  0  0
  141.5650   73.4240  220.7550 N   0  0  0  0  0  0  0  0  0  0  0  0
  140.4300   74.1070  221.2950 C   0  0  0  0  0  0  0  0  0  0  0  0
  139.2330   73.5040  221.4070 N   0  0  0  0  0  0  0  0  0  0  0  0
  138.1530   74.1100  221.9070 C   0  0  0  0  0  0  0  0  0  0  0  0
  136.8830   73.4500  222.0190 N   0  0  0  0  0  0  0  0  0  0  0  0
  136.5500   72.5820  223.1030 C   0  0  0  0  0  0  0  0  0  0  0  0
  137.3240   71.2790  223.0460 C   0  0  0  0  0  0  0  0  0  0  0  0
  138.5690   71.4360  223.8630 C   0  0  0  0  0  0  0  0  0  0  0  0
  139.6320   70.4360  223.5320 C   0  0  0  0  0  0  0  0  0  0  0  0
  139.6160   69.4050  224.5600 N   0  0  0  0  0  0  0  0  0  0  0  0
  139.1260   68.1530  224.4180 C   0  0  0  0  0  0  0  0  0  0  0  0
  139.2910   67.5010  225.5880 N   0  0  0  0  0  0  0  0  0  0  0  0
  139.8890   68.3570  226.4620 C   0  0  0  0  0  0  0  0  0  0  0  0
  140.2660   68.1680  227.7760 C   0  0  0  0  0  0  0  0  0  0  0  0
  140.8690   69.2450  228.4380 C   0  0  0  0  0  0  0  0  0  0  0  0
  141.0640   70.4250  227.7820 C   0  0  0  0  0  0  0  0  0  0  0  0
  140.6850   70.6060  226.4690 C   0  0  0  0  0  0  0  0  0  0  0  0
  140.0960   69.5610  225.8160 C   0  0  0  0  0  0  0  0  0  0  0  0
  138.3160   75.3980  222.3090 N   0  0  0  0  0  0  0  0  0  0  0  0
  139.4810   76.0530  222.2230 C   0  0  0  0  0  0  0  0  0  0  0  0
  139.6320   77.4100  222.6520 N   0  0  0  0  0  0  0  0  0  0  0  0
  138.4820   78.2910  222.6430 C   0  0  0  0  0  0  0  0  0  0  0  0
  138.7490   79.4200  223.6460 C   0  0  0  0  0  0  0  0  0  0  0  0
  139.9700   80.1140  223.1020 C   0  0  0  0  0  0  0  0  0  0  0  0
  139.9700   81.4670  222.9040 C   0  0  0  0  0  0  0  0  0  0  0  0
  141.1010   82.0820  222.4030 C   0  0  0  0  0  0  0  0  0  0  0  0
  142.2070   81.2830  222.1170 C   0  0  0  0  0  0  0  0  0  0  0  0
  142.1790   79.9060  222.3290 C   0  0  0  0  0  0  0  0  0  0  0  0
  141.0470   79.2940  222.8300 C   0  0  0  0  0  0  0  0  0  0  0  0
  140.9540   77.8320  223.0770 C   0  0  0  0  0  0  0  0  0  0  0  0
  140.5350   75.3830  221.7080 N   0  0  0  0  0  0  0  0  0  0  0  0
  142.6910   74.2110  220.3120 C   0  0  0  0  0  0  0  0  0  0  0  0
  147.2210   71.4449  220.0256 H   0  0  0  0  0  0  0  0  0  0  0  0
  147.2896   73.8715  220.5467 H   0  0  0  0  0  0  0  0  0  0  0  0
  145.1777   75.1847  220.6813 H   0  0  0  0  0  0  0  0  0  0  0  0
  145.0414   70.3408  219.6451 H   0  0  0  0  0  0  0  0  0  0  0  0
  142.2398   71.6397  218.6856 H   0  0  0  0  0  0  0  0  0  0  0  0
  142.6908   70.3613  219.8760 H   0  0  0  0  0  0  0  0  0  0  0  0
  140.5440   71.6429  220.3350 H   0  0  0  0  0  0  0  0  0  0  0  0
  141.7656   71.5615  221.6725 H   0  0  0  0  0  0  0  0  0  0  0  0
  136.1980   73.6230  221.2780 H   0  0  0  0  0  0  0  0  0  0  0  0
  136.7816   73.0915  224.0500 H   0  0  0  0  0  0  0  0  0  0  0  0
  135.4785   72.3441  223.0309 H   0  0  0  0  0  0  0  0  0  0  0  0
  136.7103   70.4635  223.4562 H   0  0  0  0  0  0  0  0  0  0  0  0
  137.5820   71.0365  222.0045 H   0  0  0  0  0  0  0  0  0  0  0  0
  138.9738   72.4441  223.6901 H   0  0  0  0  0  0  0  0  0  0  0  0
  138.2882   71.2729  224.9140 H   0  0  0  0  0  0  0  0  0  0  0  0
  139.4283   69.9862  222.5491 H   0  0  0  0  0  0  0  0  0  0  0  0
  140.6173   70.9237  223.4954 H   0  0  0  0  0  0  0  0  0  0  0  0
  138.6715   67.7376  223.5065 H   0  0  0  0  0  0  0  0  0  0  0  0
  140.0991   67.2071  228.2847 H   0  0  0  0  0  0  0  0  0  0  0  0
  141.1851   69.1394  229.4863 H   0  0  0  0  0  0  0  0  0  0  0  0
  141.5393   71.2595  228.3183 H   0  0  0  0  0  0  0  0  0  0  0  0
  140.8526   71.5669  225.9605 H   0  0  0  0  0  0  0  0  0  0  0  0
  138.3399   78.7107  221.6362 H   0  0  0  0  0  0  0  0  0  0  0  0
  137.5721   77.7382  222.9197 H   0  0  0  0  0  0  0  0  0  0  0  0
  137.8948   80.1115  223.6919 H   0  0  0  0  0  0  0  0  0  0  0  0
  138.8963   79.0481  224.6707 H   0  0  0  0  0  0  0  0  0  0  0  0
  139.0757   82.0616  223.1420 H   0  0  0  0  0  0  0  0  0  0  0  0
  141.1280   83.1687  222.2349 H   0  0  0  0  0  0  0  0  0  0  0  0
  143.1195   81.7485  221.7162 H   0  0  0  0  0  0  0  0  0  0  0  0
  143.0672   79.3007  222.0950 H   0  0  0  0  0  0  0  0  0  0  0  0
  141.7238   77.3018  222.4971 H   0  0  0  0  0  0  0  0  0  0  0  0
  141.1142   77.6040  224.1411 H   0  0  0  0  0  0  0  0  0  0  0  0
  142.4638   74.6051  219.3105 H   0  0  0  0  0  0  0  0  0  0  0  0
  142.8356   75.0049  221.0595 H   0  0  0  0  0  0  0  0  0  0  0  0
  1  2  2  0
  2  3  1  0
  3  4  2  0
  4  5  1  0
  5  6  2  0
  5  7  1  0
  7  8  1  0
  8  9  1  0
  9 10  1  0
 10 11  2  0
 11 12  1  0
 12 13  1  0
 13 14  1  0
 14 15  1  0
 15 16  1  0
 16 17  1  0
 17 18  1  0
 18 19  1  0
 19 20  2  0
 20 21  1  0
 21 22  2  0
 22 23  1  0
 23 24  2  0
 24 25  1  0
 25 26  2  0
 12 27  2  0
 27 28  1  0
 28 29  1  0
 29 30  1  0
 30 31  1  0
 31 32  1  0
 32 33  2  0
 33 34  1  0
 34 35  2  0
 35 36  1  0
 36 37  2  0
 37 38  1  0
 28 39  2  0
  9 40  1  0
  6  1  1  0
 39 10  1  0
 40  4  1  0
 26 18  1  0
 38 29  1  0
 26 21  1  0
 37 32  1  0
  1 41  1  0
  2 42  1  0
  3 43  1  0
  6 44  1  0
  7 45  1  0
  7 46  1  0
  8 47  1  0
  8 48  1  0
 13 49  1  0
 14 50  1  0
 14 51  1  0
 15 52  1  0
 15 53  1  0
 16 54  1  0
 16 55  1  0
 17 56  1  0
 17 57  1  0
 19 58  1  0
 22 59  1  0
 23 60  1  0
 24 61  1  0
 25 62  1  0
 30 63  1  0
 30 64  1  0
 31 65  1  0
 31 66  1  0
 33 67  1  0
 34 68  1  0
 35 69  1  0
 36 70  1  0
 38 71  1  0
 38 72  1  0
 40 73  1  0
 40 74  1  0
M  END
>  <smiles>  (32) 
c1ccc2c(c1)CCN(c1nc(NCCCCn3cnc4ccccc43)nc(N3CCc4ccccc4C3)n1)C2

>  <score_type>  (32) 
oracle

>  <origin>  (32) 
autodockgpu

>  <m_score__min__energy>  (32) 
-11.42

>  <m_primary>  (32) 
energy

>  <rmsd>  (32) 
4.779690627910104

>  <m_score__min__rmsd>  (32) 
4.779690627910104

>  <meeko>  (32) 
{"free_energy": -10.54, "intermolecular_energy": -12.92, "internal_energy": -1.48, "cluster_size": 18, "cluster_id": 1, "rank_in_cluster": 12}

>  <energy>  (32) 
-9.86

>  <cluster_rmsd>  (32) 
0.0

>  <cluster>  (32) 
4

$$$$

     RDKit          3D

 74 80  0  0  0  0  0  0  0  0999 V2000
  142.2080   80.6480  223.2360 C   0  0  0  0  0  0  0  0  0  0  0  0
  140.9870   80.7890  223.8650 C   0  0  0  0  0  0  0  0  0  0  0  0
  139.9420   79.9310  223.5740 C   0  0  0  0  0  0  0  0  0  0  0  0
  140.1440   78.9350  222.6450 C   0  0  0  0  0  0  0  0  0  0  0  0
  141.3550   78.7650  221.9960 C   0  0  0  0  0  0  0  0  0  0  0  0
  142.3720   79.6370  222.3110 C   0  0  0  0  0  0  0  0  0  0  0  0
  141.5440   77.6760  220.9940 C   0  0  0  0  0  0  0  0  0  0  0  0
  140.8580   76.4200  221.4450 C   0  0  0  0  0  0  0  0  0  0  0  0
  139.5030   76.6870  221.9270 N   0  0  0  0  0  0  0  0  0  0  0  0
  138.5760   75.6020  222.0250 C   0  0  0  0  0  0  0  0  0  0  0  0
  138.7870   74.4370  221.3850 N   0  0  0  0  0  0  0  0  0  0  0  0
  137.9440   73.4030  221.4540 C   0  0  0  0  0  0  0  0  0  0  0  0
  138.1860   72.1670  220.7650 N   0  0  0  0  0  0  0  0  0  0  0  0
  138.2850   70.9090  221.4330 C   0  0  0  0  0  0  0  0  0  0  0  0
  139.6540   70.7020  222.0530 C   0  0  0  0  0  0  0  0  0  0  0  0
  139.6910   71.4220  223.3650 C   0  0  0  0  0  0  0  0  0  0  0  0
  138.5650   71.0560  224.2800 C   0  0  0  0  0  0  0  0  0  0  0  0
  138.9430   69.8490  225.0010 N   0  0  0  0  0  0  0  0  0  0  0  0
  138.6140   68.5850  224.6550 C   0  0  0  0  0  0  0  0  0  0  0  0
  139.1480   67.7460  225.5670 N   0  0  0  0  0  0  0  0  0  0  0  0
  139.8150   68.4980  226.4860 C   0  0  0  0  0  0  0  0  0  0  0  0
  140.5230   68.1140  227.6060 C   0  0  0  0  0  0  0  0  0  0  0  0
  141.1130   69.1230  228.3770 C   0  0  0  0  0  0  0  0  0  0  0  0
  140.9750   70.4300  228.0090 C   0  0  0  0  0  0  0  0  0  0  0  0
  140.2660   70.8060  226.8890 C   0  0  0  0  0  0  0  0  0  0  0  0
  139.6880   69.8280  226.1310 C   0  0  0  0  0  0  0  0  0  0  0  0
  136.8350   73.5790  222.2180 N   0  0  0  0  0  0  0  0  0  0  0  0
  136.5680   74.7140  222.8780 C   0  0  0  0  0  0  0  0  0  0  0  0
  135.3930   74.8800  223.6780 N   0  0  0  0  0  0  0  0  0  0  0  0
  135.1480   76.1540  224.3240 C   0  0  0  0  0  0  0  0  0  0  0  0
  133.6420   76.2600  224.5930 C   0  0  0  0  0  0  0  0  0  0  0  0
  133.3520   75.1120  225.5240 C   0  0  0  0  0  0  0  0  0  0  0  0
  132.6950   75.3240  226.7040 C   0  0  0  0  0  0  0  0  0  0  0  0
  132.4410   74.2550  227.5420 C   0  0  0  0  0  0  0  0  0  0  0  0
  132.8730   72.9920  227.1410 C   0  0  0  0  0  0  0  0  0  0  0  0
  133.5400   72.8060  225.9320 C   0  0  0  0  0  0  0  0  0  0  0  0
  133.7930   73.8750  225.0960 C   0  0  0  0  0  0  0  0  0  0  0  0
  134.5000   73.7430  223.7960 C   0  0  0  0  0  0  0  0  0  0  0  0
  137.4610   75.7220  222.7670 N   0  0  0  0  0  0  0  0  0  0  0  0
  139.0570   78.0060  222.3110 C   0  0  0  0  0  0  0  0  0  0  0  0
  143.0379   81.3315  223.4687 H   0  0  0  0  0  0  0  0  0  0  0  0
  140.8441   81.5910  224.6042 H   0  0  0  0  0  0  0  0  0  0  0  0
  138.9689   80.0421  224.0748 H   0  0  0  0  0  0  0  0  0  0  0  0
  143.3450   79.5248  221.8104 H   0  0  0  0  0  0  0  0  0  0  0  0
  141.1198   77.9937  220.0301 H   0  0  0  0  0  0  0  0  0  0  0  0
  142.6201   77.4743  220.8875 H   0  0  0  0  0  0  0  0  0  0  0  0
  140.8037   75.7197  220.5984 H   0  0  0  0  0  0  0  0  0  0  0  0
  141.4389   75.9909  222.2748 H   0  0  0  0  0  0  0  0  0  0  0  0
  138.2880   72.2110  219.7470 H   0  0  0  0  0  0  0  0  0  0  0  0
  137.5253   70.8678  222.2274 H   0  0  0  0  0  0  0  0  0  0  0  0
  138.1251   70.1151  220.6886 H   0  0  0  0  0  0  0  0  0  0  0  0
  139.8310   69.6282  222.2131 H   0  0  0  0  0  0  0  0  0  0  0  0
  140.4352   71.0930  221.3846 H   0  0  0  0  0  0  0  0  0  0  0  0
  140.6397   71.1815  223.8672 H   0  0  0  0  0  0  0  0  0  0  0  0
  139.5941   72.4958  223.1470 H   0  0  0  0  0  0  0  0  0  0  0  0
  138.3822   71.8741  224.9923 H   0  0  0  0  0  0  0  0  0  0  0  0
  137.6451   70.8828  223.7023 H   0  0  0  0  0  0  0  0  0  0  0  0
  138.0145   68.2908  223.7809 H   0  0  0  0  0  0  0  0  0  0  0  0
  140.6204   67.0540  227.8832 H   0  0  0  0  0  0  0  0  0  0  0  0
  141.6872   68.8625  229.2784 H   0  0  0  0  0  0  0  0  0  0  0  0
  141.4454   71.2090  228.6270 H   0  0  0  0  0  0  0  0  0  0  0  0
  140.1681   71.8662  226.6126 H   0  0  0  0  0  0  0  0  0  0  0  0
  135.7023   76.2054  225.2727 H   0  0  0  0  0  0  0  0  0  0  0  0
  135.4832   76.9817  223.6818 H   0  0  0  0  0  0  0  0  0  0  0  0
  133.3974   77.2206  225.0699 H   0  0  0  0  0  0  0  0  0  0  0  0
  133.0447   76.2158  223.6703 H   0  0  0  0  0  0  0  0  0  0  0  0
  132.3712   76.3373  226.9841 H   0  0  0  0  0  0  0  0  0  0  0  0
  131.9137   74.3966  228.4969 H   0  0  0  0  0  0  0  0  0  0  0  0
  132.6837   72.1254  227.7915 H   0  0  0  0  0  0  0  0  0  0  0  0
  133.8683   71.7973  225.6407 H   0  0  0  0  0  0  0  0  0  0  0  0
  135.0767   72.8065  223.7736 H   0  0  0  0  0  0  0  0  0  0  0  0
  133.7836   73.7200  222.9616 H   0  0  0  0  0  0  0  0  0  0  0  0
  138.4828   78.4329  221.4755 H   0  0  0  0  0  0  0  0  0  0  0  0
  138.4546   77.8831  223.2231 H   0  0  0  0  0  0  0  0  0  0  0  0
  1  2  2  0
  2  3  1  0
  3  4  2  0
  4  5  1  0
  5  6  2  0
  5  7  1  0
  7  8  1  0
  8  9  1  0
  9 10  1  0
 10 11  2  0
 11 12  1  0
 12 13  1  0
 13 14  1  0
 14 15  1  0
 15 16  1  0
 16 17  1  0
 17 18  1  0
 18 19  1  0
 19 20  2  0
 20 21  1  0
 21 22  2  0
 22 23  1  0
 23 24  2  0
 24 25  1  0
 25 26  2  0
 12 27  2  0
 27 28  1  0
 28 29  1  0
 29 30  1  0
 30 31  1  0
 31 32  1  0
 32 33  2  0
 33 34  1  0
 34 35  2  0
 35 36  1  0
 36 37  2  0
 37 38  1  0
 28 39  2  0
  9 40  1  0
  6  1  1  0
 39 10  1  0
 40  4  1  0
 26 18  1  0
 38 29  1  0
 26 21  1  0
 37 32  1  0
  1 41  1  0
  2 42  1  0
  3 43  1  0
  6 44  1  0
  7 45  1  0
  7 46  1  0
  8 47  1  0
  8 48  1  0
 13 49  1  0
 14 50  1  0
 14 51  1  0
 15 52  1  0
 15 53  1  0
 16 54  1  0
 16 55  1  0
 17 56  1  0
 17 57  1  0
 19 58  1  0
 22 59  1  0
 23 60  1  0
 24 61  1  0
 25 62  1  0
 30 63  1  0
 30 64  1  0
 31 65  1  0
 31 66  1  0
 33 67  1  0
 34 68  1  0
 35 69  1  0
 36 70  1  0
 38 71  1  0
 38 72  1  0
 40 73  1  0
 40 74  1  0
M  END
>  <smiles>  (33) 
c1ccc2c(c1)CCN(c1nc(NCCCCn3cnc4ccccc43)nc(N3CCc4ccccc4C3)n1)C2

>  <score_type>  (33) 
oracle

>  <origin>  (33) 
autodockgpu

>  <m_score__min__energy>  (33) 
-11.42

>  <m_primary>  (33) 
energy

>  <rmsd>  (33) 
4.7200189239675465

>  <m_score__min__rmsd>  (33) 
4.7200189239675465

>  <meeko>  (33) 
{"free_energy": -10.27, "intermolecular_energy": -12.66, "internal_energy": -1.46, "cluster_size": 10, "cluster_id": 2, "rank_in_cluster": 3}

>  <energy>  (33) 
-9.8

>  <cluster_rmsd>  (33) 
1.3

>  <cluster>  (33) 
4

$$$$

     RDKit          3D

 74 80  0  0  0  0  0  0  0  0999 V2000
  142.5160   81.1020  223.0390 C   0  0  0  0  0  0  0  0  0  0  0  0
  142.2890   80.3500  224.1750 C   0  0  0  0  0  0  0  0  0  0  0  0
  141.7450   79.0810  224.0820 C   0  0  0  0  0  0  0  0  0  0  0  0
  141.4370   78.5850  222.8360 C   0  0  0  0  0  0  0  0  0  0  0  0
  141.6520   79.3110  221.6760 C   0  0  0  0  0  0  0  0  0  0  0  0
  142.1940   80.5690  221.8070 C   0  0  0  0  0  0  0  0  0  0  0  0
  141.3080   78.7450  220.3390 C   0  0  0  0  0  0  0  0  0  0  0  0
  141.6600   77.2880  220.2780 C   0  0  0  0  0  0  0  0  0  0  0  0
  141.2060   76.5710  221.4680 N   0  0  0  0  0  0  0  0  0  0  0  0
  141.0990   75.1450  221.4190 C   0  0  0  0  0  0  0  0  0  0  0  0
  140.0590   74.4980  221.9750 N   0  0  0  0  0  0  0  0  0  0  0  0
  139.9260   73.1690  221.9480 C   0  0  0  0  0  0  0  0  0  0  0  0
  138.8080   72.4950  222.5470 N   0  0  0  0  0  0  0  0  0  0  0  0
  138.1610   71.3740  221.9450 C   0  0  0  0  0  0  0  0  0  0  0  0
  137.3860   70.5540  222.9590 C   0  0  0  0  0  0  0  0  0  0  0  0
  138.1760   69.3200  223.2680 C   0  0  0  0  0  0  0  0  0  0  0  0
  139.5990   69.5970  223.6390 C   0  0  0  0  0  0  0  0  0  0  0  0
  139.7580   69.3170  225.0580 N   0  0  0  0  0  0  0  0  0  0  0  0
  139.4690   68.1470  225.6720 C   0  0  0  0  0  0  0  0  0  0  0  0
  139.7490   68.2800  226.9850 N   0  0  0  0  0  0  0  0  0  0  0  0
  140.2150   69.5440  227.1870 C   0  0  0  0  0  0  0  0  0  0  0  0
  140.6330   70.1640  228.3470 C   0  0  0  0  0  0  0  0  0  0  0  0
  141.0670   71.4910  228.2500 C   0  0  0  0  0  0  0  0  0  0  0  0
  141.0660   72.1230  227.0410 C   0  0  0  0  0  0  0  0  0  0  0  0
  140.6470   71.4970  225.8870 C   0  0  0  0  0  0  0  0  0  0  0  0
  140.2220   70.2020  225.9720 C   0  0  0  0  0  0  0  0  0  0  0  0
  140.9120   72.4770  221.3180 N   0  0  0  0  0  0  0  0  0  0  0  0
  141.9720   73.0630  220.7470 C   0  0  0  0  0  0  0  0  0  0  0  0
  143.0000   72.3160  220.0890 N   0  0  0  0  0  0  0  0  0  0  0  0
  143.3370   72.6300  218.7150 C   0  0  0  0  0  0  0  0  0  0  0  0
  144.7690   72.1430  218.4620 C   0  0  0  0  0  0  0  0  0  0  0  0
  144.6960   70.6540  218.6780 C   0  0  0  0  0  0  0  0  0  0  0  0
  145.1630   69.7910  217.7260 C   0  0  0  0  0  0  0  0  0  0  0  0
  145.0840   68.4290  217.9470 C   0  0  0  0  0  0  0  0  0  0  0  0
  144.5240   67.9920  219.1460 C   0  0  0  0  0  0  0  0  0  0  0  0
  144.0570   68.8960  220.0980 C   0  0  0  0  0  0  0  0  0  0  0  0
  144.1360   70.2560  219.8760 C   0  0  0  0  0  0  0  0  0  0  0  0
  143.6550   71.2690  220.8500 C   0  0  0  0  0  0  0  0  0  0  0  0
  142.0460   74.4100  220.8090 N   0  0  0  0  0  0  0  0  0  0  0  0
  140.8580   77.2410  222.6990 C   0  0  0  0  0  0  0  0  0  0  0  0
  142.9472   82.1111  223.1149 H   0  0  0  0  0  0  0  0  0  0  0  0
  142.5428   80.7634  225.1623 H   0  0  0  0  0  0  0  0  0  0  0  0
  141.5625   78.4810  224.9857 H   0  0  0  0  0  0  0  0  0  0  0  0
  142.3762   81.1681  220.9026 H   0  0  0  0  0  0  0  0  0  0  0  0
  140.2288   78.8642  220.1624 H   0  0  0  0  0  0  0  0  0  0  0  0
  141.8804   79.2815  219.5680 H   0  0  0  0  0  0  0  0  0  0  0  0
  141.1847   76.8434  219.3912 H   0  0  0  0  0  0  0  0  0  0  0  0
  142.7553   77.2022  220.2235 H   0  0  0  0  0  0  0  0  0  0  0  0
  138.4760   72.8510  223.4480 H   0  0  0  0  0  0  0  0  0  0  0  0
  137.4645   71.7371  221.1749 H   0  0  0  0  0  0  0  0  0  0  0  0
  138.9366   70.7285  221.5071 H   0  0  0  0  0  0  0  0  0  0  0  0
  137.2386   71.1410  223.8775 H   0  0  0  0  0  0  0  0  0  0  0  0
  136.4008   70.2815  222.5527 H   0  0  0  0  0  0  0  0  0  0  0  0
  137.6928   68.7989  224.1076 H   0  0  0  0  0  0  0  0  0  0  0  0
  138.1941   68.7108  222.3523 H   0  0  0  0  0  0  0  0  0  0  0  0
  140.2696   68.9506  223.0538 H   0  0  0  0  0  0  0  0  0  0  0  0
  139.8512   70.6464  223.4267 H   0  0  0  0  0  0  0  0  0  0  0  0
  139.0739   67.2433  225.1850 H   0  0  0  0  0  0  0  0  0  0  0  0
  140.6253   69.6351  229.3115 H   0  0  0  0  0  0  0  0  0  0  0  0
  141.4091   72.0246  229.1490 H   0  0  0  0  0  0  0  0  0  0  0  0
  141.4108   73.1661  226.9855 H   0  0  0  0  0  0  0  0  0  0  0  0
  140.6547   72.0265  224.9228 H   0  0  0  0  0  0  0  0  0  0  0  0
  142.6417   72.1190  218.0328 H   0  0  0  0  0  0  0  0  0  0  0  0
  143.2620   73.7131  218.5383 H   0  0  0  0  0  0  0  0  0  0  0  0
  145.0834   72.3731  217.4333 H   0  0  0  0  0  0  0  0  0  0  0  0
  145.5024   72.6292  219.1221 H   0  0  0  0  0  0  0  0  0  0  0  0
  145.5978   70.1773  216.7923 H   0  0  0  0  0  0  0  0  0  0  0  0
  145.4521   67.7114  217.1990 H   0  0  0  0  0  0  0  0  0  0  0  0
  144.4492   66.9127  219.3447 H   0  0  0  0  0  0  0  0  0  0  0  0
  143.6209   68.5220  221.0361 H   0  0  0  0  0  0  0  0  0  0  0  0
  142.9422   70.8098  221.5508 H   0  0  0  0  0  0  0  0  0  0  0  0
  144.4919   71.6765  221.4361 H   0  0  0  0  0  0  0  0  0  0  0  0
  139.7626   77.3305  222.7457 H   0  0  0  0  0  0  0  0  0  0  0  0
  141.2703   76.6334  223.5180 H   0  0  0  0  0  0  0  0  0  0  0  0
  1  2  2  0
  2  3  1  0
  3  4  2  0
  4  5  1  0
  5  6  2  0
  5  7  1  0
  7  8  1  0
  8  9  1  0
  9 10  1  0
 10 11  2  0
 11 12  1  0
 12 13  1  0
 13 14  1  0
 14 15  1  0
 15 16  1  0
 16 17  1  0
 17 18  1  0
 18 19  1  0
 19 20  2  0
 20 21  1  0
 21 22  2  0
 22 23  1  0
 23 24  2  0
 24 25  1  0
 25 26  2  0
 12 27  2  0
 27 28  1  0
 28 29  1  0
 29 30  1  0
 30 31  1  0
 31 32  1  0
 32 33  2  0
 33 34  1  0
 34 35  2  0
 35 36  1  0
 36 37  2  0
 37 38  1  0
 28 39  2  0
  9 40  1  0
  6  1  1  0
 39 10  1  0
 40  4  1  0
 26 18  1  0
 38 29  1  0
 26 21  1  0
 37 32  1  0
  1 41  1  0
  2 42  1  0
  3 43  1  0
  6 44  1  0
  7 45  1  0
  7 46  1  0
  8 47  1  0
  8 48  1  0
 13 49  1  0
 14 50  1  0
 14 51  1  0
 15 52  1  0
 15 53  1  0
 16 54  1  0
 16 55  1  0
 17 56  1  0
 17 57  1  0
 19 58  1  0
 22 59  1  0
 23 60  1  0
 24 61  1  0
 25 62  1  0
 30 63  1  0
 30 64  1  0
 31 65  1  0
 31 66  1  0
 33 67  1  0
 34 68  1  0
 35 69  1  0
 36 70  1  0
 38 71  1  0
 38 72  1  0
 40 73  1  0
 40 74  1  0
M  END
>  <smiles>  (34) 
c1ccc2c(c1)CCN(c1nc(NCCCCn3cnc4ccccc43)nc(N3CCc4ccccc4C3)n1)C2

>  <score_type>  (34) 
oracle

>  <origin>  (34) 
autodockgpu

>  <m_score__min__energy>  (34) 
-11.42

>  <m_primary>  (34) 
energy

>  <rmsd>  (34) 
5.193038821721271

>  <m_score__min__rmsd>  (34) 
5.193038821721271

>  <meeko>  (34) 
{"free_energy": -10.95, "intermolecular_energy": -13.34, "internal_energy": -1.41, "cluster_size": 18, "cluster_id": 1, "rank_in_cluster": 4}

>  <energy>  (34) 
-9.66

>  <cluster_rmsd>  (34) 
1.22

>  <cluster>  (34) 
4

$$$$

     RDKit          3D

 74 80  0  0  0  0  0  0  0  0999 V2000
  140.4690   70.0480  228.1520 C   0  0  0  0  0  0  0  0  0  0  0  0
  141.0930   71.2720  228.0140 C   0  0  0  0  0  0  0  0  0  0  0  0
  141.1700   71.8880  226.7780 C   0  0  0  0  0  0  0  0  0  0  0  0
  140.6120   71.2560  225.6900 C   0  0  0  0  0  0  0  0  0  0  0  0
  139.9790   70.0280  225.7910 C   0  0  0  0  0  0  0  0  0  0  0  0
  139.9220   69.4460  227.0370 C   0  0  0  0  0  0  0  0  0  0  0  0
  139.3840   69.3680  224.5940 C   0  0  0  0  0  0  0  0  0  0  0  0
  138.7160   70.3810  223.7120 C   0  0  0  0  0  0  0  0  0  0  0  0
  139.5590   71.5580  223.5030 N   0  0  0  0  0  0  0  0  0  0  0  0
  139.2720   72.4300  222.4070 C   0  0  0  0  0  0  0  0  0  0  0  0
  138.4800   72.0450  221.3900 N   0  0  0  0  0  0  0  0  0  0  0  0
  138.1900   72.8330  220.3510 C   0  0  0  0  0  0  0  0  0  0  0  0
  137.3410   72.4050  219.2740 N   0  0  0  0  0  0  0  0  0  0  0  0
  137.7940   72.2850  217.9260 C   0  0  0  0  0  0  0  0  0  0  0  0
  138.8830   71.2380  217.7840 C   0  0  0  0  0  0  0  0  0  0  0  0
  140.1360   71.9200  217.3310 C   0  0  0  0  0  0  0  0  0  0  0  0
  140.5660   73.0390  218.2260 C   0  0  0  0  0  0  0  0  0  0  0  0
  141.5000   72.5010  219.2050 N   0  0  0  0  0  0  0  0  0  0  0  0
  141.3430   71.3520  219.9000 C   0  0  0  0  0  0  0  0  0  0  0  0
  142.4160   71.1960  220.7040 N   0  0  0  0  0  0  0  0  0  0  0  0
  143.2450   72.2590  220.5040 C   0  0  0  0  0  0  0  0  0  0  0  0
  144.4610   72.5600  221.0820 C   0  0  0  0  0  0  0  0  0  0  0  0
  145.0960   73.7400  220.6760 C   0  0  0  0  0  0  0  0  0  0  0  0
  144.5100   74.5420  219.7400 C   0  0  0  0  0  0  0  0  0  0  0  0
  143.2950   74.2340  219.1670 C   0  0  0  0  0  0  0  0  0  0  0  0
  142.6690   73.0850  219.5570 C   0  0  0  0  0  0  0  0  0  0  0  0
  138.7430   74.0740  220.3620 N   0  0  0  0  0  0  0  0  0  0  0  0
  139.5400   74.5150  221.3430 C   0  0  0  0  0  0  0  0  0  0  0  0
  140.1140   75.8260  221.3360 N   0  0  0  0  0  0  0  0  0  0  0  0
  141.5080   75.9890  220.9750 C   0  0  0  0  0  0  0  0  0  0  0  0
  141.6990   77.4310  220.4880 C   0  0  0  0  0  0  0  0  0  0  0  0
  141.3440   78.2740  221.6840 C   0  0  0  0  0  0  0  0  0  0  0  0
  142.2050   79.2350  222.1360 C   0  0  0  0  0  0  0  0  0  0  0  0
  141.8580   79.9960  223.2350 C   0  0  0  0  0  0  0  0  0  0  0  0
  140.6280   79.7460  223.8430 C   0  0  0  0  0  0  0  0  0  0  0  0
  139.7710   78.7590  223.3600 C   0  0  0  0  0  0  0  0  0  0  0  0
  140.1200   78.0000  222.2610 C   0  0  0  0  0  0  0  0  0  0  0  0
  139.2500   76.9340  221.6990 C   0  0  0  0  0  0  0  0  0  0  0  0
  139.7940   73.6690  222.3660 N   0  0  0  0  0  0  0  0  0  0  0  0
  140.6750   71.8800  224.3610 C   0  0  0  0  0  0  0  0  0  0  0  0
  140.4087   69.5600  229.1360 H   0  0  0  0  0  0  0  0  0  0  0  0
  141.5330   71.7617  228.8952 H   0  0  0  0  0  0  0  0  0  0  0  0
  141.6670   72.8630  226.6668 H   0  0  0  0  0  0  0  0  0  0  0  0
  139.4251   68.4709  227.1475 H   0  0  0  0  0  0  0  0  0  0  0  0
  140.1794   68.8627  224.0266 H   0  0  0  0  0  0  0  0  0  0  0  0
  138.6328   68.6371  224.9278 H   0  0  0  0  0  0  0  0  0  0  0  0
  138.5019   69.9186  222.7372 H   0  0  0  0  0  0  0  0  0  0  0  0
  137.7891   70.7072  224.2065 H   0  0  0  0  0  0  0  0  0  0  0  0
  136.3690   72.1790  219.5060 H   0  0  0  0  0  0  0  0  0  0  0  0
  136.9431   72.0012  217.2892 H   0  0  0  0  0  0  0  0  0  0  0  0
  138.2131   73.2551  217.6205 H   0  0  0  0  0  0  0  0  0  0  0  0
  139.0562   70.7479  218.7534 H   0  0  0  0  0  0  0  0  0  0  0  0
  138.5813   70.4750  217.0514 H   0  0  0  0  0  0  0  0  0  0  0  0
  140.9438   71.1743  217.2939 H   0  0  0  0  0  0  0  0  0  0  0  0
  139.9259   72.3586  216.3444 H   0  0  0  0  0  0  0  0  0  0  0  0
  141.0585   73.8232  217.6323 H   0  0  0  0  0  0  0  0  0  0  0  0
  139.6941   73.4789  218.7323 H   0  0  0  0  0  0  0  0  0  0  0  0
  140.4886   70.6634  219.8235 H   0  0  0  0  0  0  0  0  0  0  0  0
  144.9148   71.8976  221.8339 H   0  0  0  0  0  0  0  0  0  0  0  0
  146.0666   74.0205  221.1111 H   0  0  0  0  0  0  0  0  0  0  0  0
  145.0243   75.4646  219.4329 H   0  0  0  0  0  0  0  0  0  0  0  0
  142.8414   74.8965  218.4151 H   0  0  0  0  0  0  0  0  0  0  0  0
  142.1461   75.8021  221.8513 H   0  0  0  0  0  0  0  0  0  0  0  0
  141.7870   75.2759  220.1853 H   0  0  0  0  0  0  0  0  0  0  0  0
  142.7415   77.6052  220.1834 H   0  0  0  0  0  0  0  0  0  0  0  0
  141.0804   77.6646  219.6089 H   0  0  0  0  0  0  0  0  0  0  0  0
  143.1666   79.4008  221.6283 H   0  0  0  0  0  0  0  0  0  0  0  0
  142.5317   80.7760  223.6193 H   0  0  0  0  0  0  0  0  0  0  0  0
  140.3289   80.3388  224.7200 H   0  0  0  0  0  0  0  0  0  0  0  0
  138.8068   78.5830  223.8594 H   0  0  0  0  0  0  0  0  0  0  0  0
  138.5164   76.6096  222.4518 H   0  0  0  0  0  0  0  0  0  0  0  0
  138.6958   77.3020  220.8229 H   0  0  0  0  0  0  0  0  0  0  0  0
  141.5986   71.5453  223.8661 H   0  0  0  0  0  0  0  0  0  0  0  0
  140.6476   72.9680  224.5207 H   0  0  0  0  0  0  0  0  0  0  0  0
  1  2  2  0
  2  3  1  0
  3  4  2  0
  4  5  1  0
  5  6  2  0
  5  7  1  0
  7  8  1  0
  8  9  1  0
  9 10  1  0
 10 11  2  0
 11 12  1  0
 12 13  1  0
 13 14  1  0
 14 15  1  0
 15 16  1  0
 16 17  1  0
 17 18  1  0
 18 19  1  0
 19 20  2  0
 20 21  1  0
 21 22  2  0
 22 23  1  0
 23 24  2  0
 24 25  1  0
 25 26  2  0
 12 27  2  0
 27 28  1  0
 28 29  1  0
 29 30  1  0
 30 31  1  0
 31 32  1  0
 32 33  2  0
 33 34  1  0
 34 35  2  0
 35 36  1  0
 36 37  2  0
 37 38  1  0
 28 39  2  0
  9 40  1  0
  6  1  1  0
 39 10  1  0
 40  4  1  0
 26 18  1  0
 38 29  1  0
 26 21  1  0
 37 32  1  0
  1 41  1  0
  2 42  1  0
  3 43  1  0
  6 44  1  0
  7 45  1  0
  7 46  1  0
  8 47  1  0
  8 48  1  0
 13 49  1  0
 14 50  1  0
 14 51  1  0
 15 52  1  0
 15 53  1  0
 16 54  1  0
 16 55  1  0
 17 56  1  0
 17 57  1  0
 19 58  1  0
 22 59  1  0
 23 60  1  0
 24 61  1  0
 25 62  1  0
 30 63  1  0
 30 64  1  0
 31 65  1  0
 31 66  1  0
 33 67  1  0
 34 68  1  0
 35 69  1  0
 36 70  1  0
 38 71  1  0
 38 72  1  0
 40 73  1  0
 40 74  1  0
M  END
>  <smiles>  (35) 
c1ccc2c(c1)CCN(c1nc(NCCCCn3cnc4ccccc43)nc(N3CCc4ccccc4C3)n1)C2

>  <score_type>  (35) 
oracle

>  <origin>  (35) 
autodockgpu

>  <m_score__min__energy>  (35) 
-11.42

>  <m_primary>  (35) 
energy

>  <rmsd>  (35) 
8.051912000678552

>  <m_score__min__rmsd>  (35) 
8.051912000678552

>  <meeko>  (35) 
{"free_energy": -9.06, "intermolecular_energy": -11.45, "internal_energy": -2.72, "cluster_size": 14, "cluster_id": 4, "rank_in_cluster": 11}

>  <energy>  (35) 
-9.47

>  <cluster_rmsd>  (35) 
1.83

>  <cluster>  (35) 
4

$$$$

     RDKit          3D

 74 80  0  0  0  0  0  0  0  0999 V2000
  140.0080   70.5010  228.3410 C   0  0  0  0  0  0  0  0  0  0  0  0
  140.9380   71.5030  228.1460 C   0  0  0  0  0  0  0  0  0  0  0  0
  141.2610   71.9250  226.8680 C   0  0  0  0  0  0  0  0  0  0  0  0
  140.6380   71.3250  225.7980 C   0  0  0  0  0  0  0  0  0  0  0  0
  139.7010   70.3170  225.9570 C   0  0  0  0  0  0  0  0  0  0  0  0
  139.4050   69.9240  227.2420 C   0  0  0  0  0  0  0  0  0  0  0  0
  139.0420   69.6860  224.7770 C   0  0  0  0  0  0  0  0  0  0  0  0
  138.7260   70.7190  223.7350 C   0  0  0  0  0  0  0  0  0  0  0  0
  139.8600   71.6120  223.4970 N   0  0  0  0  0  0  0  0  0  0  0  0
  139.8900   72.3880  222.2960 C   0  0  0  0  0  0  0  0  0  0  0  0
  139.8140   71.8100  221.0830 N   0  0  0  0  0  0  0  0  0  0  0  0
  139.8390   72.5020  219.9410 C   0  0  0  0  0  0  0  0  0  0  0  0
  139.7560   71.8680  218.6550 N   0  0  0  0  0  0  0  0  0  0  0  0
  139.4300   70.4880  218.4870 C   0  0  0  0  0  0  0  0  0  0  0  0
  140.4550   69.5790  219.1390 C   0  0  0  0  0  0  0  0  0  0  0  0
  141.8210   70.0570  218.7530 C   0  0  0  0  0  0  0  0  0  0  0  0
  142.8910   69.6550  219.7180 C   0  0  0  0  0  0  0  0  0  0  0  0
  143.9960   70.5930  219.5820 N   0  0  0  0  0  0  0  0  0  0  0  0
  145.2140   70.3120  219.0670 C   0  0  0  0  0  0  0  0  0  0  0  0
  145.9600   71.4360  219.1120 N   0  0  0  0  0  0  0  0  0  0  0  0
  145.1960   72.4220  219.6590 C   0  0  0  0  0  0  0  0  0  0  0  0
  145.4990   73.7430  219.9170 C   0  0  0  0  0  0  0  0  0  0  0  0
  144.5000   74.5350  220.4950 C   0  0  0  0  0  0  0  0  0  0  0  0
  143.2810   73.9930  220.7820 C   0  0  0  0  0  0  0  0  0  0  0  0
  142.9860   72.6730  220.5210 C   0  0  0  0  0  0  0  0  0  0  0  0
  143.9550   71.8930  219.9570 C   0  0  0  0  0  0  0  0  0  0  0  0
  139.9460   73.8520  220.0560 N   0  0  0  0  0  0  0  0  0  0  0  0
  140.0260   74.4860  221.2330 C   0  0  0  0  0  0  0  0  0  0  0  0
  140.1390   75.9090  221.3330 N   0  0  0  0  0  0  0  0  0  0  0  0
  140.2790   76.6970  220.1260 C   0  0  0  0  0  0  0  0  0  0  0  0
  139.8010   78.1210  220.4380 C   0  0  0  0  0  0  0  0  0  0  0  0
  140.7430   78.5980  221.5130 C   0  0  0  0  0  0  0  0  0  0  0  0
  141.4080   79.7850  221.3760 C   0  0  0  0  0  0  0  0  0  0  0  0
  142.2660   80.2020  222.3740 C   0  0  0  0  0  0  0  0  0  0  0  0
  142.4200   79.3810  223.4910 C   0  0  0  0  0  0  0  0  0  0  0  0
  141.7290   78.1760  223.6020 C   0  0  0  0  0  0  0  0  0  0  0  0
  140.8710   77.7610  222.6040 C   0  0  0  0  0  0  0  0  0  0  0  0
  140.1070   76.4880  222.6630 C   0  0  0  0  0  0  0  0  0  0  0  0
  139.9960   73.7270  222.3510 N   0  0  0  0  0  0  0  0  0  0  0  0
  140.9560   71.7460  224.4270 C   0  0  0  0  0  0  0  0  0  0  0  0
  139.7516   70.1677  229.3574 H   0  0  0  0  0  0  0  0  0  0  0  0
  141.4264   71.9699  229.0140 H   0  0  0  0  0  0  0  0  0  0  0  0
  142.0007   72.7238  226.7110 H   0  0  0  0  0  0  0  0  0  0  0  0
  138.6649   69.1253  227.3981 H   0  0  0  0  0  0  0  0  0  0  0  0
  139.7171   68.9320  224.3459 H   0  0  0  0  0  0  0  0  0  0  0  0
  138.1043   69.2133  225.1044 H   0  0  0  0  0  0  0  0  0  0  0  0
  138.4698   70.2097  222.7943 H   0  0  0  0  0  0  0  0  0  0  0  0
  137.8826   71.3250  224.0976 H   0  0  0  0  0  0  0  0  0  0  0  0
  139.9430   72.4500  217.8340 H   0  0  0  0  0  0  0  0  0  0  0  0
  138.4464   70.2975  218.9411 H   0  0  0  0  0  0  0  0  0  0  0  0
  139.4191   70.2700  217.4089 H   0  0  0  0  0  0  0  0  0  0  0  0
  140.3431   69.6166  220.2327 H   0  0  0  0  0  0  0  0  0  0  0  0
  140.3082   68.5413  218.8048 H   0  0  0  0  0  0  0  0  0  0  0  0
  142.0690   69.6406  217.7655 H   0  0  0  0  0  0  0  0  0  0  0  0
  141.7883   71.1565  218.7472 H   0  0  0  0  0  0  0  0  0  0  0  0
  142.4985   69.6872  220.7451 H   0  0  0  0  0  0  0  0  0  0  0  0
  143.2313   68.6307  219.5058 H   0  0  0  0  0  0  0  0  0  0  0  0
  145.5406   69.3361  218.6785 H   0  0  0  0  0  0  0  0  0  0  0  0
  146.4889   74.1584  219.6774 H   0  0  0  0  0  0  0  0  0  0  0  0
  144.6975   75.5939  220.7178 H   0  0  0  0  0  0  0  0  0  0  0  0
  142.5088   74.6310  221.2366 H   0  0  0  0  0  0  0  0  0  0  0  0
  141.9959   72.2580  220.7605 H   0  0  0  0  0  0  0  0  0  0  0  0
  141.3330   76.7164  219.8119 H   0  0  0  0  0  0  0  0  0  0  0  0
  139.6824   76.2612  219.3111 H   0  0  0  0  0  0  0  0  0  0  0  0
  139.8708   78.7606  219.5458 H   0  0  0  0  0  0  0  0  0  0  0  0
  138.7481   78.1528  220.7549 H   0  0  0  0  0  0  0  0  0  0  0  0
  141.2605   80.4027  220.4778 H   0  0  0  0  0  0  0  0  0  0  0  0
  142.8119   81.1534  222.2907 H   0  0  0  0  0  0  0  0  0  0  0  0
  143.0993   79.6904  224.2990 H   0  0  0  0  0  0  0  0  0  0  0  0
  141.8690   77.5488  224.4948 H   0  0  0  0  0  0  0  0  0  0  0  0
  140.5733   75.8012  223.3848 H   0  0  0  0  0  0  0  0  0  0  0  0
  139.0712   76.6677  222.9868 H   0  0  0  0  0  0  0  0  0  0  0  0
  141.7937   71.1327  224.0635 H   0  0  0  0  0  0  0  0  0  0  0  0
  141.2008   72.8174  224.4744 H   0  0  0  0  0  0  0  0  0  0  0  0
  1  2  2  0
  2  3  1  0
  3  4  2  0
  4  5  1  0
  5  6  2  0
  5  7  1  0
  7  8  1  0
  8  9  1  0
  9 10  1  0
 10 11  2  0
 11 12  1  0
 12 13  1  0
 13 14  1  0
 14 15  1  0
 15 16  1  0
 16 17  1  0
 17 18  1  0
 18 19  1  0
 19 20  2  0
 20 21  1  0
 21 22  2  0
 22 23  1  0
 23 24  2  0
 24 25  1  0
 25 26  2  0
 12 27  2  0
 27 28  1  0
 28 29  1  0
 29 30  1  0
 30 31  1  0
 31 32  1  0
 32 33  2  0
 33 34  1  0
 34 35  2  0
 35 36  1  0
 36 37  2  0
 37 38  1  0
 28 39  2  0
  9 40  1  0
  6  1  1  0
 39 10  1  0
 40  4  1  0
 26 18  1  0
 38 29  1  0
 26 21  1  0
 37 32  1  0
  1 41  1  0
  2 42  1  0
  3 43  1  0
  6 44  1  0
  7 45  1  0
  7 46  1  0
  8 47  1  0
  8 48  1  0
 13 49  1  0
 14 50  1  0
 14 51  1  0
 15 52  1  0
 15 53  1  0
 16 54  1  0
 16 55  1  0
 17 56  1  0
 17 57  1  0
 19 58  1  0
 22 59  1  0
 23 60  1  0
 24 61  1  0
 25 62  1  0
 30 63  1  0
 30 64  1  0
 31 65  1  0
 31 66  1  0
 33 67  1  0
 34 68  1  0
 35 69  1  0
 36 70  1  0
 38 71  1  0
 38 72  1  0
 40 73  1  0
 40 74  1  0
M  END
>  <smiles>  (36) 
c1ccc2c(c1)CCN(c1nc(NCCCCn3cnc4ccccc43)nc(N3CCc4ccccc4C3)n1)C2

>  <score_type>  (36) 
oracle

>  <origin>  (36) 
autodockgpu

>  <m_score__min__energy>  (36) 
-11.42

>  <m_primary>  (36) 
energy

>  <rmsd>  (36) 
8.128859627038233

>  <m_score__min__rmsd>  (36) 
8.128859627038233

>  <meeko>  (36) 
{"free_energy": -9.66, "intermolecular_energy": -12.04, "internal_energy": -2.28, "cluster_size": 14, "cluster_id": 4, "rank_in_cluster": 3}

>  <energy>  (36) 
-9.43

>  <cluster_rmsd>  (36) 
1.13

>  <cluster>  (36) 
4

$$$$

     RDKit          3D

 74 80  0  0  0  0  0  0  0  0999 V2000
  141.8330   80.0650  223.0650 C   0  0  0  0  0  0  0  0  0  0  0  0
  140.6820   79.7660  223.7670 C   0  0  0  0  0  0  0  0  0  0  0  0
  139.9040   78.6780  223.4130 C   0  0  0  0  0  0  0  0  0  0  0  0
  140.3030   77.9000  222.3490 C   0  0  0  0  0  0  0  0  0  0  0  0
  141.4510   78.1710  221.6230 C   0  0  0  0  0  0  0  0  0  0  0  0
  142.1990   79.2620  222.0040 C   0  0  0  0  0  0  0  0  0  0  0  0
  141.8570   77.3100  220.4750 C   0  0  0  0  0  0  0  0  0  0  0  0
  141.6000   75.8650  220.7840 C   0  0  0  0  0  0  0  0  0  0  0  0
  140.2720   75.6620  221.3630 N   0  0  0  0  0  0  0  0  0  0  0  0
  139.7070   74.3480  221.3580 C   0  0  0  0  0  0  0  0  0  0  0  0
  138.9850   73.8970  220.3160 N   0  0  0  0  0  0  0  0  0  0  0  0
  138.4430   72.6770  220.2760 C   0  0  0  0  0  0  0  0  0  0  0  0
  137.6750   72.2130  219.1550 N   0  0  0  0  0  0  0  0  0  0  0  0
  137.8970   72.6650  217.8190 C   0  0  0  0  0  0  0  0  0  0  0  0
  138.3090   71.5320  216.8980 C   0  0  0  0  0  0  0  0  0  0  0  0
  139.6680   71.0600  217.3120 C   0  0  0  0  0  0  0  0  0  0  0  0
  140.6910   72.1500  217.3670 C   0  0  0  0  0  0  0  0  0  0  0  0
  141.4620   71.9850  218.5910 N   0  0  0  0  0  0  0  0  0  0  0  0
  141.2950   71.0030  219.5050 C   0  0  0  0  0  0  0  0  0  0  0  0
  142.1950   71.1900  220.4930 N   0  0  0  0  0  0  0  0  0  0  0  0
  142.9260   72.2980  220.1880 C   0  0  0  0  0  0  0  0  0  0  0  0
  143.9600   72.9000  220.8760 C   0  0  0  0  0  0  0  0  0  0  0  0
  144.5310   74.0470  220.3110 C   0  0  0  0  0  0  0  0  0  0  0  0
  144.0620   74.5290  219.1240 C   0  0  0  0  0  0  0  0  0  0  0  0
  143.0280   73.9220  218.4430 C   0  0  0  0  0  0  0  0  0  0  0  0
  142.4650   72.8030  218.9860 C   0  0  0  0  0  0  0  0  0  0  0  0
  138.6570   71.8870  221.3600 N   0  0  0  0  0  0  0  0  0  0  0  0
  139.3650   72.2780  222.4270 C   0  0  0  0  0  0  0  0  0  0  0  0
  139.5790   71.4300  223.5610 N   0  0  0  0  0  0  0  0  0  0  0  0
  138.5390   70.5020  223.9600 C   0  0  0  0  0  0  0  0  0  0  0  0
  139.2020   69.3720  224.7570 C   0  0  0  0  0  0  0  0  0  0  0  0
  139.8010   70.0670  225.9520 C   0  0  0  0  0  0  0  0  0  0  0  0
  139.5320   69.6260  227.2180 C   0  0  0  0  0  0  0  0  0  0  0  0
  140.0920   70.2790  228.2990 C   0  0  0  0  0  0  0  0  0  0  0  0
  140.9170   71.3740  228.0460 C   0  0  0  0  0  0  0  0  0  0  0  0
  141.1730   71.8010  226.7440 C   0  0  0  0  0  0  0  0  0  0  0  0
  140.6130   71.1460  225.6660 C   0  0  0  0  0  0  0  0  0  0  0  0
  140.8460   71.5530  224.2560 C   0  0  0  0  0  0  0  0  0  0  0  0
  139.8870   73.5240  222.4050 N   0  0  0  0  0  0  0  0  0  0  0  0
  139.5020   76.7370  221.9440 C   0  0  0  0  0  0  0  0  0  0  0  0
  142.4495   80.9311  223.3476 H   0  0  0  0  0  0  0  0  0  0  0  0
  140.3810   80.3984  224.6152 H   0  0  0  0  0  0  0  0  0  0  0  0
  138.9859   78.4394  223.9698 H   0  0  0  0  0  0  0  0  0  0  0  0
  143.1162   79.5010  221.4458 H   0  0  0  0  0  0  0  0  0  0  0  0
  141.2788   77.5979  219.5846 H   0  0  0  0  0  0  0  0  0  0  0  0
  142.9326   77.4480  220.2904 H   0  0  0  0  0  0  0  0  0  0  0  0
  141.6758   75.2829  219.8537 H   0  0  0  0  0  0  0  0  0  0  0  0
  142.3482   75.5338  221.5192 H   0  0  0  0  0  0  0  0  0  0  0  0
  136.9400   71.5260  219.3440 H   0  0  0  0  0  0  0  0  0  0  0  0
  136.9683   73.1138  217.4368 H   0  0  0  0  0  0  0  0  0  0  0  0
  138.7145   73.4007  217.8401 H   0  0  0  0  0  0  0  0  0  0  0  0
  137.5876   70.7056  216.9792 H   0  0  0  0  0  0  0  0  0  0  0  0
  138.3304   71.8804  215.8548 H   0  0  0  0  0  0  0  0  0  0  0  0
  139.5890   70.6068  218.3112 H   0  0  0  0  0  0  0  0  0  0  0  0
  140.0046   70.3406  216.5510 H   0  0  0  0  0  0  0  0  0  0  0  0
  141.3572   72.0806  216.4944 H   0  0  0  0  0  0  0  0  0  0  0  0
  140.2002   73.1344  217.3554 H   0  0  0  0  0  0  0  0  0  0  0  0
  140.5538   70.1919  219.4525 H   0  0  0  0  0  0  0  0  0  0  0  0
  144.3219   72.4941  221.8322 H   0  0  0  0  0  0  0  0  0  0  0  0
  145.3579   74.5595  220.8244 H   0  0  0  0  0  0  0  0  0  0  0  0
  144.5237   75.4312  218.6963 H   0  0  0  0  0  0  0  0  0  0  0  0
  142.6662   74.3287  217.4871 H   0  0  0  0  0  0  0  0  0  0  0  0
  137.7974   71.0179  224.5877 H   0  0  0  0  0  0  0  0  0  0  0  0
  138.0234   70.0984  223.0761 H   0  0  0  0  0  0  0  0  0  0  0  0
  138.4566   68.6269  225.0718 H   0  0  0  0  0  0  0  0  0  0  0  0
  139.9519   68.8238  224.1679 H   0  0  0  0  0  0  0  0  0  0  0  0
  138.8748   68.7579  227.3746 H   0  0  0  0  0  0  0  0  0  0  0  0
  139.8930   69.9451  229.3280 H   0  0  0  0  0  0  0  0  0  0  0  0
  141.3746   71.9112  228.8898 H   0  0  0  0  0  0  0  0  0  0  0  0
  141.8277   72.6685  226.5741 H   0  0  0  0  0  0  0  0  0  0  0  0
  141.1979   72.5945  224.2173 H   0  0  0  0  0  0  0  0  0  0  0  0
  141.6126   70.9185  223.7872 H   0  0  0  0  0  0  0  0  0  0  0  0
  138.7603   77.0699  221.2030 H   0  0  0  0  0  0  0  0  0  0  0  0
  139.0401   76.3369  222.8587 H   0  0  0  0  0  0  0  0  0  0  0  0
  1  2  2  0
  2  3  1  0
  3  4  2  0
  4  5  1  0
  5  6  2  0
  5  7  1  0
  7  8  1  0
  8  9  1  0
  9 10  1  0
 10 11  2  0
 11 12  1  0
 12 13  1  0
 13 14  1  0
 14 15  1  0
 15 16  1  0
 16 17  1  0
 17 18  1  0
 18 19  1  0
 19 20  2  0
 20 21  1  0
 21 22  2  0
 22 23  1  0
 23 24  2  0
 24 25  1  0
 25 26  2  0
 12 27  2  0
 27 28  1  0
 28 29  1  0
 29 30  1  0
 30 31  1  0
 31 32  1  0
 32 33  2  0
 33 34  1  0
 34 35  2  0
 35 36  1  0
 36 37  2  0
 37 38  1  0
 28 39  2  0
  9 40  1  0
  6  1  1  0
 39 10  1  0
 40  4  1  0
 26 18  1  0
 38 29  1  0
 26 21  1  0
 37 32  1  0
  1 41  1  0
  2 42  1  0
  3 43  1  0
  6 44  1  0
  7 45  1  0
  7 46  1  0
  8 47  1  0
  8 48  1  0
 13 49  1  0
 14 50  1  0
 14 51  1  0
 15 52  1  0
 15 53  1  0
 16 54  1  0
 16 55  1  0
 17 56  1  0
 17 57  1  0
 19 58  1  0
 22 59  1  0
 23 60  1  0
 24 61  1  0
 25 62  1  0
 30 63  1  0
 30 64  1  0
 31 65  1  0
 31 66  1  0
 33 67  1  0
 34 68  1  0
 35 69  1  0
 36 70  1  0
 38 71  1  0
 38 72  1  0
 40 73  1  0
 40 74  1  0
M  END
>  <smiles>  (37) 
c1ccc2c(c1)CCN(c1nc(NCCCCn3cnc4ccccc43)nc(N3CCc4ccccc4C3)n1)C2

>  <score_type>  (37) 
oracle

>  <origin>  (37) 
autodockgpu

>  <m_score__min__energy>  (37) 
-11.42

>  <m_primary>  (37) 
energy

>  <rmsd>  (37) 
8.32260727999113

>  <m_score__min__rmsd>  (37) 
8.32260727999113

>  <meeko>  (37) 
{"free_energy": -8.76, "intermolecular_energy": -11.15, "internal_energy": -2.85, "cluster_size": 14, "cluster_id": 4, "rank_in_cluster": 12}

>  <energy>  (37) 
-9.42

>  <cluster_rmsd>  (37) 
1.63

>  <cluster>  (37) 
4

$$$$

     RDKit          3D

 74 80  0  0  0  0  0  0  0  0999 V2000
  141.6810   81.3200  223.0340 C   0  0  0  0  0  0  0  0  0  0  0  0
  142.7520   80.4490  223.0190 C   0  0  0  0  0  0  0  0  0  0  0  0
  142.5470   79.0830  222.9380 C   0  0  0  0  0  0  0  0  0  0  0  0
  141.2560   78.6120  222.8720 C   0  0  0  0  0  0  0  0  0  0  0  0
  140.1580   79.4570  222.8850 C   0  0  0  0  0  0  0  0  0  0  0  0
  140.4000   80.8090  222.9660 C   0  0  0  0  0  0  0  0  0  0  0  0
  138.7700   78.9160  222.8120 C   0  0  0  0  0  0  0  0  0  0  0  0
  138.7030   77.7650  221.8510 C   0  0  0  0  0  0  0  0  0  0  0  0
  139.8010   76.8220  222.0590 N   0  0  0  0  0  0  0  0  0  0  0  0
  139.6900   75.5000  221.5230 C   0  0  0  0  0  0  0  0  0  0  0  0
  139.6400   75.2810  220.1960 N   0  0  0  0  0  0  0  0  0  0  0  0
  139.5370   74.0620  219.6610 C   0  0  0  0  0  0  0  0  0  0  0  0
  139.4860   73.8470  218.2410 N   0  0  0  0  0  0  0  0  0  0  0  0
  140.2240   72.8170  217.5830 C   0  0  0  0  0  0  0  0  0  0  0  0
  141.4700   73.3550  216.9060 C   0  0  0  0  0  0  0  0  0  0  0  0
  142.6450   72.5600  217.3830 C   0  0  0  0  0  0  0  0  0  0  0  0
  143.7960   73.4030  217.8330 C   0  0  0  0  0  0  0  0  0  0  0  0
  143.2990   74.3590  218.8110 N   0  0  0  0  0  0  0  0  0  0  0  0
  143.0340   74.0980  220.1110 C   0  0  0  0  0  0  0  0  0  0  0  0
  142.5930   75.2350  220.6880 N   0  0  0  0  0  0  0  0  0  0  0  0
  142.5840   76.2100  219.7370 C   0  0  0  0  0  0  0  0  0  0  0  0
  142.2180   77.5370  219.8260 C   0  0  0  0  0  0  0  0  0  0  0  0
  142.3140   78.3140  218.6650 C   0  0  0  0  0  0  0  0  0  0  0  0
  142.7570   77.7520  217.5030 C   0  0  0  0  0  0  0  0  0  0  0  0
  143.1200   76.4260  217.4220 C   0  0  0  0  0  0  0  0  0  0  0  0
  143.0300   75.6600  218.5500 C   0  0  0  0  0  0  0  0  0  0  0  0
  139.4830   73.0220  220.5340 N   0  0  0  0  0  0  0  0  0  0  0  0
  139.5270   73.1750  221.8630 C   0  0  0  0  0  0  0  0  0  0  0  0
  139.4680   72.0670  222.7670 N   0  0  0  0  0  0  0  0  0  0  0  0
  138.1950   71.4180  223.0120 C   0  0  0  0  0  0  0  0  0  0  0  0
  138.4840   69.9920  223.5000 C   0  0  0  0  0  0  0  0  0  0  0  0
  139.2510   70.1900  224.7810 C   0  0  0  0  0  0  0  0  0  0  0  0
  138.8510   69.5690  225.9320 C   0  0  0  0  0  0  0  0  0  0  0  0
  139.5710   69.7650  227.0950 C   0  0  0  0  0  0  0  0  0  0  0  0
  140.6870   70.5990  227.0410 C   0  0  0  0  0  0  0  0  0  0  0  0
  141.0700   71.2180  225.8530 C   0  0  0  0  0  0  0  0  0  0  0  0
  140.3500   71.0210  224.6920 C   0  0  0  0  0  0  0  0  0  0  0  0
  140.7080   71.6520  223.3950 C   0  0  0  0  0  0  0  0  0  0  0  0
  139.6310   74.4350  222.3410 N   0  0  0  0  0  0  0  0  0  0  0  0
  141.0000   77.1680  222.7850 C   0  0  0  0  0  0  0  0  0  0  0  0
  141.8458   82.4056  223.0992 H   0  0  0  0  0  0  0  0  0  0  0  0
  143.7771   80.8443  223.0719 H   0  0  0  0  0  0  0  0  0  0  0  0
  143.3992   78.3875  222.9266 H   0  0  0  0  0  0  0  0  0  0  0  0
  139.5473   81.5038  222.9769 H   0  0  0  0  0  0  0  0  0  0  0  0
  138.4629   78.5719  223.8106 H   0  0  0  0  0  0  0  0  0  0  0  0
  138.0966   79.7117  222.4607 H   0  0  0  0  0  0  0  0  0  0  0  0
  137.7483   77.2374  221.9928 H   0  0  0  0  0  0  0  0  0  0  0  0
  138.7841   78.1658  220.8298 H   0  0  0  0  0  0  0  0  0  0  0  0
  138.8870   74.4720  217.6950 H   0  0  0  0  0  0  0  0  0  0  0  0
  140.5213   72.0627  218.3264 H   0  0  0  0  0  0  0  0  0  0  0  0
  139.5784   72.3786  216.8078 H   0  0  0  0  0  0  0  0  0  0  0  0
  141.3724   73.2562  215.8148 H   0  0  0  0  0  0  0  0  0  0  0  0
  141.6064   74.4181  217.1533 H   0  0  0  0  0  0  0  0  0  0  0  0
  142.3214   71.9339  218.2276 H   0  0  0  0  0  0  0  0  0  0  0  0
  142.9975   71.9620  216.5297 H   0  0  0  0  0  0  0  0  0  0  0  0
  144.5675   72.7670  218.2916 H   0  0  0  0  0  0  0  0  0  0  0  0
  144.2412   73.9299  216.9762 H   0  0  0  0  0  0  0  0  0  0  0  0
  143.1568   73.1263  220.6117 H   0  0  0  0  0  0  0  0  0  0  0  0
  141.8639   77.9688  220.7737 H   0  0  0  0  0  0  0  0  0  0  0  0
  142.0324   79.3771  218.6896 H   0  0  0  0  0  0  0  0  0  0  0  0
  142.8264   78.3786  216.6016 H   0  0  0  0  0  0  0  0  0  0  0  0
  143.4732   75.9946  216.4738 H   0  0  0  0  0  0  0  0  0  0  0  0
  137.6347   71.9706  223.7806 H   0  0  0  0  0  0  0  0  0  0  0  0
  137.5911   71.3955  222.0929 H   0  0  0  0  0  0  0  0  0  0  0  0
  137.5475   69.4458  223.6861 H   0  0  0  0  0  0  0  0  0  0  0  0
  139.0423   69.3982  222.7613 H   0  0  0  0  0  0  0  0  0  0  0  0
  137.9636   68.9190  225.9319 H   0  0  0  0  0  0  0  0  0  0  0  0
  139.2727   69.2778  228.0350 H   0  0  0  0  0  0  0  0  0  0  0  0
  141.2763   70.7716  227.9537 H   0  0  0  0  0  0  0  0  0  0  0  0
  141.9555   71.8705  225.8402 H   0  0  0  0  0  0  0  0  0  0  0  0
  141.3552   72.5249  223.5658 H   0  0  0  0  0  0  0  0  0  0  0  0
  141.2551   70.9456  222.7533 H   0  0  0  0  0  0  0  0  0  0  0  0
  140.9109   76.7713  223.8071 H   0  0  0  0  0  0  0  0  0  0  0  0
  141.8429   76.7305  222.2299 H   0  0  0  0  0  0  0  0  0  0  0  0
  1  2  2  0
  2  3  1  0
  3  4  2  0
  4  5  1  0
  5  6  2  0
  5  7  1  0
  7  8  1  0
  8  9  1  0
  9 10  1  0
 10 11  2  0
 11 12  1  0
 12 13  1  0
 13 14  1  0
 14 15  1  0
 15 16  1  0
 16 17  1  0
 17 18  1  0
 18 19  1  0
 19 20  2  0
 20 21  1  0
 21 22  2  0
 22 23  1  0
 23 24  2  0
 24 25  1  0
 25 26  2  0
 12 27  2  0
 27 28  1  0
 28 29  1  0
 29 30  1  0
 30 31  1  0
 31 32  1  0
 32 33  2  0
 33 34  1  0
 34 35  2  0
 35 36  1  0
 36 37  2  0
 37 38  1  0
 28 39  2  0
  9 40  1  0
  6  1  1  0
 39 10  1  0
 40  4  1  0
 26 18  1  0
 38 29  1  0
 26 21  1  0
 37 32  1  0
  1 41  1  0
  2 42  1  0
  3 43  1  0
  6 44  1  0
  7 45  1  0
  7 46  1  0
  8 47  1  0
  8 48  1  0
 13 49  1  0
 14 50  1  0
 14 51  1  0
 15 52  1  0
 15 53  1  0
 16 54  1  0
 16 55  1  0
 17 56  1  0
 17 57  1  0
 19 58  1  0
 22 59  1  0
 23 60  1  0
 24 61  1  0
 25 62  1  0
 30 63  1  0
 30 64  1  0
 31 65  1  0
 31 66  1  0
 33 67  1  0
 34 68  1  0
 35 69  1  0
 36 70  1  0
 38 71  1  0
 38 72  1  0
 40 73  1  0
 40 74  1  0
M  END
>  <smiles>  (38) 
c1ccc2c(c1)CCN(c1nc(NCCCCn3cnc4ccccc43)nc(N3CCc4ccccc4C3)n1)C2

>  <score_type>  (38) 
oracle

>  <origin>  (38) 
autodockgpu

>  <m_score__min__energy>  (38) 
-11.42

>  <m_primary>  (38) 
energy

>  <rmsd>  (38) 
9.876274230130855

>  <m_score__min__rmsd>  (38) 
9.876274230130855

>  <meeko>  (38) 
{"free_energy": -8.8, "intermolecular_energy": -11.18, "internal_energy": -2.87, "cluster_size": 2, "cluster_id": 5, "rank_in_cluster": 2}

>  <energy>  (38) 
-9.38

>  <cluster_rmsd>  (38) 
0.8

>  <cluster>  (38) 
4

$$$$

     RDKit          3D

 74 80  0  0  0  0  0  0  0  0999 V2000
  145.8330   70.2010  218.8340 C   0  0  0  0  0  0  0  0  0  0  0  0
  144.6940   69.4730  219.1140 C   0  0  0  0  0  0  0  0  0  0  0  0
  143.6790   70.0210  219.8780 C   0  0  0  0  0  0  0  0  0  0  0  0
  143.8290   71.3050  220.3520 C   0  0  0  0  0  0  0  0  0  0  0  0
  144.9580   72.0630  220.0900 C   0  0  0  0  0  0  0  0  0  0  0  0
  145.9460   71.4850  219.3270 C   0  0  0  0  0  0  0  0  0  0  0  0
  145.0910   73.4520  220.6180 C   0  0  0  0  0  0  0  0  0  0  0  0
  143.7790   74.1750  220.5330 C   0  0  0  0  0  0  0  0  0  0  0  0
  142.6750   73.3530  221.0260 N   0  0  0  0  0  0  0  0  0  0  0  0
  141.4450   73.9890  221.3850 C   0  0  0  0  0  0  0  0  0  0  0  0
  140.3500   73.2740  221.7020 N   0  0  0  0  0  0  0  0  0  0  0  0
  139.1860   73.8330  222.0420 C   0  0  0  0  0  0  0  0  0  0  0  0
  138.0270   73.0530  222.3780 N   0  0  0  0  0  0  0  0  0  0  0  0
  137.5080   72.0280  221.5310 C   0  0  0  0  0  0  0  0  0  0  0  0
  137.3970   70.6980  222.2530 C   0  0  0  0  0  0  0  0  0  0  0  0
  138.0970   70.8180  223.5710 C   0  0  0  0  0  0  0  0  0  0  0  0
  139.5410   70.4300  223.5210 C   0  0  0  0  0  0  0  0  0  0  0  0
  140.1300   70.7160  224.8210 N   0  0  0  0  0  0  0  0  0  0  0  0
  140.7050   71.8820  225.1910 C   0  0  0  0  0  0  0  0  0  0  0  0
  141.1300   71.7570  226.4660 N   0  0  0  0  0  0  0  0  0  0  0  0
  140.8160   70.5010  226.8890 C   0  0  0  0  0  0  0  0  0  0  0  0
  141.0380   69.8900  228.1060 C   0  0  0  0  0  0  0  0  0  0  0  0
  140.5990   68.5690  228.2570 C   0  0  0  0  0  0  0  0  0  0  0  0
  139.9770   67.9350  227.2210 C   0  0  0  0  0  0  0  0  0  0  0  0
  139.7590   68.5520  226.0080 C   0  0  0  0  0  0  0  0  0  0  0  0
  140.1840   69.8400  225.8520 C   0  0  0  0  0  0  0  0  0  0  0  0
  139.1500   75.1910  222.0580 N   0  0  0  0  0  0  0  0  0  0  0  0
  140.2050   75.9580  221.7520 C   0  0  0  0  0  0  0  0  0  0  0  0
  140.1470   77.3880  221.7730 N   0  0  0  0  0  0  0  0  0  0  0  0
  140.0920   78.1150  220.5210 C   0  0  0  0  0  0  0  0  0  0  0  0
  139.4670   79.4860  220.8030 C   0  0  0  0  0  0  0  0  0  0  0  0
  140.4230   80.1350  221.7690 C   0  0  0  0  0  0  0  0  0  0  0  0
  140.9220   81.3840  221.5180 C   0  0  0  0  0  0  0  0  0  0  0  0
  141.7980   81.9590  222.4180 C   0  0  0  0  0  0  0  0  0  0  0  0
  142.1400   81.2300  223.5560 C   0  0  0  0  0  0  0  0  0  0  0  0
  141.6160   79.9590  223.7840 C   0  0  0  0  0  0  0  0  0  0  0  0
  140.7400   79.3870  222.8840 C   0  0  0  0  0  0  0  0  0  0  0  0
  140.1480   78.0360  223.0710 C   0  0  0  0  0  0  0  0  0  0  0  0
  141.3530   75.3300  221.4160 N   0  0  0  0  0  0  0  0  0  0  0  0
  142.7710   71.9190  221.1660 C   0  0  0  0  0  0  0  0  0  0  0  0
  146.6391   69.7638  218.2265 H   0  0  0  0  0  0  0  0  0  0  0  0
  144.5925   68.4486  218.7264 H   0  0  0  0  0  0  0  0  0  0  0  0
  142.7706   69.4426  220.1022 H   0  0  0  0  0  0  0  0  0  0  0  0
  146.8540   72.0641  219.1030 H   0  0  0  0  0  0  0  0  0  0  0  0
  145.4139   73.4104  221.6687 H   0  0  0  0  0  0  0  0  0  0  0  0
  145.8345   73.9924  220.0137 H   0  0  0  0  0  0  0  0  0  0  0  0
  143.8378   75.0923  221.1373 H   0  0  0  0  0  0  0  0  0  0  0  0
  143.5854   74.4105  219.4761 H   0  0  0  0  0  0  0  0  0  0  0  0
  137.5680   73.2580  223.2700 H   0  0  0  0  0  0  0  0  0  0  0  0
  136.5087   72.3274  221.1820 H   0  0  0  0  0  0  0  0  0  0  0  0
  138.2017   71.9002  220.6869 H   0  0  0  0  0  0  0  0  0  0  0  0
  136.3376   70.4506  222.4158 H   0  0  0  0  0  0  0  0  0  0  0  0
  137.8572   69.9007  221.6510 H   0  0  0  0  0  0  0  0  0  0  0  0
  138.0294   71.8634  223.9065 H   0  0  0  0  0  0  0  0  0  0  0  0
  137.6005   70.1227  224.2639 H   0  0  0  0  0  0  0  0  0  0  0  0
  139.6314   69.3565  223.2985 H   0  0  0  0  0  0  0  0  0  0  0  0
  140.0611   70.9954  222.7337 H   0  0  0  0  0  0  0  0  0  0  0  0
  140.8087   72.7782  224.5616 H   0  0  0  0  0  0  0  0  0  0  0  0
  141.5413   70.4211  228.9274 H   0  0  0  0  0  0  0  0  0  0  0  0
  140.7554   68.0426  229.2101 H   0  0  0  0  0  0  0  0  0  0  0  0
  139.6385   66.8974  227.3585 H   0  0  0  0  0  0  0  0  0  0  0  0
  139.2557   68.0205  225.1869 H   0  0  0  0  0  0  0  0  0  0  0  0
  141.1072   78.2424  220.1172 H   0  0  0  0  0  0  0  0  0  0  0  0
  139.4919   77.5635  219.7822 H   0  0  0  0  0  0  0  0  0  0  0  0
  139.3863   80.0759  219.8780 H   0  0  0  0  0  0  0  0  0  0  0  0
  138.4466   79.4094  221.2067 H   0  0  0  0  0  0  0  0  0  0  0  0
  140.6280   81.9258  220.6070 H   0  0  0  0  0  0  0  0  0  0  0  0
  142.2134   82.9622  222.2420 H   0  0  0  0  0  0  0  0  0  0  0  0
  142.8363   81.6661  224.2874 H   0  0  0  0  0  0  0  0  0  0  0  0
  141.9035   79.4061  224.6904 H   0  0  0  0  0  0  0  0  0  0  0  0
  140.7522   77.4544  223.7828 H   0  0  0  0  0  0  0  0  0  0  0  0
  139.1269   78.1080  223.4737 H   0  0  0  0  0  0  0  0  0  0  0  0
  142.9706   71.6879  222.2228 H   0  0  0  0  0  0  0  0  0  0  0  0
  141.8168   71.5017  220.8120 H   0  0  0  0  0  0  0  0  0  0  0  0
  1  2  2  0
  2  3  1  0
  3  4  2  0
  4  5  1  0
  5  6  2  0
  5  7  1  0
  7  8  1  0
  8  9  1  0
  9 10  1  0
 10 11  2  0
 11 12  1  0
 12 13  1  0
 13 14  1  0
 14 15  1  0
 15 16  1  0
 16 17  1  0
 17 18  1  0
 18 19  1  0
 19 20  2  0
 20 21  1  0
 21 22  2  0
 22 23  1  0
 23 24  2  0
 24 25  1  0
 25 26  2  0
 12 27  2  0
 27 28  1  0
 28 29  1  0
 29 30  1  0
 30 31  1  0
 31 32  1  0
 32 33  2  0
 33 34  1  0
 34 35  2  0
 35 36  1  0
 36 37  2  0
 37 38  1  0
 28 39  2  0
  9 40  1  0
  6  1  1  0
 39 10  1  0
 40  4  1  0
 26 18  1  0
 38 29  1  0
 26 21  1  0
 37 32  1  0
  1 41  1  0
  2 42  1  0
  3 43  1  0
  6 44  1  0
  7 45  1  0
  7 46  1  0
  8 47  1  0
  8 48  1  0
 13 49  1  0
 14 50  1  0
 14 51  1  0
 15 52  1  0
 15 53  1  0
 16 54  1  0
 16 55  1  0
 17 56  1  0
 17 57  1  0
 19 58  1  0
 22 59  1  0
 23 60  1  0
 24 61  1  0
 25 62  1  0
 30 63  1  0
 30 64  1  0
 31 65  1  0
 31 66  1  0
 33 67  1  0
 34 68  1  0
 35 69  1  0
 36 70  1  0
 38 71  1  0
 38 72  1  0
 40 73  1  0
 40 74  1  0
M  END
>  <smiles>  (39) 
c1ccc2c(c1)CCN(c1nc(NCCCCn3cnc4ccccc43)nc(N3CCc4ccccc4C3)n1)C2

>  <score_type>  (39) 
oracle

>  <origin>  (39) 
autodockgpu

>  <m_score__min__energy>  (39) 
-11.42

>  <m_primary>  (39) 
energy

>  <rmsd>  (39) 
4.453674835628032

>  <m_score__min__rmsd>  (39) 
4.453674835628032

>  <meeko>  (39) 
{"free_energy": -10.55, "intermolecular_energy": -12.94, "internal_energy": -1.53, "cluster_size": 18, "cluster_id": 1, "rank_in_cluster": 11}

>  <energy>  (39) 
-9.28

>  <cluster_rmsd>  (39) 
1.34

>  <cluster>  (39) 
4

$$$$

     RDKit          3D

 74 80  0  0  0  0  0  0  0  0999 V2000
  142.2590   81.2570  222.8170 C   0  0  0  0  0  0  0  0  0  0  0  0
  142.2390   80.5130  223.9800 C   0  0  0  0  0  0  0  0  0  0  0  0
  141.7950   79.2020  223.9700 C   0  0  0  0  0  0  0  0  0  0  0  0
  141.3740   78.6570  222.7780 C   0  0  0  0  0  0  0  0  0  0  0  0
  141.3810   79.3750  221.5930 C   0  0  0  0  0  0  0  0  0  0  0  0
  141.8290   80.6750  221.6420 C   0  0  0  0  0  0  0  0  0  0  0  0
  140.9190   78.7560  220.3170 C   0  0  0  0  0  0  0  0  0  0  0  0
  141.3800   77.3310  220.2250 C   0  0  0  0  0  0  0  0  0  0  0  0
  141.1400   76.6040  221.4710 N   0  0  0  0  0  0  0  0  0  0  0  0
  141.1460   75.1740  221.4500 C   0  0  0  0  0  0  0  0  0  0  0  0
  140.1270   74.4580  221.9600 N   0  0  0  0  0  0  0  0  0  0  0  0
  140.0990   73.1230  221.9570 C   0  0  0  0  0  0  0  0  0  0  0  0
  139.0020   72.3750  222.5060 N   0  0  0  0  0  0  0  0  0  0  0  0
  138.5370   71.1490  221.9430 C   0  0  0  0  0  0  0  0  0  0  0  0
  137.3630   70.5780  222.7150 C   0  0  0  0  0  0  0  0  0  0  0  0
  137.8690   70.0650  224.0280 C   0  0  0  0  0  0  0  0  0  0  0  0
  139.2010   69.3910  223.9350 C   0  0  0  0  0  0  0  0  0  0  0  0
  139.6790   69.1480  225.2880 N   0  0  0  0  0  0  0  0  0  0  0  0
  139.6440   67.9640  225.9390 C   0  0  0  0  0  0  0  0  0  0  0  0
  140.1770   68.1420  227.1670 N   0  0  0  0  0  0  0  0  0  0  0  0
  140.5440   69.4490  227.2760 C   0  0  0  0  0  0  0  0  0  0  0  0
  141.1300   70.1240  228.3270 C   0  0  0  0  0  0  0  0  0  0  0  0
  141.3990   71.4870  228.1520 C   0  0  0  0  0  0  0  0  0  0  0  0
  141.0820   72.0990  226.9740 C   0  0  0  0  0  0  0  0  0  0  0  0
  140.4970   71.4180  225.9280 C   0  0  0  0  0  0  0  0  0  0  0  0
  140.2320   70.0880  226.0910 C   0  0  0  0  0  0  0  0  0  0  0  0
  141.1710   72.4980  221.4020 N   0  0  0  0  0  0  0  0  0  0  0  0
  142.2150   73.1530  220.8790 C   0  0  0  0  0  0  0  0  0  0  0  0
  143.3350   72.4770  220.3000 N   0  0  0  0  0  0  0  0  0  0  0  0
  144.0710   73.1120  219.2260 C   0  0  0  0  0  0  0  0  0  0  0  0
  145.4800   72.5050  219.2010 C   0  0  0  0  0  0  0  0  0  0  0  0
  145.2460   71.0460  218.9120 C   0  0  0  0  0  0  0  0  0  0  0  0
  145.9060   70.4270  217.8860 C   0  0  0  0  0  0  0  0  0  0  0  0
  145.6750   69.0870  217.6400 C   0  0  0  0  0  0  0  0  0  0  0  0
  144.7680   68.4180  218.4600 C   0  0  0  0  0  0  0  0  0  0  0  0
  144.1100   69.0750  219.4980 C   0  0  0  0  0  0  0  0  0  0  0  0
  144.3420   70.4130  219.7420 C   0  0  0  0  0  0  0  0  0  0  0  0
  143.6730   71.1700  220.8320 C   0  0  0  0  0  0  0  0  0  0  0  0
  142.1820   74.5030  220.9140 N   0  0  0  0  0  0  0  0  0  0  0  0
  140.8960   77.2690  222.7290 C   0  0  0  0  0  0  0  0  0  0  0  0
  142.6126   82.2986  222.8270 H   0  0  0  0  0  0  0  0  0  0  0  0
  142.5790   80.9662  224.9229 H   0  0  0  0  0  0  0  0  0  0  0  0
  141.7789   78.6078  224.8956 H   0  0  0  0  0  0  0  0  0  0  0  0
  141.8449   81.2686  220.7161 H   0  0  0  0  0  0  0  0  0  0  0  0
  139.8200   78.7838  220.2787 H   0  0  0  0  0  0  0  0  0  0  0  0
  141.3432   79.3214  219.4742 H   0  0  0  0  0  0  0  0  0  0  0  0
  140.8351   76.8318  219.4102 H   0  0  0  0  0  0  0  0  0  0  0  0
  142.4629   77.3324  220.0316 H   0  0  0  0  0  0  0  0  0  0  0  0
  138.5480   72.7570  223.3400 H   0  0  0  0  0  0  0  0  0  0  0  0
  138.2240   71.3314  220.9044 H   0  0  0  0  0  0  0  0  0  0  0  0
  139.3600   70.4206  221.9887 H   0  0  0  0  0  0  0  0  0  0  0  0
  136.6130   71.3641  222.8868 H   0  0  0  0  0  0  0  0  0  0  0  0
  136.8945   69.7626  222.1444 H   0  0  0  0  0  0  0  0  0  0  0  0
  137.9565   70.9136  224.7224 H   0  0  0  0  0  0  0  0  0  0  0  0
  137.1495   69.3101  224.3780 H   0  0  0  0  0  0  0  0  0  0  0  0
  139.0993   68.4363  223.3982 H   0  0  0  0  0  0  0  0  0  0  0  0
  139.9126   70.0262  223.3872 H   0  0  0  0  0  0  0  0  0  0  0  0
  139.2495   67.0188  225.5379 H   0  0  0  0  0  0  0  0  0  0  0  0
  141.3768   69.6103  229.2678 H   0  0  0  0  0  0  0  0  0  0  0  0
  141.8657   72.0643  228.9637 H   0  0  0  0  0  0  0  0  0  0  0  0
  141.3004   73.1705  226.8554 H   0  0  0  0  0  0  0  0  0  0  0  0
  140.2502   71.9319  224.9872 H   0  0  0  0  0  0  0  0  0  0  0  0
  143.5666   72.9270  218.2661 H   0  0  0  0  0  0  0  0  0  0  0  0
  144.1234   74.1990  219.3860 H   0  0  0  0  0  0  0  0  0  0  0  0
  146.0902   72.9667  218.4107 H   0  0  0  0  0  0  0  0  0  0  0  0
  146.0262   72.6668  220.1420 H   0  0  0  0  0  0  0  0  0  0  0  0
  146.6147   70.9913  217.2620 H   0  0  0  0  0  0  0  0  0  0  0  0
  146.1914   68.5640  216.8216 H   0  0  0  0  0  0  0  0  0  0  0  0
  144.5677   67.3507  218.2844 H   0  0  0  0  0  0  0  0  0  0  0  0
  143.3988   68.5215  220.1288 H   0  0  0  0  0  0  0  0  0  0  0  0
  142.7604   70.6450  221.1507 H   0  0  0  0  0  0  0  0  0  0  0  0
  144.3339   71.2627  221.7065 H   0  0  0  0  0  0  0  0  0  0  0  0
  139.8116   77.2707  222.9139 H   0  0  0  0  0  0  0  0  0  0  0  0
  141.4576   76.7137  223.4947 H   0  0  0  0  0  0  0  0  0  0  0  0
  1  2  2  0
  2  3  1  0
  3  4  2  0
  4  5  1  0
  5  6  2  0
  5  7  1  0
  7  8  1  0
  8  9  1  0
  9 10  1  0
 10 11  2  0
 11 12  1  0
 12 13  1  0
 13 14  1  0
 14 15  1  0
 15 16  1  0
 16 17  1  0
 17 18  1  0
 18 19  1  0
 19 20  2  0
 20 21  1  0
 21 22  2  0
 22 23  1  0
 23 24  2  0
 24 25  1  0
 25 26  2  0
 12 27  2  0
 27 28  1  0
 28 29  1  0
 29 30  1  0
 30 31  1  0
 31 32  1  0
 32 33  2  0
 33 34  1  0
 34 35  2  0
 35 36  1  0
 36 37  2  0
 37 38  1  0
 28 39  2  0
  9 40  1  0
  6  1  1  0
 39 10  1  0
 40  4  1  0
 26 18  1  0
 38 29  1  0
 26 21  1  0
 37 32  1  0
  1 41  1  0
  2 42  1  0
  3 43  1  0
  6 44  1  0
  7 45  1  0
  7 46  1  0
  8 47  1  0
  8 48  1  0
 13 49  1  0
 14 50  1  0
 14 51  1  0
 15 52  1  0
 15 53  1  0
 16 54  1  0
 16 55  1  0
 17 56  1  0
 17 57  1  0
 19 58  1  0
 22 59  1  0
 23 60  1  0
 24 61  1  0
 25 62  1  0
 30 63  1  0
 30 64  1  0
 31 65  1  0
 31 66  1  0
 33 67  1  0
 34 68  1  0
 35 69  1  0
 36 70  1  0
 38 71  1  0
 38 72  1  0
 40 73  1  0
 40 74  1  0
M  END
>  <smiles>  (40) 
c1ccc2c(c1)CCN(c1nc(NCCCCn3cnc4ccccc43)nc(N3CCc4ccccc4C3)n1)C2

>  <score_type>  (40) 
oracle

>  <origin>  (40) 
autodockgpu

>  <m_score__min__energy>  (40) 
-11.42

>  <m_primary>  (40) 
energy

>  <rmsd>  (40) 
5.267779438053261

>  <m_score__min__rmsd>  (40) 
5.267779438053261

>  <meeko>  (40) 
{"free_energy": -11.27, "intermolecular_energy": -13.66, "internal_energy": -1.34, "cluster_size": 18, "cluster_id": 1, "rank_in_cluster": 2}

>  <energy>  (40) 
-9.27

>  <cluster_rmsd>  (40) 
1.32

>  <cluster>  (40) 
4

$$$$

     RDKit          3D

 74 80  0  0  0  0  0  0  0  0999 V2000
  140.5120   69.8450  228.3350 C   0  0  0  0  0  0  0  0  0  0  0  0
  141.0520   71.1120  228.2320 C   0  0  0  0  0  0  0  0  0  0  0  0
  141.0670   71.7740  227.0170 C   0  0  0  0  0  0  0  0  0  0  0  0
  140.5320   71.1450  225.9160 C   0  0  0  0  0  0  0  0  0  0  0  0
  139.9820   69.8760  225.9830 C   0  0  0  0  0  0  0  0  0  0  0  0
  139.9850   69.2480  227.2080 C   0  0  0  0  0  0  0  0  0  0  0  0
  139.4090   69.2200  224.7720 C   0  0  0  0  0  0  0  0  0  0  0  0
  138.6610   70.2180  223.9370 C   0  0  0  0  0  0  0  0  0  0  0  0
  139.4220   71.4540  223.7580 N   0  0  0  0  0  0  0  0  0  0  0  0
  139.0590   72.3430  222.6980 C   0  0  0  0  0  0  0  0  0  0  0  0
  138.1340   72.0050  221.7820 N   0  0  0  0  0  0  0  0  0  0  0  0
  137.7700   72.8100  220.7800 C   0  0  0  0  0  0  0  0  0  0  0  0
  136.7790   72.4330  219.8110 N   0  0  0  0  0  0  0  0  0  0  0  0
  135.4590   72.0230  220.1670 C   0  0  0  0  0  0  0  0  0  0  0  0
  134.5660   73.2050  220.4920 C   0  0  0  0  0  0  0  0  0  0  0  0
  134.1950   73.1310  221.9410 C   0  0  0  0  0  0  0  0  0  0  0  0
  135.3150   73.4870  222.8660 C   0  0  0  0  0  0  0  0  0  0  0  0
  134.8100   73.4270  224.2300 N   0  0  0  0  0  0  0  0  0  0  0  0
  134.4010   74.4820  224.9700 C   0  0  0  0  0  0  0  0  0  0  0  0
  134.0050   74.0220  226.1750 N   0  0  0  0  0  0  0  0  0  0  0  0
  134.1720   72.6700  226.1820 C   0  0  0  0  0  0  0  0  0  0  0  0
  133.9150   71.7460  227.1740 C   0  0  0  0  0  0  0  0  0  0  0  0
  134.1880   70.4020  226.8930 C   0  0  0  0  0  0  0  0  0  0  0  0
  134.6900   70.0490  225.6750 C   0  0  0  0  0  0  0  0  0  0  0  0
  134.9440   70.9770  224.6890 C   0  0  0  0  0  0  0  0  0  0  0  0
  134.6800   72.2910  224.9540 C   0  0  0  0  0  0  0  0  0  0  0  0
  138.3900   74.0180  220.7220 N   0  0  0  0  0  0  0  0  0  0  0  0
  139.3180   74.4120  221.6020 C   0  0  0  0  0  0  0  0  0  0  0  0
  139.9600   75.6880  221.5230 N   0  0  0  0  0  0  0  0  0  0  0  0
  141.3640   75.7570  221.1700 C   0  0  0  0  0  0  0  0  0  0  0  0
  141.6360   77.1540  220.5990 C   0  0  0  0  0  0  0  0  0  0  0  0
  141.3130   78.0870  221.7370 C   0  0  0  0  0  0  0  0  0  0  0  0
  142.2200   79.0280  222.1410 C   0  0  0  0  0  0  0  0  0  0  0  0
  141.9020   79.8720  223.1870 C   0  0  0  0  0  0  0  0  0  0  0  0
  140.6550   79.7230  223.7920 C   0  0  0  0  0  0  0  0  0  0  0  0
  139.7520   78.7540  223.3590 C   0  0  0  0  0  0  0  0  0  0  0  0
  140.0710   77.9120  222.3130 C   0  0  0  0  0  0  0  0  0  0  0  0
  139.1530   76.8600  221.8060 C   0  0  0  0  0  0  0  0  0  0  0  0
  139.6410   73.5510  222.5920 N   0  0  0  0  0  0  0  0  0  0  0  0
  140.5300   71.8180  224.6100 C   0  0  0  0  0  0  0  0  0  0  0  0
  140.5021   69.3195  229.3013 H   0  0  0  0  0  0  0  0  0  0  0  0
  141.4738   71.5991  229.1235 H   0  0  0  0  0  0  0  0  0  0  0  0
  141.4978   72.7826  226.9328 H   0  0  0  0  0  0  0  0  0  0  0  0
  139.5541   68.2393  227.2910 H   0  0  0  0  0  0  0  0  0  0  0  0
  140.2250   68.7874  224.1745 H   0  0  0  0  0  0  0  0  0  0  0  0
  138.7126   68.4306  225.0912 H   0  0  0  0  0  0  0  0  0  0  0  0
  138.4603   69.7770  222.9494 H   0  0  0  0  0  0  0  0  0  0  0  0
  137.7237   70.4653  224.4569 H   0  0  0  0  0  0  0  0  0  0  0  0
  137.0530   72.4670  218.8250 H   0  0  0  0  0  0  0  0  0  0  0  0
  135.0204   71.4673  219.3251 H   0  0  0  0  0  0  0  0  0  0  0  0
  135.5294   71.3927  221.0658 H   0  0  0  0  0  0  0  0  0  0  0  0
  135.1045   74.1434  220.2936 H   0  0  0  0  0  0  0  0  0  0  0  0
  133.6607   73.1785  219.8676 H   0  0  0  0  0  0  0  0  0  0  0  0
  133.3609   73.8249  222.1220 H   0  0  0  0  0  0  0  0  0  0  0  0
  133.9238   72.0858  222.1510 H   0  0  0  0  0  0  0  0  0  0  0  0
  136.1421   72.7724  222.7427 H   0  0  0  0  0  0  0  0  0  0  0  0
  135.6888   74.4969  222.6416 H   0  0  0  0  0  0  0  0  0  0  0  0
  134.3925   75.5331  224.6459 H   0  0  0  0  0  0  0  0  0  0  0  0
  133.5106   72.0540  228.1495 H   0  0  0  0  0  0  0  0  0  0  0  0
  133.9977   69.6310  227.6542 H   0  0  0  0  0  0  0  0  0  0  0  0
  134.8990   68.9881  225.4732 H   0  0  0  0  0  0  0  0  0  0  0  0
  135.3488   70.6681  223.7139 H   0  0  0  0  0  0  0  0  0  0  0  0
  141.9831   75.5911  222.0640 H   0  0  0  0  0  0  0  0  0  0  0  0
  141.6119   74.9838  220.4279 H   0  0  0  0  0  0  0  0  0  0  0  0
  142.6895   77.2546  220.2989 H   0  0  0  0  0  0  0  0  0  0  0  0
  141.0400   77.3649  219.6988 H   0  0  0  0  0  0  0  0  0  0  0  0
  143.1942   79.1118  221.6371 H   0  0  0  0  0  0  0  0  0  0  0  0
  142.6113   80.6386  223.5322 H   0  0  0  0  0  0  0  0  0  0  0  0
  140.3785   80.3831  224.6274 H   0  0  0  0  0  0  0  0  0  0  0  0
  138.7752   78.6592  223.8558 H   0  0  0  0  0  0  0  0  0  0  0  0
  138.3957   76.6215  222.5673 H   0  0  0  0  0  0  0  0  0  0  0  0
  138.6288   77.2015  220.9013 H   0  0  0  0  0  0  0  0  0  0  0  0
  141.4644   71.5624  224.0888 H   0  0  0  0  0  0  0  0  0  0  0  0
  140.4344   72.8955  224.8098 H   0  0  0  0  0  0  0  0  0  0  0  0
  1  2  2  0
  2  3  1  0
  3  4  2  0
  4  5  1  0
  5  6  2  0
  5  7  1  0
  7  8  1  0
  8  9  1  0
  9 10  1  0
 10 11  2  0
 11 12  1  0
 12 13  1  0
 13 14  1  0
 14 15  1  0
 15 16  1  0
 16 17  1  0
 17 18  1  0
 18 19  1  0
 19 20  2  0
 20 21  1  0
 21 22  2  0
 22 23  1  0
 23 24  2  0
 24 25  1  0
 25 26  2  0
 12 27  2  0
 27 28  1  0
 28 29  1  0
 29 30  1  0
 30 31  1  0
 31 32  1  0
 32 33  2  0
 33 34  1  0
 34 35  2  0
 35 36  1  0
 36 37  2  0
 37 38  1  0
 28 39  2  0
  9 40  1  0
  6  1  1  0
 39 10  1  0
 40  4  1  0
 26 18  1  0
 38 29  1  0
 26 21  1  0
 37 32  1  0
  1 41  1  0
  2 42  1  0
  3 43  1  0
  6 44  1  0
  7 45  1  0
  7 46  1  0
  8 47  1  0
  8 48  1  0
 13 49  1  0
 14 50  1  0
 14 51  1  0
 15 52  1  0
 15 53  1  0
 16 54  1  0
 16 55  1  0
 17 56  1  0
 17 57  1  0
 19 58  1  0
 22 59  1  0
 23 60  1  0
 24 61  1  0
 25 62  1  0
 30 63  1  0
 30 64  1  0
 31 65  1  0
 31 66  1  0
 33 67  1  0
 34 68  1  0
 35 69  1  0
 36 70  1  0
 38 71  1  0
 38 72  1  0
 40 73  1  0
 40 74  1  0
M  END
>  <smiles>  (41) 
c1ccc2c(c1)CCN(c1nc(NCCCCn3cnc4ccccc43)nc(N3CCc4ccccc4C3)n1)C2

>  <score_type>  (41) 
oracle

>  <origin>  (41) 
autodockgpu

>  <m_score__min__energy>  (41) 
-11.42

>  <m_primary>  (41) 
energy

>  <rmsd>  (41) 
6.97471075388853

>  <m_score__min__rmsd>  (41) 
6.97471075388853

>  <meeko>  (41) 
{"free_energy": -9.91, "intermolecular_energy": -12.3, "internal_energy": -1.95, "cluster_size": 3, "cluster_id": 3, "rank_in_cluster": 1}

>  <energy>  (41) 
-9.13

>  <cluster_rmsd>  (41) 
1.34

>  <cluster>  (41) 
4

$$$$

     RDKit          3D

 74 80  0  0  0  0  0  0  0  0999 V2000
  141.8620   80.1380  223.0980 C   0  0  0  0  0  0  0  0  0  0  0  0
  140.6890   79.8940  223.7860 C   0  0  0  0  0  0  0  0  0  0  0  0
  139.8720   78.8360  223.4290 C   0  0  0  0  0  0  0  0  0  0  0  0
  140.2520   78.0330  222.3780 C   0  0  0  0  0  0  0  0  0  0  0  0
  141.4210   78.2490  221.6670 C   0  0  0  0  0  0  0  0  0  0  0  0
  142.2090   79.3100  222.0500 C   0  0  0  0  0  0  0  0  0  0  0  0
  141.8060   77.3620  220.5320 C   0  0  0  0  0  0  0  0  0  0  0  0
  141.4840   75.9310  220.8490 C   0  0  0  0  0  0  0  0  0  0  0  0
  140.1410   75.7900  221.4110 N   0  0  0  0  0  0  0  0  0  0  0  0
  139.5210   74.5010  221.4080 C   0  0  0  0  0  0  0  0  0  0  0  0
  138.7030   74.1160  220.4120 N   0  0  0  0  0  0  0  0  0  0  0  0
  138.1070   72.9210  220.3760 C   0  0  0  0  0  0  0  0  0  0  0  0
  137.2370   72.5270  219.3040 N   0  0  0  0  0  0  0  0  0  0  0  0
  135.9090   73.0270  219.1560 C   0  0  0  0  0  0  0  0  0  0  0  0
  135.8940   74.4610  218.6580 C   0  0  0  0  0  0  0  0  0  0  0  0
  135.4210   75.3410  219.7730 C   0  0  0  0  0  0  0  0  0  0  0  0
  136.5220   76.0910  220.4530 C   0  0  0  0  0  0  0  0  0  0  0  0
  136.1320   76.3040  221.8400 N   0  0  0  0  0  0  0  0  0  0  0  0
  135.9580   77.5040  222.4380 C   0  0  0  0  0  0  0  0  0  0  0  0
  135.6000   77.2870  223.7210 N   0  0  0  0  0  0  0  0  0  0  0  0
  135.5530   75.9400  223.9190 C   0  0  0  0  0  0  0  0  0  0  0  0
  135.2400   75.2180  225.0520 C   0  0  0  0  0  0  0  0  0  0  0  0
  135.2750   73.8210  224.9590 C   0  0  0  0  0  0  0  0  0  0  0  0
  135.6090   73.2240  223.7780 C   0  0  0  0  0  0  0  0  0  0  0  0
  135.9200   73.9530  222.6510 C   0  0  0  0  0  0  0  0  0  0  0  0
  135.8890   75.3160  222.7320 C   0  0  0  0  0  0  0  0  0  0  0  0
  138.3690   72.0850  221.4150 N   0  0  0  0  0  0  0  0  0  0  0  0
  139.1730   72.4100  222.4360 C   0  0  0  0  0  0  0  0  0  0  0  0
  139.4350   71.5160  223.5220 N   0  0  0  0  0  0  0  0  0  0  0  0
  138.4310   70.5410  223.8980 C   0  0  0  0  0  0  0  0  0  0  0  0
  139.1420   69.3940  224.6260 C   0  0  0  0  0  0  0  0  0  0  0  0
  139.7490   70.0480  225.8400 C   0  0  0  0  0  0  0  0  0  0  0  0
  139.5200   69.5390  227.0890 C   0  0  0  0  0  0  0  0  0  0  0  0
  140.0860   70.1560  228.1880 C   0  0  0  0  0  0  0  0  0  0  0  0
  140.8750   71.2850  227.9700 C   0  0  0  0  0  0  0  0  0  0  0  0
  141.0900   71.7810  226.6850 C   0  0  0  0  0  0  0  0  0  0  0  0
  140.5230   71.1620  225.5890 C   0  0  0  0  0  0  0  0  0  0  0  0
  140.7140   71.6420  224.1960 C   0  0  0  0  0  0  0  0  0  0  0  0
  139.7440   73.6340  222.4120 N   0  0  0  0  0  0  0  0  0  0  0  0
  139.4090   76.9010  221.9710 C   0  0  0  0  0  0  0  0  0  0  0  0
  142.5101   80.9803  223.3816 H   0  0  0  0  0  0  0  0  0  0  0  0
  140.4023   80.5461  224.6242 H   0  0  0  0  0  0  0  0  0  0  0  0
  138.9370   78.6405  223.9746 H   0  0  0  0  0  0  0  0  0  0  0  0
  143.1441   79.5041  221.5041 H   0  0  0  0  0  0  0  0  0  0  0  0
  141.2528   77.6663  219.6313 H   0  0  0  0  0  0  0  0  0  0  0  0
  142.8889   77.4531  220.3615 H   0  0  0  0  0  0  0  0  0  0  0  0
  141.5476   75.3382  219.9246 H   0  0  0  0  0  0  0  0  0  0  0  0
  142.2076   75.5744  221.5968 H   0  0  0  0  0  0  0  0  0  0  0  0
  137.6070   71.8560  218.6240 H   0  0  0  0  0  0  0  0  0  0  0  0
  135.3697   72.3949  218.4351 H   0  0  0  0  0  0  0  0  0  0  0  0
  135.4254   73.0050  220.1438 H   0  0  0  0  0  0  0  0  0  0  0  0
  136.9079   74.7595  218.3531 H   0  0  0  0  0  0  0  0  0  0  0  0
  135.2233   74.5541  217.7912 H   0  0  0  0  0  0  0  0  0  0  0  0
  134.7066   76.0694  219.3618 H   0  0  0  0  0  0  0  0  0  0  0  0
  134.9629   74.6858  220.5285 H   0  0  0  0  0  0  0  0  0  0  0  0
  137.4526   75.5059  220.4126 H   0  0  0  0  0  0  0  0  0  0  0  0
  136.6936   77.0552  219.9520 H   0  0  0  0  0  0  0  0  0  0  0  0
  136.0860   78.4870  221.9613 H   0  0  0  0  0  0  0  0  0  0  0  0
  134.9729   75.7207  225.9933 H   0  0  0  0  0  0  0  0  0  0  0  0
  135.0333   73.2050  225.8377 H   0  0  0  0  0  0  0  0  0  0  0  0
  135.6306   72.1255  223.7242 H   0  0  0  0  0  0  0  0  0  0  0  0
  136.1865   73.4500  221.7098 H   0  0  0  0  0  0  0  0  0  0  0  0
  137.6897   71.0052  224.5650 H   0  0  0  0  0  0  0  0  0  0  0  0
  137.9075   70.1648  223.0067 H   0  0  0  0  0  0  0  0  0  0  0  0
  138.4242   68.6143  224.9206 H   0  0  0  0  0  0  0  0  0  0  0  0
  139.8931   68.8957  223.9955 H   0  0  0  0  0  0  0  0  0  0  0  0
  138.8906   68.6460  227.2172 H   0  0  0  0  0  0  0  0  0  0  0  0
  139.9194   69.7685  229.2039 H   0  0  0  0  0  0  0  0  0  0  0  0
  141.3368   71.7942  228.8288 H   0  0  0  0  0  0  0  0  0  0  0  0
  141.7170   72.6736  226.5431 H   0  0  0  0  0  0  0  0  0  0  0  0
  141.0363   72.6937  224.2002 H   0  0  0  0  0  0  0  0  0  0  0  0
  141.4874   71.0528  223.6815 H   0  0  0  0  0  0  0  0  0  0  0  0
  138.6928   77.2579  221.2162 H   0  0  0  0  0  0  0  0  0  0  0  0
  138.9175   76.5290  222.8821 H   0  0  0  0  0  0  0  0  0  0  0  0
  1  2  2  0
  2  3  1  0
  3  4  2  0
  4  5  1  0
  5  6  2  0
  5  7  1  0
  7  8  1  0
  8  9  1  0
  9 10  1  0
 10 11  2  0
 11 12  1  0
 12 13  1  0
 13 14  1  0
 14 15  1  0
 15 16  1  0
 16 17  1  0
 17 18  1  0
 18 19  1  0
 19 20  2  0
 20 21  1  0
 21 22  2  0
 22 23  1  0
 23 24  2  0
 24 25  1  0
 25 26  2  0
 12 27  2  0
 27 28  1  0
 28 29  1  0
 29 30  1  0
 30 31  1  0
 31 32  1  0
 32 33  2  0
 33 34  1  0
 34 35  2  0
 35 36  1  0
 36 37  2  0
 37 38  1  0
 28 39  2  0
  9 40  1  0
  6  1  1  0
 39 10  1  0
 40  4  1  0
 26 18  1  0
 38 29  1  0
 26 21  1  0
 37 32  1  0
  1 41  1  0
  2 42  1  0
  3 43  1  0
  6 44  1  0
  7 45  1  0
  7 46  1  0
  8 47  1  0
  8 48  1  0
 13 49  1  0
 14 50  1  0
 14 51  1  0
 15 52  1  0
 15 53  1  0
 16 54  1  0
 16 55  1  0
 17 56  1  0
 17 57  1  0
 19 58  1  0
 22 59  1  0
 23 60  1  0
 24 61  1  0
 25 62  1  0
 30 63  1  0
 30 64  1  0
 31 65  1  0
 31 66  1  0
 33 67  1  0
 34 68  1  0
 35 69  1  0
 36 70  1  0
 38 71  1  0
 38 72  1  0
 40 73  1  0
 40 74  1  0
M  END
>  <smiles>  (42) 
c1ccc2c(c1)CCN(c1nc(NCCCCn3cnc4ccccc43)nc(N3CCc4ccccc4C3)n1)C2

>  <score_type>  (42) 
oracle

>  <origin>  (42) 
autodockgpu

>  <m_score__min__energy>  (42) 
-11.42

>  <m_primary>  (42) 
energy

>  <rmsd>  (42) 
7.843775140181473

>  <m_score__min__rmsd>  (42) 
7.843775140181473

>  <meeko>  (42) 
{"free_energy": -8.74, "intermolecular_energy": -11.13, "internal_energy": -2.83, "cluster_size": 3, "cluster_id": 3, "rank_in_cluster": 3}

>  <energy>  (42) 
-9.06

>  <cluster_rmsd>  (42) 
1.73

>  <cluster>  (42) 
4

$$$$

     RDKit          3D

 74 80  0  0  0  0  0  0  0  0999 V2000
  140.5350   69.6250  227.9980 C   0  0  0  0  0  0  0  0  0  0  0  0
  141.0620   70.9010  227.9770 C   0  0  0  0  0  0  0  0  0  0  0  0
  141.0500   71.6490  226.8130 C   0  0  0  0  0  0  0  0  0  0  0  0
  140.5010   71.0950  225.6790 C   0  0  0  0  0  0  0  0  0  0  0  0
  139.9640   69.8180  225.6640 C   0  0  0  0  0  0  0  0  0  0  0  0
  139.9940   69.1050  226.8400 C   0  0  0  0  0  0  0  0  0  0  0  0
  139.3770   69.2450  224.4190 C   0  0  0  0  0  0  0  0  0  0  0  0
  138.6050   70.2920  223.6700 C   0  0  0  0  0  0  0  0  0  0  0  0
  139.3520   71.5450  223.5680 N   0  0  0  0  0  0  0  0  0  0  0  0
  138.9630   72.5040  222.5800 C   0  0  0  0  0  0  0  0  0  0  0  0
  137.9550   72.2620  221.7220 N   0  0  0  0  0  0  0  0  0  0  0  0
  137.5650   73.1340  220.7890 C   0  0  0  0  0  0  0  0  0  0  0  0
  136.4850   72.8580  219.8820 N   0  0  0  0  0  0  0  0  0  0  0  0
  135.2580   73.5870  219.8880 C   0  0  0  0  0  0  0  0  0  0  0  0
  135.1350   74.4820  221.1070 C   0  0  0  0  0  0  0  0  0  0  0  0
  134.8590   73.6180  222.2980 C   0  0  0  0  0  0  0  0  0  0  0  0
  135.7530   73.9020  223.4640 C   0  0  0  0  0  0  0  0  0  0  0  0
  134.9800   73.7070  224.6830 N   0  0  0  0  0  0  0  0  0  0  0  0
  134.4140   74.6830  225.4260 C   0  0  0  0  0  0  0  0  0  0  0  0
  133.7860   74.1060  226.4720 N   0  0  0  0  0  0  0  0  0  0  0  0
  133.9650   72.7600  226.3750 C   0  0  0  0  0  0  0  0  0  0  0  0
  133.5220   71.7410  227.1940 C   0  0  0  0  0  0  0  0  0  0  0  0
  133.8640   70.4310  226.8390 C   0  0  0  0  0  0  0  0  0  0  0  0
  134.6100   70.1990  225.7200 C   0  0  0  0  0  0  0  0  0  0  0  0
  135.0490   71.2220  224.9070 C   0  0  0  0  0  0  0  0  0  0  0  0
  134.7190   72.5040  225.2450 C   0  0  0  0  0  0  0  0  0  0  0  0
  138.2450   74.3090  220.7390 N   0  0  0  0  0  0  0  0  0  0  0  0
  139.2570   74.6080  221.5630 C   0  0  0  0  0  0  0  0  0  0  0  0
  139.9620   75.8520  221.4940 N   0  0  0  0  0  0  0  0  0  0  0  0
  141.3720   75.8510  221.1560 C   0  0  0  0  0  0  0  0  0  0  0  0
  141.7180   77.2340  220.5910 C   0  0  0  0  0  0  0  0  0  0  0  0
  141.4300   78.1790  221.7270 C   0  0  0  0  0  0  0  0  0  0  0  0
  142.3780   79.0730  222.1430 C   0  0  0  0  0  0  0  0  0  0  0  0
  142.0910   79.9300  223.1880 C   0  0  0  0  0  0  0  0  0  0  0  0
  140.8320   79.8420  223.7800 C   0  0  0  0  0  0  0  0  0  0  0  0
  139.8870   78.9200  223.3350 C   0  0  0  0  0  0  0  0  0  0  0  0
  140.1750   78.0660  222.2900 C   0  0  0  0  0  0  0  0  0  0  0  0
  139.2110   77.0610  221.7710 C   0  0  0  0  0  0  0  0  0  0  0  0
  139.6030   73.6830  222.4850 N   0  0  0  0  0  0  0  0  0  0  0  0
  140.4710   71.8590  224.4240 C   0  0  0  0  0  0  0  0  0  0  0  0
  140.5463   69.0317  228.9242 H   0  0  0  0  0  0  0  0  0  0  0  0
  141.4953   71.3268  228.8940 H   0  0  0  0  0  0  0  0  0  0  0  0
  141.4705   72.6653  226.7944 H   0  0  0  0  0  0  0  0  0  0  0  0
  139.5736   68.0887  226.8578 H   0  0  0  0  0  0  0  0  0  0  0  0
  140.1869   68.8654  223.7787 H   0  0  0  0  0  0  0  0  0  0  0  0
  138.6937   68.4273  224.6921 H   0  0  0  0  0  0  0  0  0  0  0  0
  138.3914   69.9208  222.6568 H   0  0  0  0  0  0  0  0  0  0  0  0
  137.6741   70.4915  224.2210 H   0  0  0  0  0  0  0  0  0  0  0  0
  136.6240   72.1000  219.2080 H   0  0  0  0  0  0  0  0  0  0  0  0
  135.2110   74.2108  218.9832 H   0  0  0  0  0  0  0  0  0  0  0  0
  134.4316   72.8614  219.9142 H   0  0  0  0  0  0  0  0  0  0  0  0
  136.0735   75.0355  221.2584 H   0  0  0  0  0  0  0  0  0  0  0  0
  134.3182   75.2051  220.9656 H   0  0  0  0  0  0  0  0  0  0  0  0
  133.8170   73.7799  222.6111 H   0  0  0  0  0  0  0  0  0  0  0  0
  135.0473   72.5781  221.9928 H   0  0  0  0  0  0  0  0  0  0  0  0
  136.6113   73.2141  223.4524 H   0  0  0  0  0  0  0  0  0  0  0  0
  136.1312   74.9337  223.4127 H   0  0  0  0  0  0  0  0  0  0  0  0
  134.4575   75.7617  225.2149 H   0  0  0  0  0  0  0  0  0  0  0  0
  132.9226   71.9507  228.0922 H   0  0  0  0  0  0  0  0  0  0  0  0
  133.5313   69.5879  227.4623 H   0  0  0  0  0  0  0  0  0  0  0  0
  134.8693   69.1625  225.4585 H   0  0  0  0  0  0  0  0  0  0  0  0
  135.6493   71.0117  224.0096 H   0  0  0  0  0  0  0  0  0  0  0  0
  141.9727   75.6532  222.0560 H   0  0  0  0  0  0  0  0  0  0  0  0
  141.5897   75.0673  220.4155 H   0  0  0  0  0  0  0  0  0  0  0  0
  142.7781   77.2833  220.3017 H   0  0  0  0  0  0  0  0  0  0  0  0
  141.1422   77.4755  219.6854 H   0  0  0  0  0  0  0  0  0  0  0  0
  143.3605   79.1093  221.6497 H   0  0  0  0  0  0  0  0  0  0  0  0
  142.8338   80.6599  223.5423 H   0  0  0  0  0  0  0  0  0  0  0  0
  140.5799   80.5132  224.6142 H   0  0  0  0  0  0  0  0  0  0  0  0
  138.9016   78.8723  223.8215 H   0  0  0  0  0  0  0  0  0  0  0  0
  138.4350   76.8588  222.5239 H   0  0  0  0  0  0  0  0  0  0  0  0
  138.7134   77.4294  220.8617 H   0  0  0  0  0  0  0  0  0  0  0  0
  141.3983   71.6501  223.8705 H   0  0  0  0  0  0  0  0  0  0  0  0
  140.3702   72.9188  224.7009 H   0  0  0  0  0  0  0  0  0  0  0  0
  1  2  2  0
  2  3  1  0
  3  4  2  0
  4  5  1  0
  5  6  2  0
  5  7  1  0
  7  8  1  0
  8  9  1  0
  9 10  1  0
 10 11  2  0
 11 12  1  0
 12 13  1  0
 13 14  1  0
 14 15  1  0
 15 16  1  0
 16 17  1  0
 17 18  1  0
 18 19  1  0
 19 20  2  0
 20 21  1  0
 21 22  2  0
 22 23  1  0
 23 24  2  0
 24 25  1  0
 25 26  2  0
 12 27  2  0
 27 28  1  0
 28 29  1  0
 29 30  1  0
 30 31  1  0
 31 32  1  0
 32 33  2  0
 33 34  1  0
 34 35  2  0
 35 36  1  0
 36 37  2  0
 37 38  1  0
 28 39  2  0
  9 40  1  0
  6  1  1  0
 39 10  1  0
 40  4  1  0
 26 18  1  0
 38 29  1  0
 26 21  1  0
 37 32  1  0
  1 41  1  0
  2 42  1  0
  3 43  1  0
  6 44  1  0
  7 45  1  0
  7 46  1  0
  8 47  1  0
  8 48  1  0
 13 49  1  0
 14 50  1  0
 14 51  1  0
 15 52  1  0
 15 53  1  0
 16 54  1  0
 16 55  1  0
 17 56  1  0
 17 57  1  0
 19 58  1  0
 22 59  1  0
 23 60  1  0
 24 61  1  0
 25 62  1  0
 30 63  1  0
 30 64  1  0
 31 65  1  0
 31 66  1  0
 33 67  1  0
 34 68  1  0
 35 69  1  0
 36 70  1  0
 38 71  1  0
 38 72  1  0
 40 73  1  0
 40 74  1  0
M  END
>  <smiles>  (43) 
c1ccc2c(c1)CCN(c1nc(NCCCCn3cnc4ccccc43)nc(N3CCc4ccccc4C3)n1)C2

>  <score_type>  (43) 
oracle

>  <origin>  (43) 
autodockgpu

>  <m_score__min__energy>  (43) 
-11.42

>  <m_primary>  (43) 
energy

>  <rmsd>  (43) 
6.9993531545422725

>  <m_score__min__rmsd>  (43) 
6.9993531545422725

>  <meeko>  (43) 
{"free_energy": -10.11, "intermolecular_energy": -12.5, "internal_energy": -1.93, "cluster_size": 10, "cluster_id": 2, "rank_in_cluster": 4}

>  <energy>  (43) 
-8.76

>  <cluster_rmsd>  (43) 
1.67

>  <cluster>  (43) 
4

$$$$

     RDKit          3D

 74 80  0  0  0  0  0  0  0  0999 V2000
  141.4200   81.7310  222.8320 C   0  0  0  0  0  0  0  0  0  0  0  0
  142.5690   80.9660  222.8280 C   0  0  0  0  0  0  0  0  0  0  0  0
  142.4960   79.5870  222.9120 C   0  0  0  0  0  0  0  0  0  0  0  0
  141.2570   78.9950  223.0010 C   0  0  0  0  0  0  0  0  0  0  0  0
  140.0840   79.7330  223.0080 C   0  0  0  0  0  0  0  0  0  0  0  0
  140.1950   81.1010  222.9220 C   0  0  0  0  0  0  0  0  0  0  0  0
  138.7550   79.0630  223.1050 C   0  0  0  0  0  0  0  0  0  0  0  0
  138.7370   77.8070  222.2840 C   0  0  0  0  0  0  0  0  0  0  0  0
  139.9350   76.9980  222.5060 N   0  0  0  0  0  0  0  0  0  0  0  0
  139.9190   75.6190  222.1280 C   0  0  0  0  0  0  0  0  0  0  0  0
  138.7760   74.9090  222.1010 N   0  0  0  0  0  0  0  0  0  0  0  0
  138.7240   73.6210  221.7530 C   0  0  0  0  0  0  0  0  0  0  0  0
  137.4940   72.8800  221.7300 N   0  0  0  0  0  0  0  0  0  0  0  0
  137.4450   71.4550  221.6640 C   0  0  0  0  0  0  0  0  0  0  0  0
  137.6280   70.8170  223.0290 C   0  0  0  0  0  0  0  0  0  0  0  0
  138.2750   69.4800  222.8400 C   0  0  0  0  0  0  0  0  0  0  0  0
  139.0070   68.9920  224.0510 C   0  0  0  0  0  0  0  0  0  0  0  0
  139.7880   70.1000  224.5820 N   0  0  0  0  0  0  0  0  0  0  0  0
  140.4430   71.0280  223.8510 C   0  0  0  0  0  0  0  0  0  0  0  0
  141.0470   71.8850  224.7010 N   0  0  0  0  0  0  0  0  0  0  0  0
  140.7620   71.4820  225.9710 C   0  0  0  0  0  0  0  0  0  0  0  0
  141.1430   72.0220  227.1820 C   0  0  0  0  0  0  0  0  0  0  0  0
  140.6930   71.3850  228.3450 C   0  0  0  0  0  0  0  0  0  0  0  0
  139.9080   70.2720  228.2520 C   0  0  0  0  0  0  0  0  0  0  0  0
  139.5320   69.7390  227.0380 C   0  0  0  0  0  0  0  0  0  0  0  0
  139.9670   70.3540  225.8990 C   0  0  0  0  0  0  0  0  0  0  0  0
  139.9050   73.0390  221.4160 N   0  0  0  0  0  0  0  0  0  0  0  0
  141.0740   73.6900  221.4240 C   0  0  0  0  0  0  0  0  0  0  0  0
  142.3080   73.0590  221.0670 N   0  0  0  0  0  0  0  0  0  0  0  0
  143.4040   73.8690  220.5740 C   0  0  0  0  0  0  0  0  0  0  0  0
  144.7060   73.0970  220.8250 C   0  0  0  0  0  0  0  0  0  0  0  0
  144.5500   71.8380  220.0130 C   0  0  0  0  0  0  0  0  0  0  0  0
  145.5200   71.4610  219.1250 C   0  0  0  0  0  0  0  0  0  0  0  0
  145.3550   70.3020  218.3920 C   0  0  0  0  0  0  0  0  0  0  0  0
  144.1920   69.5600  218.5920 C   0  0  0  0  0  0  0  0  0  0  0  0
  143.2210   69.9700  219.5030 C   0  0  0  0  0  0  0  0  0  0  0  0
  143.3870   71.1280  220.2360 C   0  0  0  0  0  0  0  0  0  0  0  0
  142.3890   71.6180  221.2220 C   0  0  0  0  0  0  0  0  0  0  0  0
  141.0590   74.9920  221.7860 N   0  0  0  0  0  0  0  0  0  0  0  0
  141.1410   77.5340  223.0930 C   0  0  0  0  0  0  0  0  0  0  0  0
  141.4797   82.8273  222.7644 H   0  0  0  0  0  0  0  0  0  0  0  0
  143.5508   81.4569  222.7574 H   0  0  0  0  0  0  0  0  0  0  0  0
  143.4105   78.9758  222.9077 H   0  0  0  0  0  0  0  0  0  0  0  0
  139.2801   81.7116  222.9250 H   0  0  0  0  0  0  0  0  0  0  0  0
  138.5529   78.8108  224.1565 H   0  0  0  0  0  0  0  0  0  0  0  0
  137.9833   79.7478  222.7235 H   0  0  0  0  0  0  0  0  0  0  0  0
  137.8513   77.2149  222.5578 H   0  0  0  0  0  0  0  0  0  0  0  0
  138.7079   78.0921  221.2220 H   0  0  0  0  0  0  0  0  0  0  0  0
  136.6230   73.4180  221.7640 H   0  0  0  0  0  0  0  0  0  0  0  0
  136.4688   71.1515  221.2579 H   0  0  0  0  0  0  0  0  0  0  0  0
  138.2674   71.1159  221.0169 H   0  0  0  0  0  0  0  0  0  0  0  0
  138.2689   71.4552  223.6550 H   0  0  0  0  0  0  0  0  0  0  0  0
  136.6539   70.6998  223.5263 H   0  0  0  0  0  0  0  0  0  0  0  0
  137.4936   68.7481  222.5875 H   0  0  0  0  0  0  0  0  0  0  0  0
  139.0184   69.5920  222.0370 H   0  0  0  0  0  0  0  0  0  0  0  0
  138.2876   68.6460  224.8078 H   0  0  0  0  0  0  0  0  0  0  0  0
  139.6664   68.1523  223.7862 H   0  0  0  0  0  0  0  0  0  0  0  0
  140.4781   71.0768  222.7526 H   0  0  0  0  0  0  0  0  0  0  0  0
  141.7768   72.9197  227.2321 H   0  0  0  0  0  0  0  0  0  0  0  0
  140.9718   71.7811  229.3326 H   0  0  0  0  0  0  0  0  0  0  0  0
  139.5643   69.7846  229.1763 H   0  0  0  0  0  0  0  0  0  0  0  0
  138.8980   68.8415  226.9878 H   0  0  0  0  0  0  0  0  0  0  0  0
  143.2791   74.0522  219.4966 H   0  0  0  0  0  0  0  0  0  0  0  0
  143.4270   74.8402  221.0899 H   0  0  0  0  0  0  0  0  0  0  0  0
  145.5758   73.6769  220.4828 H   0  0  0  0  0  0  0  0  0  0  0  0
  144.8759   72.8922  221.8923 H   0  0  0  0  0  0  0  0  0  0  0  0
  146.4233   72.0754  218.9959 H   0  0  0  0  0  0  0  0  0  0  0  0
  146.1189   69.9741  217.6716 H   0  0  0  0  0  0  0  0  0  0  0  0
  144.0380   68.6333  218.0197 H   0  0  0  0  0  0  0  0  0  0  0  0
  142.3127   69.3648  219.6397 H   0  0  0  0  0  0  0  0  0  0  0  0
  141.4079   71.1615  221.0245 H   0  0  0  0  0  0  0  0  0  0  0  0
  142.6869   71.3505  222.2466 H   0  0  0  0  0  0  0  0  0  0  0  0
  141.1619   77.2525  224.1562 H   0  0  0  0  0  0  0  0  0  0  0  0
  141.9835   77.1134  222.5243 H   0  0  0  0  0  0  0  0  0  0  0  0
  1  2  2  0
  2  3  1  0
  3  4  2  0
  4  5  1  0
  5  6  2  0
  5  7  1  0
  7  8  1  0
  8  9  1  0
  9 10  1  0
 10 11  2  0
 11 12  1  0
 12 13  1  0
 13 14  1  0
 14 15  1  0
 15 16  1  0
 16 17  1  0
 17 18  1  0
 18 19  1  0
 19 20  2  0
 20 21  1  0
 21 22  2  0
 22 23  1  0
 23 24  2  0
 24 25  1  0
 25 26  2  0
 12 27  2  0
 27 28  1  0
 28 29  1  0
 29 30  1  0
 30 31  1  0
 31 32  1  0
 32 33  2  0
 33 34  1  0
 34 35  2  0
 35 36  1  0
 36 37  2  0
 37 38  1  0
 28 39  2  0
  9 40  1  0
  6  1  1  0
 39 10  1  0
 40  4  1  0
 26 18  1  0
 38 29  1  0
 26 21  1  0
 37 32  1  0
  1 41  1  0
  2 42  1  0
  3 43  1  0
  6 44  1  0
  7 45  1  0
  7 46  1  0
  8 47  1  0
  8 48  1  0
 13 49  1  0
 14 50  1  0
 14 51  1  0
 15 52  1  0
 15 53  1  0
 16 54  1  0
 16 55  1  0
 17 56  1  0
 17 57  1  0
 19 58  1  0
 22 59  1  0
 23 60  1  0
 24 61  1  0
 25 62  1  0
 30 63  1  0
 30 64  1  0
 31 65  1  0
 31 66  1  0
 33 67  1  0
 34 68  1  0
 35 69  1  0
 36 70  1  0
 38 71  1  0
 38 72  1  0
 40 73  1  0
 40 74  1  0
M  END
>  <smiles>  (44) 
c1ccc2c(c1)CCN(c1nc(NCCCCn3cnc4ccccc43)nc(N3CCc4ccccc4C3)n1)C2

>  <score_type>  (44) 
oracle

>  <origin>  (44) 
autodockgpu

>  <m_score__min__energy>  (44) 
-11.42

>  <m_primary>  (44) 
energy

>  <rmsd>  (44) 
4.62191337923742

>  <m_score__min__rmsd>  (44) 
4.62191337923742

>  <meeko>  (44) 
{"free_energy": -10.08, "intermolecular_energy": -12.46, "internal_energy": -1.66, "cluster_size": 18, "cluster_id": 1, "rank_in_cluster": 17}

>  <energy>  (44) 
-8.44

>  <cluster_rmsd>  (44) 
1.73

>  <cluster>  (44) 
4

$$$$

     RDKit          3D

 74 80  0  0  0  0  0  0  0  0999 V2000
  141.9290   79.9300  222.9200 C   0  0  0  0  0  0  0  0  0  0  0  0
  140.7510   79.8480  223.6360 C   0  0  0  0  0  0  0  0  0  0  0  0
  139.8540   78.8220  223.4000 C   0  0  0  0  0  0  0  0  0  0  0  0
  140.1590   77.8860  222.4380 C   0  0  0  0  0  0  0  0  0  0  0  0
  141.3310   77.9370  221.7010 C   0  0  0  0  0  0  0  0  0  0  0  0
  142.1990   78.9720  221.9630 C   0  0  0  0  0  0  0  0  0  0  0  0
  141.6340   76.9080  220.6650 C   0  0  0  0  0  0  0  0  0  0  0  0
  141.2130   75.5470  221.1360 C   0  0  0  0  0  0  0  0  0  0  0  0
  139.8710   75.5670  221.7170 N   0  0  0  0  0  0  0  0  0  0  0  0
  139.1580   74.3340  221.8560 C   0  0  0  0  0  0  0  0  0  0  0  0
  138.0550   74.0740  221.1310 N   0  0  0  0  0  0  0  0  0  0  0  0
  137.3650   72.9350  221.2340 C   0  0  0  0  0  0  0  0  0  0  0  0
  136.1900   72.6740  220.4510 N   0  0  0  0  0  0  0  0  0  0  0  0
  135.1300   73.6180  220.2990 C   0  0  0  0  0  0  0  0  0  0  0  0
  134.2560   73.6940  221.5370 C   0  0  0  0  0  0  0  0  0  0  0  0
  134.6590   74.9020  222.3240 C   0  0  0  0  0  0  0  0  0  0  0  0
  135.7080   74.6240  223.3540 C   0  0  0  0  0  0  0  0  0  0  0  0
  135.0430   74.1500  224.5590 N   0  0  0  0  0  0  0  0  0  0  0  0
  134.4370   74.9250  225.4860 C   0  0  0  0  0  0  0  0  0  0  0  0
  133.9410   74.1200  226.4490 N   0  0  0  0  0  0  0  0  0  0  0  0
  134.2420   72.8350  226.1140 C   0  0  0  0  0  0  0  0  0  0  0  0
  133.9570   71.6540  226.7690 C   0  0  0  0  0  0  0  0  0  0  0  0
  134.3990   70.4640  226.1800 C   0  0  0  0  0  0  0  0  0  0  0  0
  135.0850   70.5010  225.0010 C   0  0  0  0  0  0  0  0  0  0  0  0
  135.3660   71.6840  224.3530 C   0  0  0  0  0  0  0  0  0  0  0  0
  134.9380   72.8500  224.9200 C   0  0  0  0  0  0  0  0  0  0  0  0
  137.8350   72.0230  222.1260 N   0  0  0  0  0  0  0  0  0  0  0  0
  138.9260   72.2240  222.8770 C   0  0  0  0  0  0  0  0  0  0  0  0
  139.4050   71.2520  223.8110 N   0  0  0  0  0  0  0  0  0  0  0  0
  138.6260   70.0530  224.0520 C   0  0  0  0  0  0  0  0  0  0  0  0
  139.5770   68.9760  224.5870 C   0  0  0  0  0  0  0  0  0  0  0  0
  140.1010   69.5540  225.8760 C   0  0  0  0  0  0  0  0  0  0  0  0
  140.0310   68.8350  227.0370 C   0  0  0  0  0  0  0  0  0  0  0  0
  140.5170   69.3860  228.2070 C   0  0  0  0  0  0  0  0  0  0  0  0
  141.0620   70.6680  228.1500 C   0  0  0  0  0  0  0  0  0  0  0  0
  141.1190   71.3770  226.9510 C   0  0  0  0  0  0  0  0  0  0  0  0
  140.6330   70.8250  225.7840 C   0  0  0  0  0  0  0  0  0  0  0  0
  140.6640   71.5290  224.4750 C   0  0  0  0  0  0  0  0  0  0  0  0
  139.5780   73.3970  222.7250 N   0  0  0  0  0  0  0  0  0  0  0  0
  139.2300   76.7820  222.1600 C   0  0  0  0  0  0  0  0  0  0  0  0
  142.6416   80.7463  223.1092 H   0  0  0  0  0  0  0  0  0  0  0  0
  140.5241   80.6054  224.4008 H   0  0  0  0  0  0  0  0  0  0  0  0
  138.9155   78.7554  223.9698 H   0  0  0  0  0  0  0  0  0  0  0  0
  143.1371   79.0383  221.3924 H   0  0  0  0  0  0  0  0  0  0  0  0
  141.0915   77.1547  219.7404 H   0  0  0  0  0  0  0  0  0  0  0  0
  142.7180   76.8999  220.4785 H   0  0  0  0  0  0  0  0  0  0  0  0
  141.2209   74.8555  220.2806 H   0  0  0  0  0  0  0  0  0  0  0  0
  141.9186   75.2198  221.9138 H   0  0  0  0  0  0  0  0  0  0  0  0
  136.1300   71.7630  219.9870 H   0  0  0  0  0  0  0  0  0  0  0  0
  135.5631   74.6110  220.1083 H   0  0  0  0  0  0  0  0  0  0  0  0
  134.5010   73.2907  219.4580 H   0  0  0  0  0  0  0  0  0  0  0  0
  133.1997   73.7778  221.2419 H   0  0  0  0  0  0  0  0  0  0  0  0
  134.3814   72.7863  222.1455 H   0  0  0  0  0  0  0  0  0  0  0  0
  135.0488   75.6575  221.6260 H   0  0  0  0  0  0  0  0  0  0  0  0
  133.7643   75.2501  222.8610 H   0  0  0  0  0  0  0  0  0  0  0  0
  136.4005   73.8542  222.9828 H   0  0  0  0  0  0  0  0  0  0  0  0
  136.2825   75.5370  223.5694 H   0  0  0  0  0  0  0  0  0  0  0  0
  134.3612   76.0221  225.4599 H   0  0  0  0  0  0  0  0  0  0  0  0
  133.4028   71.6484  227.7191 H   0  0  0  0  0  0  0  0  0  0  0  0
  134.1935   69.4994  226.6671 H   0  0  0  0  0  0  0  0  0  0  0  0
  135.4248   69.5554  224.5533 H   0  0  0  0  0  0  0  0  0  0  0  0
  135.9209   71.6890  223.4032 H   0  0  0  0  0  0  0  0  0  0  0  0
  137.8401   70.2600  224.7933 H   0  0  0  0  0  0  0  0  0  0  0  0
  138.1453   69.7138  223.1226 H   0  0  0  0  0  0  0  0  0  0  0  0
  139.0371   68.0356  224.7720 H   0  0  0  0  0  0  0  0  0  0  0  0
  140.3807   68.7325  223.8766 H   0  0  0  0  0  0  0  0  0  0  0  0
  139.5915   67.8266  227.0394 H   0  0  0  0  0  0  0  0  0  0  0  0
  140.4752   68.8299  229.1552 H   0  0  0  0  0  0  0  0  0  0  0  0
  141.4545   71.1288  229.0685 H   0  0  0  0  0  0  0  0  0  0  0  0
  141.5558   72.3864  226.9354 H   0  0  0  0  0  0  0  0  0  0  0  0
  140.7775   72.6118  224.6317 H   0  0  0  0  0  0  0  0  0  0  0  0
  141.5120   71.1839  223.8653 H   0  0  0  0  0  0  0  0  0  0  0  0
  138.5306   77.1086  221.3763 H   0  0  0  0  0  0  0  0  0  0  0  0
  138.7264   76.5459  223.1090 H   0  0  0  0  0  0  0  0  0  0  0  0
  1  2  2  0
  2  3  1  0
  3  4  2  0
  4  5  1  0
  5  6  2  0
  5  7  1  0
  7  8  1  0
  8  9  1  0
  9 10  1  0
 10 11  2  0
 11 12  1  0
 12 13  1  0
 13 14  1  0
 14 15  1  0
 15 16  1  0
 16 17  1  0
 17 18  1  0
 18 19  1  0
 19 20  2  0
 20 21  1  0
 21 22  2  0
 22 23  1  0
 23 24  2  0
 24 25  1  0
 25 26  2  0
 12 27  2  0
 27 28  1  0
 28 29  1  0
 29 30  1  0
 30 31  1  0
 31 32  1  0
 32 33  2  0
 33 34  1  0
 34 35  2  0
 35 36  1  0
 36 37  2  0
 37 38  1  0
 28 39  2  0
  9 40  1  0
  6  1  1  0
 39 10  1  0
 40  4  1  0
 26 18  1  0
 38 29  1  0
 26 21  1  0
 37 32  1  0
  1 41  1  0
  2 42  1  0
  3 43  1  0
  6 44  1  0
  7 45  1  0
  7 46  1  0
  8 47  1  0
  8 48  1  0
 13 49  1  0
 14 50  1  0
 14 51  1  0
 15 52  1  0
 15 53  1  0
 16 54  1  0
 16 55  1  0
 17 56  1  0
 17 57  1  0
 19 58  1  0
 22 59  1  0
 23 60  1  0
 24 61  1  0
 25 62  1  0
 30 63  1  0
 30 64  1  0
 31 65  1  0
 31 66  1  0
 33 67  1  0
 34 68  1  0
 35 69  1  0
 36 70  1  0
 38 71  1  0
 38 72  1  0
 40 73  1  0
 40 74  1  0
M  END
>  <smiles>  (45) 
c1ccc2c(c1)CCN(c1nc(NCCCCn3cnc4ccccc43)nc(N3CCc4ccccc4C3)n1)C2

>  <score_type>  (45) 
oracle

>  <origin>  (45) 
autodockgpu

>  <m_score__min__energy>  (45) 
-11.42

>  <m_primary>  (45) 
energy

>  <rmsd>  (45) 
7.034809566857694

>  <m_score__min__rmsd>  (45) 
7.034809566857694

>  <meeko>  (45) 
{"free_energy": -9.9, "intermolecular_energy": -12.28, "internal_energy": -2.27, "cluster_size": 10, "cluster_id": 2, "rank_in_cluster": 6}

>  <energy>  (45) 
-8.38

>  <cluster_rmsd>  (45) 
1.6

>  <cluster>  (45) 
4

$$$$

     RDKit          3D

 74 80  0  0  0  0  0  0  0  0999 V2000
  141.3990   81.9420  222.5940 C   0  0  0  0  0  0  0  0  0  0  0  0
  142.5720   81.2170  222.6770 C   0  0  0  0  0  0  0  0  0  0  0  0
  142.5400   79.8440  222.8410 C   0  0  0  0  0  0  0  0  0  0  0  0
  141.3170   79.2170  222.9180 C   0  0  0  0  0  0  0  0  0  0  0  0
  140.1220   79.9120  222.8380 C   0  0  0  0  0  0  0  0  0  0  0  0
  140.1930   81.2770  222.6750 C   0  0  0  0  0  0  0  0  0  0  0  0
  138.8120   79.2040  222.9250 C   0  0  0  0  0  0  0  0  0  0  0  0
  138.8670   77.9030  222.1790 C   0  0  0  0  0  0  0  0  0  0  0  0
  140.0800   77.1500  222.4930 N   0  0  0  0  0  0  0  0  0  0  0  0
  140.1230   75.7510  222.1970 C   0  0  0  0  0  0  0  0  0  0  0  0
  139.0490   74.9610  222.3750 N   0  0  0  0  0  0  0  0  0  0  0  0
  139.0530   73.6520  222.1090 C   0  0  0  0  0  0  0  0  0  0  0  0
  137.8960   72.8240  222.3050 N   0  0  0  0  0  0  0  0  0  0  0  0
  137.5950   71.7000  221.4780 C   0  0  0  0  0  0  0  0  0  0  0  0
  137.8070   70.3860  222.2060 C   0  0  0  0  0  0  0  0  0  0  0  0
  139.2810   70.1520  222.3340 C   0  0  0  0  0  0  0  0  0  0  0  0
  139.8550   70.6390  223.6260 C   0  0  0  0  0  0  0  0  0  0  0  0
  139.7000   69.5820  224.6150 N   0  0  0  0  0  0  0  0  0  0  0  0
  139.1400   68.3710  224.3980 C   0  0  0  0  0  0  0  0  0  0  0  0
  139.1810   67.6740  225.5540 N   0  0  0  0  0  0  0  0  0  0  0  0
  139.7720   68.4620  226.4940 C   0  0  0  0  0  0  0  0  0  0  0  0
  140.0450   68.2090  227.8230 C   0  0  0  0  0  0  0  0  0  0  0  0
  140.6720   69.2220  228.5590 C   0  0  0  0  0  0  0  0  0  0  0  0
  140.9890   70.4050  227.9580 C   0  0  0  0  0  0  0  0  0  0  0  0
  140.7130   70.6500  226.6310 C   0  0  0  0  0  0  0  0  0  0  0  0
  140.1020   69.6680  225.9050 C   0  0  0  0  0  0  0  0  0  0  0  0
  140.2180   73.1360  221.6380 N   0  0  0  0  0  0  0  0  0  0  0  0
  141.3210   73.8690  221.4400 C   0  0  0  0  0  0  0  0  0  0  0  0
  142.5390   73.3060  220.9430 N   0  0  0  0  0  0  0  0  0  0  0  0
  143.4690   74.1510  220.2200 C   0  0  0  0  0  0  0  0  0  0  0  0
  144.8590   73.5110  220.3220 C   0  0  0  0  0  0  0  0  0  0  0  0
  144.7000   72.1740  219.6490 C   0  0  0  0  0  0  0  0  0  0  0  0
  145.5550   71.7930  218.6510 C   0  0  0  0  0  0  0  0  0  0  0  0
  145.3890   70.5620  218.0480 C   0  0  0  0  0  0  0  0  0  0  0  0
  144.3420   69.7520  218.4880 C   0  0  0  0  0  0  0  0  0  0  0  0
  143.4870   70.1680  219.5060 C   0  0  0  0  0  0  0  0  0  0  0  0
  143.6540   71.3980  220.1080 C   0  0  0  0  0  0  0  0  0  0  0  0
  142.7760   71.8980  221.1980 C   0  0  0  0  0  0  0  0  0  0  0  0
  141.2510   75.1870  221.7290 N   0  0  0  0  0  0  0  0  0  0  0  0
  141.2440   77.7600  223.0920 C   0  0  0  0  0  0  0  0  0  0  0  0
  141.4262   83.0341  222.4651 H   0  0  0  0  0  0  0  0  0  0  0  0
  143.5397   81.7361  222.6121 H   0  0  0  0  0  0  0  0  0  0  0  0
  143.4728   79.2649  222.9085 H   0  0  0  0  0  0  0  0  0  0  0  0
  139.2597   81.8552  222.6073 H   0  0  0  0  0  0  0  0  0  0  0  0
  138.5770   79.0060  223.9812 H   0  0  0  0  0  0  0  0  0  0  0  0
  138.0340   79.8389  222.4760 H   0  0  0  0  0  0  0  0  0  0  0  0
  137.9906   77.2975  222.4534 H   0  0  0  0  0  0  0  0  0  0  0  0
  138.8710   78.1256  221.1018 H   0  0  0  0  0  0  0  0  0  0  0  0
  137.2720   73.0680  223.0790 H   0  0  0  0  0  0  0  0  0  0  0  0
  136.5439   71.7643  221.1601 H   0  0  0  0  0  0  0  0  0  0  0  0
  138.2743   71.7228  220.6131 H   0  0  0  0  0  0  0  0  0  0  0  0
  137.3502   70.4365  223.2054 H   0  0  0  0  0  0  0  0  0  0  0  0
  137.3397   69.5626  221.6459 H   0  0  0  0  0  0  0  0  0  0  0  0
  139.4695   69.0711  222.2553 H   0  0  0  0  0  0  0  0  0  0  0  0
  139.7689   70.7218  221.5294 H   0  0  0  0  0  0  0  0  0  0  0  0
  140.9216   70.8742  223.4953 H   0  0  0  0  0  0  0  0  0  0  0  0
  139.3340   71.5499  223.9559 H   0  0  0  0  0  0  0  0  0  0  0  0
  138.7229   68.0148  223.4445 H   0  0  0  0  0  0  0  0  0  0  0  0
  139.7799   67.2474  228.2868 H   0  0  0  0  0  0  0  0  0  0  0  0
  140.9089   69.0639  229.6215 H   0  0  0  0  0  0  0  0  0  0  0  0
  141.4811   71.1888  228.5526 H   0  0  0  0  0  0  0  0  0  0  0  0
  140.9779   71.6120  226.1679 H   0  0  0  0  0  0  0  0  0  0  0  0
  143.1666   74.2233  219.1648 H   0  0  0  0  0  0  0  0  0  0  0  0
  143.4799   75.1645  220.6473 H   0  0  0  0  0  0  0  0  0  0  0  0
  145.6096   74.1233  219.8009 H   0  0  0  0  0  0  0  0  0  0  0  0
  145.2061   73.4207  221.3619 H   0  0  0  0  0  0  0  0  0  0  0  0
  146.3678   72.4618  218.3317 H   0  0  0  0  0  0  0  0  0  0  0  0
  146.0626   70.2298  217.2443 H   0  0  0  0  0  0  0  0  0  0  0  0
  144.1888   68.7671  218.0227 H   0  0  0  0  0  0  0  0  0  0  0  0
  142.6697   69.5086  219.8334 H   0  0  0  0  0  0  0  0  0  0  0  0
  141.8230   71.3487  221.1967 H   0  0  0  0  0  0  0  0  0  0  0  0
  143.2496   71.7524  222.1801 H   0  0  0  0  0  0  0  0  0  0  0  0
  141.2318   77.5415  224.1700 H   0  0  0  0  0  0  0  0  0  0  0  0
  142.1212   77.3362  222.5812 H   0  0  0  0  0  0  0  0  0  0  0  0
  1  2  2  0
  2  3  1  0
  3  4  2  0
  4  5  1  0
  5  6  2  0
  5  7  1  0
  7  8  1  0
  8  9  1  0
  9 10  1  0
 10 11  2  0
 11 12  1  0
 12 13  1  0
 13 14  1  0
 14 15  1  0
 15 16  1  0
 16 17  1  0
 17 18  1  0
 18 19  1  0
 19 20  2  0
 20 21  1  0
 21 22  2  0
 22 23  1  0
 23 24  2  0
 24 25  1  0
 25 26  2  0
 12 27  2  0
 27 28  1  0
 28 29  1  0
 29 30  1  0
 30 31  1  0
 31 32  1  0
 32 33  2  0
 33 34  1  0
 34 35  2  0
 35 36  1  0
 36 37  2  0
 37 38  1  0
 28 39  2  0
  9 40  1  0
  6  1  1  0
 39 10  1  0
 40  4  1  0
 26 18  1  0
 38 29  1  0
 26 21  1  0
 37 32  1  0
  1 41  1  0
  2 42  1  0
  3 43  1  0
  6 44  1  0
  7 45  1  0
  7 46  1  0
  8 47  1  0
  8 48  1  0
 13 49  1  0
 14 50  1  0
 14 51  1  0
 15 52  1  0
 15 53  1  0
 16 54  1  0
 16 55  1  0
 17 56  1  0
 17 57  1  0
 19 58  1  0
 22 59  1  0
 23 60  1  0
 24 61  1  0
 25 62  1  0
 30 63  1  0
 30 64  1  0
 31 65  1  0
 31 66  1  0
 33 67  1  0
 34 68  1  0
 35 69  1  0
 36 70  1  0
 38 71  1  0
 38 72  1  0
 40 73  1  0
 40 74  1  0
M  END
>  <smiles>  (46) 
c1ccc2c(c1)CCN(c1nc(NCCCCn3cnc4ccccc43)nc(N3CCc4ccccc4C3)n1)C2

>  <score_type>  (46) 
oracle

>  <origin>  (46) 
autodockgpu

>  <m_score__min__energy>  (46) 
-11.42

>  <m_primary>  (46) 
energy

>  <rmsd>  (46) 
4.948901185831638

>  <m_score__min__rmsd>  (46) 
4.948901185831638

>  <meeko>  (46) 
{"free_energy": -10.81, "intermolecular_energy": -13.19, "internal_energy": -1.44, "cluster_size": 18, "cluster_id": 1, "rank_in_cluster": 7}

>  <energy>  (46) 
-9.75

>  <cluster_rmsd>  (46) 
0.0

>  <cluster>  (46) 
5

$$$$

     RDKit          3D

 74 80  0  0  0  0  0  0  0  0999 V2000
  145.4850   70.4990  218.5990 C   0  0  0  0  0  0  0  0  0  0  0  0
  144.4080   69.7290  218.9920 C   0  0  0  0  0  0  0  0  0  0  0  0
  143.4490   70.2430  219.8460 C   0  0  0  0  0  0  0  0  0  0  0  0
  143.5900   71.5370  220.2940 C   0  0  0  0  0  0  0  0  0  0  0  0
  144.6570   72.3380  219.9210 C   0  0  0  0  0  0  0  0  0  0  0  0
  145.5910   71.7920  219.0710 C   0  0  0  0  0  0  0  0  0  0  0  0
  144.7820   73.7360  220.4230 C   0  0  0  0  0  0  0  0  0  0  0  0
  143.4390   74.4050  220.4600 C   0  0  0  0  0  0  0  0  0  0  0  0
  142.4220   73.5440  221.0620 N   0  0  0  0  0  0  0  0  0  0  0  0
  141.2060   74.1330  221.5330 C   0  0  0  0  0  0  0  0  0  0  0  0
  140.0820   73.4070  221.6760 N   0  0  0  0  0  0  0  0  0  0  0  0
  138.9310   73.9230  222.1140 C   0  0  0  0  0  0  0  0  0  0  0  0
  137.7410   73.1320  222.2610 N   0  0  0  0  0  0  0  0  0  0  0  0
  137.5260   71.9110  221.5550 C   0  0  0  0  0  0  0  0  0  0  0  0
  137.2120   70.7600  222.4930 C   0  0  0  0  0  0  0  0  0  0  0  0
  137.5480   71.1860  223.8880 C   0  0  0  0  0  0  0  0  0  0  0  0
  139.0060   71.0880  224.2100 C   0  0  0  0  0  0  0  0  0  0  0  0
  139.2290   69.8320  224.9130 N   0  0  0  0  0  0  0  0  0  0  0  0
  138.8360   68.6090  224.4920 C   0  0  0  0  0  0  0  0  0  0  0  0
  139.2240   67.7020  225.4130 N   0  0  0  0  0  0  0  0  0  0  0  0
  139.8640   68.3700  226.4130 C   0  0  0  0  0  0  0  0  0  0  0  0
  140.4420   67.8950  227.5730 C   0  0  0  0  0  0  0  0  0  0  0  0
  141.0370   68.8300  228.4290 C   0  0  0  0  0  0  0  0  0  0  0  0
  141.0300   70.1550  228.1010 C   0  0  0  0  0  0  0  0  0  0  0  0
  140.4510   70.6210  226.9410 C   0  0  0  0  0  0  0  0  0  0  0  0
  139.8690   69.7160  226.1000 C   0  0  0  0  0  0  0  0  0  0  0  0
  138.9390   75.2480  222.4170 N   0  0  0  0  0  0  0  0  0  0  0  0
  140.0240   76.0230  222.2940 C   0  0  0  0  0  0  0  0  0  0  0  0
  140.0130   77.4170  222.6180 N   0  0  0  0  0  0  0  0  0  0  0  0
  138.7780   78.1650  222.4950 C   0  0  0  0  0  0  0  0  0  0  0  0
  138.8790   79.3900  223.4130 C   0  0  0  0  0  0  0  0  0  0  0  0
  140.0450   80.1680  222.8610 C   0  0  0  0  0  0  0  0  0  0  0  0
  139.9120   81.4940  222.5550 C   0  0  0  0  0  0  0  0  0  0  0  0
  140.9950   82.1870  222.0500 C   0  0  0  0  0  0  0  0  0  0  0  0
  142.1910   81.4930  221.8720 C   0  0  0  0  0  0  0  0  0  0  0  0
  142.2970   80.1410  222.1920 C   0  0  0  0  0  0  0  0  0  0  0  0
  141.2140   79.4500  222.6970 C   0  0  0  0  0  0  0  0  0  0  0  0
  141.2630   78.0100  223.0570 C   0  0  0  0  0  0  0  0  0  0  0  0
  141.1580   75.4400  221.8460 N   0  0  0  0  0  0  0  0  0  0  0  0
  142.5900   72.1170  221.2020 C   0  0  0  0  0  0  0  0  0  0  0  0
  146.2469   70.0883  217.9201 H   0  0  0  0  0  0  0  0  0  0  0  0
  144.3120   68.6974  218.6225 H   0  0  0  0  0  0  0  0  0  0  0  0
  142.5913   69.6304  220.1607 H   0  0  0  0  0  0  0  0  0  0  0  0
  146.4490   72.4049  218.7577 H   0  0  0  0  0  0  0  0  0  0  0  0
  145.2059   73.7193  221.4379 H   0  0  0  0  0  0  0  0  0  0  0  0
  145.4406   74.2990  219.7453 H   0  0  0  0  0  0  0  0  0  0  0  0
  143.5177   75.3300  221.0501 H   0  0  0  0  0  0  0  0  0  0  0  0
  143.1355   74.6221  219.4252 H   0  0  0  0  0  0  0  0  0  0  0  0
  137.0270   73.4780  222.9090 H   0  0  0  0  0  0  0  0  0  0  0  0
  136.6821   72.0451  220.8623 H   0  0  0  0  0  0  0  0  0  0  0  0
  138.4506   71.6648  221.0124 H   0  0  0  0  0  0  0  0  0  0  0  0
  136.1432   70.5082  222.4282 H   0  0  0  0  0  0  0  0  0  0  0  0
  137.8005   69.8732  222.2152 H   0  0  0  0  0  0  0  0  0  0  0  0
  137.2329   72.2319  224.0175 H   0  0  0  0  0  0  0  0  0  0  0  0
  137.0207   70.5024  224.5696 H   0  0  0  0  0  0  0  0  0  0  0  0
  139.5953   71.1056  223.2813 H   0  0  0  0  0  0  0  0  0  0  0  0
  139.3164   71.9368  224.8370 H   0  0  0  0  0  0  0  0  0  0  0  0
  138.2938   68.3908  223.5601 H   0  0  0  0  0  0  0  0  0  0  0  0
  140.4355   66.8222  227.8159 H   0  0  0  0  0  0  0  0  0  0  0  0
  141.5096   68.4970  229.3648 H   0  0  0  0  0  0  0  0  0  0  0  0
  141.5024   70.8747  228.7857 H   0  0  0  0  0  0  0  0  0  0  0  0
  140.4573   71.6939  226.6985 H   0  0  0  0  0  0  0  0  0  0  0  0
  138.6386   78.4886  221.4530 H   0  0  0  0  0  0  0  0  0  0  0  0
  137.9196   77.5396  222.7814 H   0  0  0  0  0  0  0  0  0  0  0  0
  137.9561   79.9870  223.3704 H   0  0  0  0  0  0  0  0  0  0  0  0
  139.0168   79.1157  224.4693 H   0  0  0  0  0  0  0  0  0  0  0  0
  138.9502   82.0049  222.7097 H   0  0  0  0  0  0  0  0  0  0  0  0
  140.9161   83.2543  221.7959 H   0  0  0  0  0  0  0  0  0  0  0  0
  143.0677   82.0229  221.4713 H   0  0  0  0  0  0  0  0  0  0  0  0
  143.2534   79.6191  222.0407 H   0  0  0  0  0  0  0  0  0  0  0  0
  142.1097   77.5232  222.5509 H   0  0  0  0  0  0  0  0  0  0  0  0
  141.3972   77.8821  224.1413 H   0  0  0  0  0  0  0  0  0  0  0  0
  142.8992   71.9057  222.2363 H   0  0  0  0  0  0  0  0  0  0  0  0
  141.6243   71.6578  220.9442 H   0  0  0  0  0  0  0  0  0  0  0  0
  1  2  2  0
  2  3  1  0
  3  4  2  0
  4  5  1  0
  5  6  2  0
  5  7  1  0
  7  8  1  0
  8  9  1  0
  9 10  1  0
 10 11  2  0
 11 12  1  0
 12 13  1  0
 13 14  1  0
 14 15  1  0
 15 16  1  0
 16 17  1  0
 17 18  1  0
 18 19  1  0
 19 20  2  0
 20 21  1  0
 21 22  2  0
 22 23  1  0
 23 24  2  0
 24 25  1  0
 25 26  2  0
 12 27  2  0
 27 28  1  0
 28 29  1  0
 29 30  1  0
 30 31  1  0
 31 32  1  0
 32 33  2  0
 33 34  1  0
 34 35  2  0
 35 36  1  0
 36 37  2  0
 37 38  1  0
 28 39  2  0
  9 40  1  0
  6  1  1  0
 39 10  1  0
 40  4  1  0
 26 18  1  0
 38 29  1  0
 26 21  1  0
 37 32  1  0
  1 41  1  0
  2 42  1  0
  3 43  1  0
  6 44  1  0
  7 45  1  0
  7 46  1  0
  8 47  1  0
  8 48  1  0
 13 49  1  0
 14 50  1  0
 14 51  1  0
 15 52  1  0
 15 53  1  0
 16 54  1  0
 16 55  1  0
 17 56  1  0
 17 57  1  0
 19 58  1  0
 22 59  1  0
 23 60  1  0
 24 61  1  0
 25 62  1  0
 30 63  1  0
 30 64  1  0
 31 65  1  0
 31 66  1  0
 33 67  1  0
 34 68  1  0
 35 69  1  0
 36 70  1  0
 38 71  1  0
 38 72  1  0
 40 73  1  0
 40 74  1  0
M  END
>  <smiles>  (47) 
c1ccc2c(c1)CCN(c1nc(NCCCCn3cnc4ccccc43)nc(N3CCc4ccccc4C3)n1)C2

>  <score_type>  (47) 
oracle

>  <origin>  (47) 
autodockgpu

>  <m_score__min__energy>  (47) 
-11.42

>  <m_primary>  (47) 
energy

>  <rmsd>  (47) 
4.967570046353203

>  <m_score__min__rmsd>  (47) 
4.967570046353203

>  <meeko>  (47) 
{"free_energy": -10.89, "intermolecular_energy": -13.28, "internal_energy": -1.28, "cluster_size": 18, "cluster_id": 1, "rank_in_cluster": 6}

>  <energy>  (47) 
-8.8

>  <cluster_rmsd>  (47) 
1.72

>  <cluster>  (47) 
5

$$$$

     RDKit          3D

 74 80  0  0  0  0  0  0  0  0999 V2000
  142.9640   77.8440  218.6110 C   0  0  0  0  0  0  0  0  0  0  0  0
  141.6240   78.1610  218.5000 C   0  0  0  0  0  0  0  0  0  0  0  0
  140.6530   77.2530  218.8820 C   0  0  0  0  0  0  0  0  0  0  0  0
  141.0490   76.0310  219.3750 C   0  0  0  0  0  0  0  0  0  0  0  0
  142.3830   75.6800  219.5000 C   0  0  0  0  0  0  0  0  0  0  0  0
  143.3210   76.6080  219.1100 C   0  0  0  0  0  0  0  0  0  0  0  0
  142.7810   74.3470  220.0380 C   0  0  0  0  0  0  0  0  0  0  0  0
  141.8880   73.9510  221.1770 C   0  0  0  0  0  0  0  0  0  0  0  0
  140.4780   74.1740  220.8610 N   0  0  0  0  0  0  0  0  0  0  0  0
  139.4800   73.5090  221.6410 C   0  0  0  0  0  0  0  0  0  0  0  0
  138.1830   73.8640  221.5750 N   0  0  0  0  0  0  0  0  0  0  0  0
  137.2250   73.2660  222.2880 C   0  0  0  0  0  0  0  0  0  0  0  0
  135.8460   73.6580  222.2030 N   0  0  0  0  0  0  0  0  0  0  0  0
  135.3540   74.8900  222.7300 C   0  0  0  0  0  0  0  0  0  0  0  0
  136.4670   75.7490  223.2990 C   0  0  0  0  0  0  0  0  0  0  0  0
  137.0070   76.6080  222.1980 C   0  0  0  0  0  0  0  0  0  0  0  0
  137.5720   77.9090  222.6750 C   0  0  0  0  0  0  0  0  0  0  0  0
  139.0230   77.7860  222.7060 N   0  0  0  0  0  0  0  0  0  0  0  0
  139.7260   76.6550  222.4790 C   0  0  0  0  0  0  0  0  0  0  0  0
  141.0390   76.9440  222.5970 N   0  0  0  0  0  0  0  0  0  0  0  0
  141.1490   78.2670  222.9010 C   0  0  0  0  0  0  0  0  0  0  0  0
  142.2710   79.0400  223.1210 C   0  0  0  0  0  0  0  0  0  0  0  0
  142.0760   80.3940  223.4190 C   0  0  0  0  0  0  0  0  0  0  0  0
  140.8110   80.9020  223.4830 C   0  0  0  0  0  0  0  0  0  0  0  0
  139.6960   80.1240  223.2620 C   0  0  0  0  0  0  0  0  0  0  0  0
  139.8770   78.8030  222.9700 C   0  0  0  0  0  0  0  0  0  0  0  0
  137.6220   72.2560  223.1050 N   0  0  0  0  0  0  0  0  0  0  0  0
  138.8960   71.8570  223.2160 C   0  0  0  0  0  0  0  0  0  0  0  0
  139.2950   70.7910  224.0830 N   0  0  0  0  0  0  0  0  0  0  0  0
  138.4050   69.6640  224.2800 C   0  0  0  0  0  0  0  0  0  0  0  0
  139.2550   68.4700  224.7300 C   0  0  0  0  0  0  0  0  0  0  0  0
  139.8620   68.9190  226.0330 C   0  0  0  0  0  0  0  0  0  0  0  0
  139.7460   68.1470  227.1560 C   0  0  0  0  0  0  0  0  0  0  0  0
  140.3100   68.5800  228.3400 C   0  0  0  0  0  0  0  0  0  0  0  0
  140.9800   69.8030  228.3370 C   0  0  0  0  0  0  0  0  0  0  0  0
  141.0810   70.5690  227.1770 C   0  0  0  0  0  0  0  0  0  0  0  0
  140.5170   70.1340  225.9950 C   0  0  0  0  0  0  0  0  0  0  0  0
  140.5900   70.9040  224.7270 C   0  0  0  0  0  0  0  0  0  0  0  0
  139.8170   72.5030  222.4680 N   0  0  0  0  0  0  0  0  0  0  0  0
  140.0450   75.0420  219.7910 C   0  0  0  0  0  0  0  0  0  0  0  0
  143.7353   78.5665  218.3060 H   0  0  0  0  0  0  0  0  0  0  0  0
  141.3268   79.1435  218.1046 H   0  0  0  0  0  0  0  0  0  0  0  0
  139.5854   77.5029  218.7934 H   0  0  0  0  0  0  0  0  0  0  0  0
  144.3883   76.3569  219.1987 H   0  0  0  0  0  0  0  0  0  0  0  0
  142.7021   73.5958  219.2383 H   0  0  0  0  0  0  0  0  0  0  0  0
  143.8171   74.4059  220.4027 H   0  0  0  0  0  0  0  0  0  0  0  0
  142.0401   72.8836  221.3948 H   0  0  0  0  0  0  0  0  0  0  0  0
  142.1468   74.5716  222.0476 H   0  0  0  0  0  0  0  0  0  0  0  0
  135.2030   73.0100  221.7390 H   0  0  0  0  0  0  0  0  0  0  0  0
  134.8528   75.4461  221.9241 H   0  0  0  0  0  0  0  0  0  0  0  0
  134.6546   74.6555  223.5460 H   0  0  0  0  0  0  0  0  0  0  0  0
  136.0717   76.3834  224.1060 H   0  0  0  0  0  0  0  0  0  0  0  0
  137.2649   75.1127  223.7095 H   0  0  0  0  0  0  0  0  0  0  0  0
  137.8031   76.0517  221.6816 H   0  0  0  0  0  0  0  0  0  0  0  0
  136.1642   76.8471  221.5327 H   0  0  0  0  0  0  0  0  0  0  0  0
  137.2806   78.7168  221.9876 H   0  0  0  0  0  0  0  0  0  0  0  0
  137.1875   78.1475  223.6776 H   0  0  0  0  0  0  0  0  0  0  0  0
  139.3016   75.6689  222.2394 H   0  0  0  0  0  0  0  0  0  0  0  0
  143.2811   78.6082  223.0643 H   0  0  0  0  0  0  0  0  0  0  0  0
  142.9417   81.0477  223.6014 H   0  0  0  0  0  0  0  0  0  0  0  0
  140.6774   81.9681  223.7189 H   0  0  0  0  0  0  0  0  0  0  0  0
  138.6860   80.5560  223.3193 H   0  0  0  0  0  0  0  0  0  0  0  0
  137.6602   69.9057  225.0526 H   0  0  0  0  0  0  0  0  0  0  0  0
  137.8721   69.4271  223.3473 H   0  0  0  0  0  0  0  0  0  0  0  0
  138.6279   67.5785  224.8784 H   0  0  0  0  0  0  0  0  0  0  0  0
  140.0148   68.1893  223.9857 H   0  0  0  0  0  0  0  0  0  0  0  0
  139.2076   67.1886  227.1165 H   0  0  0  0  0  0  0  0  0  0  0  0
  140.2330   67.9783  229.2576 H   0  0  0  0  0  0  0  0  0  0  0  0
  141.4374   70.1701  229.2676 H   0  0  0  0  0  0  0  0  0  0  0  0
  141.6156   71.5300  227.2039 H   0  0  0  0  0  0  0  0  0  0  0  0
  140.8148   71.9597  224.9392 H   0  0  0  0  0  0  0  0  0  0  0  0
  141.3858   70.5119  224.0766 H   0  0  0  0  0  0  0  0  0  0  0  0
  139.7939   74.4180  218.9206 H   0  0  0  0  0  0  0  0  0  0  0  0
  139.1823   75.6080  220.1722 H   0  0  0  0  0  0  0  0  0  0  0  0
  1  2  2  0
  2  3  1  0
  3  4  2  0
  4  5  1  0
  5  6  2  0
  5  7  1  0
  7  8  1  0
  8  9  1  0
  9 10  1  0
 10 11  2  0
 11 12  1  0
 12 13  1  0
 13 14  1  0
 14 15  1  0
 15 16  1  0
 16 17  1  0
 17 18  1  0
 18 19  1  0
 19 20  2  0
 20 21  1  0
 21 22  2  0
 22 23  1  0
 23 24  2  0
 24 25  1  0
 25 26  2  0
 12 27  2  0
 27 28  1  0
 28 29  1  0
 29 30  1  0
 30 31  1  0
 31 32  1  0
 32 33  2  0
 33 34  1  0
 34 35  2  0
 35 36  1  0
 36 37  2  0
 37 38  1  0
 28 39  2  0
  9 40  1  0
  6  1  1  0
 39 10  1  0
 40  4  1  0
 26 18  1  0
 38 29  1  0
 26 21  1  0
 37 32  1  0
  1 41  1  0
  2 42  1  0
  3 43  1  0
  6 44  1  0
  7 45  1  0
  7 46  1  0
  8 47  1  0
  8 48  1  0
 13 49  1  0
 14 50  1  0
 14 51  1  0
 15 52  1  0
 15 53  1  0
 16 54  1  0
 16 55  1  0
 17 56  1  0
 17 57  1  0
 19 58  1  0
 22 59  1  0
 23 60  1  0
 24 61  1  0
 25 62  1  0
 30 63  1  0
 30 64  1  0
 31 65  1  0
 31 66  1  0
 33 67  1  0
 34 68  1  0
 35 69  1  0
 36 70  1  0
 38 71  1  0
 38 72  1  0
 40 73  1  0
 40 74  1  0
M  END
>  <smiles>  (48) 
c1ccc2c(c1)CCN(c1nc(NCCCCn3cnc4ccccc43)nc(N3CCc4ccccc4C3)n1)C2

>  <score_type>  (48) 
oracle

>  <origin>  (48) 
autodockgpu

>  <m_score__min__energy>  (48) 
-11.42

>  <m_primary>  (48) 
energy

>  <rmsd>  (48) 
9.353638847355915

>  <m_score__min__rmsd>  (48) 
9.353638847355915

>  <meeko>  (48) 
{"free_energy": -9.31, "intermolecular_energy": -11.7, "internal_energy": -2.53, "cluster_size": 3, "cluster_id": 3, "rank_in_cluster": 2}

>  <energy>  (48) 
-8.96

>  <cluster_rmsd>  (48) 
0.0

>  <cluster>  (48) 
6

$$$$

     RDKit          3D

 74 80  0  0  0  0  0  0  0  0999 V2000
  141.9690   79.8350  222.6420 C   0  0  0  0  0  0  0  0  0  0  0  0
  140.8150   79.7850  223.3990 C   0  0  0  0  0  0  0  0  0  0  0  0
  139.9010   78.7610  223.2220 C   0  0  0  0  0  0  0  0  0  0  0  0
  140.1670   77.7960  222.2780 C   0  0  0  0  0  0  0  0  0  0  0  0
  141.3140   77.8150  221.5010 C   0  0  0  0  0  0  0  0  0  0  0  0
  142.1990   78.8490  221.7050 C   0  0  0  0  0  0  0  0  0  0  0  0
  141.5730   76.7550  220.4860 C   0  0  0  0  0  0  0  0  0  0  0  0
  141.1560   75.4110  221.0090 C   0  0  0  0  0  0  0  0  0  0  0  0
  139.8350   75.4600  221.6330 N   0  0  0  0  0  0  0  0  0  0  0  0
  139.1170   74.2390  221.8300 C   0  0  0  0  0  0  0  0  0  0  0  0
  137.9890   73.9670  221.1480 N   0  0  0  0  0  0  0  0  0  0  0  0
  137.2940   72.8380  221.3060 C   0  0  0  0  0  0  0  0  0  0  0  0
  136.0920   72.5650  220.5670 N   0  0  0  0  0  0  0  0  0  0  0  0
  135.5750   71.2480  220.3820 C   0  0  0  0  0  0  0  0  0  0  0  0
  135.4320   70.5030  221.6960 C   0  0  0  0  0  0  0  0  0  0  0  0
  134.8020   71.4260  222.6930 C   0  0  0  0  0  0  0  0  0  0  0  0
  135.3470   71.2750  224.0780 C   0  0  0  0  0  0  0  0  0  0  0  0
  134.8290   72.3680  224.8880 N   0  0  0  0  0  0  0  0  0  0  0  0
  134.0810   72.2400  226.0060 C   0  0  0  0  0  0  0  0  0  0  0  0
  133.7970   73.4760  226.4680 N   0  0  0  0  0  0  0  0  0  0  0  0
  134.3750   74.3780  225.6270 C   0  0  0  0  0  0  0  0  0  0  0  0
  134.3760   75.7570  225.6660 C   0  0  0  0  0  0  0  0  0  0  0  0
  135.0650   76.4330  224.6520 C   0  0  0  0  0  0  0  0  0  0  0  0
  135.7030   75.7270  223.6740 C   0  0  0  0  0  0  0  0  0  0  0  0
  135.6980   74.3490  223.6420 C   0  0  0  0  0  0  0  0  0  0  0  0
  135.0280   73.6820  224.6270 C   0  0  0  0  0  0  0  0  0  0  0  0
  137.7840   71.9490  222.2090 N   0  0  0  0  0  0  0  0  0  0  0  0
  138.8990   72.1610  222.9190 C   0  0  0  0  0  0  0  0  0  0  0  0
  139.3990   71.2120  223.8670 N   0  0  0  0  0  0  0  0  0  0  0  0
  138.6470   70.0000  224.1220 C   0  0  0  0  0  0  0  0  0  0  0  0
  139.6230   68.9520  224.6720 C   0  0  0  0  0  0  0  0  0  0  0  0
  140.1310   69.5580  225.9540 C   0  0  0  0  0  0  0  0  0  0  0  0
  140.0770   68.8530  227.1240 C   0  0  0  0  0  0  0  0  0  0  0  0
  140.5480   69.4300  228.2870 C   0  0  0  0  0  0  0  0  0  0  0  0
  141.0640   70.7230  228.2140 C   0  0  0  0  0  0  0  0  0  0  0  0
  141.1060   71.4180  227.0070 C   0  0  0  0  0  0  0  0  0  0  0  0
  140.6350   70.8390  225.8460 C   0  0  0  0  0  0  0  0  0  0  0  0
  140.6510   71.5270  224.5290 C   0  0  0  0  0  0  0  0  0  0  0  0
  139.5560   73.3230  222.7130 N   0  0  0  0  0  0  0  0  0  0  0  0
  139.2190   76.6940  222.0620 C   0  0  0  0  0  0  0  0  0  0  0  0
  142.6945   80.6495  222.7842 H   0  0  0  0  0  0  0  0  0  0  0  0
  140.6206   80.5658  224.1491 H   0  0  0  0  0  0  0  0  0  0  0  0
  138.9810   78.7195  223.8235 H   0  0  0  0  0  0  0  0  0  0  0  0
  143.1182   78.8905  221.1023 H   0  0  0  0  0  0  0  0  0  0  0  0
  141.0022   76.9810  219.5733 H   0  0  0  0  0  0  0  0  0  0  0  0
  142.6502   76.7312  220.2643 H   0  0  0  0  0  0  0  0  0  0  0  0
  141.1294   74.6959  220.1736 H   0  0  0  0  0  0  0  0  0  0  0  0
  141.8843   75.0988  221.7719 H   0  0  0  0  0  0  0  0  0  0  0  0
  135.5990   73.3670  220.1650 H   0  0  0  0  0  0  0  0  0  0  0  0
  134.5866   71.3185  219.9045 H   0  0  0  0  0  0  0  0  0  0  0  0
  136.2832   70.6908  219.7512 H   0  0  0  0  0  0  0  0  0  0  0  0
  134.7949   69.6176  221.5543 H   0  0  0  0  0  0  0  0  0  0  0  0
  136.4184   70.1736  222.0545 H   0  0  0  0  0  0  0  0  0  0  0  0
  134.9718   72.4617  222.3636 H   0  0  0  0  0  0  0  0  0  0  0  0
  133.7330   71.1708  222.7378 H   0  0  0  0  0  0  0  0  0  0  0  0
  135.0266   70.3119  224.5021 H   0  0  0  0  0  0  0  0  0  0  0  0
  136.4466   71.3008  224.0604 H   0  0  0  0  0  0  0  0  0  0  0  0
  133.7590   71.2918  226.4612 H   0  0  0  0  0  0  0  0  0  0  0  0
  133.8546   76.3053  226.4645 H   0  0  0  0  0  0  0  0  0  0  0  0
  135.0920   77.5326  224.6437 H   0  0  0  0  0  0  0  0  0  0  0  0
  136.2388   76.2755  222.8853 H   0  0  0  0  0  0  0  0  0  0  0  0
  136.2201   73.8011  222.8438 H   0  0  0  0  0  0  0  0  0  0  0  0
  137.8556   70.1985  224.8598 H   0  0  0  0  0  0  0  0  0  0  0  0
  138.1745   69.6382  223.1969 H   0  0  0  0  0  0  0  0  0  0  0  0
  139.1053   68.0015  224.8680 H   0  0  0  0  0  0  0  0  0  0  0  0
  140.4334   68.7189  223.9657 H   0  0  0  0  0  0  0  0  0  0  0  0
  139.6618   67.8345  227.1390 H   0  0  0  0  0  0  0  0  0  0  0  0
  140.5169   68.8856  229.2423 H   0  0  0  0  0  0  0  0  0  0  0  0
  141.4453   71.2039  229.1269 H   0  0  0  0  0  0  0  0  0  0  0  0
  141.5183   72.4374  226.9792 H   0  0  0  0  0  0  0  0  0  0  0  0
  140.7388   72.6141  224.6724 H   0  0  0  0  0  0  0  0  0  0  0  0
  141.5077   71.1945  223.9244 H   0  0  0  0  0  0  0  0  0  0  0  0
  138.4973   77.0053  221.2924 H   0  0  0  0  0  0  0  0  0  0  0  0
  138.7441   76.4900  223.0330 H   0  0  0  0  0  0  0  0  0  0  0  0
  1  2  2  0
  2  3  1  0
  3  4  2  0
  4  5  1  0
  5  6  2  0
  5  7  1  0
  7  8  1  0
  8  9  1  0
  9 10  1  0
 10 11  2  0
 11 12  1  0
 12 13  1  0
 13 14  1  0
 14 15  1  0
 15 16  1  0
 16 17  1  0
 17 18  1  0
 18 19  1  0
 19 20  2  0
 20 21  1  0
 21 22  2  0
 22 23  1  0
 23 24  2  0
 24 25  1  0
 25 26  2  0
 12 27  2  0
 27 28  1  0
 28 29  1  0
 29 30  1  0
 30 31  1  0
 31 32  1  0
 32 33  2  0
 33 34  1  0
 34 35  2  0
 35 36  1  0
 36 37  2  0
 37 38  1  0
 28 39  2  0
  9 40  1  0
  6  1  1  0
 39 10  1  0
 40  4  1  0
 26 18  1  0
 38 29  1  0
 26 21  1  0
 37 32  1  0
  1 41  1  0
  2 42  1  0
  3 43  1  0
  6 44  1  0
  7 45  1  0
  7 46  1  0
  8 47  1  0
  8 48  1  0
 13 49  1  0
 14 50  1  0
 14 51  1  0
 15 52  1  0
 15 53  1  0
 16 54  1  0
 16 55  1  0
 17 56  1  0
 17 57  1  0
 19 58  1  0
 22 59  1  0
 23 60  1  0
 24 61  1  0
 25 62  1  0
 30 63  1  0
 30 64  1  0
 31 65  1  0
 31 66  1  0
 33 67  1  0
 34 68  1  0
 35 69  1  0
 36 70  1  0
 38 71  1  0
 38 72  1  0
 40 73  1  0
 40 74  1  0
M  END
>  <smiles>  (49) 
c1ccc2c(c1)CCN(c1nc(NCCCCn3cnc4ccccc43)nc(N3CCc4ccccc4C3)n1)C2

>  <score_type>  (49) 
oracle

>  <origin>  (49) 
autodockgpu

>  <m_score__min__energy>  (49) 
-11.42

>  <m_primary>  (49) 
energy

>  <rmsd>  (49) 
7.652696095454878

>  <m_score__min__rmsd>  (49) 
7.652696095454878

>  <meeko>  (49) 
{"free_energy": -9.62, "intermolecular_energy": -12.0, "internal_energy": -2.11, "cluster_size": 10, "cluster_id": 2, "rank_in_cluster": 8}

>  <energy>  (49) 
-8.9

>  <cluster_rmsd>  (49) 
0.0

>  <cluster>  (49) 
7

$$$$

     RDKit          3D

 74 80  0  0  0  0  0  0  0  0999 V2000
  140.7080   69.2310  228.2500 C   0  0  0  0  0  0  0  0  0  0  0  0
  141.1180   70.5490  228.2580 C   0  0  0  0  0  0  0  0  0  0  0  0
  141.0300   71.3210  227.1120 C   0  0  0  0  0  0  0  0  0  0  0  0
  140.5250   70.7470  225.9680 C   0  0  0  0  0  0  0  0  0  0  0  0
  140.1040   69.4280  225.9240 C   0  0  0  0  0  0  0  0  0  0  0  0
  140.2070   68.6920  227.0820 C   0  0  0  0  0  0  0  0  0  0  0  0
  139.5620   68.8350  224.6680 C   0  0  0  0  0  0  0  0  0  0  0  0
  138.6930   69.8260  223.9500 C   0  0  0  0  0  0  0  0  0  0  0  0
  139.3240   71.1430  223.8740 N   0  0  0  0  0  0  0  0  0  0  0  0
  138.8440   72.0870  222.9130 C   0  0  0  0  0  0  0  0  0  0  0  0
  137.7410   71.8450  222.1800 N   0  0  0  0  0  0  0  0  0  0  0  0
  137.2640   72.7030  221.2750 C   0  0  0  0  0  0  0  0  0  0  0  0
  136.0850   72.4280  220.5010 N   0  0  0  0  0  0  0  0  0  0  0  0
  135.3410   73.4440  219.8290 C   0  0  0  0  0  0  0  0  0  0  0  0
  135.1180   74.6600  220.7080 C   0  0  0  0  0  0  0  0  0  0  0  0
  134.6430   74.1910  222.0490 C   0  0  0  0  0  0  0  0  0  0  0  0
  135.5080   74.6440  223.1830 C   0  0  0  0  0  0  0  0  0  0  0  0
  134.9110   74.1670  224.4220 N   0  0  0  0  0  0  0  0  0  0  0  0
  134.3500   74.9390  225.3790 C   0  0  0  0  0  0  0  0  0  0  0  0
  133.9120   74.1320  226.3690 N   0  0  0  0  0  0  0  0  0  0  0  0
  134.2050   72.8480  226.0210 C   0  0  0  0  0  0  0  0  0  0  0  0
  133.9650   71.6670  226.6920 C   0  0  0  0  0  0  0  0  0  0  0  0
  134.3850   70.4790  226.0820 C   0  0  0  0  0  0  0  0  0  0  0  0
  135.0070   70.5190  224.8680 C   0  0  0  0  0  0  0  0  0  0  0  0
  135.2440   71.7030  224.2040 C   0  0  0  0  0  0  0  0  0  0  0  0
  134.8370   72.8660  224.7910 C   0  0  0  0  0  0  0  0  0  0  0  0
  137.9550   73.8630  221.1190 N   0  0  0  0  0  0  0  0  0  0  0  0
  139.0580   74.1610  221.8170 C   0  0  0  0  0  0  0  0  0  0  0  0
  139.7720   75.3880  221.6380 N   0  0  0  0  0  0  0  0  0  0  0  0
  141.1890   75.3470  221.3370 C   0  0  0  0  0  0  0  0  0  0  0  0
  141.5580   76.6640  220.6420 C   0  0  0  0  0  0  0  0  0  0  0  0
  141.2490   77.7220  221.6690 C   0  0  0  0  0  0  0  0  0  0  0  0
  142.1920   78.6500  222.0140 C   0  0  0  0  0  0  0  0  0  0  0  0
  141.8850   79.6110  222.9580 C   0  0  0  0  0  0  0  0  0  0  0  0
  140.6120   79.5890  223.5250 C   0  0  0  0  0  0  0  0  0  0  0  0
  139.6720   78.6300  223.1540 C   0  0  0  0  0  0  0  0  0  0  0  0
  139.9790   77.6710  222.2100 C   0  0  0  0  0  0  0  0  0  0  0  0
  139.0220   76.6220  221.7720 C   0  0  0  0  0  0  0  0  0  0  0  0
  139.4890   73.2500  222.7170 N   0  0  0  0  0  0  0  0  0  0  0  0
  140.4170   71.5360  224.7330 C   0  0  0  0  0  0  0  0  0  0  0  0
  140.7794   68.6190  229.1612 H   0  0  0  0  0  0  0  0  0  0  0  0
  141.5182   70.9899  229.1829 H   0  0  0  0  0  0  0  0  0  0  0  0
  141.3570   72.3713  227.1160 H   0  0  0  0  0  0  0  0  0  0  0  0
  139.8801   67.6417  227.0769 H   0  0  0  0  0  0  0  0  0  0  0  0
  140.3980   68.5463  224.0140 H   0  0  0  0  0  0  0  0  0  0  0  0
  138.9577   67.9522  224.9238 H   0  0  0  0  0  0  0  0  0  0  0  0
  138.5047   69.4614  222.9294 H   0  0  0  0  0  0  0  0  0  0  0  0
  137.7527   69.9280  224.5117 H   0  0  0  0  0  0  0  0  0  0  0  0
  135.7820   71.4520  220.4410 H   0  0  0  0  0  0  0  0  0  0  0  0
  135.8936   73.7526  218.9293 H   0  0  0  0  0  0  0  0  0  0  0  0
  134.3567   73.0281  219.5680 H   0  0  0  0  0  0  0  0  0  0  0  0
  136.0609   75.2152  220.8208 H   0  0  0  0  0  0  0  0  0  0  0  0
  134.3693   75.3246  220.2522 H   0  0  0  0  0  0  0  0  0  0  0  0
  133.6258   74.5766  222.2120 H   0  0  0  0  0  0  0  0  0  0  0  0
  134.6767   73.0916  222.0368 H   0  0  0  0  0  0  0  0  0  0  0  0
  136.5195   74.2265  223.0710 H   0  0  0  0  0  0  0  0  0  0  0  0
  135.5825   75.7414  223.1922 H   0  0  0  0  0  0  0  0  0  0  0  0
  134.2649   76.0355  225.3555 H   0  0  0  0  0  0  0  0  0  0  0  0
  133.4621   71.6589  227.6703 H   0  0  0  0  0  0  0  0  0  0  0  0
  134.2137   69.5138  226.5810 H   0  0  0  0  0  0  0  0  0  0  0  0
  135.3298   69.5752  224.4043 H   0  0  0  0  0  0  0  0  0  0  0  0
  135.7481   71.7106  223.2263 H   0  0  0  0  0  0  0  0  0  0  0  0
  141.7664   75.2400  222.2672 H   0  0  0  0  0  0  0  0  0  0  0  0
  141.4193   74.4908  220.6860 H   0  0  0  0  0  0  0  0  0  0  0  0
  142.6251   76.6789  220.3752 H   0  0  0  0  0  0  0  0  0  0  0  0
  141.0058   76.8142  219.7026 H   0  0  0  0  0  0  0  0  0  0  0  0
  143.1864   78.6316  221.5441 H   0  0  0  0  0  0  0  0  0  0  0  0
  142.6234   80.3710  223.2533 H   0  0  0  0  0  0  0  0  0  0  0  0
  140.3444   80.3431  224.2797 H   0  0  0  0  0  0  0  0  0  0  0  0
  138.6748   78.6372  223.6182 H   0  0  0  0  0  0  0  0  0  0  0  0
  138.2266   76.5003  222.5220 H   0  0  0  0  0  0  0  0  0  0  0  0
  138.5493   76.8978  220.8178 H   0  0  0  0  0  0  0  0  0  0  0  0
  141.3555   71.4258  224.1698 H   0  0  0  0  0  0  0  0  0  0  0  0
  140.2227   72.5751  225.0372 H   0  0  0  0  0  0  0  0  0  0  0  0
  1  2  2  0
  2  3  1  0
  3  4  2  0
  4  5  1  0
  5  6  2  0
  5  7  1  0
  7  8  1  0
  8  9  1  0
  9 10  1  0
 10 11  2  0
 11 12  1  0
 12 13  1  0
 13 14  1  0
 14 15  1  0
 15 16  1  0
 16 17  1  0
 17 18  1  0
 18 19  1  0
 19 20  2  0
 20 21  1  0
 21 22  2  0
 22 23  1  0
 23 24  2  0
 24 25  1  0
 25 26  2  0
 12 27  2  0
 27 28  1  0
 28 29  1  0
 29 30  1  0
 30 31  1  0
 31 32  1  0
 32 33  2  0
 33 34  1  0
 34 35  2  0
 35 36  1  0
 36 37  2  0
 37 38  1  0
 28 39  2  0
  9 40  1  0
  6  1  1  0
 39 10  1  0
 40  4  1  0
 26 18  1  0
 38 29  1  0
 26 21  1  0
 37 32  1  0
  1 41  1  0
  2 42  1  0
  3 43  1  0
  6 44  1  0
  7 45  1  0
  7 46  1  0
  8 47  1  0
  8 48  1  0
 13 49  1  0
 14 50  1  0
 14 51  1  0
 15 52  1  0
 15 53  1  0
 16 54  1  0
 16 55  1  0
 17 56  1  0
 17 57  1  0
 19 58  1  0
 22 59  1  0
 23 60  1  0
 24 61  1  0
 25 62  1  0
 30 63  1  0
 30 64  1  0
 31 65  1  0
 31 66  1  0
 33 67  1  0
 34 68  1  0
 35 69  1  0
 36 70  1  0
 38 71  1  0
 38 72  1  0
 40 73  1  0
 40 74  1  0
M  END
>  <smiles>  (50) 
c1ccc2c(c1)CCN(c1nc(NCCCCn3cnc4ccccc43)nc(N3CCc4ccccc4C3)n1)C2

>  <score_type>  (50) 
oracle

>  <origin>  (50) 
autodockgpu

>  <m_score__min__energy>  (50) 
-11.42

>  <m_primary>  (50) 
energy

>  <rmsd>  (50) 
7.031978311852339

>  <m_score__min__rmsd>  (50) 
7.031978311852339

>  <meeko>  (50) 
{"free_energy": -9.56, "intermolecular_energy": -11.94, "internal_energy": -2.15, "cluster_size": 10, "cluster_id": 2, "rank_in_cluster": 9}

>  <energy>  (50) 
-8.6

>  <cluster_rmsd>  (50) 
1.47

>  <cluster>  (50) 
7

$$$$
