
     RDKit          3D

 73 78  0  0  0  0  0  0  0  0999 V2000
  142.7080   76.3290  219.5210 C   0  0  0  0  0  0  0  0  0  0  0  0
  142.3760   77.3850  220.4210 N   0  0  0  0  0  0  0  0  0  0  0  0
  141.0080   77.4750  220.8110 C   0  0  0  0  0  0  0  0  0  0  0  0
  140.1350   76.3410  220.3410 C   0  0  0  0  0  0  0  0  0  0  0  0
  139.7460   75.4620  221.4070 N   0  0  0  0  0  0  0  0  0  0  0  0
  140.3210   74.2020  221.6760 C   0  0  0  0  0  0  0  0  0  0  0  0
  141.3080   73.7730  220.8710 N   0  0  0  0  0  0  0  0  0  0  0  0
  141.8920   72.5750  221.0940 C   0  0  0  0  0  0  0  0  0  0  0  0
  142.9360   72.1460  220.2040 N   0  0  0  0  0  0  0  0  0  0  0  0
  144.2000   72.8270  220.3230 C   0  0  0  0  0  0  0  0  0  0  0  0
  145.2300   72.3000  219.3580 C   0  0  0  0  0  0  0  0  0  0  0  0
  145.1860   70.8210  219.2490 C   0  0  0  0  0  0  0  0  0  0  0  0
  146.3450   70.0790  219.1980 C   0  0  0  0  0  0  0  0  0  0  0  0
  146.2610   68.7080  219.0980 C   0  0  0  0  0  0  0  0  0  0  0  0
  145.0130   68.0780  219.0480 C   0  0  0  0  0  0  0  0  0  0  0  0
  143.8820   68.8710  219.1020 C   0  0  0  0  0  0  0  0  0  0  0  0
  143.9250   70.2450  219.2020 C   0  0  0  0  0  0  0  0  0  0  0  0
  142.6770   71.0770  219.2580 C   0  0  0  0  0  0  0  0  0  0  0  0
  141.4930   71.8000  222.1240 N   0  0  0  0  0  0  0  0  0  0  0  0
  140.4910   72.2170  222.9540 C   0  0  0  0  0  0  0  0  0  0  0  0
  140.0400   71.4300  224.0480 N   0  0  0  0  0  0  0  0  0  0  0  0
  138.8890   70.5610  223.9010 C   0  0  0  0  0  0  0  0  0  0  0  0
  139.2220   69.1350  224.2910 C   0  0  0  0  0  0  0  0  0  0  0  0
  139.7350   69.2060  225.6910 C   0  0  0  0  0  0  0  0  0  0  0  0
  139.4970   68.1260  226.5490 C   0  0  0  0  0  0  0  0  0  0  0  0
  139.9670   68.1800  227.8530 C   0  0  0  0  0  0  0  0  0  0  0  0
  140.6690   69.2690  228.3410 C   0  0  0  0  0  0  0  0  0  0  0  0
  140.8920   70.3290  227.4700 C   0  0  0  0  0  0  0  0  0  0  0  0
  140.4320   70.3040  226.1560 C   0  0  0  0  0  0  0  0  0  0  0  0
  140.7300   71.4920  225.3200 C   0  0  0  0  0  0  0  0  0  0  0  0
  139.9250   73.4160  222.7090 N   0  0  0  0  0  0  0  0  0  0  0  0
  140.9240   77.5360  222.3200 C   0  0  0  0  0  0  0  0  0  0  0  0
  141.8290   78.6250  222.8280 C   0  0  0  0  0  0  0  0  0  0  0  0
  141.4230   79.9360  222.2110 C   0  0  0  0  0  0  0  0  0  0  0  0
  141.4160   79.8580  220.7060 C   0  0  0  0  0  0  0  0  0  0  0  0
  140.4270   78.7810  220.3000 C   0  0  0  0  0  0  0  0  0  0  0  0
  142.9895   75.4335  220.0944 H   0  0  0  0  0  0  0  0  0  0  0  0
  141.8384   76.1003  218.8873 H   0  0  0  0  0  0  0  0  0  0  0  0
  143.5520   76.6390  218.8873 H   0  0  0  0  0  0  0  0  0  0  0  0
  143.0530   77.4770  221.2150 H   0  0  0  0  0  0  0  0  0  0  0  0
  139.2276   76.7620  219.8833 H   0  0  0  0  0  0  0  0  0  0  0  0
  140.7183   75.7500  219.6196 H   0  0  0  0  0  0  0  0  0  0  0  0
  138.9770   75.7800  222.0360 H   0  0  0  0  0  0  0  0  0  0  0  0
  144.0445   73.8976  220.1237 H   0  0  0  0  0  0  0  0  0  0  0  0
  144.5776   72.6571  221.3421 H   0  0  0  0  0  0  0  0  0  0  0  0
  145.0415   72.7348  218.3653 H   0  0  0  0  0  0  0  0  0  0  0  0
  146.2240   72.5829  219.7348 H   0  0  0  0  0  0  0  0  0  0  0  0
  147.3259   70.5753  219.2367 H   0  0  0  0  0  0  0  0  0  0  0  0
  147.1802   68.1051  219.0572 H   0  0  0  0  0  0  0  0  0  0  0  0
  144.9340   66.9838  218.9681 H   0  0  0  0  0  0  0  0  0  0  0  0
  142.8981   68.3807  219.0632 H   0  0  0  0  0  0  0  0  0  0  0  0
  142.4537   71.4943  218.2650 H   0  0  0  0  0  0  0  0  0  0  0  0
  141.8106   70.4738  219.5671 H   0  0  0  0  0  0  0  0  0  0  0  0
  138.0777   70.9288  224.5464 H   0  0  0  0  0  0  0  0  0  0  0  0
  138.5806   70.5691  222.8451 H   0  0  0  0  0  0  0  0  0  0  0  0
  138.3216   68.5048  224.2444 H   0  0  0  0  0  0  0  0  0  0  0  0
  139.9633   68.6914  223.6100 H   0  0  0  0  0  0  0  0  0  0  0  0
  138.9435   67.2444  226.1933 H   0  0  0  0  0  0  0  0  0  0  0  0
  139.7754   67.3284  228.5223 H   0  0  0  0  0  0  0  0  0  0  0  0
  141.0360   69.2943  229.3777 H   0  0  0  0  0  0  0  0  0  0  0  0
  141.4457   71.2096  227.8277 H   0  0  0  0  0  0  0  0  0  0  0  0
  140.4097   72.3970  225.8571 H   0  0  0  0  0  0  0  0  0  0  0  0
  141.8124   71.5157  225.1257 H   0  0  0  0  0  0  0  0  0  0  0  0
  139.8879   77.7497  222.6214 H   0  0  0  0  0  0  0  0  0  0  0  0
  141.2371   76.5707  222.7444 H   0  0  0  0  0  0  0  0  0  0  0  0
  141.7447   78.6922  223.9227 H   0  0  0  0  0  0  0  0  0  0  0  0
  142.8700   78.3961  222.5563 H   0  0  0  0  0  0  0  0  0  0  0  0
  140.4134   80.1983  222.5603 H   0  0  0  0  0  0  0  0  0  0  0  0
  142.1526   80.7014  222.5141 H   0  0  0  0  0  0  0  0  0  0  0  0
  141.1093   80.8259  220.2829 H   0  0  0  0  0  0  0  0  0  0  0  0
  142.4212   79.6170  220.3298 H   0  0  0  0  0  0  0  0  0  0  0  0
  139.4452   78.9694  220.7589 H   0  0  0  0  0  0  0  0  0  0  0  0
  140.2757   78.7590  219.2107 H   0  0  0  0  0  0  0  0  0  0  0  0
  1  2  1  0
  2  3  1  0
  3  4  1  0
  4  5  1  0
  5  6  1  0
  6  7  2  0
  7  8  1  0
  8  9  1  0
  9 10  1  0
 10 11  1  0
 11 12  1  0
 12 13  2  0
 13 14  1  0
 14 15  2  0
 15 16  1  0
 16 17  2  0
 17 18  1  0
  8 19  2  0
 19 20  1  0
 20 21  1  0
 21 22  1  0
 22 23  1  0
 23 24  1  0
 24 25  2  0
 25 26  1  0
 26 27  2  0
 27 28  1  0
 28 29  2  0
 29 30  1  0
 20 31  2  0
  3 32  1  0
 32 33  1  0
 33 34  1  0
 34 35  1  0
 35 36  1  0
 36  3  1  0
 31  6  1  0
 18  9  1  0
 30 21  1  0
 17 12  1  0
 29 24  1  0
  1 37  1  0
  1 38  1  0
  1 39  1  0
  2 40  1  0
  4 41  1  0
  4 42  1  0
  5 43  1  0
 10 44  1  0
 10 45  1  0
 11 46  1  0
 11 47  1  0
 13 48  1  0
 14 49  1  0
 15 50  1  0
 16 51  1  0
 18 52  1  0
 18 53  1  0
 22 54  1  0
 22 55  1  0
 23 56  1  0
 23 57  1  0
 25 58  1  0
 26 59  1  0
 27 60  1  0
 28 61  1  0
 30 62  1  0
 30 63  1  0
 32 64  1  0
 32 65  1  0
 33 66  1  0
 33 67  1  0
 34 68  1  0
 34 69  1  0
 35 70  1  0
 35 71  1  0
 36 72  1  0
 36 73  1  0
M  END
