
     RDKit          3D

 38 39  0  0  1  0  0  0  0  0999 V2000
  138.6470   70.4670  223.8930 O   0  0  0  0  0  0  0  0  0  0  0  0
  139.2660   71.3400  223.2350 C   0  0  0  0  0  0  0  0  0  0  0  0
  138.9280   71.5960  221.7910 C   0  0  0  0  0  0  0  0  0  0  0  0
  140.1880   72.1830  221.1640 C   0  0  0  0  0  0  0  0  0  0  0  0
  140.0500   73.6310  220.8580 C   0  0  0  0  0  0  0  0  0  0  0  0
  140.0000   74.3950  221.9890 O   0  0  0  0  0  0  0  0  0  0  0  0
  139.9640   75.7110  222.2630 C   0  0  0  0  0  0  0  0  0  0  0  0
  141.0240   76.5750  222.3900 C   0  0  0  0  0  0  0  0  0  0  0  0
  140.8760   77.9250  222.6750 C   0  0  0  0  0  0  0  0  0  0  0  0
  139.6230   78.4660  222.8460 C   0  0  0  0  0  0  0  0  0  0  0  0
  139.3460   80.1560  223.2070 Cl  0  0  0  0  0  0  0  0  0  0  0  0
  138.5380   77.6270  222.7240 C   0  0  0  0  0  0  0  0  0  0  0  0
  138.6940   76.2910  222.4420 C   0  0  0  0  0  0  0  0  0  0  0  0
  137.2450   75.3170  222.3100 Cl  0  0  0  0  0  0  0  0  0  0  0  0
  140.3080   72.1400  223.7790 N   0  0  0  0  0  0  0  0  0  0  0  0
  140.6770   71.9530  225.1310 N   0  0  0  0  0  0  0  0  0  0  0  0
  141.4050   70.9900  225.5300 C   0  0  0  0  0  0  0  0  0  0  0  0
  141.0050   70.0010  226.5270 C   0  0  0  0  0  0  0  0  0  0  0  0
  141.1330   68.6330  226.2690 C   0  0  0  0  0  0  0  0  0  0  0  0
  140.7590   67.6840  227.2040 C   0  0  0  0  0  0  0  0  0  0  0  0
  140.2550   68.1510  228.3970 C   0  0  0  0  0  0  0  0  0  0  0  0
  140.1270   69.4720  228.6560 N   0  0  0  0  0  0  0  0  0  0  0  0
  140.4960   70.3770  227.7380 C   0  0  0  0  0  0  0  0  0  0  0  0
  140.3370   71.6890  228.0740 F   0  0  0  0  0  0  0  0  0  0  0  0
  138.6536   70.6560  221.2899 H   0  0  0  0  0  0  0  0  0  0  0  0
  138.0718   72.2794  221.6919 H   0  0  0  0  0  0  0  0  0  0  0  0
  141.0258   72.0487  221.8640 H   0  0  0  0  0  0  0  0  0  0  0  0
  140.3656   71.6562  220.2148 H   0  0  0  0  0  0  0  0  0  0  0  0
  140.9123   73.9490  220.2535 H   0  0  0  0  0  0  0  0  0  0  0  0
  139.1050   73.7723  220.3130 H   0  0  0  0  0  0  0  0  0  0  0  0
  142.0411   76.1770  222.2593 H   0  0  0  0  0  0  0  0  0  0  0  0
  141.7655   78.5659  222.7647 H   0  0  0  0  0  0  0  0  0  0  0  0
  137.5248   78.0348  222.8550 H   0  0  0  0  0  0  0  0  0  0  0  0
  140.8220   72.8660  223.2300 H   0  0  0  0  0  0  0  0  0  0  0  0
  142.4096   70.8949  225.0921 H   0  0  0  0  0  0  0  0  0  0  0  0
  141.5399   68.3038  225.3015 H   0  0  0  0  0  0  0  0  0  0  0  0
  140.8597   66.6071  227.0035 H   0  0  0  0  0  0  0  0  0  0  0  0
  139.9464   67.4259  229.1645 H   0  0  0  0  0  0  0  0  0  0  0  0
  1  2  2  0
  2  3  1  0
  3  4  1  0
  4  5  1  0
  5  6  1  0
  6  7  1  0
  7  8  2  0
  8  9  1  0
  9 10  2  0
 10 11  1  0
 10 12  1  0
 12 13  2  0
 13 14  1  0
  2 15  1  0
 15 16  1  0
 16 17  2  0
 17 18  1  0
 18 19  2  0
 19 20  1  0
 20 21  2  0
 21 22  1  0
 22 23  2  0
 23 24  1  0
 13  7  1  0
 23 18  1  0
  3 25  1  0
  3 26  1  0
  4 27  1  0
  4 28  1  0
  5 29  1  0
  5 30  1  0
  8 31  1  0
  9 32  1  0
 12 33  1  0
 15 34  1  0
 17 35  1  0
 19 36  1  0
 20 37  1  0
 21 38  1  0
M  END
>  <smiles>  (1) 
O=C(CCCOc1ccc(Cl)cc1Cl)NN=Cc1cccnc1F

>  <score_type>  (1) 
oracle

>  <origin>  (1) 
autodockgpu

>  <m_score__min__energy>  (1) 
-7.4000000000000004

>  <m_primary>  (1) 
energy

>  <rmsd>  (1) 
7.6450843867502

>  <m_score__min__rmsd>  (1) 
7.6450843867502

>  <meeko>  (1) 
{"free_energy": -5.83, "intermolecular_energy": -8.22, "internal_energy": -1.53, "cluster_size": 6, "cluster_id": 6, "rank_in_cluster": 4}

>  <energy>  (1) 
-7.4

>  <cluster_rmsd>  (1) 
0.0

>  <cluster>  (1) 
1

$$$$

     RDKit          3D

 38 39  0  0  1  0  0  0  0  0999 V2000
  139.6490   70.1390  222.3200 O   0  0  0  0  0  0  0  0  0  0  0  0
  139.3660   71.3440  222.5400 C   0  0  0  0  0  0  0  0  0  0  0  0
  138.3670   72.0680  221.6780 C   0  0  0  0  0  0  0  0  0  0  0  0
  139.1830   72.8220  220.6350 C   0  0  0  0  0  0  0  0  0  0  0  0
  140.2810   73.6210  221.2380 C   0  0  0  0  0  0  0  0  0  0  0  0
  139.8200   74.5250  222.1520 O   0  0  0  0  0  0  0  0  0  0  0  0
  139.9340   75.8510  222.3390 C   0  0  0  0  0  0  0  0  0  0  0  0
  141.0810   76.6070  222.3430 C   0  0  0  0  0  0  0  0  0  0  0  0
  141.0880   77.9800  222.5460 C   0  0  0  0  0  0  0  0  0  0  0  0
  139.9100   78.6570  222.7570 C   0  0  0  0  0  0  0  0  0  0  0  0
  139.8280   80.3850  223.0220 Cl  0  0  0  0  0  0  0  0  0  0  0  0
  138.7410   77.9290  222.7600 C   0  0  0  0  0  0  0  0  0  0  0  0
  138.7430   76.5700  222.5580 C   0  0  0  0  0  0  0  0  0  0  0  0
  137.1980   75.7450  222.5810 Cl  0  0  0  0  0  0  0  0  0  0  0  0
  139.9480   72.1070  223.5890 N   0  0  0  0  0  0  0  0  0  0  0  0
  140.8960   71.4890  224.4370 N   0  0  0  0  0  0  0  0  0  0  0  0
  140.8390   71.5450  225.7060 C   0  0  0  0  0  0  0  0  0  0  0  0
  140.7340   70.3840  226.5860 C   0  0  0  0  0  0  0  0  0  0  0  0
  141.0470   69.1030  226.1210 C   0  0  0  0  0  0  0  0  0  0  0  0
  140.9530   67.9950  226.9430 C   0  0  0  0  0  0  0  0  0  0  0  0
  140.5360   68.2120  228.2370 C   0  0  0  0  0  0  0  0  0  0  0  0
  140.2310   69.4470  228.6960 N   0  0  0  0  0  0  0  0  0  0  0  0
  140.3290   70.5100  227.8850 C   0  0  0  0  0  0  0  0  0  0  0  0
  140.0040   71.7210  228.4210 F   0  0  0  0  0  0  0  0  0  0  0  0
  137.6919   71.3500  221.1895 H   0  0  0  0  0  0  0  0  0  0  0  0
  137.7415   72.7507  222.2718 H   0  0  0  0  0  0  0  0  0  0  0  0
  139.6199   72.0940  219.9356 H   0  0  0  0  0  0  0  0  0  0  0  0
  138.5052   73.5203  220.1222 H   0  0  0  0  0  0  0  0  0  0  0  0
  140.9826   72.9376  221.7387 H   0  0  0  0  0  0  0  0  0  0  0  0
  140.7746   74.1803  220.4296 H   0  0  0  0  0  0  0  0  0  0  0  0
  142.0422   76.0986  222.1770 H   0  0  0  0  0  0  0  0  0  0  0  0
  142.0409   78.5294  222.5380 H   0  0  0  0  0  0  0  0  0  0  0  0
  137.7851   78.4467  222.9277 H   0  0  0  0  0  0  0  0  0  0  0  0
  139.7130   73.1090  223.7700 H   0  0  0  0  0  0  0  0  0  0  0  0
  140.8711   72.5395  226.1749 H   0  0  0  0  0  0  0  0  0  0  0  0
  141.3750   68.9739  225.0790 H   0  0  0  0  0  0  0  0  0  0  0  0
  141.2001   66.9866  226.5797 H   0  0  0  0  0  0  0  0  0  0  0  0
  140.4481   67.3536  228.9192 H   0  0  0  0  0  0  0  0  0  0  0  0
  1  2  2  0
  2  3  1  0
  3  4  1  0
  4  5  1  0
  5  6  1  0
  6  7  1  0
  7  8  2  0
  8  9  1  0
  9 10  2  0
 10 11  1  0
 10 12  1  0
 12 13  2  0
 13 14  1  0
  2 15  1  0
 15 16  1  0
 16 17  2  0
 17 18  1  0
 18 19  2  0
 19 20  1  0
 20 21  2  0
 21 22  1  0
 22 23  2  0
 23 24  1  0
 13  7  1  0
 23 18  1  0
  3 25  1  0
  3 26  1  0
  4 27  1  0
  4 28  1  0
  5 29  1  0
  5 30  1  0
  8 31  1  0
  9 32  1  0
 12 33  1  0
 15 34  1  0
 17 35  1  0
 19 36  1  0
 20 37  1  0
 21 38  1  0
M  END
>  <smiles>  (2) 
O=C(CCCOc1ccc(Cl)cc1Cl)NN=Cc1cccnc1F

>  <score_type>  (2) 
oracle

>  <origin>  (2) 
autodockgpu

>  <m_score__min__energy>  (2) 
-7.4000000000000004

>  <m_primary>  (2) 
energy

>  <rmsd>  (2) 
7.706078775640671

>  <m_score__min__rmsd>  (2) 
7.706078775640671

>  <meeko>  (2) 
{"free_energy": -6.31, "intermolecular_energy": -8.7, "internal_energy": -1.47, "cluster_size": 6, "cluster_id": 6, "rank_in_cluster": 2}

>  <energy>  (2) 
-7.34

>  <cluster_rmsd>  (2) 
0.38

>  <cluster>  (2) 
1

$$$$

     RDKit          3D

 38 39  0  0  1  0  0  0  0  0999 V2000
  139.9170   70.4510  221.5420 O   0  0  0  0  0  0  0  0  0  0  0  0
  139.6120   71.6620  221.6770 C   0  0  0  0  0  0  0  0  0  0  0  0
  139.4780   72.5580  220.4750 C   0  0  0  0  0  0  0  0  0  0  0  0
  140.8100   73.2890  220.3470 C   0  0  0  0  0  0  0  0  0  0  0  0
  141.1590   74.0580  221.5700 C   0  0  0  0  0  0  0  0  0  0  0  0
  140.1400   74.8730  221.9740 O   0  0  0  0  0  0  0  0  0  0  0  0
  140.0220   76.1650  222.3270 C   0  0  0  0  0  0  0  0  0  0  0  0
  141.0260   77.0820  222.5230 C   0  0  0  0  0  0  0  0  0  0  0  0
  140.7920   78.4010  222.8870 C   0  0  0  0  0  0  0  0  0  0  0  0
  139.5070   78.8530  223.0710 C   0  0  0  0  0  0  0  0  0  0  0  0
  139.1230   80.4980  223.5310 Cl  0  0  0  0  0  0  0  0  0  0  0  0
  138.4760   77.9600  222.8820 C   0  0  0  0  0  0  0  0  0  0  0  0
  138.7160   76.6550  222.5220 C   0  0  0  0  0  0  0  0  0  0  0  0
  137.3310   75.6060  222.3080 Cl  0  0  0  0  0  0  0  0  0  0  0  0
  139.3750   72.2760  222.9370 N   0  0  0  0  0  0  0  0  0  0  0  0
  139.4840   71.4930  224.1090 N   0  0  0  0  0  0  0  0  0  0  0  0
  140.5420   71.4290  224.8110 C   0  0  0  0  0  0  0  0  0  0  0  0
  140.6800   70.6530  226.0400 C   0  0  0  0  0  0  0  0  0  0  0  0
  140.5120   69.2650  226.0320 C   0  0  0  0  0  0  0  0  0  0  0  0
  140.6410   68.5160  227.1880 C   0  0  0  0  0  0  0  0  0  0  0  0
  140.9400   69.2010  228.3440 C   0  0  0  0  0  0  0  0  0  0  0  0
  141.1040   70.5420  228.3620 N   0  0  0  0  0  0  0  0  0  0  0  0
  140.9760   71.2520  227.2320 C   0  0  0  0  0  0  0  0  0  0  0  0
  141.1570   72.6000  227.3320 F   0  0  0  0  0  0  0  0  0  0  0  0
  139.2814   71.9605  219.5726 H   0  0  0  0  0  0  0  0  0  0  0  0
  138.6405   73.2622  220.5880 H   0  0  0  0  0  0  0  0  0  0  0  0
  141.6015   72.5488  220.1583 H   0  0  0  0  0  0  0  0  0  0  0  0
  140.7188   74.0054  219.5173 H   0  0  0  0  0  0  0  0  0  0  0  0
  141.3893   73.3503  222.3800 H   0  0  0  0  0  0  0  0  0  0  0  0
  142.0264   74.6922  221.3347 H   0  0  0  0  0  0  0  0  0  0  0  0
  142.0671   76.7548  222.3846 H   0  0  0  0  0  0  0  0  0  0  0  0
  141.6393   79.0880  223.0289 H   0  0  0  0  0  0  0  0  0  0  0  0
  137.4386   78.2978  223.0220 H   0  0  0  0  0  0  0  0  0  0  0  0
  139.1230   73.2850  223.0470 H   0  0  0  0  0  0  0  0  0  0  0  0
  141.4172   71.9999  224.4674 H   0  0  0  0  0  0  0  0  0  0  0  0
  140.2720   68.7575  225.0860 H   0  0  0  0  0  0  0  0  0  0  0  0
  140.5107   67.4238  227.1836 H   0  0  0  0  0  0  0  0  0  0  0  0
  141.0489   68.6386  229.2831 H   0  0  0  0  0  0  0  0  0  0  0  0
  1  2  2  0
  2  3  1  0
  3  4  1  0
  4  5  1  0
  5  6  1  0
  6  7  1  0
  7  8  2  0
  8  9  1  0
  9 10  2  0
 10 11  1  0
 10 12  1  0
 12 13  2  0
 13 14  1  0
  2 15  1  0
 15 16  1  0
 16 17  2  0
 17 18  1  0
 18 19  2  0
 19 20  1  0
 20 21  2  0
 21 22  1  0
 22 23  2  0
 23 24  1  0
 13  7  1  0
 23 18  1  0
  3 25  1  0
  3 26  1  0
  4 27  1  0
  4 28  1  0
  5 29  1  0
  5 30  1  0
  8 31  1  0
  9 32  1  0
 12 33  1  0
 15 34  1  0
 17 35  1  0
 19 36  1  0
 20 37  1  0
 21 38  1  0
M  END
>  <smiles>  (3) 
O=C(CCCOc1ccc(Cl)cc1Cl)NN=Cc1cccnc1F

>  <score_type>  (3) 
oracle

>  <origin>  (3) 
autodockgpu

>  <m_score__min__energy>  (3) 
-7.4000000000000004

>  <m_primary>  (3) 
energy

>  <rmsd>  (3) 
7.544914726134932

>  <m_score__min__rmsd>  (3) 
7.544914726134932

>  <meeko>  (3) 
{"free_energy": -6.35, "intermolecular_energy": -8.73, "internal_energy": -1.5, "cluster_size": 6, "cluster_id": 6, "rank_in_cluster": 1}

>  <energy>  (3) 
-6.95

>  <cluster_rmsd>  (3) 
0.65

>  <cluster>  (3) 
1

$$$$

     RDKit          3D

 38 39  0  0  1  0  0  0  0  0999 V2000
  139.7700   71.0640  220.9030 O   0  0  0  0  0  0  0  0  0  0  0  0
  139.5820   72.2560  221.2550 C   0  0  0  0  0  0  0  0  0  0  0  0
  139.5400   73.3610  220.2340 C   0  0  0  0  0  0  0  0  0  0  0  0
  140.9720   73.8680  220.1070 C   0  0  0  0  0  0  0  0  0  0  0  0
  141.4330   74.5840  221.3260 C   0  0  0  0  0  0  0  0  0  0  0  0
  140.4080   75.2110  221.9740 O   0  0  0  0  0  0  0  0  0  0  0  0
  140.1540   76.4650  222.3890 C   0  0  0  0  0  0  0  0  0  0  0  0
  141.0580   77.4580  222.6780 C   0  0  0  0  0  0  0  0  0  0  0  0
  140.6860   78.7260  223.1010 C   0  0  0  0  0  0  0  0  0  0  0  0
  139.3570   79.0470  223.2510 C   0  0  0  0  0  0  0  0  0  0  0  0
  138.8010   80.6200  223.7790 Cl  0  0  0  0  0  0  0  0  0  0  0  0
  138.4240   78.0740  222.9700 C   0  0  0  0  0  0  0  0  0  0  0  0
  138.8010   76.8200  222.5510 C   0  0  0  0  0  0  0  0  0  0  0  0
  137.5310   75.6610  222.2220 Cl  0  0  0  0  0  0  0  0  0  0  0  0
  139.3980   72.6540  222.6080 N   0  0  0  0  0  0  0  0  0  0  0  0
  139.4260   71.6670  223.6200 N   0  0  0  0  0  0  0  0  0  0  0  0
  140.4750   71.3610  224.2690 C   0  0  0  0  0  0  0  0  0  0  0  0
  140.5020   70.9870  225.6800 C   0  0  0  0  0  0  0  0  0  0  0  0
  141.0170   71.8600  226.6420 C   0  0  0  0  0  0  0  0  0  0  0  0
  141.0480   71.5200  227.9830 C   0  0  0  0  0  0  0  0  0  0  0  0
  140.5490   70.2830  228.3230 C   0  0  0  0  0  0  0  0  0  0  0  0
  140.0490   69.4320  227.4010 N   0  0  0  0  0  0  0  0  0  0  0  0
  140.0260   69.7780  226.1060 C   0  0  0  0  0  0  0  0  0  0  0  0
  139.5050   68.8660  225.2360 F   0  0  0  0  0  0  0  0  0  0  0  0
  139.1836   72.9753  219.2674 H   0  0  0  0  0  0  0  0  0  0  0  0
  138.8527   74.1646  220.5370 H   0  0  0  0  0  0  0  0  0  0  0  0
  141.6359   73.0090  219.9302 H   0  0  0  0  0  0  0  0  0  0  0  0
  141.0011   74.5808  219.2697 H   0  0  0  0  0  0  0  0  0  0  0  0
  141.8933   73.8569  222.0112 H   0  0  0  0  0  0  0  0  0  0  0  0
  142.1555   75.3524  221.0136 H   0  0  0  0  0  0  0  0  0  0  0  0
  142.1300   77.2370  222.5686 H   0  0  0  0  0  0  0  0  0  0  0  0
  141.4583   79.4788  223.3176 H   0  0  0  0  0  0  0  0  0  0  0  0
  137.3545   78.3049  223.0832 H   0  0  0  0  0  0  0  0  0  0  0  0
  139.2420   73.6460  222.8990 H   0  0  0  0  0  0  0  0  0  0  0  0
  141.4326   71.3793  223.7281 H   0  0  0  0  0  0  0  0  0  0  0  0
  141.4064   72.8391  226.3263 H   0  0  0  0  0  0  0  0  0  0  0  0
  141.4525   72.2061  228.7417 H   0  0  0  0  0  0  0  0  0  0  0  0
  140.5577   69.9777  229.3797 H   0  0  0  0  0  0  0  0  0  0  0  0
  1  2  2  0
  2  3  1  0
  3  4  1  0
  4  5  1  0
  5  6  1  0
  6  7  1  0
  7  8  2  0
  8  9  1  0
  9 10  2  0
 10 11  1  0
 10 12  1  0
 12 13  2  0
 13 14  1  0
  2 15  1  0
 15 16  1  0
 16 17  2  0
 17 18  1  0
 18 19  2  0
 19 20  1  0
 20 21  2  0
 21 22  1  0
 22 23  2  0
 23 24  1  0
 13  7  1  0
 23 18  1  0
  3 25  1  0
  3 26  1  0
  4 27  1  0
  4 28  1  0
  5 29  1  0
  5 30  1  0
  8 31  1  0
  9 32  1  0
 12 33  1  0
 15 34  1  0
 17 35  1  0
 19 36  1  0
 20 37  1  0
 21 38  1  0
M  END
>  <smiles>  (4) 
O=C(CCCOc1ccc(Cl)cc1Cl)NN=Cc1cccnc1F

>  <score_type>  (4) 
oracle

>  <origin>  (4) 
autodockgpu

>  <m_score__min__energy>  (4) 
-7.4000000000000004

>  <m_primary>  (4) 
energy

>  <rmsd>  (4) 
7.268110693517233

>  <m_score__min__rmsd>  (4) 
7.268110693517233

>  <meeko>  (4) 
{"free_energy": -6.11, "intermolecular_energy": -8.49, "internal_energy": -1.6, "cluster_size": 9, "cluster_id": 3, "rank_in_cluster": 8}

>  <energy>  (4) 
-6.83

>  <cluster_rmsd>  (4) 
1.1

>  <cluster>  (4) 
1

$$$$

     RDKit          3D

 38 39  0  0  1  0  0  0  0  0999 V2000
  140.5390   73.9530  222.0030 O   0  0  0  0  0  0  0  0  0  0  0  0
  141.3020   74.7190  221.3640 C   0  0  0  0  0  0  0  0  0  0  0  0
  142.1390   74.1950  220.2270 C   0  0  0  0  0  0  0  0  0  0  0  0
  143.2680   75.2030  220.0400 C   0  0  0  0  0  0  0  0  0  0  0  0
  143.0770   76.0580  218.8390 C   0  0  0  0  0  0  0  0  0  0  0  0
  141.9530   76.8290  218.9290 O   0  0  0  0  0  0  0  0  0  0  0  0
  141.6930   78.1360  219.1050 C   0  0  0  0  0  0  0  0  0  0  0  0
  142.5580   79.1940  218.9710 C   0  0  0  0  0  0  0  0  0  0  0  0
  142.1840   80.5150  219.1760 C   0  0  0  0  0  0  0  0  0  0  0  0
  140.8920   80.8230  219.5310 C   0  0  0  0  0  0  0  0  0  0  0  0
  140.3350   82.4600  219.8090 Cl  0  0  0  0  0  0  0  0  0  0  0  0
  139.9980   79.7860  219.6740 C   0  0  0  0  0  0  0  0  0  0  0  0
  140.3770   78.4810  219.4690 C   0  0  0  0  0  0  0  0  0  0  0  0
  139.1580   77.2410  219.6780 Cl  0  0  0  0  0  0  0  0  0  0  0  0
  141.4410   76.1050  221.6480 N   0  0  0  0  0  0  0  0  0  0  0  0
  140.6850   76.6640  222.7040 N   0  0  0  0  0  0  0  0  0  0  0  0
  140.2520   77.8590  222.6970 C   0  0  0  0  0  0  0  0  0  0  0  0
  141.0550   79.0370  223.0150 C   0  0  0  0  0  0  0  0  0  0  0  0
  142.4340   79.0460  222.7870 C   0  0  0  0  0  0  0  0  0  0  0  0
  143.2070   80.1540  223.0820 C   0  0  0  0  0  0  0  0  0  0  0  0
  142.5550   81.2450  223.6100 C   0  0  0  0  0  0  0  0  0  0  0  0
  141.2220   81.2470  223.8340 N   0  0  0  0  0  0  0  0  0  0  0  0
  140.4880   80.1640  223.5410 C   0  0  0  0  0  0  0  0  0  0  0  0
  139.1500   80.2440  223.7950 F   0  0  0  0  0  0  0  0  0  0  0  0
  142.5477   73.2049  220.4774 H   0  0  0  0  0  0  0  0  0  0  0  0
  141.5451   74.0788  219.3084 H   0  0  0  0  0  0  0  0  0  0  0  0
  143.3143   75.8493  220.9289 H   0  0  0  0  0  0  0  0  0  0  0  0
  144.2009   74.6369  219.9014 H   0  0  0  0  0  0  0  0  0  0  0  0
  143.9510   76.7170  218.7304 H   0  0  0  0  0  0  0  0  0  0  0  0
  142.9643   75.3964  217.9675 H   0  0  0  0  0  0  0  0  0  0  0  0
  143.5998   78.9842  218.6869 H   0  0  0  0  0  0  0  0  0  0  0  0
  142.9247   81.3190  219.0538 H   0  0  0  0  0  0  0  0  0  0  0  0
  138.9585   80.0065  219.9583 H   0  0  0  0  0  0  0  0  0  0  0  0
  142.0780   76.7410  221.1160 H   0  0  0  0  0  0  0  0  0  0  0  0
  139.1962   78.0175  222.4323 H   0  0  0  0  0  0  0  0  0  0  0  0
  142.9150   78.1519  222.3636 H   0  0  0  0  0  0  0  0  0  0  0  0
  144.2923   80.1630  222.9030 H   0  0  0  0  0  0  0  0  0  0  0  0
  143.1376   82.1446  223.8578 H   0  0  0  0  0  0  0  0  0  0  0  0
  1  2  2  0
  2  3  1  0
  3  4  1  0
  4  5  1  0
  5  6  1  0
  6  7  1  0
  7  8  2  0
  8  9  1  0
  9 10  2  0
 10 11  1  0
 10 12  1  0
 12 13  2  0
 13 14  1  0
  2 15  1  0
 15 16  1  0
 16 17  2  0
 17 18  1  0
 18 19  2  0
 19 20  1  0
 20 21  2  0
 21 22  1  0
 22 23  2  0
 23 24  1  0
 13  7  1  0
 23 18  1  0
  3 25  1  0
  3 26  1  0
  4 27  1  0
  4 28  1  0
  5 29  1  0
  5 30  1  0
  8 31  1  0
  9 32  1  0
 12 33  1  0
 15 34  1  0
 17 35  1  0
 19 36  1  0
 20 37  1  0
 21 38  1  0
M  END
>  <smiles>  (5) 
O=C(CCCOc1ccc(Cl)cc1Cl)NN=Cc1cccnc1F

>  <score_type>  (5) 
oracle

>  <origin>  (5) 
autodockgpu

>  <m_score__min__energy>  (5) 
-7.4000000000000004

>  <m_primary>  (5) 
energy

>  <rmsd>  (5) 
6.601988888108551

>  <m_score__min__rmsd>  (5) 
6.601988888108551

>  <meeko>  (5) 
{"free_energy": -4.87, "intermolecular_energy": -7.26, "internal_energy": -2.73, "cluster_size": 5, "cluster_id": 8, "rank_in_cluster": 5}

>  <energy>  (5) 
-6.7

>  <cluster_rmsd>  (5) 
1.18

>  <cluster>  (5) 
1

$$$$

     RDKit          3D

 38 39  0  0  1  0  0  0  0  0999 V2000
  140.1010   71.6600  220.7780 O   0  0  0  0  0  0  0  0  0  0  0  0
  139.5650   72.6780  221.2830 C   0  0  0  0  0  0  0  0  0  0  0  0
  138.7660   73.6280  220.4330 C   0  0  0  0  0  0  0  0  0  0  0  0
  137.4740   73.8890  221.1990 C   0  0  0  0  0  0  0  0  0  0  0  0
  137.4720   75.2100  221.8810 C   0  0  0  0  0  0  0  0  0  0  0  0
  138.7300   75.6130  222.2270 O   0  0  0  0  0  0  0  0  0  0  0  0
  139.3460   76.7920  222.4210 C   0  0  0  0  0  0  0  0  0  0  0  0
  138.8410   77.9190  223.0220 C   0  0  0  0  0  0  0  0  0  0  0  0
  139.5670   79.0930  223.1730 C   0  0  0  0  0  0  0  0  0  0  0  0
  140.8600   79.1730  222.7110 C   0  0  0  0  0  0  0  0  0  0  0  0
  141.8450   80.6130  222.8590 Cl  0  0  0  0  0  0  0  0  0  0  0  0
  141.3970   78.0610  222.1020 C   0  0  0  0  0  0  0  0  0  0  0  0
  140.6710   76.9030  221.9580 C   0  0  0  0  0  0  0  0  0  0  0  0
  141.4540   75.5510  221.1680 Cl  0  0  0  0  0  0  0  0  0  0  0  0
  139.6650   73.0130  222.6610 N   0  0  0  0  0  0  0  0  0  0  0  0
  140.4020   72.1650  223.5190 N   0  0  0  0  0  0  0  0  0  0  0  0
  139.8750   71.2240  224.1940 C   0  0  0  0  0  0  0  0  0  0  0  0
  140.1950   70.9170  225.5850 C   0  0  0  0  0  0  0  0  0  0  0  0
  140.7570   71.8870  226.4210 C   0  0  0  0  0  0  0  0  0  0  0  0
  141.0650   71.6110  227.7400 C   0  0  0  0  0  0  0  0  0  0  0  0
  140.7930   70.3380  228.1900 C   0  0  0  0  0  0  0  0  0  0  0  0
  140.2500   69.3940  227.3900 N   0  0  0  0  0  0  0  0  0  0  0  0
  139.9570   69.6800  226.1140 C   0  0  0  0  0  0  0  0  0  0  0  0
  139.4110   68.6750  225.3710 F   0  0  0  0  0  0  0  0  0  0  0  0
  139.3195   74.5671  220.2852 H   0  0  0  0  0  0  0  0  0  0  0  0
  138.5665   73.2077  219.4362 H   0  0  0  0  0  0  0  0  0  0  0  0
  136.6321   73.8561  220.4918 H   0  0  0  0  0  0  0  0  0  0  0  0
  137.3829   73.1134  221.9737 H   0  0  0  0  0  0  0  0  0  0  0  0
  137.0340   75.9579  221.2036 H   0  0  0  0  0  0  0  0  0  0  0  0
  136.8822   75.1128  222.8044 H   0  0  0  0  0  0  0  0  0  0  0  0
  137.8095   77.8902  223.4029 H   0  0  0  0  0  0  0  0  0  0  0  0
  139.1061   79.9627  223.6642 H   0  0  0  0  0  0  0  0  0  0  0  0
  142.4288   78.1003  221.7228 H   0  0  0  0  0  0  0  0  0  0  0  0
  139.2190   73.8610  223.0810 H   0  0  0  0  0  0  0  0  0  0  0  0
  139.1235   70.5960  223.6931 H   0  0  0  0  0  0  0  0  0  0  0  0
  140.9583   72.8914  226.0203 H   0  0  0  0  0  0  0  0  0  0  0  0
  141.5067   72.3725  228.3995 H   0  0  0  0  0  0  0  0  0  0  0  0
  141.0252   70.0815  229.2342 H   0  0  0  0  0  0  0  0  0  0  0  0
  1  2  2  0
  2  3  1  0
  3  4  1  0
  4  5  1  0
  5  6  1  0
  6  7  1  0
  7  8  2  0
  8  9  1  0
  9 10  2  0
 10 11  1  0
 10 12  1  0
 12 13  2  0
 13 14  1  0
  2 15  1  0
 15 16  1  0
 16 17  2  0
 17 18  1  0
 18 19  2  0
 19 20  1  0
 20 21  2  0
 21 22  1  0
 22 23  2  0
 23 24  1  0
 13  7  1  0
 23 18  1  0
  3 25  1  0
  3 26  1  0
  4 27  1  0
  4 28  1  0
  5 29  1  0
  5 30  1  0
  8 31  1  0
  9 32  1  0
 12 33  1  0
 15 34  1  0
 17 35  1  0
 19 36  1  0
 20 37  1  0
 21 38  1  0
M  END
>  <smiles>  (6) 
O=C(CCCOc1ccc(Cl)cc1Cl)NN=Cc1cccnc1F

>  <score_type>  (6) 
oracle

>  <origin>  (6) 
autodockgpu

>  <m_score__min__energy>  (6) 
-7.4000000000000004

>  <m_primary>  (6) 
energy

>  <rmsd>  (6) 
6.458738098843597

>  <m_score__min__rmsd>  (6) 
6.458738098843597

>  <meeko>  (6) 
{"free_energy": -6.03, "intermolecular_energy": -8.42, "internal_energy": -1.58, "cluster_size": 10, "cluster_id": 2, "rank_in_cluster": 10}

>  <energy>  (6) 
-6.52

>  <cluster_rmsd>  (6) 
1.25

>  <cluster>  (6) 
1

$$$$

     RDKit          3D

 38 39  0  0  1  0  0  0  0  0999 V2000
  141.9700   71.8700  221.2350 O   0  0  0  0  0  0  0  0  0  0  0  0
  141.1610   72.7530  221.6150 C   0  0  0  0  0  0  0  0  0  0  0  0
  140.9700   74.0140  220.8170 C   0  0  0  0  0  0  0  0  0  0  0  0
  139.5230   73.9890  220.3360 C   0  0  0  0  0  0  0  0  0  0  0  0
  138.5910   74.6390  221.2950 C   0  0  0  0  0  0  0  0  0  0  0  0
  139.2530   75.2630  222.3130 O   0  0  0  0  0  0  0  0  0  0  0  0
  139.7400   76.4970  222.5330 C   0  0  0  0  0  0  0  0  0  0  0  0
  141.0560   76.8850  222.6020 C   0  0  0  0  0  0  0  0  0  0  0  0
  141.4530   78.1940  222.8340 C   0  0  0  0  0  0  0  0  0  0  0  0
  140.5150   79.1840  223.0080 C   0  0  0  0  0  0  0  0  0  0  0  0
  140.9270   80.8590  223.3050 Cl  0  0  0  0  0  0  0  0  0  0  0  0
  139.1860   78.8290  222.9450 C   0  0  0  0  0  0  0  0  0  0  0  0
  138.8010   77.5300  222.7150 C   0  0  0  0  0  0  0  0  0  0  0  0
  137.0840   77.1930  222.6550 Cl  0  0  0  0  0  0  0  0  0  0  0  0
  140.3790   72.6430  222.7980 N   0  0  0  0  0  0  0  0  0  0  0  0
  140.5090   71.4840  223.5970 N   0  0  0  0  0  0  0  0  0  0  0  0
  139.6880   71.1730  224.5170 C   0  0  0  0  0  0  0  0  0  0  0  0
  140.0660   70.6890  225.8420 C   0  0  0  0  0  0  0  0  0  0  0  0
  140.6940   71.5360  226.7600 C   0  0  0  0  0  0  0  0  0  0  0  0
  141.0580   71.0920  228.0180 C   0  0  0  0  0  0  0  0  0  0  0  0
  140.7720   69.7810  228.3230 C   0  0  0  0  0  0  0  0  0  0  0  0
  140.1650   68.9540  227.4420 N   0  0  0  0  0  0  0  0  0  0  0  0
  139.8190   69.4020  226.2270 C   0  0  0  0  0  0  0  0  0  0  0  0
  139.2100   68.5080  225.3960 F   0  0  0  0  0  0  0  0  0  0  0  0
  141.1482   74.8970  221.4483 H   0  0  0  0  0  0  0  0  0  0  0  0
  141.6749   74.0694  219.9743 H   0  0  0  0  0  0  0  0  0  0  0  0
  139.4626   74.5171  219.3729 H   0  0  0  0  0  0  0  0  0  0  0  0
  139.2216   72.9354  220.2402 H   0  0  0  0  0  0  0  0  0  0  0  0
  137.9888   75.3841  220.7544 H   0  0  0  0  0  0  0  0  0  0  0  0
  137.9566   73.8551  221.7343 H   0  0  0  0  0  0  0  0  0  0  0  0
  141.8341   76.1194  222.4665 H   0  0  0  0  0  0  0  0  0  0  0  0
  142.5240   78.4411  222.8790 H   0  0  0  0  0  0  0  0  0  0  0  0
  138.4156   79.6022  223.0818 H   0  0  0  0  0  0  0  0  0  0  0  0
  139.7070   73.3790  223.1130 H   0  0  0  0  0  0  0  0  0  0  0  0
  138.6148   71.2761  224.2989 H   0  0  0  0  0  0  0  0  0  0  0  0
  140.9030   72.5778  226.4755 H   0  0  0  0  0  0  0  0  0  0  0  0
  141.5533   71.7562  228.7415 H   0  0  0  0  0  0  0  0  0  0  0  0
  141.0460   69.3933  229.3153 H   0  0  0  0  0  0  0  0  0  0  0  0
  1  2  2  0
  2  3  1  0
  3  4  1  0
  4  5  1  0
  5  6  1  0
  6  7  1  0
  7  8  2  0
  8  9  1  0
  9 10  2  0
 10 11  1  0
 10 12  1  0
 12 13  2  0
 13 14  1  0
  2 15  1  0
 15 16  1  0
 16 17  2  0
 17 18  1  0
 18 19  2  0
 19 20  1  0
 20 21  2  0
 21 22  1  0
 22 23  2  0
 23 24  1  0
 13  7  1  0
 23 18  1  0
  3 25  1  0
  3 26  1  0
  4 27  1  0
  4 28  1  0
  5 29  1  0
  5 30  1  0
  8 31  1  0
  9 32  1  0
 12 33  1  0
 15 34  1  0
 17 35  1  0
 19 36  1  0
 20 37  1  0
 21 38  1  0
M  END
>  <smiles>  (7) 
O=C(CCCOc1ccc(Cl)cc1Cl)NN=Cc1cccnc1F

>  <score_type>  (7) 
oracle

>  <origin>  (7) 
autodockgpu

>  <m_score__min__energy>  (7) 
-7.4000000000000004

>  <m_primary>  (7) 
energy

>  <rmsd>  (7) 
7.045081917031514

>  <m_score__min__rmsd>  (7) 
7.045081917031514

>  <meeko>  (7) 
{"free_energy": -6.25, "intermolecular_energy": -8.64, "internal_energy": -1.38, "cluster_size": 10, "cluster_id": 2, "rank_in_cluster": 5}

>  <energy>  (7) 
-5.9

>  <cluster_rmsd>  (7) 
1.77

>  <cluster>  (7) 
1

$$$$

     RDKit          3D

 38 39  0  0  1  0  0  0  0  0999 V2000
  140.2590   73.9690  222.0480 O   0  0  0  0  0  0  0  0  0  0  0  0
  141.1460   74.6150  221.4360 C   0  0  0  0  0  0  0  0  0  0  0  0
  141.9560   73.9640  220.3470 C   0  0  0  0  0  0  0  0  0  0  0  0
  143.2730   74.7300  220.2920 C   0  0  0  0  0  0  0  0  0  0  0  0
  143.3400   75.6670  219.1400 C   0  0  0  0  0  0  0  0  0  0  0  0
  142.2380   76.4700  219.0640 O   0  0  0  0  0  0  0  0  0  0  0  0
  142.0130   77.7850  218.8980 C   0  0  0  0  0  0  0  0  0  0  0  0
  142.9190   78.7600  218.5580 C   0  0  0  0  0  0  0  0  0  0  0  0
  142.5790   80.0980  218.4100 C   0  0  0  0  0  0  0  0  0  0  0  0
  141.2810   80.5100  218.6020 C   0  0  0  0  0  0  0  0  0  0  0  0
  140.7660   82.1750  218.4360 Cl  0  0  0  0  0  0  0  0  0  0  0  0
  140.3470   79.5570  218.9430 C   0  0  0  0  0  0  0  0  0  0  0  0
  140.6920   78.2350  219.0890 C   0  0  0  0  0  0  0  0  0  0  0  0
  139.4230   77.1100  219.5240 Cl  0  0  0  0  0  0  0  0  0  0  0  0
  141.4550   75.9750  221.7100 N   0  0  0  0  0  0  0  0  0  0  0  0
  140.7320   76.6490  222.7220 N   0  0  0  0  0  0  0  0  0  0  0  0
  140.3260   77.8480  222.6100 C   0  0  0  0  0  0  0  0  0  0  0  0
  141.1100   79.0290  222.9610 C   0  0  0  0  0  0  0  0  0  0  0  0
  142.4880   79.0670  222.7290 C   0  0  0  0  0  0  0  0  0  0  0  0
  143.2440   80.1790  223.0560 C   0  0  0  0  0  0  0  0  0  0  0  0
  142.5760   81.2420  223.6190 C   0  0  0  0  0  0  0  0  0  0  0  0
  141.2440   81.2150  223.8470 N   0  0  0  0  0  0  0  0  0  0  0  0
  140.5270   80.1290  223.5240 C   0  0  0  0  0  0  0  0  0  0  0  0
  139.1890   80.1790  223.7840 F   0  0  0  0  0  0  0  0  0  0  0  0
  142.1383   72.9059  220.5861 H   0  0  0  0  0  0  0  0  0  0  0  0
  141.4311   73.9928  219.3808 H   0  0  0  0  0  0  0  0  0  0  0  0
  143.3847   75.3064  221.2222 H   0  0  0  0  0  0  0  0  0  0  0  0
  144.0821   73.9946  220.1716 H   0  0  0  0  0  0  0  0  0  0  0  0
  144.2329   76.3001  219.2496 H   0  0  0  0  0  0  0  0  0  0  0  0
  143.3853   75.0674  218.2189 H   0  0  0  0  0  0  0  0  0  0  0  0
  143.9663   78.4660  218.3948 H   0  0  0  0  0  0  0  0  0  0  0  0
  143.3516   80.8321  218.1378 H   0  0  0  0  0  0  0  0  0  0  0  0
  139.3018   79.8609  219.1019 H   0  0  0  0  0  0  0  0  0  0  0  0
  142.1940   76.5110  221.2010 H   0  0  0  0  0  0  0  0  0  0  0  0
  139.3099   78.0079  222.2202 H   0  0  0  0  0  0  0  0  0  0  0  0
  142.9820   78.1943  222.2769 H   0  0  0  0  0  0  0  0  0  0  0  0
  144.3284   80.2116  222.8743 H   0  0  0  0  0  0  0  0  0  0  0  0
  143.1445   82.1431  223.8925 H   0  0  0  0  0  0  0  0  0  0  0  0
  1  2  2  0
  2  3  1  0
  3  4  1  0
  4  5  1  0
  5  6  1  0
  6  7  1  0
  7  8  2  0
  8  9  1  0
  9 10  2  0
 10 11  1  0
 10 12  1  0
 12 13  2  0
 13 14  1  0
  2 15  1  0
 15 16  1  0
 16 17  2  0
 17 18  1  0
 18 19  2  0
 19 20  1  0
 20 21  2  0
 21 22  1  0
 22 23  2  0
 23 24  1  0
 13  7  1  0
 23 18  1  0
  3 25  1  0
  3 26  1  0
  4 27  1  0
  4 28  1  0
  5 29  1  0
  5 30  1  0
  8 31  1  0
  9 32  1  0
 12 33  1  0
 15 34  1  0
 17 35  1  0
 19 36  1  0
 20 37  1  0
 21 38  1  0
M  END
>  <smiles>  (8) 
O=C(CCCOc1ccc(Cl)cc1Cl)NN=Cc1cccnc1F

>  <score_type>  (8) 
oracle

>  <origin>  (8) 
autodockgpu

>  <m_score__min__energy>  (8) 
-7.4000000000000004

>  <m_primary>  (8) 
energy

>  <rmsd>  (8) 
7.079206782666124

>  <m_score__min__rmsd>  (8) 
7.079206782666124

>  <meeko>  (8) 
{"free_energy": -5.02, "intermolecular_energy": -7.4, "internal_energy": -2.42, "cluster_size": 5, "cluster_id": 8, "rank_in_cluster": 4}

>  <energy>  (8) 
-6.88

>  <cluster_rmsd>  (8) 
0.0

>  <cluster>  (8) 
2

$$$$

     RDKit          3D

 38 39  0  0  1  0  0  0  0  0999 V2000
  138.3010   70.1100  222.7630 O   0  0  0  0  0  0  0  0  0  0  0  0
  138.4590   71.3560  222.8150 C   0  0  0  0  0  0  0  0  0  0  0  0
  137.4280   72.2850  222.2330 C   0  0  0  0  0  0  0  0  0  0  0  0
  138.1320   73.0460  221.1160 C   0  0  0  0  0  0  0  0  0  0  0  0
  138.5610   74.4070  221.5340 C   0  0  0  0  0  0  0  0  0  0  0  0
  139.8640   74.4350  221.9400 O   0  0  0  0  0  0  0  0  0  0  0  0
  141.0460   74.0690  221.4130 C   0  0  0  0  0  0  0  0  0  0  0  0
  141.5800   72.8060  221.3340 C   0  0  0  0  0  0  0  0  0  0  0  0
  142.8170   72.5360  220.7650 C   0  0  0  0  0  0  0  0  0  0  0  0
  143.5770   73.5540  220.2410 C   0  0  0  0  0  0  0  0  0  0  0  0
  145.1460   73.3030  219.5060 Cl  0  0  0  0  0  0  0  0  0  0  0  0
  143.0710   74.8340  220.3030 C   0  0  0  0  0  0  0  0  0  0  0  0
  141.8460   75.0920  220.8690 C   0  0  0  0  0  0  0  0  0  0  0  0
  141.3010   76.7560  220.8940 Cl  0  0  0  0  0  0  0  0  0  0  0  0
  139.5910   71.9790  223.4070 N   0  0  0  0  0  0  0  0  0  0  0  0
  140.6000   71.1650  223.9730 N   0  0  0  0  0  0  0  0  0  0  0  0
  140.8970   71.1790  225.2090 C   0  0  0  0  0  0  0  0  0  0  0  0
  140.5810   70.1110  226.1530 C   0  0  0  0  0  0  0  0  0  0  0  0
  140.9120   70.2300  227.5060 C   0  0  0  0  0  0  0  0  0  0  0  0
  140.6180   69.2270  228.4120 C   0  0  0  0  0  0  0  0  0  0  0  0
  139.9870   68.1080  227.9190 C   0  0  0  0  0  0  0  0  0  0  0  0
  139.6620   67.9830  226.6130 N   0  0  0  0  0  0  0  0  0  0  0  0
  139.9540   68.9660  225.7490 C   0  0  0  0  0  0  0  0  0  0  0  0
  139.5940   68.7650  224.4490 F   0  0  0  0  0  0  0  0  0  0  0  0
  136.5806   71.7112  221.8296 H   0  0  0  0  0  0  0  0  0  0  0  0
  137.0254   72.9686  222.9950 H   0  0  0  0  0  0  0  0  0  0  0  0
  139.0205   72.4759  220.8068 H   0  0  0  0  0  0  0  0  0  0  0  0
  137.4162   73.1615  220.2888 H   0  0  0  0  0  0  0  0  0  0  0  0
  138.4403   75.0934  220.6830 H   0  0  0  0  0  0  0  0  0  0  0  0
  137.9353   74.7115  222.3859 H   0  0  0  0  0  0  0  0  0  0  0  0
  140.9982   71.9664  221.7421 H   0  0  0  0  0  0  0  0  0  0  0  0
  143.1908   71.5020  220.7334 H   0  0  0  0  0  0  0  0  0  0  0  0
  143.6600   75.6666  219.8908 H   0  0  0  0  0  0  0  0  0  0  0  0
  139.7210   73.0150  223.4490 H   0  0  0  0  0  0  0  0  0  0  0  0
  141.4309   72.0598  225.5953 H   0  0  0  0  0  0  0  0  0  0  0  0
  141.4174   71.1414  227.8579 H   0  0  0  0  0  0  0  0  0  0  0  0
  140.8766   69.3196  229.4772 H   0  0  0  0  0  0  0  0  0  0  0  0
  139.7391   67.2888  228.6100 H   0  0  0  0  0  0  0  0  0  0  0  0
  1  2  2  0
  2  3  1  0
  3  4  1  0
  4  5  1  0
  5  6  1  0
  6  7  1  0
  7  8  2  0
  8  9  1  0
  9 10  2  0
 10 11  1  0
 10 12  1  0
 12 13  2  0
 13 14  1  0
  2 15  1  0
 15 16  1  0
 16 17  2  0
 17 18  1  0
 18 19  2  0
 19 20  1  0
 20 21  2  0
 21 22  1  0
 22 23  2  0
 23 24  1  0
 13  7  1  0
 23 18  1  0
  3 25  1  0
  3 26  1  0
  4 27  1  0
  4 28  1  0
  5 29  1  0
  5 30  1  0
  8 31  1  0
  9 32  1  0
 12 33  1  0
 15 34  1  0
 17 35  1  0
 19 36  1  0
 20 37  1  0
 21 38  1  0
M  END
>  <smiles>  (9) 
O=C(CCCOc1ccc(Cl)cc1Cl)NN=Cc1cccnc1F

>  <score_type>  (9) 
oracle

>  <origin>  (9) 
autodockgpu

>  <m_score__min__energy>  (9) 
-7.4000000000000004

>  <m_primary>  (9) 
energy

>  <rmsd>  (9) 
9.034680290714046

>  <m_score__min__rmsd>  (9) 
9.034680290714046

>  <meeko>  (9) 
{"free_energy": -5.76, "intermolecular_energy": -8.15, "internal_energy": -1.64, "cluster_size": 4, "cluster_id": 7, "rank_in_cluster": 4}

>  <energy>  (9) 
-6.79

>  <cluster_rmsd>  (9) 
1.38

>  <cluster>  (9) 
2

$$$$

     RDKit          3D

 38 39  0  0  1  0  0  0  0  0999 V2000
  141.7770   72.2820  221.5290 O   0  0  0  0  0  0  0  0  0  0  0  0
  140.8830   73.0450  221.9720 C   0  0  0  0  0  0  0  0  0  0  0  0
  140.7690   74.4630  221.4800 C   0  0  0  0  0  0  0  0  0  0  0  0
  141.5780   74.5240  220.1890 C   0  0  0  0  0  0  0  0  0  0  0  0
  141.4110   75.8150  219.4720 C   0  0  0  0  0  0  0  0  0  0  0  0
  140.7690   76.7490  220.2340 O   0  0  0  0  0  0  0  0  0  0  0  0
  141.1340   77.6610  221.1520 C   0  0  0  0  0  0  0  0  0  0  0  0
  141.0510   77.5620  222.5190 C   0  0  0  0  0  0  0  0  0  0  0  0
  141.4600   78.5690  223.3820 C   0  0  0  0  0  0  0  0  0  0  0  0
  141.9810   79.7400  222.8850 C   0  0  0  0  0  0  0  0  0  0  0  0
  142.5210   81.0600  223.9000 Cl  0  0  0  0  0  0  0  0  0  0  0  0
  142.0790   79.8720  221.5180 C   0  0  0  0  0  0  0  0  0  0  0  0
  141.6710   78.8700  220.6700 C   0  0  0  0  0  0  0  0  0  0  0  0
  141.8420   79.1460  218.9500 Cl  0  0  0  0  0  0  0  0  0  0  0  0
  139.9290   72.6500  222.9490 N   0  0  0  0  0  0  0  0  0  0  0  0
  139.9770   71.3310  223.4560 N   0  0  0  0  0  0  0  0  0  0  0  0
  139.5580   71.0100  224.6130 C   0  0  0  0  0  0  0  0  0  0  0  0
  139.7960   69.7220  225.2580 C   0  0  0  0  0  0  0  0  0  0  0  0
  140.8030   69.5770  226.2170 C   0  0  0  0  0  0  0  0  0  0  0  0
  141.0400   68.3630  226.8370 C   0  0  0  0  0  0  0  0  0  0  0  0
  140.2390   67.3070  226.4640 C   0  0  0  0  0  0  0  0  0  0  0  0
  139.2630   67.4370  225.5370 N   0  0  0  0  0  0  0  0  0  0  0  0
  139.0480   68.6220  224.9480 C   0  0  0  0  0  0  0  0  0  0  0  0
  138.0450   68.6730  224.0240 F   0  0  0  0  0  0  0  0  0  0  0  0
  139.7167   74.7166  221.2844 H   0  0  0  0  0  0  0  0  0  0  0  0
  141.1433   75.1803  222.2253 H   0  0  0  0  0  0  0  0  0  0  0  0
  142.6423   74.3915  220.4333 H   0  0  0  0  0  0  0  0  0  0  0  0
  141.2118   73.7250  219.5275 H   0  0  0  0  0  0  0  0  0  0  0  0
  142.4048   76.2010  219.2013 H   0  0  0  0  0  0  0  0  0  0  0  0
  140.7971   75.6281  218.5786 H   0  0  0  0  0  0  0  0  0  0  0  0
  140.6397   76.6382  222.9518 H   0  0  0  0  0  0  0  0  0  0  0  0
  141.3668   78.4294  224.4691 H   0  0  0  0  0  0  0  0  0  0  0  0
  142.4928   80.7994  221.0953 H   0  0  0  0  0  0  0  0  0  0  0  0
  139.1850   73.2860  223.3180 H   0  0  0  0  0  0  0  0  0  0  0  0
  138.9732   71.7578  225.1687 H   0  0  0  0  0  0  0  0  0  0  0  0
  141.4204   70.4472  226.4845 H   0  0  0  0  0  0  0  0  0  0  0  0
  141.8311   68.2469  227.5924 H   0  0  0  0  0  0  0  0  0  0  0  0
  140.3981   66.3259  226.9353 H   0  0  0  0  0  0  0  0  0  0  0  0
  1  2  2  0
  2  3  1  0
  3  4  1  0
  4  5  1  0
  5  6  1  0
  6  7  1  0
  7  8  2  0
  8  9  1  0
  9 10  2  0
 10 11  1  0
 10 12  1  0
 12 13  2  0
 13 14  1  0
  2 15  1  0
 15 16  1  0
 16 17  2  0
 17 18  1  0
 18 19  2  0
 19 20  1  0
 20 21  2  0
 21 22  1  0
 22 23  2  0
 23 24  1  0
 13  7  1  0
 23 18  1  0
  3 25  1  0
  3 26  1  0
  4 27  1  0
  4 28  1  0
  5 29  1  0
  5 30  1  0
  8 31  1  0
  9 32  1  0
 12 33  1  0
 15 34  1  0
 17 35  1  0
 19 36  1  0
 20 37  1  0
 21 38  1  0
M  END
>  <smiles>  (10) 
O=C(CCCOc1ccc(Cl)cc1Cl)NN=Cc1cccnc1F

>  <score_type>  (10) 
oracle

>  <origin>  (10) 
autodockgpu

>  <m_score__min__energy>  (10) 
-7.4000000000000004

>  <m_primary>  (10) 
energy

>  <rmsd>  (10) 
6.015044347056418

>  <m_score__min__rmsd>  (10) 
6.015044347056418

>  <meeko>  (10) 
{"free_energy": -6.79, "intermolecular_energy": -9.18, "internal_energy": -0.52, "cluster_size": 10, "cluster_id": 2, "rank_in_cluster": 2}

>  <energy>  (10) 
-6.78

>  <cluster_rmsd>  (10) 
1.83

>  <cluster>  (10) 
2

$$$$

     RDKit          3D

 38 39  0  0  1  0  0  0  0  0999 V2000
  141.1780   71.1420  221.5440 O   0  0  0  0  0  0  0  0  0  0  0  0
  140.4360   72.1380  221.7350 C   0  0  0  0  0  0  0  0  0  0  0  0
  139.9150   72.9410  220.5740 C   0  0  0  0  0  0  0  0  0  0  0  0
  138.4470   73.2160  220.8810 C   0  0  0  0  0  0  0  0  0  0  0  0
  138.2200   74.5930  221.3920 C   0  0  0  0  0  0  0  0  0  0  0  0
  139.3610   75.1530  221.8900 O   0  0  0  0  0  0  0  0  0  0  0  0
  139.8390   76.4020  222.0340 C   0  0  0  0  0  0  0  0  0  0  0  0
  139.2800   77.4440  222.7320 C   0  0  0  0  0  0  0  0  0  0  0  0
  139.8600   78.7020  222.8180 C   0  0  0  0  0  0  0  0  0  0  0  0
  141.0560   78.9590  222.1890 C   0  0  0  0  0  0  0  0  0  0  0  0
  141.8570   80.5150  222.2470 Cl  0  0  0  0  0  0  0  0  0  0  0  0
  141.6450   77.9360  221.4810 C   0  0  0  0  0  0  0  0  0  0  0  0
  141.0620   76.6940  221.4000 C   0  0  0  0  0  0  0  0  0  0  0  0
  141.8990   75.4660  220.4730 Cl  0  0  0  0  0  0  0  0  0  0  0  0
  140.0360   72.5820  223.0250 N   0  0  0  0  0  0  0  0  0  0  0  0
  140.4890   71.8740  224.1620 N   0  0  0  0  0  0  0  0  0  0  0  0
  139.7640   71.0550  224.8110 C   0  0  0  0  0  0  0  0  0  0  0  0
  140.1740   70.3660  226.0310 C   0  0  0  0  0  0  0  0  0  0  0  0
  140.0160   68.9830  226.1600 C   0  0  0  0  0  0  0  0  0  0  0  0
  140.4000   68.3170  227.3090 C   0  0  0  0  0  0  0  0  0  0  0  0
  140.9440   69.0780  228.3190 C   0  0  0  0  0  0  0  0  0  0  0  0
  141.1010   70.4160  228.2040 N   0  0  0  0  0  0  0  0  0  0  0  0
  140.7230   71.0450  227.0820 C   0  0  0  0  0  0  0  0  0  0  0  0
  140.9150   72.3950  227.0430 F   0  0  0  0  0  0  0  0  0  0  0  0
  140.4703   73.8861  220.4827 H   0  0  0  0  0  0  0  0  0  0  0  0
  140.0343   72.4006  219.6234 H   0  0  0  0  0  0  0  0  0  0  0  0
  137.8627   73.0813  219.9588 H   0  0  0  0  0  0  0  0  0  0  0  0
  138.1325   72.5125  221.6659 H   0  0  0  0  0  0  0  0  0  0  0  0
  137.8482   75.2198  220.5680 H   0  0  0  0  0  0  0  0  0  0  0  0
  137.4882   74.5328  222.2110 H   0  0  0  0  0  0  0  0  0  0  0  0
  138.3243   77.2731  223.2491 H   0  0  0  0  0  0  0  0  0  0  0  0
  139.3611   79.4970  223.3917 H   0  0  0  0  0  0  0  0  0  0  0  0
  142.6020   78.1162  220.9695 H   0  0  0  0  0  0  0  0  0  0  0  0
  139.4190   73.4110  223.1820 H   0  0  0  0  0  0  0  0  0  0  0  0
  138.7544   70.8509  224.4249 H   0  0  0  0  0  0  0  0  0  0  0  0
  139.5764   68.4121  225.3289 H   0  0  0  0  0  0  0  0  0  0  0  0
  140.2765   67.2288  227.4115 H   0  0  0  0  0  0  0  0  0  0  0  0
  141.2608   68.5822  229.2484 H   0  0  0  0  0  0  0  0  0  0  0  0
  1  2  2  0
  2  3  1  0
  3  4  1  0
  4  5  1  0
  5  6  1  0
  6  7  1  0
  7  8  2  0
  8  9  1  0
  9 10  2  0
 10 11  1  0
 10 12  1  0
 12 13  2  0
 13 14  1  0
  2 15  1  0
 15 16  1  0
 16 17  2  0
 17 18  1  0
 18 19  2  0
 19 20  1  0
 20 21  2  0
 21 22  1  0
 22 23  2  0
 23 24  1  0
 13  7  1  0
 23 18  1  0
  3 25  1  0
  3 26  1  0
  4 27  1  0
  4 28  1  0
  5 29  1  0
  5 30  1  0
  8 31  1  0
  9 32  1  0
 12 33  1  0
 15 34  1  0
 17 35  1  0
 19 36  1  0
 20 37  1  0
 21 38  1  0
M  END
>  <smiles>  (11) 
O=C(CCCOc1ccc(Cl)cc1Cl)NN=Cc1cccnc1F

>  <score_type>  (11) 
oracle

>  <origin>  (11) 
autodockgpu

>  <m_score__min__energy>  (11) 
-7.4000000000000004

>  <m_primary>  (11) 
energy

>  <rmsd>  (11) 
6.701453876331886

>  <m_score__min__rmsd>  (11) 
6.701453876331886

>  <meeko>  (11) 
{"free_energy": -6.11, "intermolecular_energy": -8.5, "internal_energy": -1.41, "cluster_size": 10, "cluster_id": 2, "rank_in_cluster": 6}

>  <energy>  (11) 
-6.62

>  <cluster_rmsd>  (11) 
1.59

>  <cluster>  (11) 
2

$$$$

     RDKit          3D

 38 39  0  0  1  0  0  0  0  0999 V2000
  139.9400   70.0020  222.4700 O   0  0  0  0  0  0  0  0  0  0  0  0
  139.5010   71.1790  222.4640 C   0  0  0  0  0  0  0  0  0  0  0  0
  138.5850   71.6520  221.3670 C   0  0  0  0  0  0  0  0  0  0  0  0
  138.1260   73.0460  221.7780 C   0  0  0  0  0  0  0  0  0  0  0  0
  139.0130   74.1170  221.2530 C   0  0  0  0  0  0  0  0  0  0  0  0
  139.5620   74.8670  222.2530 O   0  0  0  0  0  0  0  0  0  0  0  0
  139.8450   76.1690  222.4380 C   0  0  0  0  0  0  0  0  0  0  0  0
  141.0760   76.7780  222.4050 C   0  0  0  0  0  0  0  0  0  0  0  0
  141.2580   78.1380  222.6090 C   0  0  0  0  0  0  0  0  0  0  0  0
  140.1790   78.9530  222.8610 C   0  0  0  0  0  0  0  0  0  0  0  0
  140.3190   80.6780  223.1300 Cl  0  0  0  0  0  0  0  0  0  0  0  0
  138.9300   78.3750  222.9010 C   0  0  0  0  0  0  0  0  0  0  0  0
  138.7590   77.0260  222.6980 C   0  0  0  0  0  0  0  0  0  0  0  0
  137.1260   76.3980  222.7720 Cl  0  0  0  0  0  0  0  0  0  0  0  0
  139.8220   72.1400  223.4610 N   0  0  0  0  0  0  0  0  0  0  0  0
  140.6780   71.7640  224.5220 N   0  0  0  0  0  0  0  0  0  0  0  0
  140.2590   71.2820  225.6210 C   0  0  0  0  0  0  0  0  0  0  0  0
  140.1690   69.8560  225.9240 C   0  0  0  0  0  0  0  0  0  0  0  0
  141.1050   69.2430  226.7630 C   0  0  0  0  0  0  0  0  0  0  0  0
  141.0320   67.8940  227.0600 C   0  0  0  0  0  0  0  0  0  0  0  0
  139.9980   67.1860  226.4910 C   0  0  0  0  0  0  0  0  0  0  0  0
  139.0880   67.7690  225.6790 N   0  0  0  0  0  0  0  0  0  0  0  0
  139.1740   69.0780  225.4020 C   0  0  0  0  0  0  0  0  0  0  0  0
  138.2190   69.5940  224.5760 F   0  0  0  0  0  0  0  0  0  0  0  0
  139.1246   71.6937  220.4094 H   0  0  0  0  0  0  0  0  0  0  0  0
  137.7327   70.9701  221.2305 H   0  0  0  0  0  0  0  0  0  0  0  0
  137.1090   73.2101  221.3924 H   0  0  0  0  0  0  0  0  0  0  0  0
  138.1561   73.0967  222.8764 H   0  0  0  0  0  0  0  0  0  0  0  0
  139.8237   73.6528  220.6722 H   0  0  0  0  0  0  0  0  0  0  0  0
  138.4031   74.7840  220.6259 H   0  0  0  0  0  0  0  0  0  0  0  0
  141.9615   76.1562  222.2069 H   0  0  0  0  0  0  0  0  0  0  0  0
  142.2702   78.5668  222.5690 H   0  0  0  0  0  0  0  0  0  0  0  0
  138.0508   79.0055  223.0995 H   0  0  0  0  0  0  0  0  0  0  0  0
  139.4570   73.1200  223.4540 H   0  0  0  0  0  0  0  0  0  0  0  0
  139.9411   71.9902  226.4004 H   0  0  0  0  0  0  0  0  0  0  0  0
  141.9165   69.8464  227.1959 H   0  0  0  0  0  0  0  0  0  0  0  0
  141.7663   67.4095  227.7203 H   0  0  0  0  0  0  0  0  0  0  0  0
  139.9092   66.1105  226.7040 H   0  0  0  0  0  0  0  0  0  0  0  0
  1  2  2  0
  2  3  1  0
  3  4  1  0
  4  5  1  0
  5  6  1  0
  6  7  1  0
  7  8  2  0
  8  9  1  0
  9 10  2  0
 10 11  1  0
 10 12  1  0
 12 13  2  0
 13 14  1  0
  2 15  1  0
 15 16  1  0
 16 17  2  0
 17 18  1  0
 18 19  2  0
 19 20  1  0
 20 21  2  0
 21 22  1  0
 22 23  2  0
 23 24  1  0
 13  7  1  0
 23 18  1  0
  3 25  1  0
  3 26  1  0
  4 27  1  0
  4 28  1  0
  5 29  1  0
  5 30  1  0
  8 31  1  0
  9 32  1  0
 12 33  1  0
 15 34  1  0
 17 35  1  0
 19 36  1  0
 20 37  1  0
 21 38  1  0
M  END
>  <smiles>  (12) 
O=C(CCCOc1ccc(Cl)cc1Cl)NN=Cc1cccnc1F

>  <score_type>  (12) 
oracle

>  <origin>  (12) 
autodockgpu

>  <m_score__min__energy>  (12) 
-7.4000000000000004

>  <m_primary>  (12) 
energy

>  <rmsd>  (12) 
7.312234528379037

>  <m_score__min__rmsd>  (12) 
7.312234528379037

>  <meeko>  (12) 
{"free_energy": -6.43, "intermolecular_energy": -8.81, "internal_energy": -1.43, "cluster_size": 9, "cluster_id": 3, "rank_in_cluster": 5}

>  <energy>  (12) 
-6.25

>  <cluster_rmsd>  (12) 
1.88

>  <cluster>  (12) 
2

$$$$

     RDKit          3D

 38 39  0  0  1  0  0  0  0  0999 V2000
  138.2160   77.5290  222.2280 O   0  0  0  0  0  0  0  0  0  0  0  0
  138.5910   76.3400  222.3800 C   0  0  0  0  0  0  0  0  0  0  0  0
  140.0520   75.9820  222.3160 C   0  0  0  0  0  0  0  0  0  0  0  0
  140.1630   74.8660  221.2830 C   0  0  0  0  0  0  0  0  0  0  0  0
  140.6760   73.5980  221.8650 C   0  0  0  0  0  0  0  0  0  0  0  0
  139.7580   72.9960  222.6770 O   0  0  0  0  0  0  0  0  0  0  0  0
  139.7650   71.9680  223.5450 C   0  0  0  0  0  0  0  0  0  0  0  0
  140.7090   71.6760  224.4990 C   0  0  0  0  0  0  0  0  0  0  0  0
  140.6190   70.5840  225.3500 C   0  0  0  0  0  0  0  0  0  0  0  0
  139.5470   69.7260  225.2680 C   0  0  0  0  0  0  0  0  0  0  0  0
  139.3540   68.3260  226.3010 Cl  0  0  0  0  0  0  0  0  0  0  0  0
  138.5820   69.9900  224.3220 C   0  0  0  0  0  0  0  0  0  0  0  0
  138.6800   71.0740  223.4830 C   0  0  0  0  0  0  0  0  0  0  0  0
  137.3950   71.3140  222.3180 Cl  0  0  0  0  0  0  0  0  0  0  0  0
  137.6980   75.2600  222.6190 N   0  0  0  0  0  0  0  0  0  0  0  0
  136.3110   75.5250  222.6910 N   0  0  0  0  0  0  0  0  0  0  0  0
  135.6890   75.6990  223.7860 C   0  0  0  0  0  0  0  0  0  0  0  0
  135.0810   74.6320  224.5770 C   0  0  0  0  0  0  0  0  0  0  0  0
  135.1780   73.2970  224.1720 C   0  0  0  0  0  0  0  0  0  0  0  0
  134.6080   72.2760  224.9110 C   0  0  0  0  0  0  0  0  0  0  0  0
  133.9420   72.6360  226.0600 C   0  0  0  0  0  0  0  0  0  0  0  0
  133.8420   73.9240  226.4600 N   0  0  0  0  0  0  0  0  0  0  0  0
  134.4020   74.9010  225.7320 C   0  0  0  0  0  0  0  0  0  0  0  0
  134.2590   76.1730  226.2010 F   0  0  0  0  0  0  0  0  0  0  0  0
  140.6463   76.8533  222.0035 H   0  0  0  0  0  0  0  0  0  0  0  0
  140.4336   75.6638  223.2974 H   0  0  0  0  0  0  0  0  0  0  0  0
  139.1662   74.6801  220.8566 H   0  0  0  0  0  0  0  0  0  0  0  0
  140.8783   75.1933  220.5141 H   0  0  0  0  0  0  0  0  0  0  0  0
  140.9303   72.9093  221.0458 H   0  0  0  0  0  0  0  0  0  0  0  0
  141.5600   73.8385  222.4739 H   0  0  0  0  0  0  0  0  0  0  0  0
  141.5800   72.3413  224.5930 H   0  0  0  0  0  0  0  0  0  0  0  0
  141.4088   70.4034  226.0940 H   0  0  0  0  0  0  0  0  0  0  0  0
  137.7145   69.3192  224.2360 H   0  0  0  0  0  0  0  0  0  0  0  0
  138.0120   74.2710  222.7440 H   0  0  0  0  0  0  0  0  0  0  0  0
  135.6023   76.7279  224.1654 H   0  0  0  0  0  0  0  0  0  0  0  0
  135.7192   73.0536  223.2458 H   0  0  0  0  0  0  0  0  0  0  0  0
  134.6836   71.2251  224.5948 H   0  0  0  0  0  0  0  0  0  0  0  0
  133.4758   71.8507  226.6731 H   0  0  0  0  0  0  0  0  0  0  0  0
  1  2  2  0
  2  3  1  0
  3  4  1  0
  4  5  1  0
  5  6  1  0
  6  7  1  0
  7  8  2  0
  8  9  1  0
  9 10  2  0
 10 11  1  0
 10 12  1  0
 12 13  2  0
 13 14  1  0
  2 15  1  0
 15 16  1  0
 16 17  2  0
 17 18  1  0
 18 19  2  0
 19 20  1  0
 20 21  2  0
 21 22  1  0
 22 23  2  0
 23 24  1  0
 13  7  1  0
 23 18  1  0
  3 25  1  0
  3 26  1  0
  4 27  1  0
  4 28  1  0
  5 29  1  0
  5 30  1  0
  8 31  1  0
  9 32  1  0
 12 33  1  0
 15 34  1  0
 17 35  1  0
 19 36  1  0
 20 37  1  0
 21 38  1  0
M  END
>  <smiles>  (13) 
O=C(CCCOc1ccc(Cl)cc1Cl)NN=Cc1cccnc1F

>  <score_type>  (13) 
oracle

>  <origin>  (13) 
autodockgpu

>  <m_score__min__energy>  (13) 
-7.4000000000000004

>  <m_primary>  (13) 
energy

>  <rmsd>  (13) 
11.458467896892795

>  <m_score__min__rmsd>  (13) 
11.458467896892795

>  <meeko>  (13) 
{"free_energy": -5.36, "intermolecular_energy": -7.75, "internal_energy": -1.89, "cluster_size": 1, "cluster_id": 10, "rank_in_cluster": 1}

>  <energy>  (13) 
-6.11

>  <cluster_rmsd>  (13) 
1.99

>  <cluster>  (13) 
2

$$$$

     RDKit          3D

 38 39  0  0  1  0  0  0  0  0999 V2000
  141.7240   72.2940  221.6440 O   0  0  0  0  0  0  0  0  0  0  0  0
  140.7180   72.9740  221.9640 C   0  0  0  0  0  0  0  0  0  0  0  0
  140.3590   74.2210  221.2010 C   0  0  0  0  0  0  0  0  0  0  0  0
  141.6460   75.0300  221.0930 C   0  0  0  0  0  0  0  0  0  0  0  0
  141.4050   76.4330  220.6640 C   0  0  0  0  0  0  0  0  0  0  0  0
  141.3950   77.3000  221.7190 O   0  0  0  0  0  0  0  0  0  0  0  0
  140.4700   78.0510  222.3410 C   0  0  0  0  0  0  0  0  0  0  0  0
  139.1180   77.8240  222.4280 C   0  0  0  0  0  0  0  0  0  0  0  0
  138.2460   78.6680  223.1010 C   0  0  0  0  0  0  0  0  0  0  0  0
  138.7170   79.7990  223.7260 C   0  0  0  0  0  0  0  0  0  0  0  0
  137.6880   80.9160  224.5960 Cl  0  0  0  0  0  0  0  0  0  0  0  0
  140.0680   80.0560  223.6580 C   0  0  0  0  0  0  0  0  0  0  0  0
  140.9240   79.2150  222.9900 C   0  0  0  0  0  0  0  0  0  0  0  0
  142.6230   79.6400  222.9680 Cl  0  0  0  0  0  0  0  0  0  0  0  0
  139.8550   72.6370  223.0430 N   0  0  0  0  0  0  0  0  0  0  0  0
  140.1330   71.4770  223.8030 N   0  0  0  0  0  0  0  0  0  0  0  0
  140.7930   71.4950  224.8890 C   0  0  0  0  0  0  0  0  0  0  0  0
  140.5790   70.5830  226.0090 C   0  0  0  0  0  0  0  0  0  0  0  0
  140.2390   69.2450  225.7870 C   0  0  0  0  0  0  0  0  0  0  0  0
  140.0330   68.3690  226.8370 C   0  0  0  0  0  0  0  0  0  0  0  0
  140.1780   68.8770  228.1090 C   0  0  0  0  0  0  0  0  0  0  0  0
  140.5060   70.1680  228.3340 N   0  0  0  0  0  0  0  0  0  0  0  0
  140.7020   71.0030  227.3040 C   0  0  0  0  0  0  0  0  0  0  0  0
  141.0320   72.2900  227.6120 F   0  0  0  0  0  0  0  0  0  0  0  0
  139.9846   73.9623  220.1996 H   0  0  0  0  0  0  0  0  0  0  0  0
  139.5657   74.7901  221.7078 H   0  0  0  0  0  0  0  0  0  0  0  0
  142.1382   75.0420  222.0767 H   0  0  0  0  0  0  0  0  0  0  0  0
  142.2771   74.5518  220.3294 H   0  0  0  0  0  0  0  0  0  0  0  0
  142.2016   76.7322  219.9670 H   0  0  0  0  0  0  0  0  0  0  0  0
  140.4165   76.4743  220.1833 H   0  0  0  0  0  0  0  0  0  0  0  0
  138.7060   76.9285  221.9398 H   0  0  0  0  0  0  0  0  0  0  0  0
  137.1723   78.4312  223.1348 H   0  0  0  0  0  0  0  0  0  0  0  0
  140.4704   80.9542  224.1493 H   0  0  0  0  0  0  0  0  0  0  0  0
  139.0180   73.2040  223.3090 H   0  0  0  0  0  0  0  0  0  0  0  0
  141.5833   72.2531  224.9928 H   0  0  0  0  0  0  0  0  0  0  0  0
  140.1330   68.8812  224.7543 H   0  0  0  0  0  0  0  0  0  0  0  0
  139.7659   67.3160  226.6645 H   0  0  0  0  0  0  0  0  0  0  0  0
  140.0216   68.2099  228.9695 H   0  0  0  0  0  0  0  0  0  0  0  0
  1  2  2  0
  2  3  1  0
  3  4  1  0
  4  5  1  0
  5  6  1  0
  6  7  1  0
  7  8  2  0
  8  9  1  0
  9 10  2  0
 10 11  1  0
 10 12  1  0
 12 13  2  0
 13 14  1  0
  2 15  1  0
 15 16  1  0
 16 17  2  0
 17 18  1  0
 18 19  2  0
 19 20  1  0
 20 21  2  0
 21 22  1  0
 22 23  2  0
 23 24  1  0
 13  7  1  0
 23 18  1  0
  3 25  1  0
  3 26  1  0
  4 27  1  0
  4 28  1  0
  5 29  1  0
  5 30  1  0
  8 31  1  0
  9 32  1  0
 12 33  1  0
 15 34  1  0
 17 35  1  0
 19 36  1  0
 20 37  1  0
 21 38  1  0
M  END
>  <smiles>  (14) 
O=C(CCCOc1ccc(Cl)cc1Cl)NN=Cc1cccnc1F

>  <score_type>  (14) 
oracle

>  <origin>  (14) 
autodockgpu

>  <m_score__min__energy>  (14) 
-7.4000000000000004

>  <m_primary>  (14) 
energy

>  <rmsd>  (14) 
5.951743913200449

>  <m_score__min__rmsd>  (14) 
5.951743913200449

>  <meeko>  (14) 
{"free_energy": -6.61, "intermolecular_energy": -9.0, "internal_energy": -0.53, "cluster_size": 9, "cluster_id": 3, "rank_in_cluster": 3}

>  <energy>  (14) 
-6.11

>  <cluster_rmsd>  (14) 
1.94

>  <cluster>  (14) 
2

$$$$

     RDKit          3D

 38 39  0  0  1  0  0  0  0  0999 V2000
  140.6870   70.8710  221.5660 O   0  0  0  0  0  0  0  0  0  0  0  0
  140.1200   71.9800  221.7250 C   0  0  0  0  0  0  0  0  0  0  0  0
  139.5990   72.7530  220.5420 C   0  0  0  0  0  0  0  0  0  0  0  0
  140.7250   73.6940  220.1290 C   0  0  0  0  0  0  0  0  0  0  0  0
  141.2850   74.4530  221.2770 C   0  0  0  0  0  0  0  0  0  0  0  0
  140.3210   75.1370  221.9620 O   0  0  0  0  0  0  0  0  0  0  0  0
  140.1250   76.4150  222.3320 C   0  0  0  0  0  0  0  0  0  0  0  0
  141.0740   77.3750  222.5850 C   0  0  0  0  0  0  0  0  0  0  0  0
  140.7620   78.6740  222.9630 C   0  0  0  0  0  0  0  0  0  0  0  0
  139.4490   79.0600  223.1020 C   0  0  0  0  0  0  0  0  0  0  0  0
  138.9670   80.6750  223.5750 Cl  0  0  0  0  0  0  0  0  0  0  0  0
  138.4720   78.1210  222.8560 C   0  0  0  0  0  0  0  0  0  0  0  0
  138.7910   76.8370  222.4830 C   0  0  0  0  0  0  0  0  0  0  0  0
  137.4680   75.7270  222.1950 Cl  0  0  0  0  0  0  0  0  0  0  0  0
  139.9260   72.5870  222.9960 N   0  0  0  0  0  0  0  0  0  0  0  0
  140.3910   71.9160  224.1500 N   0  0  0  0  0  0  0  0  0  0  0  0
  139.7620   70.9600  224.7040 C   0  0  0  0  0  0  0  0  0  0  0  0
  140.1530   70.3230  225.9580 C   0  0  0  0  0  0  0  0  0  0  0  0
  139.9760   68.9490  226.1480 C   0  0  0  0  0  0  0  0  0  0  0  0
  140.3420   68.3310  227.3300 C   0  0  0  0  0  0  0  0  0  0  0  0
  140.8870   69.1320  228.3090 C   0  0  0  0  0  0  0  0  0  0  0  0
  141.0620   70.4610  228.1350 N   0  0  0  0  0  0  0  0  0  0  0  0
  140.7020   71.0420  226.9820 C   0  0  0  0  0  0  0  0  0  0  0  0
  140.9110   72.3860  226.8830 F   0  0  0  0  0  0  0  0  0  0  0  0
  139.3503   72.0688  219.7174 H   0  0  0  0  0  0  0  0  0  0  0  0
  138.6820   73.3062  220.7932 H   0  0  0  0  0  0  0  0  0  0  0  0
  141.5307   73.1003  219.6725 H   0  0  0  0  0  0  0  0  0  0  0  0
  140.3066   74.4232  219.4196 H   0  0  0  0  0  0  0  0  0  0  0  0
  141.7743   73.7468  221.9639 H   0  0  0  0  0  0  0  0  0  0  0  0
  142.0022   75.1864  220.8798 H   0  0  0  0  0  0  0  0  0  0  0  0
  142.1344   77.1010  222.4831 H   0  0  0  0  0  0  0  0  0  0  0  0
  141.5684   79.3978  223.1522 H   0  0  0  0  0  0  0  0  0  0  0  0
  137.4143   78.4044  222.9602 H   0  0  0  0  0  0  0  0  0  0  0  0
  139.4540   73.5110  223.1260 H   0  0  0  0  0  0  0  0  0  0  0  0
  138.8576   70.5857  224.2020 H   0  0  0  0  0  0  0  0  0  0  0  0
  139.5360   68.3464  225.3397 H   0  0  0  0  0  0  0  0  0  0  0  0
  140.2042   67.2502  227.4811 H   0  0  0  0  0  0  0  0  0  0  0  0
  141.1895   68.6756  229.2630 H   0  0  0  0  0  0  0  0  0  0  0  0
  1  2  2  0
  2  3  1  0
  3  4  1  0
  4  5  1  0
  5  6  1  0
  6  7  1  0
  7  8  2  0
  8  9  1  0
  9 10  2  0
 10 11  1  0
 10 12  1  0
 12 13  2  0
 13 14  1  0
  2 15  1  0
 15 16  1  0
 16 17  2  0
 17 18  1  0
 18 19  2  0
 19 20  1  0
 20 21  2  0
 21 22  1  0
 22 23  2  0
 23 24  1  0
 13  7  1  0
 23 18  1  0
  3 25  1  0
  3 26  1  0
  4 27  1  0
  4 28  1  0
  5 29  1  0
  5 30  1  0
  8 31  1  0
  9 32  1  0
 12 33  1  0
 15 34  1  0
 17 35  1  0
 19 36  1  0
 20 37  1  0
 21 38  1  0
M  END
>  <smiles>  (15) 
O=C(CCCOc1ccc(Cl)cc1Cl)NN=Cc1cccnc1F

>  <score_type>  (15) 
oracle

>  <origin>  (15) 
autodockgpu

>  <m_score__min__energy>  (15) 
-7.4000000000000004

>  <m_primary>  (15) 
energy

>  <rmsd>  (15) 
7.291984161299513

>  <m_score__min__rmsd>  (15) 
7.291984161299513

>  <meeko>  (15) 
{"free_energy": -6.4, "intermolecular_energy": -8.78, "internal_energy": -1.41, "cluster_size": 9, "cluster_id": 3, "rank_in_cluster": 7}

>  <energy>  (15) 
-6.08

>  <cluster_rmsd>  (15) 
1.99

>  <cluster>  (15) 
2

$$$$

     RDKit          3D

 38 39  0  0  1  0  0  0  0  0999 V2000
  140.3040   71.2980  220.9630 O   0  0  0  0  0  0  0  0  0  0  0  0
  139.6160   72.2810  221.3320 C   0  0  0  0  0  0  0  0  0  0  0  0
  138.6610   72.9510  220.3810 C   0  0  0  0  0  0  0  0  0  0  0  0
  139.0790   74.4170  220.3320 C   0  0  0  0  0  0  0  0  0  0  0  0
  138.2820   75.2680  221.2540 C   0  0  0  0  0  0  0  0  0  0  0  0
  139.0290   75.7360  222.2970 O   0  0  0  0  0  0  0  0  0  0  0  0
  139.6910   76.8730  222.5750 C   0  0  0  0  0  0  0  0  0  0  0  0
  141.0480   77.0520  222.6910 C   0  0  0  0  0  0  0  0  0  0  0  0
  141.6330   78.2760  222.9810 C   0  0  0  0  0  0  0  0  0  0  0  0
  140.8510   79.3920  223.1700 C   0  0  0  0  0  0  0  0  0  0  0  0
  141.5050   80.9730  223.5400 Cl  0  0  0  0  0  0  0  0  0  0  0  0
  139.4860   79.2470  223.0610 C   0  0  0  0  0  0  0  0  0  0  0  0
  138.9160   78.0310  222.7730 C   0  0  0  0  0  0  0  0  0  0  0  0
  137.1700   77.9630  222.6580 Cl  0  0  0  0  0  0  0  0  0  0  0  0
  139.6760   72.8330  222.6410 N   0  0  0  0  0  0  0  0  0  0  0  0
  140.5520   72.2530  223.5870 N   0  0  0  0  0  0  0  0  0  0  0  0
  140.3100   71.1570  224.1850 C   0  0  0  0  0  0  0  0  0  0  0  0
  140.4150   70.9550  225.6270 C   0  0  0  0  0  0  0  0  0  0  0  0
  141.0390   71.9060  226.4400 C   0  0  0  0  0  0  0  0  0  0  0  0
  141.1450   71.7280  227.8070 C   0  0  0  0  0  0  0  0  0  0  0  0
  140.6090   70.5720  228.3280 C   0  0  0  0  0  0  0  0  0  0  0  0
  140.0040   69.6460  227.5510 N   0  0  0  0  0  0  0  0  0  0  0  0
  139.9090   69.8360  226.2270 C   0  0  0  0  0  0  0  0  0  0  0  0
  139.2840   68.8580  225.5120 F   0  0  0  0  0  0  0  0  0  0  0  0
  138.7359   72.4982  219.3813 H   0  0  0  0  0  0  0  0  0  0  0  0
  137.6177   72.8395  220.7112 H   0  0  0  0  0  0  0  0  0  0  0  0
  140.1400   74.4907  220.6126 H   0  0  0  0  0  0  0  0  0  0  0  0
  138.9049   74.7798  219.3083 H   0  0  0  0  0  0  0  0  0  0  0  0
  137.8837   76.1247  220.6906 H   0  0  0  0  0  0  0  0  0  0  0  0
  137.4713   74.6508  221.6685 H   0  0  0  0  0  0  0  0  0  0  0  0
  141.7039   76.1808  222.5466 H   0  0  0  0  0  0  0  0  0  0  0  0
  142.7273   78.3546  223.0602 H   0  0  0  0  0  0  0  0  0  0  0  0
  138.8382   80.1238  223.2077 H   0  0  0  0  0  0  0  0  0  0  0  0
  139.1020   73.6530  222.9470 H   0  0  0  0  0  0  0  0  0  0  0  0
  139.9990   70.2989  223.5711 H   0  0  0  0  0  0  0  0  0  0  0  0
  141.4547   72.8157  225.9821 H   0  0  0  0  0  0  0  0  0  0  0  0
  141.6349   72.4754  228.4485 H   0  0  0  0  0  0  0  0  0  0  0  0
  140.6752   70.3961  229.4118 H   0  0  0  0  0  0  0  0  0  0  0  0
  1  2  2  0
  2  3  1  0
  3  4  1  0
  4  5  1  0
  5  6  1  0
  6  7  1  0
  7  8  2  0
  8  9  1  0
  9 10  2  0
 10 11  1  0
 10 12  1  0
 12 13  2  0
 13 14  1  0
  2 15  1  0
 15 16  1  0
 16 17  2  0
 17 18  1  0
 18 19  2  0
 19 20  1  0
 20 21  2  0
 21 22  1  0
 22 23  2  0
 23 24  1  0
 13  7  1  0
 23 18  1  0
  3 25  1  0
  3 26  1  0
  4 27  1  0
  4 28  1  0
  5 29  1  0
  5 30  1  0
  8 31  1  0
  9 32  1  0
 12 33  1  0
 15 34  1  0
 17 35  1  0
 19 36  1  0
 20 37  1  0
 21 38  1  0
M  END
>  <smiles>  (16) 
O=C(CCCOc1ccc(Cl)cc1Cl)NN=Cc1cccnc1F

>  <score_type>  (16) 
oracle

>  <origin>  (16) 
autodockgpu

>  <m_score__min__energy>  (16) 
-7.4000000000000004

>  <m_primary>  (16) 
energy

>  <rmsd>  (16) 
6.669480964521154

>  <m_score__min__rmsd>  (16) 
6.669480964521154

>  <meeko>  (16) 
{"free_energy": -6.08, "intermolecular_energy": -8.47, "internal_energy": -1.27, "cluster_size": 10, "cluster_id": 2, "rank_in_cluster": 8}

>  <energy>  (16) 
-6.04

>  <cluster_rmsd>  (16) 
1.97

>  <cluster>  (16) 
2

$$$$

     RDKit          3D

 38 39  0  0  1  0  0  0  0  0999 V2000
  136.4800   70.4570  222.3720 O   0  0  0  0  0  0  0  0  0  0  0  0
  137.0990   71.5280  222.5880 C   0  0  0  0  0  0  0  0  0  0  0  0
  136.6050   72.8300  222.0180 C   0  0  0  0  0  0  0  0  0  0  0  0
  137.7430   73.3700  221.1600 C   0  0  0  0  0  0  0  0  0  0  0  0
  138.5250   74.4290  221.8510 C   0  0  0  0  0  0  0  0  0  0  0  0
  139.7370   73.9740  222.2860 O   0  0  0  0  0  0  0  0  0  0  0  0
  140.9180   73.6790  221.7140 C   0  0  0  0  0  0  0  0  0  0  0  0
  141.4930   72.4410  221.5550 C   0  0  0  0  0  0  0  0  0  0  0  0
  142.7240   72.2460  220.9450 C   0  0  0  0  0  0  0  0  0  0  0  0
  143.4370   73.3180  220.4620 C   0  0  0  0  0  0  0  0  0  0  0  0
  144.9960   73.1620  219.6800 Cl  0  0  0  0  0  0  0  0  0  0  0  0
  142.8900   74.5730  220.6050 C   0  0  0  0  0  0  0  0  0  0  0  0
  141.6700   74.7570  221.2110 C   0  0  0  0  0  0  0  0  0  0  0  0
  141.0690   76.3970  221.3390 Cl  0  0  0  0  0  0  0  0  0  0  0  0
  138.2870   71.6040  223.3670 N   0  0  0  0  0  0  0  0  0  0  0  0
  138.8080   70.4180  223.9340 N   0  0  0  0  0  0  0  0  0  0  0  0
  139.9830   70.3300  224.4110 C   0  0  0  0  0  0  0  0  0  0  0  0
  140.3620   70.7130  225.7680 C   0  0  0  0  0  0  0  0  0  0  0  0
  141.0820   71.8880  226.0060 C   0  0  0  0  0  0  0  0  0  0  0  0
  141.4460   72.2640  227.2860 C   0  0  0  0  0  0  0  0  0  0  0  0
  141.0690   71.4280  228.3120 C   0  0  0  0  0  0  0  0  0  0  0  0
  140.3730   70.2900  228.0930 N   0  0  0  0  0  0  0  0  0  0  0  0
  140.0270   69.9410  226.8460 C   0  0  0  0  0  0  0  0  0  0  0  0
  139.3250   68.7800  226.7060 F   0  0  0  0  0  0  0  0  0  0  0  0
  135.7085   72.6626  221.4030 H   0  0  0  0  0  0  0  0  0  0  0  0
  136.3272   73.5386  222.8122 H   0  0  0  0  0  0  0  0  0  0  0  0
  138.4193   72.5398  220.9082 H   0  0  0  0  0  0  0  0  0  0  0  0
  137.2984   73.8175  220.2589 H   0  0  0  0  0  0  0  0  0  0  0  0
  138.6895   75.2616  221.1512 H   0  0  0  0  0  0  0  0  0  0  0  0
  137.9503   74.7535  222.7310 H   0  0  0  0  0  0  0  0  0  0  0  0
  140.9503   71.5607  221.9300 H   0  0  0  0  0  0  0  0  0  0  0  0
  143.1315   71.2289  220.8474 H   0  0  0  0  0  0  0  0  0  0  0  0
  143.4406   75.4468  220.2265 H   0  0  0  0  0  0  0  0  0  0  0  0
  138.8010   72.4970  223.5460 H   0  0  0  0  0  0  0  0  0  0  0  0
  140.7720   69.9365  223.7532 H   0  0  0  0  0  0  0  0  0  0  0  0
  141.3649   72.5270  225.1565 H   0  0  0  0  0  0  0  0  0  0  0  0
  142.0109   73.1887  227.4753 H   0  0  0  0  0  0  0  0  0  0  0  0
  141.3428   71.6943  229.3435 H   0  0  0  0  0  0  0  0  0  0  0  0
  1  2  2  0
  2  3  1  0
  3  4  1  0
  4  5  1  0
  5  6  1  0
  6  7  1  0
  7  8  2  0
  8  9  1  0
  9 10  2  0
 10 11  1  0
 10 12  1  0
 12 13  2  0
 13 14  1  0
  2 15  1  0
 15 16  1  0
 16 17  2  0
 17 18  1  0
 18 19  2  0
 19 20  1  0
 20 21  2  0
 21 22  1  0
 22 23  2  0
 23 24  1  0
 13  7  1  0
 23 18  1  0
  3 25  1  0
  3 26  1  0
  4 27  1  0
  4 28  1  0
  5 29  1  0
  5 30  1  0
  8 31  1  0
  9 32  1  0
 12 33  1  0
 15 34  1  0
 17 35  1  0
 19 36  1  0
 20 37  1  0
 21 38  1  0
M  END
>  <smiles>  (17) 
O=C(CCCOc1ccc(Cl)cc1Cl)NN=Cc1cccnc1F

>  <score_type>  (17) 
oracle

>  <origin>  (17) 
autodockgpu

>  <m_score__min__energy>  (17) 
-7.4000000000000004

>  <m_primary>  (17) 
energy

>  <rmsd>  (17) 
9.250021027094986

>  <m_score__min__rmsd>  (17) 
9.250021027094986

>  <meeko>  (17) 
{"free_energy": -5.78, "intermolecular_energy": -8.17, "internal_energy": -1.72, "cluster_size": 4, "cluster_id": 7, "rank_in_cluster": 3}

>  <energy>  (17) 
-6.03

>  <cluster_rmsd>  (17) 
1.9

>  <cluster>  (17) 
2

$$$$

     RDKit          3D

 38 39  0  0  1  0  0  0  0  0999 V2000
  138.0890   70.2120  224.9670 O   0  0  0  0  0  0  0  0  0  0  0  0
  138.5930   69.4880  224.0720 C   0  0  0  0  0  0  0  0  0  0  0  0
  138.6080   69.9420  222.6370 C   0  0  0  0  0  0  0  0  0  0  0  0
  139.9090   70.7170  222.4560 C   0  0  0  0  0  0  0  0  0  0  0  0
  139.9490   71.9610  223.2680 C   0  0  0  0  0  0  0  0  0  0  0  0
  139.8840   73.0840  222.4940 O   0  0  0  0  0  0  0  0  0  0  0  0
  140.7370   73.7600  221.7030 C   0  0  0  0  0  0  0  0  0  0  0  0
  141.8230   73.2710  221.0200 C   0  0  0  0  0  0  0  0  0  0  0  0
  142.6420   74.0600  220.2250 C   0  0  0  0  0  0  0  0  0  0  0  0
  142.3890   75.4050  220.0870 C   0  0  0  0  0  0  0  0  0  0  0  0
  143.3690   76.4730  219.1070 Cl  0  0  0  0  0  0  0  0  0  0  0  0
  141.3070   75.9280  220.7590 C   0  0  0  0  0  0  0  0  0  0  0  0
  140.5010   75.1390  221.5440 C   0  0  0  0  0  0  0  0  0  0  0  0
  139.1530   75.9100  222.3530 Cl  0  0  0  0  0  0  0  0  0  0  0  0
  139.1730   68.2160  224.3260 N   0  0  0  0  0  0  0  0  0  0  0  0
  139.1930   67.7270  225.6520 N   0  0  0  0  0  0  0  0  0  0  0  0
  140.0670   68.0680  226.5100 C   0  0  0  0  0  0  0  0  0  0  0  0
  140.3980   69.4470  226.8590 C   0  0  0  0  0  0  0  0  0  0  0  0
  141.1550   70.2410  225.9930 C   0  0  0  0  0  0  0  0  0  0  0  0
  141.4760   71.5490  226.3090 C   0  0  0  0  0  0  0  0  0  0  0  0
  141.0160   72.0290  227.5150 C   0  0  0  0  0  0  0  0  0  0  0  0
  140.2830   71.2690  228.3580 N   0  0  0  0  0  0  0  0  0  0  0  0
  139.9810   70.0030  228.0350 C   0  0  0  0  0  0  0  0  0  0  0  0
  139.2370   69.3010  228.9370 F   0  0  0  0  0  0  0  0  0  0  0  0
  138.5825   69.0745  221.9612 H   0  0  0  0  0  0  0  0  0  0  0  0
  137.7319   70.5641  222.4016 H   0  0  0  0  0  0  0  0  0  0  0  0
  140.7481   70.0725  222.7567 H   0  0  0  0  0  0  0  0  0  0  0  0
  139.9804   71.0069  221.3973 H   0  0  0  0  0  0  0  0  0  0  0  0
  139.0954   71.9589  223.9617 H   0  0  0  0  0  0  0  0  0  0  0  0
  140.9056   71.9796  223.8107 H   0  0  0  0  0  0  0  0  0  0  0  0
  142.0556   72.1994  221.1075 H   0  0  0  0  0  0  0  0  0  0  0  0
  143.4978   73.6077  219.7025 H   0  0  0  0  0  0  0  0  0  0  0  0
  141.0829   77.0009  220.6654 H   0  0  0  0  0  0  0  0  0  0  0  0
  139.5910   67.6150  223.5790 H   0  0  0  0  0  0  0  0  0  0  0  0
  140.6138   67.2659  227.0273 H   0  0  0  0  0  0  0  0  0  0  0  0
  141.5030   69.8167  225.0397 H   0  0  0  0  0  0  0  0  0  0  0  0
  142.0708   72.1763  225.6288 H   0  0  0  0  0  0  0  0  0  0  0  0
  141.2529   73.0644  227.8012 H   0  0  0  0  0  0  0  0  0  0  0  0
  1  2  2  0
  2  3  1  0
  3  4  1  0
  4  5  1  0
  5  6  1  0
  6  7  1  0
  7  8  2  0
  8  9  1  0
  9 10  2  0
 10 11  1  0
 10 12  1  0
 12 13  2  0
 13 14  1  0
  2 15  1  0
 15 16  1  0
 16 17  2  0
 17 18  1  0
 18 19  2  0
 19 20  1  0
 20 21  2  0
 21 22  1  0
 22 23  2  0
 23 24  1  0
 13  7  1  0
 23 18  1  0
  3 25  1  0
  3 26  1  0
  4 27  1  0
  4 28  1  0
  5 29  1  0
  5 30  1  0
  8 31  1  0
  9 32  1  0
 12 33  1  0
 15 34  1  0
 17 35  1  0
 19 36  1  0
 20 37  1  0
 21 38  1  0
M  END
>  <smiles>  (18) 
O=C(CCCOc1ccc(Cl)cc1Cl)NN=Cc1cccnc1F

>  <score_type>  (18) 
oracle

>  <origin>  (18) 
autodockgpu

>  <m_score__min__energy>  (18) 
-7.4000000000000004

>  <m_primary>  (18) 
energy

>  <rmsd>  (18) 
9.747408238695838

>  <m_score__min__rmsd>  (18) 
9.747408238695838

>  <meeko>  (18) 
{"free_energy": -6.71, "intermolecular_energy": -9.09, "internal_energy": -1.05, "cluster_size": 3, "cluster_id": 4, "rank_in_cluster": 1}

>  <energy>  (18) 
-6.76

>  <cluster_rmsd>  (18) 
0.0

>  <cluster>  (18) 
3

$$$$

     RDKit          3D

 38 39  0  0  1  0  0  0  0  0999 V2000
  140.5330   74.5480  219.2320 O   0  0  0  0  0  0  0  0  0  0  0  0
  140.8380   74.6330  220.4470 C   0  0  0  0  0  0  0  0  0  0  0  0
  140.0250   73.9200  221.4950 C   0  0  0  0  0  0  0  0  0  0  0  0
  140.9250   72.8200  222.0460 C   0  0  0  0  0  0  0  0  0  0  0  0
  140.1550   71.6550  222.5550 C   0  0  0  0  0  0  0  0  0  0  0  0
  139.8280   71.7900  223.8740 O   0  0  0  0  0  0  0  0  0  0  0  0
  140.1080   71.1270  225.0100 C   0  0  0  0  0  0  0  0  0  0  0  0
  140.8520   71.5630  226.0790 C   0  0  0  0  0  0  0  0  0  0  0  0
  141.0820   70.7940  227.2110 C   0  0  0  0  0  0  0  0  0  0  0  0
  140.5560   69.5270  227.3090 C   0  0  0  0  0  0  0  0  0  0  0  0
  140.7950   68.4900  228.6990 Cl  0  0  0  0  0  0  0  0  0  0  0  0
  139.8040   69.0590  226.2540 C   0  0  0  0  0  0  0  0  0  0  0  0
  139.5820   69.8270  225.1360 C   0  0  0  0  0  0  0  0  0  0  0  0
  138.6120   69.1320  223.8560 Cl  0  0  0  0  0  0  0  0  0  0  0  0
  141.9440   75.3860  220.9270 N   0  0  0  0  0  0  0  0  0  0  0  0
  142.7510   76.0820  219.9980 N   0  0  0  0  0  0  0  0  0  0  0  0
  143.5230   75.5010  219.1710 C   0  0  0  0  0  0  0  0  0  0  0  0
  144.3940   74.3750  219.4950 C   0  0  0  0  0  0  0  0  0  0  0  0
  144.8250   74.1580  220.8070 C   0  0  0  0  0  0  0  0  0  0  0  0
  145.6490   73.0950  221.1300 C   0  0  0  0  0  0  0  0  0  0  0  0
  146.0250   72.2630  220.0990 C   0  0  0  0  0  0  0  0  0  0  0  0
  145.6130   72.4640  218.8270 N   0  0  0  0  0  0  0  0  0  0  0  0
  144.8140   73.5000  218.5330 C   0  0  0  0  0  0  0  0  0  0  0  0
  144.4410   73.6350  217.2280 F   0  0  0  0  0  0  0  0  0  0  0  0
  139.7383   74.6169  222.2963 H   0  0  0  0  0  0  0  0  0  0  0  0
  139.0959   73.5083  221.0740 H   0  0  0  0  0  0  0  0  0  0  0  0
  141.5942   72.4768  221.2433 H   0  0  0  0  0  0  0  0  0  0  0  0
  141.4892   73.2421  222.8907 H   0  0  0  0  0  0  0  0  0  0  0  0
  139.2294   71.5584  221.9685 H   0  0  0  0  0  0  0  0  0  0  0  0
  140.7880   70.7611  222.4535 H   0  0  0  0  0  0  0  0  0  0  0  0
  141.2873   72.5723  226.0357 H   0  0  0  0  0  0  0  0  0  0  0  0
  141.6882   71.1999  228.0343 H   0  0  0  0  0  0  0  0  0  0  0  0
  139.3719   68.0488  226.3075 H   0  0  0  0  0  0  0  0  0  0  0  0
  142.1960   75.4560  221.9400 H   0  0  0  0  0  0  0  0  0  0  0  0
  143.5354   75.8740  218.1363 H   0  0  0  0  0  0  0  0  0  0  0  0
  144.5016   74.8480  221.6003 H   0  0  0  0  0  0  0  0  0  0  0  0
  145.9881   72.9223  222.1621 H   0  0  0  0  0  0  0  0  0  0  0  0
  146.6814   71.4077  220.3173 H   0  0  0  0  0  0  0  0  0  0  0  0
  1  2  2  0
  2  3  1  0
  3  4  1  0
  4  5  1  0
  5  6  1  0
  6  7  1  0
  7  8  2  0
  8  9  1  0
  9 10  2  0
 10 11  1  0
 10 12  1  0
 12 13  2  0
 13 14  1  0
  2 15  1  0
 15 16  1  0
 16 17  2  0
 17 18  1  0
 18 19  2  0
 19 20  1  0
 20 21  2  0
 21 22  1  0
 22 23  2  0
 23 24  1  0
 13  7  1  0
 23 18  1  0
  3 25  1  0
  3 26  1  0
  4 27  1  0
  4 28  1  0
  5 29  1  0
  5 30  1  0
  8 31  1  0
  9 32  1  0
 12 33  1  0
 15 34  1  0
 17 35  1  0
 19 36  1  0
 20 37  1  0
 21 38  1  0
M  END
>  <smiles>  (19) 
O=C(CCCOc1ccc(Cl)cc1Cl)NN=Cc1cccnc1F

>  <score_type>  (19) 
oracle

>  <origin>  (19) 
autodockgpu

>  <m_score__min__energy>  (19) 
-7.4000000000000004

>  <m_primary>  (19) 
energy

>  <rmsd>  (19) 
12.724857204656304

>  <m_score__min__rmsd>  (19) 
12.724857204656304

>  <meeko>  (19) 
{"free_energy": -6.59, "intermolecular_energy": -8.98, "internal_energy": -0.62, "cluster_size": 1, "cluster_id": 5, "rank_in_cluster": 1}

>  <energy>  (19) 
-6.62

>  <cluster_rmsd>  (19) 
1.98

>  <cluster>  (19) 
3

$$$$

     RDKit          3D

 38 39  0  0  1  0  0  0  0  0999 V2000
  140.7470   74.1290  222.3360 O   0  0  0  0  0  0  0  0  0  0  0  0
  139.7100   74.3990  221.6810 C   0  0  0  0  0  0  0  0  0  0  0  0
  139.0630   73.3600  220.8040 C   0  0  0  0  0  0  0  0  0  0  0  0
  139.7510   72.0420  221.1410 C   0  0  0  0  0  0  0  0  0  0  0  0
  138.9500   71.2010  222.0690 C   0  0  0  0  0  0  0  0  0  0  0  0
  139.0770   71.6010  223.3680 O   0  0  0  0  0  0  0  0  0  0  0  0
  139.5670   71.0640  224.4990 C   0  0  0  0  0  0  0  0  0  0  0  0
  140.6520   71.4810  225.2300 C   0  0  0  0  0  0  0  0  0  0  0  0
  141.0750   70.8520  226.3930 C   0  0  0  0  0  0  0  0  0  0  0  0
  140.4020   69.7520  226.8710 C   0  0  0  0  0  0  0  0  0  0  0  0
  140.8660   68.8980  228.3270 Cl  0  0  0  0  0  0  0  0  0  0  0  0
  139.3080   69.3080  226.1620 C   0  0  0  0  0  0  0  0  0  0  0  0
  138.8970   69.9370  225.0120 C   0  0  0  0  0  0  0  0  0  0  0  0
  137.4940   69.2860  224.1910 Cl  0  0  0  0  0  0  0  0  0  0  0  0
  139.0740   75.6700  221.7070 N   0  0  0  0  0  0  0  0  0  0  0  0
  139.6280   76.6940  222.5100 N   0  0  0  0  0  0  0  0  0  0  0  0
  140.6890   77.3240  222.2050 C   0  0  0  0  0  0  0  0  0  0  0  0
  141.0790   78.6170  222.7600 C   0  0  0  0  0  0  0  0  0  0  0  0
  142.4100   79.0410  222.7210 C   0  0  0  0  0  0  0  0  0  0  0  0
  142.7940   80.2630  223.2430 C   0  0  0  0  0  0  0  0  0  0  0  0
  141.8050   81.0400  223.8020 C   0  0  0  0  0  0  0  0  0  0  0  0
  140.5140   80.6400  223.8440 N   0  0  0  0  0  0  0  0  0  0  0  0
  140.1600   79.4520  223.3330 C   0  0  0  0  0  0  0  0  0  0  0  0
  138.8400   79.1190  223.4140 F   0  0  0  0  0  0  0  0  0  0  0  0
  137.9860   73.2952  221.0183 H   0  0  0  0  0  0  0  0  0  0  0  0
  139.1678   73.6093  219.7378 H   0  0  0  0  0  0  0  0  0  0  0  0
  139.9142   71.4811  220.2089 H   0  0  0  0  0  0  0  0  0  0  0  0
  140.7008   72.2801  221.6422 H   0  0  0  0  0  0  0  0  0  0  0  0
  137.8905   71.2657  221.7805 H   0  0  0  0  0  0  0  0  0  0  0  0
  139.3228   70.1687  221.9958 H   0  0  0  0  0  0  0  0  0  0  0  0
  141.2144   72.3577  224.8762 H   0  0  0  0  0  0  0  0  0  0  0  0
  141.9524   71.2351  226.9347 H   0  0  0  0  0  0  0  0  0  0  0  0
  138.7515   68.4311  226.5243 H   0  0  0  0  0  0  0  0  0  0  0  0
  138.2110   75.8930  221.1610 H   0  0  0  0  0  0  0  0  0  0  0  0
  141.3628   76.8612  221.4690 H   0  0  0  0  0  0  0  0  0  0  0  0
  143.1692   78.3885  222.2650 H   0  0  0  0  0  0  0  0  0  0  0  0
  143.8412   80.5983  223.2128 H   0  0  0  0  0  0  0  0  0  0  0  0
  142.0734   82.0179  224.2283 H   0  0  0  0  0  0  0  0  0  0  0  0
  1  2  2  0
  2  3  1  0
  3  4  1  0
  4  5  1  0
  5  6  1  0
  6  7  1  0
  7  8  2  0
  8  9  1  0
  9 10  2  0
 10 11  1  0
 10 12  1  0
 12 13  2  0
 13 14  1  0
  2 15  1  0
 15 16  1  0
 16 17  2  0
 17 18  1  0
 18 19  2  0
 19 20  1  0
 20 21  2  0
 21 22  1  0
 22 23  2  0
 23 24  1  0
 13  7  1  0
 23 18  1  0
  3 25  1  0
  3 26  1  0
  4 27  1  0
  4 28  1  0
  5 29  1  0
  5 30  1  0
  8 31  1  0
  9 32  1  0
 12 33  1  0
 15 34  1  0
 17 35  1  0
 19 36  1  0
 20 37  1  0
 21 38  1  0
M  END
>  <smiles>  (20) 
O=C(CCCOc1ccc(Cl)cc1Cl)NN=Cc1cccnc1F

>  <score_type>  (20) 
oracle

>  <origin>  (20) 
autodockgpu

>  <m_score__min__energy>  (20) 
-7.4000000000000004

>  <m_primary>  (20) 
energy

>  <rmsd>  (20) 
12.644060352726132

>  <m_score__min__rmsd>  (20) 
12.644060352726132

>  <meeko>  (20) 
{"free_energy": -6.52, "intermolecular_energy": -8.91, "internal_energy": -0.53, "cluster_size": 7, "cluster_id": 1, "rank_in_cluster": 6}

>  <energy>  (20) 
-6.61

>  <cluster_rmsd>  (20) 
1.76

>  <cluster>  (20) 
3

$$$$

     RDKit          3D

 38 39  0  0  1  0  0  0  0  0999 V2000
  138.5660   70.5350  221.0370 O   0  0  0  0  0  0  0  0  0  0  0  0
  138.3870   71.6170  221.6490 C   0  0  0  0  0  0  0  0  0  0  0  0
  137.4000   72.6330  221.1400 C   0  0  0  0  0  0  0  0  0  0  0  0
  137.6160   73.8860  221.9820 C   0  0  0  0  0  0  0  0  0  0  0  0
  138.7490   74.7140  221.4920 C   0  0  0  0  0  0  0  0  0  0  0  0
  139.9480   74.2950  221.9930 O   0  0  0  0  0  0  0  0  0  0  0  0
  141.1420   73.9510  221.4780 C   0  0  0  0  0  0  0  0  0  0  0  0
  141.7090   72.7010  221.4230 C   0  0  0  0  0  0  0  0  0  0  0  0
  142.9540   72.4530  220.8640 C   0  0  0  0  0  0  0  0  0  0  0  0
  143.6910   73.4820  220.3260 C   0  0  0  0  0  0  0  0  0  0  0  0
  145.2690   73.2600  219.6010 Cl  0  0  0  0  0  0  0  0  0  0  0  0
  143.1510   74.7490  220.3640 C   0  0  0  0  0  0  0  0  0  0  0  0
  141.9170   74.9850  220.9200 C   0  0  0  0  0  0  0  0  0  0  0  0
  141.3290   76.6340  220.9130 Cl  0  0  0  0  0  0  0  0  0  0  0  0
  139.0790   71.9690  222.8400 N   0  0  0  0  0  0  0  0  0  0  0  0
  140.0220   71.0610  223.3750 N   0  0  0  0  0  0  0  0  0  0  0  0
  139.8100   70.3670  224.4190 C   0  0  0  0  0  0  0  0  0  0  0  0
  140.2500   70.7300  225.7630 C   0  0  0  0  0  0  0  0  0  0  0  0
  140.9890   71.8970  225.9830 C   0  0  0  0  0  0  0  0  0  0  0  0
  141.4120   72.2540  227.2510 C   0  0  0  0  0  0  0  0  0  0  0  0
  141.0730   71.4080  228.2820 C   0  0  0  0  0  0  0  0  0  0  0  0
  140.3590   70.2780  228.0800 N   0  0  0  0  0  0  0  0  0  0  0  0
  139.9570   69.9480  226.8440 C   0  0  0  0  0  0  0  0  0  0  0  0
  139.2400   68.7940  226.7220 F   0  0  0  0  0  0  0  0  0  0  0  0
  137.5872   72.8491  220.0778 H   0  0  0  0  0  0  0  0  0  0  0  0
  136.3660   72.2663  221.2205 H   0  0  0  0  0  0  0  0  0  0  0  0
  136.6985   74.4921  221.9540 H   0  0  0  0  0  0  0  0  0  0  0  0
  137.8569   73.5629  223.0055 H   0  0  0  0  0  0  0  0  0  0  0  0
  138.7831   74.6537  220.3942 H   0  0  0  0  0  0  0  0  0  0  0  0
  138.5837   75.7473  221.8310 H   0  0  0  0  0  0  0  0  0  0  0  0
  141.1473   71.8539  221.8435 H   0  0  0  0  0  0  0  0  0  0  0  0
  143.3538   71.4283  220.8509 H   0  0  0  0  0  0  0  0  0  0  0  0
  143.7200   75.5896  219.9401 H   0  0  0  0  0  0  0  0  0  0  0  0
  138.9290   72.8700  223.3480 H   0  0  0  0  0  0  0  0  0  0  0  0
  139.2548   69.4247  224.3011 H   0  0  0  0  0  0  0  0  0  0  0  0
  141.2392   72.5447  225.1298 H   0  0  0  0  0  0  0  0  0  0  0  0
  141.9925   73.1717  227.4269 H   0  0  0  0  0  0  0  0  0  0  0  0
  141.3934   71.6594  229.3038 H   0  0  0  0  0  0  0  0  0  0  0  0
  1  2  2  0
  2  3  1  0
  3  4  1  0
  4  5  1  0
  5  6  1  0
  6  7  1  0
  7  8  2  0
  8  9  1  0
  9 10  2  0
 10 11  1  0
 10 12  1  0
 12 13  2  0
 13 14  1  0
  2 15  1  0
 15 16  1  0
 16 17  2  0
 17 18  1  0
 18 19  2  0
 19 20  1  0
 20 21  2  0
 21 22  1  0
 22 23  2  0
 23 24  1  0
 13  7  1  0
 23 18  1  0
  3 25  1  0
  3 26  1  0
  4 27  1  0
  4 28  1  0
  5 29  1  0
  5 30  1  0
  8 31  1  0
  9 32  1  0
 12 33  1  0
 15 34  1  0
 17 35  1  0
 19 36  1  0
 20 37  1  0
 21 38  1  0
M  END
>  <smiles>  (21) 
O=C(CCCOc1ccc(Cl)cc1Cl)NN=Cc1cccnc1F

>  <score_type>  (21) 
oracle

>  <origin>  (21) 
autodockgpu

>  <m_score__min__energy>  (21) 
-7.4000000000000004

>  <m_primary>  (21) 
energy

>  <rmsd>  (21) 
9.021659161971861

>  <m_score__min__rmsd>  (21) 
9.021659161971861

>  <meeko>  (21) 
{"free_energy": -5.98, "intermolecular_energy": -8.37, "internal_energy": -1.54, "cluster_size": 4, "cluster_id": 7, "rank_in_cluster": 2}

>  <energy>  (21) 
-6.61

>  <cluster_rmsd>  (21) 
0.66

>  <cluster>  (21) 
3

$$$$

     RDKit          3D

 38 39  0  0  1  0  0  0  0  0999 V2000
  139.7720   71.3980  220.9700 O   0  0  0  0  0  0  0  0  0  0  0  0
  139.3180   72.4930  221.3860 C   0  0  0  0  0  0  0  0  0  0  0  0
  138.4490   73.3500  220.5050 C   0  0  0  0  0  0  0  0  0  0  0  0
  137.2260   73.7050  221.3420 C   0  0  0  0  0  0  0  0  0  0  0  0
  137.3620   75.0200  222.0220 C   0  0  0  0  0  0  0  0  0  0  0  0
  138.5850   75.5870  221.8070 O   0  0  0  0  0  0  0  0  0  0  0  0
  139.2110   76.7090  222.2040 C   0  0  0  0  0  0  0  0  0  0  0  0
  138.6630   77.8080  222.8190 C   0  0  0  0  0  0  0  0  0  0  0  0
  139.4040   78.9220  223.1900 C   0  0  0  0  0  0  0  0  0  0  0  0
  140.7570   78.9670  222.9500 C   0  0  0  0  0  0  0  0  0  0  0  0
  141.7660   80.3300  223.3850 Cl  0  0  0  0  0  0  0  0  0  0  0  0
  141.3390   77.8810  222.3350 C   0  0  0  0  0  0  0  0  0  0  0  0
  140.5970   76.7830  221.9700 C   0  0  0  0  0  0  0  0  0  0  0  0
  141.4410   75.4580  221.1950 Cl  0  0  0  0  0  0  0  0  0  0  0  0
  139.5780   73.0060  222.6870 N   0  0  0  0  0  0  0  0  0  0  0  0
  140.3880   72.2530  223.5680 N   0  0  0  0  0  0  0  0  0  0  0  0
  139.9760   71.2210  224.1860 C   0  0  0  0  0  0  0  0  0  0  0  0
  140.2710   70.9150  225.5830 C   0  0  0  0  0  0  0  0  0  0  0  0
  140.8350   71.8790  226.4240 C   0  0  0  0  0  0  0  0  0  0  0  0
  141.1190   71.6040  227.7490 C   0  0  0  0  0  0  0  0  0  0  0  0
  140.8210   70.3380  228.2000 C   0  0  0  0  0  0  0  0  0  0  0  0
  140.2740   69.3990  227.3960 N   0  0  0  0  0  0  0  0  0  0  0  0
  140.0050   69.6830  226.1130 C   0  0  0  0  0  0  0  0  0  0  0  0
  139.4550   68.6840  225.3670 F   0  0  0  0  0  0  0  0  0  0  0  0
  138.9872   74.2622  220.2080 H   0  0  0  0  0  0  0  0  0  0  0  0
  138.1669   72.8234  219.5814 H   0  0  0  0  0  0  0  0  0  0  0  0
  136.3456   73.7382  220.6833 H   0  0  0  0  0  0  0  0  0  0  0  0
  137.1203   72.9358  222.1212 H   0  0  0  0  0  0  0  0  0  0  0  0
  136.5848   75.6984  221.6402 H   0  0  0  0  0  0  0  0  0  0  0  0
  137.2519   74.8540  223.1038 H   0  0  0  0  0  0  0  0  0  0  0  0
  137.5831   77.8055  223.0281 H   0  0  0  0  0  0  0  0  0  0  0  0
  138.9062   79.7727  223.6783 H   0  0  0  0  0  0  0  0  0  0  0  0
  142.4200   77.8924  222.1317 H   0  0  0  0  0  0  0  0  0  0  0  0
  139.2000   73.9180  223.0320 H   0  0  0  0  0  0  0  0  0  0  0  0
  139.3523   70.5071  223.6280 H   0  0  0  0  0  0  0  0  0  0  0  0
  141.0578   72.8786  226.0226 H   0  0  0  0  0  0  0  0  0  0  0  0
  141.5624   72.3616  228.4119 H   0  0  0  0  0  0  0  0  0  0  0  0
  141.0348   70.0822  229.2483 H   0  0  0  0  0  0  0  0  0  0  0  0
  1  2  2  0
  2  3  1  0
  3  4  1  0
  4  5  1  0
  5  6  1  0
  6  7  1  0
  7  8  2  0
  8  9  1  0
  9 10  2  0
 10 11  1  0
 10 12  1  0
 12 13  2  0
 13 14  1  0
  2 15  1  0
 15 16  1  0
 16 17  2  0
 17 18  1  0
 18 19  2  0
 19 20  1  0
 20 21  2  0
 21 22  1  0
 22 23  2  0
 23 24  1  0
 13  7  1  0
 23 18  1  0
  3 25  1  0
  3 26  1  0
  4 27  1  0
  4 28  1  0
  5 29  1  0
  5 30  1  0
  8 31  1  0
  9 32  1  0
 12 33  1  0
 15 34  1  0
 17 35  1  0
 19 36  1  0
 20 37  1  0
 21 38  1  0
M  END
>  <smiles>  (22) 
O=C(CCCOc1ccc(Cl)cc1Cl)NN=Cc1cccnc1F

>  <score_type>  (22) 
oracle

>  <origin>  (22) 
autodockgpu

>  <m_score__min__energy>  (22) 
-7.4000000000000004

>  <m_primary>  (22) 
energy

>  <rmsd>  (22) 
6.612237703929782

>  <m_score__min__rmsd>  (22) 
6.612237703929782

>  <meeko>  (22) 
{"free_energy": -6.04, "intermolecular_energy": -8.42, "internal_energy": -1.55, "cluster_size": 10, "cluster_id": 2, "rank_in_cluster": 9}

>  <energy>  (22) 
-6.43

>  <cluster_rmsd>  (22) 
1.99

>  <cluster>  (22) 
3

$$$$

     RDKit          3D

 38 39  0  0  1  0  0  0  0  0999 V2000
  141.9670   72.1520  221.3670 O   0  0  0  0  0  0  0  0  0  0  0  0
  140.9320   72.8310  221.5800 C   0  0  0  0  0  0  0  0  0  0  0  0
  140.3950   73.7640  220.5280 C   0  0  0  0  0  0  0  0  0  0  0  0
  138.9070   73.4530  220.4130 C   0  0  0  0  0  0  0  0  0  0  0  0
  138.0520   74.5640  220.9090 C   0  0  0  0  0  0  0  0  0  0  0  0
  138.5550   75.1330  222.0440 O   0  0  0  0  0  0  0  0  0  0  0  0
  139.2180   76.2650  222.3430 C   0  0  0  0  0  0  0  0  0  0  0  0
  140.5760   76.4690  222.3540 C   0  0  0  0  0  0  0  0  0  0  0  0
  141.1600   77.6860  222.6790 C   0  0  0  0  0  0  0  0  0  0  0  0
  140.3770   78.7660  223.0110 C   0  0  0  0  0  0  0  0  0  0  0  0
  141.0300   80.3340  223.4330 Cl  0  0  0  0  0  0  0  0  0  0  0  0
  139.0110   78.5950  223.0090 C   0  0  0  0  0  0  0  0  0  0  0  0
  138.4400   77.3870  222.6870 C   0  0  0  0  0  0  0  0  0  0  0  0
  136.6930   77.2840  222.7170 Cl  0  0  0  0  0  0  0  0  0  0  0  0
  140.1990   72.7830  222.7970 N   0  0  0  0  0  0  0  0  0  0  0  0
  140.6470   71.9280  223.8310 N   0  0  0  0  0  0  0  0  0  0  0  0
  139.8620   71.2600  224.5750 C   0  0  0  0  0  0  0  0  0  0  0  0
  140.2200   70.7080  225.8790 C   0  0  0  0  0  0  0  0  0  0  0  0
  140.7290   71.5290  226.8880 C   0  0  0  0  0  0  0  0  0  0  0  0
  141.0720   71.0210  228.1280 C   0  0  0  0  0  0  0  0  0  0  0  0
  140.8890   69.6700  228.3200 C   0  0  0  0  0  0  0  0  0  0  0  0
  140.3960   68.8670  227.3500 N   0  0  0  0  0  0  0  0  0  0  0  0
  140.0690   69.3780  226.1540 C   0  0  0  0  0  0  0  0  0  0  0  0
  139.5790   68.5040  225.2290 F   0  0  0  0  0  0  0  0  0  0  0  0
  140.5447   74.8104  220.8324 H   0  0  0  0  0  0  0  0  0  0  0  0
  140.9113   73.6279  219.5663 H   0  0  0  0  0  0  0  0  0  0  0  0
  138.6662   73.2678  219.3558 H   0  0  0  0  0  0  0  0  0  0  0  0
  138.7014   72.5700  221.0359 H   0  0  0  0  0  0  0  0  0  0  0  0
  137.9827   75.3344  220.1269 H   0  0  0  0  0  0  0  0  0  0  0  0
  137.0623   74.1481  221.1489 H   0  0  0  0  0  0  0  0  0  0  0  0
  141.2335   75.6268  222.0925 H   0  0  0  0  0  0  0  0  0  0  0  0
  142.2554   77.7865  222.6708 H   0  0  0  0  0  0  0  0  0  0  0  0
  138.3623   79.4439  223.2709 H   0  0  0  0  0  0  0  0  0  0  0  0
  139.3380   73.3500  222.9740 H   0  0  0  0  0  0  0  0  0  0  0  0
  138.8391   71.0850  224.2103 H   0  0  0  0  0  0  0  0  0  0  0  0
  140.8600   72.6035  226.6921 H   0  0  0  0  0  0  0  0  0  0  0  0
  141.4724   71.6664  228.9237 H   0  0  0  0  0  0  0  0  0  0  0  0
  141.1521   69.2299  229.2932 H   0  0  0  0  0  0  0  0  0  0  0  0
  1  2  2  0
  2  3  1  0
  3  4  1  0
  4  5  1  0
  5  6  1  0
  6  7  1  0
  7  8  2  0
  8  9  1  0
  9 10  2  0
 10 11  1  0
 10 12  1  0
 12 13  2  0
 13 14  1  0
  2 15  1  0
 15 16  1  0
 16 17  2  0
 17 18  1  0
 18 19  2  0
 19 20  1  0
 20 21  2  0
 21 22  1  0
 22 23  2  0
 23 24  1  0
 13  7  1  0
 23 18  1  0
  3 25  1  0
  3 26  1  0
  4 27  1  0
  4 28  1  0
  5 29  1  0
  5 30  1  0
  8 31  1  0
  9 32  1  0
 12 33  1  0
 15 34  1  0
 17 35  1  0
 19 36  1  0
 20 37  1  0
 21 38  1  0
M  END
>  <smiles>  (23) 
O=C(CCCOc1ccc(Cl)cc1Cl)NN=Cc1cccnc1F

>  <score_type>  (23) 
oracle

>  <origin>  (23) 
autodockgpu

>  <m_score__min__energy>  (23) 
-7.4000000000000004

>  <m_primary>  (23) 
energy

>  <rmsd>  (23) 
7.097700922590939

>  <m_score__min__rmsd>  (23) 
7.097700922590939

>  <meeko>  (23) 
{"free_energy": -5.89, "intermolecular_energy": -8.28, "internal_energy": -1.47, "cluster_size": 9, "cluster_id": 3, "rank_in_cluster": 9}

>  <energy>  (23) 
-6.41

>  <cluster_rmsd>  (23) 
1.75

>  <cluster>  (23) 
3

$$$$

     RDKit          3D

 38 39  0  0  1  0  0  0  0  0999 V2000
  140.2050   73.7600  222.3220 O   0  0  0  0  0  0  0  0  0  0  0  0
  140.2880   74.6600  221.4480 C   0  0  0  0  0  0  0  0  0  0  0  0
  141.1310   74.4600  220.2180 C   0  0  0  0  0  0  0  0  0  0  0  0
  142.1700   75.5760  220.2370 C   0  0  0  0  0  0  0  0  0  0  0  0
  141.8290   76.6900  219.3140 C   0  0  0  0  0  0  0  0  0  0  0  0
  141.2040   77.7190  219.9570 O   0  0  0  0  0  0  0  0  0  0  0  0
  141.4890   78.5190  221.0000 C   0  0  0  0  0  0  0  0  0  0  0  0
  141.5100   78.1910  222.3330 C   0  0  0  0  0  0  0  0  0  0  0  0
  141.8200   79.0990  223.3360 C   0  0  0  0  0  0  0  0  0  0  0  0
  142.1280   80.4020  223.0220 C   0  0  0  0  0  0  0  0  0  0  0  0
  142.5300   81.6110  224.2230 Cl  0  0  0  0  0  0  0  0  0  0  0  0
  142.1160   80.7640  221.6940 C   0  0  0  0  0  0  0  0  0  0  0  0
  141.8070   79.8590  220.7080 C   0  0  0  0  0  0  0  0  0  0  0  0
  141.8230   80.4290  219.0520 Cl  0  0  0  0  0  0  0  0  0  0  0  0
  139.6140   75.9080  221.5420 N   0  0  0  0  0  0  0  0  0  0  0  0
  138.8040   76.1630  222.6730 N   0  0  0  0  0  0  0  0  0  0  0  0
  137.9240   77.0800  222.7100 C   0  0  0  0  0  0  0  0  0  0  0  0
  138.1850   78.4950  222.4610 C   0  0  0  0  0  0  0  0  0  0  0  0
  138.4120   79.3780  223.5210 C   0  0  0  0  0  0  0  0  0  0  0  0
  138.6620   80.7210  223.3010 C   0  0  0  0  0  0  0  0  0  0  0  0
  138.6740   81.1450  221.9910 C   0  0  0  0  0  0  0  0  0  0  0  0
  138.4550   80.3000  220.9600 N   0  0  0  0  0  0  0  0  0  0  0  0
  138.2160   79.0010  221.1920 C   0  0  0  0  0  0  0  0  0  0  0  0
  138.0060   78.2120  220.1000 F   0  0  0  0  0  0  0  0  0  0  0  0
  141.6245   73.4773  220.2480 H   0  0  0  0  0  0  0  0  0  0  0  0
  140.5225   74.4905  219.3022 H   0  0  0  0  0  0  0  0  0  0  0  0
  142.2401   75.9748  221.2598 H   0  0  0  0  0  0  0  0  0  0  0  0
  143.1260   75.1469  219.9025 H   0  0  0  0  0  0  0  0  0  0  0  0
  142.7556   77.0681  218.8575 H   0  0  0  0  0  0  0  0  0  0  0  0
  141.1385   76.2984  218.5525 H   0  0  0  0  0  0  0  0  0  0  0  0
  141.2691   77.1569  222.6205 H   0  0  0  0  0  0  0  0  0  0  0  0
  141.8193   78.7748  224.3871 H   0  0  0  0  0  0  0  0  0  0  0  0
  142.3591   81.8003  221.4164 H   0  0  0  0  0  0  0  0  0  0  0  0
  139.6850   76.6560  220.8150 H   0  0  0  0  0  0  0  0  0  0  0  0
  136.8908   76.7860  222.9468 H   0  0  0  0  0  0  0  0  0  0  0  0
  138.3914   78.9966  224.5526 H   0  0  0  0  0  0  0  0  0  0  0  0
  138.8426   81.4171  224.1333 H   0  0  0  0  0  0  0  0  0  0  0  0
  138.8682   82.2064  221.7770 H   0  0  0  0  0  0  0  0  0  0  0  0
  1  2  2  0
  2  3  1  0
  3  4  1  0
  4  5  1  0
  5  6  1  0
  6  7  1  0
  7  8  2  0
  8  9  1  0
  9 10  2  0
 10 11  1  0
 10 12  1  0
 12 13  2  0
 13 14  1  0
  2 15  1  0
 15 16  1  0
 16 17  2  0
 17 18  1  0
 18 19  2  0
 19 20  1  0
 20 21  2  0
 21 22  1  0
 22 23  2  0
 23 24  1  0
 13  7  1  0
 23 18  1  0
  3 25  1  0
  3 26  1  0
  4 27  1  0
  4 28  1  0
  5 29  1  0
  5 30  1  0
  8 31  1  0
  9 32  1  0
 12 33  1  0
 15 34  1  0
 17 35  1  0
 19 36  1  0
 20 37  1  0
 21 38  1  0
M  END
>  <smiles>  (24) 
O=C(CCCOc1ccc(Cl)cc1Cl)NN=Cc1cccnc1F

>  <score_type>  (24) 
oracle

>  <origin>  (24) 
autodockgpu

>  <m_score__min__energy>  (24) 
-7.4000000000000004

>  <m_primary>  (24) 
energy

>  <rmsd>  (24) 
5.591612954333829

>  <m_score__min__rmsd>  (24) 
5.591612954333829

>  <meeko>  (24) 
{"free_energy": -4.48, "intermolecular_energy": -6.86, "internal_energy": -2.92, "cluster_size": 2, "cluster_id": 12, "rank_in_cluster": 1}

>  <energy>  (24) 
-6.4

>  <cluster_rmsd>  (24) 
1.92

>  <cluster>  (24) 
3

$$$$

     RDKit          3D

 38 39  0  0  1  0  0  0  0  0999 V2000
  139.1670   78.9230  222.9290 O   0  0  0  0  0  0  0  0  0  0  0  0
  139.7370   77.9070  222.4600 C   0  0  0  0  0  0  0  0  0  0  0  0
  139.0170   76.9930  221.5060 C   0  0  0  0  0  0  0  0  0  0  0  0
  138.6450   75.7540  222.3130 C   0  0  0  0  0  0  0  0  0  0  0  0
  139.4790   74.5750  221.9640 C   0  0  0  0  0  0  0  0  0  0  0  0
  140.7530   74.9280  221.6210 O   0  0  0  0  0  0  0  0  0  0  0  0
  141.8130   74.3040  221.0770 C   0  0  0  0  0  0  0  0  0  0  0  0
  142.1810   72.9880  221.2170 C   0  0  0  0  0  0  0  0  0  0  0  0
  143.3020   72.4410  220.6070 C   0  0  0  0  0  0  0  0  0  0  0  0
  144.1100   73.2210  219.8140 C   0  0  0  0  0  0  0  0  0  0  0  0
  145.5410   72.6140  219.0080 Cl  0  0  0  0  0  0  0  0  0  0  0  0
  143.7700   74.5460  219.6520 C   0  0  0  0  0  0  0  0  0  0  0  0
  142.6590   75.0790  220.2600 C   0  0  0  0  0  0  0  0  0  0  0  0
  142.3210   76.7740  219.9850 Cl  0  0  0  0  0  0  0  0  0  0  0  0
  141.0730   77.5410  222.7800 N   0  0  0  0  0  0  0  0  0  0  0  0
  141.8100   78.3550  223.6710 N   0  0  0  0  0  0  0  0  0  0  0  0
  142.5280   79.3330  223.2920 C   0  0  0  0  0  0  0  0  0  0  0  0
  142.0860   80.3890  222.3860 C   0  0  0  0  0  0  0  0  0  0  0  0
  141.9080   80.1330  221.0230 C   0  0  0  0  0  0  0  0  0  0  0  0
  141.4890   81.1230  220.1520 C   0  0  0  0  0  0  0  0  0  0  0  0
  141.2580   82.3690  220.6900 C   0  0  0  0  0  0  0  0  0  0  0  0
  141.4270   82.6260  222.0060 N   0  0  0  0  0  0  0  0  0  0  0  0
  141.8330   81.6540  222.8360 C   0  0  0  0  0  0  0  0  0  0  0  0
  141.9810   81.9920  224.1490 F   0  0  0  0  0  0  0  0  0  0  0  0
  138.1117   77.4823  221.1173 H   0  0  0  0  0  0  0  0  0  0  0  0
  139.6458   76.7369  220.6405 H   0  0  0  0  0  0  0  0  0  0  0  0
  138.7785   75.9763  223.3820 H   0  0  0  0  0  0  0  0  0  0  0  0
  137.5996   75.5045  222.0788 H   0  0  0  0  0  0  0  0  0  0  0  0
  139.5198   73.9004  222.8319 H   0  0  0  0  0  0  0  0  0  0  0  0
  139.0196   74.0815  221.0949 H   0  0  0  0  0  0  0  0  0  0  0  0
  141.5563   72.3347  221.8438 H   0  0  0  0  0  0  0  0  0  0  0  0
  143.5447   71.3789  220.7589 H   0  0  0  0  0  0  0  0  0  0  0  0
  144.4011   75.1909  219.0228 H   0  0  0  0  0  0  0  0  0  0  0  0
  141.5470   76.6940  222.3890 H   0  0  0  0  0  0  0  0  0  0  0  0
  143.5578   79.3877  223.6747 H   0  0  0  0  0  0  0  0  0  0  0  0
  142.1053   79.1229  220.6348 H   0  0  0  0  0  0  0  0  0  0  0  0
  141.3470   80.9238  219.0795 H   0  0  0  0  0  0  0  0  0  0  0  0
  140.9252   83.1815  220.0274 H   0  0  0  0  0  0  0  0  0  0  0  0
  1  2  2  0
  2  3  1  0
  3  4  1  0
  4  5  1  0
  5  6  1  0
  6  7  1  0
  7  8  2  0
  8  9  1  0
  9 10  2  0
 10 11  1  0
 10 12  1  0
 12 13  2  0
 13 14  1  0
  2 15  1  0
 15 16  1  0
 16 17  2  0
 17 18  1  0
 18 19  2  0
 19 20  1  0
 20 21  2  0
 21 22  1  0
 22 23  2  0
 23 24  1  0
 13  7  1  0
 23 18  1  0
  3 25  1  0
  3 26  1  0
  4 27  1  0
  4 28  1  0
  5 29  1  0
  5 30  1  0
  8 31  1  0
  9 32  1  0
 12 33  1  0
 15 34  1  0
 17 35  1  0
 19 36  1  0
 20 37  1  0
 21 38  1  0
M  END
>  <smiles>  (25) 
O=C(CCCOc1ccc(Cl)cc1Cl)NN=Cc1cccnc1F

>  <score_type>  (25) 
oracle

>  <origin>  (25) 
autodockgpu

>  <m_score__min__energy>  (25) 
-7.4000000000000004

>  <m_primary>  (25) 
energy

>  <rmsd>  (25) 
9.334210944502782

>  <m_score__min__rmsd>  (25) 
9.334210944502782

>  <meeko>  (25) 
{"free_energy": -5.23, "intermolecular_energy": -7.62, "internal_energy": -1.99, "cluster_size": 1, "cluster_id": 11, "rank_in_cluster": 1}

>  <energy>  (25) 
-6.11

>  <cluster_rmsd>  (25) 
1.6

>  <cluster>  (25) 
3

$$$$

     RDKit          3D

 38 39  0  0  1  0  0  0  0  0999 V2000
  139.4240   74.4800  222.3280 O   0  0  0  0  0  0  0  0  0  0  0  0
  140.5480   74.5370  221.7690 C   0  0  0  0  0  0  0  0  0  0  0  0
  141.0300   73.4110  220.8950 C   0  0  0  0  0  0  0  0  0  0  0  0
  141.1910   72.2060  221.8160 C   0  0  0  0  0  0  0  0  0  0  0  0
  139.8930   71.5650  222.1500 C   0  0  0  0  0  0  0  0  0  0  0  0
  139.5740   71.7040  223.4700 O   0  0  0  0  0  0  0  0  0  0  0  0
  139.9150   71.0860  224.6150 C   0  0  0  0  0  0  0  0  0  0  0  0
  140.7950   71.5180  225.5770 C   0  0  0  0  0  0  0  0  0  0  0  0
  141.0770   70.7990  226.7300 C   0  0  0  0  0  0  0  0  0  0  0  0
  140.4650   69.5890  226.9600 C   0  0  0  0  0  0  0  0  0  0  0  0
  140.7620   68.6170  228.3860 Cl  0  0  0  0  0  0  0  0  0  0  0  0
  139.5760   69.1260  226.0160 C   0  0  0  0  0  0  0  0  0  0  0  0
  139.3040   69.8450  224.8770 C   0  0  0  0  0  0  0  0  0  0  0  0
  138.1570   69.1620  223.7440 Cl  0  0  0  0  0  0  0  0  0  0  0  0
  141.4390   75.6370  221.9100 N   0  0  0  0  0  0  0  0  0  0  0  0
  141.0500   76.7310  222.7170 N   0  0  0  0  0  0  0  0  0  0  0  0
  140.8090   77.8900  222.2550 C   0  0  0  0  0  0  0  0  0  0  0  0
  141.2930   79.1370  222.8400 C   0  0  0  0  0  0  0  0  0  0  0  0
  142.6630   79.4050  222.9220 C   0  0  0  0  0  0  0  0  0  0  0  0
  143.1370   80.5820  223.4720 C   0  0  0  0  0  0  0  0  0  0  0  0
  142.1970   81.4750  223.9350 C   0  0  0  0  0  0  0  0  0  0  0  0
  140.8710   81.2260  223.8600 N   0  0  0  0  0  0  0  0  0  0  0  0
  140.4300   80.0800  223.3230 C   0  0  0  0  0  0  0  0  0  0  0  0
  139.0780   79.9030  223.2820 F   0  0  0  0  0  0  0  0  0  0  0  0
  140.2926   73.1951  220.1079 H   0  0  0  0  0  0  0  0  0  0  0  0
  141.9756   73.6653  220.3938 H   0  0  0  0  0  0  0  0  0  0  0  0
  141.8321   71.4644  221.3171 H   0  0  0  0  0  0  0  0  0  0  0  0
  141.6383   72.5622  222.7557 H   0  0  0  0  0  0  0  0  0  0  0  0
  139.1018   72.0299  221.5435 H   0  0  0  0  0  0  0  0  0  0  0  0
  139.9822   70.4898  221.9354 H   0  0  0  0  0  0  0  0  0  0  0  0
  141.3018   72.4825  225.4259 H   0  0  0  0  0  0  0  0  0  0  0  0
  141.7931   71.1986  227.4631 H   0  0  0  0  0  0  0  0  0  0  0  0
  139.0733   68.1609  226.1769 H   0  0  0  0  0  0  0  0  0  0  0  0
  142.3740   75.6830  221.4450 H   0  0  0  0  0  0  0  0  0  0  0  0
  140.1905   77.9587  221.3480 H   0  0  0  0  0  0  0  0  0  0  0  0
  143.3798   78.6629  222.5404 H   0  0  0  0  0  0  0  0  0  0  0  0
  144.2143   80.7947  223.5365 H   0  0  0  0  0  0  0  0  0  0  0  0
  142.5364   82.4218  224.3804 H   0  0  0  0  0  0  0  0  0  0  0  0
  1  2  2  0
  2  3  1  0
  3  4  1  0
  4  5  1  0
  5  6  1  0
  6  7  1  0
  7  8  2  0
  8  9  1  0
  9 10  2  0
 10 11  1  0
 10 12  1  0
 12 13  2  0
 13 14  1  0
  2 15  1  0
 15 16  1  0
 16 17  2  0
 17 18  1  0
 18 19  2  0
 19 20  1  0
 20 21  2  0
 21 22  1  0
 22 23  2  0
 23 24  1  0
 13  7  1  0
 23 18  1  0
  3 25  1  0
  3 26  1  0
  4 27  1  0
  4 28  1  0
  5 29  1  0
  5 30  1  0
  8 31  1  0
  9 32  1  0
 12 33  1  0
 15 34  1  0
 17 35  1  0
 19 36  1  0
 20 37  1  0
 21 38  1  0
M  END
>  <smiles>  (26) 
O=C(CCCOc1ccc(Cl)cc1Cl)NN=Cc1cccnc1F

>  <score_type>  (26) 
oracle

>  <origin>  (26) 
autodockgpu

>  <m_score__min__energy>  (26) 
-7.4000000000000004

>  <m_primary>  (26) 
energy

>  <rmsd>  (26) 
12.58122988396703

>  <m_score__min__rmsd>  (26) 
12.58122988396703

>  <meeko>  (26) 
{"free_energy": -7.4, "intermolecular_energy": -9.79, "internal_energy": -0.59, "cluster_size": 7, "cluster_id": 1, "rank_in_cluster": 1}

>  <energy>  (26) 
-5.89

>  <cluster_rmsd>  (26) 
1.37

>  <cluster>  (26) 
3

$$$$

     RDKit          3D

 38 39  0  0  1  0  0  0  0  0999 V2000
  140.7610   74.6190  221.9350 O   0  0  0  0  0  0  0  0  0  0  0  0
  139.6160   74.1040  221.9700 C   0  0  0  0  0  0  0  0  0  0  0  0
  138.4670   74.7340  221.2280 C   0  0  0  0  0  0  0  0  0  0  0  0
  137.4020   75.0280  222.2790 C   0  0  0  0  0  0  0  0  0  0  0  0
  137.4810   76.4190  222.7960 C   0  0  0  0  0  0  0  0  0  0  0  0
  138.4300   77.1570  222.1490 O   0  0  0  0  0  0  0  0  0  0  0  0
  139.4580   77.9430  222.5160 C   0  0  0  0  0  0  0  0  0  0  0  0
  140.7990   77.6470  222.4850 C   0  0  0  0  0  0  0  0  0  0  0  0
  141.7850   78.5370  222.8890 C   0  0  0  0  0  0  0  0  0  0  0  0
  141.4450   79.7870  223.3500 C   0  0  0  0  0  0  0  0  0  0  0  0
  142.6220   80.9690  223.8790 Cl  0  0  0  0  0  0  0  0  0  0  0  0
  140.1090   80.1160  223.3940 C   0  0  0  0  0  0  0  0  0  0  0  0
  139.1390   79.2290  222.9920 C   0  0  0  0  0  0  0  0  0  0  0  0
  137.4710   79.7530  223.0910 Cl  0  0  0  0  0  0  0  0  0  0  0  0
  139.3110   72.9160  222.6910 N   0  0  0  0  0  0  0  0  0  0  0  0
  140.3430   72.2720  223.4110 N   0  0  0  0  0  0  0  0  0  0  0  0
  140.1880   71.1630  224.0130 C   0  0  0  0  0  0  0  0  0  0  0  0
  140.2890   70.9780  225.4580 C   0  0  0  0  0  0  0  0  0  0  0  0
  140.9860   71.8970  226.2490 C   0  0  0  0  0  0  0  0  0  0  0  0
  141.0900   71.7360  227.6190 C   0  0  0  0  0  0  0  0  0  0  0  0
  140.4760   70.6310  228.1640 C   0  0  0  0  0  0  0  0  0  0  0  0
  139.8000   69.7370  227.4080 N   0  0  0  0  0  0  0  0  0  0  0  0
  139.7100   69.9090  226.0820 C   0  0  0  0  0  0  0  0  0  0  0  0
  139.0110   68.9660  225.3880 F   0  0  0  0  0  0  0  0  0  0  0  0
  138.7910   75.6654  220.7406 H   0  0  0  0  0  0  0  0  0  0  0  0
  138.0834   74.0706  220.4389 H   0  0  0  0  0  0  0  0  0  0  0  0
  136.4102   74.8749  221.8286 H   0  0  0  0  0  0  0  0  0  0  0  0
  137.5712   74.3467  223.1259 H   0  0  0  0  0  0  0  0  0  0  0  0
  136.5026   76.9032  222.6606 H   0  0  0  0  0  0  0  0  0  0  0  0
  137.7594   76.3686  223.8590 H   0  0  0  0  0  0  0  0  0  0  0  0
  141.1070   76.6554  222.1220 H   0  0  0  0  0  0  0  0  0  0  0  0
  142.8432   78.2407  222.8401 H   0  0  0  0  0  0  0  0  0  0  0  0
  139.8113   81.1102  223.7587 H   0  0  0  0  0  0  0  0  0  0  0  0
  138.3570   72.4890  222.7190 H   0  0  0  0  0  0  0  0  0  0  0  0
  139.9612   70.2779  223.4005 H   0  0  0  0  0  0  0  0  0  0  0  0
  141.4616   72.7664  225.7715 H   0  0  0  0  0  0  0  0  0  0  0  0
  141.6376   72.4571  228.2436 H   0  0  0  0  0  0  0  0  0  0  0  0
  140.5374   70.4701  229.2504 H   0  0  0  0  0  0  0  0  0  0  0  0
  1  2  2  0
  2  3  1  0
  3  4  1  0
  4  5  1  0
  5  6  1  0
  6  7  1  0
  7  8  2  0
  8  9  1  0
  9 10  2  0
 10 11  1  0
 10 12  1  0
 12 13  2  0
 13 14  1  0
  2 15  1  0
 15 16  1  0
 16 17  2  0
 17 18  1  0
 18 19  2  0
 19 20  1  0
 20 21  2  0
 21 22  1  0
 22 23  2  0
 23 24  1  0
 13  7  1  0
 23 18  1  0
  3 25  1  0
  3 26  1  0
  4 27  1  0
  4 28  1  0
  5 29  1  0
  5 30  1  0
  8 31  1  0
  9 32  1  0
 12 33  1  0
 15 34  1  0
 17 35  1  0
 19 36  1  0
 20 37  1  0
 21 38  1  0
M  END
>  <smiles>  (27) 
O=C(CCCOc1ccc(Cl)cc1Cl)NN=Cc1cccnc1F

>  <score_type>  (27) 
oracle

>  <origin>  (27) 
autodockgpu

>  <m_score__min__energy>  (27) 
-7.4000000000000004

>  <m_primary>  (27) 
energy

>  <rmsd>  (27) 
6.1309446772162906

>  <m_score__min__rmsd>  (27) 
6.1309446772162906

>  <meeko>  (27) 
{"free_energy": -6.76, "intermolecular_energy": -9.14, "internal_energy": -0.8, "cluster_size": 9, "cluster_id": 3, "rank_in_cluster": 1}

>  <energy>  (27) 
-6.71

>  <cluster_rmsd>  (27) 
0.0

>  <cluster>  (27) 
4

$$$$

     RDKit          3D

 38 39  0  0  1  0  0  0  0  0999 V2000
  138.0430   70.2010  224.9710 O   0  0  0  0  0  0  0  0  0  0  0  0
  138.4990   69.4600  224.0650 C   0  0  0  0  0  0  0  0  0  0  0  0
  138.4330   69.8830  222.6220 C   0  0  0  0  0  0  0  0  0  0  0  0
  139.2770   71.1480  222.5170 C   0  0  0  0  0  0  0  0  0  0  0  0
  139.3750   71.6560  221.1240 C   0  0  0  0  0  0  0  0  0  0  0  0
  140.2950   72.6580  221.0040 O   0  0  0  0  0  0  0  0  0  0  0  0
  141.6350   72.7310  220.9250 C   0  0  0  0  0  0  0  0  0  0  0  0
  142.5370   71.6950  220.8900 C   0  0  0  0  0  0  0  0  0  0  0  0
  143.9090   71.8820  220.8060 C   0  0  0  0  0  0  0  0  0  0  0  0
  144.4350   73.1520  220.7530 C   0  0  0  0  0  0  0  0  0  0  0  0
  146.1520   73.4780  220.6470 Cl  0  0  0  0  0  0  0  0  0  0  0  0
  143.5590   74.2140  220.7860 C   0  0  0  0  0  0  0  0  0  0  0  0
  142.2010   74.0190  220.8690 C   0  0  0  0  0  0  0  0  0  0  0  0
  141.1810   75.4420  220.9040 Cl  0  0  0  0  0  0  0  0  0  0  0  0
  139.0970   68.1950  224.3130 N   0  0  0  0  0  0  0  0  0  0  0  0
  139.1920   67.7340  225.6470 N   0  0  0  0  0  0  0  0  0  0  0  0
  140.1160   68.0890  226.4450 C   0  0  0  0  0  0  0  0  0  0  0  0
  140.4100   69.4710  226.8160 C   0  0  0  0  0  0  0  0  0  0  0  0
  141.1460   70.2990  225.9630 C   0  0  0  0  0  0  0  0  0  0  0  0
  141.4320   71.6100  226.3000 C   0  0  0  0  0  0  0  0  0  0  0  0
  140.9590   72.0580  227.5130 C   0  0  0  0  0  0  0  0  0  0  0  0
  140.2470   71.2650  228.3450 N   0  0  0  0  0  0  0  0  0  0  0  0
  139.9790   69.9970  228.0010 C   0  0  0  0  0  0  0  0  0  0  0  0
  139.2550   69.2610  228.8920 F   0  0  0  0  0  0  0  0  0  0  0  0
  138.8430   69.0949  221.9734 H   0  0  0  0  0  0  0  0  0  0  0  0
  137.3962   70.0622  222.3013 H   0  0  0  0  0  0  0  0  0  0  0  0
  138.8222   71.9281  223.1452 H   0  0  0  0  0  0  0  0  0  0  0  0
  140.2943   70.8984  222.8528 H   0  0  0  0  0  0  0  0  0  0  0  0
  139.6671   70.8259  220.4639 H   0  0  0  0  0  0  0  0  0  0  0  0
  138.3927   72.0640  220.8434 H   0  0  0  0  0  0  0  0  0  0  0  0
  142.1517   70.6655  220.9306 H   0  0  0  0  0  0  0  0  0  0  0  0
  144.5796   71.0104  220.7816 H   0  0  0  0  0  0  0  0  0  0  0  0
  143.9543   75.2397  220.7451 H   0  0  0  0  0  0  0  0  0  0  0  0
  139.4750   67.5790  223.5570 H   0  0  0  0  0  0  0  0  0  0  0  0
  140.7391   67.2982  226.8881 H   0  0  0  0  0  0  0  0  0  0  0  0
  141.5054   69.8994  225.0032 H   0  0  0  0  0  0  0  0  0  0  0  0
  142.0101   72.2637  225.6304 H   0  0  0  0  0  0  0  0  0  0  0  0
  141.1672   73.0950  227.8151 H   0  0  0  0  0  0  0  0  0  0  0  0
  1  2  2  0
  2  3  1  0
  3  4  1  0
  4  5  1  0
  5  6  1  0
  6  7  1  0
  7  8  2  0
  8  9  1  0
  9 10  2  0
 10 11  1  0
 10 12  1  0
 12 13  2  0
 13 14  1  0
  2 15  1  0
 15 16  1  0
 16 17  2  0
 17 18  1  0
 18 19  2  0
 19 20  1  0
 20 21  2  0
 21 22  1  0
 22 23  2  0
 23 24  1  0
 13  7  1  0
 23 18  1  0
  3 25  1  0
  3 26  1  0
  4 27  1  0
  4 28  1  0
  5 29  1  0
  5 30  1  0
  8 31  1  0
  9 32  1  0
 12 33  1  0
 15 34  1  0
 17 35  1  0
 19 36  1  0
 20 37  1  0
 21 38  1  0
M  END
>  <smiles>  (28) 
O=C(CCCOc1ccc(Cl)cc1Cl)NN=Cc1cccnc1F

>  <score_type>  (28) 
oracle

>  <origin>  (28) 
autodockgpu

>  <m_score__min__energy>  (28) 
-7.4000000000000004

>  <m_primary>  (28) 
energy

>  <rmsd>  (28) 
10.714146874909618

>  <m_score__min__rmsd>  (28) 
10.714146874909618

>  <meeko>  (28) 
{"free_energy": -6.52, "intermolecular_energy": -8.91, "internal_energy": -0.91, "cluster_size": 3, "cluster_id": 4, "rank_in_cluster": 2}

>  <energy>  (28) 
-6.52

>  <cluster_rmsd>  (28) 
1.38

>  <cluster>  (28) 
4

$$$$

     RDKit          3D

 38 39  0  0  1  0  0  0  0  0999 V2000
  136.9880   70.7420  221.1280 O   0  0  0  0  0  0  0  0  0  0  0  0
  137.7930   71.6010  221.5670 C   0  0  0  0  0  0  0  0  0  0  0  0
  139.0310   71.9610  220.7910 C   0  0  0  0  0  0  0  0  0  0  0  0
  139.8680   72.8350  221.7180 C   0  0  0  0  0  0  0  0  0  0  0  0
  140.6600   72.0390  222.6920 C   0  0  0  0  0  0  0  0  0  0  0  0
  139.9740   71.8110  223.8510 O   0  0  0  0  0  0  0  0  0  0  0  0
  140.2100   71.1480  224.9970 C   0  0  0  0  0  0  0  0  0  0  0  0
  140.8910   71.5930  226.1040 C   0  0  0  0  0  0  0  0  0  0  0  0
  141.0780   70.8230  227.2430 C   0  0  0  0  0  0  0  0  0  0  0  0
  140.5720   69.5460  227.3090 C   0  0  0  0  0  0  0  0  0  0  0  0
  140.7610   68.5070  228.7060 Cl  0  0  0  0  0  0  0  0  0  0  0  0
  139.8840   69.0690  226.2160 C   0  0  0  0  0  0  0  0  0  0  0  0
  139.7040   69.8380  225.0920 C   0  0  0  0  0  0  0  0  0  0  0  0
  138.8130   69.1300  223.7610 Cl  0  0  0  0  0  0  0  0  0  0  0  0
  137.6130   72.2870  222.8000 N   0  0  0  0  0  0  0  0  0  0  0  0
  136.4710   71.9980  223.5820 N   0  0  0  0  0  0  0  0  0  0  0  0
  135.5980   72.8680  223.8920 C   0  0  0  0  0  0  0  0  0  0  0  0
  134.7080   72.7790  225.0470 C   0  0  0  0  0  0  0  0  0  0  0  0
  134.2550   71.5390  225.5070 C   0  0  0  0  0  0  0  0  0  0  0  0
  133.4130   71.4390  226.6000 C   0  0  0  0  0  0  0  0  0  0  0  0
  133.0420   72.6160  227.2100 C   0  0  0  0  0  0  0  0  0  0  0  0
  133.4750   73.8200  226.7730 N   0  0  0  0  0  0  0  0  0  0  0  0
  134.2920   73.8980  225.7120 C   0  0  0  0  0  0  0  0  0  0  0  0
  134.6850   75.1470  225.3320 F   0  0  0  0  0  0  0  0  0  0  0  0
  139.5875   71.0528  220.5161 H   0  0  0  0  0  0  0  0  0  0  0  0
  138.7828   72.4863  219.8570 H   0  0  0  0  0  0  0  0  0  0  0  0
  140.5595   73.4347  221.1079 H   0  0  0  0  0  0  0  0  0  0  0  0
  139.1770   73.4711  222.2907 H   0  0  0  0  0  0  0  0  0  0  0  0
  140.9146   71.0714  222.2349 H   0  0  0  0  0  0  0  0  0  0  0  0
  141.5639   72.6138  222.9421 H   0  0  0  0  0  0  0  0  0  0  0  0
  141.3088   72.6104  226.0866 H   0  0  0  0  0  0  0  0  0  0  0  0
  141.6339   71.2361  228.0976 H   0  0  0  0  0  0  0  0  0  0  0  0
  139.4696   68.0504  226.2433 H   0  0  0  0  0  0  0  0  0  0  0  0
  138.2850   73.0010  223.1640 H   0  0  0  0  0  0  0  0  0  0  0  0
  135.5059   73.7519  223.2438 H   0  0  0  0  0  0  0  0  0  0  0  0
  134.5750   70.6231  224.9886 H   0  0  0  0  0  0  0  0  0  0  0  0
  133.0565   70.4644  226.9647 H   0  0  0  0  0  0  0  0  0  0  0  0
  132.3716   72.5756  228.0812 H   0  0  0  0  0  0  0  0  0  0  0  0
  1  2  2  0
  2  3  1  0
  3  4  1  0
  4  5  1  0
  5  6  1  0
  6  7  1  0
  7  8  2  0
  8  9  1  0
  9 10  2  0
 10 11  1  0
 10 12  1  0
 12 13  2  0
 13 14  1  0
  2 15  1  0
 15 16  1  0
 16 17  2  0
 17 18  1  0
 18 19  2  0
 19 20  1  0
 20 21  2  0
 21 22  1  0
 22 23  2  0
 23 24  1  0
 13  7  1  0
 23 18  1  0
  3 25  1  0
  3 26  1  0
  4 27  1  0
  4 28  1  0
  5 29  1  0
  5 30  1  0
  8 31  1  0
  9 32  1  0
 12 33  1  0
 15 34  1  0
 17 35  1  0
 19 36  1  0
 20 37  1  0
 21 38  1  0
M  END
>  <smiles>  (29) 
O=C(CCCOc1ccc(Cl)cc1Cl)NN=Cc1cccnc1F

>  <score_type>  (29) 
oracle

>  <origin>  (29) 
autodockgpu

>  <m_score__min__energy>  (29) 
-7.4000000000000004

>  <m_primary>  (29) 
energy

>  <rmsd>  (29) 
12.622551106680193

>  <m_score__min__rmsd>  (29) 
12.622551106680193

>  <meeko>  (29) 
{"free_energy": -5.85, "intermolecular_energy": -8.24, "internal_energy": -1.59, "cluster_size": 1, "cluster_id": 9, "rank_in_cluster": 1}

>  <energy>  (29) 
-6.49

>  <cluster_rmsd>  (29) 
1.1

>  <cluster>  (29) 
4

$$$$

     RDKit          3D

 38 39  0  0  1  0  0  0  0  0999 V2000
  138.9530   69.5710  223.3350 O   0  0  0  0  0  0  0  0  0  0  0  0
  138.7300   70.7890  223.1260 C   0  0  0  0  0  0  0  0  0  0  0  0
  137.5390   71.2240  222.3150 C   0  0  0  0  0  0  0  0  0  0  0  0
  138.1020   71.8240  221.0320 C   0  0  0  0  0  0  0  0  0  0  0  0
  137.9160   73.2970  220.9620 C   0  0  0  0  0  0  0  0  0  0  0  0
  138.5930   73.9500  221.9520 O   0  0  0  0  0  0  0  0  0  0  0  0
  139.1060   75.1820  222.1190 C   0  0  0  0  0  0  0  0  0  0  0  0
  138.4650   76.3080  222.5750 C   0  0  0  0  0  0  0  0  0  0  0  0
  139.0920   77.5390  222.7120 C   0  0  0  0  0  0  0  0  0  0  0  0
  140.4210   77.6810  222.3860 C   0  0  0  0  0  0  0  0  0  0  0  0
  141.2890   79.1940  222.5280 Cl  0  0  0  0  0  0  0  0  0  0  0  0
  141.0940   76.5710  221.9260 C   0  0  0  0  0  0  0  0  0  0  0  0
  140.4650   75.3560  221.7940 C   0  0  0  0  0  0  0  0  0  0  0  0
  141.4170   74.0120  221.1990 Cl  0  0  0  0  0  0  0  0  0  0  0  0
  139.5570   71.8340  223.6210 N   0  0  0  0  0  0  0  0  0  0  0  0
  140.6950   71.4980  224.3910 N   0  0  0  0  0  0  0  0  0  0  0  0
  140.7140   71.5320  225.6620 C   0  0  0  0  0  0  0  0  0  0  0  0
  140.7300   70.3550  226.5260 C   0  0  0  0  0  0  0  0  0  0  0  0
  140.3950   69.0940  226.0250 C   0  0  0  0  0  0  0  0  0  0  0  0
  140.4070   67.9700  226.8310 C   0  0  0  0  0  0  0  0  0  0  0  0
  140.7630   68.1530  228.1480 C   0  0  0  0  0  0  0  0  0  0  0  0
  141.0900   69.3680  228.6430 N   0  0  0  0  0  0  0  0  0  0  0  0
  141.0730   70.4460  227.8460 C   0  0  0  0  0  0  0  0  0  0  0  0
  141.4150   71.6360  228.4180 F   0  0  0  0  0  0  0  0  0  0  0  0
  136.8977   70.3606  222.0841 H   0  0  0  0  0  0  0  0  0  0  0  0
  136.9217   71.9509  222.8631 H   0  0  0  0  0  0  0  0  0  0  0  0
  139.1781   71.6017  220.9814 H   0  0  0  0  0  0  0  0  0  0  0  0
  137.5563   71.3781  220.1874 H   0  0  0  0  0  0  0  0  0  0  0  0
  138.2813   73.6543  219.9879 H   0  0  0  0  0  0  0  0  0  0  0  0
  136.8441   73.5085  221.0897 H   0  0  0  0  0  0  0  0  0  0  0  0
  137.4015   76.2305  222.8452 H   0  0  0  0  0  0  0  0  0  0  0  0
  138.5237   78.4047  223.0829 H   0  0  0  0  0  0  0  0  0  0  0  0
  142.1574   76.6586  221.6585 H   0  0  0  0  0  0  0  0  0  0  0  0
  139.3710   72.8480  223.4450 H   0  0  0  0  0  0  0  0  0  0  0  0
  140.7187   72.5199  226.1458 H   0  0  0  0  0  0  0  0  0  0  0  0
  140.1155   68.9932  224.9659 H   0  0  0  0  0  0  0  0  0  0  0  0
  140.1444   66.9767  226.4380 H   0  0  0  0  0  0  0  0  0  0  0  0
  140.7821   67.2822  228.8198 H   0  0  0  0  0  0  0  0  0  0  0  0
  1  2  2  0
  2  3  1  0
  3  4  1  0
  4  5  1  0
  5  6  1  0
  6  7  1  0
  7  8  2  0
  8  9  1  0
  9 10  2  0
 10 11  1  0
 10 12  1  0
 12 13  2  0
 13 14  1  0
  2 15  1  0
 15 16  1  0
 16 17  2  0
 17 18  1  0
 18 19  2  0
 19 20  1  0
 20 21  2  0
 21 22  1  0
 22 23  2  0
 23 24  1  0
 13  7  1  0
 23 18  1  0
  3 25  1  0
  3 26  1  0
  4 27  1  0
  4 28  1  0
  5 29  1  0
  5 30  1  0
  8 31  1  0
  9 32  1  0
 12 33  1  0
 15 34  1  0
 17 35  1  0
 19 36  1  0
 20 37  1  0
 21 38  1  0
M  END
>  <smiles>  (30) 
O=C(CCCOc1ccc(Cl)cc1Cl)NN=Cc1cccnc1F

>  <score_type>  (30) 
oracle

>  <origin>  (30) 
autodockgpu

>  <m_score__min__energy>  (30) 
-7.4000000000000004

>  <m_primary>  (30) 
energy

>  <rmsd>  (30) 
7.734810284927913

>  <m_score__min__rmsd>  (30) 
7.734810284927913

>  <meeko>  (30) 
{"free_energy": -5.68, "intermolecular_energy": -8.07, "internal_energy": -1.73, "cluster_size": 6, "cluster_id": 6, "rank_in_cluster": 6}

>  <energy>  (30) 
-6.59

>  <cluster_rmsd>  (30) 
0.0

>  <cluster>  (30) 
5

$$$$

     RDKit          3D

 38 39  0  0  1  0  0  0  0  0999 V2000
  139.9520   70.3280  221.7020 O   0  0  0  0  0  0  0  0  0  0  0  0
  139.4380   71.4500  221.9360 C   0  0  0  0  0  0  0  0  0  0  0  0
  138.4720   72.0710  220.9630 C   0  0  0  0  0  0  0  0  0  0  0  0
  137.2820   72.5380  221.7940 C   0  0  0  0  0  0  0  0  0  0  0  0
  137.2500   74.0140  221.9640 C   0  0  0  0  0  0  0  0  0  0  0  0
  138.4930   74.5710  221.8740 O   0  0  0  0  0  0  0  0  0  0  0  0
  139.0400   75.7630  222.1720 C   0  0  0  0  0  0  0  0  0  0  0  0
  138.4190   76.8660  222.7060 C   0  0  0  0  0  0  0  0  0  0  0  0
  139.0810   78.0550  222.9780 C   0  0  0  0  0  0  0  0  0  0  0  0
  140.4260   78.1770  222.7160 C   0  0  0  0  0  0  0  0  0  0  0  0
  141.3380   79.6390  223.0280 Cl  0  0  0  0  0  0  0  0  0  0  0  0
  141.0790   77.0890  222.1810 C   0  0  0  0  0  0  0  0  0  0  0  0
  140.4150   75.9160  221.9140 C   0  0  0  0  0  0  0  0  0  0  0  0
  141.3450   74.5970  221.2340 Cl  0  0  0  0  0  0  0  0  0  0  0  0
  139.7150   72.2110  223.1040 N   0  0  0  0  0  0  0  0  0  0  0  0
  140.6140   71.6880  224.0620 N   0  0  0  0  0  0  0  0  0  0  0  0
  140.2590   71.3160  225.2250 C   0  0  0  0  0  0  0  0  0  0  0  0
  140.1660   69.9260  225.6620 C   0  0  0  0  0  0  0  0  0  0  0  0
  140.9870   69.4400  226.6840 C   0  0  0  0  0  0  0  0  0  0  0  0
  140.9090   68.1260  227.1090 C   0  0  0  0  0  0  0  0  0  0  0  0
  139.9880   67.3210  226.4780 C   0  0  0  0  0  0  0  0  0  0  0  0
  139.1890   67.7810  225.4890 N   0  0  0  0  0  0  0  0  0  0  0  0
  139.2780   69.0580  225.0900 C   0  0  0  0  0  0  0  0  0  0  0  0
  138.4390   69.4460  224.0880 F   0  0  0  0  0  0  0  0  0  0  0  0
  138.9402   72.9251  220.4518 H   0  0  0  0  0  0  0  0  0  0  0  0
  138.1654   71.3548  220.1864 H   0  0  0  0  0  0  0  0  0  0  0  0
  136.3556   72.2206  221.2929 H   0  0  0  0  0  0  0  0  0  0  0  0
  137.3758   72.0887  222.7936 H   0  0  0  0  0  0  0  0  0  0  0  0
  136.6104   74.4469  221.1808 H   0  0  0  0  0  0  0  0  0  0  0  0
  136.8555   74.2296  222.9680 H   0  0  0  0  0  0  0  0  0  0  0  0
  137.3437   76.8036  222.9290 H   0  0  0  0  0  0  0  0  0  0  0  0
  138.5275   78.9042  223.4052 H   0  0  0  0  0  0  0  0  0  0  0  0
  142.1548   77.1604  221.9628 H   0  0  0  0  0  0  0  0  0  0  0  0
  139.2870   73.1450  223.2970 H   0  0  0  0  0  0  0  0  0  0  0  0
  140.0034   72.0983  225.9549 H   0  0  0  0  0  0  0  0  0  0  0  0
  141.7108   70.1174  227.1606 H   0  0  0  0  0  0  0  0  0  0  0  0
  141.5531   67.7422  227.9139 H   0  0  0  0  0  0  0  0  0  0  0  0
  139.8991   66.2694  226.7883 H   0  0  0  0  0  0  0  0  0  0  0  0
  1  2  2  0
  2  3  1  0
  3  4  1  0
  4  5  1  0
  5  6  1  0
  6  7  1  0
  7  8  2  0
  8  9  1  0
  9 10  2  0
 10 11  1  0
 10 12  1  0
 12 13  2  0
 13 14  1  0
  2 15  1  0
 15 16  1  0
 16 17  2  0
 17 18  1  0
 18 19  2  0
 19 20  1  0
 20 21  2  0
 21 22  1  0
 22 23  2  0
 23 24  1  0
 13  7  1  0
 23 18  1  0
  3 25  1  0
  3 26  1  0
  4 27  1  0
  4 28  1  0
  5 29  1  0
  5 30  1  0
  8 31  1  0
  9 32  1  0
 12 33  1  0
 15 34  1  0
 17 35  1  0
 19 36  1  0
 20 37  1  0
 21 38  1  0
M  END
>  <smiles>  (31) 
O=C(CCCOc1ccc(Cl)cc1Cl)NN=Cc1cccnc1F

>  <score_type>  (31) 
oracle

>  <origin>  (31) 
autodockgpu

>  <m_score__min__energy>  (31) 
-7.4000000000000004

>  <m_primary>  (31) 
energy

>  <rmsd>  (31) 
7.344934541132921

>  <m_score__min__rmsd>  (31) 
7.344934541132921

>  <meeko>  (31) 
{"free_energy": -5.98, "intermolecular_energy": -8.37, "internal_energy": -1.78, "cluster_size": 6, "cluster_id": 6, "rank_in_cluster": 3}

>  <energy>  (31) 
-6.35

>  <cluster_rmsd>  (31) 
0.0

>  <cluster>  (31) 
6

$$$$

     RDKit          3D

 38 39  0  0  1  0  0  0  0  0999 V2000
  138.8220   69.4270  224.2620 O   0  0  0  0  0  0  0  0  0  0  0  0
  138.5220   70.5800  223.8630 C   0  0  0  0  0  0  0  0  0  0  0  0
  137.1490   70.8700  223.3170 C   0  0  0  0  0  0  0  0  0  0  0  0
  137.3680   71.4790  221.9370 C   0  0  0  0  0  0  0  0  0  0  0  0
  137.2810   72.9630  221.9470 C   0  0  0  0  0  0  0  0  0  0  0  0
  138.4950   73.5520  221.7370 O   0  0  0  0  0  0  0  0  0  0  0  0
  139.0310   74.7640  221.9640 C   0  0  0  0  0  0  0  0  0  0  0  0
  138.3920   75.9010  222.3940 C   0  0  0  0  0  0  0  0  0  0  0  0
  139.0440   77.1090  222.5990 C   0  0  0  0  0  0  0  0  0  0  0  0
  140.3970   77.2160  222.3740 C   0  0  0  0  0  0  0  0  0  0  0  0
  141.2970   78.6990  222.6060 Cl  0  0  0  0  0  0  0  0  0  0  0  0
  141.0680   76.0930  221.9420 C   0  0  0  0  0  0  0  0  0  0  0  0
  140.4140   74.9010  221.7410 C   0  0  0  0  0  0  0  0  0  0  0  0
  141.3670   73.5390  221.1910 Cl  0  0  0  0  0  0  0  0  0  0  0  0
  139.4230   71.6790  223.8890 N   0  0  0  0  0  0  0  0  0  0  0  0
  140.7300   71.4780  224.3890 N   0  0  0  0  0  0  0  0  0  0  0  0
  141.0140   71.4890  225.6290 C   0  0  0  0  0  0  0  0  0  0  0  0
  140.8600   70.3490  226.5280 C   0  0  0  0  0  0  0  0  0  0  0  0
  141.1910   69.0570  226.1090 C   0  0  0  0  0  0  0  0  0  0  0  0
  141.0510   67.9670  226.9500 C   0  0  0  0  0  0  0  0  0  0  0  0
  140.5710   68.2160  228.2160 C   0  0  0  0  0  0  0  0  0  0  0  0
  140.2490   69.4610  228.6310 N   0  0  0  0  0  0  0  0  0  0  0  0
  140.3910   70.5050  227.8020 C   0  0  0  0  0  0  0  0  0  0  0  0
  140.0460   71.7290  228.2940 F   0  0  0  0  0  0  0  0  0  0  0  0
  136.5651   69.9412  223.2370 H   0  0  0  0  0  0  0  0  0  0  0  0
  136.5885   71.5509  223.9745 H   0  0  0  0  0  0  0  0  0  0  0  0
  138.3656   71.1869  221.5772 H   0  0  0  0  0  0  0  0  0  0  0  0
  136.5726   71.1029  221.2767 H   0  0  0  0  0  0  0  0  0  0  0  0
  136.5900   73.2828  221.1531 H   0  0  0  0  0  0  0  0  0  0  0  0
  136.9219   73.2737  222.9392 H   0  0  0  0  0  0  0  0  0  0  0  0
  137.3099   75.8519  222.5854 H   0  0  0  0  0  0  0  0  0  0  0  0
  138.4758   77.9857  222.9433 H   0  0  0  0  0  0  0  0  0  0  0  0
  142.1502   76.1516  221.7539 H   0  0  0  0  0  0  0  0  0  0  0  0
  139.1710   72.6380  223.5560 H   0  0  0  0  0  0  0  0  0  0  0  0
  141.4039   72.4253  226.0547 H   0  0  0  0  0  0  0  0  0  0  0  0
  141.5711   68.9034  225.0882 H   0  0  0  0  0  0  0  0  0  0  0  0
  141.3110   66.9496  226.6224 H   0  0  0  0  0  0  0  0  0  0  0  0
  140.4455   67.3739  228.9125 H   0  0  0  0  0  0  0  0  0  0  0  0
  1  2  2  0
  2  3  1  0
  3  4  1  0
  4  5  1  0
  5  6  1  0
  6  7  1  0
  7  8  2  0
  8  9  1  0
  9 10  2  0
 10 11  1  0
 10 12  1  0
 12 13  2  0
 13 14  1  0
  2 15  1  0
 15 16  1  0
 16 17  2  0
 17 18  1  0
 18 19  2  0
 19 20  1  0
 20 21  2  0
 21 22  1  0
 22 23  2  0
 23 24  1  0
 13  7  1  0
 23 18  1  0
  3 25  1  0
  3 26  1  0
  4 27  1  0
  4 28  1  0
  5 29  1  0
  5 30  1  0
  8 31  1  0
  9 32  1  0
 12 33  1  0
 15 34  1  0
 17 35  1  0
 19 36  1  0
 20 37  1  0
 21 38  1  0
M  END
>  <smiles>  (32) 
O=C(CCCOc1ccc(Cl)cc1Cl)NN=Cc1cccnc1F

>  <score_type>  (32) 
oracle

>  <origin>  (32) 
autodockgpu

>  <m_score__min__energy>  (32) 
-7.4000000000000004

>  <m_primary>  (32) 
energy

>  <rmsd>  (32) 
8.17188149616401

>  <m_score__min__rmsd>  (32) 
8.17188149616401

>  <meeko>  (32) 
{"free_energy": -5.78, "intermolecular_energy": -8.16, "internal_energy": -1.76, "cluster_size": 6, "cluster_id": 6, "rank_in_cluster": 5}

>  <energy>  (32) 
-6.31

>  <cluster_rmsd>  (32) 
0.91

>  <cluster>  (32) 
6

$$$$

     RDKit          3D

 38 39  0  0  1  0  0  0  0  0999 V2000
  140.1370   73.9520  221.9490 O   0  0  0  0  0  0  0  0  0  0  0  0
  141.0640   74.5770  221.3760 C   0  0  0  0  0  0  0  0  0  0  0  0
  141.8730   73.9230  220.2890 C   0  0  0  0  0  0  0  0  0  0  0  0
  143.2740   74.5150  220.3960 C   0  0  0  0  0  0  0  0  0  0  0  0
  143.5380   75.5480  219.3590 C   0  0  0  0  0  0  0  0  0  0  0  0
  142.4870   76.4060  219.2080 O   0  0  0  0  0  0  0  0  0  0  0  0
  142.3430   77.7280  219.0100 C   0  0  0  0  0  0  0  0  0  0  0  0
  141.9060   78.6730  219.9060 C   0  0  0  0  0  0  0  0  0  0  0  0
  141.7950   80.0220  219.5970 C   0  0  0  0  0  0  0  0  0  0  0  0
  142.1290   80.4770  218.3430 C   0  0  0  0  0  0  0  0  0  0  0  0
  142.0190   82.1590  217.8690 Cl  0  0  0  0  0  0  0  0  0  0  0  0
  142.5710   79.5550  217.4200 C   0  0  0  0  0  0  0  0  0  0  0  0
  142.6780   78.2220  217.7340 C   0  0  0  0  0  0  0  0  0  0  0  0
  143.2510   77.1390  216.4840 Cl  0  0  0  0  0  0  0  0  0  0  0  0
  141.4210   75.9160  221.6940 N   0  0  0  0  0  0  0  0  0  0  0  0
  140.7020   76.5920  222.7060 N   0  0  0  0  0  0  0  0  0  0  0  0
  140.2400   77.7690  222.5690 C   0  0  0  0  0  0  0  0  0  0  0  0
  140.9280   78.9880  222.9860 C   0  0  0  0  0  0  0  0  0  0  0  0
  142.3210   79.0220  223.0910 C   0  0  0  0  0  0  0  0  0  0  0  0
  142.9870   80.1690  223.4830 C   0  0  0  0  0  0  0  0  0  0  0  0
  142.2130   81.2720  223.7670 C   0  0  0  0  0  0  0  0  0  0  0  0
  140.8650   81.2490  223.6690 N   0  0  0  0  0  0  0  0  0  0  0  0
  140.2370   80.1280  223.2860 C   0  0  0  0  0  0  0  0  0  0  0  0
  138.8760   80.1840  223.2110 F   0  0  0  0  0  0  0  0  0  0  0  0
  141.9055   72.8338  220.4391 H   0  0  0  0  0  0  0  0  0  0  0  0
  141.4341   74.1017  219.2963 H   0  0  0  0  0  0  0  0  0  0  0  0
  143.3874   74.9750  221.3887 H   0  0  0  0  0  0  0  0  0  0  0  0
  143.9941   73.6976  220.2436 H   0  0  0  0  0  0  0  0  0  0  0  0
  144.4274   76.1251  219.6519 H   0  0  0  0  0  0  0  0  0  0  0  0
  143.6941   75.0323  218.4000 H   0  0  0  0  0  0  0  0  0  0  0  0
  141.6302   78.3446  220.9190 H   0  0  0  0  0  0  0  0  0  0  0  0
  141.4381   80.7304  220.3591 H   0  0  0  0  0  0  0  0  0  0  0  0
  142.8442   79.8935  216.4096 H   0  0  0  0  0  0  0  0  0  0  0  0
  142.1930   76.4350  221.2160 H   0  0  0  0  0  0  0  0  0  0  0  0
  139.2498   77.8768  222.1023 H   0  0  0  0  0  0  0  0  0  0  0  0
  142.9005   78.1168  222.8568 H   0  0  0  0  0  0  0  0  0  0  0  0
  144.0836   80.1988  223.5641 H   0  0  0  0  0  0  0  0  0  0  0  0
  142.7077   82.2020  224.0839 H   0  0  0  0  0  0  0  0  0  0  0  0
  1  2  2  0
  2  3  1  0
  3  4  1  0
  4  5  1  0
  5  6  1  0
  6  7  1  0
  7  8  2  0
  8  9  1  0
  9 10  2  0
 10 11  1  0
 10 12  1  0
 12 13  2  0
 13 14  1  0
  2 15  1  0
 15 16  1  0
 16 17  2  0
 17 18  1  0
 18 19  2  0
 19 20  1  0
 20 21  2  0
 21 22  1  0
 22 23  2  0
 23 24  1  0
 13  7  1  0
 23 18  1  0
  3 25  1  0
  3 26  1  0
  4 27  1  0
  4 28  1  0
  5 29  1  0
  5 30  1  0
  8 31  1  0
  9 32  1  0
 12 33  1  0
 15 34  1  0
 17 35  1  0
 19 36  1  0
 20 37  1  0
 21 38  1  0
M  END
>  <smiles>  (33) 
O=C(CCCOc1ccc(Cl)cc1Cl)NN=Cc1cccnc1F

>  <score_type>  (33) 
oracle

>  <origin>  (33) 
autodockgpu

>  <m_score__min__energy>  (33) 
-7.4000000000000004

>  <m_primary>  (33) 
energy

>  <rmsd>  (33) 
6.890328301812618

>  <m_score__min__rmsd>  (33) 
6.890328301812618

>  <meeko>  (33) 
{"free_energy": -5.91, "intermolecular_energy": -8.3, "internal_energy": -1.97, "cluster_size": 5, "cluster_id": 8, "rank_in_cluster": 1}

>  <energy>  (33) 
-5.98

>  <cluster_rmsd>  (33) 
1.98

>  <cluster>  (33) 
6

$$$$

     RDKit          3D

 38 39  0  0  1  0  0  0  0  0999 V2000
  140.0480   74.0780  221.9920 O   0  0  0  0  0  0  0  0  0  0  0  0
  140.9780   74.6370  221.3590 C   0  0  0  0  0  0  0  0  0  0  0  0
  141.6690   73.9290  220.2240 C   0  0  0  0  0  0  0  0  0  0  0  0
  143.1240   73.7760  220.6510 C   0  0  0  0  0  0  0  0  0  0  0  0
  143.9860   74.8790  220.1490 C   0  0  0  0  0  0  0  0  0  0  0  0
  143.2660   75.8390  219.4980 O   0  0  0  0  0  0  0  0  0  0  0  0
  143.2110   76.3170  218.2420 C   0  0  0  0  0  0  0  0  0  0  0  0
  143.7240   75.7500  217.1010 C   0  0  0  0  0  0  0  0  0  0  0  0
  143.6110   76.3310  215.8450 C   0  0  0  0  0  0  0  0  0  0  0  0
  142.9590   77.5320  215.6920 C   0  0  0  0  0  0  0  0  0  0  0  0
  142.7700   78.3330  214.1470 Cl  0  0  0  0  0  0  0  0  0  0  0  0
  142.4320   78.1270  216.8160 C   0  0  0  0  0  0  0  0  0  0  0  0
  142.5500   77.5450  218.0560 C   0  0  0  0  0  0  0  0  0  0  0  0
  141.8420   78.3900  219.4160 Cl  0  0  0  0  0  0  0  0  0  0  0  0
  141.4480   75.9470  221.6500 N   0  0  0  0  0  0  0  0  0  0  0  0
  140.8440   76.6700  222.7040 N   0  0  0  0  0  0  0  0  0  0  0  0
  140.4280   77.8660  222.5840 C   0  0  0  0  0  0  0  0  0  0  0  0
  141.1800   79.0530  222.9790 C   0  0  0  0  0  0  0  0  0  0  0  0
  142.5660   79.1130  222.8030 C   0  0  0  0  0  0  0  0  0  0  0  0
  143.2920   80.2310  223.1710 C   0  0  0  0  0  0  0  0  0  0  0  0
  142.5870   81.2790  223.7190 C   0  0  0  0  0  0  0  0  0  0  0  0
  141.2470   81.2310  223.8930 N   0  0  0  0  0  0  0  0  0  0  0  0
  140.5600   80.1390  223.5290 C   0  0  0  0  0  0  0  0  0  0  0  0
  139.2120   80.1670  223.7360 F   0  0  0  0  0  0  0  0  0  0  0  0
  141.2140   72.9419  220.0552 H   0  0  0  0  0  0  0  0  0  0  0  0
  141.5813   74.4925  219.2834 H   0  0  0  0  0  0  0  0  0  0  0  0
  143.1695   73.7656  221.7500 H   0  0  0  0  0  0  0  0  0  0  0  0
  143.5006   72.8364  220.2206 H   0  0  0  0  0  0  0  0  0  0  0  0
  144.5030   75.3415  221.0027 H   0  0  0  0  0  0  0  0  0  0  0  0
  144.7022   74.4495  219.4330 H   0  0  0  0  0  0  0  0  0  0  0  0
  144.2505   74.7880  217.1865 H   0  0  0  0  0  0  0  0  0  0  0  0
  144.0451   75.8282  214.9682 H   0  0  0  0  0  0  0  0  0  0  0  0
  141.9056   79.0881  216.7200 H   0  0  0  0  0  0  0  0  0  0  0  0
  142.2220   76.4110  221.1230 H   0  0  0  0  0  0  0  0  0  0  0  0
  139.4282   78.0168  222.1508 H   0  0  0  0  0  0  0  0  0  0  0  0
  143.0901   78.2522  222.3622 H   0  0  0  0  0  0  0  0  0  0  0  0
  144.3821   80.2807  223.0324 H   0  0  0  0  0  0  0  0  0  0  0  0
  143.1314   82.1845  224.0251 H   0  0  0  0  0  0  0  0  0  0  0  0
  1  2  2  0
  2  3  1  0
  3  4  1  0
  4  5  1  0
  5  6  1  0
  6  7  1  0
  7  8  2  0
  8  9  1  0
  9 10  2  0
 10 11  1  0
 10 12  1  0
 12 13  2  0
 13 14  1  0
  2 15  1  0
 15 16  1  0
 16 17  2  0
 17 18  1  0
 18 19  2  0
 19 20  1  0
 20 21  2  0
 21 22  1  0
 22 23  2  0
 23 24  1  0
 13  7  1  0
 23 18  1  0
  3 25  1  0
  3 26  1  0
  4 27  1  0
  4 28  1  0
  5 29  1  0
  5 30  1  0
  8 31  1  0
  9 32  1  0
 12 33  1  0
 15 34  1  0
 17 35  1  0
 19 36  1  0
 20 37  1  0
 21 38  1  0
M  END
>  <smiles>  (34) 
O=C(CCCOc1ccc(Cl)cc1Cl)NN=Cc1cccnc1F

>  <score_type>  (34) 
oracle

>  <origin>  (34) 
autodockgpu

>  <m_score__min__energy>  (34) 
-7.4000000000000004

>  <m_primary>  (34) 
energy

>  <rmsd>  (34) 
9.005337891725638

>  <m_score__min__rmsd>  (34) 
9.005337891725638

>  <meeko>  (34) 
{"free_energy": -5.46, "intermolecular_energy": -7.85, "internal_energy": -1.9, "cluster_size": 5, "cluster_id": 8, "rank_in_cluster": 3}

>  <energy>  (34) 
-5.83

>  <cluster_rmsd>  (34) 
1.13

>  <cluster>  (34) 
6

$$$$

     RDKit          3D

 38 39  0  0  1  0  0  0  0  0999 V2000
  136.9280   69.2180  224.6600 O   0  0  0  0  0  0  0  0  0  0  0  0
  137.9280   69.1190  223.9070 C   0  0  0  0  0  0  0  0  0  0  0  0
  137.9340   69.7680  222.5490 C   0  0  0  0  0  0  0  0  0  0  0  0
  139.1470   70.6920  222.5310 C   0  0  0  0  0  0  0  0  0  0  0  0
  138.7710   72.1280  222.6030 C   0  0  0  0  0  0  0  0  0  0  0  0
  139.8600   72.9490  222.5280 O   0  0  0  0  0  0  0  0  0  0  0  0
  141.0270   72.9450  221.8590 C   0  0  0  0  0  0  0  0  0  0  0  0
  141.8440   71.8730  221.5960 C   0  0  0  0  0  0  0  0  0  0  0  0
  143.0350   71.9790  220.8910 C   0  0  0  0  0  0  0  0  0  0  0  0
  143.4540   73.1990  220.4140 C   0  0  0  0  0  0  0  0  0  0  0  0
  144.9400   73.4220  219.5170 Cl  0  0  0  0  0  0  0  0  0  0  0  0
  142.6570   74.2950  220.6610 C   0  0  0  0  0  0  0  0  0  0  0  0
  141.4800   74.1810  221.3600 C   0  0  0  0  0  0  0  0  0  0  0  0
  140.5460   75.6400  221.6160 Cl  0  0  0  0  0  0  0  0  0  0  0  0
  139.1070   68.4060  224.2580 N   0  0  0  0  0  0  0  0  0  0  0  0
  139.1700   67.7710  225.5200 N   0  0  0  0  0  0  0  0  0  0  0  0
  140.0090   68.0890  226.4210 C   0  0  0  0  0  0  0  0  0  0  0  0
  140.3610   69.4590  226.7850 C   0  0  0  0  0  0  0  0  0  0  0  0
  141.0510   70.2820  225.8900 C   0  0  0  0  0  0  0  0  0  0  0  0
  141.3910   71.5810  226.2200 C   0  0  0  0  0  0  0  0  0  0  0  0
  141.0190   72.0240  227.4700 C   0  0  0  0  0  0  0  0  0  0  0  0
  140.3520   71.2360  228.3420 N   0  0  0  0  0  0  0  0  0  0  0  0
  140.0300   69.9790  228.0040 C   0  0  0  0  0  0  0  0  0  0  0  0
  139.3570   69.2470  228.9380 F   0  0  0  0  0  0  0  0  0  0  0  0
  138.0225   69.0054  221.7612 H   0  0  0  0  0  0  0  0  0  0  0  0
  137.0022   70.3221  222.3628 H   0  0  0  0  0  0  0  0  0  0  0  0
  139.7864   70.4513  223.3932 H   0  0  0  0  0  0  0  0  0  0  0  0
  139.6741   70.5323  221.5788 H   0  0  0  0  0  0  0  0  0  0  0  0
  138.0940   72.3596  221.7675 H   0  0  0  0  0  0  0  0  0  0  0  0
  138.2821   72.3018  223.5730 H   0  0  0  0  0  0  0  0  0  0  0  0
  141.5396   70.8814  221.9621 H   0  0  0  0  0  0  0  0  0  0  0  0
  143.6470   71.0825  220.7129 H   0  0  0  0  0  0  0  0  0  0  0  0
  142.9697   75.2824  220.2906 H   0  0  0  0  0  0  0  0  0  0  0  0
  139.9380   68.3240  223.6290 H   0  0  0  0  0  0  0  0  0  0  0  0
  140.5059   67.2729  226.9660 H   0  0  0  0  0  0  0  0  0  0  0  0
  141.3295   69.8875  224.9017 H   0  0  0  0  0  0  0  0  0  0  0  0
  141.9333   72.2304  225.5170 H   0  0  0  0  0  0  0  0  0  0  0  0
  141.2729   73.0520  227.7680 H   0  0  0  0  0  0  0  0  0  0  0  0
  1  2  2  0
  2  3  1  0
  3  4  1  0
  4  5  1  0
  5  6  1  0
  6  7  1  0
  7  8  2  0
  8  9  1  0
  9 10  2  0
 10 11  1  0
 10 12  1  0
 12 13  2  0
 13 14  1  0
  2 15  1  0
 15 16  1  0
 16 17  2  0
 17 18  1  0
 18 19  2  0
 19 20  1  0
 20 21  2  0
 21 22  1  0
 22 23  2  0
 23 24  1  0
 13  7  1  0
 23 18  1  0
  3 25  1  0
  3 26  1  0
  4 27  1  0
  4 28  1  0
  5 29  1  0
  5 30  1  0
  8 31  1  0
  9 32  1  0
 12 33  1  0
 15 34  1  0
 17 35  1  0
 19 36  1  0
 20 37  1  0
 21 38  1  0
M  END
>  <smiles>  (35) 
O=C(CCCOc1ccc(Cl)cc1Cl)NN=Cc1cccnc1F

>  <score_type>  (35) 
oracle

>  <origin>  (35) 
autodockgpu

>  <m_score__min__energy>  (35) 
-7.4000000000000004

>  <m_primary>  (35) 
energy

>  <rmsd>  (35) 
10.371212985056449

>  <m_score__min__rmsd>  (35) 
10.371212985056449

>  <meeko>  (35) 
{"free_energy": -6.49, "intermolecular_energy": -8.88, "internal_energy": -0.99, "cluster_size": 3, "cluster_id": 4, "rank_in_cluster": 3}

>  <energy>  (35) 
-5.78

>  <cluster_rmsd>  (35) 
1.93

>  <cluster>  (35) 
6

$$$$

     RDKit          3D

 38 39  0  0  1  0  0  0  0  0999 V2000
  139.6460   73.9820  222.3840 O   0  0  0  0  0  0  0  0  0  0  0  0
  139.8010   74.8400  221.4800 C   0  0  0  0  0  0  0  0  0  0  0  0
  140.5690   74.5080  220.2290 C   0  0  0  0  0  0  0  0  0  0  0  0
  141.9280   75.1820  220.3800 C   0  0  0  0  0  0  0  0  0  0  0  0
  142.0510   76.4110  219.5530 C   0  0  0  0  0  0  0  0  0  0  0  0
  141.3570   77.4610  220.0840 O   0  0  0  0  0  0  0  0  0  0  0  0
  141.5390   78.3210  221.1020 C   0  0  0  0  0  0  0  0  0  0  0  0
  141.4630   78.0620  222.4480 C   0  0  0  0  0  0  0  0  0  0  0  0
  141.6710   79.0290  223.4220 C   0  0  0  0  0  0  0  0  0  0  0  0
  141.9720   80.3220  223.0640 C   0  0  0  0  0  0  0  0  0  0  0  0
  142.2490   81.6020  224.2260 Cl  0  0  0  0  0  0  0  0  0  0  0  0
  142.0560   80.6160  221.7220 C   0  0  0  0  0  0  0  0  0  0  0  0
  141.8480   79.6520  220.7640 C   0  0  0  0  0  0  0  0  0  0  0  0
  141.9810   80.1370  219.0860 Cl  0  0  0  0  0  0  0  0  0  0  0  0
  139.2820   76.1620  221.5560 N   0  0  0  0  0  0  0  0  0  0  0  0
  138.5500   76.5430  222.7040 N   0  0  0  0  0  0  0  0  0  0  0  0
  137.7310   77.5150  222.7210 C   0  0  0  0  0  0  0  0  0  0  0  0
  138.1090   78.9230  222.6350 C   0  0  0  0  0  0  0  0  0  0  0  0
  138.2510   79.6980  223.7900 C   0  0  0  0  0  0  0  0  0  0  0  0
  138.6080   81.0320  223.7250 C   0  0  0  0  0  0  0  0  0  0  0  0
  138.8170   81.5600  222.4710 C   0  0  0  0  0  0  0  0  0  0  0  0
  138.6820   80.8200  221.3480 N   0  0  0  0  0  0  0  0  0  0  0  0
  138.3350   79.5280  221.4300 C   0  0  0  0  0  0  0  0  0  0  0  0
  138.2210   78.8480  220.2540 F   0  0  0  0  0  0  0  0  0  0  0  0
  140.6909   73.4190  220.1328 H   0  0  0  0  0  0  0  0  0  0  0  0
  140.0433   74.8577  219.3283 H   0  0  0  0  0  0  0  0  0  0  0  0
  142.0718   75.4523  221.4365 H   0  0  0  0  0  0  0  0  0  0  0  0
  142.6931   74.4706  220.0358 H   0  0  0  0  0  0  0  0  0  0  0  0
  143.1136   76.6870  219.4842 H   0  0  0  0  0  0  0  0  0  0  0  0
  141.6291   76.1942  218.5605 H   0  0  0  0  0  0  0  0  0  0  0  0
  141.2255   77.0376  222.7707 H   0  0  0  0  0  0  0  0  0  0  0  0
  141.5946   78.7595  224.4857 H   0  0  0  0  0  0  0  0  0  0  0  0
  142.2944   81.6434  221.4095 H   0  0  0  0  0  0  0  0  0  0  0  0
  139.4120   76.8760  220.8030 H   0  0  0  0  0  0  0  0  0  0  0  0
  136.6602   77.2785  222.8067 H   0  0  0  0  0  0  0  0  0  0  0  0
  138.0747   79.2359  224.7725 H   0  0  0  0  0  0  0  0  0  0  0  0
  138.7198   81.6429  224.6329 H   0  0  0  0  0  0  0  0  0  0  0  0
  139.1031   82.6182  222.3799 H   0  0  0  0  0  0  0  0  0  0  0  0
  1  2  2  0
  2  3  1  0
  3  4  1  0
  4  5  1  0
  5  6  1  0
  6  7  1  0
  7  8  2  0
  8  9  1  0
  9 10  2  0
 10 11  1  0
 10 12  1  0
 12 13  2  0
 13 14  1  0
  2 15  1  0
 15 16  1  0
 16 17  2  0
 17 18  1  0
 18 19  2  0
 19 20  1  0
 20 21  2  0
 21 22  1  0
 22 23  2  0
 23 24  1  0
 13  7  1  0
 23 18  1  0
  3 25  1  0
  3 26  1  0
  4 27  1  0
  4 28  1  0
  5 29  1  0
  5 30  1  0
  8 31  1  0
  9 32  1  0
 12 33  1  0
 15 34  1  0
 17 35  1  0
 19 36  1  0
 20 37  1  0
 21 38  1  0
M  END
>  <smiles>  (36) 
O=C(CCCOc1ccc(Cl)cc1Cl)NN=Cc1cccnc1F

>  <score_type>  (36) 
oracle

>  <origin>  (36) 
autodockgpu

>  <m_score__min__energy>  (36) 
-7.4000000000000004

>  <m_primary>  (36) 
energy

>  <rmsd>  (36) 
5.786137163671868

>  <m_score__min__rmsd>  (36) 
5.786137163671868

>  <meeko>  (36) 
{"free_energy": -4.4, "intermolecular_energy": -6.79, "internal_energy": -2.94, "cluster_size": 2, "cluster_id": 12, "rank_in_cluster": 2}

>  <energy>  (36) 
-5.68

>  <cluster_rmsd>  (36) 
1.62

>  <cluster>  (36) 
6

$$$$

     RDKit          3D

 38 39  0  0  1  0  0  0  0  0999 V2000
  140.7690   73.6810  222.1890 O   0  0  0  0  0  0  0  0  0  0  0  0
  139.7420   72.9570  222.2100 C   0  0  0  0  0  0  0  0  0  0  0  0
  138.6760   73.1060  221.1580 C   0  0  0  0  0  0  0  0  0  0  0  0
  138.5140   74.6060  220.9360 C   0  0  0  0  0  0  0  0  0  0  0  0
  138.5760   75.3810  222.2030 C   0  0  0  0  0  0  0  0  0  0  0  0
  138.7370   76.7190  221.9810 O   0  0  0  0  0  0  0  0  0  0  0  0
  139.5420   77.6850  222.4560 C   0  0  0  0  0  0  0  0  0  0  0  0
  139.2340   78.6700  223.3620 C   0  0  0  0  0  0  0  0  0  0  0  0
  140.1470   79.6240  223.7900 C   0  0  0  0  0  0  0  0  0  0  0  0
  141.4350   79.6190  223.3080 C   0  0  0  0  0  0  0  0  0  0  0  0
  142.6490   80.7830  223.7920 Cl  0  0  0  0  0  0  0  0  0  0  0  0
  141.7770   78.6440  222.3970 C   0  0  0  0  0  0  0  0  0  0  0  0
  140.8670   77.7030  221.9790 C   0  0  0  0  0  0  0  0  0  0  0  0
  141.4110   76.5100  220.8190 Cl  0  0  0  0  0  0  0  0  0  0  0  0
  139.5030   71.9650  223.1990 N   0  0  0  0  0  0  0  0  0  0  0  0
  140.4640   71.7710  224.2190 N   0  0  0  0  0  0  0  0  0  0  0  0
  140.1740   71.3430  225.3800 C   0  0  0  0  0  0  0  0  0  0  0  0
  140.1070   69.9330  225.7560 C   0  0  0  0  0  0  0  0  0  0  0  0
  140.9510   69.4150  226.7420 C   0  0  0  0  0  0  0  0  0  0  0  0
  140.8990   68.0820  227.1090 C   0  0  0  0  0  0  0  0  0  0  0  0
  139.9790   67.2920  226.4570 C   0  0  0  0  0  0  0  0  0  0  0  0
  139.1580   67.7840  225.5020 N   0  0  0  0  0  0  0  0  0  0  0  0
  139.2230   69.0790  225.1600 C   0  0  0  0  0  0  0  0  0  0  0  0
  138.3620   69.4990  224.1890 F   0  0  0  0  0  0  0  0  0  0  0  0
  138.9873   72.6127  220.2254 H   0  0  0  0  0  0  0  0  0  0  0  0
  137.7305   72.6400  221.4725 H   0  0  0  0  0  0  0  0  0  0  0  0
  139.3188   74.9527  220.2711 H   0  0  0  0  0  0  0  0  0  0  0  0
  137.5214   74.7720  220.4920 H   0  0  0  0  0  0  0  0  0  0  0  0
  137.6408   75.2242  222.7605 H   0  0  0  0  0  0  0  0  0  0  0  0
  139.4464   75.0259  222.7743 H   0  0  0  0  0  0  0  0  0  0  0  0
  138.2126   78.7047  223.7689 H   0  0  0  0  0  0  0  0  0  0  0  0
  139.8386   80.3882  224.5187 H   0  0  0  0  0  0  0  0  0  0  0  0
  142.8007   78.6181  221.9954 H   0  0  0  0  0  0  0  0  0  0  0  0
  138.6470   71.3640  223.2160 H   0  0  0  0  0  0  0  0  0  0  0  0
  139.9576   72.0890  226.1589 H   0  0  0  0  0  0  0  0  0  0  0  0
  141.6724   70.0816  227.2372 H   0  0  0  0  0  0  0  0  0  0  0  0
  141.5618   67.6725  227.8855 H   0  0  0  0  0  0  0  0  0  0  0  0
  139.9097   66.2265  226.7215 H   0  0  0  0  0  0  0  0  0  0  0  0
  1  2  2  0
  2  3  1  0
  3  4  1  0
  4  5  1  0
  5  6  1  0
  6  7  1  0
  7  8  2  0
  8  9  1  0
  9 10  2  0
 10 11  1  0
 10 12  1  0
 12 13  2  0
 13 14  1  0
  2 15  1  0
 15 16  1  0
 16 17  2  0
 17 18  1  0
 18 19  2  0
 19 20  1  0
 20 21  2  0
 21 22  1  0
 22 23  2  0
 23 24  1  0
 13  7  1  0
 23 18  1  0
  3 25  1  0
  3 26  1  0
  4 27  1  0
  4 28  1  0
  5 29  1  0
  5 30  1  0
  8 31  1  0
  9 32  1  0
 12 33  1  0
 15 34  1  0
 17 35  1  0
 19 36  1  0
 20 37  1  0
 21 38  1  0
M  END
>  <smiles>  (37) 
O=C(CCCOc1ccc(Cl)cc1Cl)NN=Cc1cccnc1F

>  <score_type>  (37) 
oracle

>  <origin>  (37) 
autodockgpu

>  <m_score__min__energy>  (37) 
-7.4000000000000004

>  <m_primary>  (37) 
energy

>  <rmsd>  (37) 
6.260119800697289

>  <m_score__min__rmsd>  (37) 
6.260119800697289

>  <meeko>  (37) 
{"free_energy": -6.78, "intermolecular_energy": -9.17, "internal_energy": -0.73, "cluster_size": 10, "cluster_id": 2, "rank_in_cluster": 3}

>  <energy>  (37) 
-6.18

>  <cluster_rmsd>  (37) 
0.0

>  <cluster>  (37) 
7

$$$$

     RDKit          3D

 38 39  0  0  1  0  0  0  0  0999 V2000
  141.0780   74.3830  221.9900 O   0  0  0  0  0  0  0  0  0  0  0  0
  139.9280   73.8890  221.8870 C   0  0  0  0  0  0  0  0  0  0  0  0
  138.9530   74.4190  220.8700 C   0  0  0  0  0  0  0  0  0  0  0  0
  137.7110   74.8290  221.6540 C   0  0  0  0  0  0  0  0  0  0  0  0
  137.9140   76.0800  222.4300 C   0  0  0  0  0  0  0  0  0  0  0  0
  138.9210   76.8480  221.9170 O   0  0  0  0  0  0  0  0  0  0  0  0
  139.7460   77.7970  222.3910 C   0  0  0  0  0  0  0  0  0  0  0  0
  139.5160   78.6810  223.4170 C   0  0  0  0  0  0  0  0  0  0  0  0
  140.4430   79.6270  223.8300 C   0  0  0  0  0  0  0  0  0  0  0  0
  141.6660   79.7190  223.2080 C   0  0  0  0  0  0  0  0  0  0  0  0
  142.8930   80.8820  223.6640 Cl  0  0  0  0  0  0  0  0  0  0  0  0
  141.9300   78.8480  222.1750 C   0  0  0  0  0  0  0  0  0  0  0  0
  141.0060   77.9140  221.7720 C   0  0  0  0  0  0  0  0  0  0  0  0
  141.4470   76.8570  220.4480 Cl  0  0  0  0  0  0  0  0  0  0  0  0
  139.4570   72.8210  222.6990 N   0  0  0  0  0  0  0  0  0  0  0  0
  140.3210   72.2750  223.6760 N   0  0  0  0  0  0  0  0  0  0  0  0
  140.1270   71.1460  224.2280 C   0  0  0  0  0  0  0  0  0  0  0  0
  140.2550   70.8870  225.6600 C   0  0  0  0  0  0  0  0  0  0  0  0
  140.9200   71.7900  226.4940 C   0  0  0  0  0  0  0  0  0  0  0  0
  141.0480   71.5590  227.8510 C   0  0  0  0  0  0  0  0  0  0  0  0
  140.4920   70.3980  228.3410 C   0  0  0  0  0  0  0  0  0  0  0  0
  139.8470   69.5180  227.5420 N   0  0  0  0  0  0  0  0  0  0  0  0
  139.7320   69.7600  226.2290 C   0  0  0  0  0  0  0  0  0  0  0  0
  139.0670   68.8250  225.4900 F   0  0  0  0  0  0  0  0  0  0  0  0
  139.3797   75.2880  220.3478 H   0  0  0  0  0  0  0  0  0  0  0  0
  138.7167   73.6638  220.1060 H   0  0  0  0  0  0  0  0  0  0  0  0
  136.8826   74.9832  220.9469 H   0  0  0  0  0  0  0  0  0  0  0  0
  137.4876   74.0245  222.3701 H   0  0  0  0  0  0  0  0  0  0  0  0
  136.9809   76.6623  222.4137 H   0  0  0  0  0  0  0  0  0  0  0  0
  138.1928   75.7992  223.4564 H   0  0  0  0  0  0  0  0  0  0  0  0
  138.5479   78.6366  223.9374 H   0  0  0  0  0  0  0  0  0  0  0  0
  140.1984   80.3070  224.6593 H   0  0  0  0  0  0  0  0  0  0  0  0
  142.9012   78.9008  221.6613 H   0  0  0  0  0  0  0  0  0  0  0  0
  138.4990   72.4120  222.6130 H   0  0  0  0  0  0  0  0  0  0  0  0
  139.8422   70.3036  223.5805 H   0  0  0  0  0  0  0  0  0  0  0  0
  141.3511   72.7048  226.0611 H   0  0  0  0  0  0  0  0  0  0  0  0
  141.5698   72.2695  228.5090 H   0  0  0  0  0  0  0  0  0  0  0  0
  140.5752   70.1798  229.4159 H   0  0  0  0  0  0  0  0  0  0  0  0
  1  2  2  0
  2  3  1  0
  3  4  1  0
  4  5  1  0
  5  6  1  0
  6  7  1  0
  7  8  2  0
  8  9  1  0
  9 10  2  0
 10 11  1  0
 10 12  1  0
 12 13  2  0
 13 14  1  0
  2 15  1  0
 15 16  1  0
 16 17  2  0
 17 18  1  0
 18 19  2  0
 19 20  1  0
 20 21  2  0
 21 22  1  0
 22 23  2  0
 23 24  1  0
 13  7  1  0
 23 18  1  0
  3 25  1  0
  3 26  1  0
  4 27  1  0
  4 28  1  0
  5 29  1  0
  5 30  1  0
  8 31  1  0
  9 32  1  0
 12 33  1  0
 15 34  1  0
 17 35  1  0
 19 36  1  0
 20 37  1  0
 21 38  1  0
M  END
>  <smiles>  (38) 
O=C(CCCOc1ccc(Cl)cc1Cl)NN=Cc1cccnc1F

>  <score_type>  (38) 
oracle

>  <origin>  (38) 
autodockgpu

>  <m_score__min__energy>  (38) 
-7.4000000000000004

>  <m_primary>  (38) 
energy

>  <rmsd>  (38) 
5.924178964400767

>  <m_score__min__rmsd>  (38) 
5.924178964400767

>  <meeko>  (38) 
{"free_energy": -6.62, "intermolecular_energy": -9.0, "internal_energy": -0.84, "cluster_size": 10, "cluster_id": 2, "rank_in_cluster": 4}

>  <energy>  (38) 
-5.98

>  <cluster_rmsd>  (38) 
1.23

>  <cluster>  (38) 
7

$$$$

     RDKit          3D

 38 39  0  0  1  0  0  0  0  0999 V2000
  140.0430   74.1550  221.9780 O   0  0  0  0  0  0  0  0  0  0  0  0
  140.9980   74.8850  221.6140 C   0  0  0  0  0  0  0  0  0  0  0  0
  142.1560   74.3080  220.8450 C   0  0  0  0  0  0  0  0  0  0  0  0
  142.1550   75.0160  219.4940 C   0  0  0  0  0  0  0  0  0  0  0  0
  142.8350   76.3370  219.5410 C   0  0  0  0  0  0  0  0  0  0  0  0
  141.9500   77.3750  219.4740 O   0  0  0  0  0  0  0  0  0  0  0  0
  142.0110   78.6720  219.1270 C   0  0  0  0  0  0  0  0  0  0  0  0
  141.7850   79.7700  219.9220 C   0  0  0  0  0  0  0  0  0  0  0  0
  141.8760   81.0760  219.4610 C   0  0  0  0  0  0  0  0  0  0  0  0
  142.2060   81.3280  218.1500 C   0  0  0  0  0  0  0  0  0  0  0  0
  142.3420   82.9420  217.4860 Cl  0  0  0  0  0  0  0  0  0  0  0  0
  142.4390   80.2500  217.3260 C   0  0  0  0  0  0  0  0  0  0  0  0
  142.3470   78.9600  217.7910 C   0  0  0  0  0  0  0  0  0  0  0  0
  142.6640   77.6660  216.6550 Cl  0  0  0  0  0  0  0  0  0  0  0  0
  141.0690   76.2780  221.8890 N   0  0  0  0  0  0  0  0  0  0  0  0
  140.0150   76.8860  222.6090 N   0  0  0  0  0  0  0  0  0  0  0  0
  139.7320   78.1230  222.5230 C   0  0  0  0  0  0  0  0  0  0  0  0
  140.6150   79.2100  222.9360 C   0  0  0  0  0  0  0  0  0  0  0  0
  140.3210   80.5360  222.6040 C   0  0  0  0  0  0  0  0  0  0  0  0
  141.1470   81.5760  222.9890 C   0  0  0  0  0  0  0  0  0  0  0  0
  142.2710   81.2440  223.7110 C   0  0  0  0  0  0  0  0  0  0  0  0
  142.5650   79.9650  224.0360 N   0  0  0  0  0  0  0  0  0  0  0  0
  141.7510   78.9700  223.6550 C   0  0  0  0  0  0  0  0  0  0  0  0
  142.1150   77.7070  224.0220 F   0  0  0  0  0  0  0  0  0  0  0  0
  143.1005   74.4980  221.3759 H   0  0  0  0  0  0  0  0  0  0  0  0
  142.0614   73.2181  220.7299 H   0  0  0  0  0  0  0  0  0  0  0  0
  142.6728   74.3789  218.7619 H   0  0  0  0  0  0  0  0  0  0  0  0
  141.1068   75.1905  219.2098 H   0  0  0  0  0  0  0  0  0  0  0  0
  143.3986   76.4121  220.4827 H   0  0  0  0  0  0  0  0  0  0  0  0
  143.5021   76.4049  218.6690 H   0  0  0  0  0  0  0  0  0  0  0  0
  141.5186   79.6056  220.9765 H   0  0  0  0  0  0  0  0  0  0  0  0
  141.6832   81.9135  220.1476 H   0  0  0  0  0  0  0  0  0  0  0  0
  142.7045   80.4249  216.2729 H   0  0  0  0  0  0  0  0  0  0  0  0
  141.8650   76.8850  221.5860 H   0  0  0  0  0  0  0  0  0  0  0  0
  138.7503   78.3937  222.1071 H   0  0  0  0  0  0  0  0  0  0  0  0
  139.4128   80.7567  222.0239 H   0  0  0  0  0  0  0  0  0  0  0  0
  140.9166   82.6200  222.7303 H   0  0  0  0  0  0  0  0  0  0  0  0
  142.9520   82.0452  224.0340 H   0  0  0  0  0  0  0  0  0  0  0  0
  1  2  2  0
  2  3  1  0
  3  4  1  0
  4  5  1  0
  5  6  1  0
  6  7  1  0
  7  8  2  0
  8  9  1  0
  9 10  2  0
 10 11  1  0
 10 12  1  0
 12 13  2  0
 13 14  1  0
  2 15  1  0
 15 16  1  0
 16 17  2  0
 17 18  1  0
 18 19  2  0
 19 20  1  0
 20 21  2  0
 21 22  1  0
 22 23  2  0
 23 24  1  0
 13  7  1  0
 23 18  1  0
  3 25  1  0
  3 26  1  0
  4 27  1  0
  4 28  1  0
  5 29  1  0
  5 30  1  0
  8 31  1  0
  9 32  1  0
 12 33  1  0
 15 34  1  0
 17 35  1  0
 19 36  1  0
 20 37  1  0
 21 38  1  0
M  END
>  <smiles>  (39) 
O=C(CCCOc1ccc(Cl)cc1Cl)NN=Cc1cccnc1F

>  <score_type>  (39) 
oracle

>  <origin>  (39) 
autodockgpu

>  <m_score__min__energy>  (39) 
-7.4000000000000004

>  <m_primary>  (39) 
energy

>  <rmsd>  (39) 
6.275480316971919

>  <m_score__min__rmsd>  (39) 
6.275480316971919

>  <meeko>  (39) 
{"free_energy": -5.52, "intermolecular_energy": -7.9, "internal_energy": -1.85, "cluster_size": 5, "cluster_id": 8, "rank_in_cluster": 2}

>  <energy>  (39) 
-5.78

>  <cluster_rmsd>  (39) 
1.38

>  <cluster>  (39) 
7

$$$$

     RDKit          3D

 38 39  0  0  1  0  0  0  0  0999 V2000
  139.3390   74.9210  221.7980 O   0  0  0  0  0  0  0  0  0  0  0  0
  140.5750   74.8200  221.5950 C   0  0  0  0  0  0  0  0  0  0  0  0
  141.2360   73.4690  221.5380 C   0  0  0  0  0  0  0  0  0  0  0  0
  140.1100   72.4470  221.6370 C   0  0  0  0  0  0  0  0  0  0  0  0
  139.6600   72.2280  223.0370 C   0  0  0  0  0  0  0  0  0  0  0  0
  140.0420   71.0070  223.5150 O   0  0  0  0  0  0  0  0  0  0  0  0
  140.2620   70.4720  224.7290 C   0  0  0  0  0  0  0  0  0  0  0  0
  140.9500   71.0240  225.7820 C   0  0  0  0  0  0  0  0  0  0  0  0
  141.1180   70.3830  227.0020 C   0  0  0  0  0  0  0  0  0  0  0  0
  140.5840   69.1330  227.2090 C   0  0  0  0  0  0  0  0  0  0  0  0
  140.7480   68.2540  228.7140 Cl  0  0  0  0  0  0  0  0  0  0  0  0
  139.8870   68.5510  226.1730 C   0  0  0  0  0  0  0  0  0  0  0  0
  139.7260   69.1920  224.9690 C   0  0  0  0  0  0  0  0  0  0  0  0
  138.8220   68.3590  223.7220 Cl  0  0  0  0  0  0  0  0  0  0  0  0
  141.4330   75.9390  221.4070 N   0  0  0  0  0  0  0  0  0  0  0  0
  140.8780   77.2390  221.4480 N   0  0  0  0  0  0  0  0  0  0  0  0
  140.5550   77.8270  222.5280 C   0  0  0  0  0  0  0  0  0  0  0  0
  141.1300   79.0860  222.9940 C   0  0  0  0  0  0  0  0  0  0  0  0
  142.5090   79.3110  222.9280 C   0  0  0  0  0  0  0  0  0  0  0  0
  143.0680   80.4980  223.3650 C   0  0  0  0  0  0  0  0  0  0  0  0
  142.2040   81.4450  223.8680 C   0  0  0  0  0  0  0  0  0  0  0  0
  140.8700   81.2380  223.9350 N   0  0  0  0  0  0  0  0  0  0  0  0
  140.3460   80.0810  223.5070 C   0  0  0  0  0  0  0  0  0  0  0  0
  138.9920   79.9470  223.6070 F   0  0  0  0  0  0  0  0  0  0  0  0
  141.7791   73.3488  220.5890 H   0  0  0  0  0  0  0  0  0  0  0  0
  141.9673   73.3433  222.3500 H   0  0  0  0  0  0  0  0  0  0  0  0
  139.2556   72.8052  221.0440 H   0  0  0  0  0  0  0  0  0  0  0  0
  140.4941   71.4892  221.2562 H   0  0  0  0  0  0  0  0  0  0  0  0
  140.0950   73.0108  223.6758 H   0  0  0  0  0  0  0  0  0  0  0  0
  138.5608   72.2675  223.0493 H   0  0  0  0  0  0  0  0  0  0  0  0
  141.3898   72.0239  225.6521 H   0  0  0  0  0  0  0  0  0  0  0  0
  141.6812   70.8777  227.8071 H   0  0  0  0  0  0  0  0  0  0  0  0
  139.4499   67.5513  226.3131 H   0  0  0  0  0  0  0  0  0  0  0  0
  142.4610   75.8530  221.2390 H   0  0  0  0  0  0  0  0  0  0  0  0
  139.7869   77.3532  223.1569 H   0  0  0  0  0  0  0  0  0  0  0  0
  143.1631   78.5266  222.5195 H   0  0  0  0  0  0  0  0  0  0  0  0
  144.1520   80.6773  223.3132 H   0  0  0  0  0  0  0  0  0  0  0  0
  142.6128   82.4011  224.2269 H   0  0  0  0  0  0  0  0  0  0  0  0
  1  2  2  0
  2  3  1  0
  3  4  1  0
  4  5  1  0
  5  6  1  0
  6  7  1  0
  7  8  2  0
  8  9  1  0
  9 10  2  0
 10 11  1  0
 10 12  1  0
 12 13  2  0
 13 14  1  0
  2 15  1  0
 15 16  1  0
 16 17  2  0
 17 18  1  0
 18 19  2  0
 19 20  1  0
 20 21  2  0
 21 22  1  0
 22 23  2  0
 23 24  1  0
 13  7  1  0
 23 18  1  0
  3 25  1  0
  3 26  1  0
  4 27  1  0
  4 28  1  0
  5 29  1  0
  5 30  1  0
  8 31  1  0
  9 32  1  0
 12 33  1  0
 15 34  1  0
 17 35  1  0
 19 36  1  0
 20 37  1  0
 21 38  1  0
M  END
>  <smiles>  (40) 
O=C(CCCOc1ccc(Cl)cc1Cl)NN=Cc1cccnc1F

>  <score_type>  (40) 
oracle

>  <origin>  (40) 
autodockgpu

>  <m_score__min__energy>  (40) 
-7.4000000000000004

>  <m_primary>  (40) 
energy

>  <rmsd>  (40) 
12.834016329523624

>  <m_score__min__rmsd>  (40) 
12.834016329523624

>  <meeko>  (40) 
{"free_energy": -6.95, "intermolecular_energy": -9.33, "internal_energy": -0.51, "cluster_size": 7, "cluster_id": 1, "rank_in_cluster": 3}

>  <energy>  (40) 
-5.76

>  <cluster_rmsd>  (40) 
1.27

>  <cluster>  (40) 
7

$$$$

     RDKit          3D

 38 39  0  0  1  0  0  0  0  0999 V2000
  141.7100   74.8080  221.1680 O   0  0  0  0  0  0  0  0  0  0  0  0
  140.8350   74.0010  221.5690 C   0  0  0  0  0  0  0  0  0  0  0  0
  140.9330   72.5350  221.2400 C   0  0  0  0  0  0  0  0  0  0  0  0
  139.5170   72.0900  220.8900 C   0  0  0  0  0  0  0  0  0  0  0  0
  138.9580   71.1340  221.8810 C   0  0  0  0  0  0  0  0  0  0  0  0
  139.0750   71.5920  223.1620 O   0  0  0  0  0  0  0  0  0  0  0  0
  139.5590   71.1070  224.3190 C   0  0  0  0  0  0  0  0  0  0  0  0
  140.6780   71.5130  225.0030 C   0  0  0  0  0  0  0  0  0  0  0  0
  141.0910   70.9410  226.1980 C   0  0  0  0  0  0  0  0  0  0  0  0
  140.3710   69.9140  226.7610 C   0  0  0  0  0  0  0  0  0  0  0  0
  140.8180   69.1360  228.2640 Cl  0  0  0  0  0  0  0  0  0  0  0  0
  139.2420   69.4820  226.1010 C   0  0  0  0  0  0  0  0  0  0  0  0
  138.8410   70.0540  224.9180 C   0  0  0  0  0  0  0  0  0  0  0  0
  137.3900   69.4260  224.1660 Cl  0  0  0  0  0  0  0  0  0  0  0  0
  139.7080   74.3880  222.3450 N   0  0  0  0  0  0  0  0  0  0  0  0
  139.5540   75.7500  222.6910 N   0  0  0  0  0  0  0  0  0  0  0  0
  139.7070   76.7030  221.8640 C   0  0  0  0  0  0  0  0  0  0  0  0
  140.6410   77.8120  222.0360 C   0  0  0  0  0  0  0  0  0  0  0  0
  141.2110   78.0810  223.2840 C   0  0  0  0  0  0  0  0  0  0  0  0
  142.0990   79.1270  223.4610 C   0  0  0  0  0  0  0  0  0  0  0  0
  142.3920   79.8900  222.3530 C   0  0  0  0  0  0  0  0  0  0  0  0
  141.8460   79.6380  221.1420 N   0  0  0  0  0  0  0  0  0  0  0  0
  140.9880   78.6190  220.9890 C   0  0  0  0  0  0  0  0  0  0  0  0
  140.4810   78.4290  219.7370 F   0  0  0  0  0  0  0  0  0  0  0  0
  141.6058   72.3791  220.3838 H   0  0  0  0  0  0  0  0  0  0  0  0
  141.3410   71.9581  222.0831 H   0  0  0  0  0  0  0  0  0  0  0  0
  138.8681   72.9774  220.8514 H   0  0  0  0  0  0  0  0  0  0  0  0
  139.5594   71.5764  219.9182 H   0  0  0  0  0  0  0  0  0  0  0  0
  137.8928   70.9746  221.6576 H   0  0  0  0  0  0  0  0  0  0  0  0
  139.5277   70.1962  221.8042 H   0  0  0  0  0  0  0  0  0  0  0  0
  141.2778   72.3336  224.5824 H   0  0  0  0  0  0  0  0  0  0  0  0
  141.9987   71.3110  226.6971 H   0  0  0  0  0  0  0  0  0  0  0  0
  138.6486   68.6613  226.5303 H   0  0  0  0  0  0  0  0  0  0  0  0
  138.9800   73.7150  222.6780 H   0  0  0  0  0  0  0  0  0  0  0  0
  139.0911   76.6914  220.9527 H   0  0  0  0  0  0  0  0  0  0  0  0
  140.9477   77.4473  224.1437 H   0  0  0  0  0  0  0  0  0  0  0  0
  142.5501   79.3393  224.4415 H   0  0  0  0  0  0  0  0  0  0  0  0
  143.0928   80.7316  222.4563 H   0  0  0  0  0  0  0  0  0  0  0  0
  1  2  2  0
  2  3  1  0
  3  4  1  0
  4  5  1  0
  5  6  1  0
  6  7  1  0
  7  8  2  0
  8  9  1  0
  9 10  2  0
 10 11  1  0
 10 12  1  0
 12 13  2  0
 13 14  1  0
  2 15  1  0
 15 16  1  0
 16 17  2  0
 17 18  1  0
 18 19  2  0
 19 20  1  0
 20 21  2  0
 21 22  1  0
 22 23  2  0
 23 24  1  0
 13  7  1  0
 23 18  1  0
  3 25  1  0
  3 26  1  0
  4 27  1  0
  4 28  1  0
  5 29  1  0
  5 30  1  0
  8 31  1  0
  9 32  1  0
 12 33  1  0
 15 34  1  0
 17 35  1  0
 19 36  1  0
 20 37  1  0
 21 38  1  0
M  END
>  <smiles>  (41) 
O=C(CCCOc1ccc(Cl)cc1Cl)NN=Cc1cccnc1F

>  <score_type>  (41) 
oracle

>  <origin>  (41) 
autodockgpu

>  <m_score__min__energy>  (41) 
-7.4000000000000004

>  <m_primary>  (41) 
energy

>  <rmsd>  (41) 
12.571848144815501

>  <m_score__min__rmsd>  (41) 
12.571848144815501

>  <meeko>  (41) 
{"free_energy": -5.9, "intermolecular_energy": -8.29, "internal_energy": -1.32, "cluster_size": 7, "cluster_id": 1, "rank_in_cluster": 7}

>  <energy>  (41) 
-5.91

>  <cluster_rmsd>  (41) 
0.0

>  <cluster>  (41) 
8

$$$$

     RDKit          3D

 38 39  0  0  1  0  0  0  0  0999 V2000
  139.9400   73.7390  222.5440 O   0  0  0  0  0  0  0  0  0  0  0  0
  140.5600   72.8310  221.9350 C   0  0  0  0  0  0  0  0  0  0  0  0
  141.1890   73.0980  220.5940 C   0  0  0  0  0  0  0  0  0  0  0  0
  142.1280   74.2810  220.8010 C   0  0  0  0  0  0  0  0  0  0  0  0
  141.4190   75.5860  220.7570 C   0  0  0  0  0  0  0  0  0  0  0  0
  141.1080   76.0460  222.0050 O   0  0  0  0  0  0  0  0  0  0  0  0
  140.6160   77.1870  222.5170 C   0  0  0  0  0  0  0  0  0  0  0  0
  141.3140   78.2360  223.0640 C   0  0  0  0  0  0  0  0  0  0  0  0
  140.7040   79.3770  223.5670 C   0  0  0  0  0  0  0  0  0  0  0  0
  139.3360   79.5050  223.5340 C   0  0  0  0  0  0  0  0  0  0  0  0
  138.4850   80.9080  224.1460 Cl  0  0  0  0  0  0  0  0  0  0  0  0
  138.6050   78.4710  222.9920 C   0  0  0  0  0  0  0  0  0  0  0  0
  139.2170   77.3450  222.4970 C   0  0  0  0  0  0  0  0  0  0  0  0
  138.1910   76.0930  221.8300 Cl  0  0  0  0  0  0  0  0  0  0  0  0
  140.7160   71.5120  222.4420 N   0  0  0  0  0  0  0  0  0  0  0  0
  140.1490   71.1920  223.6970 N   0  0  0  0  0  0  0  0  0  0  0  0
  140.6750   71.5220  224.8070 C   0  0  0  0  0  0  0  0  0  0  0  0
  140.6650   70.6960  226.0110 C   0  0  0  0  0  0  0  0  0  0  0  0
  140.3720   69.3310  225.9400 C   0  0  0  0  0  0  0  0  0  0  0  0
  140.3600   68.5360  227.0720 C   0  0  0  0  0  0  0  0  0  0  0  0
  140.6480   69.1520  228.2690 C   0  0  0  0  0  0  0  0  0  0  0  0
  140.9320   70.4720  228.3480 N   0  0  0  0  0  0  0  0  0  0  0  0
  140.9400   71.2270  227.2400 C   0  0  0  0  0  0  0  0  0  0  0  0
  141.2370   72.5480  227.4020 F   0  0  0  0  0  0  0  0  0  0  0  0
  141.7528   72.2170  220.2536 H   0  0  0  0  0  0  0  0  0  0  0  0
  140.4300   73.3141  219.8277 H   0  0  0  0  0  0  0  0  0  0  0  0
  142.6149   74.1772  221.7819 H   0  0  0  0  0  0  0  0  0  0  0  0
  142.8618   74.2720  219.9816 H   0  0  0  0  0  0  0  0  0  0  0  0
  142.0650   76.3236  220.2583 H   0  0  0  0  0  0  0  0  0  0  0  0
  140.4780   75.4410  220.2061 H   0  0  0  0  0  0  0  0  0  0  0  0
  142.4111   78.1685  223.1055 H   0  0  0  0  0  0  0  0  0  0  0  0
  141.3188   80.1829  223.9943 H   0  0  0  0  0  0  0  0  0  0  0  0
  137.5084   78.5484  222.9547 H   0  0  0  0  0  0  0  0  0  0  0  0
  141.2310   70.7580  221.9340 H   0  0  0  0  0  0  0  0  0  0  0  0
  141.1737   72.5008  224.8641 H   0  0  0  0  0  0  0  0  0  0  0  0
  140.1461   68.8793  224.9628 H   0  0  0  0  0  0  0  0  0  0  0  0
  140.1310   67.4615  227.0182 H   0  0  0  0  0  0  0  0  0  0  0  0
  140.6471   68.5515  229.1906 H   0  0  0  0  0  0  0  0  0  0  0  0
  1  2  2  0
  2  3  1  0
  3  4  1  0
  4  5  1  0
  5  6  1  0
  6  7  1  0
  7  8  2  0
  8  9  1  0
  9 10  2  0
 10 11  1  0
 10 12  1  0
 12 13  2  0
 13 14  1  0
  2 15  1  0
 15 16  1  0
 16 17  2  0
 17 18  1  0
 18 19  2  0
 19 20  1  0
 20 21  2  0
 21 22  1  0
 22 23  2  0
 23 24  1  0
 13  7  1  0
 23 18  1  0
  3 25  1  0
  3 26  1  0
  4 27  1  0
  4 28  1  0
  5 29  1  0
  5 30  1  0
  8 31  1  0
  9 32  1  0
 12 33  1  0
 15 34  1  0
 17 35  1  0
 19 36  1  0
 20 37  1  0
 21 38  1  0
M  END
>  <smiles>  (42) 
O=C(CCCOc1ccc(Cl)cc1Cl)NN=Cc1cccnc1F

>  <score_type>  (42) 
oracle

>  <origin>  (42) 
autodockgpu

>  <m_score__min__energy>  (42) 
-7.4000000000000004

>  <m_primary>  (42) 
energy

>  <rmsd>  (42) 
6.555252630814083

>  <m_score__min__rmsd>  (42) 
6.555252630814083

>  <meeko>  (42) 
{"free_energy": -6.62, "intermolecular_energy": -9.01, "internal_energy": -0.63, "cluster_size": 9, "cluster_id": 3, "rank_in_cluster": 2}

>  <energy>  (42) 
-5.52

>  <cluster_rmsd>  (42) 
1.22

>  <cluster>  (42) 
8

$$$$

     RDKit          3D

 38 39  0  0  1  0  0  0  0  0999 V2000
  139.1910   74.7280  222.3460 O   0  0  0  0  0  0  0  0  0  0  0  0
  140.3760   74.5570  221.9680 C   0  0  0  0  0  0  0  0  0  0  0  0
  140.8540   73.1990  221.5290 C   0  0  0  0  0  0  0  0  0  0  0  0
  139.6060   72.3310  221.4200 C   0  0  0  0  0  0  0  0  0  0  0  0
  139.1350   71.8390  222.7410 C   0  0  0  0  0  0  0  0  0  0  0  0
  140.0560   71.0350  223.3490 O   0  0  0  0  0  0  0  0  0  0  0  0
  140.2530   70.5650  224.5940 C   0  0  0  0  0  0  0  0  0  0  0  0
  140.9300   71.1680  225.6260 C   0  0  0  0  0  0  0  0  0  0  0  0
  141.0750   70.5930  226.8800 C   0  0  0  0  0  0  0  0  0  0  0  0
  140.5290   69.3590  227.1460 C   0  0  0  0  0  0  0  0  0  0  0  0
  140.6640   68.5610  228.6980 Cl  0  0  0  0  0  0  0  0  0  0  0  0
  139.8430   68.7270  226.1330 C   0  0  0  0  0  0  0  0  0  0  0  0
  139.7050   69.3030  224.8930 C   0  0  0  0  0  0  0  0  0  0  0  0
  138.8130   68.4100  223.6800 Cl  0  0  0  0  0  0  0  0  0  0  0  0
  141.3430   75.5990  221.9220 N   0  0  0  0  0  0  0  0  0  0  0  0
  140.9620   76.9010  222.3200 N   0  0  0  0  0  0  0  0  0  0  0  0
  141.2800   77.9500  221.6770 C   0  0  0  0  0  0  0  0  0  0  0  0
  141.5630   79.2470  222.2860 C   0  0  0  0  0  0  0  0  0  0  0  0
  141.5140   80.4200  221.5260 C   0  0  0  0  0  0  0  0  0  0  0  0
  141.7790   81.6550  222.0890 C   0  0  0  0  0  0  0  0  0  0  0  0
  142.0920   81.6750  223.4300 C   0  0  0  0  0  0  0  0  0  0  0  0
  142.1420   80.5460  224.1730 N   0  0  0  0  0  0  0  0  0  0  0  0
  141.8820   79.3570  223.6100 C   0  0  0  0  0  0  0  0  0  0  0  0
  141.9510   78.2660  224.4250 F   0  0  0  0  0  0  0  0  0  0  0  0
  141.3584   73.2679  220.5539 H   0  0  0  0  0  0  0  0  0  0  0  0
  141.5784   72.7766  222.2410 H   0  0  0  0  0  0  0  0  0  0  0  0
  138.8032   72.9246  220.9584 H   0  0  0  0  0  0  0  0  0  0  0  0
  139.8632   71.4527  220.8097 H   0  0  0  0  0  0  0  0  0  0  0  0
  138.9355   72.7038  223.3908 H   0  0  0  0  0  0  0  0  0  0  0  0
  138.2242   71.2448  222.5755 H   0  0  0  0  0  0  0  0  0  0  0  0
  141.3796   72.1562  225.4492 H   0  0  0  0  0  0  0  0  0  0  0  0
  141.6296   71.1268  227.6658 H   0  0  0  0  0  0  0  0  0  0  0  0
  139.3958   67.7397  226.3204 H   0  0  0  0  0  0  0  0  0  0  0  0
  142.3290   75.4550  221.6070 H   0  0  0  0  0  0  0  0  0  0  0  0
  141.3470   77.8757  220.5816 H   0  0  0  0  0  0  0  0  0  0  0  0
  141.2593   80.3589  220.4576 H   0  0  0  0  0  0  0  0  0  0  0  0
  141.7415   82.5789  221.4931 H   0  0  0  0  0  0  0  0  0  0  0  0
  142.3082   82.6398  223.9121 H   0  0  0  0  0  0  0  0  0  0  0  0
  1  2  2  0
  2  3  1  0
  3  4  1  0
  4  5  1  0
  5  6  1  0
  6  7  1  0
  7  8  2  0
  8  9  1  0
  9 10  2  0
 10 11  1  0
 10 12  1  0
 12 13  2  0
 13 14  1  0
  2 15  1  0
 15 16  1  0
 16 17  2  0
 17 18  1  0
 18 19  2  0
 19 20  1  0
 20 21  2  0
 21 22  1  0
 22 23  2  0
 23 24  1  0
 13  7  1  0
 23 18  1  0
  3 25  1  0
  3 26  1  0
  4 27  1  0
  4 28  1  0
  5 29  1  0
  5 30  1  0
  8 31  1  0
  9 32  1  0
 12 33  1  0
 15 34  1  0
 17 35  1  0
 19 36  1  0
 20 37  1  0
 21 38  1  0
M  END
>  <smiles>  (43) 
O=C(CCCOc1ccc(Cl)cc1Cl)NN=Cc1cccnc1F

>  <score_type>  (43) 
oracle

>  <origin>  (43) 
autodockgpu

>  <m_score__min__energy>  (43) 
-7.4000000000000004

>  <m_primary>  (43) 
energy

>  <rmsd>  (43) 
12.804298099689287

>  <m_score__min__rmsd>  (43) 
12.804298099689287

>  <meeko>  (43) 
{"free_energy": -6.83, "intermolecular_energy": -9.21, "internal_energy": -0.54, "cluster_size": 7, "cluster_id": 1, "rank_in_cluster": 4}

>  <energy>  (43) 
-5.46

>  <cluster_rmsd>  (43) 
1.39

>  <cluster>  (43) 
8

$$$$

     RDKit          3D

 38 39  0  0  1  0  0  0  0  0999 V2000
  139.5230   74.4230  222.2150 O   0  0  0  0  0  0  0  0  0  0  0  0
  140.5960   74.6380  221.5970 C   0  0  0  0  0  0  0  0  0  0  0  0
  141.1500   73.6140  220.6430 C   0  0  0  0  0  0  0  0  0  0  0  0
  141.6650   72.4700  221.5100 C   0  0  0  0  0  0  0  0  0  0  0  0
  140.5940   71.5080  221.8810 C   0  0  0  0  0  0  0  0  0  0  0  0
  140.1140   71.7320  223.1390 O   0  0  0  0  0  0  0  0  0  0  0  0
  140.2450   71.1420  224.3400 C   0  0  0  0  0  0  0  0  0  0  0  0
  141.0300   71.5410  225.3950 C   0  0  0  0  0  0  0  0  0  0  0  0
  141.0920   70.8550  226.6000 C   0  0  0  0  0  0  0  0  0  0  0  0
  140.3460   69.7160  226.7900 C   0  0  0  0  0  0  0  0  0  0  0  0
  140.3650   68.7910  228.2760 Cl  0  0  0  0  0  0  0  0  0  0  0  0
  139.5480   69.2880  225.7530 C   0  0  0  0  0  0  0  0  0  0  0  0
  139.4920   69.9730  224.5630 C   0  0  0  0  0  0  0  0  0  0  0  0
  138.4430   69.3390  223.3120 Cl  0  0  0  0  0  0  0  0  0  0  0  0
  141.3580   75.8290  221.7390 N   0  0  0  0  0  0  0  0  0  0  0  0
  140.8950   76.8350  222.6190 N   0  0  0  0  0  0  0  0  0  0  0  0
  140.6790   78.0340  222.2580 C   0  0  0  0  0  0  0  0  0  0  0  0
  141.3200   79.2080  222.8440 C   0  0  0  0  0  0  0  0  0  0  0  0
  142.7040   79.3840  222.7610 C   0  0  0  0  0  0  0  0  0  0  0  0
  143.3250   80.4910  223.3100 C   0  0  0  0  0  0  0  0  0  0  0  0
  142.5170   81.4090  223.9430 C   0  0  0  0  0  0  0  0  0  0  0  0
  141.1780   81.2480  224.0290 N   0  0  0  0  0  0  0  0  0  0  0  0
  140.5930   80.1690  223.4900 C   0  0  0  0  0  0  0  0  0  0  0  0
  139.2380   80.0780  223.6170 F   0  0  0  0  0  0  0  0  0  0  0  0
  140.3607   73.2555  219.9659 H   0  0  0  0  0  0  0  0  0  0  0  0
  141.9490   74.0368  220.0162 H   0  0  0  0  0  0  0  0  0  0  0  0
  142.4462   71.9307  220.9542 H   0  0  0  0  0  0  0  0  0  0  0  0
  142.0576   72.9070  222.4400 H   0  0  0  0  0  0  0  0  0  0  0  0
  139.7661   71.6052  221.1633 H   0  0  0  0  0  0  0  0  0  0  0  0
  141.0256   70.4965  221.8590 H   0  0  0  0  0  0  0  0  0  0  0  0
  141.6396   72.4492  225.2787 H   0  0  0  0  0  0  0  0  0  0  0  0
  141.7414   71.2246  227.4072 H   0  0  0  0  0  0  0  0  0  0  0  0
  138.9424   68.3785  225.8797 H   0  0  0  0  0  0  0  0  0  0  0  0
  142.2510   76.0060  221.2240 H   0  0  0  0  0  0  0  0  0  0  0  0
  139.9567   78.1997  221.4450 H   0  0  0  0  0  0  0  0  0  0  0  0
  143.3128   78.6252  222.2476 H   0  0  0  0  0  0  0  0  0  0  0  0
  144.4140   80.6317  223.2441 H   0  0  0  0  0  0  0  0  0  0  0  0
  142.9760   82.3017  224.3929 H   0  0  0  0  0  0  0  0  0  0  0  0
  1  2  2  0
  2  3  1  0
  3  4  1  0
  4  5  1  0
  5  6  1  0
  6  7  1  0
  7  8  2  0
  8  9  1  0
  9 10  2  0
 10 11  1  0
 10 12  1  0
 12 13  2  0
 13 14  1  0
  2 15  1  0
 15 16  1  0
 16 17  2  0
 17 18  1  0
 18 19  2  0
 19 20  1  0
 20 21  2  0
 21 22  1  0
 22 23  2  0
 23 24  1  0
 13  7  1  0
 23 18  1  0
  3 25  1  0
  3 26  1  0
  4 27  1  0
  4 28  1  0
  5 29  1  0
  5 30  1  0
  8 31  1  0
  9 32  1  0
 12 33  1  0
 15 34  1  0
 17 35  1  0
 19 36  1  0
 20 37  1  0
 21 38  1  0
M  END
>  <smiles>  (44) 
O=C(CCCOc1ccc(Cl)cc1Cl)NN=Cc1cccnc1F

>  <score_type>  (44) 
oracle

>  <origin>  (44) 
autodockgpu

>  <m_score__min__energy>  (44) 
-7.4000000000000004

>  <m_primary>  (44) 
energy

>  <rmsd>  (44) 
12.527280517249336

>  <m_score__min__rmsd>  (44) 
12.527280517249336

>  <meeko>  (44) 
{"free_energy": -7.34, "intermolecular_energy": -9.73, "internal_energy": -0.6, "cluster_size": 7, "cluster_id": 1, "rank_in_cluster": 2}

>  <energy>  (44) 
-5.02

>  <cluster_rmsd>  (44) 
1.18

>  <cluster>  (44) 
8

$$$$

     RDKit          3D

 38 39  0  0  1  0  0  0  0  0999 V2000
  141.3790   75.0220  220.5260 O   0  0  0  0  0  0  0  0  0  0  0  0
  140.3480   74.6910  221.1610 C   0  0  0  0  0  0  0  0  0  0  0  0
  139.5490   73.4820  220.7520 C   0  0  0  0  0  0  0  0  0  0  0  0
  139.0810   72.8310  222.0490 C   0  0  0  0  0  0  0  0  0  0  0  0
  140.2020   72.2420  222.8280 C   0  0  0  0  0  0  0  0  0  0  0  0
  139.8070   71.1580  223.5590 O   0  0  0  0  0  0  0  0  0  0  0  0
  140.1200   70.6380  224.7590 C   0  0  0  0  0  0  0  0  0  0  0  0
  140.8070   71.2390  225.7860 C   0  0  0  0  0  0  0  0  0  0  0  0
  141.0780   70.6090  226.9920 C   0  0  0  0  0  0  0  0  0  0  0  0
  140.6560   69.3180  227.2120 C   0  0  0  0  0  0  0  0  0  0  0  0
  140.9550   68.4490  228.7020 Cl  0  0  0  0  0  0  0  0  0  0  0  0
  139.9650   68.6860  226.2030 C   0  0  0  0  0  0  0  0  0  0  0  0
  139.7010   69.3180  225.0110 C   0  0  0  0  0  0  0  0  0  0  0  0
  138.8140   68.4190  223.7980 Cl  0  0  0  0  0  0  0  0  0  0  0  0
  139.8560   75.4060  222.2870 N   0  0  0  0  0  0  0  0  0  0  0  0
  140.5570   76.5520  222.7270 N   0  0  0  0  0  0  0  0  0  0  0  0
  140.1390   77.7390  222.5450 C   0  0  0  0  0  0  0  0  0  0  0  0
  140.8660   78.9460  222.9310 C   0  0  0  0  0  0  0  0  0  0  0  0
  142.2480   79.0390  222.7430 C   0  0  0  0  0  0  0  0  0  0  0  0
  142.9500   80.1760  223.1010 C   0  0  0  0  0  0  0  0  0  0  0  0
  142.2240   81.2080  223.6520 C   0  0  0  0  0  0  0  0  0  0  0  0
  140.8880   81.1280  223.8380 N   0  0  0  0  0  0  0  0  0  0  0  0
  140.2240   80.0180  223.4830 C   0  0  0  0  0  0  0  0  0  0  0  0
  138.8770   80.0140  223.7010 F   0  0  0  0  0  0  0  0  0  0  0  0
  138.6848   73.7832  220.1417 H   0  0  0  0  0  0  0  0  0  0  0  0
  140.1494   72.7877  220.1458 H   0  0  0  0  0  0  0  0  0  0  0  0
  138.5844   73.5935  222.6671 H   0  0  0  0  0  0  0  0  0  0  0  0
  138.3935   72.0144  221.7836 H   0  0  0  0  0  0  0  0  0  0  0  0
  140.9931   71.9299  222.1303 H   0  0  0  0  0  0  0  0  0  0  0  0
  140.5663   73.0079  223.5285 H   0  0  0  0  0  0  0  0  0  0  0  0
  141.1598   72.2713  225.6449 H   0  0  0  0  0  0  0  0  0  0  0  0
  141.6331   71.1444  227.7764 H   0  0  0  0  0  0  0  0  0  0  0  0
  139.6167   67.6535  226.3537 H   0  0  0  0  0  0  0  0  0  0  0  0
  138.9970   75.1290  222.8140 H   0  0  0  0  0  0  0  0  0  0  0  0
  139.1590   77.8663  222.0619 H   0  0  0  0  0  0  0  0  0  0  0  0
  142.7892   78.1896  222.3007 H   0  0  0  0  0  0  0  0  0  0  0  0
  144.0373   80.2520  222.9524 H   0  0  0  0  0  0  0  0  0  0  0  0
  142.7487   82.1276  223.9505 H   0  0  0  0  0  0  0  0  0  0  0  0
  1  2  2  0
  2  3  1  0
  3  4  1  0
  4  5  1  0
  5  6  1  0
  6  7  1  0
  7  8  2  0
  8  9  1  0
  9 10  2  0
 10 11  1  0
 10 12  1  0
 12 13  2  0
 13 14  1  0
  2 15  1  0
 15 16  1  0
 16 17  2  0
 17 18  1  0
 18 19  2  0
 19 20  1  0
 20 21  2  0
 21 22  1  0
 22 23  2  0
 23 24  1  0
 13  7  1  0
 23 18  1  0
  3 25  1  0
  3 26  1  0
  4 27  1  0
  4 28  1  0
  5 29  1  0
  5 30  1  0
  8 31  1  0
  9 32  1  0
 12 33  1  0
 15 34  1  0
 17 35  1  0
 19 36  1  0
 20 37  1  0
 21 38  1  0
M  END
>  <smiles>  (45) 
O=C(CCCOc1ccc(Cl)cc1Cl)NN=Cc1cccnc1F

>  <score_type>  (45) 
oracle

>  <origin>  (45) 
autodockgpu

>  <m_score__min__energy>  (45) 
-7.4000000000000004

>  <m_primary>  (45) 
energy

>  <rmsd>  (45) 
12.714206290984496

>  <m_score__min__rmsd>  (45) 
12.714206290984496

>  <meeko>  (45) 
{"free_energy": -6.7, "intermolecular_energy": -9.09, "internal_energy": -0.57, "cluster_size": 7, "cluster_id": 1, "rank_in_cluster": 5}

>  <energy>  (45) 
-4.87

>  <cluster_rmsd>  (45) 
1.38

>  <cluster>  (45) 
8

$$$$

     RDKit          3D

 38 39  0  0  1  0  0  0  0  0999 V2000
  140.4790   74.7770  221.5540 O   0  0  0  0  0  0  0  0  0  0  0  0
  139.4050   74.2370  221.9180 C   0  0  0  0  0  0  0  0  0  0  0  0
  138.0770   74.8220  221.5160 C   0  0  0  0  0  0  0  0  0  0  0  0
  137.6510   75.7250  222.6680 C   0  0  0  0  0  0  0  0  0  0  0  0
  137.2020   77.0640  222.2070 C   0  0  0  0  0  0  0  0  0  0  0  0
  137.8460   78.0760  222.8590 O   0  0  0  0  0  0  0  0  0  0  0  0
  139.1120   78.5260  222.9290 C   0  0  0  0  0  0  0  0  0  0  0  0
  140.2560   77.8970  222.5020 C   0  0  0  0  0  0  0  0  0  0  0  0
  141.5210   78.4550  222.6220 C   0  0  0  0  0  0  0  0  0  0  0  0
  141.6820   79.6970  223.1890 C   0  0  0  0  0  0  0  0  0  0  0  0
  143.2400   80.4730  223.3780 Cl  0  0  0  0  0  0  0  0  0  0  0  0
  140.5550   80.3560  223.6270 C   0  0  0  0  0  0  0  0  0  0  0  0
  139.3060   79.7960  223.5050 C   0  0  0  0  0  0  0  0  0  0  0  0
  137.9430   80.7230  224.0960 Cl  0  0  0  0  0  0  0  0  0  0  0  0
  139.3480   73.0640  222.7190 N   0  0  0  0  0  0  0  0  0  0  0  0
  140.5590   72.4620  223.1340 N   0  0  0  0  0  0  0  0  0  0  0  0
  140.6170   71.3200  223.6890 C   0  0  0  0  0  0  0  0  0  0  0  0
  140.4730   71.0830  225.1230 C   0  0  0  0  0  0  0  0  0  0  0  0
  141.1680   71.8660  226.0500 C   0  0  0  0  0  0  0  0  0  0  0  0
  141.0410   71.6540  227.4110 C   0  0  0  0  0  0  0  0  0  0  0  0
  140.2030   70.6370  227.8080 C   0  0  0  0  0  0  0  0  0  0  0  0
  139.5270   69.8750  226.9200 N   0  0  0  0  0  0  0  0  0  0  0  0
  139.6610   70.0950  225.6040 C   0  0  0  0  0  0  0  0  0  0  0  0
  138.9460   69.2850  224.7720 F   0  0  0  0  0  0  0  0  0  0  0  0
  138.1812   75.4067  220.5901 H   0  0  0  0  0  0  0  0  0  0  0  0
  137.3320   74.0362  221.3227 H   0  0  0  0  0  0  0  0  0  0  0  0
  136.8228   75.2417  223.2070 H   0  0  0  0  0  0  0  0  0  0  0  0
  138.5262   75.8721  223.3179 H   0  0  0  0  0  0  0  0  0  0  0  0
  137.4021   77.1531  221.1290 H   0  0  0  0  0  0  0  0  0  0  0  0
  136.1271   77.1529  222.4230 H   0  0  0  0  0  0  0  0  0  0  0  0
  140.1650   76.9019  222.0422 H   0  0  0  0  0  0  0  0  0  0  0  0
  142.3998   77.9004  222.2614 H   0  0  0  0  0  0  0  0  0  0  0  0
  140.6566   81.3514  224.0840 H   0  0  0  0  0  0  0  0  0  0  0  0
  138.4530   72.6170  223.0220 H   0  0  0  0  0  0  0  0  0  0  0  0
  140.7881   70.4467  223.0423 H   0  0  0  0  0  0  0  0  0  0  0  0
  141.8296   72.6674  225.6893 H   0  0  0  0  0  0  0  0  0  0  0  0
  141.5848   72.2699  228.1424 H   0  0  0  0  0  0  0  0  0  0  0  0
  140.0795   70.4380  228.8828 H   0  0  0  0  0  0  0  0  0  0  0  0
  1  2  2  0
  2  3  1  0
  3  4  1  0
  4  5  1  0
  5  6  1  0
  6  7  1  0
  7  8  2  0
  8  9  1  0
  9 10  2  0
 10 11  1  0
 10 12  1  0
 12 13  2  0
 13 14  1  0
  2 15  1  0
 15 16  1  0
 16 17  2  0
 17 18  1  0
 18 19  2  0
 19 20  1  0
 20 21  2  0
 21 22  1  0
 22 23  2  0
 23 24  1  0
 13  7  1  0
 23 18  1  0
  3 25  1  0
  3 26  1  0
  4 27  1  0
  4 28  1  0
  5 29  1  0
  5 30  1  0
  8 31  1  0
  9 32  1  0
 12 33  1  0
 15 34  1  0
 17 35  1  0
 19 36  1  0
 20 37  1  0
 21 38  1  0
M  END
>  <smiles>  (46) 
O=C(CCCOc1ccc(Cl)cc1Cl)NN=Cc1cccnc1F

>  <score_type>  (46) 
oracle

>  <origin>  (46) 
autodockgpu

>  <m_score__min__energy>  (46) 
-7.4000000000000004

>  <m_primary>  (46) 
energy

>  <rmsd>  (46) 
5.676905333090198

>  <m_score__min__rmsd>  (46) 
5.676905333090198

>  <meeko>  (46) 
{"free_energy": -6.61, "intermolecular_energy": -8.99, "internal_energy": -0.77, "cluster_size": 9, "cluster_id": 3, "rank_in_cluster": 4}

>  <energy>  (46) 
-5.85

>  <cluster_rmsd>  (46) 
0.0

>  <cluster>  (46) 
9

$$$$

     RDKit          3D

 38 39  0  0  1  0  0  0  0  0999 V2000
  141.7830   71.5420  221.7260 O   0  0  0  0  0  0  0  0  0  0  0  0
  141.0600   72.5410  221.9650 C   0  0  0  0  0  0  0  0  0  0  0  0
  141.0900   73.7440  221.0610 C   0  0  0  0  0  0  0  0  0  0  0  0
  139.7100   73.8170  220.4160 C   0  0  0  0  0  0  0  0  0  0  0  0
  138.7090   74.4890  221.2840 C   0  0  0  0  0  0  0  0  0  0  0  0
  139.2940   75.1740  222.3110 O   0  0  0  0  0  0  0  0  0  0  0  0
  139.7640   76.4200  222.4940 C   0  0  0  0  0  0  0  0  0  0  0  0
  141.0740   76.8330  222.5140 C   0  0  0  0  0  0  0  0  0  0  0  0
  141.4530   78.1540  222.7110 C   0  0  0  0  0  0  0  0  0  0  0  0
  140.5010   79.1290  222.8980 C   0  0  0  0  0  0  0  0  0  0  0  0
  140.8910   80.8170  223.1530 Cl  0  0  0  0  0  0  0  0  0  0  0  0
  139.1780   78.7490  222.8840 C   0  0  0  0  0  0  0  0  0  0  0  0
  138.8110   77.4390  222.6880 C   0  0  0  0  0  0  0  0  0  0  0  0
  137.1000   77.0680  222.6890 Cl  0  0  0  0  0  0  0  0  0  0  0  0
  140.1780   72.6230  223.0770 N   0  0  0  0  0  0  0  0  0  0  0  0
  140.0990   71.5280  223.9680 N   0  0  0  0  0  0  0  0  0  0  0  0
  140.7050   71.4910  225.0850 C   0  0  0  0  0  0  0  0  0  0  0  0
  140.5010   70.4710  226.1100 C   0  0  0  0  0  0  0  0  0  0  0  0
  140.3950   69.1210  225.7640 C   0  0  0  0  0  0  0  0  0  0  0  0
  140.2030   68.1440  226.7240 C   0  0  0  0  0  0  0  0  0  0  0  0
  140.1180   68.5630  228.0320 C   0  0  0  0  0  0  0  0  0  0  0  0
  140.2190   69.8670  228.3770 N   0  0  0  0  0  0  0  0  0  0  0  0
  140.4070   70.8000  227.4330 C   0  0  0  0  0  0  0  0  0  0  0  0
  140.4990   72.0920  227.8600 F   0  0  0  0  0  0  0  0  0  0  0  0
  141.2886   74.6556  221.6437 H   0  0  0  0  0  0  0  0  0  0  0  0
  141.8850   73.6614  220.3053 H   0  0  0  0  0  0  0  0  0  0  0  0
  139.7911   74.3771  219.4728 H   0  0  0  0  0  0  0  0  0  0  0  0
  139.3660   72.7859  220.2470 H   0  0  0  0  0  0  0  0  0  0  0  0
  138.1274   75.1951  220.6731 H   0  0  0  0  0  0  0  0  0  0  0  0
  138.0642   73.7119  221.7202 H   0  0  0  0  0  0  0  0  0  0  0  0
  141.8619   76.0796  222.3666 H   0  0  0  0  0  0  0  0  0  0  0  0
  142.5198   78.4222  222.7176 H   0  0  0  0  0  0  0  0  0  0  0  0
  138.3978   79.5100  223.0329 H   0  0  0  0  0  0  0  0  0  0  0  0
  139.5770   73.4550  223.2740 H   0  0  0  0  0  0  0  0  0  0  0  0
  141.4365   72.2853  225.2947 H   0  0  0  0  0  0  0  0  0  0  0  0
  140.4658   68.8293  224.7057 H   0  0  0  0  0  0  0  0  0  0  0  0
  140.1220   67.0807  226.4543 H   0  0  0  0  0  0  0  0  0  0  0  0
  139.9630   67.8136  228.8222 H   0  0  0  0  0  0  0  0  0  0  0  0
  1  2  2  0
  2  3  1  0
  3  4  1  0
  4  5  1  0
  5  6  1  0
  6  7  1  0
  7  8  2  0
  8  9  1  0
  9 10  2  0
 10 11  1  0
 10 12  1  0
 12 13  2  0
 13 14  1  0
  2 15  1  0
 15 16  1  0
 16 17  2  0
 17 18  1  0
 18 19  2  0
 19 20  1  0
 20 21  2  0
 21 22  1  0
 22 23  2  0
 23 24  1  0
 13  7  1  0
 23 18  1  0
  3 25  1  0
  3 26  1  0
  4 27  1  0
  4 28  1  0
  5 29  1  0
  5 30  1  0
  8 31  1  0
  9 32  1  0
 12 33  1  0
 15 34  1  0
 17 35  1  0
 19 36  1  0
 20 37  1  0
 21 38  1  0
M  END
>  <smiles>  (47) 
O=C(CCCOc1ccc(Cl)cc1Cl)NN=Cc1cccnc1F

>  <score_type>  (47) 
oracle

>  <origin>  (47) 
autodockgpu

>  <m_score__min__energy>  (47) 
-7.4000000000000004

>  <m_primary>  (47) 
energy

>  <rmsd>  (47) 
7.119672859964778

>  <m_score__min__rmsd>  (47) 
7.119672859964778

>  <meeko>  (47) 
{"free_energy": -6.41, "intermolecular_energy": -8.8, "internal_energy": -1.38, "cluster_size": 9, "cluster_id": 3, "rank_in_cluster": 6}

>  <energy>  (47) 
-5.36

>  <cluster_rmsd>  (47) 
0.0

>  <cluster>  (47) 
10

$$$$

     RDKit          3D

 38 39  0  0  1  0  0  0  0  0999 V2000
  139.9730   74.5870  222.3000 O   0  0  0  0  0  0  0  0  0  0  0  0
  140.5070   73.5840  221.7650 C   0  0  0  0  0  0  0  0  0  0  0  0
  140.9560   73.6280  220.3290 C   0  0  0  0  0  0  0  0  0  0  0  0
  141.9960   74.7400  220.2500 C   0  0  0  0  0  0  0  0  0  0  0  0
  141.4730   75.9650  219.5900 C   0  0  0  0  0  0  0  0  0  0  0  0
  140.8070   76.7760  220.4630 O   0  0  0  0  0  0  0  0  0  0  0  0
  141.1520   77.7140  221.3630 C   0  0  0  0  0  0  0  0  0  0  0  0
  141.0730   77.6400  222.7320 C   0  0  0  0  0  0  0  0  0  0  0  0
  141.4600   78.6740  223.5740 C   0  0  0  0  0  0  0  0  0  0  0  0
  141.9540   79.8470  223.0530 C   0  0  0  0  0  0  0  0  0  0  0  0
  142.4640   81.1990  224.0400 Cl  0  0  0  0  0  0  0  0  0  0  0  0
  142.0460   79.9540  221.6830 C   0  0  0  0  0  0  0  0  0  0  0  0
  141.6610   78.9260  220.8560 C   0  0  0  0  0  0  0  0  0  0  0  0
  141.8220   79.1710  219.1300 Cl  0  0  0  0  0  0  0  0  0  0  0  0
  140.7270   72.3550  222.4460 N   0  0  0  0  0  0  0  0  0  0  0  0
  140.3290   72.2440  223.7980 N   0  0  0  0  0  0  0  0  0  0  0  0
  140.0130   71.1400  224.3450 C   0  0  0  0  0  0  0  0  0  0  0  0
  140.2980   70.7870  225.7330 C   0  0  0  0  0  0  0  0  0  0  0  0
  140.7560   71.7510  226.6370 C   0  0  0  0  0  0  0  0  0  0  0  0
  141.0290   71.4320  227.9540 C   0  0  0  0  0  0  0  0  0  0  0  0
  140.8300   70.1230  228.3320 C   0  0  0  0  0  0  0  0  0  0  0  0
  140.3870   69.1840  227.4660 N   0  0  0  0  0  0  0  0  0  0  0  0
  140.1270   69.5120  226.1930 C   0  0  0  0  0  0  0  0  0  0  0  0
  139.6840   68.5100  225.3810 F   0  0  0  0  0  0  0  0  0  0  0  0
  141.4021   72.6656  220.0380 H   0  0  0  0  0  0  0  0  0  0  0  0
  140.1127   73.8147  219.6478 H   0  0  0  0  0  0  0  0  0  0  0  0
  142.3142   74.9982  221.2708 H   0  0  0  0  0  0  0  0  0  0  0  0
  142.8364   74.3683  219.6453 H   0  0  0  0  0  0  0  0  0  0  0  0
  142.3174   76.5242  219.1606 H   0  0  0  0  0  0  0  0  0  0  0  0
  140.7628   75.6520  218.8105 H   0  0  0  0  0  0  0  0  0  0  0  0
  140.6838   76.7157  223.1839 H   0  0  0  0  0  0  0  0  0  0  0  0
  141.3710   78.5543  224.6638 H   0  0  0  0  0  0  0  0  0  0  0  0
  142.4362   80.8826  221.2410 H   0  0  0  0  0  0  0  0  0  0  0  0
  141.1710   71.5210  221.9990 H   0  0  0  0  0  0  0  0  0  0  0  0
  139.4868   70.3971  223.7276 H   0  0  0  0  0  0  0  0  0  0  0  0
  140.9021   72.7854  226.2925 H   0  0  0  0  0  0  0  0  0  0  0  0
  141.3885   72.1887  228.6669 H   0  0  0  0  0  0  0  0  0  0  0  0
  141.0382   69.8319  229.3721 H   0  0  0  0  0  0  0  0  0  0  0  0
  1  2  2  0
  2  3  1  0
  3  4  1  0
  4  5  1  0
  5  6  1  0
  6  7  1  0
  7  8  2  0
  8  9  1  0
  9 10  2  0
 10 11  1  0
 10 12  1  0
 12 13  2  0
 13 14  1  0
  2 15  1  0
 15 16  1  0
 16 17  2  0
 17 18  1  0
 18 19  2  0
 19 20  1  0
 20 21  2  0
 21 22  1  0
 22 23  2  0
 23 24  1  0
 13  7  1  0
 23 18  1  0
  3 25  1  0
  3 26  1  0
  4 27  1  0
  4 28  1  0
  5 29  1  0
  5 30  1  0
  8 31  1  0
  9 32  1  0
 12 33  1  0
 15 34  1  0
 17 35  1  0
 19 36  1  0
 20 37  1  0
 21 38  1  0
M  END
>  <smiles>  (48) 
O=C(CCCOc1ccc(Cl)cc1Cl)NN=Cc1cccnc1F

>  <score_type>  (48) 
oracle

>  <origin>  (48) 
autodockgpu

>  <m_score__min__energy>  (48) 
-7.4000000000000004

>  <m_primary>  (48) 
energy

>  <rmsd>  (48) 
5.955896182229232

>  <m_score__min__rmsd>  (48) 
5.955896182229232

>  <meeko>  (48) 
{"free_energy": -6.88, "intermolecular_energy": -9.27, "internal_energy": -0.66, "cluster_size": 10, "cluster_id": 2, "rank_in_cluster": 1}

>  <energy>  (48) 
-5.23

>  <cluster_rmsd>  (48) 
0.0

>  <cluster>  (48) 
11

$$$$

     RDKit          3D

 38 39  0  0  1  0  0  0  0  0999 V2000
  138.8910   69.7630  222.6300 O   0  0  0  0  0  0  0  0  0  0  0  0
  138.7410   71.0090  222.6670 C   0  0  0  0  0  0  0  0  0  0  0  0
  137.6890   71.6820  221.8260 C   0  0  0  0  0  0  0  0  0  0  0  0
  138.4350   72.6580  220.9240 C   0  0  0  0  0  0  0  0  0  0  0  0
  138.6510   73.9800  221.5690 C   0  0  0  0  0  0  0  0  0  0  0  0
  139.9500   74.1630  221.9470 O   0  0  0  0  0  0  0  0  0  0  0  0
  141.1550   73.8610  221.4340 C   0  0  0  0  0  0  0  0  0  0  0  0
  141.7600   72.6290  221.3690 C   0  0  0  0  0  0  0  0  0  0  0  0
  143.0150   72.4250  220.8130 C   0  0  0  0  0  0  0  0  0  0  0  0
  143.7230   73.4810  220.2890 C   0  0  0  0  0  0  0  0  0  0  0  0
  145.3100   73.3140  219.5700 Cl  0  0  0  0  0  0  0  0  0  0  0  0
  143.1450   74.7300  220.3380 C   0  0  0  0  0  0  0  0  0  0  0  0
  141.9020   74.9240  220.8910 C   0  0  0  0  0  0  0  0  0  0  0  0
  141.2650   76.5540  220.8990 Cl  0  0  0  0  0  0  0  0  0  0  0  0
  139.5280   71.8700  223.4800 N   0  0  0  0  0  0  0  0  0  0  0  0
  140.5360   71.3060  224.2950 N   0  0  0  0  0  0  0  0  0  0  0  0
  140.5390   71.3920  225.5640 C   0  0  0  0  0  0  0  0  0  0  0  0
  140.6920   70.2610  226.4750 C   0  0  0  0  0  0  0  0  0  0  0  0
  140.4940   68.9510  226.0280 C   0  0  0  0  0  0  0  0  0  0  0  0
  140.6360   67.8700  226.8790 C   0  0  0  0  0  0  0  0  0  0  0  0
  140.9790   68.1450  228.1840 C   0  0  0  0  0  0  0  0  0  0  0  0
  141.1720   69.4080  228.6250 N   0  0  0  0  0  0  0  0  0  0  0  0
  141.0310   70.4440  227.7860 C   0  0  0  0  0  0  0  0  0  0  0  0
  141.2430   71.6870  228.3060 F   0  0  0  0  0  0  0  0  0  0  0  0
  137.1494   70.9383  221.2212 H   0  0  0  0  0  0  0  0  0  0  0  0
  136.9435   72.1978  222.4491 H   0  0  0  0  0  0  0  0  0  0  0  0
  139.4140   72.2255  220.6701 H   0  0  0  0  0  0  0  0  0  0  0  0
  137.8192   72.8209  220.0272 H   0  0  0  0  0  0  0  0  0  0  0  0
  138.3745   74.7712  220.8566 H   0  0  0  0  0  0  0  0  0  0  0  0
  138.0269   74.0204  222.4739 H   0  0  0  0  0  0  0  0  0  0  0  0
  141.2225   71.7609  221.7782 H   0  0  0  0  0  0  0  0  0  0  0  0
  143.4458   71.4131  220.7913 H   0  0  0  0  0  0  0  0  0  0  0  0
  143.6904   75.5915  219.9253 H   0  0  0  0  0  0  0  0  0  0  0  0
  139.4030   72.9080  223.5080 H   0  0  0  0  0  0  0  0  0  0  0  0
  140.4175   72.3912  226.0076 H   0  0  0  0  0  0  0  0  0  0  0  0
  140.2195   68.7765  224.9772 H   0  0  0  0  0  0  0  0  0  0  0  0
  140.4821   66.8384  226.5296 H   0  0  0  0  0  0  0  0  0  0  0  0
  141.0998   67.3102  228.8900 H   0  0  0  0  0  0  0  0  0  0  0  0
  1  2  2  0
  2  3  1  0
  3  4  1  0
  4  5  1  0
  5  6  1  0
  6  7  1  0
  7  8  2  0
  8  9  1  0
  9 10  2  0
 10 11  1  0
 10 12  1  0
 12 13  2  0
 13 14  1  0
  2 15  1  0
 15 16  1  0
 16 17  2  0
 17 18  1  0
 18 19  2  0
 19 20  1  0
 20 21  2  0
 21 22  1  0
 22 23  2  0
 23 24  1  0
 13  7  1  0
 23 18  1  0
  3 25  1  0
  3 26  1  0
  4 27  1  0
  4 28  1  0
  5 29  1  0
  5 30  1  0
  8 31  1  0
  9 32  1  0
 12 33  1  0
 15 34  1  0
 17 35  1  0
 19 36  1  0
 20 37  1  0
 21 38  1  0
M  END
>  <smiles>  (49) 
O=C(CCCOc1ccc(Cl)cc1Cl)NN=Cc1cccnc1F

>  <score_type>  (49) 
oracle

>  <origin>  (49) 
autodockgpu

>  <m_score__min__energy>  (49) 
-7.4000000000000004

>  <m_primary>  (49) 
energy

>  <rmsd>  (49) 
9.300119007248506

>  <m_score__min__rmsd>  (49) 
9.300119007248506

>  <meeko>  (49) 
{"free_energy": -6.18, "intermolecular_energy": -8.56, "internal_energy": -1.66, "cluster_size": 4, "cluster_id": 7, "rank_in_cluster": 1}

>  <energy>  (49) 
-4.48

>  <cluster_rmsd>  (49) 
0.0

>  <cluster>  (49) 
12

$$$$

     RDKit          3D

 38 39  0  0  1  0  0  0  0  0999 V2000
  140.5280   71.1580  221.1500 O   0  0  0  0  0  0  0  0  0  0  0  0
  140.1720   72.3060  221.5160 C   0  0  0  0  0  0  0  0  0  0  0  0
  140.1210   73.4440  220.5330 C   0  0  0  0  0  0  0  0  0  0  0  0
  138.6610   73.8790  220.4720 C   0  0  0  0  0  0  0  0  0  0  0  0
  138.3350   74.9250  221.4760 C   0  0  0  0  0  0  0  0  0  0  0  0
  139.4560   75.4910  222.0130 O   0  0  0  0  0  0  0  0  0  0  0  0
  139.9010   76.7430  222.2180 C   0  0  0  0  0  0  0  0  0  0  0  0
  139.3520   77.7130  223.0220 C   0  0  0  0  0  0  0  0  0  0  0  0
  139.8960   78.9820  223.1630 C   0  0  0  0  0  0  0  0  0  0  0  0
  141.0400   79.3270  222.4830 C   0  0  0  0  0  0  0  0  0  0  0  0
  141.7920   80.9040  222.6030 Cl  0  0  0  0  0  0  0  0  0  0  0  0
  141.6160   78.3780  221.6680 C   0  0  0  0  0  0  0  0  0  0  0  0
  141.0710   77.1240  221.5340 C   0  0  0  0  0  0  0  0  0  0  0  0
  141.8870   75.9970  220.4710 Cl  0  0  0  0  0  0  0  0  0  0  0  0
  139.7990   72.6230  222.8510 N   0  0  0  0  0  0  0  0  0  0  0  0
  139.8250   71.6010  223.8280 N   0  0  0  0  0  0  0  0  0  0  0  0
  140.6990   71.5360  224.7490 C   0  0  0  0  0  0  0  0  0  0  0  0
  140.5520   70.7710  225.9840 C   0  0  0  0  0  0  0  0  0  0  0  0
  140.2100   69.4150  225.9500 C   0  0  0  0  0  0  0  0  0  0  0  0
  140.0680   68.6780  227.1110 C   0  0  0  0  0  0  0  0  0  0  0  0
  140.2770   69.3400  228.2990 C   0  0  0  0  0  0  0  0  0  0  0  0
  140.6070   70.6510  228.3430 N   0  0  0  0  0  0  0  0  0  0  0  0
  140.7420   71.3500  227.2070 C   0  0  0  0  0  0  0  0  0  0  0  0
  141.0770   72.6650  227.3340 F   0  0  0  0  0  0  0  0  0  0  0  0
  140.7538   74.2754  220.8771 H   0  0  0  0  0  0  0  0  0  0  0  0
  140.4932   73.1398  219.5436 H   0  0  0  0  0  0  0  0  0  0  0  0
  138.4535   74.2773  219.4679 H   0  0  0  0  0  0  0  0  0  0  0  0
  138.0409   72.9981  220.6945 H   0  0  0  0  0  0  0  0  0  0  0  0
  137.7400   75.7112  220.9883 H   0  0  0  0  0  0  0  0  0  0  0  0
  137.7736   74.4468  222.2922 H   0  0  0  0  0  0  0  0  0  0  0  0
  138.4361   77.4717  223.5814 H   0  0  0  0  0  0  0  0  0  0  0  0
  139.4092   79.7157  223.8223 H   0  0  0  0  0  0  0  0  0  0  0  0
  142.5317   78.6293  221.1127 H   0  0  0  0  0  0  0  0  0  0  0  0
  139.5050   73.5790  223.1540 H   0  0  0  0  0  0  0  0  0  0  0  0
  141.6342   72.0970  224.6050 H   0  0  0  0  0  0  0  0  0  0  0  0
  140.0506   68.9245  224.9784 H   0  0  0  0  0  0  0  0  0  0  0  0
  139.8002   67.6114  227.0862 H   0  0  0  0  0  0  0  0  0  0  0  0
  140.1724   68.7853  229.2431 H   0  0  0  0  0  0  0  0  0  0  0  0
  1  2  2  0
  2  3  1  0
  3  4  1  0
  4  5  1  0
  5  6  1  0
  6  7  1  0
  7  8  2  0
  8  9  1  0
  9 10  2  0
 10 11  1  0
 10 12  1  0
 12 13  2  0
 13 14  1  0
  2 15  1  0
 15 16  1  0
 16 17  2  0
 17 18  1  0
 18 19  2  0
 19 20  1  0
 20 21  2  0
 21 22  1  0
 22 23  2  0
 23 24  1  0
 13  7  1  0
 23 18  1  0
  3 25  1  0
  3 26  1  0
  4 27  1  0
  4 28  1  0
  5 29  1  0
  5 30  1  0
  8 31  1  0
  9 32  1  0
 12 33  1  0
 15 34  1  0
 17 35  1  0
 19 36  1  0
 20 37  1  0
 21 38  1  0
M  END
>  <smiles>  (50) 
O=C(CCCOc1ccc(Cl)cc1Cl)NN=Cc1cccnc1F

>  <score_type>  (50) 
oracle

>  <origin>  (50) 
autodockgpu

>  <m_score__min__energy>  (50) 
-7.4000000000000004

>  <m_primary>  (50) 
energy

>  <rmsd>  (50) 
6.5038192518582525

>  <m_score__min__rmsd>  (50) 
6.5038192518582525

>  <meeko>  (50) 
{"free_energy": -6.11, "intermolecular_energy": -8.49, "internal_energy": -1.27, "cluster_size": 10, "cluster_id": 2, "rank_in_cluster": 7}

>  <energy>  (50) 
-4.4

>  <cluster_rmsd>  (50) 
0.45

>  <cluster>  (50) 
12

$$$$

     RDKit          3D

 38 39  0  0  1  0  0  0  0  0999 V2000
  140.5790   73.7660  222.2840 O   0  0  0  0  0  0  0  0  0  0  0  0
  139.3770   73.6570  221.9580 C   0  0  0  0  0  0  0  0  0  0  0  0
  138.6420   74.4820  221.0090 C   0  0  0  0  0  0  0  0  0  0  0  0
  137.4390   75.1860  221.5800 C   0  0  0  0  0  0  0  0  0  0  0  0
  137.7600   76.4180  222.3720 C   0  0  0  0  0  0  0  0  0  0  0  0
  138.8310   77.1130  221.8360 O   0  0  0  0  0  0  0  0  0  0  0  0
  139.6960   78.0150  222.3520 C   0  0  0  0  0  0  0  0  0  0  0  0
  139.4460   78.9620  223.3110 C   0  0  0  0  0  0  0  0  0  0  0  0
  140.4150   79.8500  223.7730 C   0  0  0  0  0  0  0  0  0  0  0  0
  141.6830   79.7810  223.2470 C   0  0  0  0  0  0  0  0  0  0  0  0
  142.8880   80.8870  223.8220 Cl  0  0  0  0  0  0  0  0  0  0  0  0
  141.9750   78.8600  222.2940 C   0  0  0  0  0  0  0  0  0  0  0  0
  141.0070   77.9920  221.8520 C   0  0  0  0  0  0  0  0  0  0  0  0
  141.4630   76.8290  220.6170 Cl  0  0  0  0  0  0  0  0  0  0  0  0
  138.6530   72.5800  222.6100 N   0  0  0  0  0  0  0  0  0  0  0  0
  139.3120   71.8080  223.4860 N   0  0  0  0  0  0  0  0  0  0  0  0
  139.4640   70.5720  223.4550 C   0  0  0  0  0  0  0  0  0  0  0  0
  139.6340   69.5810  224.4710 C   0  0  0  0  0  0  0  0  0  0  0  0
  140.3590   69.9790  225.6030 C   0  0  0  0  0  0  0  0  0  0  0  0
  140.5760   69.0990  226.6310 C   0  0  0  0  0  0  0  0  0  0  0  0
  140.1160   67.8050  226.6330 C   0  0  0  0  0  0  0  0  0  0  0  0
  139.4230   67.4320  225.5460 N   0  0  0  0  0  0  0  0  0  0  0  0
  139.1870   68.2900  224.4960 C   0  0  0  0  0  0  0  0  0  0  0  0
  138.4870   67.7540  223.5080 F   0  0  0  0  0  0  0  0  0  0  0  0
  139.3296   75.2450  220.6153 H   0  0  0  0  0  0  0  0  0  0  0  0
  138.2615   73.7985  220.2357 H   0  0  0  0  0  0  0  0  0  0  0  0
  136.7815   75.4744  220.7466 H   0  0  0  0  0  0  0  0  0  0  0  0
  136.9637   74.4800  222.2769 H   0  0  0  0  0  0  0  0  0  0  0  0
  136.8780   77.0752  222.3800 H   0  0  0  0  0  0  0  0  0  0  0  0
  138.0322   76.1063  223.3912 H   0  0  0  0  0  0  0  0  0  0  0  0
  138.4331   79.0237  223.7356 H   0  0  0  0  0  0  0  0  0  0  0  0
  140.1695   80.5936  224.5455 H   0  0  0  0  0  0  0  0  0  0  0  0
  142.9905   78.8086  221.8742 H   0  0  0  0  0  0  0  0  0  0  0  0
  137.6140   72.4460  222.4100 H   0  0  0  0  0  0  0  0  0  0  0  0
  139.4683   70.1579  222.4359 H   0  0  0  0  0  0  0  0  0  0  0  0
  140.7558   71.0030  225.6664 H   0  0  0  0  0  0  0  0  0  0  0  0
  141.1499   69.4482  227.5020 H   0  0  0  0  0  0  0  0  0  0  0  0
  140.3035   67.1184  227.4717 H   0  0  0  0  0  0  0  0  0  0  0  0
  1  2  2  0
  2  3  1  0
  3  4  1  0
  4  5  1  0
  5  6  1  0
  6  7  1  0
  7  8  2  0
  8  9  1  0
  9 10  2  0
 10 11  1  0
 10 12  1  0
 12 13  2  0
 13 14  1  0
  2 15  1  0
 15 16  1  0
 16 17  2  0
 17 18  1  0
 18 19  2  0
 19 20  1  0
 20 21  2  0
 21 22  1  0
 22 23  2  0
 23 24  1  0
 13  7  1  0
 23 18  1  0
  3 25  1  0
  3 26  1  0
  4 27  1  0
  4 28  1  0
  5 29  1  0
  5 30  1  0
  8 31  1  0
  9 32  1  0
 12 33  1  0
 15 34  1  0
 17 35  1  0
 19 36  1  0
 20 37  1  0
 21 38  1  0
M  END
>  <smiles>  (51) 
O=C(CCCOc1ccc(Cl)cc1Cl)NN=Cc1cccnc1F

>  <score_type>  (51) 
oracle

>  <origin>  (51) 
autodockgpu

>  <m_score__min__energy>  (51) 
-7.4199999999999999

>  <m_primary>  (51) 
energy

>  <rmsd>  (51) 
5.7320587787693045

>  <m_score__min__rmsd>  (51) 
5.7320587787693045

>  <meeko>  (51) 
{"free_energy": -6.31, "intermolecular_energy": -8.69, "internal_energy": -0.8, "cluster_size": 3, "cluster_id": 4, "rank_in_cluster": 1}

>  <energy>  (51) 
-7.42

>  <cluster_rmsd>  (51) 
0.0

>  <cluster>  (51) 
1

$$$$

     RDKit          3D

 38 39  0  0  1  0  0  0  0  0999 V2000
  139.9280   70.1550  221.8290 O   0  0  0  0  0  0  0  0  0  0  0  0
  140.1010   71.3870  221.7090 C   0  0  0  0  0  0  0  0  0  0  0  0
  140.7280   72.0850  220.5940 C   0  0  0  0  0  0  0  0  0  0  0  0
  141.5170   73.3100  220.9770 C   0  0  0  0  0  0  0  0  0  0  0  0
  140.7880   74.6040  220.7770 C   0  0  0  0  0  0  0  0  0  0  0  0
  140.3940   75.1680  221.9790 O   0  0  0  0  0  0  0  0  0  0  0  0
  140.1490   76.4390  222.3650 C   0  0  0  0  0  0  0  0  0  0  0  0
  141.0640   77.4120  222.6760 C   0  0  0  0  0  0  0  0  0  0  0  0
  140.7020   78.7000  223.0670 C   0  0  0  0  0  0  0  0  0  0  0  0
  139.3670   79.0170  223.1510 C   0  0  0  0  0  0  0  0  0  0  0  0
  138.9170   80.6180  223.6390 Cl  0  0  0  0  0  0  0  0  0  0  0  0
  138.4270   78.0840  222.8540 C   0  0  0  0  0  0  0  0  0  0  0  0
  138.8020   76.8210  222.4680 C   0  0  0  0  0  0  0  0  0  0  0  0
  137.5260   75.6720  222.1010 Cl  0  0  0  0  0  0  0  0  0  0  0  0
  139.6150   72.1920  222.8160 N   0  0  0  0  0  0  0  0  0  0  0  0
  139.0350   71.5680  223.8510 N   0  0  0  0  0  0  0  0  0  0  0  0
  139.5740   71.1520  224.8940 C   0  0  0  0  0  0  0  0  0  0  0  0
  139.6940   69.8550  225.4840 C   0  0  0  0  0  0  0  0  0  0  0  0
  140.6240   69.7360  226.5250 C   0  0  0  0  0  0  0  0  0  0  0  0
  140.8110   68.5330  227.1530 C   0  0  0  0  0  0  0  0  0  0  0  0
  140.1260   67.3890  226.8240 C   0  0  0  0  0  0  0  0  0  0  0  0
  139.2370   67.5110  225.8260 N   0  0  0  0  0  0  0  0  0  0  0  0
  139.0240   68.7050  225.1740 C   0  0  0  0  0  0  0  0  0  0  0  0
  138.1120   68.6420  224.2170 F   0  0  0  0  0  0  0  0  0  0  0  0
  141.4092   71.3831  220.0908 H   0  0  0  0  0  0  0  0  0  0  0  0
  139.9089   72.4344  219.9482 H   0  0  0  0  0  0  0  0  0  0  0  0
  141.7857   73.2274  222.0405 H   0  0  0  0  0  0  0  0  0  0  0  0
  142.3941   73.3383  220.3138 H   0  0  0  0  0  0  0  0  0  0  0  0
  141.4518   75.3086  220.2546 H   0  0  0  0  0  0  0  0  0  0  0  0
  139.8837   74.3970  220.1859 H   0  0  0  0  0  0  0  0  0  0  0  0
  142.1340   77.1644  222.6140 H   0  0  0  0  0  0  0  0  0  0  0  0
  141.4712   79.4497  223.3042 H   0  0  0  0  0  0  0  0  0  0  0  0
  137.3597   78.3411  222.9229 H   0  0  0  0  0  0  0  0  0  0  0  0
  139.7590   73.2480  222.8030 H   0  0  0  0  0  0  0  0  0  0  0  0
  140.0572   71.9459  225.4824 H   0  0  0  0  0  0  0  0  0  0  0  0
  141.2075   70.6137  226.8399 H   0  0  0  0  0  0  0  0  0  0  0  0
  141.5506   68.4804  227.9656 H   0  0  0  0  0  0  0  0  0  0  0  0
  140.2950   66.4348  227.3446 H   0  0  0  0  0  0  0  0  0  0  0  0
  1  2  2  0
  2  3  1  0
  3  4  1  0
  4  5  1  0
  5  6  1  0
  6  7  1  0
  7  8  2  0
  8  9  1  0
  9 10  2  0
 10 11  1  0
 10 12  1  0
 12 13  2  0
 13 14  1  0
  2 15  1  0
 15 16  1  0
 16 17  2  0
 17 18  1  0
 18 19  2  0
 19 20  1  0
 20 21  2  0
 21 22  1  0
 22 23  2  0
 23 24  1  0
 13  7  1  0
 23 18  1  0
  3 25  1  0
  3 26  1  0
  4 27  1  0
  4 28  1  0
  5 29  1  0
  5 30  1  0
  8 31  1  0
  9 32  1  0
 12 33  1  0
 15 34  1  0
 17 35  1  0
 19 36  1  0
 20 37  1  0
 21 38  1  0
M  END
>  <smiles>  (52) 
O=C(CCCOc1ccc(Cl)cc1Cl)NN=Cc1cccnc1F

>  <score_type>  (52) 
oracle

>  <origin>  (52) 
autodockgpu

>  <m_score__min__energy>  (52) 
-7.4199999999999999

>  <m_primary>  (52) 
energy

>  <rmsd>  (52) 
7.066502813602119

>  <m_score__min__rmsd>  (52) 
7.066502813602119

>  <meeko>  (52) 
{"free_energy": -6.04, "intermolecular_energy": -8.42, "internal_energy": -1.5, "cluster_size": 3, "cluster_id": 4, "rank_in_cluster": 3}

>  <energy>  (52) 
-6.73

>  <cluster_rmsd>  (52) 
1.23

>  <cluster>  (52) 
1

$$$$

     RDKit          3D

 38 39  0  0  1  0  0  0  0  0999 V2000
  139.5500   69.6630  223.4590 O   0  0  0  0  0  0  0  0  0  0  0  0
  139.1560   70.8250  223.2200 C   0  0  0  0  0  0  0  0  0  0  0  0
  137.9900   71.2180  222.4380 C   0  0  0  0  0  0  0  0  0  0  0  0
  137.7590   72.7030  222.3490 C   0  0  0  0  0  0  0  0  0  0  0  0
  138.6090   73.4030  221.3320 C   0  0  0  0  0  0  0  0  0  0  0  0
  139.8520   73.7410  221.8400 O   0  0  0  0  0  0  0  0  0  0  0  0
  141.1130   73.5500  221.3940 C   0  0  0  0  0  0  0  0  0  0  0  0
  141.7920   72.3630  221.2840 C   0  0  0  0  0  0  0  0  0  0  0  0
  143.1000   72.2770  220.8120 C   0  0  0  0  0  0  0  0  0  0  0  0
  143.7480   73.4290  220.4370 C   0  0  0  0  0  0  0  0  0  0  0  0
  145.3750   73.3210  219.8490 Cl  0  0  0  0  0  0  0  0  0  0  0  0
  143.1140   74.6260  220.5300 C   0  0  0  0  0  0  0  0  0  0  0  0
  141.8250   74.6920  220.9970 C   0  0  0  0  0  0  0  0  0  0  0  0
  141.0750   76.2780  221.0870 Cl  0  0  0  0  0  0  0  0  0  0  0  0
  139.9630   71.8850  223.7980 N   0  0  0  0  0  0  0  0  0  0  0  0
  141.0390   71.5440  224.5210 N   0  0  0  0  0  0  0  0  0  0  0  0
  141.1250   71.4320  225.7590 C   0  0  0  0  0  0  0  0  0  0  0  0
  140.7910   70.3850  226.6730 C   0  0  0  0  0  0  0  0  0  0  0  0
  141.0480   69.0800  226.2340 C   0  0  0  0  0  0  0  0  0  0  0  0
  140.7610   68.0080  227.0390 C   0  0  0  0  0  0  0  0  0  0  0  0
  140.2190   68.1260  228.2950 C   0  0  0  0  0  0  0  0  0  0  0  0
  139.9760   69.3800  228.7090 N   0  0  0  0  0  0  0  0  0  0  0  0
  140.2520   70.4770  227.9250 C   0  0  0  0  0  0  0  0  0  0  0  0
  139.9490   71.6350  228.4930 F   0  0  0  0  0  0  0  0  0  0  0  0
  138.1167   70.8299  221.4166 H   0  0  0  0  0  0  0  0  0  0  0  0
  137.1148   70.7997  222.9567 H   0  0  0  0  0  0  0  0  0  0  0  0
  136.7034   72.8718  222.0897 H   0  0  0  0  0  0  0  0  0  0  0  0
  138.0329   73.1221  223.3284 H   0  0  0  0  0  0  0  0  0  0  0  0
  138.7476   72.7382  220.4667 H   0  0  0  0  0  0  0  0  0  0  0  0
  138.0963   74.3318  221.0416 H   0  0  0  0  0  0  0  0  0  0  0  0
  141.2800   71.4362  221.5823 H   0  0  0  0  0  0  0  0  0  0  0  0
  143.6056   71.3027  220.7407 H   0  0  0  0  0  0  0  0  0  0  0  0
  143.6356   75.5468  220.2298 H   0  0  0  0  0  0  0  0  0  0  0  0
  139.7110   72.9030  223.6080 H   0  0  0  0  0  0  0  0  0  0  0  0
  141.5445   72.3226  226.2498 H   0  0  0  0  0  0  0  0  0  0  0  0
  141.4828   68.9142  225.2372 H   0  0  0  0  0  0  0  0  0  0  0  0
  140.9766   66.9988  226.6581 H   0  0  0  0  0  0  0  0  0  0  0  0
  139.9980   67.2495  228.9218 H   0  0  0  0  0  0  0  0  0  0  0  0
  1  2  2  0
  2  3  1  0
  3  4  1  0
  4  5  1  0
  5  6  1  0
  6  7  1  0
  7  8  2  0
  8  9  1  0
  9 10  2  0
 10 11  1  0
 10 12  1  0
 12 13  2  0
 13 14  1  0
  2 15  1  0
 15 16  1  0
 16 17  2  0
 17 18  1  0
 18 19  2  0
 19 20  1  0
 20 21  2  0
 21 22  1  0
 22 23  2  0
 23 24  1  0
 13  7  1  0
 23 18  1  0
  3 25  1  0
  3 26  1  0
  4 27  1  0
  4 28  1  0
  5 29  1  0
  5 30  1  0
  8 31  1  0
  9 32  1  0
 12 33  1  0
 15 34  1  0
 17 35  1  0
 19 36  1  0
 20 37  1  0
 21 38  1  0
M  END
>  <smiles>  (53) 
O=C(CCCOc1ccc(Cl)cc1Cl)NN=Cc1cccnc1F

>  <score_type>  (53) 
oracle

>  <origin>  (53) 
autodockgpu

>  <m_score__min__energy>  (53) 
-7.4199999999999999

>  <m_primary>  (53) 
energy

>  <rmsd>  (53) 
9.626093503822325

>  <m_score__min__rmsd>  (53) 
9.626093503822325

>  <meeko>  (53) 
{"free_energy": -6.06, "intermolecular_energy": -8.44, "internal_energy": -1.8, "cluster_size": 4, "cluster_id": 5, "rank_in_cluster": 1}

>  <energy>  (53) 
-6.69

>  <cluster_rmsd>  (53) 
1.36

>  <cluster>  (53) 
1

$$$$

     RDKit          3D

 38 39  0  0  1  0  0  0  0  0999 V2000
  139.9660   74.0140  222.3310 O   0  0  0  0  0  0  0  0  0  0  0  0
  140.8350   73.2410  221.8730 C   0  0  0  0  0  0  0  0  0  0  0  0
  141.8800   73.5620  220.9100 C   0  0  0  0  0  0  0  0  0  0  0  0
  141.7400   74.9070  220.2470 C   0  0  0  0  0  0  0  0  0  0  0  0
  140.3510   75.2300  219.7880 C   0  0  0  0  0  0  0  0  0  0  0  0
  139.9340   76.4730  220.2360 O   0  0  0  0  0  0  0  0  0  0  0  0
  140.5190   77.4220  221.0000 C   0  0  0  0  0  0  0  0  0  0  0  0
  141.6520   78.1410  220.7210 C   0  0  0  0  0  0  0  0  0  0  0  0
  142.1750   79.1010  221.5850 C   0  0  0  0  0  0  0  0  0  0  0  0
  141.5310   79.3440  222.7750 C   0  0  0  0  0  0  0  0  0  0  0  0
  142.1830   80.5380  223.8490 Cl  0  0  0  0  0  0  0  0  0  0  0  0
  140.4060   78.6540  223.0920 C   0  0  0  0  0  0  0  0  0  0  0  0
  139.9050   77.7130  222.2280 C   0  0  0  0  0  0  0  0  0  0  0  0
  138.4450   76.8640  222.7110 Cl  0  0  0  0  0  0  0  0  0  0  0  0
  140.7770   71.8780  222.3700 N   0  0  0  0  0  0  0  0  0  0  0  0
  139.8230   71.5640  223.2570 N   0  0  0  0  0  0  0  0  0  0  0  0
  139.9630   71.2650  224.4590 C   0  0  0  0  0  0  0  0  0  0  0  0
  139.8830   70.0310  225.1770 C   0  0  0  0  0  0  0  0  0  0  0  0
  140.5840   69.9780  226.3890 C   0  0  0  0  0  0  0  0  0  0  0  0
  140.5690   68.8380  227.1490 C   0  0  0  0  0  0  0  0  0  0  0  0
  139.8890   67.6990  226.7950 C   0  0  0  0  0  0  0  0  0  0  0  0
  139.2200   67.7570  225.6330 N   0  0  0  0  0  0  0  0  0  0  0  0
  139.2140   68.8860  224.8460 C   0  0  0  0  0  0  0  0  0  0  0  0
  138.5030   68.7670  223.7360 F   0  0  0  0  0  0  0  0  0  0  0  0
  142.8467   73.5385  221.4343 H   0  0  0  0  0  0  0  0  0  0  0  0
  141.8011   72.8131  220.1082 H   0  0  0  0  0  0  0  0  0  0  0  0
  142.0529   75.6788  220.9656 H   0  0  0  0  0  0  0  0  0  0  0  0
  142.3697   74.8793  219.3455 H   0  0  0  0  0  0  0  0  0  0  0  0
  140.3294   75.2229  218.6882 H   0  0  0  0  0  0  0  0  0  0  0  0
  139.6702   74.4723  220.2033 H   0  0  0  0  0  0  0  0  0  0  0  0
  142.1727   77.9514  219.7708 H   0  0  0  0  0  0  0  0  0  0  0  0
  143.0875   79.6549  221.3194 H   0  0  0  0  0  0  0  0  0  0  0  0
  139.8937   78.8499  224.0455 H   0  0  0  0  0  0  0  0  0  0  0  0
  141.4630   71.1520  221.9990 H   0  0  0  0  0  0  0  0  0  0  0  0
  140.1962   72.1284  225.0994 H   0  0  0  0  0  0  0  0  0  0  0  0
  141.1497   70.8567  226.7324 H   0  0  0  0  0  0  0  0  0  0  0  0
  141.1322   68.8352  228.0939 H   0  0  0  0  0  0  0  0  0  0  0  0
  139.8923   66.7964  227.4237 H   0  0  0  0  0  0  0  0  0  0  0  0
  1  2  2  0
  2  3  1  0
  3  4  1  0
  4  5  1  0
  5  6  1  0
  6  7  1  0
  7  8  2  0
  8  9  1  0
  9 10  2  0
 10 11  1  0
 10 12  1  0
 12 13  2  0
 13 14  1  0
  2 15  1  0
 15 16  1  0
 16 17  2  0
 17 18  1  0
 18 19  2  0
 19 20  1  0
 20 21  2  0
 21 22  1  0
 22 23  2  0
 23 24  1  0
 13  7  1  0
 23 18  1  0
  3 25  1  0
  3 26  1  0
  4 27  1  0
  4 28  1  0
  5 29  1  0
  5 30  1  0
  8 31  1  0
  9 32  1  0
 12 33  1  0
 15 34  1  0
 17 35  1  0
 19 36  1  0
 20 37  1  0
 21 38  1  0
M  END
>  <smiles>  (54) 
O=C(CCCOc1ccc(Cl)cc1Cl)NN=Cc1cccnc1F

>  <score_type>  (54) 
oracle

>  <origin>  (54) 
autodockgpu

>  <m_score__min__energy>  (54) 
-7.4199999999999999

>  <m_primary>  (54) 
energy

>  <rmsd>  (54) 
6.545184452244988

>  <m_score__min__rmsd>  (54) 
6.545184452244988

>  <meeko>  (54) 
{"free_energy": -6.4, "intermolecular_energy": -8.79, "internal_energy": -0.77, "cluster_size": 5, "cluster_id": 3, "rank_in_cluster": 5}

>  <energy>  (54) 
-6.68

>  <cluster_rmsd>  (54) 
0.59

>  <cluster>  (54) 
1

$$$$

     RDKit          3D

 38 39  0  0  1  0  0  0  0  0999 V2000
  139.5150   74.4670  222.3080 O   0  0  0  0  0  0  0  0  0  0  0  0
  140.6270   74.4480  221.7360 C   0  0  0  0  0  0  0  0  0  0  0  0
  141.1800   73.3760  220.9190 C   0  0  0  0  0  0  0  0  0  0  0  0
  141.3440   72.0590  221.6300 C   0  0  0  0  0  0  0  0  0  0  0  0
  140.0560   71.4040  222.0280 C   0  0  0  0  0  0  0  0  0  0  0  0
  139.7130   71.6910  223.3380 O   0  0  0  0  0  0  0  0  0  0  0  0
  139.9950   71.0950  224.5180 C   0  0  0  0  0  0  0  0  0  0  0  0
  140.8740   71.5180  225.4810 C   0  0  0  0  0  0  0  0  0  0  0  0
  141.0930   70.8220  226.6680 C   0  0  0  0  0  0  0  0  0  0  0  0
  140.4020   69.6550  226.8920 C   0  0  0  0  0  0  0  0  0  0  0  0
  140.6760   68.7900  228.3680 Cl  0  0  0  0  0  0  0  0  0  0  0  0
  139.5230   69.1980  225.9640 C   0  0  0  0  0  0  0  0  0  0  0  0
  139.3180   69.8980  224.8010 C   0  0  0  0  0  0  0  0  0  0  0  0
  138.1640   69.2420  223.6510 Cl  0  0  0  0  0  0  0  0  0  0  0  0
  141.4380   75.6380  221.9200 N   0  0  0  0  0  0  0  0  0  0  0  0
  140.9460   76.6360  222.6670 N   0  0  0  0  0  0  0  0  0  0  0  0
  140.7390   77.8170  222.3280 C   0  0  0  0  0  0  0  0  0  0  0  0
  141.1630   79.0760  222.8560 C   0  0  0  0  0  0  0  0  0  0  0  0
  142.5430   79.3190  222.8320 C   0  0  0  0  0  0  0  0  0  0  0  0
  143.0470   80.4980  223.3170 C   0  0  0  0  0  0  0  0  0  0  0  0
  142.2670   81.4980  223.8440 C   0  0  0  0  0  0  0  0  0  0  0  0
  140.9470   81.2570  223.8630 N   0  0  0  0  0  0  0  0  0  0  0  0
  140.4080   80.0840  223.3850 C   0  0  0  0  0  0  0  0  0  0  0  0
  139.0890   80.0180  223.4820 F   0  0  0  0  0  0  0  0  0  0  0  0
  140.5102   73.2200  220.0605 H   0  0  0  0  0  0  0  0  0  0  0  0
  142.1908   73.6986  220.6288 H   0  0  0  0  0  0  0  0  0  0  0  0
  141.8865   71.3733  220.9626 H   0  0  0  0  0  0  0  0  0  0  0  0
  141.8883   72.2718  222.5619 H   0  0  0  0  0  0  0  0  0  0  0  0
  139.2552   71.7621  221.3643 H   0  0  0  0  0  0  0  0  0  0  0  0
  140.1867   70.3153  221.9410 H   0  0  0  0  0  0  0  0  0  0  0  0
  141.4323   72.4500  225.3087 H   0  0  0  0  0  0  0  0  0  0  0  0
  141.8075   71.2003  227.4139 H   0  0  0  0  0  0  0  0  0  0  0  0
  138.9727   68.2629  226.1447 H   0  0  0  0  0  0  0  0  0  0  0  0
  142.4140   75.6830  221.4920 H   0  0  0  0  0  0  0  0  0  0  0  0
  140.0977   77.9100  221.4391 H   0  0  0  0  0  0  0  0  0  0  0  0
  143.2252   78.5598  222.4219 H   0  0  0  0  0  0  0  0  0  0  0  0
  144.1357   80.6515  223.2822 H   0  0  0  0  0  0  0  0  0  0  0  0
  142.6965   82.4359  224.2258 H   0  0  0  0  0  0  0  0  0  0  0  0
  1  2  2  0
  2  3  1  0
  3  4  1  0
  4  5  1  0
  5  6  1  0
  6  7  1  0
  7  8  2  0
  8  9  1  0
  9 10  2  0
 10 11  1  0
 10 12  1  0
 12 13  2  0
 13 14  1  0
  2 15  1  0
 15 16  1  0
 16 17  2  0
 17 18  1  0
 18 19  2  0
 19 20  1  0
 20 21  2  0
 21 22  1  0
 22 23  2  0
 23 24  1  0
 13  7  1  0
 23 18  1  0
  3 25  1  0
  3 26  1  0
  4 27  1  0
  4 28  1  0
  5 29  1  0
  5 30  1  0
  8 31  1  0
  9 32  1  0
 12 33  1  0
 15 34  1  0
 17 35  1  0
 19 36  1  0
 20 37  1  0
 21 38  1  0
M  END
>  <smiles>  (55) 
O=C(CCCOc1ccc(Cl)cc1Cl)NN=Cc1cccnc1F

>  <score_type>  (55) 
oracle

>  <origin>  (55) 
autodockgpu

>  <m_score__min__energy>  (55) 
-7.4199999999999999

>  <m_primary>  (55) 
energy

>  <rmsd>  (55) 
12.59623686793372

>  <m_score__min__rmsd>  (55) 
12.59623686793372

>  <meeko>  (55) 
{"free_energy": -7.42, "intermolecular_energy": -9.8, "internal_energy": -0.6, "cluster_size": 8, "cluster_id": 1, "rank_in_cluster": 1}

>  <energy>  (55) 
-6.44

>  <cluster_rmsd>  (55) 
1.27

>  <cluster>  (55) 
1

$$$$

     RDKit          3D

 38 39  0  0  1  0  0  0  0  0999 V2000
  136.3080   71.7700  221.3130 O   0  0  0  0  0  0  0  0  0  0  0  0
  137.1610   72.2750  222.0740 C   0  0  0  0  0  0  0  0  0  0  0  0
  138.3200   73.0710  221.6940 C   0  0  0  0  0  0  0  0  0  0  0  0
  139.6240   72.3180  221.6630 C   0  0  0  0  0  0  0  0  0  0  0  0
  140.3380   72.2610  222.9800 C   0  0  0  0  0  0  0  0  0  0  0  0
  139.6200   71.5530  223.9280 O   0  0  0  0  0  0  0  0  0  0  0  0
  139.9750   70.9030  225.0590 C   0  0  0  0  0  0  0  0  0  0  0  0
  140.7380   71.3780  226.0940 C   0  0  0  0  0  0  0  0  0  0  0  0
  141.0490   70.6190  227.2200 C   0  0  0  0  0  0  0  0  0  0  0  0
  140.5750   69.3320  227.3050 C   0  0  0  0  0  0  0  0  0  0  0  0
  140.9630   68.3880  228.7060 Cl  0  0  0  0  0  0  0  0  0  0  0  0
  139.8160   68.8200  226.3020 C   0  0  0  0  0  0  0  0  0  0  0  0
  139.5180   69.5830  225.2010 C   0  0  0  0  0  0  0  0  0  0  0  0
  138.5320   68.8490  223.9470 Cl  0  0  0  0  0  0  0  0  0  0  0  0
  136.9530   72.0270  223.4890 N   0  0  0  0  0  0  0  0  0  0  0  0
  135.8920   71.2970  223.8590 N   0  0  0  0  0  0  0  0  0  0  0  0
  134.8770   71.6770  224.4740 C   0  0  0  0  0  0  0  0  0  0  0  0
  134.5490   72.8810  225.1720 C   0  0  0  0  0  0  0  0  0  0  0  0
  135.1170   74.0590  224.6670 C   0  0  0  0  0  0  0  0  0  0  0  0
  134.8620   75.2640  225.2680 C   0  0  0  0  0  0  0  0  0  0  0  0
  134.0590   75.4070  226.3720 C   0  0  0  0  0  0  0  0  0  0  0  0
  133.5190   74.2750  226.8500 N   0  0  0  0  0  0  0  0  0  0  0  0
  133.7540   73.0490  226.2710 C   0  0  0  0  0  0  0  0  0  0  0  0
  133.1410   72.0410  226.8730 F   0  0  0  0  0  0  0  0  0  0  0  0
  138.1384   73.4812  220.6896 H   0  0  0  0  0  0  0  0  0  0  0  0
  138.4293   73.8454  222.4675 H   0  0  0  0  0  0  0  0  0  0  0  0
  139.4184   71.2873  221.3383 H   0  0  0  0  0  0  0  0  0  0  0  0
  140.2841   72.8620  220.9714 H   0  0  0  0  0  0  0  0  0  0  0  0
  141.3128   71.7725  222.8348 H   0  0  0  0  0  0  0  0  0  0  0  0
  140.4602   73.2913  223.3455 H   0  0  0  0  0  0  0  0  0  0  0  0
  141.1228   72.4067  226.0326 H   0  0  0  0  0  0  0  0  0  0  0  0
  141.6638   71.0429  228.0277 H   0  0  0  0  0  0  0  0  0  0  0  0
  139.4384   67.7892  226.3724 H   0  0  0  0  0  0  0  0  0  0  0  0
  137.6590   72.3950  224.1990 H   0  0  0  0  0  0  0  0  0  0  0  0
  134.0667   70.9332  224.4814 H   0  0  0  0  0  0  0  0  0  0  0  0
  135.7709   74.0159  223.7835 H   0  0  0  0  0  0  0  0  0  0  0  0
  135.3262   76.1659  224.8424 H   0  0  0  0  0  0  0  0  0  0  0  0
  133.8701   76.3866  226.8353 H   0  0  0  0  0  0  0  0  0  0  0  0
  1  2  2  0
  2  3  1  0
  3  4  1  0
  4  5  1  0
  5  6  1  0
  6  7  1  0
  7  8  2  0
  8  9  1  0
  9 10  2  0
 10 11  1  0
 10 12  1  0
 12 13  2  0
 13 14  1  0
  2 15  1  0
 15 16  1  0
 16 17  2  0
 17 18  1  0
 18 19  2  0
 19 20  1  0
 20 21  2  0
 21 22  1  0
 22 23  2  0
 23 24  1  0
 13  7  1  0
 23 18  1  0
  3 25  1  0
  3 26  1  0
  4 27  1  0
  4 28  1  0
  5 29  1  0
  5 30  1  0
  8 31  1  0
  9 32  1  0
 12 33  1  0
 15 34  1  0
 17 35  1  0
 19 36  1  0
 20 37  1  0
 21 38  1  0
M  END
>  <smiles>  (56) 
O=C(CCCOc1ccc(Cl)cc1Cl)NN=Cc1cccnc1F

>  <score_type>  (56) 
oracle

>  <origin>  (56) 
autodockgpu

>  <m_score__min__energy>  (56) 
-7.4199999999999999

>  <m_primary>  (56) 
energy

>  <rmsd>  (56) 
12.680976110414257

>  <m_score__min__rmsd>  (56) 
12.680976110414257

>  <meeko>  (56) 
{"free_energy": -5.88, "intermolecular_energy": -8.26, "internal_energy": -1.76, "cluster_size": 5, "cluster_id": 6, "rank_in_cluster": 2}

>  <energy>  (56) 
-6.38

>  <cluster_rmsd>  (56) 
1.25

>  <cluster>  (56) 
1

$$$$

     RDKit          3D

 38 39  0  0  1  0  0  0  0  0999 V2000
  140.3030   74.1950  222.2610 O   0  0  0  0  0  0  0  0  0  0  0  0
  140.6440   74.9640  221.3360 C   0  0  0  0  0  0  0  0  0  0  0  0
  141.7910   74.8210  220.4480 C   0  0  0  0  0  0  0  0  0  0  0  0
  141.6810   75.5690  219.1460 C   0  0  0  0  0  0  0  0  0  0  0  0
  142.2590   76.9520  219.1750 C   0  0  0  0  0  0  0  0  0  0  0  0
  141.4650   77.8290  219.8960 O   0  0  0  0  0  0  0  0  0  0  0  0
  141.7050   78.6300  220.9580 C   0  0  0  0  0  0  0  0  0  0  0  0
  141.8000   78.2660  222.2770 C   0  0  0  0  0  0  0  0  0  0  0  0
  142.0500   79.1770  223.3010 C   0  0  0  0  0  0  0  0  0  0  0  0
  142.2070   80.5050  222.9830 C   0  0  0  0  0  0  0  0  0  0  0  0
  142.5170   81.6390  224.2580 Cl  0  0  0  0  0  0  0  0  0  0  0  0
  142.1190   80.9100  221.6910 C   0  0  0  0  0  0  0  0  0  0  0  0
  141.8750   79.9980  220.6950 C   0  0  0  0  0  0  0  0  0  0  0  0
  141.7760   80.6010  219.0480 Cl  0  0  0  0  0  0  0  0  0  0  0  0
  139.7870   76.1200  221.1420 N   0  0  0  0  0  0  0  0  0  0  0  0
  138.7260   76.2690  221.9480 N   0  0  0  0  0  0  0  0  0  0  0  0
  138.4810   77.2120  222.7240 C   0  0  0  0  0  0  0  0  0  0  0  0
  138.5520   78.6340  222.5910 C   0  0  0  0  0  0  0  0  0  0  0  0
  138.7730   79.3520  223.7740 C   0  0  0  0  0  0  0  0  0  0  0  0
  138.8550   80.7200  223.7480 C   0  0  0  0  0  0  0  0  0  0  0  0
  138.7330   81.4670  222.6020 C   0  0  0  0  0  0  0  0  0  0  0  0
  138.5220   80.7720  221.4740 N   0  0  0  0  0  0  0  0  0  0  0  0
  138.4340   79.3980  221.4650 C   0  0  0  0  0  0  0  0  0  0  0  0
  138.2240   78.8790  220.2640 F   0  0  0  0  0  0  0  0  0  0  0  0
  142.6820   75.1878  220.9787 H   0  0  0  0  0  0  0  0  0  0  0  0
  141.8485   73.7539  220.1872 H   0  0  0  0  0  0  0  0  0  0  0  0
  142.2085   74.9919  218.3722 H   0  0  0  0  0  0  0  0  0  0  0  0
  140.6066   75.6823  218.9391 H   0  0  0  0  0  0  0  0  0  0  0  0
  143.2556   76.9112  219.6389 H   0  0  0  0  0  0  0  0  0  0  0  0
  142.3181   77.3184  218.1395 H   0  0  0  0  0  0  0  0  0  0  0  0
  141.6729   77.2051  222.5386 H   0  0  0  0  0  0  0  0  0  0  0  0
  142.1205   78.8395  224.3456 H   0  0  0  0  0  0  0  0  0  0  0  0
  142.2438   81.9739  221.4408 H   0  0  0  0  0  0  0  0  0  0  0  0
  140.0330   76.8400  220.3950 H   0  0  0  0  0  0  0  0  0  0  0  0
  138.1395   76.8830  223.7165 H   0  0  0  0  0  0  0  0  0  0  0  0
  138.8812   78.8152  224.7280 H   0  0  0  0  0  0  0  0  0  0  0  0
  139.0280   81.2485  224.6971 H   0  0  0  0  0  0  0  0  0  0  0  0
  138.8038   82.5647  222.6086 H   0  0  0  0  0  0  0  0  0  0  0  0
  1  2  2  0
  2  3  1  0
  3  4  1  0
  4  5  1  0
  5  6  1  0
  6  7  1  0
  7  8  2  0
  8  9  1  0
  9 10  2  0
 10 11  1  0
 10 12  1  0
 12 13  2  0
 13 14  1  0
  2 15  1  0
 15 16  1  0
 16 17  2  0
 17 18  1  0
 18 19  2  0
 19 20  1  0
 20 21  2  0
 21 22  1  0
 22 23  2  0
 23 24  1  0
 13  7  1  0
 23 18  1  0
  3 25  1  0
  3 26  1  0
  4 27  1  0
  4 28  1  0
  5 29  1  0
  5 30  1  0
  8 31  1  0
  9 32  1  0
 12 33  1  0
 15 34  1  0
 17 35  1  0
 19 36  1  0
 20 37  1  0
 21 38  1  0
M  END
>  <smiles>  (57) 
O=C(CCCOc1ccc(Cl)cc1Cl)NN=Cc1cccnc1F

>  <score_type>  (57) 
oracle

>  <origin>  (57) 
autodockgpu

>  <m_score__min__energy>  (57) 
-7.4199999999999999

>  <m_primary>  (57) 
energy

>  <rmsd>  (57) 
5.593040246354486

>  <m_score__min__rmsd>  (57) 
5.593040246354486

>  <meeko>  (57) 
{"free_energy": -4.43, "intermolecular_energy": -6.81, "internal_energy": -2.93, "cluster_size": 4, "cluster_id": 10, "rank_in_cluster": 4}

>  <energy>  (57) 
-6.29

>  <cluster_rmsd>  (57) 
1.82

>  <cluster>  (57) 
1

$$$$

     RDKit          3D

 38 39  0  0  1  0  0  0  0  0999 V2000
  141.5540   71.5210  221.6590 O   0  0  0  0  0  0  0  0  0  0  0  0
  140.9210   72.5900  221.7980 C   0  0  0  0  0  0  0  0  0  0  0  0
  140.9880   73.7720  220.9470 C   0  0  0  0  0  0  0  0  0  0  0  0
  139.7060   74.1120  220.2350 C   0  0  0  0  0  0  0  0  0  0  0  0
  138.6780   74.7820  221.0950 C   0  0  0  0  0  0  0  0  0  0  0  0
  139.2390   75.3470  222.2280 O   0  0  0  0  0  0  0  0  0  0  0  0
  139.7390   76.5730  222.4960 C   0  0  0  0  0  0  0  0  0  0  0  0
  141.0570   76.9430  222.5700 C   0  0  0  0  0  0  0  0  0  0  0  0
  141.4670   78.2440  222.8570 C   0  0  0  0  0  0  0  0  0  0  0  0
  140.5120   79.2070  223.0800 C   0  0  0  0  0  0  0  0  0  0  0  0
  141.0230   80.8240  223.4380 Cl  0  0  0  0  0  0  0  0  0  0  0  0
  139.1950   78.8850  223.0180 C   0  0  0  0  0  0  0  0  0  0  0  0
  138.8100   77.5990  222.7320 C   0  0  0  0  0  0  0  0  0  0  0  0
  137.0870   77.2620  222.6700 Cl  0  0  0  0  0  0  0  0  0  0  0  0
  140.0260   72.6370  222.9400 N   0  0  0  0  0  0  0  0  0  0  0  0
  139.9490   71.5590  223.7340 N   0  0  0  0  0  0  0  0  0  0  0  0
  140.7430   71.2100  224.6280 C   0  0  0  0  0  0  0  0  0  0  0  0
  140.5640   70.6360  225.9260 C   0  0  0  0  0  0  0  0  0  0  0  0
  140.1850   69.2870  225.9540 C   0  0  0  0  0  0  0  0  0  0  0  0
  139.9890   68.6480  227.1510 C   0  0  0  0  0  0  0  0  0  0  0  0
  140.1440   69.2570  228.3720 C   0  0  0  0  0  0  0  0  0  0  0  0
  140.5070   70.5480  228.3360 N   0  0  0  0  0  0  0  0  0  0  0  0
  140.7120   71.2200  227.1520 C   0  0  0  0  0  0  0  0  0  0  0  0
  141.0660   72.4870  227.3050 F   0  0  0  0  0  0  0  0  0  0  0  0
  141.2683   74.6303  221.5753 H   0  0  0  0  0  0  0  0  0  0  0  0
  141.7267   73.5474  220.1635 H   0  0  0  0  0  0  0  0  0  0  0  0
  139.9454   74.7846  219.3981 H   0  0  0  0  0  0  0  0  0  0  0  0
  139.2670   73.1581  219.9072 H   0  0  0  0  0  0  0  0  0  0  0  0
  138.1861   75.5730  220.5099 H   0  0  0  0  0  0  0  0  0  0  0  0
  137.9549   74.0186  221.4180 H   0  0  0  0  0  0  0  0  0  0  0  0
  141.8271   76.1773  222.3947 H   0  0  0  0  0  0  0  0  0  0  0  0
  142.5368   78.4957  222.9042 H   0  0  0  0  0  0  0  0  0  0  0  0
  138.4331   79.6578  223.1977 H   0  0  0  0  0  0  0  0  0  0  0  0
  139.4780   73.5280  223.1450 H   0  0  0  0  0  0  0  0  0  0  0  0
  141.7980   71.3775  224.3656 H   0  0  0  0  0  0  0  0  0  0  0  0
  140.0441   68.7383  225.0111 H   0  0  0  0  0  0  0  0  0  0  0  0
  139.6912   67.5892  227.1323 H   0  0  0  0  0  0  0  0  0  0  0  0
  139.9810   68.7208  229.3186 H   0  0  0  0  0  0  0  0  0  0  0  0
  1  2  2  0
  2  3  1  0
  3  4  1  0
  4  5  1  0
  5  6  1  0
  6  7  1  0
  7  8  2  0
  8  9  1  0
  9 10  2  0
 10 11  1  0
 10 12  1  0
 12 13  2  0
 13 14  1  0
  2 15  1  0
 15 16  1  0
 16 17  2  0
 17 18  1  0
 18 19  2  0
 19 20  1  0
 20 21  2  0
 21 22  1  0
 22 23  2  0
 23 24  1  0
 13  7  1  0
 23 18  1  0
  3 25  1  0
  3 26  1  0
  4 27  1  0
  4 28  1  0
  5 29  1  0
  5 30  1  0
  8 31  1  0
  9 32  1  0
 12 33  1  0
 15 34  1  0
 17 35  1  0
 19 36  1  0
 20 37  1  0
 21 38  1  0
M  END
>  <smiles>  (58) 
O=C(CCCOc1ccc(Cl)cc1Cl)NN=Cc1cccnc1F

>  <score_type>  (58) 
oracle

>  <origin>  (58) 
autodockgpu

>  <m_score__min__energy>  (58) 
-7.4199999999999999

>  <m_primary>  (58) 
energy

>  <rmsd>  (58) 
6.944810895202488

>  <m_score__min__rmsd>  (58) 
6.944810895202488

>  <meeko>  (58) 
{"free_energy": -6.44, "intermolecular_energy": -8.83, "internal_energy": -1.39, "cluster_size": 18, "cluster_id": 2, "rank_in_cluster": 7}

>  <energy>  (58) 
-6.11

>  <cluster_rmsd>  (58) 
1.78

>  <cluster>  (58) 
1

$$$$

     RDKit          3D

 38 39  0  0  1  0  0  0  0  0999 V2000
  141.0710   74.1970  221.9190 O   0  0  0  0  0  0  0  0  0  0  0  0
  139.8580   73.8990  221.9720 C   0  0  0  0  0  0  0  0  0  0  0  0
  138.7670   74.5120  221.2260 C   0  0  0  0  0  0  0  0  0  0  0  0
  137.8180   75.3360  222.0550 C   0  0  0  0  0  0  0  0  0  0  0  0
  137.7450   76.7800  221.6620 C   0  0  0  0  0  0  0  0  0  0  0  0
  138.1600   77.6170  222.6840 O   0  0  0  0  0  0  0  0  0  0  0  0
  139.3110   78.2840  222.9200 C   0  0  0  0  0  0  0  0  0  0  0  0
  140.5920   77.8510  222.6940 C   0  0  0  0  0  0  0  0  0  0  0  0
  141.7170   78.6230  222.9760 C   0  0  0  0  0  0  0  0  0  0  0  0
  141.5440   79.8780  223.5080 C   0  0  0  0  0  0  0  0  0  0  0  0
  142.9440   80.8380  223.8600 Cl  0  0  0  0  0  0  0  0  0  0  0  0
  140.2930   80.3480  223.7500 C   0  0  0  0  0  0  0  0  0  0  0  0
  139.1970   79.5730  223.4630 C   0  0  0  0  0  0  0  0  0  0  0  0
  137.6130   80.2520  223.8040 Cl  0  0  0  0  0  0  0  0  0  0  0  0
  139.5240   72.8200  222.8840 N   0  0  0  0  0  0  0  0  0  0  0  0
  140.5140   72.2430  223.5790 N   0  0  0  0  0  0  0  0  0  0  0  0
  140.4950   71.1490  224.1740 C   0  0  0  0  0  0  0  0  0  0  0  0
  140.3960   70.7850  225.5530 C   0  0  0  0  0  0  0  0  0  0  0  0
  139.7620   69.5650  225.8230 C   0  0  0  0  0  0  0  0  0  0  0  0
  139.6180   69.1300  227.1150 C   0  0  0  0  0  0  0  0  0  0  0  0
  140.0680   69.8310  228.2070 C   0  0  0  0  0  0  0  0  0  0  0  0
  140.6740   70.9990  227.9400 N   0  0  0  0  0  0  0  0  0  0  0  0
  140.8350   71.4640  226.6550 C   0  0  0  0  0  0  0  0  0  0  0  0
  141.4550   72.6320  226.5780 F   0  0  0  0  0  0  0  0  0  0  0  0
  139.2038   75.1650  220.4560 H   0  0  0  0  0  0  0  0  0  0  0  0
  138.1744   73.6843  220.8091 H   0  0  0  0  0  0  0  0  0  0  0  0
  136.8117   74.9022  221.9588 H   0  0  0  0  0  0  0  0  0  0  0  0
  138.1996   75.3107  223.0864 H   0  0  0  0  0  0  0  0  0  0  0  0
  138.3897   76.9427  220.7857 H   0  0  0  0  0  0  0  0  0  0  0  0
  136.6956   77.0174  221.4332 H   0  0  0  0  0  0  0  0  0  0  0  0
  140.7385   76.8466  222.2700 H   0  0  0  0  0  0  0  0  0  0  0  0
  142.7265   78.2344  222.7762 H   0  0  0  0  0  0  0  0  0  0  0  0
  140.1577   81.3526  224.1772 H   0  0  0  0  0  0  0  0  0  0  0  0
  138.5050   72.5330  223.0110 H   0  0  0  0  0  0  0  0  0  0  0  0
  140.5699   70.2839  223.4988 H   0  0  0  0  0  0  0  0  0  0  0  0
  139.3777   68.9529  224.9937 H   0  0  0  0  0  0  0  0  0  0  0  0
  139.1146   68.1671  227.2865 H   0  0  0  0  0  0  0  0  0  0  0  0
  139.9401   69.4594  229.2344 H   0  0  0  0  0  0  0  0  0  0  0  0
  1  2  2  0
  2  3  1  0
  3  4  1  0
  4  5  1  0
  5  6  1  0
  6  7  1  0
  7  8  2  0
  8  9  1  0
  9 10  2  0
 10 11  1  0
 10 12  1  0
 12 13  2  0
 13 14  1  0
  2 15  1  0
 15 16  1  0
 16 17  2  0
 17 18  1  0
 18 19  2  0
 19 20  1  0
 20 21  2  0
 21 22  1  0
 22 23  2  0
 23 24  1  0
 13  7  1  0
 23 18  1  0
  3 25  1  0
  3 26  1  0
  4 27  1  0
  4 28  1  0
  5 29  1  0
  5 30  1  0
  8 31  1  0
  9 32  1  0
 12 33  1  0
 15 34  1  0
 17 35  1  0
 19 36  1  0
 20 37  1  0
 21 38  1  0
M  END
>  <smiles>  (59) 
O=C(CCCOc1ccc(Cl)cc1Cl)NN=Cc1cccnc1F

>  <score_type>  (59) 
oracle

>  <origin>  (59) 
autodockgpu

>  <m_score__min__energy>  (59) 
-7.4199999999999999

>  <m_primary>  (59) 
energy

>  <rmsd>  (59) 
5.750928528755775

>  <m_score__min__rmsd>  (59) 
5.750928528755775

>  <meeko>  (59) 
{"free_energy": -6.84, "intermolecular_energy": -9.22, "internal_energy": -0.67, "cluster_size": 18, "cluster_id": 2, "rank_in_cluster": 2}

>  <energy>  (59) 
-6.94

>  <cluster_rmsd>  (59) 
0.0

>  <cluster>  (59) 
2

$$$$

     RDKit          3D

 38 39  0  0  1  0  0  0  0  0999 V2000
  138.9190   66.7210  223.2500 O   0  0  0  0  0  0  0  0  0  0  0  0
  138.5090   67.8920  223.0950 C   0  0  0  0  0  0  0  0  0  0  0  0
  138.0970   68.5250  221.8490 C   0  0  0  0  0  0  0  0  0  0  0  0
  137.7670   69.9900  221.9630 C   0  0  0  0  0  0  0  0  0  0  0  0
  136.3680   70.2780  222.4180 C   0  0  0  0  0  0  0  0  0  0  0  0
  136.3200   70.6140  223.7610 O   0  0  0  0  0  0  0  0  0  0  0  0
  135.4520   71.3410  224.4990 C   0  0  0  0  0  0  0  0  0  0  0  0
  135.3390   72.7060  224.5550 C   0  0  0  0  0  0  0  0  0  0  0  0
  134.4050   73.3600  225.3560 C   0  0  0  0  0  0  0  0  0  0  0  0
  133.5540   72.6080  226.1320 C   0  0  0  0  0  0  0  0  0  0  0  0
  132.3930   73.4210  227.1290 Cl  0  0  0  0  0  0  0  0  0  0  0  0
  133.6320   71.2530  226.1080 C   0  0  0  0  0  0  0  0  0  0  0  0
  134.5580   70.6270  225.3110 C   0  0  0  0  0  0  0  0  0  0  0  0
  134.5950   68.8710  225.3370 Cl  0  0  0  0  0  0  0  0  0  0  0  0
  138.4460   68.6910  224.3060 N   0  0  0  0  0  0  0  0  0  0  0  0
  138.8200   68.1270  225.4630 N   0  0  0  0  0  0  0  0  0  0  0  0
  139.2520   68.6920  226.4860 C   0  0  0  0  0  0  0  0  0  0  0  0
  139.9580   69.9160  226.7050 C   0  0  0  0  0  0  0  0  0  0  0  0
  140.0570   70.3390  228.0370 C   0  0  0  0  0  0  0  0  0  0  0  0
  140.7140   71.5010  228.3480 C   0  0  0  0  0  0  0  0  0  0  0  0
  141.3080   72.3110  227.4120 C   0  0  0  0  0  0  0  0  0  0  0  0
  141.2090   71.8990  226.1380 N   0  0  0  0  0  0  0  0  0  0  0  0
  140.5560   70.7380  225.7920 C   0  0  0  0  0  0  0  0  0  0  0  0
  140.5570   70.4860  224.4920 F   0  0  0  0  0  0  0  0  0  0  0  0
  138.9152   68.4142  221.1222 H   0  0  0  0  0  0  0  0  0  0  0  0
  137.1692   68.0222  221.5386 H   0  0  0  0  0  0  0  0  0  0  0  0
  138.4631   70.4440  222.6836 H   0  0  0  0  0  0  0  0  0  0  0  0
  137.8602   70.4115  220.9513 H   0  0  0  0  0  0  0  0  0  0  0  0
  135.9673   71.1151  221.8275 H   0  0  0  0  0  0  0  0  0  0  0  0
  135.7683   69.3673  222.2730 H   0  0  0  0  0  0  0  0  0  0  0  0
  136.0177   73.3137  223.9385 H   0  0  0  0  0  0  0  0  0  0  0  0
  134.3492   74.4585  225.3675 H   0  0  0  0  0  0  0  0  0  0  0  0
  132.9503   70.6541  226.7298 H   0  0  0  0  0  0  0  0  0  0  0  0
  138.1400   69.7110  224.2500 H   0  0  0  0  0  0  0  0  0  0  0  0
  139.0482   68.1340  227.4118 H   0  0  0  0  0  0  0  0  0  0  0  0
  139.6050   69.7352  228.8377 H   0  0  0  0  0  0  0  0  0  0  0  0
  140.7683   71.8009  229.4049 H   0  0  0  0  0  0  0  0  0  0  0  0
  141.8315   73.2382  227.6882 H   0  0  0  0  0  0  0  0  0  0  0  0
  1  2  2  0
  2  3  1  0
  3  4  1  0
  4  5  1  0
  5  6  1  0
  6  7  1  0
  7  8  2  0
  8  9  1  0
  9 10  2  0
 10 11  1  0
 10 12  1  0
 12 13  2  0
 13 14  1  0
  2 15  1  0
 15 16  1  0
 16 17  2  0
 17 18  1  0
 18 19  2  0
 19 20  1  0
 20 21  2  0
 21 22  1  0
 22 23  2  0
 23 24  1  0
 13  7  1  0
 23 18  1  0
  3 25  1  0
  3 26  1  0
  4 27  1  0
  4 28  1  0
  5 29  1  0
  5 30  1  0
  8 31  1  0
  9 32  1  0
 12 33  1  0
 15 34  1  0
 17 35  1  0
 19 36  1  0
 20 37  1  0
 21 38  1  0
M  END
>  <smiles>  (60) 
O=C(CCCOc1ccc(Cl)cc1Cl)NN=Cc1cccnc1F

>  <score_type>  (60) 
oracle

>  <origin>  (60) 
autodockgpu

>  <m_score__min__energy>  (60) 
-7.4199999999999999

>  <m_primary>  (60) 
energy

>  <rmsd>  (60) 
12.898605587819276

>  <m_score__min__rmsd>  (60) 
12.898605587819276

>  <meeko>  (60) 
{"free_energy": -5.49, "intermolecular_energy": -7.87, "internal_energy": -1.8, "cluster_size": 1, "cluster_id": 8, "rank_in_cluster": 1}

>  <energy>  (60) 
-6.84

>  <cluster_rmsd>  (60) 
0.64

>  <cluster>  (60) 
2

$$$$

     RDKit          3D

 38 39  0  0  1  0  0  0  0  0999 V2000
  140.4340   74.2610  221.9750 O   0  0  0  0  0  0  0  0  0  0  0  0
  141.2720   75.0050  221.4220 C   0  0  0  0  0  0  0  0  0  0  0  0
  142.4300   74.5980  220.6360 C   0  0  0  0  0  0  0  0  0  0  0  0
  142.5640   75.2860  219.3030 C   0  0  0  0  0  0  0  0  0  0  0  0
  142.9020   76.7440  219.3890 C   0  0  0  0  0  0  0  0  0  0  0  0
  141.8300   77.5460  219.0370 O   0  0  0  0  0  0  0  0  0  0  0  0
  141.4220   78.7700  219.4400 C   0  0  0  0  0  0  0  0  0  0  0  0
  142.2000   79.8690  219.6990 C   0  0  0  0  0  0  0  0  0  0  0  0
  141.6760   81.0910  220.1140 C   0  0  0  0  0  0  0  0  0  0  0  0
  140.3160   81.2100  220.2750 C   0  0  0  0  0  0  0  0  0  0  0  0
  139.6640   82.7300  220.7920 Cl  0  0  0  0  0  0  0  0  0  0  0  0
  139.5080   80.1460  220.0310 C   0  0  0  0  0  0  0  0  0  0  0  0
  140.0420   78.9510  219.6210 C   0  0  0  0  0  0  0  0  0  0  0  0
  138.9310   77.6230  219.3250 Cl  0  0  0  0  0  0  0  0  0  0  0  0
  141.0470   76.4290  221.5950 N   0  0  0  0  0  0  0  0  0  0  0  0
  139.9880   76.8240  222.3150 N   0  0  0  0  0  0  0  0  0  0  0  0
  139.7900   77.9370  222.8390 C   0  0  0  0  0  0  0  0  0  0  0  0
  140.6450   79.0410  223.1450 C   0  0  0  0  0  0  0  0  0  0  0  0
  142.0200   78.8130  222.9990 C   0  0  0  0  0  0  0  0  0  0  0  0
  142.9200   79.8100  223.2690 C   0  0  0  0  0  0  0  0  0  0  0  0
  142.5580   81.0670  223.6870 C   0  0  0  0  0  0  0  0  0  0  0  0
  141.2400   81.2780  223.8250 N   0  0  0  0  0  0  0  0  0  0  0  0
  140.3090   80.2980  223.5620 C   0  0  0  0  0  0  0  0  0  0  0  0
  139.0550   80.6810  223.7500 F   0  0  0  0  0  0  0  0  0  0  0  0
  143.3347   74.8124  221.2239 H   0  0  0  0  0  0  0  0  0  0  0  0
  142.2956   73.5280  220.4192 H   0  0  0  0  0  0  0  0  0  0  0  0
  143.3590   74.7817  218.7341 H   0  0  0  0  0  0  0  0  0  0  0  0
  141.5799   75.2204  218.8159 H   0  0  0  0  0  0  0  0  0  0  0  0
  143.1979   76.9797  220.4219 H   0  0  0  0  0  0  0  0  0  0  0  0
  143.7226   76.9449  218.6846 H   0  0  0  0  0  0  0  0  0  0  0  0
  143.2893   79.7815  219.5731 H   0  0  0  0  0  0  0  0  0  0  0  0
  142.3393   81.9464  220.3096 H   0  0  0  0  0  0  0  0  0  0  0  0
  138.4202   80.2430  220.1628 H   0  0  0  0  0  0  0  0  0  0  0  0
  141.7400   77.1270  221.1830 H   0  0  0  0  0  0  0  0  0  0  0  0
  138.7411   78.1046  223.1251 H   0  0  0  0  0  0  0  0  0  0  0  0
  142.3787   77.8280  222.6657 H   0  0  0  0  0  0  0  0  0  0  0  0
  143.9909   79.5917  223.1442 H   0  0  0  0  0  0  0  0  0  0  0  0
  143.3010   81.8509  223.8954 H   0  0  0  0  0  0  0  0  0  0  0  0
  1  2  2  0
  2  3  1  0
  3  4  1  0
  4  5  1  0
  5  6  1  0
  6  7  1  0
  7  8  2  0
  8  9  1  0
  9 10  2  0
 10 11  1  0
 10 12  1  0
 12 13  2  0
 13 14  1  0
  2 15  1  0
 15 16  1  0
 16 17  2  0
 17 18  1  0
 18 19  2  0
 19 20  1  0
 20 21  2  0
 21 22  1  0
 22 23  2  0
 23 24  1  0
 13  7  1  0
 23 18  1  0
  3 25  1  0
  3 26  1  0
  4 27  1  0
  4 28  1  0
  5 29  1  0
  5 30  1  0
  8 31  1  0
  9 32  1  0
 12 33  1  0
 15 34  1  0
 17 35  1  0
 19 36  1  0
 20 37  1  0
 21 38  1  0
M  END
>  <smiles>  (61) 
O=C(CCCOc1ccc(Cl)cc1Cl)NN=Cc1cccnc1F

>  <score_type>  (61) 
oracle

>  <origin>  (61) 
autodockgpu

>  <m_score__min__energy>  (61) 
-7.4199999999999999

>  <m_primary>  (61) 
energy

>  <rmsd>  (61) 
5.967453257736095

>  <m_score__min__rmsd>  (61) 
5.967453257736095

>  <meeko>  (61) 
{"free_energy": -4.54, "intermolecular_energy": -6.92, "internal_energy": -2.77, "cluster_size": 4, "cluster_id": 10, "rank_in_cluster": 3}

>  <energy>  (61) 
-6.81

>  <cluster_rmsd>  (61) 
1.28

>  <cluster>  (61) 
2

$$$$

     RDKit          3D

 38 39  0  0  1  0  0  0  0  0999 V2000
  138.5830   69.1180  223.8960 O   0  0  0  0  0  0  0  0  0  0  0  0
  137.7740   70.0370  224.1480 C   0  0  0  0  0  0  0  0  0  0  0  0
  136.3510   69.9040  224.4340 C   0  0  0  0  0  0  0  0  0  0  0  0
  135.4410   70.2000  223.2710 C   0  0  0  0  0  0  0  0  0  0  0  0
  135.1220   71.6530  223.0880 C   0  0  0  0  0  0  0  0  0  0  0  0
  135.5660   72.4190  224.1530 O   0  0  0  0  0  0  0  0  0  0  0  0
  135.0650   73.5070  224.7780 C   0  0  0  0  0  0  0  0  0  0  0  0
  135.3930   74.8210  224.5660 C   0  0  0  0  0  0  0  0  0  0  0  0
  134.8140   75.8740  225.2720 C   0  0  0  0  0  0  0  0  0  0  0  0
  133.8690   75.5900  226.2290 C   0  0  0  0  0  0  0  0  0  0  0  0
  133.1500   76.8990  227.1080 Cl  0  0  0  0  0  0  0  0  0  0  0  0
  133.5150   74.3030  226.4740 C   0  0  0  0  0  0  0  0  0  0  0  0
  134.0950   73.2790  225.7670 C   0  0  0  0  0  0  0  0  0  0  0  0
  133.5820   71.6410  226.1420 Cl  0  0  0  0  0  0  0  0  0  0  0  0
  138.3360   71.3760  224.1520 N   0  0  0  0  0  0  0  0  0  0  0  0
  139.6430   71.5190  223.8910 N   0  0  0  0  0  0  0  0  0  0  0  0
  140.5980   71.4020  224.6820 C   0  0  0  0  0  0  0  0  0  0  0  0
  140.7420   70.7750  225.9590 C   0  0  0  0  0  0  0  0  0  0  0  0
  140.6220   69.3780  225.9750 C   0  0  0  0  0  0  0  0  0  0  0  0
  140.7430   68.6860  227.1510 C   0  0  0  0  0  0  0  0  0  0  0  0
  140.9840   69.2840  228.3630 C   0  0  0  0  0  0  0  0  0  0  0  0
  141.0980   70.6210  228.3400 N   0  0  0  0  0  0  0  0  0  0  0  0
  140.9810   71.3470  227.1760 C   0  0  0  0  0  0  0  0  0  0  0  0
  141.1220   72.6540  227.3390 F   0  0  0  0  0  0  0  0  0  0  0  0
  136.1631   68.8706  224.7608 H   0  0  0  0  0  0  0  0  0  0  0  0
  136.1197   70.6530  225.2057 H   0  0  0  0  0  0  0  0  0  0  0  0
  135.9262   69.8362  222.3533 H   0  0  0  0  0  0  0  0  0  0  0  0
  134.4875   69.6936  223.4819 H   0  0  0  0  0  0  0  0  0  0  0  0
  135.6066   72.0099  222.1672 H   0  0  0  0  0  0  0  0  0  0  0  0
  134.0285   71.7562  223.0274 H   0  0  0  0  0  0  0  0  0  0  0  0
  136.1492   75.0555  223.8023 H   0  0  0  0  0  0  0  0  0  0  0  0
  135.1080   76.9140  225.0670 H   0  0  0  0  0  0  0  0  0  0  0  0
  132.7602   74.0793  227.2423 H   0  0  0  0  0  0  0  0  0  0  0  0
  137.7000   72.2140  224.3240 H   0  0  0  0  0  0  0  0  0  0  0  0
  141.5218   71.8799  224.3241 H   0  0  0  0  0  0  0  0  0  0  0  0
  140.4296   68.8348  225.0380 H   0  0  0  0  0  0  0  0  0  0  0  0
  140.6415   67.5911  227.1226 H   0  0  0  0  0  0  0  0  0  0  0  0
  141.0776   68.7045  229.2933 H   0  0  0  0  0  0  0  0  0  0  0  0
  1  2  2  0
  2  3  1  0
  3  4  1  0
  4  5  1  0
  5  6  1  0
  6  7  1  0
  7  8  2  0
  8  9  1  0
  9 10  2  0
 10 11  1  0
 10 12  1  0
 12 13  2  0
 13 14  1  0
  2 15  1  0
 15 16  1  0
 16 17  2  0
 17 18  1  0
 18 19  2  0
 19 20  1  0
 20 21  2  0
 21 22  1  0
 22 23  2  0
 23 24  1  0
 13  7  1  0
 23 18  1  0
  3 25  1  0
  3 26  1  0
  4 27  1  0
  4 28  1  0
  5 29  1  0
  5 30  1  0
  8 31  1  0
  9 32  1  0
 12 33  1  0
 15 34  1  0
 17 35  1  0
 19 36  1  0
 20 37  1  0
 21 38  1  0
M  END
>  <smiles>  (62) 
O=C(CCCOc1ccc(Cl)cc1Cl)NN=Cc1cccnc1F

>  <score_type>  (62) 
oracle

>  <origin>  (62) 
autodockgpu

>  <m_score__min__energy>  (62) 
-7.4199999999999999

>  <m_primary>  (62) 
energy

>  <rmsd>  (62) 
11.400436152738672

>  <m_score__min__rmsd>  (62) 
11.400436152738672

>  <meeko>  (62) 
{"free_energy": -5.69, "intermolecular_energy": -8.08, "internal_energy": -1.63, "cluster_size": 1, "cluster_id": 7, "rank_in_cluster": 1}

>  <energy>  (62) 
-6.79

>  <cluster_rmsd>  (62) 
1.29

>  <cluster>  (62) 
2

$$$$

     RDKit          3D

 38 39  0  0  1  0  0  0  0  0999 V2000
  140.8150   73.2820  222.0560 O   0  0  0  0  0  0  0  0  0  0  0  0
  139.5880   73.3200  222.2930 C   0  0  0  0  0  0  0  0  0  0  0  0
  138.6290   74.3110  221.8210 C   0  0  0  0  0  0  0  0  0  0  0  0
  139.0320   75.7430  222.0540 C   0  0  0  0  0  0  0  0  0  0  0  0
  137.9710   76.7480  221.7230 C   0  0  0  0  0  0  0  0  0  0  0  0
  138.2860   78.0100  222.1990 O   0  0  0  0  0  0  0  0  0  0  0  0
  139.4530   78.6070  222.5270 C   0  0  0  0  0  0  0  0  0  0  0  0
  140.7200   78.2220  222.1700 C   0  0  0  0  0  0  0  0  0  0  0  0
  141.8640   78.9120  222.5660 C   0  0  0  0  0  0  0  0  0  0  0  0
  141.7250   80.0300  223.3540 C   0  0  0  0  0  0  0  0  0  0  0  0
  143.1480   80.8880  223.8480 Cl  0  0  0  0  0  0  0  0  0  0  0  0
  140.4890   80.4460  223.7320 C   0  0  0  0  0  0  0  0  0  0  0  0
  139.3740   79.7550  223.3300 C   0  0  0  0  0  0  0  0  0  0  0  0
  137.8110   80.3560  223.8610 Cl  0  0  0  0  0  0  0  0  0  0  0  0
  139.0850   72.2470  223.1310 N   0  0  0  0  0  0  0  0  0  0  0  0
  139.9510   71.3250  223.5750 N   0  0  0  0  0  0  0  0  0  0  0  0
  140.6950   71.3900  224.5720 C   0  0  0  0  0  0  0  0  0  0  0  0
  140.6530   70.7830  225.8660 C   0  0  0  0  0  0  0  0  0  0  0  0
  140.3610   69.4130  225.8930 C   0  0  0  0  0  0  0  0  0  0  0  0
  140.2970   68.7420  227.0860 C   0  0  0  0  0  0  0  0  0  0  0  0
  140.5090   69.3380  228.3050 C   0  0  0  0  0  0  0  0  0  0  0  0
  140.7880   70.6500  228.2710 N   0  0  0  0  0  0  0  0  0  0  0  0
  140.8590   71.3540  227.0900 C   0  0  0  0  0  0  0  0  0  0  0  0
  141.1450   72.6380  227.2440 F   0  0  0  0  0  0  0  0  0  0  0  0
  138.4920   74.1661  220.7392 H   0  0  0  0  0  0  0  0  0  0  0  0
  137.7083   74.1508  222.4013 H   0  0  0  0  0  0  0  0  0  0  0  0
  139.2948   75.8577  223.1160 H   0  0  0  0  0  0  0  0  0  0  0  0
  139.8762   75.9447  221.3783 H   0  0  0  0  0  0  0  0  0  0  0  0
  137.8581   76.7985  220.6300 H   0  0  0  0  0  0  0  0  0  0  0  0
  137.0359   76.4265  222.2048 H   0  0  0  0  0  0  0  0  0  0  0  0
  140.8386   77.3268  221.5418 H   0  0  0  0  0  0  0  0  0  0  0  0
  142.8611   78.5682  222.2535 H   0  0  0  0  0  0  0  0  0  0  0  0
  140.3812   81.3405  224.3630 H   0  0  0  0  0  0  0  0  0  0  0  0
  138.0550   72.2310  223.4070 H   0  0  0  0  0  0  0  0  0  0  0  0
  141.5629   72.0502  224.4271 H   0  0  0  0  0  0  0  0  0  0  0  0
  140.1821   68.8731  224.9514 H   0  0  0  0  0  0  0  0  0  0  0  0
  140.0631   67.6673  227.0663 H   0  0  0  0  0  0  0  0  0  0  0  0
  140.4536   68.7758  229.2488 H   0  0  0  0  0  0  0  0  0  0  0  0
  1  2  2  0
  2  3  1  0
  3  4  1  0
  4  5  1  0
  5  6  1  0
  6  7  1  0
  7  8  2  0
  8  9  1  0
  9 10  2  0
 10 11  1  0
 10 12  1  0
 12 13  2  0
 13 14  1  0
  2 15  1  0
 15 16  1  0
 16 17  2  0
 17 18  1  0
 18 19  2  0
 19 20  1  0
 20 21  2  0
 21 22  1  0
 22 23  2  0
 23 24  1  0
 13  7  1  0
 23 18  1  0
  3 25  1  0
  3 26  1  0
  4 27  1  0
  4 28  1  0
  5 29  1  0
  5 30  1  0
  8 31  1  0
  9 32  1  0
 12 33  1  0
 15 34  1  0
 17 35  1  0
 19 36  1  0
 20 37  1  0
 21 38  1  0
M  END
>  <smiles>  (63) 
O=C(CCCOc1ccc(Cl)cc1Cl)NN=Cc1cccnc1F

>  <score_type>  (63) 
oracle

>  <origin>  (63) 
autodockgpu

>  <m_score__min__energy>  (63) 
-7.4199999999999999

>  <m_primary>  (63) 
energy

>  <rmsd>  (63) 
5.705919839399036

>  <m_score__min__rmsd>  (63) 
5.705919839399036

>  <meeko>  (63) 
{"free_energy": -6.94, "intermolecular_energy": -9.32, "internal_energy": -0.4, "cluster_size": 18, "cluster_id": 2, "rank_in_cluster": 1}

>  <energy>  (63) 
-6.74

>  <cluster_rmsd>  (63) 
1.96

>  <cluster>  (63) 
2

$$$$

     RDKit          3D

 38 39  0  0  1  0  0  0  0  0999 V2000
  140.2990   70.7700  221.6940 O   0  0  0  0  0  0  0  0  0  0  0  0
  139.8610   71.9390  221.7590 C   0  0  0  0  0  0  0  0  0  0  0  0
  139.2950   72.7300  220.6740 C   0  0  0  0  0  0  0  0  0  0  0  0
  137.9320   73.3060  220.9550 C   0  0  0  0  0  0  0  0  0  0  0  0
  137.9310   74.4520  221.9200 C   0  0  0  0  0  0  0  0  0  0  0  0
  139.1910   75.0070  222.0680 O   0  0  0  0  0  0  0  0  0  0  0  0
  139.6320   76.2800  222.1690 C   0  0  0  0  0  0  0  0  0  0  0  0
  138.9890   77.3470  222.7440 C   0  0  0  0  0  0  0  0  0  0  0  0
  139.5360   78.6270  222.7940 C   0  0  0  0  0  0  0  0  0  0  0  0
  140.7770   78.8410  222.2420 C   0  0  0  0  0  0  0  0  0  0  0  0
  141.4560   80.4340  222.3040 Cl  0  0  0  0  0  0  0  0  0  0  0  0
  141.4490   77.8140  221.6620 C   0  0  0  0  0  0  0  0  0  0  0  0
  140.8950   76.5590  221.6240 C   0  0  0  0  0  0  0  0  0  0  0  0
  141.8270   75.2840  220.8550 Cl  0  0  0  0  0  0  0  0  0  0  0  0
  139.9350   72.5570  223.0710 N   0  0  0  0  0  0  0  0  0  0  0  0
  140.4520   71.8450  224.0820 N   0  0  0  0  0  0  0  0  0  0  0  0
  139.8490   71.1130  224.8900 C   0  0  0  0  0  0  0  0  0  0  0  0
  140.2440   70.4510  226.0950 C   0  0  0  0  0  0  0  0  0  0  0  0
  140.1230   69.0550  226.0970 C   0  0  0  0  0  0  0  0  0  0  0  0
  140.4760   68.3310  227.2060 C   0  0  0  0  0  0  0  0  0  0  0  0
  140.9600   68.8970  228.3600 C   0  0  0  0  0  0  0  0  0  0  0  0
  141.0730   70.2340  228.3500 N   0  0  0  0  0  0  0  0  0  0  0  0
  140.7280   70.9910  227.2530 C   0  0  0  0  0  0  0  0  0  0  0  0
  140.9040   72.2930  227.4190 F   0  0  0  0  0  0  0  0  0  0  0  0
  139.9817   73.5633  220.4640 H   0  0  0  0  0  0  0  0  0  0  0  0
  139.1712   72.0438  219.8232 H   0  0  0  0  0  0  0  0  0  0  0  0
  137.5040   73.6565  220.0042 H   0  0  0  0  0  0  0  0  0  0  0  0
  137.3420   72.5030  221.4209 H   0  0  0  0  0  0  0  0  0  0  0  0
  137.2429   75.2267  221.5506 H   0  0  0  0  0  0  0  0  0  0  0  0
  137.6108   74.0700  222.9006 H   0  0  0  0  0  0  0  0  0  0  0  0
  137.9951   77.1839  223.1862 H   0  0  0  0  0  0  0  0  0  0  0  0
  138.9844   79.4528  223.2672 H   0  0  0  0  0  0  0  0  0  0  0  0
  142.4414   77.9884  221.2208 H   0  0  0  0  0  0  0  0  0  0  0  0
  139.6150   73.5650  223.1970 H   0  0  0  0  0  0  0  0  0  0  0  0
  138.7963   70.9402  224.6215 H   0  0  0  0  0  0  0  0  0  0  0  0
  139.7427   68.5375  225.2039 H   0  0  0  0  0  0  0  0  0  0  0  0
  140.3656   67.2371  227.1698 H   0  0  0  0  0  0  0  0  0  0  0  0
  141.2373   68.2929  229.2364 H   0  0  0  0  0  0  0  0  0  0  0  0
  1  2  2  0
  2  3  1  0
  3  4  1  0
  4  5  1  0
  5  6  1  0
  6  7  1  0
  7  8  2  0
  8  9  1  0
  9 10  2  0
 10 11  1  0
 10 12  1  0
 12 13  2  0
 13 14  1  0
  2 15  1  0
 15 16  1  0
 16 17  2  0
 17 18  1  0
 18 19  2  0
 19 20  1  0
 20 21  2  0
 21 22  1  0
 22 23  2  0
 23 24  1  0
 13  7  1  0
 23 18  1  0
  3 25  1  0
  3 26  1  0
  4 27  1  0
  4 28  1  0
  5 29  1  0
  5 30  1  0
  8 31  1  0
  9 32  1  0
 12 33  1  0
 15 34  1  0
 17 35  1  0
 19 36  1  0
 20 37  1  0
 21 38  1  0
M  END
>  <smiles>  (64) 
O=C(CCCOc1ccc(Cl)cc1Cl)NN=Cc1cccnc1F

>  <score_type>  (64) 
oracle

>  <origin>  (64) 
autodockgpu

>  <m_score__min__energy>  (64) 
-7.4199999999999999

>  <m_primary>  (64) 
energy

>  <rmsd>  (64) 
6.912183252694523

>  <m_score__min__rmsd>  (64) 
6.912183252694523

>  <meeko>  (64) 
{"free_energy": -6.07, "intermolecular_energy": -8.46, "internal_energy": -1.51, "cluster_size": 18, "cluster_id": 2, "rank_in_cluster": 18}

>  <energy>  (64) 
-6.74

>  <cluster_rmsd>  (64) 
1.59

>  <cluster>  (64) 
2

$$$$

     RDKit          3D

 38 39  0  0  1  0  0  0  0  0999 V2000
  141.0610   73.8390  221.9170 O   0  0  0  0  0  0  0  0  0  0  0  0
  139.8140   73.7840  221.9730 C   0  0  0  0  0  0  0  0  0  0  0  0
  138.8630   74.7170  221.3820 C   0  0  0  0  0  0  0  0  0  0  0  0
  137.7690   75.1780  222.3090 C   0  0  0  0  0  0  0  0  0  0  0  0
  137.5600   76.6620  222.3320 C   0  0  0  0  0  0  0  0  0  0  0  0
  138.6430   77.3460  221.8070 O   0  0  0  0  0  0  0  0  0  0  0  0
  139.5570   78.1810  222.3480 C   0  0  0  0  0  0  0  0  0  0  0  0
  139.3600   79.1130  223.3340 C   0  0  0  0  0  0  0  0  0  0  0  0
  140.3780   79.9310  223.8220 C   0  0  0  0  0  0  0  0  0  0  0  0
  141.6410   79.8050  223.2940 C   0  0  0  0  0  0  0  0  0  0  0  0
  142.9060   80.8230  223.9010 Cl  0  0  0  0  0  0  0  0  0  0  0  0
  141.8810   78.8960  222.3150 C   0  0  0  0  0  0  0  0  0  0  0  0
  140.8660   78.0980  221.8480 C   0  0  0  0  0  0  0  0  0  0  0  0
  141.2570   76.9470  220.5800 Cl  0  0  0  0  0  0  0  0  0  0  0  0
  139.2750   72.6560  222.7120 N   0  0  0  0  0  0  0  0  0  0  0  0
  140.1330   71.7860  223.2620 N   0  0  0  0  0  0  0  0  0  0  0  0
  139.9030   70.9370  224.1440 C   0  0  0  0  0  0  0  0  0  0  0  0
  140.1790   70.8830  225.5460 C   0  0  0  0  0  0  0  0  0  0  0  0
  141.0050   71.8970  226.0500 C   0  0  0  0  0  0  0  0  0  0  0  0
  141.3270   71.9300  227.3820 C   0  0  0  0  0  0  0  0  0  0  0  0
  140.8800   71.0060  228.2940 C   0  0  0  0  0  0  0  0  0  0  0  0
  140.0900   70.0380  227.8040 N   0  0  0  0  0  0  0  0  0  0  0  0
  139.7470   69.9760  226.4720 C   0  0  0  0  0  0  0  0  0  0  0  0
  138.9600   68.9560  226.1650 F   0  0  0  0  0  0  0  0  0  0  0  0
  139.4194   75.6031  221.0424 H   0  0  0  0  0  0  0  0  0  0  0  0
  138.3666   74.1752  220.5635 H   0  0  0  0  0  0  0  0  0  0  0  0
  136.8282   74.7031  221.9936 H   0  0  0  0  0  0  0  0  0  0  0  0
  138.0764   74.8889  223.3249 H   0  0  0  0  0  0  0  0  0  0  0  0
  136.6657   76.9040  221.7390 H   0  0  0  0  0  0  0  0  0  0  0  0
  137.4379   76.9719  223.3804 H   0  0  0  0  0  0  0  0  0  0  0  0
  138.3515   79.2204  223.7600 H   0  0  0  0  0  0  0  0  0  0  0  0
  140.1741   80.6646  224.6159 H   0  0  0  0  0  0  0  0  0  0  0  0
  142.8926   78.7983  221.8941 H   0  0  0  0  0  0  0  0  0  0  0  0
  138.2200   72.5610  222.8330 H   0  0  0  0  0  0  0  0  0  0  0  0
  139.3802   70.0457  223.7669 H   0  0  0  0  0  0  0  0  0  0  0  0
  141.3969   72.6704  225.3731 H   0  0  0  0  0  0  0  0  0  0  0  0
  141.9788   72.7407  227.7397 H   0  0  0  0  0  0  0  0  0  0  0  0
  141.1521   71.0560  229.3586 H   0  0  0  0  0  0  0  0  0  0  0  0
  1  2  2  0
  2  3  1  0
  3  4  1  0
  4  5  1  0
  5  6  1  0
  6  7  1  0
  7  8  2  0
  8  9  1  0
  9 10  2  0
 10 11  1  0
 10 12  1  0
 12 13  2  0
 13 14  1  0
  2 15  1  0
 15 16  1  0
 16 17  2  0
 17 18  1  0
 18 19  2  0
 19 20  1  0
 20 21  2  0
 21 22  1  0
 22 23  2  0
 23 24  1  0
 13  7  1  0
 23 18  1  0
  3 25  1  0
  3 26  1  0
  4 27  1  0
  4 28  1  0
  5 29  1  0
  5 30  1  0
  8 31  1  0
  9 32  1  0
 12 33  1  0
 15 34  1  0
 17 35  1  0
 19 36  1  0
 20 37  1  0
 21 38  1  0
M  END
>  <smiles>  (65) 
O=C(CCCOc1ccc(Cl)cc1Cl)NN=Cc1cccnc1F

>  <score_type>  (65) 
oracle

>  <origin>  (65) 
autodockgpu

>  <m_score__min__energy>  (65) 
-7.4199999999999999

>  <m_primary>  (65) 
energy

>  <rmsd>  (65) 
5.559879541352734

>  <m_score__min__rmsd>  (65) 
5.559879541352734

>  <meeko>  (65) 
{"free_energy": -6.74, "intermolecular_energy": -9.13, "internal_energy": -0.82, "cluster_size": 18, "cluster_id": 2, "rank_in_cluster": 6}

>  <energy>  (65) 
-6.44

>  <cluster_rmsd>  (65) 
1.46

>  <cluster>  (65) 
2

$$$$

     RDKit          3D

 38 39  0  0  1  0  0  0  0  0999 V2000
  140.2940   74.0000  222.0250 O   0  0  0  0  0  0  0  0  0  0  0  0
  141.1800   74.5670  221.3500 C   0  0  0  0  0  0  0  0  0  0  0  0
  141.9750   73.9890  220.2750 C   0  0  0  0  0  0  0  0  0  0  0  0
  143.3340   74.6110  220.0870 C   0  0  0  0  0  0  0  0  0  0  0  0
  143.3840   75.6910  219.0500 C   0  0  0  0  0  0  0  0  0  0  0  0
  142.2210   76.4420  219.0290 O   0  0  0  0  0  0  0  0  0  0  0  0
  141.9790   77.7640  218.8800 C   0  0  0  0  0  0  0  0  0  0  0  0
  142.8730   78.7460  218.5400 C   0  0  0  0  0  0  0  0  0  0  0  0
  142.5170   80.0880  218.4150 C   0  0  0  0  0  0  0  0  0  0  0  0
  141.2120   80.4520  218.6450 C   0  0  0  0  0  0  0  0  0  0  0  0
  140.7700   82.1210  218.4900 Cl  0  0  0  0  0  0  0  0  0  0  0  0
  140.2930   79.5120  218.9860 C   0  0  0  0  0  0  0  0  0  0  0  0
  140.6620   78.1950  219.1020 C   0  0  0  0  0  0  0  0  0  0  0  0
  139.4150   77.0400  219.5470 Cl  0  0  0  0  0  0  0  0  0  0  0  0
  141.4270   75.9560  221.6940 N   0  0  0  0  0  0  0  0  0  0  0  0
  140.7050   76.5060  222.6800 N   0  0  0  0  0  0  0  0  0  0  0  0
  140.2220   77.6540  222.7270 C   0  0  0  0  0  0  0  0  0  0  0  0
  140.8030   78.9600  222.7510 C   0  0  0  0  0  0  0  0  0  0  0  0
  142.1710   79.0200  223.0480 C   0  0  0  0  0  0  0  0  0  0  0  0
  142.8180   80.2270  223.0950 C   0  0  0  0  0  0  0  0  0  0  0  0
  142.1980   81.4300  222.8620 C   0  0  0  0  0  0  0  0  0  0  0  0
  140.8880   81.3650  222.5780 N   0  0  0  0  0  0  0  0  0  0  0  0
  140.2080   80.1690  222.5230 C   0  0  0  0  0  0  0  0  0  0  0  0
  138.9230   80.2920  222.2290 F   0  0  0  0  0  0  0  0  0  0  0  0
  142.1155   72.9195  220.4907 H   0  0  0  0  0  0  0  0  0  0  0  0
  141.4186   74.1758  219.3447 H   0  0  0  0  0  0  0  0  0  0  0  0
  143.6505   75.0424  221.0481 H   0  0  0  0  0  0  0  0  0  0  0  0
  143.9998   73.8088  219.7361 H   0  0  0  0  0  0  0  0  0  0  0  0
  144.2324   76.3557  219.2697 H   0  0  0  0  0  0  0  0  0  0  0  0
  143.4985   75.2131  218.0659 H   0  0  0  0  0  0  0  0  0  0  0  0
  143.9199   78.4619  218.3573 H   0  0  0  0  0  0  0  0  0  0  0  0
  143.2677   80.8425  218.1371 H   0  0  0  0  0  0  0  0  0  0  0  0
  139.2494   79.8071  219.1698 H   0  0  0  0  0  0  0  0  0  0  0  0
  142.1930   76.4970  221.1870 H   0  0  0  0  0  0  0  0  0  0  0  0
  139.1224   77.6644  222.7560 H   0  0  0  0  0  0  0  0  0  0  0  0
  142.7289   78.0926  223.2446 H   0  0  0  0  0  0  0  0  0  0  0  0
  143.8921   80.2326  223.3322 H   0  0  0  0  0  0  0  0  0  0  0  0
  142.7405   82.3859  222.9054 H   0  0  0  0  0  0  0  0  0  0  0  0
  1  2  2  0
  2  3  1  0
  3  4  1  0
  4  5  1  0
  5  6  1  0
  6  7  1  0
  7  8  2  0
  8  9  1  0
  9 10  2  0
 10 11  1  0
 10 12  1  0
 12 13  2  0
 13 14  1  0
  2 15  1  0
 15 16  1  0
 16 17  2  0
 17 18  1  0
 18 19  2  0
 19 20  1  0
 20 21  2  0
 21 22  1  0
 22 23  2  0
 23 24  1  0
 13  7  1  0
 23 18  1  0
  3 25  1  0
  3 26  1  0
  4 27  1  0
  4 28  1  0
  5 29  1  0
  5 30  1  0
  8 31  1  0
  9 32  1  0
 12 33  1  0
 15 34  1  0
 17 35  1  0
 19 36  1  0
 20 37  1  0
 21 38  1  0
M  END
>  <smiles>  (66) 
O=C(CCCOc1ccc(Cl)cc1Cl)NN=Cc1cccnc1F

>  <score_type>  (66) 
oracle

>  <origin>  (66) 
autodockgpu

>  <m_score__min__energy>  (66) 
-7.4199999999999999

>  <m_primary>  (66) 
energy

>  <rmsd>  (66) 
7.061424859265977

>  <m_score__min__rmsd>  (66) 
7.061424859265977

>  <meeko>  (66) 
{"free_energy": -4.68, "intermolecular_energy": -7.06, "internal_energy": -2.73, "cluster_size": 4, "cluster_id": 10, "rank_in_cluster": 2}

>  <energy>  (66) 
-6.41

>  <cluster_rmsd>  (66) 
1.71

>  <cluster>  (66) 
2

$$$$

     RDKit          3D

 38 39  0  0  1  0  0  0  0  0999 V2000
  139.6640   71.4530  220.9460 O   0  0  0  0  0  0  0  0  0  0  0  0
  139.1340   72.4990  221.3790 C   0  0  0  0  0  0  0  0  0  0  0  0
  138.1200   73.3120  220.7200 C   0  0  0  0  0  0  0  0  0  0  0  0
  137.0890   73.9080  221.6430 C   0  0  0  0  0  0  0  0  0  0  0  0
  137.3070   75.3560  221.9620 C   0  0  0  0  0  0  0  0  0  0  0  0
  138.6510   75.6580  222.1060 O   0  0  0  0  0  0  0  0  0  0  0  0
  139.3120   76.7950  222.4150 C   0  0  0  0  0  0  0  0  0  0  0  0
  138.8140   77.9130  223.0340 C   0  0  0  0  0  0  0  0  0  0  0  0
  139.5870   79.0400  223.3050 C   0  0  0  0  0  0  0  0  0  0  0  0
  140.9110   79.0410  222.9360 C   0  0  0  0  0  0  0  0  0  0  0  0
  141.8720   80.4440  223.2730 Cl  0  0  0  0  0  0  0  0  0  0  0  0
  141.4460   77.9570  222.3190 C   0  0  0  0  0  0  0  0  0  0  0  0
  140.6700   76.8540  222.0620 C   0  0  0  0  0  0  0  0  0  0  0  0
  141.4350   75.4920  221.2610 Cl  0  0  0  0  0  0  0  0  0  0  0  0
  139.5960   72.9320  222.6860 N   0  0  0  0  0  0  0  0  0  0  0  0
  140.5280   72.1980  223.3080 N   0  0  0  0  0  0  0  0  0  0  0  0
  140.3590   71.1850  224.0150 C   0  0  0  0  0  0  0  0  0  0  0  0
  140.3030   70.9760  225.4290 C   0  0  0  0  0  0  0  0  0  0  0  0
  141.0120   71.8950  226.2140 C   0  0  0  0  0  0  0  0  0  0  0  0
  141.0200   71.7780  227.5800 C   0  0  0  0  0  0  0  0  0  0  0  0
  140.3560   70.7870  228.2610 C   0  0  0  0  0  0  0  0  0  0  0  0
  139.6800   69.9120  227.5020 N   0  0  0  0  0  0  0  0  0  0  0  0
  139.6510   70.0010  226.1280 C   0  0  0  0  0  0  0  0  0  0  0  0
  138.9350   69.0540  225.5410 F   0  0  0  0  0  0  0  0  0  0  0  0
  138.6284   74.1358  220.1976 H   0  0  0  0  0  0  0  0  0  0  0  0
  137.5756   72.6381  220.0422 H   0  0  0  0  0  0  0  0  0  0  0  0
  136.1019   73.8050  221.1685 H   0  0  0  0  0  0  0  0  0  0  0  0
  137.1664   73.3618  222.5947 H   0  0  0  0  0  0  0  0  0  0  0  0
  136.8911   75.9660  221.1466 H   0  0  0  0  0  0  0  0  0  0  0  0
  136.8053   75.5734  222.9165 H   0  0  0  0  0  0  0  0  0  0  0  0
  137.7547   77.9202  223.3304 H   0  0  0  0  0  0  0  0  0  0  0  0
  139.1452   79.9141  223.8057 H   0  0  0  0  0  0  0  0  0  0  0  0
  142.5056   77.9622  222.0237 H   0  0  0  0  0  0  0  0  0  0  0  0
  139.2160   73.8360  223.1060 H   0  0  0  0  0  0  0  0  0  0  0  0
  140.2255   70.2622  223.4314 H   0  0  0  0  0  0  0  0  0  0  0  0
  141.5650   72.7145  225.7318 H   0  0  0  0  0  0  0  0  0  0  0  0
  141.5890   72.5178  228.1621 H   0  0  0  0  0  0  0  0  0  0  0  0
  140.3773   70.7156  229.3585 H   0  0  0  0  0  0  0  0  0  0  0  0
  1  2  2  0
  2  3  1  0
  3  4  1  0
  4  5  1  0
  5  6  1  0
  6  7  1  0
  7  8  2  0
  8  9  1  0
  9 10  2  0
 10 11  1  0
 10 12  1  0
 12 13  2  0
 13 14  1  0
  2 15  1  0
 15 16  1  0
 16 17  2  0
 17 18  1  0
 18 19  2  0
 19 20  1  0
 20 21  2  0
 21 22  1  0
 22 23  2  0
 23 24  1  0
 13  7  1  0
 23 18  1  0
  3 25  1  0
  3 26  1  0
  4 27  1  0
  4 28  1  0
  5 29  1  0
  5 30  1  0
  8 31  1  0
  9 32  1  0
 12 33  1  0
 15 34  1  0
 17 35  1  0
 19 36  1  0
 20 37  1  0
 21 38  1  0
M  END
>  <smiles>  (67) 
O=C(CCCOc1ccc(Cl)cc1Cl)NN=Cc1cccnc1F

>  <score_type>  (67) 
oracle

>  <origin>  (67) 
autodockgpu

>  <m_score__min__energy>  (67) 
-7.4199999999999999

>  <m_primary>  (67) 
energy

>  <rmsd>  (67) 
6.424431904158624

>  <m_score__min__rmsd>  (67) 
6.424431904158624

>  <meeko>  (67) 
{"free_energy": -6.08, "intermolecular_energy": -8.47, "internal_energy": -1.62, "cluster_size": 3, "cluster_id": 4, "rank_in_cluster": 2}

>  <energy>  (67) 
-6.4

>  <cluster_rmsd>  (67) 
1.7

>  <cluster>  (67) 
2

$$$$

     RDKit          3D

 38 39  0  0  1  0  0  0  0  0999 V2000
  138.9500   75.5160  220.3380 O   0  0  0  0  0  0  0  0  0  0  0  0
  139.0270   74.8900  221.4170 C   0  0  0  0  0  0  0  0  0  0  0  0
  138.7980   73.4660  221.6290 C   0  0  0  0  0  0  0  0  0  0  0  0
  139.9460   72.5750  221.2370 C   0  0  0  0  0  0  0  0  0  0  0  0
  140.8510   72.1940  222.3700 C   0  0  0  0  0  0  0  0  0  0  0  0
  140.2020   72.2490  223.5920 O   0  0  0  0  0  0  0  0  0  0  0  0
  140.3150   71.5300  224.7300 C   0  0  0  0  0  0  0  0  0  0  0  0
  141.0490   71.8380  225.8470 C   0  0  0  0  0  0  0  0  0  0  0  0
  141.0990   71.0200  226.9730 C   0  0  0  0  0  0  0  0  0  0  0  0
  140.3840   69.8460  226.9730 C   0  0  0  0  0  0  0  0  0  0  0  0
  140.4470   68.8280  228.3750 Cl  0  0  0  0  0  0  0  0  0  0  0  0
  139.6450   69.5000  225.8880 C   0  0  0  0  0  0  0  0  0  0  0  0
  139.6060   70.3200  224.7880 C   0  0  0  0  0  0  0  0  0  0  0  0
  138.6270   69.8030  223.4250 Cl  0  0  0  0  0  0  0  0  0  0  0  0
  139.3890   75.6900  222.5740 N   0  0  0  0  0  0  0  0  0  0  0  0
  139.6040   77.0010  222.3990 N   0  0  0  0  0  0  0  0  0  0  0  0
  140.6970   77.5990  222.3620 C   0  0  0  0  0  0  0  0  0  0  0  0
  141.1400   78.8600  222.8710 C   0  0  0  0  0  0  0  0  0  0  0  0
  142.5230   79.0870  222.8310 C   0  0  0  0  0  0  0  0  0  0  0  0
  143.0450   80.2650  223.2970 C   0  0  0  0  0  0  0  0  0  0  0  0
  142.2810   81.2810  223.8180 C   0  0  0  0  0  0  0  0  0  0  0  0
  140.9580   81.0560  223.8520 N   0  0  0  0  0  0  0  0  0  0  0  0
  140.4020   79.8830  223.3930 C   0  0  0  0  0  0  0  0  0  0  0  0
  139.0830   79.8330  223.5030 F   0  0  0  0  0  0  0  0  0  0  0  0
  138.5924   73.3083  222.6980 H   0  0  0  0  0  0  0  0  0  0  0  0
  137.9556   73.1885  220.9784 H   0  0  0  0  0  0  0  0  0  0  0  0
  139.5326   71.6530  220.8022 H   0  0  0  0  0  0  0  0  0  0  0  0
  140.5588   73.1482  220.5257 H   0  0  0  0  0  0  0  0  0  0  0  0
  141.2133   71.1684  222.2059 H   0  0  0  0  0  0  0  0  0  0  0  0
  141.6850   72.9108  222.3951 H   0  0  0  0  0  0  0  0  0  0  0  0
  141.6251   72.7750  225.8538 H   0  0  0  0  0  0  0  0  0  0  0  0
  141.7005   71.3085  227.8476 H   0  0  0  0  0  0  0  0  0  0  0  0
  139.0754   68.5590  225.8904 H   0  0  0  0  0  0  0  0  0  0  0  0
  139.4400   75.2330  223.5360 H   0  0  0  0  0  0  0  0  0  0  0  0
  141.4818   77.0428  221.8284 H   0  0  0  0  0  0  0  0  0  0  0  0
  143.1925   78.3153  222.4233 H   0  0  0  0  0  0  0  0  0  0  0  0
  144.1351   80.4048  223.2515 H   0  0  0  0  0  0  0  0  0  0  0  0
  142.7249   82.2186  224.1838 H   0  0  0  0  0  0  0  0  0  0  0  0
  1  2  2  0
  2  3  1  0
  3  4  1  0
  4  5  1  0
  5  6  1  0
  6  7  1  0
  7  8  2  0
  8  9  1  0
  9 10  2  0
 10 11  1  0
 10 12  1  0
 12 13  2  0
 13 14  1  0
  2 15  1  0
 15 16  1  0
 16 17  2  0
 17 18  1  0
 18 19  2  0
 19 20  1  0
 20 21  2  0
 21 22  1  0
 22 23  2  0
 23 24  1  0
 13  7  1  0
 23 18  1  0
  3 25  1  0
  3 26  1  0
  4 27  1  0
  4 28  1  0
  5 29  1  0
  5 30  1  0
  8 31  1  0
  9 32  1  0
 12 33  1  0
 15 34  1  0
 17 35  1  0
 19 36  1  0
 20 37  1  0
 21 38  1  0
M  END
>  <smiles>  (68) 
O=C(CCCOc1ccc(Cl)cc1Cl)NN=Cc1cccnc1F

>  <score_type>  (68) 
oracle

>  <origin>  (68) 
autodockgpu

>  <m_score__min__energy>  (68) 
-7.4199999999999999

>  <m_primary>  (68) 
energy

>  <rmsd>  (68) 
12.277581305887134

>  <m_score__min__rmsd>  (68) 
12.277581305887134

>  <meeko>  (68) 
{"free_energy": -6.73, "intermolecular_energy": -9.11, "internal_energy": -0.7, "cluster_size": 8, "cluster_id": 1, "rank_in_cluster": 2}

>  <energy>  (68) 
-6.37

>  <cluster_rmsd>  (68) 
1.51

>  <cluster>  (68) 
2

$$$$

     RDKit          3D

 38 39  0  0  1  0  0  0  0  0999 V2000
  139.8810   73.7530  222.6540 O   0  0  0  0  0  0  0  0  0  0  0  0
  139.8130   73.9470  221.4210 C   0  0  0  0  0  0  0  0  0  0  0  0
  139.1410   73.1140  220.4330 C   0  0  0  0  0  0  0  0  0  0  0  0
  140.0520   72.4780  219.4160 C   0  0  0  0  0  0  0  0  0  0  0  0
  140.4200   73.3700  218.2700 C   0  0  0  0  0  0  0  0  0  0  0  0
  141.5840   74.0780  218.5170 O   0  0  0  0  0  0  0  0  0  0  0  0
  142.6720   73.8260  219.2790 C   0  0  0  0  0  0  0  0  0  0  0  0
  143.1350   72.6070  219.7030 C   0  0  0  0  0  0  0  0  0  0  0  0
  144.2730   72.4580  220.4920 C   0  0  0  0  0  0  0  0  0  0  0  0
  144.9690   73.5810  220.8710 C   0  0  0  0  0  0  0  0  0  0  0  0
  146.3850   73.3950  221.8540 Cl  0  0  0  0  0  0  0  0  0  0  0  0
  144.5460   74.8090  220.4760 C   0  0  0  0  0  0  0  0  0  0  0  0
  143.4240   74.9360  219.6960 C   0  0  0  0  0  0  0  0  0  0  0  0
  142.9410   76.5580  219.2260 Cl  0  0  0  0  0  0  0  0  0  0  0  0
  140.4850   75.1430  220.9430 N   0  0  0  0  0  0  0  0  0  0  0  0
  141.1090   75.9230  221.8370 N   0  0  0  0  0  0  0  0  0  0  0  0
  140.7000   76.9850  222.3430 C   0  0  0  0  0  0  0  0  0  0  0  0
  141.2840   78.2800  222.5100 C   0  0  0  0  0  0  0  0  0  0  0  0
  141.3390   79.0810  221.3610 C   0  0  0  0  0  0  0  0  0  0  0  0
  141.8830   80.3380  221.4200 C   0  0  0  0  0  0  0  0  0  0  0  0
  142.3960   80.8910  222.5670 C   0  0  0  0  0  0  0  0  0  0  0  0
  142.3400   80.1170  223.6620 N   0  0  0  0  0  0  0  0  0  0  0  0
  141.8010   78.8510  223.6380 C   0  0  0  0  0  0  0  0  0  0  0  0
  141.8270   78.2310  224.8080 F   0  0  0  0  0  0  0  0  0  0  0  0
  138.6108   72.3113  220.9664 H   0  0  0  0  0  0  0  0  0  0  0  0
  138.4696   73.7808  219.8721 H   0  0  0  0  0  0  0  0  0  0  0  0
  140.9779   72.1740  219.9262 H   0  0  0  0  0  0  0  0  0  0  0  0
  139.4993   71.6289  218.9875 H   0  0  0  0  0  0  0  0  0  0  0  0
  140.5639   72.7524  217.3712 H   0  0  0  0  0  0  0  0  0  0  0  0
  139.6049   74.0949  218.1283 H   0  0  0  0  0  0  0  0  0  0  0  0
  142.5814   71.7040  219.4059 H   0  0  0  0  0  0  0  0  0  0  0  0
  144.6090   71.4589  220.8064 H   0  0  0  0  0  0  0  0  0  0  0  0
  145.1047   75.7057  220.7823 H   0  0  0  0  0  0  0  0  0  0  0  0
  140.5020   75.3570  219.8990 H   0  0  0  0  0  0  0  0  0  0  0  0
  139.6785   76.9120  222.7445 H   0  0  0  0  0  0  0  0  0  0  0  0
  140.9440   78.6994  220.4079 H   0  0  0  0  0  0  0  0  0  0  0  0
  141.9099   80.9365  220.4974 H   0  0  0  0  0  0  0  0  0  0  0  0
  142.8254   81.9035  222.5873 H   0  0  0  0  0  0  0  0  0  0  0  0
  1  2  2  0
  2  3  1  0
  3  4  1  0
  4  5  1  0
  5  6  1  0
  6  7  1  0
  7  8  2  0
  8  9  1  0
  9 10  2  0
 10 11  1  0
 10 12  1  0
 12 13  2  0
 13 14  1  0
  2 15  1  0
 15 16  1  0
 16 17  2  0
 17 18  1  0
 18 19  2  0
 19 20  1  0
 20 21  2  0
 21 22  1  0
 22 23  2  0
 23 24  1  0
 13  7  1  0
 23 18  1  0
  3 25  1  0
  3 26  1  0
  4 27  1  0
  4 28  1  0
  5 29  1  0
  5 30  1  0
  8 31  1  0
  9 32  1  0
 12 33  1  0
 15 34  1  0
 17 35  1  0
 19 36  1  0
 20 37  1  0
 21 38  1  0
M  END
>  <smiles>  (69) 
O=C(CCCOc1ccc(Cl)cc1Cl)NN=Cc1cccnc1F

>  <score_type>  (69) 
oracle

>  <origin>  (69) 
autodockgpu

>  <m_score__min__energy>  (69) 
-7.4199999999999999

>  <m_primary>  (69) 
energy

>  <rmsd>  (69) 
9.86307459077002

>  <m_score__min__rmsd>  (69) 
9.86307459077002

>  <meeko>  (69) 
{"free_energy": -5.28, "intermolecular_energy": -7.66, "internal_energy": -2.04, "cluster_size": 1, "cluster_id": 9, "rank_in_cluster": 1}

>  <energy>  (69) 
-6.25

>  <cluster_rmsd>  (69) 
1.76

>  <cluster>  (69) 
2

$$$$

     RDKit          3D

 38 39  0  0  1  0  0  0  0  0999 V2000
  136.3730   72.6650  220.7540 O   0  0  0  0  0  0  0  0  0  0  0  0
  137.4200   72.4740  221.4110 C   0  0  0  0  0  0  0  0  0  0  0  0
  138.7500   72.1910  220.8880 C   0  0  0  0  0  0  0  0  0  0  0  0
  139.8750   72.8810  221.6130 C   0  0  0  0  0  0  0  0  0  0  0  0
  140.5890   72.0200  222.6110 C   0  0  0  0  0  0  0  0  0  0  0  0
  139.8410   71.8330  223.7620 O   0  0  0  0  0  0  0  0  0  0  0  0
  140.0600   71.1410  224.9010 C   0  0  0  0  0  0  0  0  0  0  0  0
  140.8540   71.4990  225.9600 C   0  0  0  0  0  0  0  0  0  0  0  0
  141.0130   70.7060  227.0950 C   0  0  0  0  0  0  0  0  0  0  0  0
  140.3480   69.5050  227.1630 C   0  0  0  0  0  0  0  0  0  0  0  0
  140.5470   68.5180  228.5740 Cl  0  0  0  0  0  0  0  0  0  0  0  0
  139.5530   69.1090  226.1360 C   0  0  0  0  0  0  0  0  0  0  0  0
  139.4070   69.9050  225.0280 C   0  0  0  0  0  0  0  0  0  0  0  0
  138.3600   69.3220  223.7430 Cl  0  0  0  0  0  0  0  0  0  0  0  0
  137.2690   72.5480  222.8530 N   0  0  0  0  0  0  0  0  0  0  0  0
  136.0530   72.8070  223.3540 N   0  0  0  0  0  0  0  0  0  0  0  0
  135.4580   72.2070  224.2690 C   0  0  0  0  0  0  0  0  0  0  0  0
  134.5120   72.6220  225.2590 C   0  0  0  0  0  0  0  0  0  0  0  0
  133.7260   71.6070  225.8210 C   0  0  0  0  0  0  0  0  0  0  0  0
  132.7900   71.9050  226.7770 C   0  0  0  0  0  0  0  0  0  0  0  0
  132.5590   73.1750  227.2430 C   0  0  0  0  0  0  0  0  0  0  0  0
  133.3160   74.1420  226.7010 N   0  0  0  0  0  0  0  0  0  0  0  0
  134.2640   73.8770  225.7390 C   0  0  0  0  0  0  0  0  0  0  0  0
  134.9180   74.9480  225.3160 F   0  0  0  0  0  0  0  0  0  0  0  0
  138.9180   71.1057  220.9500 H   0  0  0  0  0  0  0  0  0  0  0  0
  138.7650   72.5750  219.8573 H   0  0  0  0  0  0  0  0  0  0  0  0
  140.6074   73.2220  220.8665 H   0  0  0  0  0  0  0  0  0  0  0  0
  139.4226   73.7085  222.1792 H   0  0  0  0  0  0  0  0  0  0  0  0
  140.7905   71.0395  222.1548 H   0  0  0  0  0  0  0  0  0  0  0  0
  141.5240   72.5273  222.8912 H   0  0  0  0  0  0  0  0  0  0  0  0
  141.3911   72.4578  225.9114 H   0  0  0  0  0  0  0  0  0  0  0  0
  141.6593   71.0355  227.9219 H   0  0  0  0  0  0  0  0  0  0  0  0
  139.0239   68.1463  226.1925 H   0  0  0  0  0  0  0  0  0  0  0  0
  138.1100   72.3610  223.4820 H   0  0  0  0  0  0  0  0  0  0  0  0
  135.7120   71.1384  224.3282 H   0  0  0  0  0  0  0  0  0  0  0  0
  133.8609   70.5657  225.4932 H   0  0  0  0  0  0  0  0  0  0  0  0
  132.1914   71.0814  227.1933 H   0  0  0  0  0  0  0  0  0  0  0  0
  131.8015   73.3871  228.0119 H   0  0  0  0  0  0  0  0  0  0  0  0
  1  2  2  0
  2  3  1  0
  3  4  1  0
  4  5  1  0
  5  6  1  0
  6  7  1  0
  7  8  2  0
  8  9  1  0
  9 10  2  0
 10 11  1  0
 10 12  1  0
 12 13  2  0
 13 14  1  0
  2 15  1  0
 15 16  1  0
 16 17  2  0
 17 18  1  0
 18 19  2  0
 19 20  1  0
 20 21  2  0
 21 22  1  0
 22 23  2  0
 23 24  1  0
 13  7  1  0
 23 18  1  0
  3 25  1  0
  3 26  1  0
  4 27  1  0
  4 28  1  0
  5 29  1  0
  5 30  1  0
  8 31  1  0
  9 32  1  0
 12 33  1  0
 15 34  1  0
 17 35  1  0
 19 36  1  0
 20 37  1  0
 21 38  1  0
M  END
>  <smiles>  (70) 
O=C(CCCOc1ccc(Cl)cc1Cl)NN=Cc1cccnc1F

>  <score_type>  (70) 
oracle

>  <origin>  (70) 
autodockgpu

>  <m_score__min__energy>  (70) 
-7.4199999999999999

>  <m_primary>  (70) 
energy

>  <rmsd>  (70) 
12.61870964640684

>  <m_score__min__rmsd>  (70) 
12.61870964640684

>  <meeko>  (70) 
{"free_energy": -5.62, "intermolecular_energy": -8.0, "internal_energy": -1.76, "cluster_size": 5, "cluster_id": 6, "rank_in_cluster": 4}

>  <energy>  (70) 
-6.23

>  <cluster_rmsd>  (70) 
1.79

>  <cluster>  (70) 
2

$$$$

     RDKit          3D

 38 39  0  0  1  0  0  0  0  0999 V2000
  139.6230   70.3260  222.2080 O   0  0  0  0  0  0  0  0  0  0  0  0
  139.7820   71.5640  222.1500 C   0  0  0  0  0  0  0  0  0  0  0  0
  139.9420   72.3780  220.9520 C   0  0  0  0  0  0  0  0  0  0  0  0
  141.3370   72.8960  220.7200 C   0  0  0  0  0  0  0  0  0  0  0  0
  141.4940   74.3710  220.9350 C   0  0  0  0  0  0  0  0  0  0  0  0
  140.6990   74.8300  221.9720 O   0  0  0  0  0  0  0  0  0  0  0  0
  140.2840   76.0620  222.3390 C   0  0  0  0  0  0  0  0  0  0  0  0
  141.0580   77.1380  222.6900 C   0  0  0  0  0  0  0  0  0  0  0  0
  140.5250   78.3720  223.0570 C   0  0  0  0  0  0  0  0  0  0  0  0
  139.1590   78.5260  223.0720 C   0  0  0  0  0  0  0  0  0  0  0  0
  138.4960   80.0610  223.5290 Cl  0  0  0  0  0  0  0  0  0  0  0  0
  138.3540   77.4870  222.7330 C   0  0  0  0  0  0  0  0  0  0  0  0
  138.8970   76.2800  222.3730 C   0  0  0  0  0  0  0  0  0  0  0  0
  137.7890   74.9850  221.9480 Cl  0  0  0  0  0  0  0  0  0  0  0  0
  139.8060   72.2470  223.4310 N   0  0  0  0  0  0  0  0  0  0  0  0
  139.6600   71.5170  224.5450 N   0  0  0  0  0  0  0  0  0  0  0  0
  140.4540   71.4080  225.4990 C   0  0  0  0  0  0  0  0  0  0  0  0
  140.6750   70.3880  226.4780 C   0  0  0  0  0  0  0  0  0  0  0  0
  140.5030   69.0680  226.0390 C   0  0  0  0  0  0  0  0  0  0  0  0
  140.6920   68.0220  226.9040 C   0  0  0  0  0  0  0  0  0  0  0  0
  141.0520   68.1790  228.2190 C   0  0  0  0  0  0  0  0  0  0  0  0
  141.2140   69.4460  228.6310 N   0  0  0  0  0  0  0  0  0  0  0  0
  141.0320   70.5190  227.7890 C   0  0  0  0  0  0  0  0  0  0  0  0
  141.2350   71.6950  228.3640 F   0  0  0  0  0  0  0  0  0  0  0  0
  139.6551   71.7675  220.0831 H   0  0  0  0  0  0  0  0  0  0  0  0
  139.3033   73.2626  221.0920 H   0  0  0  0  0  0  0  0  0  0  0  0
  142.0169   72.3737  221.4092 H   0  0  0  0  0  0  0  0  0  0  0  0
  141.5700   72.7067  219.6618 H   0  0  0  0  0  0  0  0  0  0  0  0
  142.5465   74.5856  221.1721 H   0  0  0  0  0  0  0  0  0  0  0  0
  141.1820   74.8846  220.0136 H   0  0  0  0  0  0  0  0  0  0  0  0
  142.1518   77.0215  222.6815 H   0  0  0  0  0  0  0  0  0  0  0  0
  141.1856   79.2082  223.3299 H   0  0  0  0  0  0  0  0  0  0  0  0
  137.2614   77.6135  222.7471 H   0  0  0  0  0  0  0  0  0  0  0  0
  139.9730   73.3000  223.4650 H   0  0  0  0  0  0  0  0  0  0  0  0
  141.1227   72.2741  225.6119 H   0  0  0  0  0  0  0  0  0  0  0  0
  140.2151   68.8709  224.9958 H   0  0  0  0  0  0  0  0  0  0  0  0
  140.5472   67.0002  226.5233 H   0  0  0  0  0  0  0  0  0  0  0  0
  141.1984   67.3214  228.8921 H   0  0  0  0  0  0  0  0  0  0  0  0
  1  2  2  0
  2  3  1  0
  3  4  1  0
  4  5  1  0
  5  6  1  0
  6  7  1  0
  7  8  2  0
  8  9  1  0
  9 10  2  0
 10 11  1  0
 10 12  1  0
 12 13  2  0
 13 14  1  0
  2 15  1  0
 15 16  1  0
 16 17  2  0
 17 18  1  0
 18 19  2  0
 19 20  1  0
 20 21  2  0
 21 22  1  0
 22 23  2  0
 23 24  1  0
 13  7  1  0
 23 18  1  0
  3 25  1  0
  3 26  1  0
  4 27  1  0
  4 28  1  0
  5 29  1  0
  5 30  1  0
  8 31  1  0
  9 32  1  0
 12 33  1  0
 15 34  1  0
 17 35  1  0
 19 36  1  0
 20 37  1  0
 21 38  1  0
M  END
>  <smiles>  (71) 
O=C(CCCOc1ccc(Cl)cc1Cl)NN=Cc1cccnc1F

>  <score_type>  (71) 
oracle

>  <origin>  (71) 
autodockgpu

>  <m_score__min__energy>  (71) 
-7.4199999999999999

>  <m_primary>  (71) 
energy

>  <rmsd>  (71) 
7.386345822852898

>  <m_score__min__rmsd>  (71) 
7.386345822852898

>  <meeko>  (71) 
{"free_energy": -6.17, "intermolecular_energy": -8.56, "internal_energy": -1.52, "cluster_size": 18, "cluster_id": 2, "rank_in_cluster": 15}

>  <energy>  (71) 
-6.22

>  <cluster_rmsd>  (71) 
1.81

>  <cluster>  (71) 
2

$$$$

     RDKit          3D

 38 39  0  0  1  0  0  0  0  0999 V2000
  140.2860   70.3280  221.8720 O   0  0  0  0  0  0  0  0  0  0  0  0
  139.5540   71.3380  221.9610 C   0  0  0  0  0  0  0  0  0  0  0  0
  138.5970   71.8240  220.9760 C   0  0  0  0  0  0  0  0  0  0  0  0
  138.8610   73.2190  220.4720 C   0  0  0  0  0  0  0  0  0  0  0  0
  140.1340   73.8290  220.9740 C   0  0  0  0  0  0  0  0  0  0  0  0
  139.9310   74.5890  222.1130 O   0  0  0  0  0  0  0  0  0  0  0  0
  139.9520   75.9190  222.3500 C   0  0  0  0  0  0  0  0  0  0  0  0
  141.0490   76.7350  222.4520 C   0  0  0  0  0  0  0  0  0  0  0  0
  140.9590   78.1030  222.7030 C   0  0  0  0  0  0  0  0  0  0  0  0
  139.7160   78.6690  222.8580 C   0  0  0  0  0  0  0  0  0  0  0  0
  139.6050   80.3700  223.1700 Cl  0  0  0  0  0  0  0  0  0  0  0  0
  138.6020   77.8980  222.7660 C   0  0  0  0  0  0  0  0  0  0  0  0
  138.7100   76.5530  222.5170 C   0  0  0  0  0  0  0  0  0  0  0  0
  137.2230   75.6250  222.4120 Cl  0  0  0  0  0  0  0  0  0  0  0  0
  139.6890   72.0940  223.1930 N   0  0  0  0  0  0  0  0  0  0  0  0
  140.5640   71.6630  224.1130 N   0  0  0  0  0  0  0  0  0  0  0  0
  140.3850   71.5360  225.3400 C   0  0  0  0  0  0  0  0  0  0  0  0
  140.5530   70.4420  226.2450 C   0  0  0  0  0  0  0  0  0  0  0  0
  140.4230   69.1610  225.6930 C   0  0  0  0  0  0  0  0  0  0  0  0
  140.5660   68.0490  226.4810 C   0  0  0  0  0  0  0  0  0  0  0  0
  140.8390   68.1010  227.8260 C   0  0  0  0  0  0  0  0  0  0  0  0
  140.9620   69.3320  228.3470 N   0  0  0  0  0  0  0  0  0  0  0  0
  140.8250   70.4690  227.5840 C   0  0  0  0  0  0  0  0  0  0  0  0
  140.9790   71.5960  228.2620 F   0  0  0  0  0  0  0  0  0  0  0  0
  138.6155   71.1400  220.1147 H   0  0  0  0  0  0  0  0  0  0  0  0
  137.6215   71.8579  221.4832 H   0  0  0  0  0  0  0  0  0  0  0  0
  138.9059   73.1849  219.3734 H   0  0  0  0  0  0  0  0  0  0  0  0
  138.0417   73.8488  220.8490 H   0  0  0  0  0  0  0  0  0  0  0  0
  140.8461   73.0236  221.2067 H   0  0  0  0  0  0  0  0  0  0  0  0
  140.5259   74.4920  220.1886 H   0  0  0  0  0  0  0  0  0  0  0  0
  142.0471   76.2891  222.3300 H   0  0  0  0  0  0  0  0  0  0  0  0
  141.8672   78.7193  222.7758 H   0  0  0  0  0  0  0  0  0  0  0  0
  137.6087   78.3537  222.8916 H   0  0  0  0  0  0  0  0  0  0  0  0
  139.1240   72.9880  223.3280 H   0  0  0  0  0  0  0  0  0  0  0  0
  140.0236   72.4541  225.8263 H   0  0  0  0  0  0  0  0  0  0  0  0
  140.2049   69.0471  224.6209 H   0  0  0  0  0  0  0  0  0  0  0  0
  140.4561   67.0608  226.0106 H   0  0  0  0  0  0  0  0  0  0  0  0
  140.9497   67.1928  228.4367 H   0  0  0  0  0  0  0  0  0  0  0  0
  1  2  2  0
  2  3  1  0
  3  4  1  0
  4  5  1  0
  5  6  1  0
  6  7  1  0
  7  8  2  0
  8  9  1  0
  9 10  2  0
 10 11  1  0
 10 12  1  0
 12 13  2  0
 13 14  1  0
  2 15  1  0
 15 16  1  0
 16 17  2  0
 17 18  1  0
 18 19  2  0
 19 20  1  0
 20 21  2  0
 21 22  1  0
 22 23  2  0
 23 24  1  0
 13  7  1  0
 23 18  1  0
  3 25  1  0
  3 26  1  0
  4 27  1  0
  4 28  1  0
  5 29  1  0
  5 30  1  0
  8 31  1  0
  9 32  1  0
 12 33  1  0
 15 34  1  0
 17 35  1  0
 19 36  1  0
 20 37  1  0
 21 38  1  0
M  END
>  <smiles>  (72) 
O=C(CCCOc1ccc(Cl)cc1Cl)NN=Cc1cccnc1F

>  <score_type>  (72) 
oracle

>  <origin>  (72) 
autodockgpu

>  <m_score__min__energy>  (72) 
-7.4199999999999999

>  <m_primary>  (72) 
energy

>  <rmsd>  (72) 
7.588514769282712

>  <m_score__min__rmsd>  (72) 
7.588514769282712

>  <meeko>  (72) 
{"free_energy": -6.23, "intermolecular_energy": -8.62, "internal_energy": -1.48, "cluster_size": 18, "cluster_id": 2, "rank_in_cluster": 12}

>  <energy>  (72) 
-6.17

>  <cluster_rmsd>  (72) 
1.74

>  <cluster>  (72) 
2

$$$$

     RDKit          3D

 38 39  0  0  1  0  0  0  0  0999 V2000
  136.8400   72.1020  221.1200 O   0  0  0  0  0  0  0  0  0  0  0  0
  137.5290   72.6140  222.0290 C   0  0  0  0  0  0  0  0  0  0  0  0
  138.6650   73.5120  221.8740 C   0  0  0  0  0  0  0  0  0  0  0  0
  140.0120   72.8710  222.0810 C   0  0  0  0  0  0  0  0  0  0  0  0
  139.9610   71.5100  222.7070 C   0  0  0  0  0  0  0  0  0  0  0  0
  139.5680   71.5650  224.0330 O   0  0  0  0  0  0  0  0  0  0  0  0
  139.9490   70.8850  225.1370 C   0  0  0  0  0  0  0  0  0  0  0  0
  140.7630   71.3210  226.1510 C   0  0  0  0  0  0  0  0  0  0  0  0
  141.0970   70.5330  227.2500 C   0  0  0  0  0  0  0  0  0  0  0  0
  140.5940   69.2570  227.3300 C   0  0  0  0  0  0  0  0  0  0  0  0
  141.0100   68.2770  228.6970 Cl  0  0  0  0  0  0  0  0  0  0  0  0
  139.7850   68.7830  226.3480 C   0  0  0  0  0  0  0  0  0  0  0  0
  139.4650   69.5740  225.2730 C   0  0  0  0  0  0  0  0  0  0  0  0
  138.4130   68.8880  224.0450 Cl  0  0  0  0  0  0  0  0  0  0  0  0
  137.1340   72.2590  223.3800 N   0  0  0  0  0  0  0  0  0  0  0  0
  136.0900   71.4340  223.5440 N   0  0  0  0  0  0  0  0  0  0  0  0
  135.0120   71.6690  224.1210 C   0  0  0  0  0  0  0  0  0  0  0  0
  134.5590   72.7400  224.9530 C   0  0  0  0  0  0  0  0  0  0  0  0
  134.8470   74.0350  224.5000 C   0  0  0  0  0  0  0  0  0  0  0  0
  134.4550   75.1270  225.2290 C   0  0  0  0  0  0  0  0  0  0  0  0
  133.7730   75.0420  226.4180 C   0  0  0  0  0  0  0  0  0  0  0  0
  133.5020   73.7990  226.8450 N   0  0  0  0  0  0  0  0  0  0  0  0
  133.8810   72.6810  226.1380 C   0  0  0  0  0  0  0  0  0  0  0  0
  133.5300   71.5370  226.7070 F   0  0  0  0  0  0  0  0  0  0  0  0
  138.6366   73.9265  220.8555 H   0  0  0  0  0  0  0  0  0  0  0  0
  138.5632   74.2769  222.6580 H   0  0  0  0  0  0  0  0  0  0  0  0
  140.5041   72.7808  221.1014 H   0  0  0  0  0  0  0  0  0  0  0  0
  140.5629   73.5174  222.7801 H   0  0  0  0  0  0  0  0  0  0  0  0
  139.2445   70.8890  222.1494 H   0  0  0  0  0  0  0  0  0  0  0  0
  140.9727   71.0799  222.6694 H   0  0  0  0  0  0  0  0  0  0  0  0
  141.1713   72.3408  226.0937 H   0  0  0  0  0  0  0  0  0  0  0  0
  141.7528   70.9259  228.0409 H   0  0  0  0  0  0  0  0  0  0  0  0
  139.3844   67.7607  226.4143 H   0  0  0  0  0  0  0  0  0  0  0  0
  137.6960   72.6280  224.2080 H   0  0  0  0  0  0  0  0  0  0  0  0
  134.2508   70.8921  223.9567 H   0  0  0  0  0  0  0  0  0  0  0  0
  135.3907   74.1753  223.5541 H   0  0  0  0  0  0  0  0  0  0  0  0
  134.7000   76.1265  224.8406 H   0  0  0  0  0  0  0  0  0  0  0  0
  133.4686   75.9349  226.9837 H   0  0  0  0  0  0  0  0  0  0  0  0
  1  2  2  0
  2  3  1  0
  3  4  1  0
  4  5  1  0
  5  6  1  0
  6  7  1  0
  7  8  2  0
  8  9  1  0
  9 10  2  0
 10 11  1  0
 10 12  1  0
 12 13  2  0
 13 14  1  0
  2 15  1  0
 15 16  1  0
 16 17  2  0
 17 18  1  0
 18 19  2  0
 19 20  1  0
 20 21  2  0
 21 22  1  0
 22 23  2  0
 23 24  1  0
 13  7  1  0
 23 18  1  0
  3 25  1  0
  3 26  1  0
  4 27  1  0
  4 28  1  0
  5 29  1  0
  5 30  1  0
  8 31  1  0
  9 32  1  0
 12 33  1  0
 15 34  1  0
 17 35  1  0
 19 36  1  0
 20 37  1  0
 21 38  1  0
M  END
>  <smiles>  (73) 
O=C(CCCOc1ccc(Cl)cc1Cl)NN=Cc1cccnc1F

>  <score_type>  (73) 
oracle

>  <origin>  (73) 
autodockgpu

>  <m_score__min__energy>  (73) 
-7.4199999999999999

>  <m_primary>  (73) 
energy

>  <rmsd>  (73) 
12.965825705942406

>  <m_score__min__rmsd>  (73) 
12.965825705942406

>  <meeko>  (73) 
{"free_energy": -5.82, "intermolecular_energy": -8.21, "internal_energy": -1.68, "cluster_size": 5, "cluster_id": 6, "rank_in_cluster": 3}

>  <energy>  (73) 
-6.17

>  <cluster_rmsd>  (73) 
1.95

>  <cluster>  (73) 
2

$$$$

     RDKit          3D

 38 39  0  0  1  0  0  0  0  0999 V2000
  140.0110   74.9470  219.8700 O   0  0  0  0  0  0  0  0  0  0  0  0
  139.5380   74.1030  220.6620 C   0  0  0  0  0  0  0  0  0  0  0  0
  139.2100   72.7120  220.3760 C   0  0  0  0  0  0  0  0  0  0  0  0
  139.9100   71.7050  221.2490 C   0  0  0  0  0  0  0  0  0  0  0  0
  140.7300   72.3030  222.3530 C   0  0  0  0  0  0  0  0  0  0  0  0
  140.0560   72.2920  223.5620 O   0  0  0  0  0  0  0  0  0  0  0  0
  140.1920   71.5550  224.6870 C   0  0  0  0  0  0  0  0  0  0  0  0
  141.0350   71.7860  225.7430 C   0  0  0  0  0  0  0  0  0  0  0  0
  141.0980   70.9580  226.8610 C   0  0  0  0  0  0  0  0  0  0  0  0
  140.2820   69.8530  226.9160 C   0  0  0  0  0  0  0  0  0  0  0  0
  140.3610   68.8220  228.3070 Cl  0  0  0  0  0  0  0  0  0  0  0  0
  139.4310   69.5850  225.8920 C   0  0  0  0  0  0  0  0  0  0  0  0
  139.3820   70.4150  224.7990 C   0  0  0  0  0  0  0  0  0  0  0  0
  138.2560   70.0000  223.5170 Cl  0  0  0  0  0  0  0  0  0  0  0  0
  139.3000   74.5840  222.0110 N   0  0  0  0  0  0  0  0  0  0  0  0
  139.5960   75.8600  222.2940 N   0  0  0  0  0  0  0  0  0  0  0  0
  140.7200   76.3950  222.3340 C   0  0  0  0  0  0  0  0  0  0  0  0
  141.1610   77.7540  222.2690 C   0  0  0  0  0  0  0  0  0  0  0  0
  141.4980   78.3500  223.4910 C   0  0  0  0  0  0  0  0  0  0  0  0
  141.9310   79.6500  223.5320 C   0  0  0  0  0  0  0  0  0  0  0  0
  142.0650   80.4410  222.4180 C   0  0  0  0  0  0  0  0  0  0  0  0
  141.7410   79.8630  221.2510 N   0  0  0  0  0  0  0  0  0  0  0  0
  141.3030   78.5600  221.1750 C   0  0  0  0  0  0  0  0  0  0  0  0
  141.0280   78.1540  219.9440 F   0  0  0  0  0  0  0  0  0  0  0  0
  138.1255   72.5825  220.5065 H   0  0  0  0  0  0  0  0  0  0  0  0
  139.5500   72.5192  219.3478 H   0  0  0  0  0  0  0  0  0  0  0  0
  139.1478   71.0535  221.7013 H   0  0  0  0  0  0  0  0  0  0  0  0
  140.6103   71.1602  220.5988 H   0  0  0  0  0  0  0  0  0  0  0  0
  141.6594   71.7243  222.4589 H   0  0  0  0  0  0  0  0  0  0  0  0
  140.9419   73.3501  222.0909 H   0  0  0  0  0  0  0  0  0  0  0  0
  141.6927   72.6669  225.7055 H   0  0  0  0  0  0  0  0  0  0  0  0
  141.7892   71.1844  227.6863 H   0  0  0  0  0  0  0  0  0  0  0  0
  138.7789   68.7003  225.9383 H   0  0  0  0  0  0  0  0  0  0  0  0
  138.8650   73.9330  222.7340 H   0  0  0  0  0  0  0  0  0  0  0  0
  141.5433   75.6735  222.4415 H   0  0  0  0  0  0  0  0  0  0  0  0
  141.4147   77.7716  224.4230 H   0  0  0  0  0  0  0  0  0  0  0  0
  142.1849   80.0829  224.5108 H   0  0  0  0  0  0  0  0  0  0  0  0
  142.4155   81.4819  222.4781 H   0  0  0  0  0  0  0  0  0  0  0  0
  1  2  2  0
  2  3  1  0
  3  4  1  0
  4  5  1  0
  5  6  1  0
  6  7  1  0
  7  8  2  0
  8  9  1  0
  9 10  2  0
 10 11  1  0
 10 12  1  0
 12 13  2  0
 13 14  1  0
  2 15  1  0
 15 16  1  0
 16 17  2  0
 17 18  1  0
 18 19  2  0
 19 20  1  0
 20 21  2  0
 21 22  1  0
 22 23  2  0
 23 24  1  0
 13  7  1  0
 23 18  1  0
  3 25  1  0
  3 26  1  0
  4 27  1  0
  4 28  1  0
  5 29  1  0
  5 30  1  0
  8 31  1  0
  9 32  1  0
 12 33  1  0
 15 34  1  0
 17 35  1  0
 19 36  1  0
 20 37  1  0
 21 38  1  0
M  END
>  <smiles>  (74) 
O=C(CCCOc1ccc(Cl)cc1Cl)NN=Cc1cccnc1F

>  <score_type>  (74) 
oracle

>  <origin>  (74) 
autodockgpu

>  <m_score__min__energy>  (74) 
-7.4199999999999999

>  <m_primary>  (74) 
energy

>  <rmsd>  (74) 
12.16955191612618

>  <m_score__min__rmsd>  (74) 
12.16955191612618

>  <meeko>  (74) 
{"free_energy": -6.29, "intermolecular_energy": -8.67, "internal_energy": -1.16, "cluster_size": 8, "cluster_id": 1, "rank_in_cluster": 7}

>  <energy>  (74) 
-6.15

>  <cluster_rmsd>  (74) 
1.87

>  <cluster>  (74) 
2

$$$$

     RDKit          3D

 38 39  0  0  1  0  0  0  0  0999 V2000
  140.6920   70.8220  221.5550 O   0  0  0  0  0  0  0  0  0  0  0  0
  140.1130   71.9280  221.6210 C   0  0  0  0  0  0  0  0  0  0  0  0
  139.5600   72.7010  220.5170 C   0  0  0  0  0  0  0  0  0  0  0  0
  140.4330   73.8310  220.0360 C   0  0  0  0  0  0  0  0  0  0  0  0
  141.1770   74.5450  221.1230 C   0  0  0  0  0  0  0  0  0  0  0  0
  140.3190   75.1480  222.0280 O   0  0  0  0  0  0  0  0  0  0  0  0
  140.1160   76.4340  222.3900 C   0  0  0  0  0  0  0  0  0  0  0  0
  141.0620   77.3970  222.6300 C   0  0  0  0  0  0  0  0  0  0  0  0
  140.7420   78.7010  223.0020 C   0  0  0  0  0  0  0  0  0  0  0  0
  139.4190   79.0470  223.1390 C   0  0  0  0  0  0  0  0  0  0  0  0
  139.0220   80.6690  223.6030 Cl  0  0  0  0  0  0  0  0  0  0  0  0
  138.4490   78.1250  222.9120 C   0  0  0  0  0  0  0  0  0  0  0  0
  138.7830   76.8450  222.5450 C   0  0  0  0  0  0  0  0  0  0  0  0
  137.4700   75.7110  222.2700 Cl  0  0  0  0  0  0  0  0  0  0  0  0
  139.9890   72.4840  222.9570 N   0  0  0  0  0  0  0  0  0  0  0  0
  140.4900   71.7870  223.9860 N   0  0  0  0  0  0  0  0  0  0  0  0
  139.8650   71.1790  224.8770 C   0  0  0  0  0  0  0  0  0  0  0  0
  140.2690   70.5140  226.0770 C   0  0  0  0  0  0  0  0  0  0  0  0
  140.1080   69.1220  226.0920 C   0  0  0  0  0  0  0  0  0  0  0  0
  140.4650   68.3960  227.1980 C   0  0  0  0  0  0  0  0  0  0  0  0
  140.9930   68.9550  228.3360 C   0  0  0  0  0  0  0  0  0  0  0  0
  141.1440   70.2890  228.3130 N   0  0  0  0  0  0  0  0  0  0  0  0
  140.7950   71.0480  227.2190 C   0  0  0  0  0  0  0  0  0  0  0  0
  141.0130   72.3450  227.3710 F   0  0  0  0  0  0  0  0  0  0  0  0
  139.3894   72.0172  219.6724 H   0  0  0  0  0  0  0  0  0  0  0  0
  138.6363   73.1632  220.8953 H   0  0  0  0  0  0  0  0  0  0  0  0
  141.1683   73.4203  219.3284 H   0  0  0  0  0  0  0  0  0  0  0  0
  139.7622   74.5717  219.5762 H   0  0  0  0  0  0  0  0  0  0  0  0
  141.8060   73.8191  221.6591 H   0  0  0  0  0  0  0  0  0  0  0  0
  141.7879   75.3321  220.6569 H   0  0  0  0  0  0  0  0  0  0  0  0
  142.1232   77.1275  222.5239 H   0  0  0  0  0  0  0  0  0  0  0  0
  141.5352   79.4413  223.1830 H   0  0  0  0  0  0  0  0  0  0  0  0
  137.3909   78.4046  223.0226 H   0  0  0  0  0  0  0  0  0  0  0  0
  139.5380   73.4410  223.0900 H   0  0  0  0  0  0  0  0  0  0  0  0
  138.7790   71.1475  224.7047 H   0  0  0  0  0  0  0  0  0  0  0  0
  139.6930   68.6096  225.2116 H   0  0  0  0  0  0  0  0  0  0  0  0
  140.3208   67.3058  227.1730 H   0  0  0  0  0  0  0  0  0  0  0  0
  141.2740   68.3489  229.2099 H   0  0  0  0  0  0  0  0  0  0  0  0
  1  2  2  0
  2  3  1  0
  3  4  1  0
  4  5  1  0
  5  6  1  0
  6  7  1  0
  7  8  2  0
  8  9  1  0
  9 10  2  0
 10 11  1  0
 10 12  1  0
 12 13  2  0
 13 14  1  0
  2 15  1  0
 15 16  1  0
 16 17  2  0
 17 18  1  0
 18 19  2  0
 19 20  1  0
 20 21  2  0
 21 22  1  0
 22 23  2  0
 23 24  1  0
 13  7  1  0
 23 18  1  0
  3 25  1  0
  3 26  1  0
  4 27  1  0
  4 28  1  0
  5 29  1  0
  5 30  1  0
  8 31  1  0
  9 32  1  0
 12 33  1  0
 15 34  1  0
 17 35  1  0
 19 36  1  0
 20 37  1  0
 21 38  1  0
M  END
>  <smiles>  (75) 
O=C(CCCOc1ccc(Cl)cc1Cl)NN=Cc1cccnc1F

>  <score_type>  (75) 
oracle

>  <origin>  (75) 
autodockgpu

>  <m_score__min__energy>  (75) 
-7.4199999999999999

>  <m_primary>  (75) 
energy

>  <rmsd>  (75) 
7.238486707458988

>  <m_score__min__rmsd>  (75) 
7.238486707458988

>  <meeko>  (75) 
{"free_energy": -6.4, "intermolecular_energy": -8.79, "internal_energy": -1.51, "cluster_size": 18, "cluster_id": 2, "rank_in_cluster": 9}

>  <energy>  (75) 
-6.14

>  <cluster_rmsd>  (75) 
1.53

>  <cluster>  (75) 
2

$$$$

     RDKit          3D

 38 39  0  0  1  0  0  0  0  0999 V2000
  139.2270   74.5900  221.4150 O   0  0  0  0  0  0  0  0  0  0  0  0
  140.4360   74.3680  221.6470 C   0  0  0  0  0  0  0  0  0  0  0  0
  141.0710   73.0730  221.8510 C   0  0  0  0  0  0  0  0  0  0  0  0
  140.2950   71.8960  221.3200 C   0  0  0  0  0  0  0  0  0  0  0  0
  139.1520   71.4650  222.1880 C   0  0  0  0  0  0  0  0  0  0  0  0
  139.3460   71.8180  223.5130 O   0  0  0  0  0  0  0  0  0  0  0  0
  139.7390   71.1240  224.6040 C   0  0  0  0  0  0  0  0  0  0  0  0
  140.8770   71.3060  225.3470 C   0  0  0  0  0  0  0  0  0  0  0  0
  141.1900   70.5290  226.4600 C   0  0  0  0  0  0  0  0  0  0  0  0
  140.3240   69.5290  226.8370 C   0  0  0  0  0  0  0  0  0  0  0  0
  140.7150   68.5620  228.2210 Cl  0  0  0  0  0  0  0  0  0  0  0  0
  139.1870   69.3130  226.1280 C   0  0  0  0  0  0  0  0  0  0  0  0
  138.8940   70.0900  225.0360 C   0  0  0  0  0  0  0  0  0  0  0  0
  137.4030   69.7480  224.1720 Cl  0  0  0  0  0  0  0  0  0  0  0  0
  141.2810   75.5470  221.7130 N   0  0  0  0  0  0  0  0  0  0  0  0
  140.7150   76.7480  221.5270 N   0  0  0  0  0  0  0  0  0  0  0  0
  140.3540   77.5660  222.3940 C   0  0  0  0  0  0  0  0  0  0  0  0
  140.8850   78.8160  222.8420 C   0  0  0  0  0  0  0  0  0  0  0  0
  142.2510   79.0230  222.6090 C   0  0  0  0  0  0  0  0  0  0  0  0
  142.8520   80.1900  223.0030 C   0  0  0  0  0  0  0  0  0  0  0  0
  142.1860   81.2120  223.6330 C   0  0  0  0  0  0  0  0  0  0  0  0
  140.8780   81.0070  223.8520 N   0  0  0  0  0  0  0  0  0  0  0  0
  140.2440   79.8470  223.4700 C   0  0  0  0  0  0  0  0  0  0  0  0
  138.9530   79.8150  223.7650 F   0  0  0  0  0  0  0  0  0  0  0  0
  142.0507   73.0901  221.3510 H   0  0  0  0  0  0  0  0  0  0  0  0
  141.1405   72.9313  222.9396 H   0  0  0  0  0  0  0  0  0  0  0  0
  139.8938   72.1660  220.3320 H   0  0  0  0  0  0  0  0  0  0  0  0
  140.9963   71.0494  221.2816 H   0  0  0  0  0  0  0  0  0  0  0  0
  138.2301   71.9424  221.8244 H   0  0  0  0  0  0  0  0  0  0  0  0
  139.0793   70.3687  222.1352 H   0  0  0  0  0  0  0  0  0  0  0  0
  141.5752   72.1026  225.0504 H   0  0  0  0  0  0  0  0  0  0  0  0
  142.1141   70.7120  227.0279 H   0  0  0  0  0  0  0  0  0  0  0  0
  138.4972   68.5112  226.4304 H   0  0  0  0  0  0  0  0  0  0  0  0
  142.3170   75.4410  221.9420 H   0  0  0  0  0  0  0  0  0  0  0  0
  139.4384   77.2651  222.9242 H   0  0  0  0  0  0  0  0  0  0  0  0
  142.8444   78.2446  222.1070 H   0  0  0  0  0  0  0  0  0  0  0  0
  143.9266   80.3146  222.8036 H   0  0  0  0  0  0  0  0  0  0  0  0
  142.6922   82.1395  223.9387 H   0  0  0  0  0  0  0  0  0  0  0  0
  1  2  2  0
  2  3  1  0
  3  4  1  0
  4  5  1  0
  5  6  1  0
  6  7  1  0
  7  8  2  0
  8  9  1  0
  9 10  2  0
 10 11  1  0
 10 12  1  0
 12 13  2  0
 13 14  1  0
  2 15  1  0
 15 16  1  0
 16 17  2  0
 17 18  1  0
 18 19  2  0
 19 20  1  0
 20 21  2  0
 21 22  1  0
 22 23  2  0
 23 24  1  0
 13  7  1  0
 23 18  1  0
  3 25  1  0
  3 26  1  0
  4 27  1  0
  4 28  1  0
  5 29  1  0
  5 30  1  0
  8 31  1  0
  9 32  1  0
 12 33  1  0
 15 34  1  0
 17 35  1  0
 19 36  1  0
 20 37  1  0
 21 38  1  0
M  END
>  <smiles>  (76) 
O=C(CCCOc1ccc(Cl)cc1Cl)NN=Cc1cccnc1F

>  <score_type>  (76) 
oracle

>  <origin>  (76) 
autodockgpu

>  <m_score__min__energy>  (76) 
-7.4199999999999999

>  <m_primary>  (76) 
energy

>  <rmsd>  (76) 
12.632210932084451

>  <m_score__min__rmsd>  (76) 
12.632210932084451

>  <meeko>  (76) 
{"free_energy": -6.68, "intermolecular_energy": -9.07, "internal_energy": -0.57, "cluster_size": 8, "cluster_id": 1, "rank_in_cluster": 4}

>  <energy>  (76) 
-6.07

>  <cluster_rmsd>  (76) 
1.87

>  <cluster>  (76) 
2

$$$$

     RDKit          3D

 38 39  0  0  1  0  0  0  0  0999 V2000
  141.2180   73.6440  221.9170 O   0  0  0  0  0  0  0  0  0  0  0  0
  139.9720   73.5820  221.9960 C   0  0  0  0  0  0  0  0  0  0  0  0
  139.0000   74.3350  221.2130 C   0  0  0  0  0  0  0  0  0  0  0  0
  137.7530   74.7270  221.9610 C   0  0  0  0  0  0  0  0  0  0  0  0
  137.7430   76.1430  222.4510 C   0  0  0  0  0  0  0  0  0  0  0  0
  138.7720   76.8890  221.8990 O   0  0  0  0  0  0  0  0  0  0  0  0
  139.6040   77.8260  222.4030 C   0  0  0  0  0  0  0  0  0  0  0  0
  139.3170   78.7850  223.3410 C   0  0  0  0  0  0  0  0  0  0  0  0
  140.2550   79.7110  223.7930 C   0  0  0  0  0  0  0  0  0  0  0  0
  141.5290   79.6700  223.2790 C   0  0  0  0  0  0  0  0  0  0  0  0
  142.6950   80.8230  223.8410 Cl  0  0  0  0  0  0  0  0  0  0  0  0
  141.8570   78.7390  222.3470 C   0  0  0  0  0  0  0  0  0  0  0  0
  140.9200   77.8330  221.9150 C   0  0  0  0  0  0  0  0  0  0  0  0
  141.4220   76.6610  220.7080 Cl  0  0  0  0  0  0  0  0  0  0  0  0
  139.4590   72.6480  222.9820 N   0  0  0  0  0  0  0  0  0  0  0  0
  140.3370   71.9460  223.7120 N   0  0  0  0  0  0  0  0  0  0  0  0
  140.1410   70.8810  224.3290 C   0  0  0  0  0  0  0  0  0  0  0  0
  140.3710   70.4760  225.6810 C   0  0  0  0  0  0  0  0  0  0  0  0
  140.1230   69.1280  225.9700 C   0  0  0  0  0  0  0  0  0  0  0  0
  140.3140   68.6450  227.2380 C   0  0  0  0  0  0  0  0  0  0  0  0
  140.7490   69.4160  228.2870 C   0  0  0  0  0  0  0  0  0  0  0  0
  140.9840   70.7070  228.0020 N   0  0  0  0  0  0  0  0  0  0  0  0
  140.8030   71.2240  226.7400 C   0  0  0  0  0  0  0  0  0  0  0  0
  141.0830   72.5140  226.6400 F   0  0  0  0  0  0  0  0  0  0  0  0
  139.4873   75.2539  220.8550 H   0  0  0  0  0  0  0  0  0  0  0  0
  138.6762   73.6696  220.3991 H   0  0  0  0  0  0  0  0  0  0  0  0
  136.8921   74.5892  221.2902 H   0  0  0  0  0  0  0  0  0  0  0  0
  137.7087   74.0861  222.8539 H   0  0  0  0  0  0  0  0  0  0  0  0
  136.7829   76.6063  222.1796 H   0  0  0  0  0  0  0  0  0  0  0  0
  137.8816   76.1267  223.5421 H   0  0  0  0  0  0  0  0  0  0  0  0
  138.2989   78.8248  223.7557 H   0  0  0  0  0  0  0  0  0  0  0  0
  139.9805   80.4621  224.5484 H   0  0  0  0  0  0  0  0  0  0  0  0
  142.8771   78.7103  221.9364 H   0  0  0  0  0  0  0  0  0  0  0  0
  138.4070   72.5650  223.1330 H   0  0  0  0  0  0  0  0  0  0  0  0
  139.7003   70.0895  223.7050 H   0  0  0  0  0  0  0  0  0  0  0  0
  139.7730   68.4535  225.1747 H   0  0  0  0  0  0  0  0  0  0  0  0
  140.1074   67.5810  227.4256 H   0  0  0  0  0  0  0  0  0  0  0  0
  140.8956   69.0030  229.2959 H   0  0  0  0  0  0  0  0  0  0  0  0
  1  2  2  0
  2  3  1  0
  3  4  1  0
  4  5  1  0
  5  6  1  0
  6  7  1  0
  7  8  2  0
  8  9  1  0
  9 10  2  0
 10 11  1  0
 10 12  1  0
 12 13  2  0
 13 14  1  0
  2 15  1  0
 15 16  1  0
 16 17  2  0
 17 18  1  0
 18 19  2  0
 19 20  1  0
 20 21  2  0
 21 22  1  0
 22 23  2  0
 23 24  1  0
 13  7  1  0
 23 18  1  0
  3 25  1  0
  3 26  1  0
  4 27  1  0
  4 28  1  0
  5 29  1  0
  5 30  1  0
  8 31  1  0
  9 32  1  0
 12 33  1  0
 15 34  1  0
 17 35  1  0
 19 36  1  0
 20 37  1  0
 21 38  1  0
M  END
>  <smiles>  (77) 
O=C(CCCOc1ccc(Cl)cc1Cl)NN=Cc1cccnc1F

>  <score_type>  (77) 
oracle

>  <origin>  (77) 
autodockgpu

>  <m_score__min__energy>  (77) 
-7.4199999999999999

>  <m_primary>  (77) 
energy

>  <rmsd>  (77) 
5.887741195946646

>  <m_score__min__rmsd>  (77) 
5.887741195946646

>  <meeko>  (77) 
{"free_energy": -6.81, "intermolecular_energy": -9.2, "internal_energy": -0.77, "cluster_size": 18, "cluster_id": 2, "rank_in_cluster": 3}

>  <energy>  (77) 
-6.81

>  <cluster_rmsd>  (77) 
0.0

>  <cluster>  (77) 
3

$$$$

     RDKit          3D

 38 39  0  0  1  0  0  0  0  0999 V2000
  139.9430   70.0910  222.8600 O   0  0  0  0  0  0  0  0  0  0  0  0
  139.6180   71.2690  222.5950 C   0  0  0  0  0  0  0  0  0  0  0  0
  138.8670   71.7360  221.4370 C   0  0  0  0  0  0  0  0  0  0  0  0
  138.0910   73.0080  221.6570 C   0  0  0  0  0  0  0  0  0  0  0  0
  138.7600   74.2410  221.1290 C   0  0  0  0  0  0  0  0  0  0  0  0
  139.5400   74.8600  222.0920 O   0  0  0  0  0  0  0  0  0  0  0  0
  139.8320   76.1530  222.3500 C   0  0  0  0  0  0  0  0  0  0  0  0
  141.0630   76.7570  222.3200 C   0  0  0  0  0  0  0  0  0  0  0  0
  141.2560   78.1060  222.6080 C   0  0  0  0  0  0  0  0  0  0  0  0
  140.1670   78.8760  222.9400 C   0  0  0  0  0  0  0  0  0  0  0  0
  140.4070   80.5550  223.2980 Cl  0  0  0  0  0  0  0  0  0  0  0  0
  138.9290   78.3200  222.9830 C   0  0  0  0  0  0  0  0  0  0  0  0
  138.7580   76.9890  222.6950 C   0  0  0  0  0  0  0  0  0  0  0  0
  137.1260   76.3450  222.7730 Cl  0  0  0  0  0  0  0  0  0  0  0  0
  140.0450   72.2640  223.5620 N   0  0  0  0  0  0  0  0  0  0  0  0
  140.7370   71.8540  224.6350 N   0  0  0  0  0  0  0  0  0  0  0  0
  140.2940   71.5300  225.7530 C   0  0  0  0  0  0  0  0  0  0  0  0
  140.5750   70.4450  226.6410 C   0  0  0  0  0  0  0  0  0  0  0  0
  140.3450   69.1590  226.1330 C   0  0  0  0  0  0  0  0  0  0  0  0
  140.5840   68.0550  226.9080 C   0  0  0  0  0  0  0  0  0  0  0  0
  141.0520   68.1190  228.1970 C   0  0  0  0  0  0  0  0  0  0  0  0
  141.2710   69.3530  228.6770 N   0  0  0  0  0  0  0  0  0  0  0  0
  141.0410   70.4830  227.9250 C   0  0  0  0  0  0  0  0  0  0  0  0
  141.3110   71.6150  228.5560 F   0  0  0  0  0  0  0  0  0  0  0  0
  139.5775   71.9067  220.6148 H   0  0  0  0  0  0  0  0  0  0  0  0
  138.1245   70.9554  221.2148 H   0  0  0  0  0  0  0  0  0  0  0  0
  137.1153   72.9061  221.1594 H   0  0  0  0  0  0  0  0  0  0  0  0
  138.0056   73.1391  222.7458 H   0  0  0  0  0  0  0  0  0  0  0  0
  139.4000   73.9617  220.2791 H   0  0  0  0  0  0  0  0  0  0  0  0
  137.9757   74.9479  220.8205 H   0  0  0  0  0  0  0  0  0  0  0  0
  141.9395   76.1471  222.0560 H   0  0  0  0  0  0  0  0  0  0  0  0
  142.2628   78.5476  222.5704 H   0  0  0  0  0  0  0  0  0  0  0  0
  138.0596   78.9388  223.2497 H   0  0  0  0  0  0  0  0  0  0  0  0
  139.8360   73.2940  223.3870 H   0  0  0  0  0  0  0  0  0  0  0  0
  139.5288   72.2210  226.1364 H   0  0  0  0  0  0  0  0  0  0  0  0
  139.9704   69.0356  225.1061 H   0  0  0  0  0  0  0  0  0  0  0  0
  140.3903   67.0631  226.4738 H   0  0  0  0  0  0  0  0  0  0  0  0
  141.2358   67.2163  228.7981 H   0  0  0  0  0  0  0  0  0  0  0  0
  1  2  2  0
  2  3  1  0
  3  4  1  0
  4  5  1  0
  5  6  1  0
  6  7  1  0
  7  8  2  0
  8  9  1  0
  9 10  2  0
 10 11  1  0
 10 12  1  0
 12 13  2  0
 13 14  1  0
  2 15  1  0
 15 16  1  0
 16 17  2  0
 17 18  1  0
 18 19  2  0
 19 20  1  0
 20 21  2  0
 21 22  1  0
 22 23  2  0
 23 24  1  0
 13  7  1  0
 23 18  1  0
  3 25  1  0
  3 26  1  0
  4 27  1  0
  4 28  1  0
  5 29  1  0
  5 30  1  0
  8 31  1  0
  9 32  1  0
 12 33  1  0
 15 34  1  0
 17 35  1  0
 19 36  1  0
 20 37  1  0
 21 38  1  0
M  END
>  <smiles>  (78) 
O=C(CCCOc1ccc(Cl)cc1Cl)NN=Cc1cccnc1F

>  <score_type>  (78) 
oracle

>  <origin>  (78) 
autodockgpu

>  <m_score__min__energy>  (78) 
-7.4199999999999999

>  <m_primary>  (78) 
energy

>  <rmsd>  (78) 
7.247440231316642

>  <m_score__min__rmsd>  (78) 
7.247440231316642

>  <meeko>  (78) 
{"free_energy": -6.22, "intermolecular_energy": -8.61, "internal_energy": -1.37, "cluster_size": 18, "cluster_id": 2, "rank_in_cluster": 13}

>  <energy>  (78) 
-6.73

>  <cluster_rmsd>  (78) 
0.32

>  <cluster>  (78) 
3

$$$$

     RDKit          3D

 38 39  0  0  1  0  0  0  0  0999 V2000
  140.6450   70.8590  221.5120 O   0  0  0  0  0  0  0  0  0  0  0  0
  140.0730   71.9670  221.6040 C   0  0  0  0  0  0  0  0  0  0  0  0
  139.5000   72.7560  220.5210 C   0  0  0  0  0  0  0  0  0  0  0  0
  140.3890   73.8530  219.9970 C   0  0  0  0  0  0  0  0  0  0  0  0
  141.2020   74.5460  221.0470 C   0  0  0  0  0  0  0  0  0  0  0  0
  140.4060   75.1260  222.0200 O   0  0  0  0  0  0  0  0  0  0  0  0
  140.1610   76.4080  222.3680 C   0  0  0  0  0  0  0  0  0  0  0  0
  141.0770   77.3920  222.6420 C   0  0  0  0  0  0  0  0  0  0  0  0
  140.7160   78.6900  222.9960 C   0  0  0  0  0  0  0  0  0  0  0  0
  139.3810   79.0090  223.0790 C   0  0  0  0  0  0  0  0  0  0  0  0
  138.9320   80.6230  223.5200 Cl  0  0  0  0  0  0  0  0  0  0  0  0
  138.4400   78.0660  222.8180 C   0  0  0  0  0  0  0  0  0  0  0  0
  138.8150   76.7920  222.4690 C   0  0  0  0  0  0  0  0  0  0  0  0
  137.5380   75.6300  222.1470 Cl  0  0  0  0  0  0  0  0  0  0  0  0
  139.9820   72.5080  222.9480 N   0  0  0  0  0  0  0  0  0  0  0  0
  140.5030   71.7980  223.9580 N   0  0  0  0  0  0  0  0  0  0  0  0
  139.8990   71.0950  224.7910 C   0  0  0  0  0  0  0  0  0  0  0  0
  140.2960   70.4680  226.0140 C   0  0  0  0  0  0  0  0  0  0  0  0
  140.1600   69.0740  226.0620 C   0  0  0  0  0  0  0  0  0  0  0  0
  140.5130   68.3830  227.1920 C   0  0  0  0  0  0  0  0  0  0  0  0
  141.0110   68.9810  228.3240 C   0  0  0  0  0  0  0  0  0  0  0  0
  141.1380   70.3160  228.2690 N   0  0  0  0  0  0  0  0  0  0  0  0
  140.7930   71.0400  227.1510 C   0  0  0  0  0  0  0  0  0  0  0  0
  140.9840   72.3450  227.2730 F   0  0  0  0  0  0  0  0  0  0  0  0
  139.2691   72.0759  219.6878 H   0  0  0  0  0  0  0  0  0  0  0  0
  138.6107   73.2518  220.9374 H   0  0  0  0  0  0  0  0  0  0  0  0
  141.0793   73.4144  219.2614 H   0  0  0  0  0  0  0  0  0  0  0  0
  139.7247   74.6140  219.5616 H   0  0  0  0  0  0  0  0  0  0  0  0
  141.8671   73.8110  221.5238 H   0  0  0  0  0  0  0  0  0  0  0  0
  141.7781   75.3454  220.5582 H   0  0  0  0  0  0  0  0  0  0  0  0
  142.1469   77.1443  222.5792 H   0  0  0  0  0  0  0  0  0  0  0  0
  141.4860   79.4471  223.2056 H   0  0  0  0  0  0  0  0  0  0  0  0
  137.3728   78.3235  222.8864 H   0  0  0  0  0  0  0  0  0  0  0  0
  139.5390   73.4660  223.1020 H   0  0  0  0  0  0  0  0  0  0  0  0
  138.8440   70.9208  224.5329 H   0  0  0  0  0  0  0  0  0  0  0  0
  139.7682   68.5318  225.1888 H   0  0  0  0  0  0  0  0  0  0  0  0
  140.3908   67.2898  227.1924 H   0  0  0  0  0  0  0  0  0  0  0  0
  141.2879   68.4029  229.2180 H   0  0  0  0  0  0  0  0  0  0  0  0
  1  2  2  0
  2  3  1  0
  3  4  1  0
  4  5  1  0
  5  6  1  0
  6  7  1  0
  7  8  2  0
  8  9  1  0
  9 10  2  0
 10 11  1  0
 10 12  1  0
 12 13  2  0
 13 14  1  0
  2 15  1  0
 15 16  1  0
 16 17  2  0
 17 18  1  0
 18 19  2  0
 19 20  1  0
 20 21  2  0
 21 22  1  0
 22 23  2  0
 23 24  1  0
 13  7  1  0
 23 18  1  0
  3 25  1  0
  3 26  1  0
  4 27  1  0
  4 28  1  0
  5 29  1  0
  5 30  1  0
  8 31  1  0
  9 32  1  0
 12 33  1  0
 15 34  1  0
 17 35  1  0
 19 36  1  0
 20 37  1  0
 21 38  1  0
M  END
>  <smiles>  (79) 
O=C(CCCOc1ccc(Cl)cc1Cl)NN=Cc1cccnc1F

>  <score_type>  (79) 
oracle

>  <origin>  (79) 
autodockgpu

>  <m_score__min__energy>  (79) 
-7.4199999999999999

>  <m_primary>  (79) 
energy

>  <rmsd>  (79) 
7.239307255860674

>  <m_score__min__rmsd>  (79) 
7.239307255860674

>  <meeko>  (79) 
{"free_energy": -6.41, "intermolecular_energy": -8.8, "internal_energy": -1.53, "cluster_size": 18, "cluster_id": 2, "rank_in_cluster": 8}

>  <energy>  (79) 
-6.69

>  <cluster_rmsd>  (79) 
1.13

>  <cluster>  (79) 
3

$$$$

     RDKit          3D

 38 39  0  0  1  0  0  0  0  0999 V2000
  140.0920   70.2850  221.8860 O   0  0  0  0  0  0  0  0  0  0  0  0
  139.3770   71.2960  222.0560 C   0  0  0  0  0  0  0  0  0  0  0  0
  138.2980   71.7680  221.1970 C   0  0  0  0  0  0  0  0  0  0  0  0
  138.4680   73.1730  220.6830 C   0  0  0  0  0  0  0  0  0  0  0  0
  139.7750   73.8120  221.0430 C   0  0  0  0  0  0  0  0  0  0  0  0
  139.6610   74.6320  222.1540 O   0  0  0  0  0  0  0  0  0  0  0  0
  139.8690   75.9530  222.3490 C   0  0  0  0  0  0  0  0  0  0  0  0
  141.0620   76.6290  222.3090 C   0  0  0  0  0  0  0  0  0  0  0  0
  141.1660   78.0000  222.5290 C   0  0  0  0  0  0  0  0  0  0  0  0
  140.0260   78.7180  222.8020 C   0  0  0  0  0  0  0  0  0  0  0  0
  140.1570   80.4240  223.0770 Cl  0  0  0  0  0  0  0  0  0  0  0  0
  138.8240   78.0890  222.8530 C   0  0  0  0  0  0  0  0  0  0  0  0
  138.7400   76.7370  222.6320 C   0  0  0  0  0  0  0  0  0  0  0  0
  137.1490   75.9980  222.7160 Cl  0  0  0  0  0  0  0  0  0  0  0  0
  139.6700   72.0700  223.2490 N   0  0  0  0  0  0  0  0  0  0  0  0
  140.6580   71.6510  224.0530 N   0  0  0  0  0  0  0  0  0  0  0  0
  140.6600   71.5920  225.2970 C   0  0  0  0  0  0  0  0  0  0  0  0
  140.6810   70.5040  226.2260 C   0  0  0  0  0  0  0  0  0  0  0  0
  140.4910   69.2270  225.6800 C   0  0  0  0  0  0  0  0  0  0  0  0
  140.4940   68.1210  226.4900 C   0  0  0  0  0  0  0  0  0  0  0  0
  140.6780   68.1760  227.8500 C   0  0  0  0  0  0  0  0  0  0  0  0
  140.8600   69.4020  228.3640 N   0  0  0  0  0  0  0  0  0  0  0  0
  140.8620   70.5330  227.5790 C   0  0  0  0  0  0  0  0  0  0  0  0
  141.0550   71.6570  228.2530 F   0  0  0  0  0  0  0  0  0  0  0  0
  138.2298   71.0929  220.3312 H   0  0  0  0  0  0  0  0  0  0  0  0
  137.3890   71.7730  221.8165 H   0  0  0  0  0  0  0  0  0  0  0  0
  138.3873   73.1498  219.5862 H   0  0  0  0  0  0  0  0  0  0  0  0
  137.6822   73.7778  221.1591 H   0  0  0  0  0  0  0  0  0  0  0  0
  140.5097   73.0221  221.2580 H   0  0  0  0  0  0  0  0  0  0  0  0
  140.0965   74.4322  220.1933 H   0  0  0  0  0  0  0  0  0  0  0  0
  141.9792   76.0615  222.0931 H   0  0  0  0  0  0  0  0  0  0  0  0
  142.1446   78.5004  222.4851 H   0  0  0  0  0  0  0  0  0  0  0  0
  137.9133   78.6655  223.0724 H   0  0  0  0  0  0  0  0  0  0  0  0
  139.1260   72.9650  223.4440 H   0  0  0  0  0  0  0  0  0  0  0  0
  140.6419   72.5795  225.7812 H   0  0  0  0  0  0  0  0  0  0  0  0
  140.3388   69.1118  224.5967 H   0  0  0  0  0  0  0  0  0  0  0  0
  140.3407   67.1358  226.0254 H   0  0  0  0  0  0  0  0  0  0  0  0
  140.6762   67.2727  228.4777 H   0  0  0  0  0  0  0  0  0  0  0  0
  1  2  2  0
  2  3  1  0
  3  4  1  0
  4  5  1  0
  5  6  1  0
  6  7  1  0
  7  8  2  0
  8  9  1  0
  9 10  2  0
 10 11  1  0
 10 12  1  0
 12 13  2  0
 13 14  1  0
  2 15  1  0
 15 16  1  0
 16 17  2  0
 17 18  1  0
 18 19  2  0
 19 20  1  0
 20 21  2  0
 21 22  1  0
 22 23  2  0
 23 24  1  0
 13  7  1  0
 23 18  1  0
  3 25  1  0
  3 26  1  0
  4 27  1  0
  4 28  1  0
  5 29  1  0
  5 30  1  0
  8 31  1  0
  9 32  1  0
 12 33  1  0
 15 34  1  0
 17 35  1  0
 19 36  1  0
 20 37  1  0
 21 38  1  0
M  END
>  <smiles>  (80) 
O=C(CCCOc1ccc(Cl)cc1Cl)NN=Cc1cccnc1F

>  <score_type>  (80) 
oracle

>  <origin>  (80) 
autodockgpu

>  <m_score__min__energy>  (80) 
-7.4199999999999999

>  <m_primary>  (80) 
energy

>  <rmsd>  (80) 
7.56447676380009

>  <m_score__min__rmsd>  (80) 
7.56447676380009

>  <meeko>  (80) 
{"free_energy": -6.25, "intermolecular_energy": -8.64, "internal_energy": -1.44, "cluster_size": 18, "cluster_id": 2, "rank_in_cluster": 11}

>  <energy>  (80) 
-6.57

>  <cluster_rmsd>  (80) 
1.08

>  <cluster>  (80) 
3

$$$$

     RDKit          3D

 38 39  0  0  1  0  0  0  0  0999 V2000
  139.0230   74.8180  220.1080 O   0  0  0  0  0  0  0  0  0  0  0  0
  138.8660   74.0700  221.0970 C   0  0  0  0  0  0  0  0  0  0  0  0
  137.9740   72.9230  221.2020 C   0  0  0  0  0  0  0  0  0  0  0  0
  138.6420   71.5840  221.0290 C   0  0  0  0  0  0  0  0  0  0  0  0
  139.8040   71.3480  221.9460 C   0  0  0  0  0  0  0  0  0  0  0  0
  139.5030   71.6730  223.2580 O   0  0  0  0  0  0  0  0  0  0  0  0
  139.8360   71.1200  224.4450 C   0  0  0  0  0  0  0  0  0  0  0  0
  140.8090   71.5330  225.3180 C   0  0  0  0  0  0  0  0  0  0  0  0
  141.0740   70.8850  226.5230 C   0  0  0  0  0  0  0  0  0  0  0  0
  140.3310   69.7780  226.8590 C   0  0  0  0  0  0  0  0  0  0  0  0
  140.6620   68.9720  228.3570 Cl  0  0  0  0  0  0  0  0  0  0  0  0
  139.3590   69.3330  226.0230 C   0  0  0  0  0  0  0  0  0  0  0  0
  139.1110   69.9850  224.8410 C   0  0  0  0  0  0  0  0  0  0  0  0
  137.8360   69.3470  223.8140 Cl  0  0  0  0  0  0  0  0  0  0  0  0
  139.6720   74.4000  222.2590 N   0  0  0  0  0  0  0  0  0  0  0  0
  140.4990   75.4520  222.1820 N   0  0  0  0  0  0  0  0  0  0  0  0
  140.2200   76.6580  222.3260 C   0  0  0  0  0  0  0  0  0  0  0  0
  140.9980   77.8560  222.2700 C   0  0  0  0  0  0  0  0  0  0  0  0
  141.4780   78.3360  223.4960 C   0  0  0  0  0  0  0  0  0  0  0  0
  142.2330   79.4790  223.5450 C   0  0  0  0  0  0  0  0  0  0  0  0
  142.5670   80.2160  222.4360 C   0  0  0  0  0  0  0  0  0  0  0  0
  142.1040   79.7500  221.2650 N   0  0  0  0  0  0  0  0  0  0  0  0
  141.3430   78.6060  221.1810 C   0  0  0  0  0  0  0  0  0  0  0  0
  140.9730   78.2940  219.9490 F   0  0  0  0  0  0  0  0  0  0  0  0
  137.5043   72.9449  222.1964 H   0  0  0  0  0  0  0  0  0  0  0  0
  137.2514   73.0168  220.3779 H   0  0  0  0  0  0  0  0  0  0  0  0
  137.8932   70.7997  221.2138 H   0  0  0  0  0  0  0  0  0  0  0  0
  139.0417   71.5629  220.0044 H   0  0  0  0  0  0  0  0  0  0  0  0
  140.0839   70.2853  221.8985 H   0  0  0  0  0  0  0  0  0  0  0  0
  140.6327   71.9925  221.6176 H   0  0  0  0  0  0  0  0  0  0  0  0
  141.4085   72.4170  225.0551 H   0  0  0  0  0  0  0  0  0  0  0  0
  141.8642   71.2529  227.1939 H   0  0  0  0  0  0  0  0  0  0  0  0
  138.7674   68.4460  226.2938 H   0  0  0  0  0  0  0  0  0  0  0  0
  139.5670   73.8300  223.1530 H   0  0  0  0  0  0  0  0  0  0  0  0
  139.1561   76.8377  222.5403 H   0  0  0  0  0  0  0  0  0  0  0  0
  141.2476   77.7925  224.4242 H   0  0  0  0  0  0  0  0  0  0  0  0
  142.5907   79.8245  224.5262 H   0  0  0  0  0  0  0  0  0  0  0  0
  143.1752   81.1301  222.5025 H   0  0  0  0  0  0  0  0  0  0  0  0
  1  2  2  0
  2  3  1  0
  3  4  1  0
  4  5  1  0
  5  6  1  0
  6  7  1  0
  7  8  2  0
  8  9  1  0
  9 10  2  0
 10 11  1  0
 10 12  1  0
 12 13  2  0
 13 14  1  0
  2 15  1  0
 15 16  1  0
 16 17  2  0
 17 18  1  0
 18 19  2  0
 19 20  1  0
 20 21  2  0
 21 22  1  0
 22 23  2  0
 23 24  1  0
 13  7  1  0
 23 18  1  0
  3 25  1  0
  3 26  1  0
  4 27  1  0
  4 28  1  0
  5 29  1  0
  5 30  1  0
  8 31  1  0
  9 32  1  0
 12 33  1  0
 15 34  1  0
 17 35  1  0
 19 36  1  0
 20 37  1  0
 21 38  1  0
M  END
>  <smiles>  (81) 
O=C(CCCOc1ccc(Cl)cc1Cl)NN=Cc1cccnc1F

>  <score_type>  (81) 
oracle

>  <origin>  (81) 
autodockgpu

>  <m_score__min__energy>  (81) 
-7.4199999999999999

>  <m_primary>  (81) 
energy

>  <rmsd>  (81) 
12.544728029800053

>  <m_score__min__rmsd>  (81) 
12.544728029800053

>  <meeko>  (81) 
{"free_energy": -6.11, "intermolecular_energy": -8.49, "internal_energy": -1.4, "cluster_size": 8, "cluster_id": 1, "rank_in_cluster": 8}

>  <energy>  (81) 
-6.4

>  <cluster_rmsd>  (81) 
1.78

>  <cluster>  (81) 
3

$$$$

     RDKit          3D

 38 39  0  0  1  0  0  0  0  0999 V2000
  140.4360   70.6950  221.6160 O   0  0  0  0  0  0  0  0  0  0  0  0
  140.1670   71.9150  221.6660 C   0  0  0  0  0  0  0  0  0  0  0  0
  140.1970   72.8710  220.5670 C   0  0  0  0  0  0  0  0  0  0  0  0
  138.8910   73.5710  220.3020 C   0  0  0  0  0  0  0  0  0  0  0  0
  138.5680   74.6690  221.2700 C   0  0  0  0  0  0  0  0  0  0  0  0
  139.7090   75.2140  221.8340 O   0  0  0  0  0  0  0  0  0  0  0  0
  140.1690   76.4800  221.9440 C   0  0  0  0  0  0  0  0  0  0  0  0
  139.6600   77.4920  222.7160 C   0  0  0  0  0  0  0  0  0  0  0  0
  140.2130   78.7700  222.7560 C   0  0  0  0  0  0  0  0  0  0  0  0
  141.3200   79.0390  221.9860 C   0  0  0  0  0  0  0  0  0  0  0  0
  142.0070   80.6290  222.0350 Cl  0  0  0  0  0  0  0  0  0  0  0  0
  141.8560   78.0660  221.2050 C   0  0  0  0  0  0  0  0  0  0  0  0
  141.2990   76.8120  221.1810 C   0  0  0  0  0  0  0  0  0  0  0  0
  142.0520   75.6100  220.1460 Cl  0  0  0  0  0  0  0  0  0  0  0  0
  139.7830   72.4110  222.9760 N   0  0  0  0  0  0  0  0  0  0  0  0
  139.7490   71.5470  224.0000 N   0  0  0  0  0  0  0  0  0  0  0  0
  140.6840   71.2150  224.7540 C   0  0  0  0  0  0  0  0  0  0  0  0
  140.7400   70.4770  225.9770 C   0  0  0  0  0  0  0  0  0  0  0  0
  140.4910   69.1020  225.8770 C   0  0  0  0  0  0  0  0  0  0  0  0
  140.5210   68.3090  226.9950 C   0  0  0  0  0  0  0  0  0  0  0  0
  140.7900   68.7840  228.2550 C   0  0  0  0  0  0  0  0  0  0  0  0
  141.0280   70.1020  228.3430 N   0  0  0  0  0  0  0  0  0  0  0  0
  141.0050   70.9260  227.2400 C   0  0  0  0  0  0  0  0  0  0  0  0
  141.2620   72.1960  227.5110 F   0  0  0  0  0  0  0  0  0  0  0  0
  140.9536   73.6350  220.7989 H   0  0  0  0  0  0  0  0  0  0  0  0
  140.4273   72.2925  219.6602 H   0  0  0  0  0  0  0  0  0  0  0  0
  138.9320   74.0043  219.2918 H   0  0  0  0  0  0  0  0  0  0  0  0
  138.1013   72.8133  220.4126 H   0  0  0  0  0  0  0  0  0  0  0  0
  138.0208   75.4616  220.7386 H   0  0  0  0  0  0  0  0  0  0  0  0
  137.9594   74.2405  222.0799 H   0  0  0  0  0  0  0  0  0  0  0  0
  138.7731   77.2852  223.3330 H   0  0  0  0  0  0  0  0  0  0  0  0
  139.7715   79.5507  223.3928 H   0  0  0  0  0  0  0  0  0  0  0  0
  142.7407   78.2840  220.5888 H   0  0  0  0  0  0  0  0  0  0  0  0
  139.5730   73.4480  223.1060 H   0  0  0  0  0  0  0  0  0  0  0  0
  141.6689   71.5610  224.4071 H   0  0  0  0  0  0  0  0  0  0  0  0
  140.2702   68.6561  224.8960 H   0  0  0  0  0  0  0  0  0  0  0  0
  140.3187   67.2343  226.8762 H   0  0  0  0  0  0  0  0  0  0  0  0
  140.8092   68.1261  229.1363 H   0  0  0  0  0  0  0  0  0  0  0  0
  1  2  2  0
  2  3  1  0
  3  4  1  0
  4  5  1  0
  5  6  1  0
  6  7  1  0
  7  8  2  0
  8  9  1  0
  9 10  2  0
 10 11  1  0
 10 12  1  0
 12 13  2  0
 13 14  1  0
  2 15  1  0
 15 16  1  0
 16 17  2  0
 17 18  1  0
 18 19  2  0
 19 20  1  0
 20 21  2  0
 21 22  1  0
 22 23  2  0
 23 24  1  0
 13  7  1  0
 23 18  1  0
  3 25  1  0
  3 26  1  0
  4 27  1  0
  4 28  1  0
  5 29  1  0
  5 30  1  0
  8 31  1  0
  9 32  1  0
 12 33  1  0
 15 34  1  0
 17 35  1  0
 19 36  1  0
 20 37  1  0
 21 38  1  0
M  END
>  <smiles>  (82) 
O=C(CCCOc1ccc(Cl)cc1Cl)NN=Cc1cccnc1F

>  <score_type>  (82) 
oracle

>  <origin>  (82) 
autodockgpu

>  <m_score__min__energy>  (82) 
-7.4199999999999999

>  <m_primary>  (82) 
energy

>  <rmsd>  (82) 
6.653333142142624

>  <m_score__min__rmsd>  (82) 
6.653333142142624

>  <meeko>  (82) 
{"free_energy": -6.15, "intermolecular_energy": -8.54, "internal_energy": -1.4, "cluster_size": 18, "cluster_id": 2, "rank_in_cluster": 16}

>  <energy>  (82) 
-6.31

>  <cluster_rmsd>  (82) 
0.0

>  <cluster>  (82) 
4

$$$$

     RDKit          3D

 38 39  0  0  1  0  0  0  0  0999 V2000
  140.5720   76.7070  220.6240 O   0  0  0  0  0  0  0  0  0  0  0  0
  140.4150   75.7590  221.4240 C   0  0  0  0  0  0  0  0  0  0  0  0
  141.1340   74.4910  221.4400 C   0  0  0  0  0  0  0  0  0  0  0  0
  140.2570   73.2670  221.4900 C   0  0  0  0  0  0  0  0  0  0  0  0
  140.7560   72.1840  222.3990 C   0  0  0  0  0  0  0  0  0  0  0  0
  140.1600   72.2420  223.6480 O   0  0  0  0  0  0  0  0  0  0  0  0
  140.2940   71.4980  224.7680 C   0  0  0  0  0  0  0  0  0  0  0  0
  141.0330   71.7910  225.8850 C   0  0  0  0  0  0  0  0  0  0  0  0
  141.1040   70.9480  226.9920 C   0  0  0  0  0  0  0  0  0  0  0  0
  140.4060   69.7640  226.9710 C   0  0  0  0  0  0  0  0  0  0  0  0
  140.4960   68.7150  228.3480 Cl  0  0  0  0  0  0  0  0  0  0  0  0
  139.6630   69.4330  225.8850 C   0  0  0  0  0  0  0  0  0  0  0  0
  139.6030   70.2770  224.8040 C   0  0  0  0  0  0  0  0  0  0  0  0
  138.6190   69.7770  223.4380 Cl  0  0  0  0  0  0  0  0  0  0  0  0
  139.4000   75.9670  222.4410 N   0  0  0  0  0  0  0  0  0  0  0  0
  138.7280   77.1260  222.4430 N   0  0  0  0  0  0  0  0  0  0  0  0
  138.9910   78.1620  223.0840 C   0  0  0  0  0  0  0  0  0  0  0  0
  140.1400   79.0100  223.1460 C   0  0  0  0  0  0  0  0  0  0  0  0
  141.3830   78.3670  223.0790 C   0  0  0  0  0  0  0  0  0  0  0  0
  142.5430   79.0950  223.1310 C   0  0  0  0  0  0  0  0  0  0  0  0
  142.5770   80.4620  223.2480 C   0  0  0  0  0  0  0  0  0  0  0  0
  141.3830   81.0710  223.3110 N   0  0  0  0  0  0  0  0  0  0  0  0
  140.1990   80.3700  223.2620 C   0  0  0  0  0  0  0  0  0  0  0  0
  139.1180   81.1320  223.3370 F   0  0  0  0  0  0  0  0  0  0  0  0
  141.7483   74.4346  220.5293 H   0  0  0  0  0  0  0  0  0  0  0  0
  141.7279   74.4839  222.3659 H   0  0  0  0  0  0  0  0  0  0  0  0
  139.2585   73.5731  221.8354 H   0  0  0  0  0  0  0  0  0  0  0  0
  140.2488   72.8451  220.4742 H   0  0  0  0  0  0  0  0  0  0  0  0
  140.5337   71.2075  221.9440 H   0  0  0  0  0  0  0  0  0  0  0  0
  141.8391   72.3227  222.5316 H   0  0  0  0  0  0  0  0  0  0  0  0
  141.5961   72.7357  225.9083 H   0  0  0  0  0  0  0  0  0  0  0  0
  141.7085   71.2253  227.8682 H   0  0  0  0  0  0  0  0  0  0  0  0
  139.1064   68.4843  225.8707 H   0  0  0  0  0  0  0  0  0  0  0  0
  139.1840   75.1890  223.1370 H   0  0  0  0  0  0  0  0  0  0  0  0
  138.1693   78.4918  223.7367 H   0  0  0  0  0  0  0  0  0  0  0  0
  141.4281   77.2720  222.9841 H   0  0  0  0  0  0  0  0  0  0  0  0
  143.4992   78.5540  223.0759 H   0  0  0  0  0  0  0  0  0  0  0  0
  143.5226   81.0226  223.2876 H   0  0  0  0  0  0  0  0  0  0  0  0
  1  2  2  0
  2  3  1  0
  3  4  1  0
  4  5  1  0
  5  6  1  0
  6  7  1  0
  7  8  2  0
  8  9  1  0
  9 10  2  0
 10 11  1  0
 10 12  1  0
 12 13  2  0
 13 14  1  0
  2 15  1  0
 15 16  1  0
 16 17  2  0
 17 18  1  0
 18 19  2  0
 19 20  1  0
 20 21  2  0
 21 22  1  0
 22 23  2  0
 23 24  1  0
 13  7  1  0
 23 18  1  0
  3 25  1  0
  3 26  1  0
  4 27  1  0
  4 28  1  0
  5 29  1  0
  5 30  1  0
  8 31  1  0
  9 32  1  0
 12 33  1  0
 15 34  1  0
 17 35  1  0
 19 36  1  0
 20 37  1  0
 21 38  1  0
M  END
>  <smiles>  (83) 
O=C(CCCOc1ccc(Cl)cc1Cl)NN=Cc1cccnc1F

>  <score_type>  (83) 
oracle

>  <origin>  (83) 
autodockgpu

>  <m_score__min__energy>  (83) 
-7.4199999999999999

>  <m_primary>  (83) 
energy

>  <rmsd>  (83) 
12.346176258729304

>  <m_score__min__rmsd>  (83) 
12.346176258729304

>  <meeko>  (83) 
{"free_energy": -6.69, "intermolecular_energy": -9.08, "internal_energy": -0.73, "cluster_size": 8, "cluster_id": 1, "rank_in_cluster": 3}

>  <energy>  (83) 
-6.08

>  <cluster_rmsd>  (83) 
1.67

>  <cluster>  (83) 
4

$$$$

     RDKit          3D

 38 39  0  0  1  0  0  0  0  0999 V2000
  136.1580   72.0440  221.3450 O   0  0  0  0  0  0  0  0  0  0  0  0
  137.0280   72.4060  222.1670 C   0  0  0  0  0  0  0  0  0  0  0  0
  138.2340   73.1770  221.8940 C   0  0  0  0  0  0  0  0  0  0  0  0
  139.4910   72.3590  221.7580 C   0  0  0  0  0  0  0  0  0  0  0  0
  140.3160   72.2790  223.0060 C   0  0  0  0  0  0  0  0  0  0  0  0
  139.6070   71.7310  224.0620 O   0  0  0  0  0  0  0  0  0  0  0  0
  139.9780   71.0380  225.1620 C   0  0  0  0  0  0  0  0  0  0  0  0
  140.7320   71.4830  226.2170 C   0  0  0  0  0  0  0  0  0  0  0  0
  141.0610   70.6810  227.3080 C   0  0  0  0  0  0  0  0  0  0  0  0
  140.6140   69.3810  227.3340 C   0  0  0  0  0  0  0  0  0  0  0  0
  141.0240   68.3830  228.6910 Cl  0  0  0  0  0  0  0  0  0  0  0  0
  139.8650   68.8980  226.3100 C   0  0  0  0  0  0  0  0  0  0  0  0
  139.5500   69.7040  225.2440 C   0  0  0  0  0  0  0  0  0  0  0  0
  138.5780   69.0060  223.9590 Cl  0  0  0  0  0  0  0  0  0  0  0  0
  136.7880   72.0030  223.5420 N   0  0  0  0  0  0  0  0  0  0  0  0
  135.6840   71.2940  223.8140 N   0  0  0  0  0  0  0  0  0  0  0  0
  135.0830   71.2000  224.9020 C   0  0  0  0  0  0  0  0  0  0  0  0
  134.2840   72.1110  225.6610 C   0  0  0  0  0  0  0  0  0  0  0  0
  133.2990   71.5340  226.4740 C   0  0  0  0  0  0  0  0  0  0  0  0
  132.4820   72.3250  227.2390 C   0  0  0  0  0  0  0  0  0  0  0  0
  132.5630   73.6950  227.2700 C   0  0  0  0  0  0  0  0  0  0  0  0
  133.5090   74.2400  226.4890 N   0  0  0  0  0  0  0  0  0  0  0  0
  134.3460   73.4750  225.7080 C   0  0  0  0  0  0  0  0  0  0  0  0
  135.2190   74.1780  225.0030 F   0  0  0  0  0  0  0  0  0  0  0  0
  138.0818   73.7287  220.9546 H   0  0  0  0  0  0  0  0  0  0  0  0
  138.3849   73.8330  222.7640 H   0  0  0  0  0  0  0  0  0  0  0  0
  139.2065   71.3369  221.4677 H   0  0  0  0  0  0  0  0  0  0  0  0
  140.1126   72.8623  221.0028 H   0  0  0  0  0  0  0  0  0  0  0  0
  141.1991   71.6536  222.8085 H   0  0  0  0  0  0  0  0  0  0  0  0
  140.6077   73.3018  223.2868 H   0  0  0  0  0  0  0  0  0  0  0  0
  141.0941   72.5216  226.2015 H   0  0  0  0  0  0  0  0  0  0  0  0
  141.6676   71.0809  228.1339 H   0  0  0  0  0  0  0  0  0  0  0  0
  139.5093   67.8574  226.3343 H   0  0  0  0  0  0  0  0  0  0  0  0
  137.5030   72.2440  224.2950 H   0  0  0  0  0  0  0  0  0  0  0  0
  135.1892   70.2129  225.3757 H   0  0  0  0  0  0  0  0  0  0  0  0
  133.1810   70.4406  226.4983 H   0  0  0  0  0  0  0  0  0  0  0  0
  131.7195   71.8351  227.8624 H   0  0  0  0  0  0  0  0  0  0  0  0
  131.8956   74.3069  227.8947 H   0  0  0  0  0  0  0  0  0  0  0  0
  1  2  2  0
  2  3  1  0
  3  4  1  0
  4  5  1  0
  5  6  1  0
  6  7  1  0
  7  8  2  0
  8  9  1  0
  9 10  2  0
 10 11  1  0
 10 12  1  0
 12 13  2  0
 13 14  1  0
  2 15  1  0
 15 16  1  0
 16 17  2  0
 17 18  1  0
 18 19  2  0
 19 20  1  0
 20 21  2  0
 21 22  1  0
 22 23  2  0
 23 24  1  0
 13  7  1  0
 23 18  1  0
  3 25  1  0
  3 26  1  0
  4 27  1  0
  4 28  1  0
  5 29  1  0
  5 30  1  0
  8 31  1  0
  9 32  1  0
 12 33  1  0
 15 34  1  0
 17 35  1  0
 19 36  1  0
 20 37  1  0
 21 38  1  0
M  END
>  <smiles>  (84) 
O=C(CCCOc1ccc(Cl)cc1Cl)NN=Cc1cccnc1F

>  <score_type>  (84) 
oracle

>  <origin>  (84) 
autodockgpu

>  <m_score__min__energy>  (84) 
-7.4199999999999999

>  <m_primary>  (84) 
energy

>  <rmsd>  (84) 
12.637756699733927

>  <m_score__min__rmsd>  (84) 
12.637756699733927

>  <meeko>  (84) 
{"free_energy": -5.88, "intermolecular_energy": -8.27, "internal_energy": -1.79, "cluster_size": 5, "cluster_id": 6, "rank_in_cluster": 1}

>  <energy>  (84) 
-6.04

>  <cluster_rmsd>  (84) 
1.93

>  <cluster>  (84) 
4

$$$$

     RDKit          3D

 38 39  0  0  1  0  0  0  0  0999 V2000
  141.0920   73.8140  221.9600 O   0  0  0  0  0  0  0  0  0  0  0  0
  139.8600   73.6030  221.9840 C   0  0  0  0  0  0  0  0  0  0  0  0
  138.8460   74.2020  221.1260 C   0  0  0  0  0  0  0  0  0  0  0  0
  137.6410   74.7410  221.8520 C   0  0  0  0  0  0  0  0  0  0  0  0
  137.9200   75.9330  222.7160 C   0  0  0  0  0  0  0  0  0  0  0  0
  138.7420   76.8500  222.0830 O   0  0  0  0  0  0  0  0  0  0  0  0
  139.5680   77.8170  222.5400 C   0  0  0  0  0  0  0  0  0  0  0  0
  139.2840   78.8010  223.4520 C   0  0  0  0  0  0  0  0  0  0  0  0
  140.2150   79.7560  223.8550 C   0  0  0  0  0  0  0  0  0  0  0  0
  141.4790   79.7200  223.3170 C   0  0  0  0  0  0  0  0  0  0  0  0
  142.6360   80.9090  223.8170 Cl  0  0  0  0  0  0  0  0  0  0  0  0
  141.8040   78.7640  222.4090 C   0  0  0  0  0  0  0  0  0  0  0  0
  140.8740   77.8290  222.0250 C   0  0  0  0  0  0  0  0  0  0  0  0
  141.3720   76.6260  220.8470 Cl  0  0  0  0  0  0  0  0  0  0  0  0
  139.4140   72.6500  222.9840 N   0  0  0  0  0  0  0  0  0  0  0  0
  140.3320   72.0870  223.7820 N   0  0  0  0  0  0  0  0  0  0  0  0
  140.2880   70.9700  224.3320 C   0  0  0  0  0  0  0  0  0  0  0  0
  140.3490   70.5470  225.6970 C   0  0  0  0  0  0  0  0  0  0  0  0
  139.9800   69.2180  225.9450 C   0  0  0  0  0  0  0  0  0  0  0  0
  140.0060   68.7200  227.2220 C   0  0  0  0  0  0  0  0  0  0  0  0
  140.3820   69.4570  228.3170 C   0  0  0  0  0  0  0  0  0  0  0  0
  140.7340   70.7280  228.0710 N   0  0  0  0  0  0  0  0  0  0  0  0
  140.7200   71.2600  226.8010 C   0  0  0  0  0  0  0  0  0  0  0  0
  141.0970   72.5280  226.7430 F   0  0  0  0  0  0  0  0  0  0  0  0
  139.3118   75.0314  220.5737 H   0  0  0  0  0  0  0  0  0  0  0  0
  138.4788   73.3968  220.4726 H   0  0  0  0  0  0  0  0  0  0  0  0
  136.8881   75.0278  221.1031 H   0  0  0  0  0  0  0  0  0  0  0  0
  137.2956   73.9410  222.5234 H   0  0  0  0  0  0  0  0  0  0  0  0
  136.9668   76.4225  222.9647 H   0  0  0  0  0  0  0  0  0  0  0  0
  138.4353   75.5830  223.6226 H   0  0  0  0  0  0  0  0  0  0  0  0
  138.2738   78.8380  223.8857 H   0  0  0  0  0  0  0  0  0  0  0  0
  139.9427   80.5261  224.5917 H   0  0  0  0  0  0  0  0  0  0  0  0
  142.8162   78.7383  221.9792 H   0  0  0  0  0  0  0  0  0  0  0  0
  138.3730   72.4440  223.0900 H   0  0  0  0  0  0  0  0  0  0  0  0
  140.1799   70.1374  223.6213 H   0  0  0  0  0  0  0  0  0  0  0  0
  139.6681   68.5716  225.1114 H   0  0  0  0  0  0  0  0  0  0  0  0
  139.7092   67.6723  227.3775 H   0  0  0  0  0  0  0  0  0  0  0  0
  140.3940   69.0326  229.3318 H   0  0  0  0  0  0  0  0  0  0  0  0
  1  2  2  0
  2  3  1  0
  3  4  1  0
  4  5  1  0
  5  6  1  0
  6  7  1  0
  7  8  2  0
  8  9  1  0
  9 10  2  0
 10 11  1  0
 10 12  1  0
 12 13  2  0
 13 14  1  0
  2 15  1  0
 15 16  1  0
 16 17  2  0
 17 18  1  0
 18 19  2  0
 19 20  1  0
 20 21  2  0
 21 22  1  0
 22 23  2  0
 23 24  1  0
 13  7  1  0
 23 18  1  0
  3 25  1  0
  3 26  1  0
  4 27  1  0
  4 28  1  0
  5 29  1  0
  5 30  1  0
  8 31  1  0
  9 32  1  0
 12 33  1  0
 15 34  1  0
 17 35  1  0
 19 36  1  0
 20 37  1  0
 21 38  1  0
M  END
>  <smiles>  (85) 
O=C(CCCOc1ccc(Cl)cc1Cl)NN=Cc1cccnc1F

>  <score_type>  (85) 
oracle

>  <origin>  (85) 
autodockgpu

>  <m_score__min__energy>  (85) 
-7.4199999999999999

>  <m_primary>  (85) 
energy

>  <rmsd>  (85) 
6.0555946474007465

>  <m_score__min__rmsd>  (85) 
6.0555946474007465

>  <meeko>  (85) 
{"free_energy": -6.79, "intermolecular_energy": -9.18, "internal_energy": -0.8, "cluster_size": 18, "cluster_id": 2, "rank_in_cluster": 4}

>  <energy>  (85) 
-6.06

>  <cluster_rmsd>  (85) 
0.0

>  <cluster>  (85) 
5

$$$$

     RDKit          3D

 38 39  0  0  1  0  0  0  0  0999 V2000
  138.1640   70.3810  221.9210 O   0  0  0  0  0  0  0  0  0  0  0  0
  138.1690   71.6150  222.1220 C   0  0  0  0  0  0  0  0  0  0  0  0
  137.2870   72.6100  221.5250 C   0  0  0  0  0  0  0  0  0  0  0  0
  137.5430   74.0270  221.9640 C   0  0  0  0  0  0  0  0  0  0  0  0
  138.6560   74.7120  221.2300 C   0  0  0  0  0  0  0  0  0  0  0  0
  139.8810   74.5080  221.8420 O   0  0  0  0  0  0  0  0  0  0  0  0
  141.0900   74.1190  221.3800 C   0  0  0  0  0  0  0  0  0  0  0  0
  141.6080   72.8500  221.3530 C   0  0  0  0  0  0  0  0  0  0  0  0
  142.8750   72.5560  220.8520 C   0  0  0  0  0  0  0  0  0  0  0  0
  143.6490   73.5810  220.3620 C   0  0  0  0  0  0  0  0  0  0  0  0
  145.2250   73.2150  219.7410 Cl  0  0  0  0  0  0  0  0  0  0  0  0
  143.1760   74.8540  220.3710 C   0  0  0  0  0  0  0  0  0  0  0  0
  141.9250   75.1240  220.8660 C   0  0  0  0  0  0  0  0  0  0  0  0
  141.3860   76.7950  220.8420 Cl  0  0  0  0  0  0  0  0  0  0  0  0
  139.1760   72.0870  223.0560 N   0  0  0  0  0  0  0  0  0  0  0  0
  139.9970   71.1880  223.6160 N   0  0  0  0  0  0  0  0  0  0  0  0
  140.6910   71.3190  224.6430 C   0  0  0  0  0  0  0  0  0  0  0  0
  140.6590   70.7000  225.9310 C   0  0  0  0  0  0  0  0  0  0  0  0
  140.3810   69.3270  225.9470 C   0  0  0  0  0  0  0  0  0  0  0  0
  140.3290   68.6440  227.1350 C   0  0  0  0  0  0  0  0  0  0  0  0
  140.5390   69.2320  228.3580 C   0  0  0  0  0  0  0  0  0  0  0  0
  140.8040   70.5470  228.3340 N   0  0  0  0  0  0  0  0  0  0  0  0
  140.8640   71.2620  227.1600 C   0  0  0  0  0  0  0  0  0  0  0  0
  141.1380   72.5470  227.3240 F   0  0  0  0  0  0  0  0  0  0  0  0
  137.4085   72.5632  220.4327 H   0  0  0  0  0  0  0  0  0  0  0  0
  136.2692   72.3617  221.8603 H   0  0  0  0  0  0  0  0  0  0  0  0
  136.6211   74.6068  221.8094 H   0  0  0  0  0  0  0  0  0  0  0  0
  137.8473   73.9780  223.0200 H   0  0  0  0  0  0  0  0  0  0  0  0
  138.7010   74.3176  220.2041 H   0  0  0  0  0  0  0  0  0  0  0  0
  138.4504   75.7926  221.2310 H   0  0  0  0  0  0  0  0  0  0  0  0
  140.9950   72.0251  221.7451 H   0  0  0  0  0  0  0  0  0  0  0  0
  143.2491   71.5216  220.8488 H   0  0  0  0  0  0  0  0  0  0  0  0
  143.7984   75.6722  219.9798 H   0  0  0  0  0  0  0  0  0  0  0  0
  139.2660   73.1310  223.2510 H   0  0  0  0  0  0  0  0  0  0  0  0
  141.4930   72.0642  224.5362 H   0  0  0  0  0  0  0  0  0  0  0  0
  140.2034   68.7939  225.0014 H   0  0  0  0  0  0  0  0  0  0  0  0
  140.1071   67.5670  227.1067 H   0  0  0  0  0  0  0  0  0  0  0  0
  140.4929   68.6614  229.2973 H   0  0  0  0  0  0  0  0  0  0  0  0
  1  2  2  0
  2  3  1  0
  3  4  1  0
  4  5  1  0
  5  6  1  0
  6  7  1  0
  7  8  2  0
  8  9  1  0
  9 10  2  0
 10 11  1  0
 10 12  1  0
 12 13  2  0
 13 14  1  0
  2 15  1  0
 15 16  1  0
 16 17  2  0
 17 18  1  0
 18 19  2  0
 19 20  1  0
 20 21  2  0
 21 22  1  0
 22 23  2  0
 23 24  1  0
 13  7  1  0
 23 18  1  0
  3 25  1  0
  3 26  1  0
  4 27  1  0
  4 28  1  0
  5 29  1  0
  5 30  1  0
  8 31  1  0
  9 32  1  0
 12 33  1  0
 15 34  1  0
 17 35  1  0
 19 36  1  0
 20 37  1  0
 21 38  1  0
M  END
>  <smiles>  (86) 
O=C(CCCOc1ccc(Cl)cc1Cl)NN=Cc1cccnc1F

>  <score_type>  (86) 
oracle

>  <origin>  (86) 
autodockgpu

>  <m_score__min__energy>  (86) 
-7.4199999999999999

>  <m_primary>  (86) 
energy

>  <rmsd>  (86) 
8.921010750206856

>  <m_score__min__rmsd>  (86) 
8.921010750206856

>  <meeko>  (86) 
{"free_energy": -6.0, "intermolecular_energy": -8.38, "internal_energy": -1.7, "cluster_size": 4, "cluster_id": 5, "rank_in_cluster": 2}

>  <energy>  (86) 
-6.0

>  <cluster_rmsd>  (86) 
1.04

>  <cluster>  (86) 
5

$$$$

     RDKit          3D

 38 39  0  0  1  0  0  0  0  0999 V2000
  141.2090   71.6720  221.6410 O   0  0  0  0  0  0  0  0  0  0  0  0
  140.5370   72.6180  222.1060 C   0  0  0  0  0  0  0  0  0  0  0  0
  140.7170   74.0400  221.8440 C   0  0  0  0  0  0  0  0  0  0  0  0
  141.7760   74.3660  220.8240 C   0  0  0  0  0  0  0  0  0  0  0  0
  141.4480   75.5330  219.9420 C   0  0  0  0  0  0  0  0  0  0  0  0
  140.7400   76.5110  220.6200 O   0  0  0  0  0  0  0  0  0  0  0  0
  141.1130   77.5170  221.4420 C   0  0  0  0  0  0  0  0  0  0  0  0
  141.0400   77.5510  222.8110 C   0  0  0  0  0  0  0  0  0  0  0  0
  141.4530   78.6460  223.5670 C   0  0  0  0  0  0  0  0  0  0  0  0
  141.9570   79.7480  222.9190 C   0  0  0  0  0  0  0  0  0  0  0  0
  142.4700   81.1100  223.8610 Cl  0  0  0  0  0  0  0  0  0  0  0  0
  142.0470   79.7580  221.5650 C   0  0  0  0  0  0  0  0  0  0  0  0
  141.6370   78.6700  220.8360 C   0  0  0  0  0  0  0  0  0  0  0  0
  141.7850   78.7610  219.0880 Cl  0  0  0  0  0  0  0  0  0  0  0  0
  139.4610   72.2330  223.0020 N   0  0  0  0  0  0  0  0  0  0  0  0
  139.2780   70.9290  223.2550 N   0  0  0  0  0  0  0  0  0  0  0  0
  139.6970   70.2710  224.2270 C   0  0  0  0  0  0  0  0  0  0  0  0
  140.1060   70.6310  225.5490 C   0  0  0  0  0  0  0  0  0  0  0  0
  140.8070   71.8380  225.6690 C   0  0  0  0  0  0  0  0  0  0  0  0
  141.2420   72.2680  226.8960 C   0  0  0  0  0  0  0  0  0  0  0  0
  141.0310   71.5740  228.0620 C   0  0  0  0  0  0  0  0  0  0  0  0
  140.3590   70.4180  227.9390 N   0  0  0  0  0  0  0  0  0  0  0  0
  139.9090   69.9580  226.7220 C   0  0  0  0  0  0  0  0  0  0  0  0
  139.2650   68.8030  226.7870 F   0  0  0  0  0  0  0  0  0  0  0  0
  139.7597   74.4454  221.4846 H   0  0  0  0  0  0  0  0  0  0  0  0
  141.0510   74.4891  222.7910 H   0  0  0  0  0  0  0  0  0  0  0  0
  142.7108   74.5907  221.3584 H   0  0  0  0  0  0  0  0  0  0  0  0
  141.8586   73.4885  220.1658 H   0  0  0  0  0  0  0  0  0  0  0  0
  142.3854   75.9689  219.5661 H   0  0  0  0  0  0  0  0  0  0  0  0
  140.8198   75.1691  219.1156 H   0  0  0  0  0  0  0  0  0  0  0  0
  140.6366   76.6730  223.3367 H   0  0  0  0  0  0  0  0  0  0  0  0
  141.3769   78.6287  224.6642 H   0  0  0  0  0  0  0  0  0  0  0  0
  142.4504   80.6421  221.0495 H   0  0  0  0  0  0  0  0  0  0  0  0
  138.8660   72.9860  223.4670 H   0  0  0  0  0  0  0  0  0  0  0  0
  139.7664   69.1916  224.0268 H   0  0  0  0  0  0  0  0  0  0  0  0
  141.0096   72.4441  224.7737 H   0  0  0  0  0  0  0  0  0  0  0  0
  141.7897   73.2205  226.9493 H   0  0  0  0  0  0  0  0  0  0  0  0
  141.3896   71.9416  229.0347 H   0  0  0  0  0  0  0  0  0  0  0  0
  1  2  2  0
  2  3  1  0
  3  4  1  0
  4  5  1  0
  5  6  1  0
  6  7  1  0
  7  8  2  0
  8  9  1  0
  9 10  2  0
 10 11  1  0
 10 12  1  0
 12 13  2  0
 13 14  1  0
  2 15  1  0
 15 16  1  0
 16 17  2  0
 17 18  1  0
 18 19  2  0
 19 20  1  0
 20 21  2  0
 21 22  1  0
 22 23  2  0
 23 24  1  0
 13  7  1  0
 23 18  1  0
  3 25  1  0
  3 26  1  0
  4 27  1  0
  4 28  1  0
  5 29  1  0
  5 30  1  0
  8 31  1  0
  9 32  1  0
 12 33  1  0
 15 34  1  0
 17 35  1  0
 19 36  1  0
 20 37  1  0
 21 38  1  0
M  END
>  <smiles>  (87) 
O=C(CCCOc1ccc(Cl)cc1Cl)NN=Cc1cccnc1F

>  <score_type>  (87) 
oracle

>  <origin>  (87) 
autodockgpu

>  <m_score__min__energy>  (87) 
-7.4199999999999999

>  <m_primary>  (87) 
energy

>  <rmsd>  (87) 
6.191878176693058

>  <m_score__min__rmsd>  (87) 
6.191878176693058

>  <meeko>  (87) 
{"free_energy": -6.57, "intermolecular_energy": -8.96, "internal_energy": -0.65, "cluster_size": 5, "cluster_id": 3, "rank_in_cluster": 4}

>  <energy>  (87) 
-5.99

>  <cluster_rmsd>  (87) 
1.13

>  <cluster>  (87) 
5

$$$$

     RDKit          3D

 38 39  0  0  1  0  0  0  0  0999 V2000
  139.9660   75.1550  219.9400 O   0  0  0  0  0  0  0  0  0  0  0  0
  139.5730   74.4140  220.8670 C   0  0  0  0  0  0  0  0  0  0  0  0
  138.9000   73.1280  220.7440 C   0  0  0  0  0  0  0  0  0  0  0  0
  139.7400   71.9360  221.1230 C   0  0  0  0  0  0  0  0  0  0  0  0
  140.7010   72.1860  222.2450 C   0  0  0  0  0  0  0  0  0  0  0  0
  140.0600   72.2510  223.4710 O   0  0  0  0  0  0  0  0  0  0  0  0
  140.1840   71.5420  224.6140 C   0  0  0  0  0  0  0  0  0  0  0  0
  141.0140   71.8000  225.6750 C   0  0  0  0  0  0  0  0  0  0  0  0
  141.0640   70.9980  226.8130 C   0  0  0  0  0  0  0  0  0  0  0  0
  140.2490   69.8940  226.8840 C   0  0  0  0  0  0  0  0  0  0  0  0
  140.3130   68.8970  228.3000 Cl  0  0  0  0  0  0  0  0  0  0  0  0
  139.4120   69.6000  225.8570 C   0  0  0  0  0  0  0  0  0  0  0  0
  139.3740   70.4030  224.7440 C   0  0  0  0  0  0  0  0  0  0  0  0
  138.2650   69.9550  223.4570 Cl  0  0  0  0  0  0  0  0  0  0  0  0
  139.8250   74.9120  222.2080 N   0  0  0  0  0  0  0  0  0  0  0  0
  140.4430   76.0940  222.3430 N   0  0  0  0  0  0  0  0  0  0  0  0
  139.9290   77.2050  222.5730 C   0  0  0  0  0  0  0  0  0  0  0  0
  140.4720   78.4850  222.9080 C   0  0  0  0  0  0  0  0  0  0  0  0
  141.8530   78.6350  222.7190 C   0  0  0  0  0  0  0  0  0  0  0  0
  142.4660   79.8250  223.0130 C   0  0  0  0  0  0  0  0  0  0  0  0
  141.8000   80.9240  223.4960 C   0  0  0  0  0  0  0  0  0  0  0  0
  140.4780   80.7720  223.6740 N   0  0  0  0  0  0  0  0  0  0  0  0
  139.8310   79.5910  223.3890 C   0  0  0  0  0  0  0  0  0  0  0  0
  138.5280   79.6200  223.6240 F   0  0  0  0  0  0  0  0  0  0  0  0
  138.0132   73.1424  221.3946 H   0  0  0  0  0  0  0  0  0  0  0  0
  138.6549   73.0076  219.6784 H   0  0  0  0  0  0  0  0  0  0  0  0
  139.0649   71.1213  221.4237 H   0  0  0  0  0  0  0  0  0  0  0  0
  140.3470   71.6870  220.2401 H   0  0  0  0  0  0  0  0  0  0  0  0
  141.4367   71.3686  222.2715 H   0  0  0  0  0  0  0  0  0  0  0  0
  141.1898   73.1548  222.0648 H   0  0  0  0  0  0  0  0  0  0  0  0
  141.6707   72.6811  225.6250 H   0  0  0  0  0  0  0  0  0  0  0  0
  141.7447   71.2445  227.6412 H   0  0  0  0  0  0  0  0  0  0  0  0
  138.7615   68.7149  225.9165 H   0  0  0  0  0  0  0  0  0  0  0  0
  139.4870   74.3540  223.0500 H   0  0  0  0  0  0  0  0  0  0  0  0
  138.8312   77.2008  222.5043 H   0  0  0  0  0  0  0  0  0  0  0  0
  142.4473   77.7937  222.3329 H   0  0  0  0  0  0  0  0  0  0  0  0
  143.5515   79.9039  222.8532 H   0  0  0  0  0  0  0  0  0  0  0  0
  142.3164   81.8685  223.7226 H   0  0  0  0  0  0  0  0  0  0  0  0
  1  2  2  0
  2  3  1  0
  3  4  1  0
  4  5  1  0
  5  6  1  0
  6  7  1  0
  7  8  2  0
  8  9  1  0
  9 10  2  0
 10 11  1  0
 10 12  1  0
 12 13  2  0
 13 14  1  0
  2 15  1  0
 15 16  1  0
 16 17  2  0
 17 18  1  0
 18 19  2  0
 19 20  1  0
 20 21  2  0
 21 22  1  0
 22 23  2  0
 23 24  1  0
 13  7  1  0
 23 18  1  0
  3 25  1  0
  3 26  1  0
  4 27  1  0
  4 28  1  0
  5 29  1  0
  5 30  1  0
  8 31  1  0
  9 32  1  0
 12 33  1  0
 15 34  1  0
 17 35  1  0
 19 36  1  0
 20 37  1  0
 21 38  1  0
M  END
>  <smiles>  (88) 
O=C(CCCOc1ccc(Cl)cc1Cl)NN=Cc1cccnc1F

>  <score_type>  (88) 
oracle

>  <origin>  (88) 
autodockgpu

>  <m_score__min__energy>  (88) 
-7.4199999999999999

>  <m_primary>  (88) 
energy

>  <rmsd>  (88) 
12.191658419807554

>  <m_score__min__rmsd>  (88) 
12.191658419807554

>  <meeko>  (88) 
{"free_energy": -6.38, "intermolecular_energy": -8.76, "internal_energy": -1.29, "cluster_size": 8, "cluster_id": 1, "rank_in_cluster": 6}

>  <energy>  (88) 
-5.8

>  <cluster_rmsd>  (88) 
1.38

>  <cluster>  (88) 
5

$$$$

     RDKit          3D

 38 39  0  0  1  0  0  0  0  0999 V2000
  139.9250   73.6870  222.6690 O   0  0  0  0  0  0  0  0  0  0  0  0
  140.6560   72.9000  222.0300 C   0  0  0  0  0  0  0  0  0  0  0  0
  141.5900   73.2340  220.9630 C   0  0  0  0  0  0  0  0  0  0  0  0
  141.1210   74.3160  220.0260 C   0  0  0  0  0  0  0  0  0  0  0  0
  141.8890   75.5990  220.1270 C   0  0  0  0  0  0  0  0  0  0  0  0
  141.1000   76.6400  220.5870 O   0  0  0  0  0  0  0  0  0  0  0  0
  141.3360   77.6800  221.4170 C   0  0  0  0  0  0  0  0  0  0  0  0
  141.2300   77.7020  222.7840 C   0  0  0  0  0  0  0  0  0  0  0  0
  141.4970   78.8350  223.5500 C   0  0  0  0  0  0  0  0  0  0  0  0
  141.8840   79.9900  222.9130 C   0  0  0  0  0  0  0  0  0  0  0  0
  142.2150   81.4000  223.8650 Cl  0  0  0  0  0  0  0  0  0  0  0  0
  142.0010   80.0140  221.5600 C   0  0  0  0  0  0  0  0  0  0  0  0
  141.7360   78.8870  220.8230 C   0  0  0  0  0  0  0  0  0  0  0  0
  141.9100   78.9990  219.0790 Cl  0  0  0  0  0  0  0  0  0  0  0  0
  140.5470   71.5030  222.4110 N   0  0  0  0  0  0  0  0  0  0  0  0
  139.6930   71.1760  223.3920 N   0  0  0  0  0  0  0  0  0  0  0  0
  139.9060   70.4500  224.3820 C   0  0  0  0  0  0  0  0  0  0  0  0
  140.2730   70.7260  225.7360 C   0  0  0  0  0  0  0  0  0  0  0  0
  140.9920   71.9100  225.9500 C   0  0  0  0  0  0  0  0  0  0  0  0
  141.3900   72.2600  227.2140 C   0  0  0  0  0  0  0  0  0  0  0  0
  141.1230   71.5070  228.3300 C   0  0  0  0  0  0  0  0  0  0  0  0
  140.4340   70.3750  228.1180 N   0  0  0  0  0  0  0  0  0  0  0  0
  140.0200   69.9940  226.8610 C   0  0  0  0  0  0  0  0  0  0  0  0
  139.3520   68.8500  226.8380 F   0  0  0  0  0  0  0  0  0  0  0  0
  142.5317   73.5660  221.4245 H   0  0  0  0  0  0  0  0  0  0  0  0
  141.7008   72.3248  220.3539 H   0  0  0  0  0  0  0  0  0  0  0  0
  141.2110   73.9415  218.9956 H   0  0  0  0  0  0  0  0  0  0  0  0
  140.0837   74.5482  220.3091 H   0  0  0  0  0  0  0  0  0  0  0  0
  142.7295   75.4562  220.8221 H   0  0  0  0  0  0  0  0  0  0  0  0
  142.2461   75.8619  219.1203 H   0  0  0  0  0  0  0  0  0  0  0  0
  140.9195   76.7817  223.3003 H   0  0  0  0  0  0  0  0  0  0  0  0
  141.3998   78.8056  224.6453 H   0  0  0  0  0  0  0  0  0  0  0  0
  142.3093   80.9402  221.0530 H   0  0  0  0  0  0  0  0  0  0  0  0
  141.1130   70.7670  221.8880 H   0  0  0  0  0  0  0  0  0  0  0  0
  139.7874   69.3769  224.1711 H   0  0  0  0  0  0  0  0  0  0  0  0
  141.2382   72.5619  225.0988 H   0  0  0  0  0  0  0  0  0  0  0  0
  141.9543   73.1956  227.3410 H   0  0  0  0  0  0  0  0  0  0  0  0
  141.4527   71.8119  229.3342 H   0  0  0  0  0  0  0  0  0  0  0  0
  1  2  2  0
  2  3  1  0
  3  4  1  0
  4  5  1  0
  5  6  1  0
  6  7  1  0
  7  8  2  0
  8  9  1  0
  9 10  2  0
 10 11  1  0
 10 12  1  0
 12 13  2  0
 13 14  1  0
  2 15  1  0
 15 16  1  0
 16 17  2  0
 17 18  1  0
 18 19  2  0
 19 20  1  0
 20 21  2  0
 21 22  1  0
 22 23  2  0
 23 24  1  0
 13  7  1  0
 23 18  1  0
  3 25  1  0
  3 26  1  0
  4 27  1  0
  4 28  1  0
  5 29  1  0
  5 30  1  0
  8 31  1  0
  9 32  1  0
 12 33  1  0
 15 34  1  0
 17 35  1  0
 19 36  1  0
 20 37  1  0
 21 38  1  0
M  END
>  <smiles>  (89) 
O=C(CCCOc1ccc(Cl)cc1Cl)NN=Cc1cccnc1F

>  <score_type>  (89) 
oracle

>  <origin>  (89) 
autodockgpu

>  <m_score__min__energy>  (89) 
-7.4199999999999999

>  <m_primary>  (89) 
energy

>  <rmsd>  (89) 
6.229222399144185

>  <m_score__min__rmsd>  (89) 
6.229222399144185

>  <meeko>  (89) 
{"free_energy": -6.73, "intermolecular_energy": -9.12, "internal_energy": -0.71, "cluster_size": 5, "cluster_id": 3, "rank_in_cluster": 2}

>  <energy>  (89) 
-5.88

>  <cluster_rmsd>  (89) 
0.0

>  <cluster>  (89) 
6

$$$$

     RDKit          3D

 38 39  0  0  1  0  0  0  0  0999 V2000
  141.2770   71.2000  221.7060 O   0  0  0  0  0  0  0  0  0  0  0  0
  140.6750   72.2930  221.7860 C   0  0  0  0  0  0  0  0  0  0  0  0
  140.6320   73.3510  220.7850 C   0  0  0  0  0  0  0  0  0  0  0  0
  139.2750   73.5960  220.1800 C   0  0  0  0  0  0  0  0  0  0  0  0
  138.5400   74.7670  220.7590 C   0  0  0  0  0  0  0  0  0  0  0  0
  139.1210   75.2130  221.9340 O   0  0  0  0  0  0  0  0  0  0  0  0
  139.6610   76.3940  222.3060 C   0  0  0  0  0  0  0  0  0  0  0  0
  140.9890   76.7350  222.3390 C   0  0  0  0  0  0  0  0  0  0  0  0
  141.4430   77.9890  222.7430 C   0  0  0  0  0  0  0  0  0  0  0  0
  140.5230   78.9340  223.1310 C   0  0  0  0  0  0  0  0  0  0  0  0
  141.0880   80.4930  223.6350 Cl  0  0  0  0  0  0  0  0  0  0  0  0
  139.1980   78.6390  223.1150 C   0  0  0  0  0  0  0  0  0  0  0  0
  138.7700   77.3990  222.7120 C   0  0  0  0  0  0  0  0  0  0  0  0
  137.0400   77.0960  222.7200 Cl  0  0  0  0  0  0  0  0  0  0  0  0
  139.9430   72.5090  223.0210 N   0  0  0  0  0  0  0  0  0  0  0  0
  139.9700   71.5470  223.9540 N   0  0  0  0  0  0  0  0  0  0  0  0
  140.6530   71.5080  224.9950 C   0  0  0  0  0  0  0  0  0  0  0  0
  140.7260   70.5860  226.0850 C   0  0  0  0  0  0  0  0  0  0  0  0
  140.4080   69.2540  225.7850 C   0  0  0  0  0  0  0  0  0  0  0  0
  140.4470   68.2960  226.7640 C   0  0  0  0  0  0  0  0  0  0  0  0
  140.7910   68.5550  228.0680 C   0  0  0  0  0  0  0  0  0  0  0  0
  141.0940   69.8330  228.3470 N   0  0  0  0  0  0  0  0  0  0  0  0
  141.0640   70.8200  227.3870 C   0  0  0  0  0  0  0  0  0  0  0  0
  141.3930   72.0210  227.8390 F   0  0  0  0  0  0  0  0  0  0  0  0
  140.9682   74.2846  221.2598 H   0  0  0  0  0  0  0  0  0  0  0  0
  141.2827   73.0230  219.9610 H   0  0  0  0  0  0  0  0  0  0  0  0
  139.4057   73.7710  219.1019 H   0  0  0  0  0  0  0  0  0  0  0  0
  138.6683   72.7052  220.4000 H   0  0  0  0  0  0  0  0  0  0  0  0
  138.5451   75.5874  220.0263 H   0  0  0  0  0  0  0  0  0  0  0  0
  137.5133   74.4452  220.9878 H   0  0  0  0  0  0  0  0  0  0  0  0
  141.7308   75.9830  222.0321 H   0  0  0  0  0  0  0  0  0  0  0  0
  142.5187   78.2187  222.7513 H   0  0  0  0  0  0  0  0  0  0  0  0
  138.4643   79.3971  223.4264 H   0  0  0  0  0  0  0  0  0  0  0  0
  139.4330   73.4320  223.1770 H   0  0  0  0  0  0  0  0  0  0  0  0
  141.3425   72.3590  225.0965 H   0  0  0  0  0  0  0  0  0  0  0  0
  140.1258   68.9765  224.7587 H   0  0  0  0  0  0  0  0  0  0  0  0
  140.1885   67.2624  226.4903 H   0  0  0  0  0  0  0  0  0  0  0  0
  140.8167   67.7664  228.8345 H   0  0  0  0  0  0  0  0  0  0  0  0
  1  2  2  0
  2  3  1  0
  3  4  1  0
  4  5  1  0
  5  6  1  0
  6  7  1  0
  7  8  2  0
  8  9  1  0
  9 10  2  0
 10 11  1  0
 10 12  1  0
 12 13  2  0
 13 14  1  0
  2 15  1  0
 15 16  1  0
 16 17  2  0
 17 18  1  0
 18 19  2  0
 19 20  1  0
 20 21  2  0
 21 22  1  0
 22 23  2  0
 23 24  1  0
 13  7  1  0
 23 18  1  0
  3 25  1  0
  3 26  1  0
  4 27  1  0
  4 28  1  0
  5 29  1  0
  5 30  1  0
  8 31  1  0
  9 32  1  0
 12 33  1  0
 15 34  1  0
 17 35  1  0
 19 36  1  0
 20 37  1  0
 21 38  1  0
M  END
>  <smiles>  (90) 
O=C(CCCOc1ccc(Cl)cc1Cl)NN=Cc1cccnc1F

>  <score_type>  (90) 
oracle

>  <origin>  (90) 
autodockgpu

>  <m_score__min__energy>  (90) 
-7.4199999999999999

>  <m_primary>  (90) 
energy

>  <rmsd>  (90) 
6.952652348233876

>  <m_score__min__rmsd>  (90) 
6.952652348233876

>  <meeko>  (90) 
{"free_energy": -6.14, "intermolecular_energy": -8.53, "internal_energy": -1.43, "cluster_size": 18, "cluster_id": 2, "rank_in_cluster": 17}

>  <energy>  (90) 
-5.88

>  <cluster_rmsd>  (90) 
1.0

>  <cluster>  (90) 
6

$$$$

     RDKit          3D

 38 39  0  0  1  0  0  0  0  0999 V2000
  140.1140   74.1220  221.9720 O   0  0  0  0  0  0  0  0  0  0  0  0
  141.0830   74.7770  221.5310 C   0  0  0  0  0  0  0  0  0  0  0  0
  142.2040   74.2740  220.7480 C   0  0  0  0  0  0  0  0  0  0  0  0
  142.3650   74.9100  219.3920 C   0  0  0  0  0  0  0  0  0  0  0  0
  142.6630   76.3790  219.4280 C   0  0  0  0  0  0  0  0  0  0  0  0
  141.5070   77.1420  219.3950 O   0  0  0  0  0  0  0  0  0  0  0  0
  141.2610   78.4520  219.6120 C   0  0  0  0  0  0  0  0  0  0  0  0
  142.1750   79.4650  219.7510 C   0  0  0  0  0  0  0  0  0  0  0  0
  141.8130   80.7910  219.9760 C   0  0  0  0  0  0  0  0  0  0  0  0
  140.4780   81.1080  220.0660 C   0  0  0  0  0  0  0  0  0  0  0  0
  140.0280   82.7580  220.3470 Cl  0  0  0  0  0  0  0  0  0  0  0  0
  139.5390   80.1370  219.9370 C   0  0  0  0  0  0  0  0  0  0  0  0
  139.9150   78.8360  219.7130 C   0  0  0  0  0  0  0  0  0  0  0  0
  138.6400   77.6380  219.5570 Cl  0  0  0  0  0  0  0  0  0  0  0  0
  141.0690   76.1940  221.8460 N   0  0  0  0  0  0  0  0  0  0  0  0
  140.0460   76.6770  222.5650 N   0  0  0  0  0  0  0  0  0  0  0  0
  139.7650   77.8690  222.7930 C   0  0  0  0  0  0  0  0  0  0  0  0
  140.5510   79.0100  223.1440 C   0  0  0  0  0  0  0  0  0  0  0  0
  141.9410   78.8400  223.0890 C   0  0  0  0  0  0  0  0  0  0  0  0
  142.7790   79.8760  223.4080 C   0  0  0  0  0  0  0  0  0  0  0  0
  142.3380   81.1190  223.7920 C   0  0  0  0  0  0  0  0  0  0  0  0
  141.0060   81.2740  223.8430 N   0  0  0  0  0  0  0  0  0  0  0  0
  140.1370   80.2540  223.5290 C   0  0  0  0  0  0  0  0  0  0  0  0
  138.8580   80.5840  223.6330 F   0  0  0  0  0  0  0  0  0  0  0  0
  143.1269   74.4500  221.3200 H   0  0  0  0  0  0  0  0  0  0  0  0
  142.0011   73.2081  220.5673 H   0  0  0  0  0  0  0  0  0  0  0  0
  143.1910   74.4041  218.8707 H   0  0  0  0  0  0  0  0  0  0  0  0
  141.3998   74.7982  218.8763 H   0  0  0  0  0  0  0  0  0  0  0  0
  143.2136   76.6075  220.3524 H   0  0  0  0  0  0  0  0  0  0  0  0
  143.2606   76.6273  218.5385 H   0  0  0  0  0  0  0  0  0  0  0  0
  143.2448   79.2186  219.6815 H   0  0  0  0  0  0  0  0  0  0  0  0
  142.5816   81.5710  220.0799 H   0  0  0  0  0  0  0  0  0  0  0  0
  138.4720   80.3935  220.0122 H   0  0  0  0  0  0  0  0  0  0  0  0
  141.8800   76.8120  221.5350 H   0  0  0  0  0  0  0  0  0  0  0  0
  138.6907   78.0887  222.7063 H   0  0  0  0  0  0  0  0  0  0  0  0
  142.3617   77.8692  222.7880 H   0  0  0  0  0  0  0  0  0  0  0  0
  143.8640   79.7030  223.3537 H   0  0  0  0  0  0  0  0  0  0  0  0
  143.0322   81.9350  224.0417 H   0  0  0  0  0  0  0  0  0  0  0  0
  1  2  2  0
  2  3  1  0
  3  4  1  0
  4  5  1  0
  5  6  1  0
  6  7  1  0
  7  8  2  0
  8  9  1  0
  9 10  2  0
 10 11  1  0
 10 12  1  0
 12 13  2  0
 13 14  1  0
  2 15  1  0
 15 16  1  0
 16 17  2  0
 17 18  1  0
 18 19  2  0
 19 20  1  0
 20 21  2  0
 21 22  1  0
 22 23  2  0
 23 24  1  0
 13  7  1  0
 23 18  1  0
  3 25  1  0
  3 26  1  0
  4 27  1  0
  4 28  1  0
  5 29  1  0
  5 30  1  0
  8 31  1  0
  9 32  1  0
 12 33  1  0
 15 34  1  0
 17 35  1  0
 19 36  1  0
 20 37  1  0
 21 38  1  0
M  END
>  <smiles>  (91) 
O=C(CCCOc1ccc(Cl)cc1Cl)NN=Cc1cccnc1F

>  <score_type>  (91) 
oracle

>  <origin>  (91) 
autodockgpu

>  <m_score__min__energy>  (91) 
-7.4199999999999999

>  <m_primary>  (91) 
energy

>  <rmsd>  (91) 
6.105491127894234

>  <m_score__min__rmsd>  (91) 
6.105491127894234

>  <meeko>  (91) 
{"free_energy": -4.75, "intermolecular_energy": -7.14, "internal_energy": -2.72, "cluster_size": 4, "cluster_id": 10, "rank_in_cluster": 1}

>  <energy>  (91) 
-5.82

>  <cluster_rmsd>  (91) 
1.05

>  <cluster>  (91) 
6

$$$$

     RDKit          3D

 38 39  0  0  1  0  0  0  0  0999 V2000
  141.8310   71.6050  221.6820 O   0  0  0  0  0  0  0  0  0  0  0  0
  140.9240   72.4650  221.7210 C   0  0  0  0  0  0  0  0  0  0  0  0
  140.4600   73.3070  220.6270 C   0  0  0  0  0  0  0  0  0  0  0  0
  138.9630   73.4220  220.5080 C   0  0  0  0  0  0  0  0  0  0  0  0
  138.3580   74.5250  221.3230 C   0  0  0  0  0  0  0  0  0  0  0  0
  139.2710   75.0740  222.2080 O   0  0  0  0  0  0  0  0  0  0  0  0
  139.7400   76.3290  222.3900 C   0  0  0  0  0  0  0  0  0  0  0  0
  141.0440   76.7500  222.3510 C   0  0  0  0  0  0  0  0  0  0  0  0
  141.4220   78.0750  222.5560 C   0  0  0  0  0  0  0  0  0  0  0  0
  140.4470   79.0110  222.8100 C   0  0  0  0  0  0  0  0  0  0  0  0
  140.9180   80.6600  223.0650 Cl  0  0  0  0  0  0  0  0  0  0  0  0
  139.1430   78.6380  222.8590 C   0  0  0  0  0  0  0  0  0  0  0  0
  138.7900   77.3280  222.6530 C   0  0  0  0  0  0  0  0  0  0  0  0
  137.0820   76.9260  222.7320 Cl  0  0  0  0  0  0  0  0  0  0  0  0
  140.2750   72.6230  223.0110 N   0  0  0  0  0  0  0  0  0  0  0  0
  140.6880   71.8570  224.0300 N   0  0  0  0  0  0  0  0  0  0  0  0
  139.9950   71.1420  224.7800 C   0  0  0  0  0  0  0  0  0  0  0  0
  140.2620   70.4730  226.0150 C   0  0  0  0  0  0  0  0  0  0  0  0
  140.0050   69.0950  226.0360 C   0  0  0  0  0  0  0  0  0  0  0  0
  140.2290   68.3660  227.1750 C   0  0  0  0  0  0  0  0  0  0  0  0
  140.7070   68.9090  228.3420 C   0  0  0  0  0  0  0  0  0  0  0  0
  140.9510   70.2280  228.3140 N   0  0  0  0  0  0  0  0  0  0  0  0
  140.7370   70.9900  227.1870 C   0  0  0  0  0  0  0  0  0  0  0  0
  141.0310   72.2720  227.3390 F   0  0  0  0  0  0  0  0  0  0  0  0
  140.8698   74.3170  220.7753 H   0  0  0  0  0  0  0  0  0  0  0  0
  140.8080   72.8285  219.6996 H   0  0  0  0  0  0  0  0  0  0  0  0
  138.7149   73.5998  219.4512 H   0  0  0  0  0  0  0  0  0  0  0  0
  138.5450   72.4811  220.8953 H   0  0  0  0  0  0  0  0  0  0  0  0
  138.0018   75.3141  220.6445 H   0  0  0  0  0  0  0  0  0  0  0  0
  137.5288   74.1009  221.9082 H   0  0  0  0  0  0  0  0  0  0  0  0
  141.8289   76.0065  222.1483 H   0  0  0  0  0  0  0  0  0  0  0  0
  142.4816   78.3674  222.5154 H   0  0  0  0  0  0  0  0  0  0  0  0
  138.3659   79.3889  223.0647 H   0  0  0  0  0  0  0  0  0  0  0  0
  139.5160   73.3620  223.1320 H   0  0  0  0  0  0  0  0  0  0  0  0
  138.9669   70.9958  224.4171 H   0  0  0  0  0  0  0  0  0  0  0  0
  139.6216   68.5962  225.1337 H   0  0  0  0  0  0  0  0  0  0  0  0
  140.0141   67.2874  227.1529 H   0  0  0  0  0  0  0  0  0  0  0  0
  140.8790   68.3013  229.2426 H   0  0  0  0  0  0  0  0  0  0  0  0
  1  2  2  0
  2  3  1  0
  3  4  1  0
  4  5  1  0
  5  6  1  0
  6  7  1  0
  7  8  2  0
  8  9  1  0
  9 10  2  0
 10 11  1  0
 10 12  1  0
 12 13  2  0
 13 14  1  0
  2 15  1  0
 15 16  1  0
 16 17  2  0
 17 18  1  0
 18 19  2  0
 19 20  1  0
 20 21  2  0
 21 22  1  0
 22 23  2  0
 23 24  1  0
 13  7  1  0
 23 18  1  0
  3 25  1  0
  3 26  1  0
  4 27  1  0
  4 28  1  0
  5 29  1  0
  5 30  1  0
  8 31  1  0
  9 32  1  0
 12 33  1  0
 15 34  1  0
 17 35  1  0
 19 36  1  0
 20 37  1  0
 21 38  1  0
M  END
>  <smiles>  (92) 
O=C(CCCOc1ccc(Cl)cc1Cl)NN=Cc1cccnc1F

>  <score_type>  (92) 
oracle

>  <origin>  (92) 
autodockgpu

>  <m_score__min__energy>  (92) 
-7.4199999999999999

>  <m_primary>  (92) 
energy

>  <rmsd>  (92) 
7.106690937096008

>  <m_score__min__rmsd>  (92) 
7.106690937096008

>  <meeko>  (92) 
{"free_energy": -6.37, "intermolecular_energy": -8.76, "internal_energy": -1.29, "cluster_size": 18, "cluster_id": 2, "rank_in_cluster": 10}

>  <energy>  (92) 
-5.62

>  <cluster_rmsd>  (92) 
0.75

>  <cluster>  (92) 
6

$$$$

     RDKit          3D

 38 39  0  0  1  0  0  0  0  0999 V2000
  140.0520   75.0600  219.9680 O   0  0  0  0  0  0  0  0  0  0  0  0
  139.6060   74.3370  220.8850 C   0  0  0  0  0  0  0  0  0  0  0  0
  138.9070   73.0660  220.7440 C   0  0  0  0  0  0  0  0  0  0  0  0
  139.7010   71.8570  221.1640 C   0  0  0  0  0  0  0  0  0  0  0  0
  140.6970   72.1180  222.2530 C   0  0  0  0  0  0  0  0  0  0  0  0
  140.0910   72.2270  223.4940 O   0  0  0  0  0  0  0  0  0  0  0  0
  140.2150   71.5300  224.6450 C   0  0  0  0  0  0  0  0  0  0  0  0
  141.0460   71.7970  225.7020 C   0  0  0  0  0  0  0  0  0  0  0  0
  141.0970   71.0080  226.8490 C   0  0  0  0  0  0  0  0  0  0  0  0
  140.2800   69.9060  226.9330 C   0  0  0  0  0  0  0  0  0  0  0  0
  140.3440   68.9240  228.3590 Cl  0  0  0  0  0  0  0  0  0  0  0  0
  139.4410   69.6020  225.9090 C   0  0  0  0  0  0  0  0  0  0  0  0
  139.4030   70.3930  224.7880 C   0  0  0  0  0  0  0  0  0  0  0  0
  138.2920   69.9340  223.5080 Cl  0  0  0  0  0  0  0  0  0  0  0  0
  139.8190   74.8390  222.2300 N   0  0  0  0  0  0  0  0  0  0  0  0
  140.4600   76.0060  222.3810 N   0  0  0  0  0  0  0  0  0  0  0  0
  139.9700   77.1510  222.4120 C   0  0  0  0  0  0  0  0  0  0  0  0
  140.4840   78.4260  222.8040 C   0  0  0  0  0  0  0  0  0  0  0  0
  141.8430   78.6470  222.5450 C   0  0  0  0  0  0  0  0  0  0  0  0
  142.4290   79.8380  222.8860 C   0  0  0  0  0  0  0  0  0  0  0  0
  141.7530   80.8730  223.4850 C   0  0  0  0  0  0  0  0  0  0  0  0
  140.4510   80.6540  223.7290 N   0  0  0  0  0  0  0  0  0  0  0  0
  139.8330   79.4690  223.4000 C   0  0  0  0  0  0  0  0  0  0  0  0
  138.5470   79.4270  223.7140 F   0  0  0  0  0  0  0  0  0  0  0  0
  137.9956   73.1070  221.3586 H   0  0  0  0  0  0  0  0  0  0  0  0
  138.7021   72.9434  219.6702 H   0  0  0  0  0  0  0  0  0  0  0  0
  138.9973   71.0893  221.5182 H   0  0  0  0  0  0  0  0  0  0  0  0
  140.2763   71.5376  220.2825 H   0  0  0  0  0  0  0  0  0  0  0  0
  141.4182   71.2879  222.2814 H   0  0  0  0  0  0  0  0  0  0  0  0
  141.1982   73.0724  222.0341 H   0  0  0  0  0  0  0  0  0  0  0  0
  141.7041   72.6764  225.6416 H   0  0  0  0  0  0  0  0  0  0  0  0
  141.7794   71.2626  227.6733 H   0  0  0  0  0  0  0  0  0  0  0  0
  138.7895   68.7184  225.9784 H   0  0  0  0  0  0  0  0  0  0  0  0
  139.4360   74.2950  223.0630 H   0  0  0  0  0  0  0  0  0  0  0  0
  138.9264   77.1886  222.0664 H   0  0  0  0  0  0  0  0  0  0  0  0
  142.4432   77.8599  222.0651 H   0  0  0  0  0  0  0  0  0  0  0  0
  143.4988   79.9725  222.6682 H   0  0  0  0  0  0  0  0  0  0  0  0
  142.2466   81.8202  223.7478 H   0  0  0  0  0  0  0  0  0  0  0  0
  1  2  2  0
  2  3  1  0
  3  4  1  0
  4  5  1  0
  5  6  1  0
  6  7  1  0
  7  8  2  0
  8  9  1  0
  9 10  2  0
 10 11  1  0
 10 12  1  0
 12 13  2  0
 13 14  1  0
  2 15  1  0
 15 16  1  0
 16 17  2  0
 17 18  1  0
 18 19  2  0
 19 20  1  0
 20 21  2  0
 21 22  1  0
 22 23  2  0
 23 24  1  0
 13  7  1  0
 23 18  1  0
  3 25  1  0
  3 26  1  0
  4 27  1  0
  4 28  1  0
  5 29  1  0
  5 30  1  0
  8 31  1  0
  9 32  1  0
 12 33  1  0
 15 34  1  0
 17 35  1  0
 19 36  1  0
 20 37  1  0
 21 38  1  0
M  END
>  <smiles>  (93) 
O=C(CCCOc1ccc(Cl)cc1Cl)NN=Cc1cccnc1F

>  <score_type>  (93) 
oracle

>  <origin>  (93) 
autodockgpu

>  <m_score__min__energy>  (93) 
-7.4199999999999999

>  <m_primary>  (93) 
energy

>  <rmsd>  (93) 
12.223485536315005

>  <m_score__min__rmsd>  (93) 
12.223485536315005

>  <meeko>  (93) 
{"free_energy": -6.44, "intermolecular_energy": -8.83, "internal_energy": -1.28, "cluster_size": 8, "cluster_id": 1, "rank_in_cluster": 5}

>  <energy>  (93) 
-5.42

>  <cluster_rmsd>  (93) 
1.31

>  <cluster>  (93) 
6

$$$$

     RDKit          3D

 38 39  0  0  1  0  0  0  0  0999 V2000
  139.9170   70.7190  221.2540 O   0  0  0  0  0  0  0  0  0  0  0  0
  139.7340   71.9380  221.4640 C   0  0  0  0  0  0  0  0  0  0  0  0
  139.4910   72.9770  220.4710 C   0  0  0  0  0  0  0  0  0  0  0  0
  140.7100   73.7620  220.0650 C   0  0  0  0  0  0  0  0  0  0  0  0
  141.3590   74.5220  221.1830 C   0  0  0  0  0  0  0  0  0  0  0  0
  140.4250   75.1090  222.0200 O   0  0  0  0  0  0  0  0  0  0  0  0
  140.1610   76.3920  222.3520 C   0  0  0  0  0  0  0  0  0  0  0  0
  141.0620   77.3930  222.6120 C   0  0  0  0  0  0  0  0  0  0  0  0
  140.6810   78.6900  222.9490 C   0  0  0  0  0  0  0  0  0  0  0  0
  139.3420   78.9890  223.0300 C   0  0  0  0  0  0  0  0  0  0  0  0
  138.8680   80.6020  223.4510 Cl  0  0  0  0  0  0  0  0  0  0  0  0
  138.4150   78.0280  222.7830 C   0  0  0  0  0  0  0  0  0  0  0  0
  138.8090   76.7560  222.4490 C   0  0  0  0  0  0  0  0  0  0  0  0
  137.5490   75.5700  222.1440 Cl  0  0  0  0  0  0  0  0  0  0  0  0
  139.7710   72.3390  222.8590 N   0  0  0  0  0  0  0  0  0  0  0  0
  139.9930   71.3980  223.7870 N   0  0  0  0  0  0  0  0  0  0  0  0
  139.9440   71.5180  225.0260 C   0  0  0  0  0  0  0  0  0  0  0  0
  140.3000   70.6530  226.1080 C   0  0  0  0  0  0  0  0  0  0  0  0
  140.0690   69.2860  225.9040 C   0  0  0  0  0  0  0  0  0  0  0  0
  140.3780   68.3780  226.8840 C   0  0  0  0  0  0  0  0  0  0  0  0
  140.9190   68.7250  228.0970 C   0  0  0  0  0  0  0  0  0  0  0  0
  141.1370   70.0360  228.2840 N   0  0  0  0  0  0  0  0  0  0  0  0
  140.8390   70.9740  227.3220 C   0  0  0  0  0  0  0  0  0  0  0  0
  141.1200   72.2180  227.6760 F   0  0  0  0  0  0  0  0  0  0  0  0
  139.0764   72.4995  219.5709 H   0  0  0  0  0  0  0  0  0  0  0  0
  138.8020   73.6960  220.9383 H   0  0  0  0  0  0  0  0  0  0  0  0
  141.4492   73.0600  219.6519 H   0  0  0  0  0  0  0  0  0  0  0  0
  140.3719   74.5097  219.3324 H   0  0  0  0  0  0  0  0  0  0  0  0
  141.9779   73.8289  221.7717 H   0  0  0  0  0  0  0  0  0  0  0  0
  141.9704   75.3224  220.7407 H   0  0  0  0  0  0  0  0  0  0  0  0
  142.1355   77.1609  222.5516 H   0  0  0  0  0  0  0  0  0  0  0  0
  141.4393   79.4619  223.1470 H   0  0  0  0  0  0  0  0  0  0  0  0
  137.3440   78.2697  222.8508 H   0  0  0  0  0  0  0  0  0  0  0  0
  139.6590   73.3680  223.1150 H   0  0  0  0  0  0  0  0  0  0  0  0
  139.5450   72.4886  225.3556 H   0  0  0  0  0  0  0  0  0  0  0  0
  139.6377   68.9397  224.9532 H   0  0  0  0  0  0  0  0  0  0  0  0
  140.1817   67.3137  226.6875 H   0  0  0  0  0  0  0  0  0  0  0  0
  141.1585   67.9764  228.8665 H   0  0  0  0  0  0  0  0  0  0  0  0
  1  2  2  0
  2  3  1  0
  3  4  1  0
  4  5  1  0
  5  6  1  0
  6  7  1  0
  7  8  2  0
  8  9  1  0
  9 10  2  0
 10 11  1  0
 10 12  1  0
 12 13  2  0
 13 14  1  0
  2 15  1  0
 15 16  1  0
 16 17  2  0
 17 18  1  0
 18 19  2  0
 19 20  1  0
 20 21  2  0
 21 22  1  0
 22 23  2  0
 23 24  1  0
 13  7  1  0
 23 18  1  0
  3 25  1  0
  3 26  1  0
  4 27  1  0
  4 28  1  0
  5 29  1  0
  5 30  1  0
  8 31  1  0
  9 32  1  0
 12 33  1  0
 15 34  1  0
 17 35  1  0
 19 36  1  0
 20 37  1  0
 21 38  1  0
M  END
>  <smiles>  (94) 
O=C(CCCOc1ccc(Cl)cc1Cl)NN=Cc1cccnc1F

>  <score_type>  (94) 
oracle

>  <origin>  (94) 
autodockgpu

>  <m_score__min__energy>  (94) 
-7.4199999999999999

>  <m_primary>  (94) 
energy

>  <rmsd>  (94) 
7.273017107283203

>  <m_score__min__rmsd>  (94) 
7.273017107283203

>  <meeko>  (94) 
{"free_energy": -6.17, "intermolecular_energy": -8.56, "internal_energy": -1.56, "cluster_size": 18, "cluster_id": 2, "rank_in_cluster": 14}

>  <energy>  (94) 
-5.69

>  <cluster_rmsd>  (94) 
0.0

>  <cluster>  (94) 
7

$$$$

     RDKit          3D

 38 39  0  0  1  0  0  0  0  0999 V2000
  138.0050   70.5000  221.4930 O   0  0  0  0  0  0  0  0  0  0  0  0
  138.0990   71.7070  221.8060 C   0  0  0  0  0  0  0  0  0  0  0  0
  137.3800   72.8300  221.2190 C   0  0  0  0  0  0  0  0  0  0  0  0
  137.5570   74.1410  221.9380 C   0  0  0  0  0  0  0  0  0  0  0  0
  138.7000   74.9720  221.4390 C   0  0  0  0  0  0  0  0  0  0  0  0
  139.9040   74.5910  222.0060 O   0  0  0  0  0  0  0  0  0  0  0  0
  141.0850   74.1940  221.4820 C   0  0  0  0  0  0  0  0  0  0  0  0
  141.6010   72.9240  221.4430 C   0  0  0  0  0  0  0  0  0  0  0  0
  142.8380   72.6220  220.8780 C   0  0  0  0  0  0  0  0  0  0  0  0
  143.5840   73.6400  220.3330 C   0  0  0  0  0  0  0  0  0  0  0  0
  145.1240   73.2640  219.6300 Cl  0  0  0  0  0  0  0  0  0  0  0  0
  143.1130   74.9130  220.3510 C   0  0  0  0  0  0  0  0  0  0  0  0
  141.8910   75.1910  220.9110 C   0  0  0  0  0  0  0  0  0  0  0  0
  141.3530   76.8630  220.8950 Cl  0  0  0  0  0  0  0  0  0  0  0  0
  139.0350   71.9970  222.8780 N   0  0  0  0  0  0  0  0  0  0  0  0
  139.7060   70.9780  223.4320 N   0  0  0  0  0  0  0  0  0  0  0  0
  139.4960   70.4300  224.5300 C   0  0  0  0  0  0  0  0  0  0  0  0
  140.0350   70.6230  225.8410 C   0  0  0  0  0  0  0  0  0  0  0  0
  140.6700   71.8510  226.0680 C   0  0  0  0  0  0  0  0  0  0  0  0
  141.2190   72.1300  227.2930 C   0  0  0  0  0  0  0  0  0  0  0  0
  141.1900   71.2600  228.3540 C   0  0  0  0  0  0  0  0  0  0  0  0
  140.5800   70.0860  228.1280 N   0  0  0  0  0  0  0  0  0  0  0  0
  140.0180   69.7740  226.9110 C   0  0  0  0  0  0  0  0  0  0  0  0
  139.4580   68.5750  226.8660 F   0  0  0  0  0  0  0  0  0  0  0  0
  137.7312   72.9575  220.1844 H   0  0  0  0  0  0  0  0  0  0  0  0
  136.3106   72.5819  221.2881 H   0  0  0  0  0  0  0  0  0  0  0  0
  136.6316   74.7243  221.8225 H   0  0  0  0  0  0  0  0  0  0  0  0
  137.7817   73.8959  222.9865 H   0  0  0  0  0  0  0  0  0  0  0  0
  138.7704   74.8600  220.3470 H   0  0  0  0  0  0  0  0  0  0  0  0
  138.5079   76.0180  221.7199 H   0  0  0  0  0  0  0  0  0  0  0  0
  141.0100   72.1048  221.8786 H   0  0  0  0  0  0  0  0  0  0  0  0
  143.2112   71.5873  220.8681 H   0  0  0  0  0  0  0  0  0  0  0  0
  143.7132   75.7252  219.9150 H   0  0  0  0  0  0  0  0  0  0  0  0
  139.1970   73.0080  223.1770 H   0  0  0  0  0  0  0  0  0  0  0  0
  138.7397   69.6326  224.4822 H   0  0  0  0  0  0  0  0  0  0  0  0
  140.7284   72.5948  225.2597 H   0  0  0  0  0  0  0  0  0  0  0  0
  141.7096   73.1045  227.4331 H   0  0  0  0  0  0  0  0  0  0  0  0
  141.6380   71.5089  229.3273 H   0  0  0  0  0  0  0  0  0  0  0  0
  1  2  2  0
  2  3  1  0
  3  4  1  0
  4  5  1  0
  5  6  1  0
  6  7  1  0
  7  8  2  0
  8  9  1  0
  9 10  2  0
 10 11  1  0
 10 12  1  0
 12 13  2  0
 13 14  1  0
  2 15  1  0
 15 16  1  0
 16 17  2  0
 17 18  1  0
 18 19  2  0
 19 20  1  0
 20 21  2  0
 21 22  1  0
 22 23  2  0
 23 24  1  0
 13  7  1  0
 23 18  1  0
  3 25  1  0
  3 26  1  0
  4 27  1  0
  4 28  1  0
  5 29  1  0
  5 30  1  0
  8 31  1  0
  9 32  1  0
 12 33  1  0
 15 34  1  0
 17 35  1  0
 19 36  1  0
 20 37  1  0
 21 38  1  0
M  END
>  <smiles>  (95) 
O=C(CCCOc1ccc(Cl)cc1Cl)NN=Cc1cccnc1F

>  <score_type>  (95) 
oracle

>  <origin>  (95) 
autodockgpu

>  <m_score__min__energy>  (95) 
-7.4199999999999999

>  <m_primary>  (95) 
energy

>  <rmsd>  (95) 
8.795495229034735

>  <m_score__min__rmsd>  (95) 
8.795495229034735

>  <meeko>  (95) 
{"free_energy": -5.8, "intermolecular_energy": -8.18, "internal_energy": -1.68, "cluster_size": 4, "cluster_id": 5, "rank_in_cluster": 4}

>  <energy>  (95) 
-5.49

>  <cluster_rmsd>  (95) 
0.0

>  <cluster>  (95) 
8

$$$$

     RDKit          3D

 38 39  0  0  1  0  0  0  0  0999 V2000
  138.6440   70.2310  221.4210 O   0  0  0  0  0  0  0  0  0  0  0  0
  138.3910   71.4310  221.6620 C   0  0  0  0  0  0  0  0  0  0  0  0
  137.6250   72.3540  220.8350 C   0  0  0  0  0  0  0  0  0  0  0  0
  138.3860   73.5660  220.3670 C   0  0  0  0  0  0  0  0  0  0  0  0
  138.6980   74.5570  221.4470 C   0  0  0  0  0  0  0  0  0  0  0  0
  139.9560   74.3530  221.9900 O   0  0  0  0  0  0  0  0  0  0  0  0
  141.1380   73.9710  221.4590 C   0  0  0  0  0  0  0  0  0  0  0  0
  141.6710   72.7080  221.4200 C   0  0  0  0  0  0  0  0  0  0  0  0
  142.9080   72.4220  220.8460 C   0  0  0  0  0  0  0  0  0  0  0  0
  143.6360   73.4480  220.2930 C   0  0  0  0  0  0  0  0  0  0  0  0
  145.1760   73.0920  219.5810 Cl  0  0  0  0  0  0  0  0  0  0  0  0
  143.1480   74.7150  220.3110 C   0  0  0  0  0  0  0  0  0  0  0  0
  141.9260   74.9770  220.8790 C   0  0  0  0  0  0  0  0  0  0  0  0
  141.3650   76.6410  220.8620 Cl  0  0  0  0  0  0  0  0  0  0  0  0
  138.9310   71.9390  222.9100 N   0  0  0  0  0  0  0  0  0  0  0  0
  139.6380   71.1050  223.6850 N   0  0  0  0  0  0  0  0  0  0  0  0
  140.3680   71.3930  224.6530 C   0  0  0  0  0  0  0  0  0  0  0  0
  140.5820   70.7890  225.9310 C   0  0  0  0  0  0  0  0  0  0  0  0
  140.4300   69.3970  225.9860 C   0  0  0  0  0  0  0  0  0  0  0  0
  140.6140   68.7260  227.1670 C   0  0  0  0  0  0  0  0  0  0  0  0
  140.9510   69.3430  228.3470 C   0  0  0  0  0  0  0  0  0  0  0  0
  141.0960   70.6760  228.2860 N   0  0  0  0  0  0  0  0  0  0  0  0
  140.9180   71.3800  227.1160 C   0  0  0  0  0  0  0  0  0  0  0  0
  141.1010   72.6860  227.2400 F   0  0  0  0  0  0  0  0  0  0  0  0
  137.2740   71.8070  219.9475 H   0  0  0  0  0  0  0  0  0  0  0  0
  136.8064   72.7285  221.4672 H   0  0  0  0  0  0  0  0  0  0  0  0
  139.3353   73.2271  219.9265 H   0  0  0  0  0  0  0  0  0  0  0  0
  137.7380   74.0834  219.6442 H   0  0  0  0  0  0  0  0  0  0  0  0
  138.6545   75.5708  221.0223 H   0  0  0  0  0  0  0  0  0  0  0  0
  137.9565   74.4300  222.2496 H   0  0  0  0  0  0  0  0  0  0  0  0
  141.0950   71.8820  221.8626 H   0  0  0  0  0  0  0  0  0  0  0  0
  143.2952   71.3925  220.8357 H   0  0  0  0  0  0  0  0  0  0  0  0
  143.7339   75.5343  219.8689 H   0  0  0  0  0  0  0  0  0  0  0  0
  138.7870   72.9640  223.1680 H   0  0  0  0  0  0  0  0  0  0  0  0
  140.9719   72.2980  224.4908 H   0  0  0  0  0  0  0  0  0  0  0  0
  140.1615   68.8397  225.0764 H   0  0  0  0  0  0  0  0  0  0  0  0
  140.4847   67.6336  227.1699 H   0  0  0  0  0  0  0  0  0  0  0  0
  141.0929   68.7809  229.2818 H   0  0  0  0  0  0  0  0  0  0  0  0
  1  2  2  0
  2  3  1  0
  3  4  1  0
  4  5  1  0
  5  6  1  0
  6  7  1  0
  7  8  2  0
  8  9  1  0
  9 10  2  0
 10 11  1  0
 10 12  1  0
 12 13  2  0
 13 14  1  0
  2 15  1  0
 15 16  1  0
 16 17  2  0
 17 18  1  0
 18 19  2  0
 19 20  1  0
 20 21  2  0
 21 22  1  0
 22 23  2  0
 23 24  1  0
 13  7  1  0
 23 18  1  0
  3 25  1  0
  3 26  1  0
  4 27  1  0
  4 28  1  0
  5 29  1  0
  5 30  1  0
  8 31  1  0
  9 32  1  0
 12 33  1  0
 15 34  1  0
 17 35  1  0
 19 36  1  0
 20 37  1  0
 21 38  1  0
M  END
>  <smiles>  (96) 
O=C(CCCOc1ccc(Cl)cc1Cl)NN=Cc1cccnc1F

>  <score_type>  (96) 
oracle

>  <origin>  (96) 
autodockgpu

>  <m_score__min__energy>  (96) 
-7.4199999999999999

>  <m_primary>  (96) 
energy

>  <rmsd>  (96) 
9.089820324774253

>  <m_score__min__rmsd>  (96) 
9.089820324774253

>  <meeko>  (96) 
{"free_energy": -5.99, "intermolecular_energy": -8.38, "internal_energy": -1.72, "cluster_size": 4, "cluster_id": 5, "rank_in_cluster": 3}

>  <energy>  (96) 
-5.28

>  <cluster_rmsd>  (96) 
0.0

>  <cluster>  (96) 
9

$$$$

     RDKit          3D

 38 39  0  0  1  0  0  0  0  0999 V2000
  137.0190   71.8110  220.5650 O   0  0  0  0  0  0  0  0  0  0  0  0
  137.8160   72.4070  221.3210 C   0  0  0  0  0  0  0  0  0  0  0  0
  139.0600   73.0680  220.9470 C   0  0  0  0  0  0  0  0  0  0  0  0
  140.2890   72.2020  221.0370 C   0  0  0  0  0  0  0  0  0  0  0  0
  140.9830   72.2470  222.3650 C   0  0  0  0  0  0  0  0  0  0  0  0
  140.1040   72.0480  223.4160 O   0  0  0  0  0  0  0  0  0  0  0  0
  140.2010   71.3780  224.5850 C   0  0  0  0  0  0  0  0  0  0  0  0
  140.8210   71.7880  225.7380 C   0  0  0  0  0  0  0  0  0  0  0  0
  140.8650   71.0140  226.8950 C   0  0  0  0  0  0  0  0  0  0  0  0
  140.2630   69.7780  226.8900 C   0  0  0  0  0  0  0  0  0  0  0  0
  140.3180   68.8140  228.3300 Cl  0  0  0  0  0  0  0  0  0  0  0  0
  139.6380   69.3310  225.7700 C   0  0  0  0  0  0  0  0  0  0  0  0
  139.6040   70.1090  224.6400 C   0  0  0  0  0  0  0  0  0  0  0  0
  138.7770   69.4590  223.2330 Cl  0  0  0  0  0  0  0  0  0  0  0  0
  137.4400   72.4310  222.7230 N   0  0  0  0  0  0  0  0  0  0  0  0
  136.2990   71.8300  223.0870 N   0  0  0  0  0  0  0  0  0  0  0  0
  135.2230   72.3640  223.4180 C   0  0  0  0  0  0  0  0  0  0  0  0
  134.8710   73.3120  224.4290 C   0  0  0  0  0  0  0  0  0  0  0  0
  135.3420   74.6180  224.2370 C   0  0  0  0  0  0  0  0  0  0  0  0
  135.0580   75.5980  225.1520 C   0  0  0  0  0  0  0  0  0  0  0  0
  134.3150   75.3860  226.2870 C   0  0  0  0  0  0  0  0  0  0  0  0
  133.8670   74.1320  226.4630 N   0  0  0  0  0  0  0  0  0  0  0  0
  134.1350   73.1250  225.5650 C   0  0  0  0  0  0  0  0  0  0  0  0
  133.6150   71.9530  225.8970 F   0  0  0  0  0  0  0  0  0  0  0  0
  138.9629   73.4169  219.9083 H   0  0  0  0  0  0  0  0  0  0  0  0
  139.2046   73.8855  221.6687 H   0  0  0  0  0  0  0  0  0  0  0  0
  139.9918   71.1615  220.8393 H   0  0  0  0  0  0  0  0  0  0  0  0
  141.0028   72.5924  220.2967 H   0  0  0  0  0  0  0  0  0  0  0  0
  141.7516   71.4605  222.3910 H   0  0  0  0  0  0  0  0  0  0  0  0
  141.4311   73.2449  222.4808 H   0  0  0  0  0  0  0  0  0  0  0  0
  141.3065   72.7750  225.7493 H   0  0  0  0  0  0  0  0  0  0  0  0
  141.3728   71.3853  227.7974 H   0  0  0  0  0  0  0  0  0  0  0  0
  139.1572   68.3416  225.7687 H   0  0  0  0  0  0  0  0  0  0  0  0
  138.0870   72.8900  223.4350 H   0  0  0  0  0  0  0  0  0  0  0  0
  134.3680   72.0394  222.8068 H   0  0  0  0  0  0  0  0  0  0  0  0
  135.9427   74.8577  223.3473 H   0  0  0  0  0  0  0  0  0  0  0  0
  135.4467   76.6102  224.9669 H   0  0  0  0  0  0  0  0  0  0  0  0
  134.1006   76.1908  227.0055 H   0  0  0  0  0  0  0  0  0  0  0  0
  1  2  2  0
  2  3  1  0
  3  4  1  0
  4  5  1  0
  5  6  1  0
  6  7  1  0
  7  8  2  0
  8  9  1  0
  9 10  2  0
 10 11  1  0
 10 12  1  0
 12 13  2  0
 13 14  1  0
  2 15  1  0
 15 16  1  0
 16 17  2  0
 17 18  1  0
 18 19  2  0
 19 20  1  0
 20 21  2  0
 21 22  1  0
 22 23  2  0
 23 24  1  0
 13  7  1  0
 23 18  1  0
  3 25  1  0
  3 26  1  0
  4 27  1  0
  4 28  1  0
  5 29  1  0
  5 30  1  0
  8 31  1  0
  9 32  1  0
 12 33  1  0
 15 34  1  0
 17 35  1  0
 19 36  1  0
 20 37  1  0
 21 38  1  0
M  END
>  <smiles>  (97) 
O=C(CCCOc1ccc(Cl)cc1Cl)NN=Cc1cccnc1F

>  <score_type>  (97) 
oracle

>  <origin>  (97) 
autodockgpu

>  <m_score__min__energy>  (97) 
-7.4199999999999999

>  <m_primary>  (97) 
energy

>  <rmsd>  (97) 
12.266312368080754

>  <m_score__min__rmsd>  (97) 
12.266312368080754

>  <meeko>  (97) 
{"free_energy": -5.42, "intermolecular_energy": -7.8, "internal_energy": -1.82, "cluster_size": 5, "cluster_id": 6, "rank_in_cluster": 5}

>  <energy>  (97) 
-4.75

>  <cluster_rmsd>  (97) 
0.0

>  <cluster>  (97) 
10

$$$$

     RDKit          3D

 38 39  0  0  1  0  0  0  0  0999 V2000
  140.7640   73.7930  222.0350 O   0  0  0  0  0  0  0  0  0  0  0  0
  139.5840   73.3820  222.0710 C   0  0  0  0  0  0  0  0  0  0  0  0
  138.4470   73.9010  221.3230 C   0  0  0  0  0  0  0  0  0  0  0  0
  137.5070   74.7660  222.1200 C   0  0  0  0  0  0  0  0  0  0  0  0
  137.6330   76.2350  221.8470 C   0  0  0  0  0  0  0  0  0  0  0  0
  138.9510   76.6140  221.6560 O   0  0  0  0  0  0  0  0  0  0  0  0
  139.7120   77.6000  222.1810 C   0  0  0  0  0  0  0  0  0  0  0  0
  139.3520   78.5210  223.1310 C   0  0  0  0  0  0  0  0  0  0  0  0
  140.2190   79.5030  223.6040 C   0  0  0  0  0  0  0  0  0  0  0  0
  141.4970   79.5600  223.1000 C   0  0  0  0  0  0  0  0  0  0  0  0
  142.5750   80.7830  223.6880 Cl  0  0  0  0  0  0  0  0  0  0  0  0
  141.8950   78.6690  222.1570 C   0  0  0  0  0  0  0  0  0  0  0  0
  141.0270   77.7060  221.7040 C   0  0  0  0  0  0  0  0  0  0  0  0
  141.6190   76.5910  220.4830 Cl  0  0  0  0  0  0  0  0  0  0  0  0
  139.3450   72.2610  222.9620 N   0  0  0  0  0  0  0  0  0  0  0  0
  140.3790   71.7690  223.6580 N   0  0  0  0  0  0  0  0  0  0  0  0
  140.3690   71.2920  224.8090 C   0  0  0  0  0  0  0  0  0  0  0  0
  140.1490   69.9750  225.3210 C   0  0  0  0  0  0  0  0  0  0  0  0
  140.8620   69.6380  226.4800 C   0  0  0  0  0  0  0  0  0  0  0  0
  140.7190   68.3980  227.0460 C   0  0  0  0  0  0  0  0  0  0  0  0
  139.8930   67.4240  226.5410 C   0  0  0  0  0  0  0  0  0  0  0  0
  139.2140   67.7540  225.4320 N   0  0  0  0  0  0  0  0  0  0  0  0
  139.3350   68.9900  224.8380 C   0  0  0  0  0  0  0  0  0  0  0  0
  138.5910   69.1420  223.7530 F   0  0  0  0  0  0  0  0  0  0  0  0
  138.8335   74.4986  220.4843 H   0  0  0  0  0  0  0  0  0  0  0  0
  137.8636   73.0259  221.0008 H   0  0  0  0  0  0  0  0  0  0  0  0
  136.4766   74.4600  221.8862 H   0  0  0  0  0  0  0  0  0  0  0  0
  137.7687   74.6205  223.1785 H   0  0  0  0  0  0  0  0  0  0  0  0
  137.0581   76.4789  220.9414 H   0  0  0  0  0  0  0  0  0  0  0  0
  137.2455   76.7785  222.7214 H   0  0  0  0  0  0  0  0  0  0  0  0
  138.3310   78.4824  223.5384 H   0  0  0  0  0  0  0  0  0  0  0  0
  139.8868   80.2211  224.3682 H   0  0  0  0  0  0  0  0  0  0  0  0
  142.9172   78.7183  221.7537 H   0  0  0  0  0  0  0  0  0  0  0  0
  138.3560   71.8780  223.0730 H   0  0  0  0  0  0  0  0  0  0  0  0
  140.5709   72.0372  225.5925 H   0  0  0  0  0  0  0  0  0  0  0  0
  141.5402   70.3731  226.9378 H   0  0  0  0  0  0  0  0  0  0  0  0
  141.2971   68.1707  227.9538 H   0  0  0  0  0  0  0  0  0  0  0  0
  139.7944   66.4365  227.0154 H   0  0  0  0  0  0  0  0  0  0  0  0
  1  2  2  0
  2  3  1  0
  3  4  1  0
  4  5  1  0
  5  6  1  0
  6  7  1  0
  7  8  2  0
  8  9  1  0
  9 10  2  0
 10 11  1  0
 10 12  1  0
 12 13  2  0
 13 14  1  0
  2 15  1  0
 15 16  1  0
 16 17  2  0
 17 18  1  0
 18 19  2  0
 19 20  1  0
 20 21  2  0
 21 22  1  0
 22 23  2  0
 23 24  1  0
 13  7  1  0
 23 18  1  0
  3 25  1  0
  3 26  1  0
  4 27  1  0
  4 28  1  0
  5 29  1  0
  5 30  1  0
  8 31  1  0
  9 32  1  0
 12 33  1  0
 15 34  1  0
 17 35  1  0
 19 36  1  0
 20 37  1  0
 21 38  1  0
M  END
>  <smiles>  (98) 
O=C(CCCOc1ccc(Cl)cc1Cl)NN=Cc1cccnc1F

>  <score_type>  (98) 
oracle

>  <origin>  (98) 
autodockgpu

>  <m_score__min__energy>  (98) 
-7.4199999999999999

>  <m_primary>  (98) 
energy

>  <rmsd>  (98) 
5.760498649364279

>  <m_score__min__rmsd>  (98) 
5.760498649364279

>  <meeko>  (98) 
{"free_energy": -6.74, "intermolecular_energy": -9.13, "internal_energy": -0.83, "cluster_size": 18, "cluster_id": 2, "rank_in_cluster": 5}

>  <energy>  (98) 
-4.68

>  <cluster_rmsd>  (98) 
1.05

>  <cluster>  (98) 
10

$$$$

     RDKit          3D

 38 39  0  0  1  0  0  0  0  0999 V2000
  139.9450   73.7550  222.6800 O   0  0  0  0  0  0  0  0  0  0  0  0
  140.7400   73.0560  222.0160 C   0  0  0  0  0  0  0  0  0  0  0  0
  141.6710   73.5110  220.9910 C   0  0  0  0  0  0  0  0  0  0  0  0
  141.1450   74.6050  220.0990 C   0  0  0  0  0  0  0  0  0  0  0  0
  141.8450   75.9210  220.2530 C   0  0  0  0  0  0  0  0  0  0  0  0
  141.0890   76.8280  220.9750 O   0  0  0  0  0  0  0  0  0  0  0  0
  141.4130   77.8600  221.7860 C   0  0  0  0  0  0  0  0  0  0  0  0
  141.4190   77.8790  223.1570 C   0  0  0  0  0  0  0  0  0  0  0  0
  141.7690   79.0030  223.9010 C   0  0  0  0  0  0  0  0  0  0  0  0
  142.1260   80.1530  223.2370 C   0  0  0  0  0  0  0  0  0  0  0  0
  142.5620   81.5520  224.1630 Cl  0  0  0  0  0  0  0  0  0  0  0  0
  142.1330   80.1800  221.8800 C   0  0  0  0  0  0  0  0  0  0  0  0
  141.7860   79.0610  221.1640 C   0  0  0  0  0  0  0  0  0  0  0  0
  141.8200   79.1770  219.4120 Cl  0  0  0  0  0  0  0  0  0  0  0  0
  140.7180   71.6360  222.3180 N   0  0  0  0  0  0  0  0  0  0  0  0
  139.8700   71.1980  223.2590 N   0  0  0  0  0  0  0  0  0  0  0  0
  140.1230   70.4740  224.2410 C   0  0  0  0  0  0  0  0  0  0  0  0
  140.3250   70.7450  225.6310 C   0  0  0  0  0  0  0  0  0  0  0  0
  141.0710   71.8930  225.9310 C   0  0  0  0  0  0  0  0  0  0  0  0
  141.3190   72.2360  227.2350 C   0  0  0  0  0  0  0  0  0  0  0  0
  140.8710   71.5090  228.3100 C   0  0  0  0  0  0  0  0  0  0  0  0
  140.1580   70.4110  228.0140 N   0  0  0  0  0  0  0  0  0  0  0  0
  139.8910   70.0380  226.7160 C   0  0  0  0  0  0  0  0  0  0  0  0
  139.1740   68.9300  226.6100 F   0  0  0  0  0  0  0  0  0  0  0  0
  142.5761   73.8842  221.4925 H   0  0  0  0  0  0  0  0  0  0  0  0
  141.8607   72.6453  220.3394 H   0  0  0  0  0  0  0  0  0  0  0  0
  141.2529   74.2784  219.0542 H   0  0  0  0  0  0  0  0  0  0  0  0
  140.0976   74.7711  220.3910 H   0  0  0  0  0  0  0  0  0  0  0  0
  142.7986   75.7571  220.7763 H   0  0  0  0  0  0  0  0  0  0  0  0
  142.0094   76.3384  219.2487 H   0  0  0  0  0  0  0  0  0  0  0  0
  141.1338   76.9628  223.6948 H   0  0  0  0  0  0  0  0  0  0  0  0
  141.7600   78.9714  225.0005 H   0  0  0  0  0  0  0  0  0  0  0  0
  142.4178   81.1019  221.3518 H   0  0  0  0  0  0  0  0  0  0  0  0
  141.3430   70.9700  221.7690 H   0  0  0  0  0  0  0  0  0  0  0  0
  140.2086   69.4072  223.9868 H   0  0  0  0  0  0  0  0  0  0  0  0
  141.4594   72.5218  225.1163 H   0  0  0  0  0  0  0  0  0  0  0  0
  141.9092   73.1434  227.4307 H   0  0  0  0  0  0  0  0  0  0  0  0
  141.0828   71.8072  229.3474 H   0  0  0  0  0  0  0  0  0  0  0  0
  1  2  2  0
  2  3  1  0
  3  4  1  0
  4  5  1  0
  5  6  1  0
  6  7  1  0
  7  8  2  0
  8  9  1  0
  9 10  2  0
 10 11  1  0
 10 12  1  0
 12 13  2  0
 13 14  1  0
  2 15  1  0
 15 16  1  0
 16 17  2  0
 17 18  1  0
 18 19  2  0
 19 20  1  0
 20 21  2  0
 21 22  1  0
 22 23  2  0
 23 24  1  0
 13  7  1  0
 23 18  1  0
  3 25  1  0
  3 26  1  0
  4 27  1  0
  4 28  1  0
  5 29  1  0
  5 30  1  0
  8 31  1  0
  9 32  1  0
 12 33  1  0
 15 34  1  0
 17 35  1  0
 19 36  1  0
 20 37  1  0
 21 38  1  0
M  END
>  <smiles>  (99) 
O=C(CCCOc1ccc(Cl)cc1Cl)NN=Cc1cccnc1F

>  <score_type>  (99) 
oracle

>  <origin>  (99) 
autodockgpu

>  <m_score__min__energy>  (99) 
-7.4199999999999999

>  <m_primary>  (99) 
energy

>  <rmsd>  (99) 
6.122788786956335

>  <m_score__min__rmsd>  (99) 
6.122788786956335

>  <meeko>  (99) 
{"free_energy": -6.81, "intermolecular_energy": -9.2, "internal_energy": -0.68, "cluster_size": 5, "cluster_id": 3, "rank_in_cluster": 1}

>  <energy>  (99) 
-4.54

>  <cluster_rmsd>  (99) 
0.34

>  <cluster>  (99) 
10

$$$$

     RDKit          3D

 38 39  0  0  1  0  0  0  0  0999 V2000
  139.9930   73.8980  222.3440 O   0  0  0  0  0  0  0  0  0  0  0  0
  140.8800   73.1660  221.8530 C   0  0  0  0  0  0  0  0  0  0  0  0
  141.7960   73.4970  220.7690 C   0  0  0  0  0  0  0  0  0  0  0  0
  141.2100   74.3650  219.6870 C   0  0  0  0  0  0  0  0  0  0  0  0
  141.7100   75.7780  219.6870 C   0  0  0  0  0  0  0  0  0  0  0  0
  140.9040   76.6120  220.4440 O   0  0  0  0  0  0  0  0  0  0  0  0
  141.1700   77.6180  221.3060 C   0  0  0  0  0  0  0  0  0  0  0  0
  141.0650   77.6000  222.6740 C   0  0  0  0  0  0  0  0  0  0  0  0
  141.3650   78.7000  223.4740 C   0  0  0  0  0  0  0  0  0  0  0  0
  141.7840   79.8630  222.8730 C   0  0  0  0  0  0  0  0  0  0  0  0
  142.1560   81.2320  223.8690 Cl  0  0  0  0  0  0  0  0  0  0  0  0
  141.9010   79.9260  221.5220 C   0  0  0  0  0  0  0  0  0  0  0  0
  141.6040   78.8310  220.7500 C   0  0  0  0  0  0  0  0  0  0  0  0
  141.7800   78.9930  219.0100 Cl  0  0  0  0  0  0  0  0  0  0  0  0
  140.9900   71.8440  222.4440 N   0  0  0  0  0  0  0  0  0  0  0  0
  140.1570   71.5210  223.4420 N   0  0  0  0  0  0  0  0  0  0  0  0
  140.3180   71.7030  224.6640 C   0  0  0  0  0  0  0  0  0  0  0  0
  140.4610   70.8150  225.7750 C   0  0  0  0  0  0  0  0  0  0  0  0
  140.2080   69.4610  225.5170 C   0  0  0  0  0  0  0  0  0  0  0  0
  140.3180   68.5320  226.5190 C   0  0  0  0  0  0  0  0  0  0  0  0
  140.6740   68.8440  227.8080 C   0  0  0  0  0  0  0  0  0  0  0  0
  140.9160   70.1430  228.0470 N   0  0  0  0  0  0  0  0  0  0  0  0
  140.8140   71.1010  227.0640 C   0  0  0  0  0  0  0  0  0  0  0  0
  141.0880   72.3290  227.4770 F   0  0  0  0  0  0  0  0  0  0  0  0
  142.6595   74.0247  221.2003 H   0  0  0  0  0  0  0  0  0  0  0  0
  142.0636   72.5440  220.2892 H   0  0  0  0  0  0  0  0  0  0  0  0
  141.4544   73.9137  218.7140 H   0  0  0  0  0  0  0  0  0  0  0  0
  140.1277   74.4153  219.8771 H   0  0  0  0  0  0  0  0  0  0  0  0
  142.7284   75.7947  220.1026 H   0  0  0  0  0  0  0  0  0  0  0  0
  141.6985   76.1432  218.6495 H   0  0  0  0  0  0  0  0  0  0  0  0
  140.7281   76.6734  223.1617 H   0  0  0  0  0  0  0  0  0  0  0  0
  141.2683   78.6390  224.5680 H   0  0  0  0  0  0  0  0  0  0  0  0
  142.2353   80.8587  221.0441 H   0  0  0  0  0  0  0  0  0  0  0  0
  141.7000   71.1500  222.0540 H   0  0  0  0  0  0  0  0  0  0  0  0
  140.3584   72.7655  224.9459 H   0  0  0  0  0  0  0  0  0  0  0  0
  139.9195   69.1418  224.5046 H   0  0  0  0  0  0  0  0  0  0  0  0
  140.1097   67.4793  226.2773 H   0  0  0  0  0  0  0  0  0  0  0  0
  140.7557   68.0790  228.5942 H   0  0  0  0  0  0  0  0  0  0  0  0
  1  2  2  0
  2  3  1  0
  3  4  1  0
  4  5  1  0
  5  6  1  0
  6  7  1  0
  7  8  2  0
  8  9  1  0
  9 10  2  0
 10 11  1  0
 10 12  1  0
 12 13  2  0
 13 14  1  0
  2 15  1  0
 15 16  1  0
 16 17  2  0
 17 18  1  0
 18 19  2  0
 19 20  1  0
 20 21  2  0
 21 22  1  0
 22 23  2  0
 23 24  1  0
 13  7  1  0
 23 18  1  0
  3 25  1  0
  3 26  1  0
  4 27  1  0
  4 28  1  0
  5 29  1  0
  5 30  1  0
  8 31  1  0
  9 32  1  0
 12 33  1  0
 15 34  1  0
 17 35  1  0
 19 36  1  0
 20 37  1  0
 21 38  1  0
M  END
>  <smiles>  (100) 
O=C(CCCOc1ccc(Cl)cc1Cl)NN=Cc1cccnc1F

>  <score_type>  (100) 
oracle

>  <origin>  (100) 
autodockgpu

>  <m_score__min__energy>  (100) 
-7.4199999999999999

>  <m_primary>  (100) 
energy

>  <rmsd>  (100) 
6.080128593368392

>  <m_score__min__rmsd>  (100) 
6.080128593368392

>  <meeko>  (100) 
{"free_energy": -6.69, "intermolecular_energy": -9.08, "internal_energy": -0.6, "cluster_size": 5, "cluster_id": 3, "rank_in_cluster": 3}

>  <energy>  (100) 
-4.43

>  <cluster_rmsd>  (100) 
1.99

>  <cluster>  (100) 
10

$$$$
