
 77 83  0  0  0  0  0  0  0  0999 V2000
  140.3200   67.3410  226.5170 C   0  0  0  0  0  0  0  0  0  0  0  0
  141.0960   68.2680  227.2200 C   0  0  0  0  0  0  0  0  0  0  0  0
  141.0370   69.5810  226.7870 C   0  0  0  0  0  0  0  0  0  0  0  0
  140.2610   69.9700  225.7240 C   0  0  0  0  0  0  0  0  0  0  0  0
  139.4960   69.0630  225.0280 C   0  0  0  0  0  0  0  0  0  0  0  0
  139.5460   67.7490  225.4500 C   0  0  0  0  0  0  0  0  0  0  0  0
  138.6350   69.4050  223.8710 C   0  0  0  0  0  0  0  0  0  0  0  0
  138.3590   70.8890  223.9160 C   0  0  0  0  0  0  0  0  0  0  0  0
  139.6530   71.5550  224.0590 N   0  0  0  0  0  0  0  0  0  0  0  0
  140.2200   72.2660  222.9720 C   0  0  0  0  0  0  0  0  0  0  0  0
  141.1120   71.6300  222.1960 N   0  0  0  0  0  0  0  0  0  0  0  0
  141.6910   72.2610  221.1420 C   0  0  0  0  0  0  0  0  0  0  0  0
  142.6400   71.6210  220.3020 N   0  0  0  0  0  0  0  0  0  0  0  0
  142.2270   71.0780  219.0150 C   0  0  0  0  0  0  0  0  0  0  0  0
  143.2900   71.2840  217.9640 C   0  0  0  0  0  0  0  0  0  0  0  0
  144.6180   70.9830  218.4880 N   0  0  0  0  0  0  0  0  0  0  0  0
  144.8040   69.6090  218.7850 C   0  0  0  0  0  0  0  0  0  0  0  0
  144.4540   68.7110  217.6000 C   0  0  0  0  0  0  0  0  0  0  0  0
  144.6700   67.2770  217.9850 C   0  0  0  0  0  0  0  0  0  0  0  0
  145.9680   66.9720  218.6420 C   0  0  0  0  0  0  0  0  0  0  0  0
  146.3160   67.9410  219.7410 C   0  0  0  0  0  0  0  0  0  0  0  0
  146.2510   69.3300  219.0890 C   0  0  0  0  0  0  0  0  0  0  0  0
  144.9080   71.8270  219.6070 C   0  0  0  0  0  0  0  0  0  0  0  0
  144.0100   71.5410  220.7880 C   0  0  0  0  0  0  0  0  0  0  0  0
  141.3250   73.5460  220.9180 N   0  0  0  0  0  0  0  0  0  0  0  0
  140.4300   74.2070  221.6820 C   0  0  0  0  0  0  0  0  0  0  0  0
  140.0870   75.5520  221.3960 N   0  0  0  0  0  0  0  0  0  0  0  0
  138.7420   75.9410  221.1270 C   0  0  0  0  0  0  0  0  0  0  0  0
  138.3620   77.3190  221.5260 C   0  0  0  0  0  0  0  0  0  0  0  0
  139.4230   77.9940  222.2900 C   0  0  0  0  0  0  0  0  0  0  0  0
  139.0360   79.0500  223.1130 C   0  0  0  0  0  0  0  0  0  0  0  0
  139.9870   79.7470  223.8680 C   0  0  0  0  0  0  0  0  0  0  0  0
  141.3130   79.4120  223.8170 C   0  0  0  0  0  0  0  0  0  0  0  0
  141.7020   78.3730  223.0090 C   0  0  0  0  0  0  0  0  0  0  0  0
  140.7560   77.6920  222.2690 C   0  0  0  0  0  0  0  0  0  0  0  0
  141.1610   76.5460  221.3810 C   0  0  0  0  0  0  0  0  0  0  0  0
  139.8840   73.5400  222.7150 N   0  0  0  0  0  0  0  0  0  0  0  0
  140.2870   71.4310  225.3590 C   0  0  0  0  0  0  0  0  0  0  0  0
  140.3267   66.2824  226.8158 H   0  0  0  0  0  0  0  0  0  0  0  0
  141.7215   67.9686  228.0739 H   0  0  0  0  0  0  0  0  0  0  0  0
  141.6336   70.3403  227.3138 H   0  0  0  0  0  0  0  0  0  0  0  0
  138.9456   66.9986  224.9148 H   0  0  0  0  0  0  0  0  0  0  0  0
  139.1509   69.1497  222.9336 H   0  0  0  0  0  0  0  0  0  0  0  0
  137.6924   68.8399  223.9164 H   0  0  0  0  0  0  0  0  0  0  0  0
  137.8679   71.2113  222.9860 H   0  0  0  0  0  0  0  0  0  0  0  0
  137.6906   71.1411  224.7525 H   0  0  0  0  0  0  0  0  0  0  0  0
  142.0371   70.0002  219.1256 H   0  0  0  0  0  0  0  0  0  0  0  0
  141.3158   71.6038  218.6936 H   0  0  0  0  0  0  0  0  0  0  0  0
  143.0830   70.6220  217.1103 H   0  0  0  0  0  0  0  0  0  0  0  0
  143.2704   72.3386  217.6520 H   0  0  0  0  0  0  0  0  0  0  0  0
  144.1469   69.3952  219.6409 H   0  0  0  0  0  0  0  0  0  0  0  0
  143.4004   68.8625  217.3226 H   0  0  0  0  0  0  0  0  0  0  0  0
  145.0961   68.9637  216.7433 H   0  0  0  0  0  0  0  0  0  0  0  0
  143.8653   66.9885  218.6773 H   0  0  0  0  0  0  0  0  0  0  0  0
  144.6726   66.7115  217.0415 H   0  0  0  0  0  0  0  0  0  0  0  0
  145.9140   65.9606  219.0712 H   0  0  0  0  0  0  0  0  0  0  0  0
  146.7513   67.0522  217.8738 H   0  0  0  0  0  0  0  0  0  0  0  0
  145.5904   67.8671  220.5644 H   0  0  0  0  0  0  0  0  0  0  0  0
  147.3069   67.7352  220.1719 H   0  0  0  0  0  0  0  0  0  0  0  0
  146.6447   70.0899  219.7800 H   0  0  0  0  0  0  0  0  0  0  0  0
  146.8567   69.3604  218.1713 H   0  0  0  0  0  0  0  0  0  0  0  0
  145.9531   71.6662  219.9100 H   0  0  0  0  0  0  0  0  0  0  0  0
  144.7356   72.8683  219.2971 H   0  0  0  0  0  0  0  0  0  0  0  0
  144.2135   70.5351  221.1839 H   0  0  0  0  0  0  0  0  0  0  0  0
  144.1839   72.2618  221.6005 H   0  0  0  0  0  0  0  0  0  0  0  0
  138.5772   75.8487  220.0433 H   0  0  0  0  0  0  0  0  0  0  0  0
  138.1168   75.2758  221.7408 H   0  0  0  0  0  0  0  0  0  0  0  0
  138.1528   77.9046  220.6186 H   0  0  0  0  0  0  0  0  0  0  0  0
  137.4754   77.2485  222.1733 H   0  0  0  0  0  0  0  0  0  0  0  0
  137.9759   79.3379  223.1698 H   0  0  0  0  0  0  0  0  0  0  0  0
  139.6631   80.5774  224.5127 H   0  0  0  0  0  0  0  0  0  0  0  0
  142.0537   79.9655  224.4129 H   0  0  0  0  0  0  0  0  0  0  0  0
  142.7619   78.0843  222.9513 H   0  0  0  0  0  0  0  0  0  0  0  0
  141.3183   76.9084  220.3544 H   0  0  0  0  0  0  0  0  0  0  0  0
  142.0977   76.0977  221.7438 H   0  0  0  0  0  0  0  0  0  0  0  0
  141.3258   71.7893  225.3084 H   0  0  0  0  0  0  0  0  0  0  0  0
  139.7585   72.0334  226.1126 H   0  0  0  0  0  0  0  0  0  0  0  0
  1  2  2  0
  2  3  1  0
  3  4  2  0
  4  5  1  0
  5  6  2  0
  5  7  1  0
  7  8  1  0
  8  9  1  0
  9 10  1  0
 10 11  2  0
 11 12  1  0
 12 13  1  0
 13 14  1  0
 14 15  1  0
 15 16  1  0
 16 17  1  0
 17 18  1  0
 18 19  1  0
 19 20  1  0
 20 21  1  0
 21 22  1  0
 16 23  1  0
 23 24  1  0
 12 25  2  0
 25 26  1  0
 26 27  1  0
 27 28  1  0
 28 29  1  0
 29 30  1  0
 30 31  2  0
 31 32  1  0
 32 33  2  0
 33 34  1  0
 34 35  2  0
 35 36  1  0
 26 37  2  0
  9 38  1  0
  6  1  1  0
 37 10  1  0
 38  4  1  0
 24 13  1  0
 36 27  1  0
 22 17  1  0
 35 30  1  0
  1 39  1  0
  2 40  1  0
  3 41  1  0
  6 42  1  0
  7 43  1  0
  7 44  1  0
  8 45  1  0
  8 46  1  0
 14 47  1  0
 14 48  1  0
 15 49  1  0
 15 50  1  0
 17 51  1  0
 18 52  1  0
 18 53  1  0
 19 54  1  0
 19 55  1  0
 20 56  1  0
 20 57  1  0
 21 58  1  0
 21 59  1  0
 22 60  1  0
 22 61  1  0
 23 62  1  0
 23 63  1  0
 24 64  1  0
 24 65  1  0
 28 66  1  0
 28 67  1  0
 29 68  1  0
 29 69  1  0
 31 70  1  0
 32 71  1  0
 33 72  1  0
 34 73  1  0
 36 74  1  0
 36 75  1  0
 38 76  1  0
 38 77  1  0
M  END
