@<TRIPOS>MOLECULE
*****
 77 82 0 0 0
SMALL
GASTEIGER

@<TRIPOS>ATOM
      1 C         142.4550   74.0990  217.5170 C.3     1  UNL1       -0.0452
      2 C         143.4190   73.2360  218.2680 C.3     1  UNL1        0.0361
      3 C         144.8650   73.4840  217.8180 C.3     1  UNL1        0.0177
      4 N         145.6640   72.4120  218.3390 N.3     1  UNL1       -0.2949
      5 C         145.6210   71.2660  217.4800 C.3     1  UNL1        0.0242
      6 C         145.3500   70.0540  218.2760 C.ar    1  UNL1       -0.0334
      7 C         144.0090   69.6990  218.4360 C.ar    1  UNL1       -0.0573
      8 C         143.7210   68.5540  219.1620 C.ar    1  UNL1       -0.0615
      9 C         144.6940   67.7580  219.7260 C.ar    1  UNL1       -0.0617
     10 C         146.0210   68.1130  219.5630 C.ar    1  UNL1       -0.0615
     11 C         146.3150   69.2530  218.8410 C.ar    1  UNL1       -0.0573
     12 C         145.4200   72.1070  219.7150 C.3     1  UNL1        0.0151
     13 C         144.6690   73.2110  220.4240 C.3     1  UNL1        0.0280
     14 N         143.4310   73.4370  219.6960 N.pl3   1  UNL1       -0.2943
     15 C         142.2990   73.8190  220.4640 C.ar    1  UNL1        0.2240
     16 N         141.9100   75.0850  220.6380 N.ar    1  UNL1       -0.1807
     17 C         140.8290   75.4130  221.3360 C.ar    1  UNL1        0.2237
     18 N         140.4930   76.7790  221.4830 N.pl3   1  UNL1       -0.2969
     19 C         139.8860   77.3300  222.6850 C.3     1  UNL1        0.0294
     20 C         140.8890   78.3640  223.1800 C.3     1  UNL1        0.0374
     21 N         141.1590   79.3700  222.2190 N.3     1  UNL1       -0.1638
     22 S         142.0930   80.6670  222.7830 S.O2    1  UNL1        0.0946
     23 N         143.7100   80.1920  223.0660 N.3     1  UNL1       -0.1932
     24 O         141.4480   81.1530  224.0740 O.2     1  UNL1       -0.1413
     25 O         142.0470   81.8160  221.8250 O.2     1  UNL1       -0.1413
     26 C         141.4250   78.9660  220.8880 C.3     1  UNL1        0.0374
     27 C         140.7600   77.7230  220.4110 C.3     1  UNL1        0.0294
     28 N         140.0720   74.4340  221.9050 N.ar    1  UNL1       -0.1807
     29 C         140.4250   73.1370  221.7560 C.ar    1  UNL1        0.2240
     30 N         139.6370   72.0730  222.3330 N.pl3   1  UNL1       -0.2948
     31 C         138.2180   72.2650  222.5900 C.3     1  UNL1        0.0192
     32 C         137.6330   70.8770  222.7560 C.3     1  UNL1       -0.0115
     33 C         138.2970   70.2690  223.9350 C.ar    1  UNL1       -0.0412
     34 C         137.6370   69.7620  225.0250 C.ar    1  UNL1       -0.0582
     35 C         138.3700   69.1990  226.0780 C.ar    1  UNL1       -0.0615
     36 C         139.7560   69.1440  226.0360 C.ar    1  UNL1       -0.0614
     37 C         140.3790   69.6640  224.9240 C.ar    1  UNL1       -0.0568
     38 C         139.6960   70.2210  223.8780 C.ar    1  UNL1       -0.0269
     39 C         140.3110   70.8010  222.6600 C.3     1  UNL1        0.0402
     40 N         141.5200   72.8510  221.0470 N.ar    1  UNL1       -0.1807
     41 H         141.8308   74.6578  218.2299 H       1  UNL1        0.0248
     42 H         143.0117   74.8061  216.8845 H       1  UNL1        0.0248
     43 H         141.8136   73.4677  216.8845 H       1  UNL1        0.0248
     44 H         143.0644   72.2195  218.0423 H       1  UNL1        0.0510
     45 H         144.9206   73.4954  216.7195 H       1  UNL1        0.0445
     46 H         145.2269   74.4547  218.1879 H       1  UNL1        0.0445
     47 H         144.8236   71.3987  216.7340 H       1  UNL1        0.0476
     48 H         146.5903   71.1570  216.9715 H       1  UNL1        0.0476
     49 H         143.2053   70.3098  217.9990 H       1  UNL1        0.0621
     50 H         142.6672   68.2676  219.2940 H       1  UNL1        0.0618
     51 H         144.4207   66.8572  220.2951 H       1  UNL1        0.0618
     52 H         146.8243   67.5008  219.9988 H       1  UNL1        0.0618
     53 H         147.3707   69.5337  218.7117 H       1  UNL1        0.0621
     54 H         144.8268   71.1825  219.7724 H       1  UNL1        0.0442
     55 H         146.3947   71.9910  220.2115 H       1  UNL1        0.0442
     56 H         144.4465   72.9094  221.4582 H       1  UNL1        0.0477
     57 H         145.2722   74.1303  220.4560 H       1  UNL1        0.0477
     58 H         138.9218   77.8048  222.4509 H       1  UNL1        0.0478
     59 H         139.6757   76.5572  223.4390 H       1  UNL1        0.0478
     60 H         140.4844   78.8414  224.0846 H       1  UNL1        0.0460
     61 H         141.8335   77.8385  223.3842 H       1  UNL1        0.0460
     62 H         144.3530   81.0300  223.0580 H       1  UNL1        0.1453
     63 H         144.0030   79.5300  222.3170 H       1  UNL1        0.1453
     64 H         141.1115   79.7852  220.2242 H       1  UNL1        0.0460
     65 H         142.5010   78.7381  220.8695 H       1  UNL1        0.0460
     66 H         139.8055   77.9951  219.9368 H       1  UNL1        0.0478
     67 H         141.4437   77.2334  219.7019 H       1  UNL1        0.0478
     68 H         138.0718   72.8538  223.5076 H       1  UNL1        0.0468
     69 H         137.7302   72.8128  221.7703 H       1  UNL1        0.0468
     70 H         136.5478   70.9413  222.9241 H       1  UNL1        0.0328
     71 H         137.7975   70.2694  221.8539 H       1  UNL1        0.0328
     72 H         136.5386   69.7971  225.0723 H       1  UNL1        0.0620
     73 H         137.8384   68.7942  226.9518 H       1  UNL1        0.0618
     74 H         140.3349   68.7016  226.8601 H       1  UNL1        0.0618
     75 H         141.4773   69.6300  224.8743 H       1  UNL1        0.0621
     76 H         141.3799   70.9872  222.8409 H       1  UNL1        0.0514
     77 H         140.2008   70.0986  221.8207 H       1  UNL1        0.0514
@<TRIPOS>BOND
     1     1     2    1
     2     2     3    1
     3     3     4    1
     4     4     5    1
     5     5     6    1
     6     6     7   ar
     7     7     8   ar
     8     8     9   ar
     9     9    10   ar
    10    10    11   ar
    11     4    12    1
    12    12    13    1
    13    13    14    1
    14    14    15    1
    15    15    16   ar
    16    16    17   ar
    17    17    18    1
    18    18    19    1
    19    19    20    1
    20    20    21    1
    21    21    22    1
    22    22    23    1
    23    22    24    2
    24    22    25    2
    25    21    26    1
    26    26    27    1
    27    17    28   ar
    28    28    29   ar
    29    29    30    1
    30    30    31    1
    31    31    32    1
    32    32    33    1
    33    33    34   ar
    34    34    35   ar
    35    35    36   ar
    36    36    37   ar
    37    37    38   ar
    38    38    39    1
    39    29    40   ar
    40    14     2    1
    41    40    15   ar
    42    11     6   ar
    43    27    18    1
    44    39    30    1
    45    38    33   ar
    46     1    41    1
    47     1    42    1
    48     1    43    1
    49     2    44    1
    50     3    45    1
    51     3    46    1
    52     5    47    1
    53     5    48    1
    54     7    49    1
    55     8    50    1
    56     9    51    1
    57    10    52    1
    58    11    53    1
    59    12    54    1
    60    12    55    1
    61    13    56    1
    62    13    57    1
    63    19    58    1
    64    19    59    1
    65    20    60    1
    66    20    61    1
    67    23    62    1
    68    23    63    1
    69    26    64    1
    70    26    65    1
    71    27    66    1
    72    27    67    1
    73    31    68    1
    74    31    69    1
    75    32    70    1
    76    32    71    1
    77    34    72    1
    78    35    73    1
    79    36    74    1
    80    37    75    1
    81    39    76    1
    82    39    77    1
