
     RDKit          3D

 53 56  0  0  0  0  0  0  0  0999 V2000
  139.4020   71.0260  221.2170 O   0  0  0  0  0  0  0  0  0  0  0  0
  139.6290   71.7080  222.2740 C   0  0  0  0  0  0  0  0  0  0  0  0
  139.7950   73.1000  222.2010 N   0  0  0  0  0  0  0  0  0  0  0  0
  139.7190   73.8510  220.9390 C   0  0  0  0  0  0  0  0  0  0  0  0
  140.4090   75.1320  221.1480 C   0  0  0  0  0  0  0  0  0  0  0  0
  140.4810   75.5940  222.3340 O   0  0  0  0  0  0  0  0  0  0  0  0
  141.0110   75.9150  220.1370 N   0  0  0  0  0  0  0  0  0  0  0  0
  140.7080   75.8170  218.7190 C   0  0  0  0  0  0  0  0  0  0  0  0
  142.1580   75.7260  218.2060 C   0  0  2  0  0  0  0  0  0  0  0  0
  142.7860   74.6780  218.8140 F   0  0  0  0  0  0  0  0  0  0  0  0
  142.6810   77.0150  218.8690 C   0  0  0  0  0  0  0  0  0  0  0  0
  142.0320   76.9550  220.2350 C   0  0  1  0  0  0  0  0  0  0  0  0
  141.3800   78.2360  220.6500 C   0  0  0  0  0  0  0  0  0  0  0  0
  141.9730   78.8930  221.7600 N   0  0  0  0  0  0  0  0  0  0  0  0
  141.2000   78.5600  222.9790 C   0  0  0  0  0  0  0  0  0  0  0  0
  141.8560   79.4370  224.0200 C   0  0  0  0  0  0  0  0  0  0  0  0
  142.2770   80.6500  223.2510 C   0  0  0  0  0  0  0  0  0  0  0  0
  141.8660   80.3290  221.7970 C   0  0  0  0  0  0  0  0  0  0  0  0
  139.7210   71.0370  223.5810 C   0  0  0  0  0  0  0  0  0  0  0  0
  139.2330   69.7450  223.6930 C   0  0  0  0  0  0  0  0  0  0  0  0
  139.3460   69.1610  224.9490 C   0  0  0  0  0  0  0  0  0  0  0  0
  139.9060   69.8170  226.0230 C   0  0  0  0  0  0  0  0  0  0  0  0
  140.0310   69.2660  227.2760 C   0  0  0  0  0  0  0  0  0  0  0  0
  140.6090   69.9880  228.3210 C   0  0  0  0  0  0  0  0  0  0  0  0
  141.0640   71.2710  228.1050 C   0  0  0  0  0  0  0  0  0  0  0  0
  140.9520   71.8410  226.8680 C   0  0  0  0  0  0  0  0  0  0  0  0
  140.3750   71.1060  225.8510 C   0  0  0  0  0  0  0  0  0  0  0  0
  140.2650   71.6680  224.6340 N   0  0  0  0  0  0  0  0  0  0  0  0
  139.9800   73.6170  223.0950 H   0  0  0  0  0  0  0  0  0  0  0  0
  140.2117   73.2853  220.1345 H   0  0  0  0  0  0  0  0  0  0  0  0
  138.6712   74.0170  220.6481 H   0  0  0  0  0  0  0  0  0  0  0  0
  140.1218   74.9180  218.4777 H   0  0  0  0  0  0  0  0  0  0  0  0
  140.0923   76.6246  218.2963 H   0  0  0  0  0  0  0  0  0  0  0  0
  142.2852   75.6113  217.1194 H   0  0  0  0  0  0  0  0  0  0  0  0
  143.7782   77.0067  218.9476 H   0  0  0  0  0  0  0  0  0  0  0  0
  142.4437   77.9298  218.3061 H   0  0  0  0  0  0  0  0  0  0  0  0
  142.8042   76.7539  220.9922 H   0  0  0  0  0  0  0  0  0  0  0  0
  141.4104   78.9248  219.7929 H   0  0  0  0  0  0  0  0  0  0  0  0
  140.3617   77.9671  220.9675 H   0  0  0  0  0  0  0  0  0  0  0  0
  140.1360   78.8116  222.8581 H   0  0  0  0  0  0  0  0  0  0  0  0
  141.2117   77.4894  223.2315 H   0  0  0  0  0  0  0  0  0  0  0  0
  141.1425   79.7041  224.8134 H   0  0  0  0  0  0  0  0  0  0  0  0
  142.6975   78.9405  224.5255 H   0  0  0  0  0  0  0  0  0  0  0  0
  141.7543   81.5462  223.6167 H   0  0  0  0  0  0  0  0  0  0  0  0
  143.3514   80.8639  223.3508 H   0  0  0  0  0  0  0  0  0  0  0  0
  140.8364   80.6576  221.5919 H   0  0  0  0  0  0  0  0  0  0  0  0
  142.4832   80.8372  221.0415 H   0  0  0  0  0  0  0  0  0  0  0  0
  138.7839   69.2144  222.8405 H   0  0  0  0  0  0  0  0  0  0  0  0
  138.9740   68.1356  225.0909 H   0  0  0  0  0  0  0  0  0  0  0  0
  139.6708   68.2426  227.4574 H   0  0  0  0  0  0  0  0  0  0  0  0
  140.7016   69.5328  229.3181 H   0  0  0  0  0  0  0  0  0  0  0  0
  141.5187   71.8379  228.9308 H   0  0  0  0  0  0  0  0  0  0  0  0
  141.3138   72.8638  226.6861 H   0  0  0  0  0  0  0  0  0  0  0  0
  1  2  2  0
  2  3  1  0
  3  4  1  0
  4  5  1  0
  5  6  2  0
  5  7  1  0
  7  8  1  0
  8  9  1  0
  9 10  1  0
  9 11  1  0
 11 12  1  0
 12 13  1  0
 13 14  1  0
 14 15  1  0
 15 16  1  0
 16 17  1  0
 17 18  1  0
  2 19  1  0
 19 20  2  0
 20 21  1  0
 21 22  2  0
 22 23  1  0
 23 24  2  0
 24 25  1  0
 25 26  2  0
 26 27  1  0
 27 28  2  0
 12  7  1  0
 18 14  1  0
 28 19  1  0
 27 22  1  0
  3 29  1  0
  4 30  1  0
  4 31  1  0
  8 32  1  0
  8 33  1  0
  9 34  1  6
 11 35  1  0
 11 36  1  0
 12 37  1  1
 13 38  1  0
 13 39  1  0
 15 40  1  0
 15 41  1  0
 16 42  1  0
 16 43  1  0
 17 44  1  0
 17 45  1  0
 18 46  1  0
 18 47  1  0
 20 48  1  0
 21 49  1  0
 23 50  1  0
 24 51  1  0
 25 52  1  0
 26 53  1  0
M  END
