
 68 72  0  0  0  0  0  0  0  0999 V2000
  138.8060   70.4110  221.4190 O   0  0  0  0  0  0  0  0  0  0  0  0
  139.1640   70.9770  222.4980 C   0  0  0  0  0  0  0  0  0  0  0  0
  139.3620   72.3650  222.5570 N   0  0  0  0  0  0  0  0  0  0  0  0
  139.1600   73.2490  221.3760 C   0  0  0  0  0  0  0  0  0  0  0  0
  140.3010   74.1490  221.2370 C   0  0  0  0  0  0  0  0  0  0  0  0
  140.6750   74.7170  222.3450 O   0  0  0  0  0  0  0  0  0  0  0  0
  141.0600   74.5030  220.1220 N   0  0  0  0  0  0  0  0  0  0  0  0
  141.5470   73.3720  219.2290 C   0  0  0  0  0  0  0  0  0  0  0  0
  141.4180   73.9850  217.8370 C   0  0  0  0  0  0  0  0  0  0  0  0
  140.9880   75.4460  218.0630 C   0  0  0  0  0  0  0  0  0  0  0  0
  141.5820   75.6320  219.4700 C   0  0  1  0  0  0  0  0  0  0  0  0
  141.2870   76.9810  219.8940 C   0  0  0  0  0  0  0  0  0  0  0  0
  140.8860   77.9550  219.2440 O   0  0  0  0  0  0  0  0  0  0  0  0
  141.4900   77.2570  221.3180 N   0  0  0  0  0  0  0  0  0  0  0  0
  141.2290   78.5500  221.8570 C   0  0  1  0  0  0  0  0  0  0  0  0
  141.2070   78.6670  223.3380 C   0  0  0  0  0  0  0  0  0  0  0  0
  141.8540   79.9450  223.8290 C   0  0  0  0  0  0  0  0  0  0  0  0
  141.4080   81.1750  223.0860 C   0  0  2  0  0  0  0  0  0  0  0  0
  140.1610   81.6160  223.5170 O   0  0  0  0  0  0  0  0  0  0  0  0
  138.9650   80.9650  223.4940 C   0  0  0  0  0  0  0  0  0  0  0  0
  138.1110   81.1540  224.5850 C   0  0  0  0  0  0  0  0  0  0  0  0
  136.8690   80.5060  224.6130 C   0  0  0  0  0  0  0  0  0  0  0  0
  136.4820   79.7070  223.6070 N   0  0  0  0  0  0  0  0  0  0  0  0
  137.2690   79.5120  222.5630 C   0  0  0  0  0  0  0  0  0  0  0  0
  138.5120   80.1350  222.4950 C   0  0  0  0  0  0  0  0  0  0  0  0
  141.4690   80.9360  221.5870 C   0  0  0  0  0  0  0  0  0  0  0  0
  142.1710   79.6150  221.2910 C   0  0  0  0  0  0  0  0  0  0  0  0
  139.3810   70.1870  223.7270 C   0  0  0  0  0  0  0  0  0  0  0  0
  138.9680   68.8590  223.7840 C   0  0  0  0  0  0  0  0  0  0  0  0
  139.1950   68.1680  224.9580 C   0  0  0  0  0  0  0  0  0  0  0  0
  139.8040   68.7500  226.0430 C   0  0  0  0  0  0  0  0  0  0  0  0
  140.0530   68.1140  227.2350 C   0  0  0  0  0  0  0  0  0  0  0  0
  140.6680   68.7880  228.2670 C   0  0  0  0  0  0  0  0  0  0  0  0
  140.9180   68.1670  229.4460 F   0  0  0  0  0  0  0  0  0  0  0  0
  141.0620   70.1030  228.1730 C   0  0  0  0  0  0  0  0  0  0  0  0
  140.8130   70.7570  226.9630 C   0  0  0  0  0  0  0  0  0  0  0  0
  140.1950   70.0690  225.9390 C   0  0  0  0  0  0  0  0  0  0  0  0
  139.9770   70.7460  224.7980 N   0  0  0  0  0  0  0  0  0  0  0  0
  139.6620   72.7980  223.4660 H   0  0  0  0  0  0  0  0  0  0  0  0
  139.0670   72.6331  220.4694 H   0  0  0  0  0  0  0  0  0  0  0  0
  138.2430   73.8405  221.5151 H   0  0  0  0  0  0  0  0  0  0  0  0
  142.5908   73.1073  219.4535 H   0  0  0  0  0  0  0  0  0  0  0  0
  140.9835   72.4356  219.3540 H   0  0  0  0  0  0  0  0  0  0  0  0
  142.3828   73.9464  217.3101 H   0  0  0  0  0  0  0  0  0  0  0  0
  140.6903   73.4388  217.2188 H   0  0  0  0  0  0  0  0  0  0  0  0
  141.4368   76.1304  217.3280 H   0  0  0  0  0  0  0  0  0  0  0  0
  139.9122   75.6524  217.9632 H   0  0  0  0  0  0  0  0  0  0  0  0
  142.6676   75.6218  219.6469 H   0  0  0  0  0  0  0  0  0  0  0  0
  141.8250   76.5090  221.9610 H   0  0  0  0  0  0  0  0  0  0  0  0
  140.1939   78.7253  221.5286 H   0  0  0  0  0  0  0  0  0  0  0  0
  141.7474   77.8106  223.7675 H   0  0  0  0  0  0  0  0  0  0  0  0
  140.1541   78.6821  223.6562 H   0  0  0  0  0  0  0  0  0  0  0  0
  142.9439   79.8477  223.7162 H   0  0  0  0  0  0  0  0  0  0  0  0
  141.5497   80.0760  224.8779 H   0  0  0  0  0  0  0  0  0  0  0  0
  142.1054   81.9945  223.3141 H   0  0  0  0  0  0  0  0  0  0  0  0
  138.4126   81.8078  225.4166 H   0  0  0  0  0  0  0  0  0  0  0  0
  136.2004   80.6547  225.4737 H   0  0  0  0  0  0  0  0  0  0  0  0
  136.9403   78.8547  221.7445 H   0  0  0  0  0  0  0  0  0  0  0  0
  139.1505   79.9584  221.6169 H   0  0  0  0  0  0  0  0  0  0  0  0
  142.0247   81.7572  221.1107 H   0  0  0  0  0  0  0  0  0  0  0  0
  140.4444   80.8944  221.1888 H   0  0  0  0  0  0  0  0  0  0  0  0
  143.1503   79.5739  221.7903 H   0  0  0  0  0  0  0  0  0  0  0  0
  142.3668   79.4748  220.2177 H   0  0  0  0  0  0  0  0  0  0  0  0
  138.4784   68.3772  222.9248 H   0  0  0  0  0  0  0  0  0  0  0  0
  138.8777   67.1170  225.0265 H   0  0  0  0  0  0  0  0  0  0  0  0
  139.7600   67.0619  227.3659 H   0  0  0  0  0  0  0  0  0  0  0  0
  141.5515   70.6171  229.0133 H   0  0  0  0  0  0  0  0  0  0  0  0
  141.1065   71.8086  226.8286 H   0  0  0  0  0  0  0  0  0  0  0  0
  1  2  2  0
  2  3  1  0
  3  4  1  0
  4  5  1  0
  5  6  2  0
  5  7  1  0
  7  8  1  0
  8  9  1  0
  9 10  1  0
 10 11  1  0
 11 12  1  0
 12 13  2  0
 12 14  1  0
 14 15  1  0
 15 16  1  0
 16 17  1  0
 17 18  1  0
 18 19  1  0
 19 20  1  0
 20 21  2  0
 21 22  1  0
 22 23  2  0
 23 24  1  0
 24 25  2  0
 18 26  1  0
 26 27  1  0
  2 28  1  0
 28 29  2  0
 29 30  1  0
 30 31  2  0
 31 32  1  0
 32 33  2  0
 33 34  1  0
 33 35  1  0
 35 36  2  0
 36 37  1  0
 37 38  2  0
 11  7  1  0
 27 15  1  0
 38 28  1  0
 25 20  1  0
 37 31  1  0
  3 39  1  0
  4 40  1  0
  4 41  1  0
  8 42  1  0
  8 43  1  0
  9 44  1  0
  9 45  1  0
 10 46  1  0
 10 47  1  0
 11 48  1  6
 14 49  1  0
 15 50  1  6
 16 51  1  0
 16 52  1  0
 17 53  1  0
 17 54  1  0
 18 55  1  6
 21 56  1  0
 22 57  1  0
 24 58  1  0
 25 59  1  0
 26 60  1  0
 26 61  1  0
 27 62  1  0
 27 63  1  0
 29 64  1  0
 30 65  1  0
 32 66  1  0
 35 67  1  0
 36 68  1  0
M  END
