
 68 73  0  0  0  0  0  0  0  0999 V2000
  144.9060   70.3200  219.4670 O   0  0  0  0  0  0  0  0  0  0  0  0
  145.0810   71.5550  219.6070 C   0  0  0  0  0  0  0  0  0  0  0  0
  144.1620   72.5740  219.0080 C   0  0  0  0  0  0  0  0  0  0  0  0
  143.9940   73.6030  220.0150 N   0  0  0  0  0  0  0  0  0  0  0  0
  142.7100   73.9320  220.5290 C   0  0  0  0  0  0  0  0  0  0  0  0
  141.8080   73.0020  220.8340 N   0  0  0  0  0  0  0  0  0  0  0  0
  140.5870   73.2760  221.3200 C   0  0  0  0  0  0  0  0  0  0  0  0
  139.6330   72.2720  221.6410 N   0  0  0  0  0  0  0  0  0  0  0  0
  138.4130   72.6030  222.3520 C   0  0  0  0  0  0  0  0  0  0  0  0
  137.8140   71.2480  222.7520 C   0  0  0  0  0  0  0  0  0  0  0  0
  138.8770   70.5330  223.4010 N   0  0  0  0  0  0  0  0  0  0  0  0
  138.4740   69.6800  224.4660 C   0  0  0  0  0  0  0  0  0  0  0  0
  139.3220   69.7140  225.6690 C   0  0  0  0  0  0  0  0  0  0  0  0
  140.0130   70.8500  226.0860 C   0  0  0  0  0  0  0  0  0  0  0  0
  140.7930   70.7900  227.2390 C   0  0  0  0  0  0  0  0  0  0  0  0
  140.9210   69.6650  227.9910 C   0  0  0  0  0  0  0  0  0  0  0  0
  140.2390   68.5330  227.5840 C   0  0  0  0  0  0  0  0  0  0  0  0
  139.4560   68.5760  226.4380 C   0  0  0  0  0  0  0  0  0  0  0  0
  139.8330   69.9760  222.4790 C   0  0  0  0  0  0  0  0  0  0  0  0
  139.8510   70.9080  221.2720 C   0  0  0  0  0  0  0  0  0  0  0  0
  140.2810   74.5720  221.5010 N   0  0  0  0  0  0  0  0  0  0  0  0
  141.1680   75.5600  221.2050 C   0  0  0  0  0  0  0  0  0  0  0  0
  140.7720   76.9080  221.4240 N   0  0  0  0  0  0  0  0  0  0  0  0
  140.3830   77.7010  220.2920 C   0  0  0  0  0  0  0  0  0  0  0  0
  141.4470   78.7830  220.1370 C   0  0  0  0  0  0  0  0  0  0  0  0
  141.5840   79.4670  221.4480 C   0  0  0  0  0  0  0  0  0  0  0  0
  142.0560   80.7730  221.4370 C   0  0  0  0  0  0  0  0  0  0  0  0
  142.2070   81.4640  222.6210 C   0  0  0  0  0  0  0  0  0  0  0  0
  141.8860   80.8500  223.8150 C   0  0  0  0  0  0  0  0  0  0  0  0
  141.4130   79.5480  223.8490 C   0  0  0  0  0  0  0  0  0  0  0  0
  141.2690   78.8710  222.6490 C   0  0  0  0  0  0  0  0  0  0  0  0
  140.7570   77.4730  222.7380 C   0  0  0  0  0  0  0  0  0  0  0  0
  142.3800   75.2180  220.7190 N   0  0  0  0  0  0  0  0  0  0  0  0
  145.1740   74.2950  220.4930 C   0  0  0  0  0  0  0  0  0  0  0  0
  146.1550   73.3040  221.0470 C   0  0  0  0  0  0  0  0  0  0  0  0
  146.1760   72.0480  220.3550 N   0  0  0  0  0  0  0  0  0  0  0  0
  144.6064   73.0004  218.0966 H   0  0  0  0  0  0  0  0  0  0  0  0
  143.1975   72.1282  218.7233 H   0  0  0  0  0  0  0  0  0  0  0  0
  138.6358   73.2069  223.2440 H   0  0  0  0  0  0  0  0  0  0  0  0
  137.7217   73.1978  221.7369 H   0  0  0  0  0  0  0  0  0  0  0  0
  136.9693   71.3902  223.4422 H   0  0  0  0  0  0  0  0  0  0  0  0
  137.4277   70.7001  221.8799 H   0  0  0  0  0  0  0  0  0  0  0  0
  137.4550   69.9689  224.7629 H   0  0  0  0  0  0  0  0  0  0  0  0
  138.5517   68.6551  224.0741 H   0  0  0  0  0  0  0  0  0  0  0  0
  139.9434   71.7849  225.5106 H   0  0  0  0  0  0  0  0  0  0  0  0
  141.3306   71.6959  227.5557 H   0  0  0  0  0  0  0  0  0  0  0  0
  141.5475   69.6553  228.8951 H   0  0  0  0  0  0  0  0  0  0  0  0
  140.3164   67.6025  228.1655 H   0  0  0  0  0  0  0  0  0  0  0  0
  138.9206   67.6656  226.1306 H   0  0  0  0  0  0  0  0  0  0  0  0
  140.8296   69.9327  222.9425 H   0  0  0  0  0  0  0  0  0  0  0  0
  139.5611   68.9501  222.1899 H   0  0  0  0  0  0  0  0  0  0  0  0
  140.8296   70.8270  220.7762 H   0  0  0  0  0  0  0  0  0  0  0  0
  139.0355   70.6053  220.5988 H   0  0  0  0  0  0  0  0  0  0  0  0
  140.3405   77.0770  219.3871 H   0  0  0  0  0  0  0  0  0  0  0  0
  139.3855   78.1411  220.4378 H   0  0  0  0  0  0  0  0  0  0  0  0
  142.4061   78.3278  219.8491 H   0  0  0  0  0  0  0  0  0  0  0  0
  141.1583   79.5003  219.3546 H   0  0  0  0  0  0  0  0  0  0  0  0
  142.3098   81.2571  220.4824 H   0  0  0  0  0  0  0  0  0  0  0  0
  142.5811   82.4984  222.6140 H   0  0  0  0  0  0  0  0  0  0  0  0
  142.0080   81.4047  224.7570 H   0  0  0  0  0  0  0  0  0  0  0  0
  141.1585   79.0647  224.8038 H   0  0  0  0  0  0  0  0  0  0  0  0
  141.4017   76.8819  223.4051 H   0  0  0  0  0  0  0  0  0  0  0  0
  139.7342   77.4676  223.1427 H   0  0  0  0  0  0  0  0  0  0  0  0
  145.6389   74.8424  219.6598 H   0  0  0  0  0  0  0  0  0  0  0  0
  144.8848   75.0014  221.2851 H   0  0  0  0  0  0  0  0  0  0  0  0
  147.1608   73.7458  220.9906 H   0  0  0  0  0  0  0  0  0  0  0  0
  145.8404   73.0910  222.0793 H   0  0  0  0  0  0  0  0  0  0  0  0
  147.0690   71.4830  220.4240 H   0  0  0  0  0  0  0  0  0  0  0  0
  1  2  2  0
  2  3  1  0
  3  4  1  0
  4  5  1  0
  5  6  2  0
  6  7  1  0
  7  8  1  0
  8  9  1  0
  9 10  1  0
 10 11  1  0
 11 12  1  0
 12 13  1  0
 13 14  2  0
 14 15  1  0
 15 16  2  0
 16 17  1  0
 17 18  2  0
 11 19  1  0
 19 20  1  0
  7 21  2  0
 21 22  1  0
 22 23  1  0
 23 24  1  0
 24 25  1  0
 25 26  1  0
 26 27  2  0
 27 28  1  0
 28 29  2  0
 29 30  1  0
 30 31  2  0
 31 32  1  0
 22 33  2  0
  4 34  1  0
 34 35  1  0
 35 36  1  0
 36  2  1  0
 33  5  1  0
 20  8  1  0
 32 23  1  0
 18 13  1  0
 31 26  1  0
  3 37  1  0
  3 38  1  0
  9 39  1  0
  9 40  1  0
 10 41  1  0
 10 42  1  0
 12 43  1  0
 12 44  1  0
 14 45  1  0
 15 46  1  0
 16 47  1  0
 17 48  1  0
 18 49  1  0
 19 50  1  0
 19 51  1  0
 20 52  1  0
 20 53  1  0
 24 54  1  0
 24 55  1  0
 25 56  1  0
 25 57  1  0
 27 58  1  0
 28 59  1  0
 29 60  1  0
 30 61  1  0
 32 62  1  0
 32 63  1  0
 34 64  1  0
 34 65  1  0
 35 66  1  0
 35 67  1  0
 36 68  1  0
M  END
