
     RDKit          3D

 66 69  0  0  1  0  0  0  0  0999 V2000
  138.8640   69.1090  222.9850 C   0  0  0  0  0  0  0  0  0  0  0  0
  138.1630   69.5710  224.2320 C   0  0  2  0  0  0  0  0  0  0  0  0
  137.0680   70.4860  223.9470 N   0  0  0  0  0  0  0  0  0  0  0  0
  135.7370   70.0350  224.2580 C   0  0  0  0  0  0  0  0  0  0  0  0
  135.5360   68.8850  224.7630 O   0  0  0  0  0  0  0  0  0  0  0  0
  134.6090   70.9410  223.9770 C   0  0  1  0  0  0  0  0  0  0  0  0
  134.1090   71.6250  225.2430 C   0  0  0  0  0  0  0  0  0  0  0  0
  134.9310   72.8890  225.2970 C   0  0  2  0  0  0  0  0  0  0  0  0
  134.3610   73.9340  226.0800 N   0  0  0  0  0  0  0  0  0  0  0  0
  132.9500   73.8310  226.2880 C   0  0  0  0  0  0  0  0  0  0  0  0
  134.6840   75.2130  225.5300 C   0  0  0  0  0  0  0  0  0  0  0  0
  135.2910   73.2280  223.8940 C   0  0  0  0  0  0  0  0  0  0  0  0
  134.9970   72.0350  223.0910 N   0  0  0  0  0  0  0  0  0  0  0  0
  135.0820   71.9710  221.6690 C   0  0  0  0  0  0  0  0  0  0  0  0
  134.0180   71.8980  221.0010 O   0  0  0  0  0  0  0  0  0  0  0  0
  136.4290   71.9970  221.0350 C   0  0  0  0  0  0  0  0  0  0  0  0
  137.0570   73.2870  221.1010 N   0  0  0  0  0  0  0  0  0  0  0  0
  138.3060   73.3680  221.7910 C   0  0  0  0  0  0  0  0  0  0  0  0
  138.7230   72.2620  222.2760 O   0  0  0  0  0  0  0  0  0  0  0  0
  139.0580   74.6010  221.9410 C   0  0  0  0  0  0  0  0  0  0  0  0
  140.3890   74.5810  221.5780 C   0  0  0  0  0  0  0  0  0  0  0  0
  141.2230   75.6690  221.6630 C   0  0  0  0  0  0  0  0  0  0  0  0
  140.6730   76.8560  222.1500 C   0  0  0  0  0  0  0  0  0  0  0  0
  141.4350   78.0020  222.2710 C   0  0  0  0  0  0  0  0  0  0  0  0
  140.8900   79.1880  222.7540 C   0  0  0  0  0  0  0  0  0  0  0  0
  141.9260   80.5780  222.8720 Cl  0  0  0  0  0  0  0  0  0  0  0  0
  139.5640   79.1850  223.1100 C   0  0  0  0  0  0  0  0  0  0  0  0
  138.7870   78.0370  222.9920 C   0  0  0  0  0  0  0  0  0  0  0  0
  139.3420   76.8710  222.5130 C   0  0  0  0  0  0  0  0  0  0  0  0
  138.5610   75.7490  222.4030 N   0  0  0  0  0  0  0  0  0  0  0  0
  139.1170   70.1420  225.2430 C   0  0  0  0  0  0  0  0  0  0  0  0
  139.2110   69.6110  226.5310 C   0  0  0  0  0  0  0  0  0  0  0  0
  140.0710   70.1110  227.4800 C   0  0  0  0  0  0  0  0  0  0  0  0
  140.8780   71.1840  227.1550 C   0  0  0  0  0  0  0  0  0  0  0  0
  140.8020   71.7250  225.8920 C   0  0  0  0  0  0  0  0  0  0  0  0
  139.9350   71.2290  224.9170 C   0  0  0  0  0  0  0  0  0  0  0  0
  139.7533   68.5229  223.2600 H   0  0  0  0  0  0  0  0  0  0  0  0
  138.1816   68.4831  222.3912 H   0  0  0  0  0  0  0  0  0  0  0  0
  139.1701   69.9829  222.3912 H   0  0  0  0  0  0  0  0  0  0  0  0
  137.7165   68.6728  224.6835 H   0  0  0  0  0  0  0  0  0  0  0  0
  137.2440   71.4250  223.5350 H   0  0  0  0  0  0  0  0  0  0  0  0
  133.8384   70.3013  223.5220 H   0  0  0  0  0  0  0  0  0  0  0  0
  133.0357   71.8548  225.1700 H   0  0  0  0  0  0  0  0  0  0  0  0
  134.2161   71.0010  226.1425 H   0  0  0  0  0  0  0  0  0  0  0  0
  135.8593   72.7258  225.8641 H   0  0  0  0  0  0  0  0  0  0  0  0
  132.7386   73.8156  227.3674 H   0  0  0  0  0  0  0  0  0  0  0  0
  132.4476   74.6949  225.8283 H   0  0  0  0  0  0  0  0  0  0  0  0
  132.5784   72.9033  225.8283 H   0  0  0  0  0  0  0  0  0  0  0  0
  134.8646   75.9281  226.3461 H   0  0  0  0  0  0  0  0  0  0  0  0
  135.5888   75.1277  224.9103 H   0  0  0  0  0  0  0  0  0  0  0  0
  133.8472   75.5676  224.9103 H   0  0  0  0  0  0  0  0  0  0  0  0
  134.6911   74.0804  223.5426 H   0  0  0  0  0  0  0  0  0  0  0  0
  136.3503   73.5130  223.8118 H   0  0  0  0  0  0  0  0  0  0  0  0
  137.0722   71.2676  221.5491 H   0  0  0  0  0  0  0  0  0  0  0  0
  136.2961   71.7505  219.9713 H   0  0  0  0  0  0  0  0  0  0  0  0
  136.6520   74.1660  220.6750 H   0  0  0  0  0  0  0  0  0  0  0  0
  140.8072   73.6373  221.1978 H   0  0  0  0  0  0  0  0  0  0  0  0
  142.2788   75.6076  221.3604 H   0  0  0  0  0  0  0  0  0  0  0  0
  142.4953   77.9765  221.9793 H   0  0  0  0  0  0  0  0  0  0  0  0
  139.1071   80.1082  223.4960 H   0  0  0  0  0  0  0  0  0  0  0  0
  137.7262   78.0606  223.2821 H   0  0  0  0  0  0  0  0  0  0  0  0
  138.5705   68.7573  226.7974 H   0  0  0  0  0  0  0  0  0  0  0  0
  140.1158   69.6630  228.4837 H   0  0  0  0  0  0  0  0  0  0  0  0
  141.5738   71.6014  227.8977 H   0  0  0  0  0  0  0  0  0  0  0  0
  141.4480   72.5794  225.6417 H   0  0  0  0  0  0  0  0  0  0  0  0
  139.8959   71.6823  223.9155 H   0  0  0  0  0  0  0  0  0  0  0  0
  1  2  1  0
  2  3  1  0
  3  4  1  0
  4  5  2  0
  4  6  1  0
  6  7  1  0
  7  8  1  0
  8  9  1  0
  9 10  1  0
  9 11  1  0
  8 12  1  0
 12 13  1  0
 13 14  1  0
 14 15  2  0
 14 16  1  0
 16 17  1  0
 17 18  1  0
 18 19  2  0
 18 20  1  0
 20 21  2  0
 21 22  1  0
 22 23  2  0
 23 24  1  0
 24 25  2  0
 25 26  1  0
 25 27  1  0
 27 28  2  0
 28 29  1  0
 29 30  2  0
  2 31  1  0
 31 32  2  0
 32 33  1  0
 33 34  2  0
 34 35  1  0
 35 36  2  0
 13  6  1  0
 30 20  1  0
 36 31  1  0
 29 23  1  0
  1 37  1  0
  1 38  1  0
  1 39  1  0
  2 40  1  1
  3 41  1  0
  6 42  1  6
  7 43  1  0
  7 44  1  0
  8 45  1  1
 10 46  1  0
 10 47  1  0
 10 48  1  0
 11 49  1  0
 11 50  1  0
 11 51  1  0
 12 52  1  0
 12 53  1  0
 16 54  1  0
 16 55  1  0
 17 56  1  0
 21 57  1  0
 22 58  1  0
 24 59  1  0
 27 60  1  0
 28 61  1  0
 32 62  1  0
 33 63  1  0
 34 64  1  0
 35 65  1  0
 36 66  1  0
M  END
>  <smiles>  (1) 
CC(NC(=O)[C@H]1C[C@H](N(C)C)CN1C(=O)CNC(=O)c1ccc2cc(Cl)ccc2n1)c1ccccc1

>  <score_type>  (1) 
oracle

>  <origin>  (1) 
autodockgpu

>  <m_score__min__energy>  (1) 
-9.8300000000000001

>  <m_primary>  (1) 
energy

>  <rmsd>  (1) 
9.479639938940425

>  <m_score__min__rmsd>  (1) 
9.479639938940425

>  <meeko>  (1) 
{"free_energy": -7.97, "intermolecular_energy": -10.36, "internal_energy": -3.47, "cluster_size": 16, "cluster_id": 1, "rank_in_cluster": 16}

>  <energy>  (1) 
-9.83

>  <cluster_rmsd>  (1) 
0.0

>  <cluster>  (1) 
1

$$$$

     RDKit          3D

 66 69  0  0  1  0  0  0  0  0999 V2000
  142.9410   76.1280  218.8400 C   0  0  0  0  0  0  0  0  0  0  0  0
  142.5640   75.0300  219.7940 C   0  0  2  0  0  0  0  0  0  0  0  0
  141.9680   75.5390  221.0190 N   0  0  0  0  0  0  0  0  0  0  0  0
  140.6610   76.1340  220.9170 C   0  0  0  0  0  0  0  0  0  0  0  0
  140.0600   76.2040  219.7990 O   0  0  0  0  0  0  0  0  0  0  0  0
  140.0350   76.6600  222.1440 C   0  0  1  0  0  0  0  0  0  0  0  0
  140.9490   77.6430  222.8630 C   0  0  0  0  0  0  0  0  0  0  0  0
  140.5620   78.9720  222.2610 C   0  0  2  0  0  0  0  0  0  0  0  0
  140.8920   80.1040  223.0620 N   0  0  0  0  0  0  0  0  0  0  0  0
  140.9430   81.3470  222.3570 C   0  0  0  0  0  0  0  0  0  0  0  0
  142.1180   79.8870  223.7630 C   0  0  0  0  0  0  0  0  0  0  0  0
  139.1430   78.8520  221.8310 C   0  0  0  0  0  0  0  0  0  0  0  0
  138.8230   77.4200  221.8540 N   0  0  0  0  0  0  0  0  0  0  0  0
  137.5250   76.8740  221.6260 C   0  0  0  0  0  0  0  0  0  0  0  0
  136.5170   77.5860  221.8700 O   0  0  0  0  0  0  0  0  0  0  0  0
  137.4200   75.4820  221.1060 C   0  0  0  0  0  0  0  0  0  0  0  0
  137.6280   74.4860  222.1200 N   0  0  0  0  0  0  0  0  0  0  0  0
  138.4880   73.3940  221.7910 C   0  0  0  0  0  0  0  0  0  0  0  0
  138.9800   73.4350  220.6130 O   0  0  0  0  0  0  0  0  0  0  0  0
  138.7940   72.3120  222.7100 C   0  0  0  0  0  0  0  0  0  0  0  0
  137.9110   71.2530  222.7620 C   0  0  0  0  0  0  0  0  0  0  0  0
  138.0700   70.1620  223.5800 C   0  0  0  0  0  0  0  0  0  0  0  0
  139.1990   70.1420  224.4030 C   0  0  0  0  0  0  0  0  0  0  0  0
  139.4420   69.0850  225.2590 C   0  0  0  0  0  0  0  0  0  0  0  0
  140.5670   69.0610  226.0780 C   0  0  0  0  0  0  0  0  0  0  0  0
  140.7900   67.6900  227.1230 Cl  0  0  0  0  0  0  0  0  0  0  0  0
  141.4310   70.1250  226.0110 C   0  0  0  0  0  0  0  0  0  0  0  0
  141.1960   71.1950  225.1530 C   0  0  0  0  0  0  0  0  0  0  0  0
  140.0780   71.2030  224.3480 C   0  0  0  0  0  0  0  0  0  0  0  0
  139.8620   72.2650  223.5080 N   0  0  0  0  0  0  0  0  0  0  0  0
  143.7110   74.1010  220.0760 C   0  0  0  0  0  0  0  0  0  0  0  0
  143.5730   72.7180  219.9510 C   0  0  0  0  0  0  0  0  0  0  0  0
  144.6020   71.8420  220.2040 C   0  0  0  0  0  0  0  0  0  0  0  0
  145.8270   72.3420  220.6010 C   0  0  0  0  0  0  0  0  0  0  0  0
  145.9880   73.7030  220.7320 C   0  0  0  0  0  0  0  0  0  0  0  0
  144.9530   74.6050  220.4790 C   0  0  0  0  0  0  0  0  0  0  0  0
  143.2468   77.0187  219.4085 H   0  0  0  0  0  0  0  0  0  0  0  0
  143.7755   75.7929  218.2066 H   0  0  0  0  0  0  0  0  0  0  0  0
  142.0766   76.3762  218.2066 H   0  0  0  0  0  0  0  0  0  0  0  0
  141.7887   74.4367  219.2872 H   0  0  0  0  0  0  0  0  0  0  0  0
  142.4680   75.4740  221.9290 H   0  0  0  0  0  0  0  0  0  0  0  0
  139.8216   75.7719  222.7569 H   0  0  0  0  0  0  0  0  0  0  0  0
  140.7656   77.6322  223.9476 H   0  0  0  0  0  0  0  0  0  0  0  0
  142.0169   77.4081  222.7431 H   0  0  0  0  0  0  0  0  0  0  0  0
  141.1763   79.1922  221.3755 H   0  0  0  0  0  0  0  0  0  0  0  0
  140.9770   82.1766  223.0785 H   0  0  0  0  0  0  0  0  0  0  0  0
  141.8430   81.3735  221.7251 H   0  0  0  0  0  0  0  0  0  0  0  0
  140.0482   81.4471  221.7251 H   0  0  0  0  0  0  0  0  0  0  0  0
  141.9316   79.9200  224.8466 H   0  0  0  0  0  0  0  0  0  0  0  0
  142.5266   78.9026  223.4910 H   0  0  0  0  0  0  0  0  0  0  0  0
  142.8397   80.6714  223.4910 H   0  0  0  0  0  0  0  0  0  0  0  0
  138.4877   79.3995  222.5244 H   0  0  0  0  0  0  0  0  0  0  0  0
  138.9927   79.2782  220.8281 H   0  0  0  0  0  0  0  0  0  0  0  0
  136.4161   75.3425  220.6785 H   0  0  0  0  0  0  0  0  0  0  0  0
  138.2098   75.3526  220.3513 H   0  0  0  0  0  0  0  0  0  0  0  0
  137.1850   74.5160  223.0790 H   0  0  0  0  0  0  0  0  0  0  0  0
  137.0265   71.2848  222.1088 H   0  0  0  0  0  0  0  0  0  0  0  0
  137.3401   69.3391  223.5872 H   0  0  0  0  0  0  0  0  0  0  0  0
  138.7320   68.2456  225.2939 H   0  0  0  0  0  0  0  0  0  0  0  0
  142.3275   70.1322  226.6484 H   0  0  0  0  0  0  0  0  0  0  0  0
  141.9042   72.0360  225.1174 H   0  0  0  0  0  0  0  0  0  0  0  0
  142.6002   72.3117  219.6369 H   0  0  0  0  0  0  0  0  0  0  0  0
  144.4519   70.7581  220.0918 H   0  0  0  0  0  0  0  0  0  0  0  0
  146.6645   71.6603  220.8102 H   0  0  0  0  0  0  0  0  0  0  0  0
  146.9669   74.0935  221.0472 H   0  0  0  0  0  0  0  0  0  0  0  0
  145.1101   75.6877  220.5938 H   0  0  0  0  0  0  0  0  0  0  0  0
  1  2  1  0
  2  3  1  0
  3  4  1  0
  4  5  2  0
  4  6  1  0
  6  7  1  0
  7  8  1  0
  8  9  1  0
  9 10  1  0
  9 11  1  0
  8 12  1  0
 12 13  1  0
 13 14  1  0
 14 15  2  0
 14 16  1  0
 16 17  1  0
 17 18  1  0
 18 19  2  0
 18 20  1  0
 20 21  2  0
 21 22  1  0
 22 23  2  0
 23 24  1  0
 24 25  2  0
 25 26  1  0
 25 27  1  0
 27 28  2  0
 28 29  1  0
 29 30  2  0
  2 31  1  0
 31 32  2  0
 32 33  1  0
 33 34  2  0
 34 35  1  0
 35 36  2  0
 13  6  1  0
 30 20  1  0
 36 31  1  0
 29 23  1  0
  1 37  1  0
  1 38  1  0
  1 39  1  0
  2 40  1  6
  3 41  1  0
  6 42  1  1
  7 43  1  0
  7 44  1  0
  8 45  1  6
 10 46  1  0
 10 47  1  0
 10 48  1  0
 11 49  1  0
 11 50  1  0
 11 51  1  0
 12 52  1  0
 12 53  1  0
 16 54  1  0
 16 55  1  0
 17 56  1  0
 21 57  1  0
 22 58  1  0
 24 59  1  0
 27 60  1  0
 28 61  1  0
 32 62  1  0
 33 63  1  0
 34 64  1  0
 35 65  1  0
 36 66  1  0
M  END
>  <smiles>  (2) 
CC(NC(=O)[C@H]1C[C@H](N(C)C)CN1C(=O)CNC(=O)c1ccc2cc(Cl)ccc2n1)c1ccccc1

>  <score_type>  (2) 
oracle

>  <origin>  (2) 
autodockgpu

>  <m_score__min__energy>  (2) 
-9.8300000000000001

>  <m_primary>  (2) 
energy

>  <rmsd>  (2) 
5.500603535810575

>  <m_score__min__rmsd>  (2) 
5.500603535810575

>  <meeko>  (2) 
{"free_energy": -8.73, "intermolecular_energy": -11.12, "internal_energy": -2.22, "cluster_size": 4, "cluster_id": 3, "rank_in_cluster": 3}

>  <energy>  (2) 
-9.62

>  <cluster_rmsd>  (2) 
0.92

>  <cluster>  (2) 
1

$$$$

     RDKit          3D

 66 69  0  0  1  0  0  0  0  0999 V2000
  140.4730   80.4160  219.3090 C   0  0  0  0  0  0  0  0  0  0  0  0
  141.4500   79.4880  219.9750 C   0  0  2  0  0  0  0  0  0  0  0  0
  141.0610   78.0920  219.8540 N   0  0  0  0  0  0  0  0  0  0  0  0
  142.0280   77.1860  219.2910 C   0  0  0  0  0  0  0  0  0  0  0  0
  143.1720   77.5980  218.9210 O   0  0  0  0  0  0  0  0  0  0  0  0
  141.6580   75.7650  219.1550 C   0  0  1  0  0  0  0  0  0  0  0  0
  142.8870   74.8680  219.0980 C   0  0  0  0  0  0  0  0  0  0  0  0
  143.1250   74.5230  220.5480 C   0  0  2  0  0  0  0  0  0  0  0  0
  143.8900   73.3390  220.7590 N   0  0  0  0  0  0  0  0  0  0  0  0
  145.1390   73.2970  220.0630 C   0  0  0  0  0  0  0  0  0  0  0  0
  143.1180   72.1770  220.4520 C   0  0  0  0  0  0  0  0  0  0  0  0
  141.8050   74.5940  221.2290 C   0  0  0  0  0  0  0  0  0  0  0  0
  140.8990   75.2870  220.3060 N   0  0  0  0  0  0  0  0  0  0  0  0
  139.4990   75.4590  220.5170 C   0  0  0  0  0  0  0  0  0  0  0  0
  139.0380   76.6260  220.6060 O   0  0  0  0  0  0  0  0  0  0  0  0
  138.6410   74.2460  220.6210 C   0  0  0  0  0  0  0  0  0  0  0  0
  138.7900   73.5570  221.8730 N   0  0  0  0  0  0  0  0  0  0  0  0
  139.4000   72.2660  221.8360 C   0  0  0  0  0  0  0  0  0  0  0  0
  139.7470   71.8700  220.6720 O   0  0  0  0  0  0  0  0  0  0  0  0
  139.6180   71.4500  223.0170 C   0  0  0  0  0  0  0  0  0  0  0  0
  139.2480   70.1230  222.9510 C   0  0  0  0  0  0  0  0  0  0  0  0
  139.3950   69.2330  223.9870 C   0  0  0  0  0  0  0  0  0  0  0  0
  139.9540   69.7210  225.1700 C   0  0  0  0  0  0  0  0  0  0  0  0
  140.1410   68.8990  226.2660 C   0  0  0  0  0  0  0  0  0  0  0  0
  140.6990   69.3820  227.4450 C   0  0  0  0  0  0  0  0  0  0  0  0
  140.8950   68.2740  228.7710 Cl  0  0  0  0  0  0  0  0  0  0  0  0
  141.0590   70.7050  227.4900 C   0  0  0  0  0  0  0  0  0  0  0  0
  140.8750   71.5420  226.3930 C   0  0  0  0  0  0  0  0  0  0  0  0
  140.3210   71.0490  225.2320 C   0  0  0  0  0  0  0  0  0  0  0  0
  140.1480   71.8870  224.1610 N   0  0  0  0  0  0  0  0  0  0  0  0
  141.7160   79.8700  221.4040 C   0  0  0  0  0  0  0  0  0  0  0  0
  141.8430   81.2070  221.7850 C   0  0  0  0  0  0  0  0  0  0  0  0
  142.0890   81.5900  223.0820 C   0  0  0  0  0  0  0  0  0  0  0  0
  142.2170   80.6180  224.0560 C   0  0  0  0  0  0  0  0  0  0  0  0
  142.0970   79.2930  223.7040 C   0  0  0  0  0  0  0  0  0  0  0  0
  141.8480   78.8880  222.3920 C   0  0  0  0  0  0  0  0  0  0  0  0
  139.9015   80.9589  220.0763 H   0  0  0  0  0  0  0  0  0  0  0  0
  141.0198   81.1353  218.6817 H   0  0  0  0  0  0  0  0  0  0  0  0
  139.7827   79.8329  218.6817 H   0  0  0  0  0  0  0  0  0  0  0  0
  142.3992   79.6013  219.4308 H   0  0  0  0  0  0  0  0  0  0  0  0
  140.1220   77.7650  220.1620 H   0  0  0  0  0  0  0  0  0  0  0  0
  141.0672   75.7135  218.2285 H   0  0  0  0  0  0  0  0  0  0  0  0
  142.6888   73.9636  218.5041 H   0  0  0  0  0  0  0  0  0  0  0  0
  143.7527   75.3497  218.6199 H   0  0  0  0  0  0  0  0  0  0  0  0
  143.7977   75.2561  221.0171 H   0  0  0  0  0  0  0  0  0  0  0  0
  145.9635   73.2693  220.7907 H   0  0  0  0  0  0  0  0  0  0  0  0
  145.1768   72.3971  219.4316 H   0  0  0  0  0  0  0  0  0  0  0  0
  145.2372   74.1923  219.4316 H   0  0  0  0  0  0  0  0  0  0  0  0
  142.7965   71.6931  221.3860 H   0  0  0  0  0  0  0  0  0  0  0  0
  142.2334   72.4686  219.8668 H   0  0  0  0  0  0  0  0  0  0  0  0
  143.7296   71.4745  219.8668 H   0  0  0  0  0  0  0  0  0  0  0  0
  141.4311   73.5813  221.4404 H   0  0  0  0  0  0  0  0  0  0  0  0
  141.8797   75.1261  222.1888 H   0  0  0  0  0  0  0  0  0  0  0  0
  137.5896   74.5502  220.5116 H   0  0  0  0  0  0  0  0  0  0  0  0
  138.9537   73.5534  219.8257 H   0  0  0  0  0  0  0  0  0  0  0  0
  138.4770   73.9470  222.8040 H   0  0  0  0  0  0  0  0  0  0  0  0
  138.8087   69.7551  222.0121 H   0  0  0  0  0  0  0  0  0  0  0  0
  139.0859   68.1819  223.8890 H   0  0  0  0  0  0  0  0  0  0  0  0
  139.8426   67.8421  226.2043 H   0  0  0  0  0  0  0  0  0  0  0  0
  141.5017   71.1124  228.4109 H   0  0  0  0  0  0  0  0  0  0  0  0
  141.1726   72.5993  226.4533 H   0  0  0  0  0  0  0  0  0  0  0  0
  141.7420   81.9864  221.0153 H   0  0  0  0  0  0  0  0  0  0  0  0
  142.1827   82.6550  223.3410 H   0  0  0  0  0  0  0  0  0  0  0  0
  142.4126   80.9003  225.1010 H   0  0  0  0  0  0  0  0  0  0  0  0
  142.2011   78.5255  224.4850 H   0  0  0  0  0  0  0  0  0  0  0  0
  141.7576   77.8210  222.1402 H   0  0  0  0  0  0  0  0  0  0  0  0
  1  2  1  0
  2  3  1  0
  3  4  1  0
  4  5  2  0
  4  6  1  0
  6  7  1  0
  7  8  1  0
  8  9  1  0
  9 10  1  0
  9 11  1  0
  8 12  1  0
 12 13  1  0
 13 14  1  0
 14 15  2  0
 14 16  1  0
 16 17  1  0
 17 18  1  0
 18 19  2  0
 18 20  1  0
 20 21  2  0
 21 22  1  0
 22 23  2  0
 23 24  1  0
 24 25  2  0
 25 26  1  0
 25 27  1  0
 27 28  2  0
 28 29  1  0
 29 30  2  0
  2 31  1  0
 31 32  2  0
 32 33  1  0
 33 34  2  0
 34 35  1  0
 35 36  2  0
 13  6  1  0
 30 20  1  0
 36 31  1  0
 29 23  1  0
  1 37  1  0
  1 38  1  0
  1 39  1  0
  2 40  1  6
  3 41  1  0
  6 42  1  6
  7 43  1  0
  7 44  1  0
  8 45  1  1
 10 46  1  0
 10 47  1  0
 10 48  1  0
 11 49  1  0
 11 50  1  0
 11 51  1  0
 12 52  1  0
 12 53  1  0
 16 54  1  0
 16 55  1  0
 17 56  1  0
 21 57  1  0
 22 58  1  0
 24 59  1  0
 27 60  1  0
 28 61  1  0
 32 62  1  0
 33 63  1  0
 34 64  1  0
 35 65  1  0
 36 66  1  0
M  END
>  <smiles>  (3) 
CC(NC(=O)[C@H]1C[C@H](N(C)C)CN1C(=O)CNC(=O)c1ccc2cc(Cl)ccc2n1)c1ccccc1

>  <score_type>  (3) 
oracle

>  <origin>  (3) 
autodockgpu

>  <m_score__min__energy>  (3) 
-9.8300000000000001

>  <m_primary>  (3) 
energy

>  <rmsd>  (3) 
2.9723490501001306

>  <m_score__min__rmsd>  (3) 
2.9723490501001306

>  <meeko>  (3) 
{"free_energy": -9.08, "intermolecular_energy": -11.47, "internal_energy": -3.07, "cluster_size": 20, "cluster_id": 2, "rank_in_cluster": 8}

>  <energy>  (3) 
-9.5

>  <cluster_rmsd>  (3) 
0.64

>  <cluster>  (3) 
1

$$$$

     RDKit          3D

 66 69  0  0  1  0  0  0  0  0999 V2000
  140.2460   71.8850  223.4670 C   0  0  0  0  0  0  0  0  0  0  0  0
  139.4240   70.8820  224.2300 C   0  0  2  0  0  0  0  0  0  0  0  0
  137.9960   71.1220  224.1000 N   0  0  0  0  0  0  0  0  0  0  0  0
  137.1580   69.9800  223.8420 C   0  0  0  0  0  0  0  0  0  0  0  0
  137.6550   68.8140  223.7370 O   0  0  0  0  0  0  0  0  0  0  0  0
  135.7060   70.1950  223.7040 C   0  0  1  0  0  0  0  0  0  0  0  0
  134.9130   68.9670  224.1320 C   0  0  0  0  0  0  0  0  0  0  0  0
  134.6700   69.2120  225.6010 C   0  0  2  0  0  0  0  0  0  0  0  0
  133.5670   68.4930  226.1470 N   0  0  0  0  0  0  0  0  0  0  0  0
  133.6910   67.0690  226.0960 C   0  0  0  0  0  0  0  0  0  0  0  0
  132.3430   68.9010  225.5340 C   0  0  0  0  0  0  0  0  0  0  0  0
  134.6660   70.6860  225.7960 C   0  0  0  0  0  0  0  0  0  0  0  0
  135.2300   71.2680  224.5720 N   0  0  0  0  0  0  0  0  0  0  0  0
  135.2940   72.6650  224.2910 C   0  0  0  0  0  0  0  0  0  0  0  0
  135.0850   73.4810  225.2260 O   0  0  0  0  0  0  0  0  0  0  0  0
  135.6100   73.0970  222.9010 C   0  0  0  0  0  0  0  0  0  0  0  0
  136.6710   74.0640  222.8400 N   0  0  0  0  0  0  0  0  0  0  0  0
  136.2970   75.4420  222.8790 C   0  0  0  0  0  0  0  0  0  0  0  0
  135.0410   75.6550  222.9650 O   0  0  0  0  0  0  0  0  0  0  0  0
  137.2550   76.5320  222.8260 C   0  0  0  0  0  0  0  0  0  0  0  0
  136.7560   77.8190  222.8520 C   0  0  0  0  0  0  0  0  0  0  0  0
  137.5400   78.9450  222.8100 C   0  0  0  0  0  0  0  0  0  0  0  0
  138.9220   78.7570  222.7350 C   0  0  0  0  0  0  0  0  0  0  0  0
  139.7900   79.8320  222.6890 C   0  0  0  0  0  0  0  0  0  0  0  0
  141.1670   79.6480  222.6160 C   0  0  0  0  0  0  0  0  0  0  0  0
  142.1800   81.0590  222.5610 Cl  0  0  0  0  0  0  0  0  0  0  0  0
  141.6410   78.3600  222.5900 C   0  0  0  0  0  0  0  0  0  0  0  0
  140.7770   77.2700  222.6360 C   0  0  0  0  0  0  0  0  0  0  0  0
  139.4160   77.4690  222.7080 C   0  0  0  0  0  0  0  0  0  0  0  0
  138.5790   76.3840  222.7540 N   0  0  0  0  0  0  0  0  0  0  0  0
  139.8440   70.7790  225.6690 C   0  0  0  0  0  0  0  0  0  0  0  0
  140.6580   71.7470  226.2580 C   0  0  0  0  0  0  0  0  0  0  0  0
  141.0630   71.6810  227.5700 C   0  0  0  0  0  0  0  0  0  0  0  0
  140.6500   70.6150  228.3460 C   0  0  0  0  0  0  0  0  0  0  0  0
  139.8470   69.6470  227.7870 C   0  0  0  0  0  0  0  0  0  0  0  0
  139.4290   69.7000  226.4560 C   0  0  0  0  0  0  0  0  0  0  0  0
  140.7797   72.5362  224.1749 H   0  0  0  0  0  0  0  0  0  0  0  0
  140.9743   71.3567  222.8341 H   0  0  0  0  0  0  0  0  0  0  0  0
  139.5850   72.4954  222.8341 H   0  0  0  0  0  0  0  0  0  0  0  0
  139.6243   69.9044  223.7673 H   0  0  0  0  0  0  0  0  0  0  0  0
  137.6000   72.0800  224.1890 H   0  0  0  0  0  0  0  0  0  0  0  0
  135.5544   70.4331  222.6408 H   0  0  0  0  0  0  0  0  0  0  0  0
  133.9636   68.8981  223.5807 H   0  0  0  0  0  0  0  0  0  0  0  0
  135.4385   68.0215  223.9323 H   0  0  0  0  0  0  0  0  0  0  0  0
  135.4820   68.7838  226.2070 H   0  0  0  0  0  0  0  0  0  0  0  0
  133.7260   66.6671  227.1193 H   0  0  0  0  0  0  0  0  0  0  0  0
  132.8264   66.6445  225.5647 H   0  0  0  0  0  0  0  0  0  0  0  0
  134.6159   66.8003  225.5647 H   0  0  0  0  0  0  0  0  0  0  0  0
  131.6066   69.1465  226.3134 H   0  0  0  0  0  0  0  0  0  0  0  0
  132.5239   69.7874  224.9083 H   0  0  0  0  0  0  0  0  0  0  0  0
  131.9559   68.0833  224.9083 H   0  0  0  0  0  0  0  0  0  0  0  0
  133.6382   71.0465  225.9500 H   0  0  0  0  0  0  0  0  0  0  0  0
  135.2532   70.9726  226.6809 H   0  0  0  0  0  0  0  0  0  0  0  0
  135.9080   72.2127  222.3185 H   0  0  0  0  0  0  0  0  0  0  0  0
  134.7071   73.5737  222.4918 H   0  0  0  0  0  0  0  0  0  0  0  0
  137.6960   73.8150  222.7690 H   0  0  0  0  0  0  0  0  0  0  0  0
  135.6653   77.9499  222.9098 H   0  0  0  0  0  0  0  0  0  0  0  0
  137.0987   79.9523  222.8344 H   0  0  0  0  0  0  0  0  0  0  0  0
  139.3835   80.8539  222.7106 H   0  0  0  0  0  0  0  0  0  0  0  0
  142.7256   78.1859  222.5316 H   0  0  0  0  0  0  0  0  0  0  0  0
  141.1818   76.2474  222.6148 H   0  0  0  0  0  0  0  0  0  0  0  0
  140.9898   72.5991  225.6466 H   0  0  0  0  0  0  0  0  0  0  0  0
  141.7063   72.4652  227.9957 H   0  0  0  0  0  0  0  0  0  0  0  0
  140.9596   70.5408  229.3989 H   0  0  0  0  0  0  0  0  0  0  0  0
  139.5230   68.8013  228.4113 H   0  0  0  0  0  0  0  0  0  0  0  0
  138.7879   68.9110  226.0359 H   0  0  0  0  0  0  0  0  0  0  0  0
  1  2  1  0
  2  3  1  0
  3  4  1  0
  4  5  2  0
  4  6  1  0
  6  7  1  0
  7  8  1  0
  8  9  1  0
  9 10  1  0
  9 11  1  0
  8 12  1  0
 12 13  1  0
 13 14  1  0
 14 15  2  0
 14 16  1  0
 16 17  1  0
 17 18  1  0
 18 19  2  0
 18 20  1  0
 20 21  2  0
 21 22  1  0
 22 23  2  0
 23 24  1  0
 24 25  2  0
 25 26  1  0
 25 27  1  0
 27 28  2  0
 28 29  1  0
 29 30  2  0
  2 31  1  0
 31 32  2  0
 32 33  1  0
 33 34  2  0
 34 35  1  0
 35 36  2  0
 13  6  1  0
 30 20  1  0
 36 31  1  0
 29 23  1  0
  1 37  1  0
  1 38  1  0
  1 39  1  0
  2 40  1  6
  3 41  1  0
  6 42  1  6
  7 43  1  0
  7 44  1  0
  8 45  1  1
 10 46  1  0
 10 47  1  0
 10 48  1  0
 11 49  1  0
 11 50  1  0
 11 51  1  0
 12 52  1  0
 12 53  1  0
 16 54  1  0
 16 55  1  0
 17 56  1  0
 21 57  1  0
 22 58  1  0
 24 59  1  0
 27 60  1  0
 28 61  1  0
 32 62  1  0
 33 63  1  0
 34 64  1  0
 35 65  1  0
 36 66  1  0
M  END
>  <smiles>  (4) 
CC(NC(=O)[C@H]1C[C@H](N(C)C)CN1C(=O)CNC(=O)c1ccc2cc(Cl)ccc2n1)c1ccccc1

>  <score_type>  (4) 
oracle

>  <origin>  (4) 
autodockgpu

>  <m_score__min__energy>  (4) 
-9.8300000000000001

>  <m_primary>  (4) 
energy

>  <rmsd>  (4) 
9.694408775687304

>  <m_score__min__rmsd>  (4) 
9.694408775687304

>  <meeko>  (4) 
{"free_energy": -9.5, "intermolecular_energy": -11.88, "internal_energy": -2.32, "cluster_size": 16, "cluster_id": 1, "rank_in_cluster": 3}

>  <energy>  (4) 
-9.45

>  <cluster_rmsd>  (4) 
1.05

>  <cluster>  (4) 
1

$$$$

     RDKit          3D

 66 69  0  0  1  0  0  0  0  0999 V2000
  142.1930   78.9670  223.3260 C   0  0  0  0  0  0  0  0  0  0  0  0
  141.1380   77.9740  222.9220 C   0  0  2  0  0  0  0  0  0  0  0  0
  141.4480   77.3180  221.6610 N   0  0  0  0  0  0  0  0  0  0  0  0
  140.9560   75.9770  221.4800 C   0  0  0  0  0  0  0  0  0  0  0  0
  140.2770   75.4000  222.3880 O   0  0  0  0  0  0  0  0  0  0  0  0
  141.2570   75.2880  220.2130 C   0  0  1  0  0  0  0  0  0  0  0  0
  142.7520   75.0490  220.0450 C   0  0  0  0  0  0  0  0  0  0  0  0
  142.9530   73.6900  220.6710 C   0  0  2  0  0  0  0  0  0  0  0  0
  144.1280   73.0070  220.2410 N   0  0  0  0  0  0  0  0  0  0  0  0
  144.1000   71.5890  220.4200 C   0  0  0  0  0  0  0  0  0  0  0  0
  145.2900   73.5580  220.8630 C   0  0  0  0  0  0  0  0  0  0  0  0
  141.6670   72.9570  220.5300 C   0  0  0  0  0  0  0  0  0  0  0  0
  140.6590   73.9570  220.1600 N   0  0  0  0  0  0  0  0  0  0  0  0
  139.3090   73.6590  219.8070 C   0  0  0  0  0  0  0  0  0  0  0  0
  139.0380   73.4140  218.6030 O   0  0  0  0  0  0  0  0  0  0  0  0
  138.2780   73.6470  220.8820 C   0  0  0  0  0  0  0  0  0  0  0  0
  138.7930   73.2090  222.1500 N   0  0  0  0  0  0  0  0  0  0  0  0
  138.9910   71.8040  222.3210 C   0  0  0  0  0  0  0  0  0  0  0  0
  138.6820   71.0920  221.3070 O   0  0  0  0  0  0  0  0  0  0  0  0
  139.5030   71.2120  223.5440 C   0  0  0  0  0  0  0  0  0  0  0  0
  140.4930   71.8990  224.2170 C   0  0  0  0  0  0  0  0  0  0  0  0
  141.0710   71.4620  225.3840 C   0  0  0  0  0  0  0  0  0  0  0  0
  140.6170   70.2480  225.9030 C   0  0  0  0  0  0  0  0  0  0  0  0
  141.1390   69.7300  227.0730 C   0  0  0  0  0  0  0  0  0  0  0  0
  140.6870   68.5220  227.5950 C   0  0  0  0  0  0  0  0  0  0  0  0
  141.4040   67.9490  229.0720 Cl  0  0  0  0  0  0  0  0  0  0  0  0
  139.7030   67.8560  226.9100 C   0  0  0  0  0  0  0  0  0  0  0  0
  139.1700   68.3680  225.7310 C   0  0  0  0  0  0  0  0  0  0  0  0
  139.6280   69.5650  225.2270 C   0  0  0  0  0  0  0  0  0  0  0  0
  139.0900   70.0550  224.0650 N   0  0  0  0  0  0  0  0  0  0  0  0
  139.7620   78.5770  222.9130 C   0  0  0  0  0  0  0  0  0  0  0  0
  139.3990   79.5690  223.8250 C   0  0  0  0  0  0  0  0  0  0  0  0
  138.1480   80.1390  223.8460 C   0  0  0  0  0  0  0  0  0  0  0  0
  137.2040   79.7190  222.9280 C   0  0  0  0  0  0  0  0  0  0  0  0
  137.5380   78.7410  222.0190 C   0  0  0  0  0  0  0  0  0  0  0  0
  138.8040   78.1520  221.9860 C   0  0  0  0  0  0  0  0  0  0  0  0
  142.2473   79.0181  224.4235 H   0  0  0  0  0  0  0  0  0  0  0  0
  143.1672   78.6505  222.9250 H   0  0  0  0  0  0  0  0  0  0  0  0
  141.9360   79.9586  222.9250 H   0  0  0  0  0  0  0  0  0  0  0  0
  141.1398   77.1920  223.6956 H   0  0  0  0  0  0  0  0  0  0  0  0
  142.0020   77.7990  220.9250 H   0  0  0  0  0  0  0  0  0  0  0  0
  140.8537   75.9472  219.4302 H   0  0  0  0  0  0  0  0  0  0  0  0
  143.0335   75.0397  218.9817 H   0  0  0  0  0  0  0  0  0  0  0  0
  143.3701   75.8335  220.5059 H   0  0  0  0  0  0  0  0  0  0  0  0
  143.1825   73.7850  221.7426 H   0  0  0  0  0  0  0  0  0  0  0  0
  144.0954   71.3551  221.4948 H   0  0  0  0  0  0  0  0  0  0  0  0
  143.1936   71.1781  219.9514 H   0  0  0  0  0  0  0  0  0  0  0  0
  144.9895   71.1426  219.9514 H   0  0  0  0  0  0  0  0  0  0  0  0
  145.1802   73.5059  221.9563 H   0  0  0  0  0  0  0  0  0  0  0  0
  146.1771   72.9846  220.5559 H   0  0  0  0  0  0  0  0  0  0  0  0
  145.4074   74.6077  220.5559 H   0  0  0  0  0  0  0  0  0  0  0  0
  141.7496   72.1913  219.7445 H   0  0  0  0  0  0  0  0  0  0  0  0
  141.3957   72.4439  221.4644 H   0  0  0  0  0  0  0  0  0  0  0  0
  137.8811   74.6663  220.9982 H   0  0  0  0  0  0  0  0  0  0  0  0
  137.4969   72.9337  220.5803 H   0  0  0  0  0  0  0  0  0  0  0  0
  139.0280   73.8590  222.9500 H   0  0  0  0  0  0  0  0  0  0  0  0
  140.8398   72.8532  223.7937 H   0  0  0  0  0  0  0  0  0  0  0  0
  141.8574   72.0433  225.8877 H   0  0  0  0  0  0  0  0  0  0  0  0
  141.9281   70.2841  227.6025 H   0  0  0  0  0  0  0  0  0  0  0  0
  139.3278   66.8984  227.3002 H   0  0  0  0  0  0  0  0  0  0  0  0
  138.3809   67.8153  225.2002 H   0  0  0  0  0  0  0  0  0  0  0  0
  140.1453   79.9092  224.5580 H   0  0  0  0  0  0  0  0  0  0  0  0
  137.9020   80.9180  224.5827 H   0  0  0  0  0  0  0  0  0  0  0  0
  136.1969   80.1615  222.9239 H   0  0  0  0  0  0  0  0  0  0  0  0
  136.7807   78.4114  221.2924 H   0  0  0  0  0  0  0  0  0  0  0  0
  139.0425   77.3718  221.2481 H   0  0  0  0  0  0  0  0  0  0  0  0
  1  2  1  0
  2  3  1  0
  3  4  1  0
  4  5  2  0
  4  6  1  0
  6  7  1  0
  7  8  1  0
  8  9  1  0
  9 10  1  0
  9 11  1  0
  8 12  1  0
 12 13  1  0
 13 14  1  0
 14 15  2  0
 14 16  1  0
 16 17  1  0
 17 18  1  0
 18 19  2  0
 18 20  1  0
 20 21  2  0
 21 22  1  0
 22 23  2  0
 23 24  1  0
 24 25  2  0
 25 26  1  0
 25 27  1  0
 27 28  2  0
 28 29  1  0
 29 30  2  0
  2 31  1  0
 31 32  2  0
 32 33  1  0
 33 34  2  0
 34 35  1  0
 35 36  2  0
 13  6  1  0
 30 20  1  0
 36 31  1  0
 29 23  1  0
  1 37  1  0
  1 38  1  0
  1 39  1  0
  2 40  1  1
  3 41  1  0
  6 42  1  6
  7 43  1  0
  7 44  1  0
  8 45  1  1
 10 46  1  0
 10 47  1  0
 10 48  1  0
 11 49  1  0
 11 50  1  0
 11 51  1  0
 12 52  1  0
 12 53  1  0
 16 54  1  0
 16 55  1  0
 17 56  1  0
 21 57  1  0
 22 58  1  0
 24 59  1  0
 27 60  1  0
 28 61  1  0
 32 62  1  0
 33 63  1  0
 34 64  1  0
 35 65  1  0
 36 66  1  0
M  END
>  <smiles>  (5) 
CC(NC(=O)[C@H]1C[C@H](N(C)C)CN1C(=O)CNC(=O)c1ccc2cc(Cl)ccc2n1)c1ccccc1

>  <score_type>  (5) 
oracle

>  <origin>  (5) 
autodockgpu

>  <m_score__min__energy>  (5) 
-9.8300000000000001

>  <m_primary>  (5) 
energy

>  <rmsd>  (5) 
3.1975220623905565

>  <m_score__min__rmsd>  (5) 
3.1975220623905565

>  <meeko>  (5) 
{"free_energy": -8.96, "intermolecular_energy": -11.34, "internal_energy": -2.88, "cluster_size": 20, "cluster_id": 2, "rank_in_cluster": 10}

>  <energy>  (5) 
-9.44

>  <cluster_rmsd>  (5) 
0.67

>  <cluster>  (5) 
1

$$$$

     RDKit          3D

 66 69  0  0  1  0  0  0  0  0999 V2000
  139.6140   70.3300  222.9070 C   0  0  0  0  0  0  0  0  0  0  0  0
  138.9880   69.5390  224.0210 C   0  0  2  0  0  0  0  0  0  0  0  0
  137.5370   69.5020  223.9290 N   0  0  0  0  0  0  0  0  0  0  0  0
  136.8480   70.7660  223.8870 C   0  0  0  0  0  0  0  0  0  0  0  0
  137.4910   71.8630  223.9260 O   0  0  0  0  0  0  0  0  0  0  0  0
  135.3770   70.7570  223.7960 C   0  0  1  0  0  0  0  0  0  0  0  0
  134.7980   69.4080  224.2020 C   0  0  0  0  0  0  0  0  0  0  0  0
  134.5670   69.5680  225.6850 C   0  0  2  0  0  0  0  0  0  0  0  0
  133.6070   68.6700  226.2360 N   0  0  0  0  0  0  0  0  0  0  0  0
  133.9190   67.2830  226.0790 C   0  0  0  0  0  0  0  0  0  0  0  0
  132.3030   68.9410  225.7170 C   0  0  0  0  0  0  0  0  0  0  0  0
  134.3410   71.0170  225.9310 C   0  0  0  0  0  0  0  0  0  0  0  0
  134.7690   71.7160  224.7130 N   0  0  0  0  0  0  0  0  0  0  0  0
  134.6070   73.1130  224.4790 C   0  0  0  0  0  0  0  0  0  0  0  0
  134.1340   73.8310  225.3980 O   0  0  0  0  0  0  0  0  0  0  0  0
  135.0090   73.6640  223.1550 C   0  0  0  0  0  0  0  0  0  0  0  0
  136.3090   74.2750  223.1710 N   0  0  0  0  0  0  0  0  0  0  0  0
  136.3850   75.6520  222.8000 C   0  0  0  0  0  0  0  0  0  0  0  0
  135.2660   76.1870  222.4930 O   0  0  0  0  0  0  0  0  0  0  0  0
  137.6260   76.4050  222.7690 C   0  0  0  0  0  0  0  0  0  0  0  0
  138.7630   75.7400  222.3570 C   0  0  0  0  0  0  0  0  0  0  0  0
  140.0040   76.3220  222.2760 C   0  0  0  0  0  0  0  0  0  0  0  0
  140.1010   77.6670  222.6370 C   0  0  0  0  0  0  0  0  0  0  0  0
  141.3100   78.3370  222.5870 C   0  0  0  0  0  0  0  0  0  0  0  0
  141.4100   79.6780  222.9440 C   0  0  0  0  0  0  0  0  0  0  0  0
  142.9710   80.4360  222.8500 Cl  0  0  0  0  0  0  0  0  0  0  0  0
  140.2670   80.3200  223.3510 C   0  0  0  0  0  0  0  0  0  0  0  0
  139.0450   79.6560  223.4060 C   0  0  0  0  0  0  0  0  0  0  0  0
  138.9630   78.3270  223.0490 C   0  0  0  0  0  0  0  0  0  0  0  0
  137.7510   77.6890  223.1070 N   0  0  0  0  0  0  0  0  0  0  0  0
  139.4490   70.0000  225.3750 C   0  0  0  0  0  0  0  0  0  0  0  0
  139.1580   69.2690  226.5280 C   0  0  0  0  0  0  0  0  0  0  0  0
  139.5620   69.6650  227.7810 C   0  0  0  0  0  0  0  0  0  0  0  0
  140.2860   70.8340  227.9150 C   0  0  0  0  0  0  0  0  0  0  0  0
  140.5850   71.5720  226.7930 C   0  0  0  0  0  0  0  0  0  0  0  0
  140.1820   71.1840  225.5140 C   0  0  0  0  0  0  0  0  0  0  0  0
  140.2438   71.1258  223.3313 H   0  0  0  0  0  0  0  0  0  0  0  0
  140.2325   69.6642  222.2871 H   0  0  0  0  0  0  0  0  0  0  0  0
  138.8239   70.7789  222.2871 H   0  0  0  0  0  0  0  0  0  0  0  0
  139.3396   68.5041  223.8974 H   0  0  0  0  0  0  0  0  0  0  0  0
  137.0220   68.5990  223.8960 H   0  0  0  0  0  0  0  0  0  0  0  0
  135.1561   71.0012  222.7464 H   0  0  0  0  0  0  0  0  0  0  0  0
  133.8537   69.2085  223.6744 H   0  0  0  0  0  0  0  0  0  0  0  0
  135.4569   68.5624  223.9554 H   0  0  0  0  0  0  0  0  0  0  0  0
  135.4547   69.2533  226.2533 H   0  0  0  0  0  0  0  0  0  0  0  0
  134.0240   66.8164  227.0696 H   0  0  0  0  0  0  0  0  0  0  0  0
  133.1103   66.7858  225.5233 H   0  0  0  0  0  0  0  0  0  0  0  0
  134.8627   67.1801  225.5233 H   0  0  0  0  0  0  0  0  0  0  0  0
  131.5998   69.0871  226.5502 H   0  0  0  0  0  0  0  0  0  0  0  0
  132.3356   69.8516  225.1007 H   0  0  0  0  0  0  0  0  0  0  0  0
  131.9701   68.0929  225.1007 H   0  0  0  0  0  0  0  0  0  0  0  0
  133.2752   71.2083  226.1248 H   0  0  0  0  0  0  0  0  0  0  0  0
  134.9045   71.3650  226.8093 H   0  0  0  0  0  0  0  0  0  0  0  0
  135.0165   72.8439  222.4220 H   0  0  0  0  0  0  0  0  0  0  0  0
  134.2819   74.4458  222.8902 H   0  0  0  0  0  0  0  0  0  0  0  0
  137.1980   73.7680  223.4370 H   0  0  0  0  0  0  0  0  0  0  0  0
  138.6694   74.6804  222.0768 H   0  0  0  0  0  0  0  0  0  0  0  0
  140.8838   75.7530  221.9411 H   0  0  0  0  0  0  0  0  0  0  0  0
  142.2111   77.7985  222.2582 H   0  0  0  0  0  0  0  0  0  0  0  0
  140.3178   81.3803  223.6394 H   0  0  0  0  0  0  0  0  0  0  0  0
  138.1429   80.1927  223.7350 H   0  0  0  0  0  0  0  0  0  0  0  0
  138.5815   68.3373  226.4300 H   0  0  0  0  0  0  0  0  0  0  0  0
  139.3122   69.0594  228.6647 H   0  0  0  0  0  0  0  0  0  0  0  0
  140.6196   71.1709  228.9075 H   0  0  0  0  0  0  0  0  0  0  0  0
  141.1624   72.5012  226.9079 H   0  0  0  0  0  0  0  0  0  0  0  0
  140.4349   71.7952  224.6351 H   0  0  0  0  0  0  0  0  0  0  0  0
  1  2  1  0
  2  3  1  0
  3  4  1  0
  4  5  2  0
  4  6  1  0
  6  7  1  0
  7  8  1  0
  8  9  1  0
  9 10  1  0
  9 11  1  0
  8 12  1  0
 12 13  1  0
 13 14  1  0
 14 15  2  0
 14 16  1  0
 16 17  1  0
 17 18  1  0
 18 19  2  0
 18 20  1  0
 20 21  2  0
 21 22  1  0
 22 23  2  0
 23 24  1  0
 24 25  2  0
 25 26  1  0
 25 27  1  0
 27 28  2  0
 28 29  1  0
 29 30  2  0
  2 31  1  0
 31 32  2  0
 32 33  1  0
 33 34  2  0
 34 35  1  0
 35 36  2  0
 13  6  1  0
 30 20  1  0
 36 31  1  0
 29 23  1  0
  1 37  1  0
  1 38  1  0
  1 39  1  0
  2 40  1  6
  3 41  1  0
  6 42  1  6
  7 43  1  0
  7 44  1  0
  8 45  1  1
 10 46  1  0
 10 47  1  0
 10 48  1  0
 11 49  1  0
 11 50  1  0
 11 51  1  0
 12 52  1  0
 12 53  1  0
 16 54  1  0
 16 55  1  0
 17 56  1  0
 21 57  1  0
 22 58  1  0
 24 59  1  0
 27 60  1  0
 28 61  1  0
 32 62  1  0
 33 63  1  0
 34 64  1  0
 35 65  1  0
 36 66  1  0
M  END
>  <smiles>  (6) 
CC(NC(=O)[C@H]1C[C@H](N(C)C)CN1C(=O)CNC(=O)c1ccc2cc(Cl)ccc2n1)c1ccccc1

>  <score_type>  (6) 
oracle

>  <origin>  (6) 
autodockgpu

>  <m_score__min__energy>  (6) 
-9.8300000000000001

>  <m_primary>  (6) 
energy

>  <rmsd>  (6) 
9.880990492036414

>  <m_score__min__rmsd>  (6) 
9.880990492036414

>  <meeko>  (6) 
{"free_energy": -9.24, "intermolecular_energy": -11.63, "internal_energy": -2.72, "cluster_size": 16, "cluster_id": 1, "rank_in_cluster": 6}

>  <energy>  (6) 
-9.24

>  <cluster_rmsd>  (6) 
1.03

>  <cluster>  (6) 
1

$$$$

     RDKit          3D

 66 69  0  0  1  0  0  0  0  0999 V2000
  141.0040   80.3150  218.9770 C   0  0  0  0  0  0  0  0  0  0  0  0
  141.8970   79.5360  219.9030 C   0  0  2  0  0  0  0  0  0  0  0  0
  141.5660   78.1200  219.9320 N   0  0  0  0  0  0  0  0  0  0  0  0
  142.1320   77.2920  218.8980 C   0  0  0  0  0  0  0  0  0  0  0  0
  142.8900   77.7860  218.0050 O   0  0  0  0  0  0  0  0  0  0  0  0
  141.8110   75.8530  218.9030 C   0  0  1  0  0  0  0  0  0  0  0  0
  143.0060   75.0100  218.4760 C   0  0  0  0  0  0  0  0  0  0  0  0
  143.7010   74.7180  219.7840 C   0  0  2  0  0  0  0  0  0  0  0  0
  144.5530   73.5750  219.7590 N   0  0  0  0  0  0  0  0  0  0  0  0
  143.9100   72.3370  220.0710 C   0  0  0  0  0  0  0  0  0  0  0  0
  145.6850   73.7690  220.6100 C   0  0  0  0  0  0  0  0  0  0  0  0
  142.6570   74.7480  220.8420 C   0  0  0  0  0  0  0  0  0  0  0  0
  141.4750   75.3740  220.2400 N   0  0  0  0  0  0  0  0  0  0  0  0
  140.2030   75.4890  220.8760 C   0  0  0  0  0  0  0  0  0  0  0  0
  139.9200   76.5580  221.4760 O   0  0  0  0  0  0  0  0  0  0  0  0
  139.2630   74.3360  220.8010 C   0  0  0  0  0  0  0  0  0  0  0  0
  139.2080   73.5750  222.0170 N   0  0  0  0  0  0  0  0  0  0  0  0
  140.0670   72.4380  222.1130 C   0  0  0  0  0  0  0  0  0  0  0  0
  140.7970   72.2300  221.0860 O   0  0  0  0  0  0  0  0  0  0  0  0
  140.1230   71.5730  223.2780 C   0  0  0  0  0  0  0  0  0  0  0  0
  139.6370   70.2890  223.1410 C   0  0  0  0  0  0  0  0  0  0  0  0
  139.6260   69.3620  224.1540 C   0  0  0  0  0  0  0  0  0  0  0  0
  140.1410   69.7620  225.3890 C   0  0  0  0  0  0  0  0  0  0  0  0
  140.1710   68.8960  226.4660 C   0  0  0  0  0  0  0  0  0  0  0  0
  140.6860   69.2910  227.6970 C   0  0  0  0  0  0  0  0  0  0  0  0
  140.6830   68.1340  228.9950 Cl  0  0  0  0  0  0  0  0  0  0  0  0
  141.1640   70.5720  227.8120 C   0  0  0  0  0  0  0  0  0  0  0  0
  141.1380   71.4520  226.7340 C   0  0  0  0  0  0  0  0  0  0  0  0
  140.6250   71.0460  225.5210 C   0  0  0  0  0  0  0  0  0  0  0  0
  140.6090   71.9260  224.4700 N   0  0  0  0  0  0  0  0  0  0  0  0
  141.9380   80.1270  221.2840 C   0  0  0  0  0  0  0  0  0  0  0  0
  141.4800   81.4210  221.5330 C   0  0  0  0  0  0  0  0  0  0  0  0
  141.5070   81.9920  222.7840 C   0  0  0  0  0  0  0  0  0  0  0  0
  142.0070   81.2610  223.8440 C   0  0  0  0  0  0  0  0  0  0  0  0
  142.4650   79.9820  223.6230 C   0  0  0  0  0  0  0  0  0  0  0  0
  142.4450   79.3890  222.3600 C   0  0  0  0  0  0  0  0  0  0  0  0
  140.3051   80.9247  219.5684 H   0  0  0  0  0  0  0  0  0  0  0  0
  141.6173   80.9719  218.3426 H   0  0  0  0  0  0  0  0  0  0  0  0
  140.4365   79.6182  218.3426 H   0  0  0  0  0  0  0  0  0  0  0  0
  142.9132   79.6157  219.4894 H   0  0  0  0  0  0  0  0  0  0  0  0
  140.9460   77.7260  220.6680 H   0  0  0  0  0  0  0  0  0  0  0  0
  140.9639   75.7493  218.2089 H   0  0  0  0  0  0  0  0  0  0  0  0
  142.6794   74.0809  217.9859 H   0  0  0  0  0  0  0  0  0  0  0  0
  143.6537   75.5156  217.7446 H   0  0  0  0  0  0  0  0  0  0  0  0
  144.4467   75.4940  220.0114 H   0  0  0  0  0  0  0  0  0  0  0  0
  143.8494   72.2203  221.1631 H   0  0  0  0  0  0  0  0  0  0  0  0
  142.8959   72.3330  219.6450 H   0  0  0  0  0  0  0  0  0  0  0  0
  144.4900   71.5050  219.6450 H   0  0  0  0  0  0  0  0  0  0  0  0
  145.3668   73.7145  221.6616 H   0  0  0  0  0  0  0  0  0  0  0  0
  146.4314   72.9857  220.4117 H   0  0  0  0  0  0  0  0  0  0  0  0
  146.1279   74.7561  220.4117 H   0  0  0  0  0  0  0  0  0  0  0  0
  142.4198   73.7257  221.1715 H   0  0  0  0  0  0  0  0  0  0  0  0
  142.9994   75.3087  221.7242 H   0  0  0  0  0  0  0  0  0  0  0  0
  138.2555   74.7192  220.5818 H   0  0  0  0  0  0  0  0  0  0  0  0
  139.6291   73.6649  220.0100 H   0  0  0  0  0  0  0  0  0  0  0  0
  138.5750   73.8060  222.8320 H   0  0  0  0  0  0  0  0  0  0  0  0
  139.2343   69.9901  222.1620 H   0  0  0  0  0  0  0  0  0  0  0  0
  139.2287   68.3480  223.9994 H   0  0  0  0  0  0  0  0  0  0  0  0
  139.7801   67.8746  226.3477 H   0  0  0  0  0  0  0  0  0  0  0  0
  141.5756   70.9099  228.7745 H   0  0  0  0  0  0  0  0  0  0  0  0
  141.5278   72.4740  226.8505 H   0  0  0  0  0  0  0  0  0  0  0  0
  141.0805   82.0093  220.6937 H   0  0  0  0  0  0  0  0  0  0  0  0
  141.1358   83.0159  222.9381 H   0  0  0  0  0  0  0  0  0  0  0  0
  142.0388   81.6963  224.8537 H   0  0  0  0  0  0  0  0  0  0  0  0
  142.8611   79.4065  224.4727 H   0  0  0  0  0  0  0  0  0  0  0  0
  142.8191   78.3650  222.2133 H   0  0  0  0  0  0  0  0  0  0  0  0
  1  2  1  0
  2  3  1  0
  3  4  1  0
  4  5  2  0
  4  6  1  0
  6  7  1  0
  7  8  1  0
  8  9  1  0
  9 10  1  0
  9 11  1  0
  8 12  1  0
 12 13  1  0
 13 14  1  0
 14 15  2  0
 14 16  1  0
 16 17  1  0
 17 18  1  0
 18 19  2  0
 18 20  1  0
 20 21  2  0
 21 22  1  0
 22 23  2  0
 23 24  1  0
 24 25  2  0
 25 26  1  0
 25 27  1  0
 27 28  2  0
 28 29  1  0
 29 30  2  0
  2 31  1  0
 31 32  2  0
 32 33  1  0
 33 34  2  0
 34 35  1  0
 35 36  2  0
 13  6  1  0
 30 20  1  0
 36 31  1  0
 29 23  1  0
  1 37  1  0
  1 38  1  0
  1 39  1  0
  2 40  1  6
  3 41  1  0
  6 42  1  6
  7 43  1  0
  7 44  1  0
  8 45  1  1
 10 46  1  0
 10 47  1  0
 10 48  1  0
 11 49  1  0
 11 50  1  0
 11 51  1  0
 12 52  1  0
 12 53  1  0
 16 54  1  0
 16 55  1  0
 17 56  1  0
 21 57  1  0
 22 58  1  0
 24 59  1  0
 27 60  1  0
 28 61  1  0
 32 62  1  0
 33 63  1  0
 34 64  1  0
 35 65  1  0
 36 66  1  0
M  END
>  <smiles>  (7) 
CC(NC(=O)[C@H]1C[C@H](N(C)C)CN1C(=O)CNC(=O)c1ccc2cc(Cl)ccc2n1)c1ccccc1

>  <score_type>  (7) 
oracle

>  <origin>  (7) 
autodockgpu

>  <m_score__min__energy>  (7) 
-9.8300000000000001

>  <m_primary>  (7) 
energy

>  <rmsd>  (7) 
2.990735460231798

>  <m_score__min__rmsd>  (7) 
2.990735460231798

>  <meeko>  (7) 
{"free_energy": -9.55, "intermolecular_energy": -11.94, "internal_energy": -2.88, "cluster_size": 20, "cluster_id": 2, "rank_in_cluster": 2}

>  <energy>  (7) 
-9.16

>  <cluster_rmsd>  (7) 
1.07

>  <cluster>  (7) 
1

$$$$

     RDKit          3D

 66 69  0  0  1  0  0  0  0  0999 V2000
  142.5550   79.5240  223.4370 C   0  0  0  0  0  0  0  0  0  0  0  0
  141.5320   78.5160  222.9930 C   0  0  2  0  0  0  0  0  0  0  0  0
  141.8280   77.9660  221.6800 N   0  0  0  0  0  0  0  0  0  0  0  0
  141.3900   76.6200  221.4160 C   0  0  0  0  0  0  0  0  0  0  0  0
  140.7690   75.9490  222.3000 O   0  0  0  0  0  0  0  0  0  0  0  0
  141.6790   76.0380  220.0930 C   0  0  1  0  0  0  0  0  0  0  0  0
  143.1770   75.9590  219.8300 C   0  0  0  0  0  0  0  0  0  0  0  0
  143.5450   74.5930  220.3580 C   0  0  2  0  0  0  0  0  0  0  0  0
  144.7520   74.0560  219.8220 N   0  0  0  0  0  0  0  0  0  0  0  0
  144.5800   72.9190  218.9710 C   0  0  0  0  0  0  0  0  0  0  0  0
  145.6780   73.7530  220.8670 C   0  0  0  0  0  0  0  0  0  0  0  0
  142.3290   73.7460  220.2410 C   0  0  0  0  0  0  0  0  0  0  0  0
  141.2090   74.6600  219.9900 N   0  0  0  0  0  0  0  0  0  0  0  0
  139.8750   74.2490  219.6940 C   0  0  0  0  0  0  0  0  0  0  0  0
  139.6270   73.7740  218.5550 O   0  0  0  0  0  0  0  0  0  0  0  0
  138.8340   74.3980  220.7480 C   0  0  0  0  0  0  0  0  0  0  0  0
  139.1660   73.7170  221.9670 N   0  0  0  0  0  0  0  0  0  0  0  0
  139.0630   72.2920  221.9650 C   0  0  0  0  0  0  0  0  0  0  0  0
  138.6810   71.7840  220.8560 O   0  0  0  0  0  0  0  0  0  0  0  0
  139.3650   71.4660  223.1200 C   0  0  0  0  0  0  0  0  0  0  0  0
  139.0200   70.1310  223.0550 C   0  0  0  0  0  0  0  0  0  0  0  0
  139.2440   69.2320  224.0680 C   0  0  0  0  0  0  0  0  0  0  0  0
  139.8580   69.7160  225.2250 C   0  0  0  0  0  0  0  0  0  0  0  0
  140.1240   68.8840  226.2970 C   0  0  0  0  0  0  0  0  0  0  0  0
  140.7380   69.3630  227.4500 C   0  0  0  0  0  0  0  0  0  0  0  0
  141.0320   68.2430  228.7470 Cl  0  0  0  0  0  0  0  0  0  0  0  0
  141.0710   70.6940  227.4930 C   0  0  0  0  0  0  0  0  0  0  0  0
  140.8090   71.5400  226.4210 C   0  0  0  0  0  0  0  0  0  0  0  0
  140.2000   71.0510  225.2860 C   0  0  0  0  0  0  0  0  0  0  0  0
  139.9500   71.8990  224.2380 N   0  0  0  0  0  0  0  0  0  0  0  0
  140.1310   79.0550  223.0690 C   0  0  0  0  0  0  0  0  0  0  0  0
  139.8760   80.3510  223.5210 C   0  0  0  0  0  0  0  0  0  0  0  0
  138.6070   80.8730  223.6050 C   0  0  0  0  0  0  0  0  0  0  0  0
  137.5330   80.0890  223.2300 C   0  0  0  0  0  0  0  0  0  0  0  0
  137.7590   78.8080  222.7820 C   0  0  0  0  0  0  0  0  0  0  0  0
  139.0410   78.2630  222.6910 C   0  0  0  0  0  0  0  0  0  0  0  0
  142.5863   79.5549  224.5361 H   0  0  0  0  0  0  0  0  0  0  0  0
  143.5440   79.2376  223.0499 H   0  0  0  0  0  0  0  0  0  0  0  0
  142.2832   80.5171  223.0499 H   0  0  0  0  0  0  0  0  0  0  0  0
  141.5935   77.6816  223.7071 H   0  0  0  0  0  0  0  0  0  0  0  0
  142.3350   78.5250  220.9640 H   0  0  0  0  0  0  0  0  0  0  0  0
  141.1685   76.6972  219.3755 H   0  0  0  0  0  0  0  0  0  0  0  0
  143.3940   76.0384  218.7545 H   0  0  0  0  0  0  0  0  0  0  0  0
  143.7433   76.7736  220.3052 H   0  0  0  0  0  0  0  0  0  0  0  0
  143.8288   74.6482  221.4193 H   0  0  0  0  0  0  0  0  0  0  0  0
  144.4436   72.0176  219.5865 H   0  0  0  0  0  0  0  0  0  0  0  0
  143.6940   73.0669  218.3361 H   0  0  0  0  0  0  0  0  0  0  0  0
  145.4701   72.7982  218.3361 H   0  0  0  0  0  0  0  0  0  0  0  0
  145.1947   73.9111  221.8424 H   0  0  0  0  0  0  0  0  0  0  0  0
  145.9968   72.7037  220.7816 H   0  0  0  0  0  0  0  0  0  0  0  0
  146.5554   74.4109  220.7816 H   0  0  0  0  0  0  0  0  0  0  0  0
  142.4372   73.0387  219.4055 H   0  0  0  0  0  0  0  0  0  0  0  0
  142.1648   73.1562  221.1549 H   0  0  0  0  0  0  0  0  0  0  0  0
  138.7090   75.4685  220.9678 H   0  0  0  0  0  0  0  0  0  0  0  0
  137.9085   73.9463  220.3614 H   0  0  0  0  0  0  0  0  0  0  0  0
  139.4760   74.2040  222.8530 H   0  0  0  0  0  0  0  0  0  0  0  0
  138.5368   69.7658  222.1368 H   0  0  0  0  0  0  0  0  0  0  0  0
  138.9523   68.1757  223.9724 H   0  0  0  0  0  0  0  0  0  0  0  0
  139.8444   67.8218  226.2370 H   0  0  0  0  0  0  0  0  0  0  0  0
  141.5549   71.0996  228.3937 H   0  0  0  0  0  0  0  0  0  0  0  0
  141.0887   72.6023  226.4793 H   0  0  0  0  0  0  0  0  0  0  0  0
  140.7260   80.9808  223.8225 H   0  0  0  0  0  0  0  0  0  0  0  0
  138.4490   81.9001  223.9656 H   0  0  0  0  0  0  0  0  0  0  0  0
  136.5083   80.4847  223.2890 H   0  0  0  0  0  0  0  0  0  0  0  0
  136.8983   78.1908  222.4847 H   0  0  0  0  0  0  0  0  0  0  0  0
  139.1909   77.2346  222.3304 H   0  0  0  0  0  0  0  0  0  0  0  0
  1  2  1  0
  2  3  1  0
  3  4  1  0
  4  5  2  0
  4  6  1  0
  6  7  1  0
  7  8  1  0
  8  9  1  0
  9 10  1  0
  9 11  1  0
  8 12  1  0
 12 13  1  0
 13 14  1  0
 14 15  2  0
 14 16  1  0
 16 17  1  0
 17 18  1  0
 18 19  2  0
 18 20  1  0
 20 21  2  0
 21 22  1  0
 22 23  2  0
 23 24  1  0
 24 25  2  0
 25 26  1  0
 25 27  1  0
 27 28  2  0
 28 29  1  0
 29 30  2  0
  2 31  1  0
 31 32  2  0
 32 33  1  0
 33 34  2  0
 34 35  1  0
 35 36  2  0
 13  6  1  0
 30 20  1  0
 36 31  1  0
 29 23  1  0
  1 37  1  0
  1 38  1  0
  1 39  1  0
  2 40  1  1
  3 41  1  0
  6 42  1  6
  7 43  1  0
  7 44  1  0
  8 45  1  1
 10 46  1  0
 10 47  1  0
 10 48  1  0
 11 49  1  0
 11 50  1  0
 11 51  1  0
 12 52  1  0
 12 53  1  0
 16 54  1  0
 16 55  1  0
 17 56  1  0
 21 57  1  0
 22 58  1  0
 24 59  1  0
 27 60  1  0
 28 61  1  0
 32 62  1  0
 33 63  1  0
 34 64  1  0
 35 65  1  0
 36 66  1  0
M  END
>  <smiles>  (8) 
CC(NC(=O)[C@H]1C[C@H](N(C)C)CN1C(=O)CNC(=O)c1ccc2cc(Cl)ccc2n1)c1ccccc1

>  <score_type>  (8) 
oracle

>  <origin>  (8) 
autodockgpu

>  <m_score__min__energy>  (8) 
-9.8300000000000001

>  <m_primary>  (8) 
energy

>  <rmsd>  (8) 
2.504301328126209

>  <m_score__min__rmsd>  (8) 
2.504301328126209

>  <meeko>  (8) 
{"free_energy": -9.37, "intermolecular_energy": -11.75, "internal_energy": -2.69, "cluster_size": 20, "cluster_id": 2, "rank_in_cluster": 5}

>  <energy>  (8) 
-9.06

>  <cluster_rmsd>  (8) 
0.83

>  <cluster>  (8) 
1

$$$$

     RDKit          3D

 66 69  0  0  1  0  0  0  0  0999 V2000
  140.3610   72.2120  223.4730 C   0  0  0  0  0  0  0  0  0  0  0  0
  139.6250   71.0880  224.1480 C   0  0  2  0  0  0  0  0  0  0  0  0
  138.1830   71.1980  223.9950 N   0  0  0  0  0  0  0  0  0  0  0  0
  137.5500   70.3030  223.0600 C   0  0  0  0  0  0  0  0  0  0  0  0
  138.2320   69.4540  222.4030 O   0  0  0  0  0  0  0  0  0  0  0  0
  136.0900   70.3950  222.8850 C   0  0  1  0  0  0  0  0  0  0  0  0
  135.4340   69.0200  222.9090 C   0  0  0  0  0  0  0  0  0  0  0  0
  135.1070   68.8250  224.3700 C   0  0  2  0  0  0  0  0  0  0  0  0
  134.0780   67.8720  224.6240 N   0  0  0  0  0  0  0  0  0  0  0  0
  132.8670   68.0820  223.8930 C   0  0  0  0  0  0  0  0  0  0  0  0
  133.7990   67.7890  226.0230 C   0  0  0  0  0  0  0  0  0  0  0  0
  134.9190   70.1800  224.9540 C   0  0  0  0  0  0  0  0  0  0  0  0
  135.4550   71.1310  223.9740 N   0  0  0  0  0  0  0  0  0  0  0  0
  135.3630   72.5500  224.0840 C   0  0  0  0  0  0  0  0  0  0  0  0
  135.1770   73.0590  225.2200 O   0  0  0  0  0  0  0  0  0  0  0  0
  135.4930   73.3700  222.8480 C   0  0  0  0  0  0  0  0  0  0  0  0
  136.5660   74.3220  222.9140 N   0  0  0  0  0  0  0  0  0  0  0  0
  136.2210   75.7020  222.7830 C   0  0  0  0  0  0  0  0  0  0  0  0
  134.9750   75.9290  222.6200 O   0  0  0  0  0  0  0  0  0  0  0  0
  137.1950   76.7780  222.8300 C   0  0  0  0  0  0  0  0  0  0  0  0
  136.7160   78.0620  222.9910 C   0  0  0  0  0  0  0  0  0  0  0  0
  137.5160   79.1760  223.0540 C   0  0  0  0  0  0  0  0  0  0  0  0
  138.8940   78.9770  222.9450 C   0  0  0  0  0  0  0  0  0  0  0  0
  139.7780   80.0390  222.9980 C   0  0  0  0  0  0  0  0  0  0  0  0
  141.1510   79.8430  222.8920 C   0  0  0  0  0  0  0  0  0  0  0  0
  142.1850   81.2390  222.9690 Cl  0  0  0  0  0  0  0  0  0  0  0  0
  141.6060   78.5580  222.7310 C   0  0  0  0  0  0  0  0  0  0  0  0
  140.7250   77.4820  222.6770 C   0  0  0  0  0  0  0  0  0  0  0  0
  139.3680   77.6920  222.7830 C   0  0  0  0  0  0  0  0  0  0  0  0
  138.5150   76.6190  222.7290 N   0  0  0  0  0  0  0  0  0  0  0  0
  140.0220   70.9310  225.5880 C   0  0  0  0  0  0  0  0  0  0  0  0
  139.5970   69.8370  226.3430 C   0  0  0  0  0  0  0  0  0  0  0  0
  139.9400   69.6650  227.6630 C   0  0  0  0  0  0  0  0  0  0  0  0
  140.7390   70.6110  228.2770 C   0  0  0  0  0  0  0  0  0  0  0  0
  141.1700   71.6990  227.5540 C   0  0  0  0  0  0  0  0  0  0  0  0
  140.8310   71.8880  226.2130 C   0  0  0  0  0  0  0  0  0  0  0  0
  140.7955   72.8756  224.2351 H   0  0  0  0  0  0  0  0  0  0  0  0
  141.1643   71.7993  222.8450 H   0  0  0  0  0  0  0  0  0  0  0  0
  139.6616   72.7834  222.8450 H   0  0  0  0  0  0  0  0  0  0  0  0
  139.9297   70.1670  223.6295 H   0  0  0  0  0  0  0  0  0  0  0  0
  137.6340   71.8950  224.5390 H   0  0  0  0  0  0  0  0  0  0  0  0
  135.9523   70.9009  221.9180 H   0  0  0  0  0  0  0  0  0  0  0  0
  134.5218   69.0064  222.2945 H   0  0  0  0  0  0  0  0  0  0  0  0
  136.0758   68.2264  222.4988 H   0  0  0  0  0  0  0  0  0  0  0  0
  135.9408   68.3347  224.8938 H   0  0  0  0  0  0  0  0  0  0  0  0
  132.0342   68.2264  224.5969 H   0  0  0  0  0  0  0  0  0  0  0  0
  132.9711   68.9755  223.2599 H   0  0  0  0  0  0  0  0  0  0  0  0
  132.6642   67.2056  223.2599 H   0  0  0  0  0  0  0  0  0  0  0  0
  134.7006   68.0572  226.5932 H   0  0  0  0  0  0  0  0  0  0  0  0
  132.9847   68.4838  226.2763 H   0  0  0  0  0  0  0  0  0  0  0  0
  133.4969   66.7621  226.2763 H   0  0  0  0  0  0  0  0  0  0  0  0
  133.8504   70.3745  225.1279 H   0  0  0  0  0  0  0  0  0  0  0  0
  135.4334   70.2721  225.9219 H   0  0  0  0  0  0  0  0  0  0  0  0
  135.6749   72.6958  221.9981 H   0  0  0  0  0  0  0  0  0  0  0  0
  134.5579   73.9373  222.7308 H   0  0  0  0  0  0  0  0  0  0  0  0
  137.5820   74.0610  223.0520 H   0  0  0  0  0  0  0  0  0  0  0  0
  135.6280   78.2014  223.0738 H   0  0  0  0  0  0  0  0  0  0  0  0
  137.0900   80.1817  223.1847 H   0  0  0  0  0  0  0  0  0  0  0  0
  139.3876   81.0593  223.1266 H   0  0  0  0  0  0  0  0  0  0  0  0
  142.6871   78.3753  222.6430 H   0  0  0  0  0  0  0  0  0  0  0  0
  141.1136   76.4609  222.5493 H   0  0  0  0  0  0  0  0  0  0  0  0
  138.9605   69.0801  225.8614 H   0  0  0  0  0  0  0  0  0  0  0  0
  139.5838   68.7874  228.2224 H   0  0  0  0  0  0  0  0  0  0  0  0
  141.0271   70.4951  229.3323 H   0  0  0  0  0  0  0  0  0  0  0  0
  141.8050   72.4474  228.0506 H   0  0  0  0  0  0  0  0  0  0  0  0
  141.1910   72.7682  225.6602 H   0  0  0  0  0  0  0  0  0  0  0  0
  1  2  1  0
  2  3  1  0
  3  4  1  0
  4  5  2  0
  4  6  1  0
  6  7  1  0
  7  8  1  0
  8  9  1  0
  9 10  1  0
  9 11  1  0
  8 12  1  0
 12 13  1  0
 13 14  1  0
 14 15  2  0
 14 16  1  0
 16 17  1  0
 17 18  1  0
 18 19  2  0
 18 20  1  0
 20 21  2  0
 21 22  1  0
 22 23  2  0
 23 24  1  0
 24 25  2  0
 25 26  1  0
 25 27  1  0
 27 28  2  0
 28 29  1  0
 29 30  2  0
  2 31  1  0
 31 32  2  0
 32 33  1  0
 33 34  2  0
 34 35  1  0
 35 36  2  0
 13  6  1  0
 30 20  1  0
 36 31  1  0
 29 23  1  0
  1 37  1  0
  1 38  1  0
  1 39  1  0
  2 40  1  6
  3 41  1  0
  6 42  1  6
  7 43  1  0
  7 44  1  0
  8 45  1  1
 10 46  1  0
 10 47  1  0
 10 48  1  0
 11 49  1  0
 11 50  1  0
 11 51  1  0
 12 52  1  0
 12 53  1  0
 16 54  1  0
 16 55  1  0
 17 56  1  0
 21 57  1  0
 22 58  1  0
 24 59  1  0
 27 60  1  0
 28 61  1  0
 32 62  1  0
 33 63  1  0
 34 64  1  0
 35 65  1  0
 36 66  1  0
M  END
>  <smiles>  (9) 
CC(NC(=O)[C@H]1C[C@H](N(C)C)CN1C(=O)CNC(=O)c1ccc2cc(Cl)ccc2n1)c1ccccc1

>  <score_type>  (9) 
oracle

>  <origin>  (9) 
autodockgpu

>  <m_score__min__energy>  (9) 
-9.8300000000000001

>  <m_primary>  (9) 
energy

>  <rmsd>  (9) 
9.618039835840163

>  <m_score__min__rmsd>  (9) 
9.618039835840163

>  <meeko>  (9) 
{"free_energy": -8.86, "intermolecular_energy": -11.24, "internal_energy": -2.33, "cluster_size": 16, "cluster_id": 1, "rank_in_cluster": 11}

>  <energy>  (9) 
-8.91

>  <cluster_rmsd>  (9) 
1.76

>  <cluster>  (9) 
1

$$$$

     RDKit          3D

 66 69  0  0  1  0  0  0  0  0999 V2000
  137.9540   79.4090  223.1790 C   0  0  0  0  0  0  0  0  0  0  0  0
  139.0450   79.2930  222.1510 C   0  0  2  0  0  0  0  0  0  0  0  0
  139.1280   77.9590  221.5780 N   0  0  0  0  0  0  0  0  0  0  0  0
  139.9780   77.7900  220.4280 C   0  0  0  0  0  0  0  0  0  0  0  0
  140.6270   78.7700  219.9440 O   0  0  0  0  0  0  0  0  0  0  0  0
  140.0790   76.4480  219.8260 C   0  0  1  0  0  0  0  0  0  0  0  0
  141.5300   76.0270  219.6320 C   0  0  0  0  0  0  0  0  0  0  0  0
  141.8560   75.3200  220.9250 C   0  0  2  0  0  0  0  0  0  0  0  0
  142.9560   74.4170  220.8450 N   0  0  0  0  0  0  0  0  0  0  0  0
  144.0050   74.8220  219.9620 C   0  0  0  0  0  0  0  0  0  0  0  0
  142.5080   73.1030  220.5060 C   0  0  0  0  0  0  0  0  0  0  0  0
  140.5770   74.7680  221.4470 C   0  0  0  0  0  0  0  0  0  0  0  0
  139.5040   75.4200  220.6880 N   0  0  0  0  0  0  0  0  0  0  0  0
  138.1200   75.0870  220.7880 C   0  0  0  0  0  0  0  0  0  0  0  0
  137.2720   76.0170  220.7860 O   0  0  0  0  0  0  0  0  0  0  0  0
  137.7390   73.6510  220.8890 C   0  0  0  0  0  0  0  0  0  0  0  0
  138.1390   73.0490  222.1300 N   0  0  0  0  0  0  0  0  0  0  0  0
  138.6040   71.6990  222.0780 C   0  0  0  0  0  0  0  0  0  0  0  0
  138.6080   71.1780  220.9110 O   0  0  0  0  0  0  0  0  0  0  0  0
  139.0420   70.9580  223.2470 C   0  0  0  0  0  0  0  0  0  0  0  0
  138.8120   69.5970  223.2600 C   0  0  0  0  0  0  0  0  0  0  0  0
  139.1710   68.7690  224.2950 C   0  0  0  0  0  0  0  0  0  0  0  0
  139.8050   69.3590  225.3910 C   0  0  0  0  0  0  0  0  0  0  0  0
  140.2030   68.6050  226.4790 C   0  0  0  0  0  0  0  0  0  0  0  0
  140.8360   69.1890  227.5720 C   0  0  0  0  0  0  0  0  0  0  0  0
  141.3010   68.1610  228.8950 Cl  0  0  0  0  0  0  0  0  0  0  0  0
  141.0540   70.5440  227.5380 C   0  0  0  0  0  0  0  0  0  0  0  0
  140.6580   71.3130  226.4480 C   0  0  0  0  0  0  0  0  0  0  0  0
  140.0310   70.7190  225.3740 C   0  0  0  0  0  0  0  0  0  0  0  0
  139.6480   71.4920  224.3080 N   0  0  0  0  0  0  0  0  0  0  0  0
  140.3730   79.7580  222.6760 C   0  0  0  0  0  0  0  0  0  0  0  0
  141.3530   78.8480  223.0780 C   0  0  0  0  0  0  0  0  0  0  0  0
  142.5770   79.2410  223.5660 C   0  0  0  0  0  0  0  0  0  0  0  0
  142.8580   80.5900  223.6670 C   0  0  0  0  0  0  0  0  0  0  0  0
  141.9080   81.5060  223.2780 C   0  0  0  0  0  0  0  0  0  0  0  0
  140.6610   81.1240  222.7810 C   0  0  0  0  0  0  0  0  0  0  0  0
  138.3931   79.3623  224.1865 H   0  0  0  0  0  0  0  0  0  0  0  0
  137.4303   80.3679  223.0513 H   0  0  0  0  0  0  0  0  0  0  0  0
  137.2404   78.5817  223.0513 H   0  0  0  0  0  0  0  0  0  0  0  0
  138.7685   79.9729  221.3317 H   0  0  0  0  0  0  0  0  0  0  0  0
  138.5940   77.1640  221.9830 H   0  0  0  0  0  0  0  0  0  0  0  0
  139.5411   76.5253  218.8696 H   0  0  0  0  0  0  0  0  0  0  0  0
  141.6327   75.3472  218.7733 H   0  0  0  0  0  0  0  0  0  0  0  0
  142.2012   76.8722  219.4198 H   0  0  0  0  0  0  0  0  0  0  0  0
  142.2570   76.0271  221.6661 H   0  0  0  0  0  0  0  0  0  0  0  0
  144.8715   75.1566  220.5512 H   0  0  0  0  0  0  0  0  0  0  0  0
  144.2988   73.9727  219.3277 H   0  0  0  0  0  0  0  0  0  0  0  0
  143.6518   75.6484  219.3277 H   0  0  0  0  0  0  0  0  0  0  0  0
  142.3137   72.5330  221.4265 H   0  0  0  0  0  0  0  0  0  0  0  0
  141.5826   73.1721  219.9153 H   0  0  0  0  0  0  0  0  0  0  0  0
  143.2828   72.5924  219.9153 H   0  0  0  0  0  0  0  0  0  0  0  0
  140.5427   73.6790  221.2955 H   0  0  0  0  0  0  0  0  0  0  0  0
  140.4728   74.9552  222.5259 H   0  0  0  0  0  0  0  0  0  0  0  0
  136.6457   73.5714  220.7974 H   0  0  0  0  0  0  0  0  0  0  0  0
  138.2595   73.1155  220.0814 H   0  0  0  0  0  0  0  0  0  0  0  0
  138.1080   73.5420  223.0650 H   0  0  0  0  0  0  0  0  0  0  0  0
  138.3112   69.1489  222.3892 H   0  0  0  0  0  0  0  0  0  0  0  0
  138.9682   67.6883  224.2624 H   0  0  0  0  0  0  0  0  0  0  0  0
  140.0155   67.5211  226.4809 H   0  0  0  0  0  0  0  0  0  0  0  0
  141.5516   71.0315  228.3893 H   0  0  0  0  0  0  0  0  0  0  0  0
  140.8457   72.3969  226.4435 H   0  0  0  0  0  0  0  0  0  0  0  0
  141.1368   77.7722  223.0011 H   0  0  0  0  0  0  0  0  0  0  0  0
  143.3221   78.4918  223.8717 H   0  0  0  0  0  0  0  0  0  0  0  0
  143.8306   80.9279  224.0542 H   0  0  0  0  0  0  0  0  0  0  0  0
  142.1396   82.5781  223.3617 H   0  0  0  0  0  0  0  0  0  0  0  0
  139.9209   81.8795  222.4785 H   0  0  0  0  0  0  0  0  0  0  0  0
  1  2  1  0
  2  3  1  0
  3  4  1  0
  4  5  2  0
  4  6  1  0
  6  7  1  0
  7  8  1  0
  8  9  1  0
  9 10  1  0
  9 11  1  0
  8 12  1  0
 12 13  1  0
 13 14  1  0
 14 15  2  0
 14 16  1  0
 16 17  1  0
 17 18  1  0
 18 19  2  0
 18 20  1  0
 20 21  2  0
 21 22  1  0
 22 23  2  0
 23 24  1  0
 24 25  2  0
 25 26  1  0
 25 27  1  0
 27 28  2  0
 28 29  1  0
 29 30  2  0
  2 31  1  0
 31 32  2  0
 32 33  1  0
 33 34  2  0
 34 35  1  0
 35 36  2  0
 13  6  1  0
 30 20  1  0
 36 31  1  0
 29 23  1  0
  1 37  1  0
  1 38  1  0
  1 39  1  0
  2 40  1  6
  3 41  1  0
  6 42  1  6
  7 43  1  0
  7 44  1  0
  8 45  1  1
 10 46  1  0
 10 47  1  0
 10 48  1  0
 11 49  1  0
 11 50  1  0
 11 51  1  0
 12 52  1  0
 12 53  1  0
 16 54  1  0
 16 55  1  0
 17 56  1  0
 21 57  1  0
 22 58  1  0
 24 59  1  0
 27 60  1  0
 28 61  1  0
 32 62  1  0
 33 63  1  0
 34 64  1  0
 35 65  1  0
 36 66  1  0
M  END
>  <smiles>  (10) 
CC(NC(=O)[C@H]1C[C@H](N(C)C)CN1C(=O)CNC(=O)c1ccc2cc(Cl)ccc2n1)c1ccccc1

>  <score_type>  (10) 
oracle

>  <origin>  (10) 
autodockgpu

>  <m_score__min__energy>  (10) 
-9.8300000000000001

>  <m_primary>  (10) 
energy

>  <rmsd>  (10) 
2.906100505370436

>  <m_score__min__rmsd>  (10) 
2.906100505370436

>  <meeko>  (10) 
{"free_energy": -8.58, "intermolecular_energy": -10.96, "internal_energy": -2.98, "cluster_size": 20, "cluster_id": 2, "rank_in_cluster": 17}

>  <energy>  (10) 
-8.91

>  <cluster_rmsd>  (10) 
0.86

>  <cluster>  (10) 
1

$$$$

     RDKit          3D

 66 69  0  0  1  0  0  0  0  0999 V2000
  140.6670   79.5050  219.3110 C   0  0  0  0  0  0  0  0  0  0  0  0
  141.7880   78.7890  220.0120 C   0  0  2  0  0  0  0  0  0  0  0  0
  141.7040   77.3450  219.8620 N   0  0  0  0  0  0  0  0  0  0  0  0
  142.5420   76.7390  218.8600 C   0  0  0  0  0  0  0  0  0  0  0  0
  143.3210   77.4440  218.1440 O   0  0  0  0  0  0  0  0  0  0  0  0
  142.4750   75.2770  218.6850 C   0  0  1  0  0  0  0  0  0  0  0  0
  143.8610   74.6670  218.5200 C   0  0  0  0  0  0  0  0  0  0  0  0
  144.2610   74.3400  219.9390 C   0  0  2  0  0  0  0  0  0  0  0  0
  145.2720   73.3420  220.0540 N   0  0  0  0  0  0  0  0  0  0  0  0
  144.8000   71.9940  219.9850 C   0  0  0  0  0  0  0  0  0  0  0  0
  146.0380   73.5340  221.2450 C   0  0  0  0  0  0  0  0  0  0  0  0
  143.0030   74.1040  220.6970 C   0  0  0  0  0  0  0  0  0  0  0  0
  141.9120   74.6130  219.8580 N   0  0  0  0  0  0  0  0  0  0  0  0
  140.5240   74.4730  220.1560 C   0  0  0  0  0  0  0  0  0  0  0  0
  139.9060   75.4570  220.6390 O   0  0  0  0  0  0  0  0  0  0  0  0
  139.8660   73.1660  219.8790 C   0  0  0  0  0  0  0  0  0  0  0  0
  140.1000   72.1890  220.9060 N   0  0  0  0  0  0  0  0  0  0  0  0
  139.6900   72.5280  222.2320 C   0  0  0  0  0  0  0  0  0  0  0  0
  139.1520   73.6810  222.3480 O   0  0  0  0  0  0  0  0  0  0  0  0
  139.8600   71.6450  223.3720 C   0  0  0  0  0  0  0  0  0  0  0  0
  139.4900   70.3250  223.2150 C   0  0  0  0  0  0  0  0  0  0  0  0
  139.5950   69.3770  224.2030 C   0  0  0  0  0  0  0  0  0  0  0  0
  140.1070   69.7940  225.4330 C   0  0  0  0  0  0  0  0  0  0  0  0
  140.2500   68.9100  226.4860 C   0  0  0  0  0  0  0  0  0  0  0  0
  140.7620   69.3220  227.7120 C   0  0  0  0  0  0  0  0  0  0  0  0
  140.9040   68.1390  228.9790 Cl  0  0  0  0  0  0  0  0  0  0  0  0
  141.1230   70.6390  227.8470 C   0  0  0  0  0  0  0  0  0  0  0  0
  140.9840   71.5380  226.7940 C   0  0  0  0  0  0  0  0  0  0  0  0
  140.4750   71.1150  225.5860 C   0  0  0  0  0  0  0  0  0  0  0  0
  140.3460   72.0140  224.5580 N   0  0  0  0  0  0  0  0  0  0  0  0
  141.9070   79.1930  221.4550 C   0  0  0  0  0  0  0  0  0  0  0  0
  141.4620   78.3580  222.4810 C   0  0  0  0  0  0  0  0  0  0  0  0
  141.5530   78.7000  223.8100 C   0  0  0  0  0  0  0  0  0  0  0  0
  142.1060   79.9180  224.1530 C   0  0  0  0  0  0  0  0  0  0  0  0
  142.5520   80.7590  223.1590 C   0  0  0  0  0  0  0  0  0  0  0  0
  142.4660   80.4270  221.8050 C   0  0  0  0  0  0  0  0  0  0  0  0
  139.9861   79.9399  220.0575 H   0  0  0  0  0  0  0  0  0  0  0  0
  141.0808   80.3064  218.6813 H   0  0  0  0  0  0  0  0  0  0  0  0
  140.1139   78.7925  218.6813 H   0  0  0  0  0  0  0  0  0  0  0  0
  142.7149   79.1065  219.5120 H   0  0  0  0  0  0  0  0  0  0  0  0
  141.0650   76.7780  220.4540 H   0  0  0  0  0  0  0  0  0  0  0  0
  141.8497   75.1268  217.7926 H   0  0  0  0  0  0  0  0  0  0  0  0
  143.8217   73.7584  217.9012 H   0  0  0  0  0  0  0  0  0  0  0  0
  144.5713   75.3370  218.0135 H   0  0  0  0  0  0  0  0  0  0  0  0
  144.7901   75.1871  220.3998 H   0  0  0  0  0  0  0  0  0  0  0  0
  144.6624   71.6011  221.0032 H   0  0  0  0  0  0  0  0  0  0  0  0
  143.8396   71.9688  219.4494 H   0  0  0  0  0  0  0  0  0  0  0  0
  145.5349   71.3751  219.4494 H   0  0  0  0  0  0  0  0  0  0  0  0
  145.3961   73.3731  222.1237 H   0  0  0  0  0  0  0  0  0  0  0  0
  146.8721   72.8171  221.2640 H   0  0  0  0  0  0  0  0  0  0  0  0
  146.4354   74.5595  221.2640 H   0  0  0  0  0  0  0  0  0  0  0  0
  142.8683   73.0286  220.8852 H   0  0  0  0  0  0  0  0  0  0  0  0
  143.0248   74.6103  221.6733 H   0  0  0  0  0  0  0  0  0  0  0  0
  138.7818   73.3310  219.7931 H   0  0  0  0  0  0  0  0  0  0  0  0
  140.2975   72.7723  218.9469 H   0  0  0  0  0  0  0  0  0  0  0  0
  140.5530   71.2490  220.7370 H   0  0  0  0  0  0  0  0  0  0  0  0
  139.0868   70.0134  222.2401 H   0  0  0  0  0  0  0  0  0  0  0  0
  139.2889   68.3343  224.0326 H   0  0  0  0  0  0  0  0  0  0  0  0
  139.9529   67.8594  226.3517 H   0  0  0  0  0  0  0  0  0  0  0  0
  141.5302   70.9909  228.8063 H   0  0  0  0  0  0  0  0  0  0  0  0
  141.2812   72.5887  226.9266 H   0  0  0  0  0  0  0  0  0  0  0  0
  141.0202   77.3862  222.2157 H   0  0  0  0  0  0  0  0  0  0  0  0
  141.1904   78.0130  224.5888 H   0  0  0  0  0  0  0  0  0  0  0  0
  142.1892   80.2129  225.2095 H   0  0  0  0  0  0  0  0  0  0  0  0
  142.9918   81.7270  223.4409 H   0  0  0  0  0  0  0  0  0  0  0  0
  142.8294   81.1197  221.0316 H   0  0  0  0  0  0  0  0  0  0  0  0
  1  2  1  0
  2  3  1  0
  3  4  1  0
  4  5  2  0
  4  6  1  0
  6  7  1  0
  7  8  1  0
  8  9  1  0
  9 10  1  0
  9 11  1  0
  8 12  1  0
 12 13  1  0
 13 14  1  0
 14 15  2  0
 14 16  1  0
 16 17  1  0
 17 18  1  0
 18 19  2  0
 18 20  1  0
 20 21  2  0
 21 22  1  0
 22 23  2  0
 23 24  1  0
 24 25  2  0
 25 26  1  0
 25 27  1  0
 27 28  2  0
 28 29  1  0
 29 30  2  0
  2 31  1  0
 31 32  2  0
 32 33  1  0
 33 34  2  0
 34 35  1  0
 35 36  2  0
 13  6  1  0
 30 20  1  0
 36 31  1  0
 29 23  1  0
  1 37  1  0
  1 38  1  0
  1 39  1  0
  2 40  1  6
  3 41  1  0
  6 42  1  6
  7 43  1  0
  7 44  1  0
  8 45  1  1
 10 46  1  0
 10 47  1  0
 10 48  1  0
 11 49  1  0
 11 50  1  0
 11 51  1  0
 12 52  1  0
 12 53  1  0
 16 54  1  0
 16 55  1  0
 17 56  1  0
 21 57  1  0
 22 58  1  0
 24 59  1  0
 27 60  1  0
 28 61  1  0
 32 62  1  0
 33 63  1  0
 34 64  1  0
 35 65  1  0
 36 66  1  0
M  END
>  <smiles>  (11) 
CC(NC(=O)[C@H]1C[C@H](N(C)C)CN1C(=O)CNC(=O)c1ccc2cc(Cl)ccc2n1)c1ccccc1

>  <score_type>  (11) 
oracle

>  <origin>  (11) 
autodockgpu

>  <m_score__min__energy>  (11) 
-9.8300000000000001

>  <m_primary>  (11) 
energy

>  <rmsd>  (11) 
3.423927511525567

>  <m_score__min__rmsd>  (11) 
3.423927511525567

>  <meeko>  (11) 
{"free_energy": -9.44, "intermolecular_energy": -11.83, "internal_energy": -2.57, "cluster_size": 20, "cluster_id": 2, "rank_in_cluster": 3}

>  <energy>  (11) 
-8.86

>  <cluster_rmsd>  (11) 
0.92

>  <cluster>  (11) 
1

$$$$

     RDKit          3D

 66 69  0  0  1  0  0  0  0  0999 V2000
  141.5310   78.5840  222.1210 C   0  0  0  0  0  0  0  0  0  0  0  0
  140.9800   77.2090  222.3770 C   0  0  2  0  0  0  0  0  0  0  0  0
  141.5050   76.2190  221.4510 N   0  0  0  0  0  0  0  0  0  0  0  0
  141.2320   76.4160  220.0520 C   0  0  0  0  0  0  0  0  0  0  0  0
  140.5610   77.4200  219.6520 O   0  0  0  0  0  0  0  0  0  0  0  0
  141.7510   75.4260  219.0920 C   0  0  1  0  0  0  0  0  0  0  0  0
  143.2740   75.4180  219.0620 C   0  0  0  0  0  0  0  0  0  0  0  0
  143.6300   74.3870  220.1060 C   0  0  2  0  0  0  0  0  0  0  0  0
  144.9320   73.8250  219.9630 N   0  0  0  0  0  0  0  0  0  0  0  0
  144.9690   72.5470  219.3220 C   0  0  0  0  0  0  0  0  0  0  0  0
  145.5970   73.7600  221.2260 C   0  0  0  0  0  0  0  0  0  0  0  0
  142.4940   73.4300  220.1700 C   0  0  0  0  0  0  0  0  0  0  0  0
  141.3770   74.0630  219.4590 N   0  0  0  0  0  0  0  0  0  0  0  0
  140.1290   73.4320  219.1790 C   0  0  0  0  0  0  0  0  0  0  0  0
  140.0170   72.7510  218.1270 O   0  0  0  0  0  0  0  0  0  0  0  0
  139.0110   73.6040  220.1480 C   0  0  0  0  0  0  0  0  0  0  0  0
  139.0000   72.6030  221.1770 N   0  0  0  0  0  0  0  0  0  0  0  0
  139.8820   72.7970  222.2840 C   0  0  0  0  0  0  0  0  0  0  0  0
  140.5890   73.8590  222.2260 O   0  0  0  0  0  0  0  0  0  0  0  0
  139.9820   71.8720  223.3990 C   0  0  0  0  0  0  0  0  0  0  0  0
  139.5590   70.5760  223.1900 C   0  0  0  0  0  0  0  0  0  0  0  0
  139.5950   69.5940  224.1500 C   0  0  0  0  0  0  0  0  0  0  0  0
  140.0920   69.9490  225.4050 C   0  0  0  0  0  0  0  0  0  0  0  0
  140.1670   69.0270  226.4330 C   0  0  0  0  0  0  0  0  0  0  0  0
  140.6630   69.3760  227.6840 C   0  0  0  0  0  0  0  0  0  0  0  0
  140.7190   68.1500  228.9150 Cl  0  0  0  0  0  0  0  0  0  0  0  0
  141.0780   70.6710  227.8710 C   0  0  0  0  0  0  0  0  0  0  0  0
  141.0080   71.6080  226.8440 C   0  0  0  0  0  0  0  0  0  0  0  0
  140.5130   71.2460  225.6100 C   0  0  0  0  0  0  0  0  0  0  0  0
  140.4520   72.1810  224.6090 N   0  0  0  0  0  0  0  0  0  0  0  0
  139.4780   77.1960  222.4140 C   0  0  0  0  0  0  0  0  0  0  0  0
  138.7620   75.9970  222.3970 C   0  0  0  0  0  0  0  0  0  0  0  0
  137.3890   75.9510  222.4260 C   0  0  0  0  0  0  0  0  0  0  0  0
  136.6780   77.1350  222.4750 C   0  0  0  0  0  0  0  0  0  0  0  0
  137.3610   78.3290  222.4910 C   0  0  0  0  0  0  0  0  0  0  0  0
  138.7550   78.3930  222.4620 C   0  0  0  0  0  0  0  0  0  0  0  0
  141.7311   79.0833  223.0805 H   0  0  0  0  0  0  0  0  0  0  0  0
  142.4663   78.5033  221.5476 H   0  0  0  0  0  0  0  0  0  0  0  0
  140.7989   79.1715  221.5476 H   0  0  0  0  0  0  0  0  0  0  0  0
  141.3284   76.9207  223.3797 H   0  0  0  0  0  0  0  0  0  0  0  0
  142.0540   75.4020  221.7900 H   0  0  0  0  0  0  0  0  0  0  0  0
  141.3214   75.7188  218.1226 H   0  0  0  0  0  0  0  0  0  0  0  0
  143.6482   75.1222  218.0708 H   0  0  0  0  0  0  0  0  0  0  0  0
  143.7162   76.4055  219.2602 H   0  0  0  0  0  0  0  0  0  0  0  0
  143.7440   74.8559  221.0945 H   0  0  0  0  0  0  0  0  0  0  0  0
  144.9919   71.7548  220.0848 H   0  0  0  0  0  0  0  0  0  0  0  0
  144.0740   72.4257  218.6941 H   0  0  0  0  0  0  0  0  0  0  0  0
  145.8695   72.4776  218.6941 H   0  0  0  0  0  0  0  0  0  0  0  0
  144.8553   73.8325  222.0351 H   0  0  0  0  0  0  0  0  0  0  0  0
  146.1365   72.8049  221.3076 H   0  0  0  0  0  0  0  0  0  0  0  0
  146.3112   74.5926  221.3076 H   0  0  0  0  0  0  0  0  0  0  0  0
  142.7671   72.4825  219.6824 H   0  0  0  0  0  0  0  0  0  0  0  0
  142.2245   73.2008  221.2115 H   0  0  0  0  0  0  0  0  0  0  0  0
  139.1068   74.5922  220.6216 H   0  0  0  0  0  0  0  0  0  0  0  0
  138.0708   73.5070  219.5853 H   0  0  0  0  0  0  0  0  0  0  0  0
  138.3850   71.7430  221.1600 H   0  0  0  0  0  0  0  0  0  0  0  0
  139.1696   70.3130  222.1954 H   0  0  0  0  0  0  0  0  0  0  0  0
  139.2472   68.5721  223.9387 H   0  0  0  0  0  0  0  0  0  0  0  0
  139.8271   67.9957  226.2572 H   0  0  0  0  0  0  0  0  0  0  0  0
  141.4736   70.9742  228.8516 H   0  0  0  0  0  0  0  0  0  0  0  0
  141.3485   72.6394  227.0178 H   0  0  0  0  0  0  0  0  0  0  0  0
  139.3204   75.0501  222.3588 H   0  0  0  0  0  0  0  0  0  0  0  0
  136.8630   74.9850  222.4104 H   0  0  0  0  0  0  0  0  0  0  0  0
  135.5784   77.1228  222.5009 H   0  0  0  0  0  0  0  0  0  0  0  0
  136.7879   79.2672  222.5280 H   0  0  0  0  0  0  0  0  0  0  0  0
  139.2737   79.3629  222.4766 H   0  0  0  0  0  0  0  0  0  0  0  0
  1  2  1  0
  2  3  1  0
  3  4  1  0
  4  5  2  0
  4  6  1  0
  6  7  1  0
  7  8  1  0
  8  9  1  0
  9 10  1  0
  9 11  1  0
  8 12  1  0
 12 13  1  0
 13 14  1  0
 14 15  2  0
 14 16  1  0
 16 17  1  0
 17 18  1  0
 18 19  2  0
 18 20  1  0
 20 21  2  0
 21 22  1  0
 22 23  2  0
 23 24  1  0
 24 25  2  0
 25 26  1  0
 25 27  1  0
 27 28  2  0
 28 29  1  0
 29 30  2  0
  2 31  1  0
 31 32  2  0
 32 33  1  0
 33 34  2  0
 34 35  1  0
 35 36  2  0
 13  6  1  0
 30 20  1  0
 36 31  1  0
 29 23  1  0
  1 37  1  0
  1 38  1  0
  1 39  1  0
  2 40  1  1
  3 41  1  0
  6 42  1  6
  7 43  1  0
  7 44  1  0
  8 45  1  1
 10 46  1  0
 10 47  1  0
 10 48  1  0
 11 49  1  0
 11 50  1  0
 11 51  1  0
 12 52  1  0
 12 53  1  0
 16 54  1  0
 16 55  1  0
 17 56  1  0
 21 57  1  0
 22 58  1  0
 24 59  1  0
 27 60  1  0
 28 61  1  0
 32 62  1  0
 33 63  1  0
 34 64  1  0
 35 65  1  0
 36 66  1  0
M  END
>  <smiles>  (12) 
CC(NC(=O)[C@H]1C[C@H](N(C)C)CN1C(=O)CNC(=O)c1ccc2cc(Cl)ccc2n1)c1ccccc1

>  <score_type>  (12) 
oracle

>  <origin>  (12) 
autodockgpu

>  <m_score__min__energy>  (12) 
-9.8300000000000001

>  <m_primary>  (12) 
energy

>  <rmsd>  (12) 
3.3000557736579426

>  <m_score__min__rmsd>  (12) 
3.3000557736579426

>  <meeko>  (12) 
{"free_energy": -8.51, "intermolecular_energy": -10.9, "internal_energy": -3.3, "cluster_size": 20, "cluster_id": 2, "rank_in_cluster": 18}

>  <energy>  (12) 
-8.73

>  <cluster_rmsd>  (12) 
1.05

>  <cluster>  (12) 
1

$$$$

     RDKit          3D

 66 69  0  0  1  0  0  0  0  0999 V2000
  141.7260   72.1340  218.9370 C   0  0  0  0  0  0  0  0  0  0  0  0
  142.1370   72.8490  220.1950 C   0  0  2  0  0  0  0  0  0  0  0  0
  141.4440   74.1160  220.3660 N   0  0  0  0  0  0  0  0  0  0  0  0
  140.7050   74.3020  221.5880 C   0  0  0  0  0  0  0  0  0  0  0  0
  140.6690   73.3910  222.4750 O   0  0  0  0  0  0  0  0  0  0  0  0
  139.9920   75.5760  221.7860 C   0  0  1  0  0  0  0  0  0  0  0  0
  140.9200   76.7720  221.6150 C   0  0  0  0  0  0  0  0  0  0  0  0
  140.7980   77.0910  220.1450 C   0  0  2  0  0  0  0  0  0  0  0  0
  141.1620   78.4250  219.7970 N   0  0  0  0  0  0  0  0  0  0  0  0
  142.1930   78.5300  218.8110 C   0  0  0  0  0  0  0  0  0  0  0  0
  141.5180   79.1730  220.9610 C   0  0  0  0  0  0  0  0  0  0  0  0
  139.4490   76.6350  219.7160 C   0  0  0  0  0  0  0  0  0  0  0  0
  138.9430   75.7730  220.7900 N   0  0  0  0  0  0  0  0  0  0  0  0
  137.6280   75.2220  220.8370 C   0  0  0  0  0  0  0  0  0  0  0  0
  136.6420   76.0050  220.8370 O   0  0  0  0  0  0  0  0  0  0  0  0
  137.4770   73.7410  220.8820 C   0  0  0  0  0  0  0  0  0  0  0  0
  138.0400   73.1540  222.0660 N   0  0  0  0  0  0  0  0  0  0  0  0
  137.9230   71.7380  222.2090 C   0  0  0  0  0  0  0  0  0  0  0  0
  137.3200   71.1500  221.2480 O   0  0  0  0  0  0  0  0  0  0  0  0
  138.4420   71.0030  223.3480 C   0  0  0  0  0  0  0  0  0  0  0  0
  138.0170   69.7000  223.5120 C   0  0  0  0  0  0  0  0  0  0  0  0
  138.4230   68.8850  224.5400 C   0  0  0  0  0  0  0  0  0  0  0  0
  139.3180   69.4250  225.4650 C   0  0  0  0  0  0  0  0  0  0  0  0
  139.7820   68.6800  226.5320 C   0  0  0  0  0  0  0  0  0  0  0  0
  140.6760   69.2140  227.4550 C   0  0  0  0  0  0  0  0  0  0  0  0
  141.2040   68.2010  228.7650 Cl  0  0  0  0  0  0  0  0  0  0  0  0
  141.0850   70.5120  227.2730 C   0  0  0  0  0  0  0  0  0  0  0  0
  140.6250   71.2720  226.2030 C   0  0  0  0  0  0  0  0  0  0  0  0
  139.7390   70.7280  225.2980 C   0  0  0  0  0  0  0  0  0  0  0  0
  139.2970   71.4910  224.2480 N   0  0  0  0  0  0  0  0  0  0  0  0
  143.6280   73.0110  220.2960 C   0  0  0  0  0  0  0  0  0  0  0  0
  144.1990   74.2020  220.7460 C   0  0  0  0  0  0  0  0  0  0  0  0
  145.5580   74.3840  220.8470 C   0  0  0  0  0  0  0  0  0  0  0  0
  146.4010   73.3490  220.4900 C   0  0  0  0  0  0  0  0  0  0  0  0
  145.8620   72.1650  220.0430 C   0  0  0  0  0  0  0  0  0  0  0  0
  144.4840   71.9650  219.9340 C   0  0  0  0  0  0  0  0  0  0  0  0
  141.1936   71.2078  219.1989 H   0  0  0  0  0  0  0  0  0  0  0  0
  141.0633   72.7833  218.3461 H   0  0  0  0  0  0  0  0  0  0  0  0
  142.6206   71.8881  218.3461 H   0  0  0  0  0  0  0  0  0  0  0  0
  141.8267   72.2035  221.0299 H   0  0  0  0  0  0  0  0  0  0  0  0
  141.4820   74.8540  219.6340 H   0  0  0  0  0  0  0  0  0  0  0  0
  139.5813   75.5153  222.8046 H   0  0  0  0  0  0  0  0  0  0  0  0
  140.5890   77.6203  222.2322 H   0  0  0  0  0  0  0  0  0  0  0  0
  141.9539   76.5660  221.9289 H   0  0  0  0  0  0  0  0  0  0  0  0
  141.5512   76.5402  219.5625 H   0  0  0  0  0  0  0  0  0  0  0  0
  143.1684   78.6293  219.3096 H   0  0  0  0  0  0  0  0  0  0  0  0
  142.1927   77.6272  218.1826 H   0  0  0  0  0  0  0  0  0  0  0  0
  142.0107   79.4142  218.1826 H   0  0  0  0  0  0  0  0  0  0  0  0
  141.2462   78.6020  221.8611 H   0  0  0  0  0  0  0  0  0  0  0  0
  142.6019   79.3605  220.9591 H   0  0  0  0  0  0  0  0  0  0  0  0
  140.9800   80.1324  220.9591 H   0  0  0  0  0  0  0  0  0  0  0  0
  138.7823   77.4986  219.5751 H   0  0  0  0  0  0  0  0  0  0  0  0
  139.4961   76.0945  218.7591 H   0  0  0  0  0  0  0  0  0  0  0  0
  136.4050   73.4969  220.8457 H   0  0  0  0  0  0  0  0  0  0  0  0
  138.0220   73.3289  220.0200 H   0  0  0  0  0  0  0  0  0  0  0  0
  138.5290   73.7050  222.8250 H   0  0  0  0  0  0  0  0  0  0  0  0
  137.3108   69.2899  222.7751 H   0  0  0  0  0  0  0  0  0  0  0  0
  138.0586   67.8511  224.6306 H   0  0  0  0  0  0  0  0  0  0  0  0
  139.4374   67.6426  226.6545 H   0  0  0  0  0  0  0  0  0  0  0  0
  141.7908   70.9598  227.9880 H   0  0  0  0  0  0  0  0  0  0  0  0
  140.9689   72.3094  226.0786 H   0  0  0  0  0  0  0  0  0  0  0  0
  143.5338   75.0301  221.0320 H   0  0  0  0  0  0  0  0  0  0  0  0
  145.9681   75.3393  221.2066 H   0  0  0  0  0  0  0  0  0  0  0  0
  147.4918   73.4706  220.5625 H   0  0  0  0  0  0  0  0  0  0  0  0
  146.5406   71.3464  219.7613 H   0  0  0  0  0  0  0  0  0  0  0  0
  144.0811   71.0076  219.5721 H   0  0  0  0  0  0  0  0  0  0  0  0
  1  2  1  0
  2  3  1  0
  3  4  1  0
  4  5  2  0
  4  6  1  0
  6  7  1  0
  7  8  1  0
  8  9  1  0
  9 10  1  0
  9 11  1  0
  8 12  1  0
 12 13  1  0
 13 14  1  0
 14 15  2  0
 14 16  1  0
 16 17  1  0
 17 18  1  0
 18 19  2  0
 18 20  1  0
 20 21  2  0
 21 22  1  0
 22 23  2  0
 23 24  1  0
 24 25  2  0
 25 26  1  0
 25 27  1  0
 27 28  2  0
 28 29  1  0
 29 30  2  0
  2 31  1  0
 31 32  2  0
 32 33  1  0
 33 34  2  0
 34 35  1  0
 35 36  2  0
 13  6  1  0
 30 20  1  0
 36 31  1  0
 29 23  1  0
  1 37  1  0
  1 38  1  0
  1 39  1  0
  2 40  1  1
  3 41  1  0
  6 42  1  1
  7 43  1  0
  7 44  1  0
  8 45  1  6
 10 46  1  0
 10 47  1  0
 10 48  1  0
 11 49  1  0
 11 50  1  0
 11 51  1  0
 12 52  1  0
 12 53  1  0
 16 54  1  0
 16 55  1  0
 17 56  1  0
 21 57  1  0
 22 58  1  0
 24 59  1  0
 27 60  1  0
 28 61  1  0
 32 62  1  0
 33 63  1  0
 34 64  1  0
 35 65  1  0
 36 66  1  0
M  END
>  <smiles>  (13) 
CC(NC(=O)[C@H]1C[C@H](N(C)C)CN1C(=O)CNC(=O)c1ccc2cc(Cl)ccc2n1)c1ccccc1

>  <score_type>  (13) 
oracle

>  <origin>  (13) 
autodockgpu

>  <m_score__min__energy>  (13) 
-9.8300000000000001

>  <m_primary>  (13) 
energy

>  <rmsd>  (13) 
5.510741625912184

>  <m_score__min__rmsd>  (13) 
5.510741625912184

>  <meeko>  (13) 
{"free_energy": -8.59, "intermolecular_energy": -10.98, "internal_energy": -3.04, "cluster_size": 4, "cluster_id": 3, "rank_in_cluster": 4}

>  <energy>  (13) 
-8.71

>  <cluster_rmsd>  (13) 
1.59

>  <cluster>  (13) 
1

$$$$

     RDKit          3D

 66 69  0  0  1  0  0  0  0  0999 V2000
  140.0240   71.8780  223.1700 C   0  0  0  0  0  0  0  0  0  0  0  0
  139.2810   70.9000  224.0390 C   0  0  2  0  0  0  0  0  0  0  0  0
  137.8460   71.1360  224.0390 N   0  0  0  0  0  0  0  0  0  0  0  0
  137.0020   70.0570  223.5950 C   0  0  0  0  0  0  0  0  0  0  0  0
  137.5000   68.9470  223.2230 O   0  0  0  0  0  0  0  0  0  0  0  0
  135.5440   70.2700  223.5830 C   0  0  1  0  0  0  0  0  0  0  0  0
  134.7900   69.0180  224.0130 C   0  0  0  0  0  0  0  0  0  0  0  0
  134.6640   69.1930  225.5080 C   0  0  2  0  0  0  0  0  0  0  0  0
  133.6100   68.4420  226.1050 N   0  0  0  0  0  0  0  0  0  0  0  0
  133.7580   67.0220  226.0200 C   0  0  0  0  0  0  0  0  0  0  0  0
  132.3430   68.8360  225.5730 C   0  0  0  0  0  0  0  0  0  0  0  0
  134.6730   70.6560  225.7720 C   0  0  0  0  0  0  0  0  0  0  0  0
  135.1360   71.2980  224.5370 N   0  0  0  0  0  0  0  0  0  0  0  0
  135.1750   72.7070  224.3180 C   0  0  0  0  0  0  0  0  0  0  0  0
  134.8200   73.4740  225.2500 O   0  0  0  0  0  0  0  0  0  0  0  0
  135.6390   73.2090  222.9950 C   0  0  0  0  0  0  0  0  0  0  0  0
  136.5040   74.3500  223.0980 N   0  0  0  0  0  0  0  0  0  0  0  0
  137.6450   74.3820  222.2380 C   0  0  0  0  0  0  0  0  0  0  0  0
  137.7600   73.3720  221.4640 O   0  0  0  0  0  0  0  0  0  0  0  0
  138.6090   75.4670  222.2270 C   0  0  0  0  0  0  0  0  0  0  0  0
  139.8380   75.2200  221.6500 C   0  0  0  0  0  0  0  0  0  0  0  0
  140.8460   76.1490  221.5660 C   0  0  0  0  0  0  0  0  0  0  0  0
  140.5930   77.4120  222.1040 C   0  0  0  0  0  0  0  0  0  0  0  0
  141.5480   78.4110  222.0650 C   0  0  0  0  0  0  0  0  0  0  0  0
  141.2980   79.6720  222.5980 C   0  0  0  0  0  0  0  0  0  0  0  0
  142.5600   80.8650  222.5040 Cl  0  0  0  0  0  0  0  0  0  0  0  0
  140.0700   79.8960  223.1680 C   0  0  0  0  0  0  0  0  0  0  0  0
  139.1010   78.8980  223.2120 C   0  0  0  0  0  0  0  0  0  0  0  0
  139.3640   77.6540  222.6800 C   0  0  0  0  0  0  0  0  0  0  0  0
  138.3970   76.6830  222.7320 N   0  0  0  0  0  0  0  0  0  0  0  0
  139.8370   70.8410  225.4330 C   0  0  0  0  0  0  0  0  0  0  0  0
  139.5010   69.8040  226.3050 C   0  0  0  0  0  0  0  0  0  0  0  0
  139.9890   69.7230  227.5880 C   0  0  0  0  0  0  0  0  0  0  0  0
  140.8480   70.7050  228.0420 C   0  0  0  0  0  0  0  0  0  0  0  0
  141.1930   71.7390  227.2010 C   0  0  0  0  0  0  0  0  0  0  0  0
  140.7060   71.8350  225.8970 C   0  0  0  0  0  0  0  0  0  0  0  0
  140.5674   72.5933  223.8048 H   0  0  0  0  0  0  0  0  0  0  0  0
  140.7391   71.3345  222.5349 H   0  0  0  0  0  0  0  0  0  0  0  0
  139.3087   72.4212  222.5349 H   0  0  0  0  0  0  0  0  0  0  0  0
  139.4384   69.9085  223.5894 H   0  0  0  0  0  0  0  0  0  0  0  0
  137.4500   72.0470  224.3470 H   0  0  0  0  0  0  0  0  0  0  0  0
  135.3079   70.5580  222.5479 H   0  0  0  0  0  0  0  0  0  0  0  0
  133.8000   68.9694  223.5359 H   0  0  0  0  0  0  0  0  0  0  0  0
  135.2995   68.0859  223.7274 H   0  0  0  0  0  0  0  0  0  0  0  0
  135.5225   68.7423  226.0274 H   0  0  0  0  0  0  0  0  0  0  0  0
  133.8023   66.5967  227.0335 H   0  0  0  0  0  0  0  0  0  0  0  0
  132.8994   66.5955  225.4806 H   0  0  0  0  0  0  0  0  0  0  0  0
  134.6860   66.7817  225.4806 H   0  0  0  0  0  0  0  0  0  0  0  0
  131.6495   69.0517  226.3991 H   0  0  0  0  0  0  0  0  0  0  0  0
  132.4690   69.7374  224.9552 H   0  0  0  0  0  0  0  0  0  0  0  0
  131.9356   68.0221  224.9552 H   0  0  0  0  0  0  0  0  0  0  0  0
  133.6602   71.0031  226.0243 H   0  0  0  0  0  0  0  0  0  0  0  0
  135.3288   70.9037  226.6197 H   0  0  0  0  0  0  0  0  0  0  0  0
  136.1844   72.4009  222.4855 H   0  0  0  0  0  0  0  0  0  0  0  0
  134.7476   73.5227  222.4319 H   0  0  0  0  0  0  0  0  0  0  0  0
  136.3470   75.1550  223.7660 H   0  0  0  0  0  0  0  0  0  0  0  0
  140.0213   74.2190  221.2323 H   0  0  0  0  0  0  0  0  0  0  0  0
  141.8106   75.9083  221.0953 H   0  0  0  0  0  0  0  0  0  0  0  0
  142.5250   78.2050  221.6034 H   0  0  0  0  0  0  0  0  0  0  0  0
  139.8472   80.8835  223.5985 H   0  0  0  0  0  0  0  0  0  0  0  0
  138.1231   79.1025  223.6724 H   0  0  0  0  0  0  0  0  0  0  0  0
  138.8171   69.0186  225.9509 H   0  0  0  0  0  0  0  0  0  0  0  0
  139.6995   68.8883  228.2434 H   0  0  0  0  0  0  0  0  0  0  0  0
  141.2519   70.6613  229.0642 H   0  0  0  0  0  0  0  0  0  0  0  0
  141.8770   72.5173  227.5703 H   0  0  0  0  0  0  0  0  0  0  0  0
  140.9987   72.6735  225.2480 H   0  0  0  0  0  0  0  0  0  0  0  0
  1  2  1  0
  2  3  1  0
  3  4  1  0
  4  5  2  0
  4  6  1  0
  6  7  1  0
  7  8  1  0
  8  9  1  0
  9 10  1  0
  9 11  1  0
  8 12  1  0
 12 13  1  0
 13 14  1  0
 14 15  2  0
 14 16  1  0
 16 17  1  0
 17 18  1  0
 18 19  2  0
 18 20  1  0
 20 21  2  0
 21 22  1  0
 22 23  2  0
 23 24  1  0
 24 25  2  0
 25 26  1  0
 25 27  1  0
 27 28  2  0
 28 29  1  0
 29 30  2  0
  2 31  1  0
 31 32  2  0
 32 33  1  0
 33 34  2  0
 34 35  1  0
 35 36  2  0
 13  6  1  0
 30 20  1  0
 36 31  1  0
 29 23  1  0
  1 37  1  0
  1 38  1  0
  1 39  1  0
  2 40  1  6
  3 41  1  0
  6 42  1  6
  7 43  1  0
  7 44  1  0
  8 45  1  1
 10 46  1  0
 10 47  1  0
 10 48  1  0
 11 49  1  0
 11 50  1  0
 11 51  1  0
 12 52  1  0
 12 53  1  0
 16 54  1  0
 16 55  1  0
 17 56  1  0
 21 57  1  0
 22 58  1  0
 24 59  1  0
 27 60  1  0
 28 61  1  0
 32 62  1  0
 33 63  1  0
 34 64  1  0
 35 65  1  0
 36 66  1  0
M  END
>  <smiles>  (14) 
CC(NC(=O)[C@H]1C[C@H](N(C)C)CN1C(=O)CNC(=O)c1ccc2cc(Cl)ccc2n1)c1ccccc1

>  <score_type>  (14) 
oracle

>  <origin>  (14) 
autodockgpu

>  <m_score__min__energy>  (14) 
-9.8300000000000001

>  <m_primary>  (14) 
energy

>  <rmsd>  (14) 
9.533322203792212

>  <m_score__min__rmsd>  (14) 
9.533322203792212

>  <meeko>  (14) 
{"free_energy": -9.06, "intermolecular_energy": -11.45, "internal_energy": -2.75, "cluster_size": 16, "cluster_id": 1, "rank_in_cluster": 8}

>  <energy>  (14) 
-8.49

>  <cluster_rmsd>  (14) 
0.97

>  <cluster>  (14) 
1

$$$$

     RDKit          3D

 66 69  0  0  1  0  0  0  0  0999 V2000
  142.2140   79.2620  223.5180 C   0  0  0  0  0  0  0  0  0  0  0  0
  141.1770   78.2530  223.1070 C   0  0  2  0  0  0  0  0  0  0  0  0
  141.4760   77.6420  221.8210 N   0  0  0  0  0  0  0  0  0  0  0  0
  141.0220   76.2910  221.6140 C   0  0  0  0  0  0  0  0  0  0  0  0
  140.3850   75.6690  222.5210 O   0  0  0  0  0  0  0  0  0  0  0  0
  141.3140   75.6470  220.3210 C   0  0  1  0  0  0  0  0  0  0  0  0
  142.7650   75.1920  220.2340 C   0  0  0  0  0  0  0  0  0  0  0  0
  142.7130   73.7810  220.7680 C   0  0  2  0  0  0  0  0  0  0  0  0
  143.8020   72.9550  220.3660 N   0  0  0  0  0  0  0  0  0  0  0  0
  143.6860   71.5800  220.7410 C   0  0  0  0  0  0  0  0  0  0  0  0
  145.0420   73.4890  220.8340 C   0  0  0  0  0  0  0  0  0  0  0  0
  141.3460   73.2660  220.4870 C   0  0  0  0  0  0  0  0  0  0  0  0
  140.5300   74.4310  220.1280 N   0  0  0  0  0  0  0  0  0  0  0  0
  139.1820   74.3670  219.6660 C   0  0  0  0  0  0  0  0  0  0  0  0
  138.9630   74.4200  218.4280 O   0  0  0  0  0  0  0  0  0  0  0  0
  138.0900   74.2380  220.6710 C   0  0  0  0  0  0  0  0  0  0  0  0
  138.5200   73.6170  221.8920 N   0  0  0  0  0  0  0  0  0  0  0  0
  138.4820   72.1900  221.9440 C   0  0  0  0  0  0  0  0  0  0  0  0
  138.0620   71.6250  220.8780 O   0  0  0  0  0  0  0  0  0  0  0  0
  138.8840   71.4210  223.1080 C   0  0  0  0  0  0  0  0  0  0  0  0
  138.4110   70.1280  223.2110 C   0  0  0  0  0  0  0  0  0  0  0  0
  138.7090   69.2840  224.2530 C   0  0  0  0  0  0  0  0  0  0  0  0
  139.5400   69.7830  225.2580 C   0  0  0  0  0  0  0  0  0  0  0  0
  139.8940   69.0060  226.3450 C   0  0  0  0  0  0  0  0  0  0  0  0
  140.7240   69.4980  227.3480 C   0  0  0  0  0  0  0  0  0  0  0  0
  141.1140   68.4480  228.6770 Cl  0  0  0  0  0  0  0  0  0  0  0  0
  141.1820   70.7860  227.2250 C   0  0  0  0  0  0  0  0  0  0  0  0
  140.8330   71.5770  226.1350 C   0  0  0  0  0  0  0  0  0  0  0  0
  140.0100   71.0750  225.1510 C   0  0  0  0  0  0  0  0  0  0  0  0
  139.6760   71.8680  224.0840 N   0  0  0  0  0  0  0  0  0  0  0  0
  139.7860   78.8180  223.1450 C   0  0  0  0  0  0  0  0  0  0  0  0
  139.5230   80.0590  223.7270 C   0  0  0  0  0  0  0  0  0  0  0  0
  138.2610   80.6030  223.7810 C   0  0  0  0  0  0  0  0  0  0  0  0
  137.2030   79.8990  223.2390 C   0  0  0  0  0  0  0  0  0  0  0  0
  137.4370   78.6720  222.6600 C   0  0  0  0  0  0  0  0  0  0  0  0
  138.7120   78.1070  222.5980 C   0  0  0  0  0  0  0  0  0  0  0  0
  142.2637   79.3103  224.6158 H   0  0  0  0  0  0  0  0  0  0  0  0
  143.1947   78.9631  223.1194 H   0  0  0  0  0  0  0  0  0  0  0  0
  141.9420   80.2505  223.1194 H   0  0  0  0  0  0  0  0  0  0  0  0
  141.2170   77.4495  223.8572 H   0  0  0  0  0  0  0  0  0  0  0  0
  141.9970   78.1610  221.0860 H   0  0  0  0  0  0  0  0  0  0  0  0
  141.0753   76.4100  219.5655 H   0  0  0  0  0  0  0  0  0  0  0  0
  143.1222   75.2078  219.1937 H   0  0  0  0  0  0  0  0  0  0  0  0
  143.4561   75.8407  220.7921 H   0  0  0  0  0  0  0  0  0  0  0  0
  142.8715   73.7695  221.8565 H   0  0  0  0  0  0  0  0  0  0  0  0
  143.6791   71.4984  221.8379 H   0  0  0  0  0  0  0  0  0  0  0  0
  142.7499   71.1674  220.3368 H   0  0  0  0  0  0  0  0  0  0  0  0
  144.5398   71.0164  220.3368 H   0  0  0  0  0  0  0  0  0  0  0  0
  145.0482   73.4917  221.9340 H   0  0  0  0  0  0  0  0  0  0  0  0
  145.8714   72.8683  220.4641 H   0  0  0  0  0  0  0  0  0  0  0  0
  145.1609   74.5181  220.4641 H   0  0  0  0  0  0  0  0  0  0  0  0
  141.3735   72.5493  219.6530 H   0  0  0  0  0  0  0  0  0  0  0  0
  140.9302   72.7417  221.3601 H   0  0  0  0  0  0  0  0  0  0  0  0
  137.7085   75.2429  220.9046 H   0  0  0  0  0  0  0  0  0  0  0  0
  137.3133   73.5950  220.2313 H   0  0  0  0  0  0  0  0  0  0  0  0
  138.8570   74.1490  222.7410 H   0  0  0  0  0  0  0  0  0  0  0  0
  137.7566   69.7513  222.4111 H   0  0  0  0  0  0  0  0  0  0  0  0
  138.3103   68.2596  224.2939 H   0  0  0  0  0  0  0  0  0  0  0  0
  139.5117   67.9772  226.4188 H   0  0  0  0  0  0  0  0  0  0  0  0
  141.8383   71.2013  228.0040 H   0  0  0  0  0  0  0  0  0  0  0  0
  141.2151   72.6057  226.0588 H   0  0  0  0  0  0  0  0  0  0  0  0
  140.3601   80.6257  224.1607 H   0  0  0  0  0  0  0  0  0  0  0  0
  138.0963   81.5847  224.2491 H   0  0  0  0  0  0  0  0  0  0  0  0
  136.1849   80.3143  223.2697 H   0  0  0  0  0  0  0  0  0  0  0  0
  136.5894   78.1173  222.2311 H   0  0  0  0  0  0  0  0  0  0  0  0
  138.8690   77.1243  222.1294 H   0  0  0  0  0  0  0  0  0  0  0  0
  1  2  1  0
  2  3  1  0
  3  4  1  0
  4  5  2  0
  4  6  1  0
  6  7  1  0
  7  8  1  0
  8  9  1  0
  9 10  1  0
  9 11  1  0
  8 12  1  0
 12 13  1  0
 13 14  1  0
 14 15  2  0
 14 16  1  0
 16 17  1  0
 17 18  1  0
 18 19  2  0
 18 20  1  0
 20 21  2  0
 21 22  1  0
 22 23  2  0
 23 24  1  0
 24 25  2  0
 25 26  1  0
 25 27  1  0
 27 28  2  0
 28 29  1  0
 29 30  2  0
  2 31  1  0
 31 32  2  0
 32 33  1  0
 33 34  2  0
 34 35  1  0
 35 36  2  0
 13  6  1  0
 30 20  1  0
 36 31  1  0
 29 23  1  0
  1 37  1  0
  1 38  1  0
  1 39  1  0
  2 40  1  1
  3 41  1  0
  6 42  1  6
  7 43  1  0
  7 44  1  0
  8 45  1  1
 10 46  1  0
 10 47  1  0
 10 48  1  0
 11 49  1  0
 11 50  1  0
 11 51  1  0
 12 52  1  0
 12 53  1  0
 16 54  1  0
 16 55  1  0
 17 56  1  0
 21 57  1  0
 22 58  1  0
 24 59  1  0
 27 60  1  0
 28 61  1  0
 32 62  1  0
 33 63  1  0
 34 64  1  0
 35 65  1  0
 36 66  1  0
M  END
>  <smiles>  (15) 
CC(NC(=O)[C@H]1C[C@H](N(C)C)CN1C(=O)CNC(=O)c1ccc2cc(Cl)ccc2n1)c1ccccc1

>  <score_type>  (15) 
oracle

>  <origin>  (15) 
autodockgpu

>  <m_score__min__energy>  (15) 
-9.8300000000000001

>  <m_primary>  (15) 
energy

>  <rmsd>  (15) 
2.596433715774498

>  <m_score__min__rmsd>  (15) 
2.596433715774498

>  <meeko>  (15) 
{"free_energy": -8.81, "intermolecular_energy": -11.2, "internal_energy": -3.01, "cluster_size": 20, "cluster_id": 2, "rank_in_cluster": 14}

>  <energy>  (15) 
-8.36

>  <cluster_rmsd>  (15) 
1.09

>  <cluster>  (15) 
1

$$$$

     RDKit          3D

 66 69  0  0  1  0  0  0  0  0999 V2000
  140.5530   71.2290  223.1230 C   0  0  0  0  0  0  0  0  0  0  0  0
  139.9270   70.2450  224.0720 C   0  0  2  0  0  0  0  0  0  0  0  0
  138.5270   69.9940  223.7680 N   0  0  0  0  0  0  0  0  0  0  0  0
  137.7540   71.1010  223.2650 C   0  0  0  0  0  0  0  0  0  0  0  0
  138.2840   72.2440  223.0940 O   0  0  0  0  0  0  0  0  0  0  0  0
  136.3320   70.8740  222.9520 C   0  0  1  0  0  0  0  0  0  0  0  0
  135.9660   69.3980  223.0400 C   0  0  0  0  0  0  0  0  0  0  0  0
  135.5310   69.2400  224.4770 C   0  0  2  0  0  0  0  0  0  0  0  0
  134.6930   68.1140  224.7220 N   0  0  0  0  0  0  0  0  0  0  0  0
  133.9040   67.6950  223.6050 C   0  0  0  0  0  0  0  0  0  0  0  0
  133.8540   68.3440  225.8560 C   0  0  0  0  0  0  0  0  0  0  0  0
  135.0150   70.5640  224.9180 C   0  0  0  0  0  0  0  0  0  0  0  0
  135.4510   71.5360  223.9090 N   0  0  0  0  0  0  0  0  0  0  0  0
  135.0650   72.9090  223.8830 C   0  0  0  0  0  0  0  0  0  0  0  0
  134.4840   73.3940  224.8890 O   0  0  0  0  0  0  0  0  0  0  0  0
  135.3690   73.7110  222.6660 C   0  0  0  0  0  0  0  0  0  0  0  0
  136.6730   74.3130  222.7000 N   0  0  0  0  0  0  0  0  0  0  0  0
  136.7300   75.7410  222.6990 C   0  0  0  0  0  0  0  0  0  0  0  0
  135.5930   76.3220  222.6680 O   0  0  0  0  0  0  0  0  0  0  0  0
  137.9720   76.4910  222.7310 C   0  0  0  0  0  0  0  0  0  0  0  0
  139.1250   75.8290  222.3660 C   0  0  0  0  0  0  0  0  0  0  0  0
  140.3700   76.4090  222.3470 C   0  0  0  0  0  0  0  0  0  0  0  0
  140.4520   77.7510  222.7250 C   0  0  0  0  0  0  0  0  0  0  0  0
  141.6620   78.4190  222.7370 C   0  0  0  0  0  0  0  0  0  0  0  0
  141.7470   79.7560  223.1120 C   0  0  0  0  0  0  0  0  0  0  0  0
  143.3120   80.5130  223.0960 Cl  0  0  0  0  0  0  0  0  0  0  0  0
  140.5880   80.3960  223.4720 C   0  0  0  0  0  0  0  0  0  0  0  0
  139.3640   79.7330  223.4640 C   0  0  0  0  0  0  0  0  0  0  0  0
  139.2960   78.4090  223.0910 C   0  0  0  0  0  0  0  0  0  0  0  0
  138.0820   77.7720  223.0880 N   0  0  0  0  0  0  0  0  0  0  0  0
  140.1240   70.6360  225.5090 C   0  0  0  0  0  0  0  0  0  0  0  0
  140.8510   71.7760  225.8570 C   0  0  0  0  0  0  0  0  0  0  0  0
  141.0520   72.1600  227.1620 C   0  0  0  0  0  0  0  0  0  0  0  0
  140.5160   71.3910  228.1780 C   0  0  0  0  0  0  0  0  0  0  0  0
  139.7960   70.2620  227.8590 C   0  0  0  0  0  0  0  0  0  0  0  0
  139.5830   69.8590  226.5400 C   0  0  0  0  0  0  0  0  0  0  0  0
  141.0570   72.0212  223.6960 H   0  0  0  0  0  0  0  0  0  0  0  0
  141.2878   70.7107  222.4894 H   0  0  0  0  0  0  0  0  0  0  0  0
  139.7722   71.6749  222.4894 H   0  0  0  0  0  0  0  0  0  0  0  0
  140.4590   69.2938  223.9228 H   0  0  0  0  0  0  0  0  0  0  0  0
  138.1050   69.0540  223.9100 H   0  0  0  0  0  0  0  0  0  0  0  0
  136.1990   71.2710  221.9348 H   0  0  0  0  0  0  0  0  0  0  0  0
  135.1457   69.1524  222.3495 H   0  0  0  0  0  0  0  0  0  0  0  0
  136.7939   68.7292  222.7621 H   0  0  0  0  0  0  0  0  0  0  0  0
  136.3852   68.9703  225.1155 H   0  0  0  0  0  0  0  0  0  0  0  0
  132.9864   67.2077  223.9664 H   0  0  0  0  0  0  0  0  0  0  0  0
  133.6381   68.5708  222.9948 H   0  0  0  0  0  0  0  0  0  0  0  0
  134.4807   66.9843  222.9948 H   0  0  0  0  0  0  0  0  0  0  0  0
  134.4323   68.1855  226.7782 H   0  0  0  0  0  0  0  0  0  0  0  0
  133.4794   69.3780  225.8313 H   0  0  0  0  0  0  0  0  0  0  0  0
  133.0045   67.6456  225.8313 H   0  0  0  0  0  0  0  0  0  0  0  0
  133.9168   70.5438  224.9771 H   0  0  0  0  0  0  0  0  0  0  0  0
  135.3952   70.8277  225.9160 H   0  0  0  0  0  0  0  0  0  0  0  0
  135.3107   73.0509  221.7880 H   0  0  0  0  0  0  0  0  0  0  0  0
  134.6321   74.5263  222.6174 H   0  0  0  0  0  0  0  0  0  0  0  0
  137.5770   73.7660  222.7250 H   0  0  0  0  0  0  0  0  0  0  0  0
  139.0429   74.7722  222.0721 H   0  0  0  0  0  0  0  0  0  0  0  0
  141.2633   75.8414  222.0472 H   0  0  0  0  0  0  0  0  0  0  0  0
  142.5765   77.8825  222.4440 H   0  0  0  0  0  0  0  0  0  0  0  0
  140.6267   81.4534  223.7727 H   0  0  0  0  0  0  0  0  0  0  0  0
  138.4485   80.2681  223.7564 H   0  0  0  0  0  0  0  0  0  0  0  0
  141.2809   72.3926  225.0539 H   0  0  0  0  0  0  0  0  0  0  0  0
  141.6310   73.0661  227.3941 H   0  0  0  0  0  0  0  0  0  0  0  0
  140.6632   71.6781  229.2296 H   0  0  0  0  0  0  0  0  0  0  0  0
  139.3732   69.6554  228.6734 H   0  0  0  0  0  0  0  0  0  0  0  0
  139.0032   68.9515  226.3157 H   0  0  0  0  0  0  0  0  0  0  0  0
  1  2  1  0
  2  3  1  0
  3  4  1  0
  4  5  2  0
  4  6  1  0
  6  7  1  0
  7  8  1  0
  8  9  1  0
  9 10  1  0
  9 11  1  0
  8 12  1  0
 12 13  1  0
 13 14  1  0
 14 15  2  0
 14 16  1  0
 16 17  1  0
 17 18  1  0
 18 19  2  0
 18 20  1  0
 20 21  2  0
 21 22  1  0
 22 23  2  0
 23 24  1  0
 24 25  2  0
 25 26  1  0
 25 27  1  0
 27 28  2  0
 28 29  1  0
 29 30  2  0
  2 31  1  0
 31 32  2  0
 32 33  1  0
 33 34  2  0
 34 35  1  0
 35 36  2  0
 13  6  1  0
 30 20  1  0
 36 31  1  0
 29 23  1  0
  1 37  1  0
  1 38  1  0
  1 39  1  0
  2 40  1  1
  3 41  1  0
  6 42  1  6
  7 43  1  0
  7 44  1  0
  8 45  1  1
 10 46  1  0
 10 47  1  0
 10 48  1  0
 11 49  1  0
 11 50  1  0
 11 51  1  0
 12 52  1  0
 12 53  1  0
 16 54  1  0
 16 55  1  0
 17 56  1  0
 21 57  1  0
 22 58  1  0
 24 59  1  0
 27 60  1  0
 28 61  1  0
 32 62  1  0
 33 63  1  0
 34 64  1  0
 35 65  1  0
 36 66  1  0
M  END
>  <smiles>  (16) 
CC(NC(=O)[C@H]1C[C@H](N(C)C)CN1C(=O)CNC(=O)c1ccc2cc(Cl)ccc2n1)c1ccccc1

>  <score_type>  (16) 
oracle

>  <origin>  (16) 
autodockgpu

>  <m_score__min__energy>  (16) 
-9.8300000000000001

>  <m_primary>  (16) 
energy

>  <rmsd>  (16) 
9.249619528778362

>  <m_score__min__rmsd>  (16) 
9.249619528778362

>  <meeko>  (16) 
{"free_energy": -9.16, "intermolecular_energy": -11.55, "internal_energy": -2.38, "cluster_size": 16, "cluster_id": 1, "rank_in_cluster": 7}

>  <energy>  (16) 
-7.97

>  <cluster_rmsd>  (16) 
1.95

>  <cluster>  (16) 
1

$$$$

     RDKit          3D

 66 69  0  0  1  0  0  0  0  0999 V2000
  141.0110   80.4320  219.3010 C   0  0  0  0  0  0  0  0  0  0  0  0
  141.7510   79.3090  219.9720 C   0  0  2  0  0  0  0  0  0  0  0  0
  141.2010   78.0040  219.6390 N   0  0  0  0  0  0  0  0  0  0  0  0
  142.1380   76.9450  219.3680 C   0  0  0  0  0  0  0  0  0  0  0  0
  143.3920   77.1500  219.4220 O   0  0  0  0  0  0  0  0  0  0  0  0
  141.6060   75.6130  219.0260 C   0  0  1  0  0  0  0  0  0  0  0  0
  142.7220   74.5910  218.8530 C   0  0  0  0  0  0  0  0  0  0  0  0
  142.8790   74.0190  220.2420 C   0  0  2  0  0  0  0  0  0  0  0  0
  143.4920   72.7340  220.2870 N   0  0  0  0  0  0  0  0  0  0  0  0
  142.7250   71.7220  220.9460 C   0  0  0  0  0  0  0  0  0  0  0  0
  144.7960   72.8150  220.8660 C   0  0  0  0  0  0  0  0  0  0  0  0
  141.5580   74.1510  220.9130 C   0  0  0  0  0  0  0  0  0  0  0  0
  140.7660   75.0730  220.0900 N   0  0  0  0  0  0  0  0  0  0  0  0
  139.3900   75.3800  220.3100 C   0  0  0  0  0  0  0  0  0  0  0  0
  139.0090   76.5730  220.1830 O   0  0  0  0  0  0  0  0  0  0  0  0
  138.4640   74.2740  220.6780 C   0  0  0  0  0  0  0  0  0  0  0  0
  138.8190   73.6300  221.9110 N   0  0  0  0  0  0  0  0  0  0  0  0
  138.8800   72.2020  221.9050 C   0  0  0  0  0  0  0  0  0  0  0  0
  138.6060   71.6590  220.7820 O   0  0  0  0  0  0  0  0  0  0  0  0
  139.2240   71.4120  223.0730 C   0  0  0  0  0  0  0  0  0  0  0  0
  138.9000   70.0700  223.0510 C   0  0  0  0  0  0  0  0  0  0  0  0
  139.1650   69.2010  224.0800 C   0  0  0  0  0  0  0  0  0  0  0  0
  139.8000   69.7250  225.2090 C   0  0  0  0  0  0  0  0  0  0  0  0
  140.1060   68.9260  226.2940 C   0  0  0  0  0  0  0  0  0  0  0  0
  140.7400   69.4440  227.4190 C   0  0  0  0  0  0  0  0  0  0  0  0
  141.0860   68.3620  228.7350 Cl  0  0  0  0  0  0  0  0  0  0  0  0
  141.0530   70.7800  227.4200 C   0  0  0  0  0  0  0  0  0  0  0  0
  140.7490   71.5950  226.3330 C   0  0  0  0  0  0  0  0  0  0  0  0
  140.1200   71.0660  225.2270 C   0  0  0  0  0  0  0  0  0  0  0  0
  139.8300   71.8830  224.1640 N   0  0  0  0  0  0  0  0  0  0  0  0
  141.8600   79.5050  221.4570 C   0  0  0  0  0  0  0  0  0  0  0  0
  142.3760   80.6850  221.9970 C   0  0  0  0  0  0  0  0  0  0  0  0
  142.4910   80.8950  223.3510 C   0  0  0  0  0  0  0  0  0  0  0  0
  142.0830   79.9030  224.2210 C   0  0  0  0  0  0  0  0  0  0  0  0
  141.5720   78.7300  223.7130 C   0  0  0  0  0  0  0  0  0  0  0  0
  141.4480   78.5020  222.3410 C   0  0  0  0  0  0  0  0  0  0  0  0
  140.5757   81.0926  220.0653 H   0  0  0  0  0  0  0  0  0  0  0  0
  141.7078   81.0068  218.6733 H   0  0  0  0  0  0  0  0  0  0  0  0
  140.2079   80.0185  218.6733 H   0  0  0  0  0  0  0  0  0  0  0  0
  142.7746   79.3338  219.5699 H   0  0  0  0  0  0  0  0  0  0  0  0
  140.1740   77.8470  219.5990 H   0  0  0  0  0  0  0  0  0  0  0  0
  141.0379   75.7641  218.0963 H   0  0  0  0  0  0  0  0  0  0  0  0
  142.4343   73.8097  218.1341 H   0  0  0  0  0  0  0  0  0  0  0  0
  143.6509   75.0271  218.4568 H   0  0  0  0  0  0  0  0  0  0  0  0
  143.6199   74.5924  220.8185 H   0  0  0  0  0  0  0  0  0  0  0  0
  142.8170   71.8434  222.0354 H   0  0  0  0  0  0  0  0  0  0  0  0
  141.6684   71.8148  220.6546 H   0  0  0  0  0  0  0  0  0  0  0  0
  143.0999   70.7298  220.6546 H   0  0  0  0  0  0  0  0  0  0  0  0
  144.7112   72.8097  221.9627 H   0  0  0  0  0  0  0  0  0  0  0  0
  145.3960   71.9524  220.5405 H   0  0  0  0  0  0  0  0  0  0  0  0
  145.2846   73.7452  220.5405 H   0  0  0  0  0  0  0  0  0  0  0  0
  141.0615   73.1712  220.9718 H   0  0  0  0  0  0  0  0  0  0  0  0
  141.6683   74.5278  221.9406 H   0  0  0  0  0  0  0  0  0  0  0  0
  137.4488   74.6857  220.7775 H   0  0  0  0  0  0  0  0  0  0  0  0
  138.5247   73.5166  219.8826 H   0  0  0  0  0  0  0  0  0  0  0  0
  139.0330   74.1460  222.8090 H   0  0  0  0  0  0  0  0  0  0  0  0
  138.3996   69.6735  222.1553 H   0  0  0  0  0  0  0  0  0  0  0  0
  138.8893   68.1379  224.0185 H   0  0  0  0  0  0  0  0  0  0  0  0
  139.8429   67.8583  226.2678 H   0  0  0  0  0  0  0  0  0  0  0  0
  141.5540   71.2157  228.2970 H   0  0  0  0  0  0  0  0  0  0  0  0
  141.0114   72.6630  226.3571 H   0  0  0  0  0  0  0  0  0  0  0  0
  142.7041   81.4795  221.3106 H   0  0  0  0  0  0  0  0  0  0  0  0
  142.9022   81.8399  223.7359 H   0  0  0  0  0  0  0  0  0  0  0  0
  142.1655   80.0486  225.3082 H   0  0  0  0  0  0  0  0  0  0  0  0
  141.2500   77.9446  224.4126 H   0  0  0  0  0  0  0  0  0  0  0  0
  141.0355   77.5547  221.9636 H   0  0  0  0  0  0  0  0  0  0  0  0
  1  2  1  0
  2  3  1  0
  3  4  1  0
  4  5  2  0
  4  6  1  0
  6  7  1  0
  7  8  1  0
  8  9  1  0
  9 10  1  0
  9 11  1  0
  8 12  1  0
 12 13  1  0
 13 14  1  0
 14 15  2  0
 14 16  1  0
 16 17  1  0
 17 18  1  0
 18 19  2  0
 18 20  1  0
 20 21  2  0
 21 22  1  0
 22 23  2  0
 23 24  1  0
 24 25  2  0
 25 26  1  0
 25 27  1  0
 27 28  2  0
 28 29  1  0
 29 30  2  0
  2 31  1  0
 31 32  2  0
 32 33  1  0
 33 34  2  0
 34 35  1  0
 35 36  2  0
 13  6  1  0
 30 20  1  0
 36 31  1  0
 29 23  1  0
  1 37  1  0
  1 38  1  0
  1 39  1  0
  2 40  1  6
  3 41  1  0
  6 42  1  6
  7 43  1  0
  7 44  1  0
  8 45  1  1
 10 46  1  0
 10 47  1  0
 10 48  1  0
 11 49  1  0
 11 50  1  0
 11 51  1  0
 12 52  1  0
 12 53  1  0
 16 54  1  0
 16 55  1  0
 17 56  1  0
 21 57  1  0
 22 58  1  0
 24 59  1  0
 27 60  1  0
 28 61  1  0
 32 62  1  0
 33 63  1  0
 34 64  1  0
 35 65  1  0
 36 66  1  0
M  END
>  <smiles>  (17) 
CC(NC(=O)[C@H]1C[C@H](N(C)C)CN1C(=O)CNC(=O)c1ccc2cc(Cl)ccc2n1)c1ccccc1

>  <score_type>  (17) 
oracle

>  <origin>  (17) 
autodockgpu

>  <m_score__min__energy>  (17) 
-9.8300000000000001

>  <m_primary>  (17) 
energy

>  <rmsd>  (17) 
2.973872911759083

>  <m_score__min__rmsd>  (17) 
2.973872911759083

>  <meeko>  (17) 
{"free_energy": -8.87, "intermolecular_energy": -11.26, "internal_energy": -3.11, "cluster_size": 20, "cluster_id": 2, "rank_in_cluster": 12}

>  <energy>  (17) 
-9.65

>  <cluster_rmsd>  (17) 
0.0

>  <cluster>  (17) 
2

$$$$

     RDKit          3D

 66 69  0  0  1  0  0  0  0  0999 V2000
  134.1940   77.3410  223.1790 C   0  0  0  0  0  0  0  0  0  0  0  0
  135.6100   76.8720  223.3640 C   0  0  2  0  0  0  0  0  0  0  0  0
  136.5340   77.5180  222.4450 N   0  0  0  0  0  0  0  0  0  0  0  0
  137.9290   77.1870  222.5740 C   0  0  0  0  0  0  0  0  0  0  0  0
  138.3270   76.3600  223.4540 O   0  0  0  0  0  0  0  0  0  0  0  0
  138.8870   77.8300  221.6560 C   0  0  1  0  0  0  0  0  0  0  0  0
  139.1970   79.2600  222.0790 C   0  0  0  0  0  0  0  0  0  0  0  0
  140.3900   79.0950  222.9890 C   0  0  2  0  0  0  0  0  0  0  0  0
  141.1820   80.2700  223.1450 N   0  0  0  0  0  0  0  0  0  0  0  0
  141.1570   81.1670  222.0310 C   0  0  0  0  0  0  0  0  0  0  0  0
  142.5310   79.9310  223.4720 C   0  0  0  0  0  0  0  0  0  0  0  0
  141.1010   77.8660  222.5470 C   0  0  0  0  0  0  0  0  0  0  0  0
  140.1800   77.1520  221.6560 N   0  0  0  0  0  0  0  0  0  0  0  0
  140.5120   75.9800  220.9130 C   0  0  0  0  0  0  0  0  0  0  0  0
  141.6520   75.8990  220.3870 O   0  0  0  0  0  0  0  0  0  0  0  0
  139.4930   74.9000  220.7950 C   0  0  0  0  0  0  0  0  0  0  0  0
  139.3830   74.0990  221.9820 N   0  0  0  0  0  0  0  0  0  0  0  0
  140.1470   72.8920  222.0260 C   0  0  0  0  0  0  0  0  0  0  0  0
  140.8500   72.6650  220.9840 O   0  0  0  0  0  0  0  0  0  0  0  0
  140.1390   71.9810  223.1560 C   0  0  0  0  0  0  0  0  0  0  0  0
  139.5510   70.7460  222.9730 C   0  0  0  0  0  0  0  0  0  0  0  0
  139.4700   69.7830  223.9490 C   0  0  0  0  0  0  0  0  0  0  0  0
  140.0220   70.0920  225.1940 C   0  0  0  0  0  0  0  0  0  0  0  0
  139.9880   69.1850  226.2370 C   0  0  0  0  0  0  0  0  0  0  0  0
  140.5380   69.4880  227.4780 C   0  0  0  0  0  0  0  0  0  0  0  0
  140.4490   68.2850  228.7300 Cl  0  0  0  0  0  0  0  0  0  0  0  0
  141.1180   70.7220  227.6380 C   0  0  0  0  0  0  0  0  0  0  0  0
  141.1580   71.6430  226.5960 C   0  0  0  0  0  0  0  0  0  0  0  0
  140.6080   71.3270  225.3730 C   0  0  0  0  0  0  0  0  0  0  0  0
  140.6570   72.2460  224.3560 N   0  0  0  0  0  0  0  0  0  0  0  0
  135.7250   75.3750  223.3090 C   0  0  0  0  0  0  0  0  0  0  0  0
  136.0780   74.7180  222.1290 C   0  0  0  0  0  0  0  0  0  0  0  0
  136.1890   73.3500  222.0440 C   0  0  0  0  0  0  0  0  0  0  0  0
  135.9430   72.5860  223.1690 C   0  0  0  0  0  0  0  0  0  0  0  0
  135.5930   73.2110  224.3440 C   0  0  0  0  0  0  0  0  0  0  0  0
  135.4760   74.5980  224.4460 C   0  0  0  0  0  0  0  0  0  0  0  0
  133.7274   77.4955  224.1631 H   0  0  0  0  0  0  0  0  0  0  0  0
  134.1916   78.2879  222.6193 H   0  0  0  0  0  0  0  0  0  0  0  0
  133.6268   76.5828  222.6193 H   0  0  0  0  0  0  0  0  0  0  0  0
  135.9050   77.1798  224.3780 H   0  0  0  0  0  0  0  0  0  0  0  0
  136.1970   78.1920  221.7270 H   0  0  0  0  0  0  0  0  0  0  0  0
  138.4049   77.7879  220.6682 H   0  0  0  0  0  0  0  0  0  0  0  0
  139.4473   79.8841  221.2085 H   0  0  0  0  0  0  0  0  0  0  0  0
  138.3474   79.7616  222.5654 H   0  0  0  0  0  0  0  0  0  0  0  0
  140.0691   78.9538  224.0316 H   0  0  0  0  0  0  0  0  0  0  0  0
  141.1281   82.2043  222.3960 H   0  0  0  0  0  0  0  0  0  0  0  0
  142.0596   81.0183  221.4202 H   0  0  0  0  0  0  0  0  0  0  0  0
  140.2640   80.9682  221.4202 H   0  0  0  0  0  0  0  0  0  0  0  0
  142.6470   79.9019  224.5655 H   0  0  0  0  0  0  0  0  0  0  0  0
  142.7734   78.9440  223.0511 H   0  0  0  0  0  0  0  0  0  0  0  0
  143.2112   80.6861  223.0511 H   0  0  0  0  0  0  0  0  0  0  0  0
  142.0219   78.1325  222.0077 H   0  0  0  0  0  0  0  0  0  0  0  0
  141.3893   77.2417  223.4056 H   0  0  0  0  0  0  0  0  0  0  0  0
  138.5153   75.3614  220.5919 H   0  0  0  0  0  0  0  0  0  0  0  0
  139.8115   74.2354  219.9784 H   0  0  0  0  0  0  0  0  0  0  0  0
  138.7770   74.3490  222.8120 H   0  0  0  0  0  0  0  0  0  0  0  0
  139.1213   70.5192  221.9861 H   0  0  0  0  0  0  0  0  0  0  0  0
  138.9914   68.8111  223.7584 H   0  0  0  0  0  0  0  0  0  0  0  0
  139.5162   68.2035  226.0821 H   0  0  0  0  0  0  0  0  0  0  0  0
  141.5600   70.9879  228.6096 H   0  0  0  0  0  0  0  0  0  0  0  0
  141.6295   72.6250  226.7488 H   0  0  0  0  0  0  0  0  0  0  0  0
  136.2756   75.3197  221.2296 H   0  0  0  0  0  0  0  0  0  0  0  0
  136.4695   72.8708  221.0944 H   0  0  0  0  0  0  0  0  0  0  0  0
  136.0261   71.4900  223.1257 H   0  0  0  0  0  0  0  0  0  0  0  0
  135.3985   72.5954  225.2346 H   0  0  0  0  0  0  0  0  0  0  0  0
  135.1943   75.0699  225.3989 H   0  0  0  0  0  0  0  0  0  0  0  0
  1  2  1  0
  2  3  1  0
  3  4  1  0
  4  5  2  0
  4  6  1  0
  6  7  1  0
  7  8  1  0
  8  9  1  0
  9 10  1  0
  9 11  1  0
  8 12  1  0
 12 13  1  0
 13 14  1  0
 14 15  2  0
 14 16  1  0
 16 17  1  0
 17 18  1  0
 18 19  2  0
 18 20  1  0
 20 21  2  0
 21 22  1  0
 22 23  2  0
 23 24  1  0
 24 25  2  0
 25 26  1  0
 25 27  1  0
 27 28  2  0
 28 29  1  0
 29 30  2  0
  2 31  1  0
 31 32  2  0
 32 33  1  0
 33 34  2  0
 34 35  1  0
 35 36  2  0
 13  6  1  0
 30 20  1  0
 36 31  1  0
 29 23  1  0
  1 37  1  0
  1 38  1  0
  1 39  1  0
  2 40  1  1
  3 41  1  0
  6 42  1  6
  7 43  1  0
  7 44  1  0
  8 45  1  1
 10 46  1  0
 10 47  1  0
 10 48  1  0
 11 49  1  0
 11 50  1  0
 11 51  1  0
 12 52  1  0
 12 53  1  0
 16 54  1  0
 16 55  1  0
 17 56  1  0
 21 57  1  0
 22 58  1  0
 24 59  1  0
 27 60  1  0
 28 61  1  0
 32 62  1  0
 33 63  1  0
 34 64  1  0
 35 65  1  0
 36 66  1  0
M  END
>  <smiles>  (18) 
CC(NC(=O)[C@H]1C[C@H](N(C)C)CN1C(=O)CNC(=O)c1ccc2cc(Cl)ccc2n1)c1ccccc1

>  <score_type>  (18) 
oracle

>  <origin>  (18) 
autodockgpu

>  <m_score__min__energy>  (18) 
-9.8300000000000001

>  <m_primary>  (18) 
energy

>  <rmsd>  (18) 
5.521640498782823

>  <m_score__min__rmsd>  (18) 
5.521640498782823

>  <meeko>  (18) 
{"free_energy": -8.1, "intermolecular_energy": -10.48, "internal_energy": -3.26, "cluster_size": 1, "cluster_id": 6, "rank_in_cluster": 1}

>  <energy>  (18) 
-9.55

>  <cluster_rmsd>  (18) 
1.67

>  <cluster>  (18) 
2

$$$$

     RDKit          3D

 66 69  0  0  1  0  0  0  0  0999 V2000
  142.0520   78.9870  219.4170 C   0  0  0  0  0  0  0  0  0  0  0  0
  141.8170   78.3590  220.7620 C   0  0  2  0  0  0  0  0  0  0  0  0
  140.6570   77.4820  220.7710 N   0  0  0  0  0  0  0  0  0  0  0  0
  140.3640   76.7900  221.9990 C   0  0  0  0  0  0  0  0  0  0  0  0
  141.0930   76.9480  223.0290 O   0  0  0  0  0  0  0  0  0  0  0  0
  139.1950   75.8930  222.0340 C   0  0  1  0  0  0  0  0  0  0  0  0
  138.1540   76.3670  223.0400 C   0  0  0  0  0  0  0  0  0  0  0  0
  137.2660   77.2650  222.2140 C   0  0  2  0  0  0  0  0  0  0  0  0
  135.9590   77.4610  222.7500 N   0  0  0  0  0  0  0  0  0  0  0  0
  135.7580   78.7170  223.4040 C   0  0  0  0  0  0  0  0  0  0  0  0
  135.6050   76.3890  223.6250 C   0  0  0  0  0  0  0  0  0  0  0  0
  137.3450   76.7770  220.8120 C   0  0  0  0  0  0  0  0  0  0  0  0
  138.4920   75.8640  220.7550 N   0  0  0  0  0  0  0  0  0  0  0  0
  138.8500   75.0790  219.6190 C   0  0  0  0  0  0  0  0  0  0  0  0
  139.6680   75.5530  218.7890 O   0  0  0  0  0  0  0  0  0  0  0  0
  138.2410   73.7280  219.4680 C   0  0  0  0  0  0  0  0  0  0  0  0
  138.1930   72.9910  220.6990 N   0  0  0  0  0  0  0  0  0  0  0  0
  139.4410   72.5830  221.2620 C   0  0  0  0  0  0  0  0  0  0  0  0
  140.4710   72.9290  220.5910 O   0  0  0  0  0  0  0  0  0  0  0  0
  139.5530   71.8330  222.5010 C   0  0  0  0  0  0  0  0  0  0  0  0
  138.8750   70.6340  222.5810 C   0  0  0  0  0  0  0  0  0  0  0  0
  138.8890   69.8190  223.6860 C   0  0  0  0  0  0  0  0  0  0  0  0
  139.6390   70.2470  224.7840 C   0  0  0  0  0  0  0  0  0  0  0  0
  139.7120   69.4920  225.9400 C   0  0  0  0  0  0  0  0  0  0  0  0
  140.4600   69.9150  227.0340 C   0  0  0  0  0  0  0  0  0  0  0  0
  140.4920   68.9000  228.4450 Cl  0  0  0  0  0  0  0  0  0  0  0  0
  141.1250   71.1110  226.9330 C   0  0  0  0  0  0  0  0  0  0  0  0
  141.0590   71.8790  225.7740 C   0  0  0  0  0  0  0  0  0  0  0  0
  140.3140   71.4470  224.6990 C   0  0  0  0  0  0  0  0  0  0  0  0
  140.2600   72.2160  223.5650 N   0  0  0  0  0  0  0  0  0  0  0  0
  141.7530   79.3790  221.8630 C   0  0  0  0  0  0  0  0  0  0  0  0
  140.5930   80.1180  222.1000 C   0  0  0  0  0  0  0  0  0  0  0  0
  140.5020   81.0610  223.0970 C   0  0  0  0  0  0  0  0  0  0  0  0
  141.6000   81.2930  223.9030 C   0  0  0  0  0  0  0  0  0  0  0  0
  142.7550   80.5760  223.6890 C   0  0  0  0  0  0  0  0  0  0  0  0
  142.8630   79.6160  222.6810 C   0  0  0  0  0  0  0  0  0  0  0  0
  142.4346   80.0095  219.5516 H   0  0  0  0  0  0  0  0  0  0  0  0
  142.7879   78.3908  218.8575 H   0  0  0  0  0  0  0  0  0  0  0  0
  141.1055   79.0204  218.8575 H   0  0  0  0  0  0  0  0  0  0  0  0
  142.6940   77.7258  220.9618 H   0  0  0  0  0  0  0  0  0  0  0  0
  140.0670   77.3610  219.9230 H   0  0  0  0  0  0  0  0  0  0  0  0
  139.6029   74.9058  222.2967 H   0  0  0  0  0  0  0  0  0  0  0  0
  137.5862   75.5189  223.4503 H   0  0  0  0  0  0  0  0  0  0  0  0
  138.5935   76.8752  223.9110 H   0  0  0  0  0  0  0  0  0  0  0  0
  137.6290   78.3030  222.2403 H   0  0  0  0  0  0  0  0  0  0  0  0
  135.7814   78.5707  224.4940 H   0  0  0  0  0  0  0  0  0  0  0  0
  136.5559   79.4151  223.1105 H   0  0  0  0  0  0  0  0  0  0  0  0
  134.7821   79.1312  223.1105 H   0  0  0  0  0  0  0  0  0  0  0  0
  135.7133   76.7171  224.6693 H   0  0  0  0  0  0  0  0  0  0  0  0
  134.5617   76.0938  223.4398 H   0  0  0  0  0  0  0  0  0  0  0  0
  136.2674   75.5305  223.4398 H   0  0  0  0  0  0  0  0  0  0  0  0
  136.4211   76.2445  220.5419 H   0  0  0  0  0  0  0  0  0  0  0  0
  137.4643   77.6116  220.1055 H   0  0  0  0  0  0  0  0  0  0  0  0
  137.2145   73.8469  219.0909 H   0  0  0  0  0  0  0  0  0  0  0  0
  138.8730   73.1595  218.7699 H   0  0  0  0  0  0  0  0  0  0  0  0
  137.2990   72.7380  221.2030 H   0  0  0  0  0  0  0  0  0  0  0  0
  138.2885   70.3119  221.7079 H   0  0  0  0  0  0  0  0  0  0  0  0
  138.3335   68.8698  223.7057 H   0  0  0  0  0  0  0  0  0  0  0  0
  139.1677   68.5377  225.9958 H   0  0  0  0  0  0  0  0  0  0  0  0
  141.7218   71.4698  227.7845 H   0  0  0  0  0  0  0  0  0  0  0  0
  141.6031   72.8333  225.7164 H   0  0  0  0  0  0  0  0  0  0  0  0
  139.7146   79.9387  221.4626 H   0  0  0  0  0  0  0  0  0  0  0  0
  139.5686   81.6224  223.2505 H   0  0  0  0  0  0  0  0  0  0  0  0
  141.5515   82.0424  224.7067 H   0  0  0  0  0  0  0  0  0  0  0  0
  143.6245   80.7661  224.3354 H   0  0  0  0  0  0  0  0  0  0  0  0
  143.7997   79.0585  222.5333 H   0  0  0  0  0  0  0  0  0  0  0  0
  1  2  1  0
  2  3  1  0
  3  4  1  0
  4  5  2  0
  4  6  1  0
  6  7  1  0
  7  8  1  0
  8  9  1  0
  9 10  1  0
  9 11  1  0
  8 12  1  0
 12 13  1  0
 13 14  1  0
 14 15  2  0
 14 16  1  0
 16 17  1  0
 17 18  1  0
 18 19  2  0
 18 20  1  0
 20 21  2  0
 21 22  1  0
 22 23  2  0
 23 24  1  0
 24 25  2  0
 25 26  1  0
 25 27  1  0
 27 28  2  0
 28 29  1  0
 29 30  2  0
  2 31  1  0
 31 32  2  0
 32 33  1  0
 33 34  2  0
 34 35  1  0
 35 36  2  0
 13  6  1  0
 30 20  1  0
 36 31  1  0
 29 23  1  0
  1 37  1  0
  1 38  1  0
  1 39  1  0
  2 40  1  1
  3 41  1  0
  6 42  1  1
  7 43  1  0
  7 44  1  0
  8 45  1  6
 10 46  1  0
 10 47  1  0
 10 48  1  0
 11 49  1  0
 11 50  1  0
 11 51  1  0
 12 52  1  0
 12 53  1  0
 16 54  1  0
 16 55  1  0
 17 56  1  0
 21 57  1  0
 22 58  1  0
 24 59  1  0
 27 60  1  0
 28 61  1  0
 32 62  1  0
 33 63  1  0
 34 64  1  0
 35 65  1  0
 36 66  1  0
M  END
>  <smiles>  (19) 
CC(NC(=O)[C@H]1C[C@H](N(C)C)CN1C(=O)CNC(=O)c1ccc2cc(Cl)ccc2n1)c1ccccc1

>  <score_type>  (19) 
oracle

>  <origin>  (19) 
autodockgpu

>  <m_score__min__energy>  (19) 
-9.8300000000000001

>  <m_primary>  (19) 
energy

>  <rmsd>  (19) 
3.247666066356281

>  <m_score__min__rmsd>  (19) 
3.247666066356281

>  <meeko>  (19) 
{"free_energy": -7.72, "intermolecular_energy": -10.11, "internal_energy": -3.12, "cluster_size": 4, "cluster_id": 4, "rank_in_cluster": 4}

>  <energy>  (19) 
-9.44

>  <cluster_rmsd>  (19) 
1.27

>  <cluster>  (19) 
2

$$$$

     RDKit          3D

 66 69  0  0  1  0  0  0  0  0999 V2000
  143.5610   76.3980  218.4320 C   0  0  0  0  0  0  0  0  0  0  0  0
  143.0270   75.2870  219.2930 C   0  0  2  0  0  0  0  0  0  0  0  0
  142.2820   75.7810  220.4390 N   0  0  0  0  0  0  0  0  0  0  0  0
  141.0140   75.1580  220.7180 C   0  0  0  0  0  0  0  0  0  0  0  0
  140.5750   74.2140  219.9890 O   0  0  0  0  0  0  0  0  0  0  0  0
  140.2370   75.6420  221.8730 C   0  0  1  0  0  0  0  0  0  0  0  0
  140.9910   76.7160  222.6480 C   0  0  0  0  0  0  0  0  0  0  0  0
  140.5410   77.9950  221.9850 C   0  0  2  0  0  0  0  0  0  0  0  0
  140.6960   79.1630  222.7850 N   0  0  0  0  0  0  0  0  0  0  0  0
  140.9950   80.3570  222.0570 C   0  0  0  0  0  0  0  0  0  0  0  0
  141.6730   78.9520  223.8060 C   0  0  0  0  0  0  0  0  0  0  0  0
  139.1830   77.7390  221.4350 C   0  0  0  0  0  0  0  0  0  0  0  0
  138.9920   76.2840  221.4620 N   0  0  0  0  0  0  0  0  0  0  0  0
  137.7740   75.6180  221.1350 C   0  0  0  0  0  0  0  0  0  0  0  0
  136.7230   76.3000  221.0180 O   0  0  0  0  0  0  0  0  0  0  0  0
  137.8000   74.1410  220.9420 C   0  0  0  0  0  0  0  0  0  0  0  0
  138.0470   73.4190  222.1590 N   0  0  0  0  0  0  0  0  0  0  0  0
  138.8880   72.2670  222.0720 C   0  0  0  0  0  0  0  0  0  0  0  0
  139.3290   72.0120  220.9010 O   0  0  0  0  0  0  0  0  0  0  0  0
  139.2290   71.4380  223.2140 C   0  0  0  0  0  0  0  0  0  0  0  0
  138.8670   70.1070  223.1640 C   0  0  0  0  0  0  0  0  0  0  0  0
  139.1240   69.2050  224.1670 C   0  0  0  0  0  0  0  0  0  0  0  0
  139.7900   69.6830  225.2980 C   0  0  0  0  0  0  0  0  0  0  0  0
  140.0920   68.8480  226.3570 C   0  0  0  0  0  0  0  0  0  0  0  0
  140.7570   69.3200  227.4840 C   0  0  0  0  0  0  0  0  0  0  0  0
  141.0930   68.1970  228.7680 Cl  0  0  0  0  0  0  0  0  0  0  0  0
  141.1070   70.6470  227.5130 C   0  0  0  0  0  0  0  0  0  0  0  0
  140.8090   71.4970  226.4520 C   0  0  0  0  0  0  0  0  0  0  0  0
  140.1490   71.0140  225.3440 C   0  0  0  0  0  0  0  0  0  0  0  0
  139.8640   71.8650  224.3070 N   0  0  0  0  0  0  0  0  0  0  0  0
  144.1010   74.3180  219.7010 C   0  0  0  0  0  0  0  0  0  0  0  0
  145.0170   74.6320  220.7070 C   0  0  0  0  0  0  0  0  0  0  0  0
  146.0120   73.7700  221.1020 C   0  0  0  0  0  0  0  0  0  0  0  0
  146.1180   72.5390  220.4840 C   0  0  0  0  0  0  0  0  0  0  0  0
  145.2270   72.2070  219.4890 C   0  0  0  0  0  0  0  0  0  0  0  0
  144.2110   73.0710  219.0760 C   0  0  0  0  0  0  0  0  0  0  0  0
  143.9485   77.2042  219.0723 H   0  0  0  0  0  0  0  0  0  0  0  0
  144.3721   76.0122  217.7969 H   0  0  0  0  0  0  0  0  0  0  0  0
  142.7531   76.7904  217.7969 H   0  0  0  0  0  0  0  0  0  0  0  0
  142.3128   74.7306  218.6683 H   0  0  0  0  0  0  0  0  0  0  0  0
  142.6520   76.5540  221.0300 H   0  0  0  0  0  0  0  0  0  0  0  0
  140.0514   74.7463  222.4840 H   0  0  0  0  0  0  0  0  0  0  0  0
  140.7130   76.7037  223.7122 H   0  0  0  0  0  0  0  0  0  0  0  0
  142.0822   76.5787  222.6275 H   0  0  0  0  0  0  0  0  0  0  0  0
  141.2090   78.2583  221.1517 H   0  0  0  0  0  0  0  0  0  0  0  0
  141.1999   81.1753  222.7630 H   0  0  0  0  0  0  0  0  0  0  0  0
  141.8788   80.1889  221.4240 H   0  0  0  0  0  0  0  0  0  0  0  0
  140.1363   80.6253  221.4240 H   0  0  0  0  0  0  0  0  0  0  0  0
  141.1993   79.0543  224.7935 H   0  0  0  0  0  0  0  0  0  0  0  0
  142.0963   77.9417  223.7053 H   0  0  0  0  0  0  0  0  0  0  0  0
  142.4755   79.6975  223.7053 H   0  0  0  0  0  0  0  0  0  0  0  0
  138.4217   78.2341  222.0557 H   0  0  0  0  0  0  0  0  0  0  0  0
  139.0856   78.1349  220.4133 H   0  0  0  0  0  0  0  0  0  0  0  0
  136.8276   73.8234  220.5375 H   0  0  0  0  0  0  0  0  0  0  0  0
  138.6263   73.9144  220.2521 H   0  0  0  0  0  0  0  0  0  0  0  0
  137.6470   73.6890  223.0990 H   0  0  0  0  0  0  0  0  0  0  0  0
  138.3413   69.7473  222.2672 H   0  0  0  0  0  0  0  0  0  0  0  0
  138.8186   68.1516  224.0834 H   0  0  0  0  0  0  0  0  0  0  0  0
  139.8006   67.7885  226.3077 H   0  0  0  0  0  0  0  0  0  0  0  0
  141.6335   71.0465  228.3923 H   0  0  0  0  0  0  0  0  0  0  0  0
  141.1012   72.5565  226.4985 H   0  0  0  0  0  0  0  0  0  0  0  0
  144.9390   75.6101  221.2042 H   0  0  0  0  0  0  0  0  0  0  0  0
  146.7140   74.0563  221.8990 H   0  0  0  0  0  0  0  0  0  0  0  0
  146.9057   71.8321  220.7838 H   0  0  0  0  0  0  0  0  0  0  0  0
  145.3187   71.2252  219.0014 H   0  0  0  0  0  0  0  0  0  0  0  0
  143.5131   72.7781  218.2777 H   0  0  0  0  0  0  0  0  0  0  0  0
  1  2  1  0
  2  3  1  0
  3  4  1  0
  4  5  2  0
  4  6  1  0
  6  7  1  0
  7  8  1  0
  8  9  1  0
  9 10  1  0
  9 11  1  0
  8 12  1  0
 12 13  1  0
 13 14  1  0
 14 15  2  0
 14 16  1  0
 16 17  1  0
 17 18  1  0
 18 19  2  0
 18 20  1  0
 20 21  2  0
 21 22  1  0
 22 23  2  0
 23 24  1  0
 24 25  2  0
 25 26  1  0
 25 27  1  0
 27 28  2  0
 28 29  1  0
 29 30  2  0
  2 31  1  0
 31 32  2  0
 32 33  1  0
 33 34  2  0
 34 35  1  0
 35 36  2  0
 13  6  1  0
 30 20  1  0
 36 31  1  0
 29 23  1  0
  1 37  1  0
  1 38  1  0
  1 39  1  0
  2 40  1  6
  3 41  1  0
  6 42  1  1
  7 43  1  0
  7 44  1  0
  8 45  1  6
 10 46  1  0
 10 47  1  0
 10 48  1  0
 11 49  1  0
 11 50  1  0
 11 51  1  0
 12 52  1  0
 12 53  1  0
 16 54  1  0
 16 55  1  0
 17 56  1  0
 21 57  1  0
 22 58  1  0
 24 59  1  0
 27 60  1  0
 28 61  1  0
 32 62  1  0
 33 63  1  0
 34 64  1  0
 35 65  1  0
 36 66  1  0
M  END
>  <smiles>  (20) 
CC(NC(=O)[C@H]1C[C@H](N(C)C)CN1C(=O)CNC(=O)c1ccc2cc(Cl)ccc2n1)c1ccccc1

>  <score_type>  (20) 
oracle

>  <origin>  (20) 
autodockgpu

>  <m_score__min__energy>  (20) 
-9.8300000000000001

>  <m_primary>  (20) 
energy

>  <rmsd>  (20) 
5.2365773093606895

>  <m_score__min__rmsd>  (20) 
5.2365773093606895

>  <meeko>  (20) 
{"free_energy": -9.44, "intermolecular_energy": -11.82, "internal_energy": -2.14, "cluster_size": 4, "cluster_id": 3, "rank_in_cluster": 1}

>  <energy>  (20) 
-9.39

>  <cluster_rmsd>  (20) 
1.66

>  <cluster>  (20) 
2

$$$$

     RDKit          3D

 66 69  0  0  1  0  0  0  0  0999 V2000
  139.6790   80.7880  220.0780 C   0  0  0  0  0  0  0  0  0  0  0  0
  140.8750   79.9180  220.3470 C   0  0  2  0  0  0  0  0  0  0  0  0
  140.5900   78.5060  220.1490 N   0  0  0  0  0  0  0  0  0  0  0  0
  141.1230   77.8870  218.9630 C   0  0  0  0  0  0  0  0  0  0  0  0
  141.8160   78.5550  218.1320 O   0  0  0  0  0  0  0  0  0  0  0  0
  140.8470   76.4570  218.7380 C   0  0  1  0  0  0  0  0  0  0  0  0
  141.7650   75.8680  217.6740 C   0  0  0  0  0  0  0  0  0  0  0  0
  142.9430   75.3720  218.4760 C   0  0  2  0  0  0  0  0  0  0  0  0
  143.7190   74.3660  217.8300 N   0  0  0  0  0  0  0  0  0  0  0  0
  144.6180   73.6560  218.6850 C   0  0  0  0  0  0  0  0  0  0  0  0
  144.4290   74.9120  216.7160 C   0  0  0  0  0  0  0  0  0  0  0  0
  142.4320   75.0490  219.8350 C   0  0  0  0  0  0  0  0  0  0  0  0
  141.1010   75.6580  219.9330 N   0  0  0  0  0  0  0  0  0  0  0  0
  140.2070   75.4850  221.0310 C   0  0  0  0  0  0  0  0  0  0  0  0
  140.3560   76.2040  222.0530 O   0  0  0  0  0  0  0  0  0  0  0  0
  139.1320   74.4600  220.9190 C   0  0  0  0  0  0  0  0  0  0  0  0
  139.0340   73.6190  222.0790 N   0  0  0  0  0  0  0  0  0  0  0  0
  140.1210   72.7250  222.3270 C   0  0  0  0  0  0  0  0  0  0  0  0
  141.0680   72.7830  221.4720 O   0  0  0  0  0  0  0  0  0  0  0  0
  140.1660   71.8150  223.4570 C   0  0  0  0  0  0  0  0  0  0  0  0
  139.7150   70.5260  223.2550 C   0  0  0  0  0  0  0  0  0  0  0  0
  139.6990   69.5580  224.2280 C   0  0  0  0  0  0  0  0  0  0  0  0
  140.1700   69.9190  225.4920 C   0  0  0  0  0  0  0  0  0  0  0  0
  140.1920   69.0100  226.5340 C   0  0  0  0  0  0  0  0  0  0  0  0
  140.6630   69.3650  227.7940 C   0  0  0  0  0  0  0  0  0  0  0  0
  140.6520   68.1560  229.0430 Cl  0  0  0  0  0  0  0  0  0  0  0  0
  141.1060   70.6520  227.9740 C   0  0  0  0  0  0  0  0  0  0  0  0
  141.0880   71.5750  226.9330 C   0  0  0  0  0  0  0  0  0  0  0  0
  140.6190   71.2070  225.6900 C   0  0  0  0  0  0  0  0  0  0  0  0
  140.6100   72.1290  224.6750 N   0  0  0  0  0  0  0  0  0  0  0  0
  141.4780   80.1810  221.6970 C   0  0  0  0  0  0  0  0  0  0  0  0
  141.9390   79.1380  222.5020 C   0  0  0  0  0  0  0  0  0  0  0  0
  142.4930   79.3440  223.7430 C   0  0  0  0  0  0  0  0  0  0  0  0
  142.6010   80.6350  224.2230 C   0  0  0  0  0  0  0  0  0  0  0  0
  142.1530   81.6810  223.4480 C   0  0  0  0  0  0  0  0  0  0  0  0
  141.5890   81.4880  222.1860 C   0  0  0  0  0  0  0  0  0  0  0  0
  139.2372   81.1094  221.0327 H   0  0  0  0  0  0  0  0  0  0  0  0
  139.9906   81.6719  219.5022 H   0  0  0  0  0  0  0  0  0  0  0  0
  138.9340   80.2193  219.5022 H   0  0  0  0  0  0  0  0  0  0  0  0
  141.6315   80.1965  219.5986 H   0  0  0  0  0  0  0  0  0  0  0  0
  140.0240   77.9690  220.8370 H   0  0  0  0  0  0  0  0  0  0  0  0
  139.7893   76.4170  218.4384 H   0  0  0  0  0  0  0  0  0  0  0  0
  141.2729   75.0406  217.1418 H   0  0  0  0  0  0  0  0  0  0  0  0
  142.0458   76.5926  216.8955 H   0  0  0  0  0  0  0  0  0  0  0  0
  143.7084   76.1565  218.5698 H   0  0  0  0  0  0  0  0  0  0  0  0
  144.3618   73.8583  219.7354 H   0  0  0  0  0  0  0  0  0  0  0  0
  144.5353   72.5768  218.4888 H   0  0  0  0  0  0  0  0  0  0  0  0
  145.6487   73.9865  218.4888 H   0  0  0  0  0  0  0  0  0  0  0  0
  145.2518   75.5448  217.0801 H   0  0  0  0  0  0  0  0  0  0  0  0
  144.8383   74.0937  216.1053 H   0  0  0  0  0  0  0  0  0  0  0  0
  143.7433   75.5177  216.1053 H   0  0  0  0  0  0  0  0  0  0  0  0
  142.3622   73.9591  219.9660 H   0  0  0  0  0  0  0  0  0  0  0  0
  143.1048   75.4336  220.6157 H   0  0  0  0  0  0  0  0  0  0  0  0
  138.1704   74.9749  220.7774 H   0  0  0  0  0  0  0  0  0  0  0  0
  139.3821   73.8136  220.0648 H   0  0  0  0  0  0  0  0  0  0  0  0
  138.2150   73.6230  222.7480 H   0  0  0  0  0  0  0  0  0  0  0  0
  139.3462   70.2585  222.2538 H   0  0  0  0  0  0  0  0  0  0  0  0
  139.3312   68.5422  224.0211 H   0  0  0  0  0  0  0  0  0  0  0  0
  139.8298   67.9855  226.3631 H   0  0  0  0  0  0  0  0  0  0  0  0
  141.4826   70.9595  228.9607 H   0  0  0  0  0  0  0  0  0  0  0  0
  141.4487   72.6003  227.1022 H   0  0  0  0  0  0  0  0  0  0  0  0
  141.8554   78.1072  222.1273 H   0  0  0  0  0  0  0  0  0  0  0  0
  142.8452   78.4934  224.3451 H   0  0  0  0  0  0  0  0  0  0  0  0
  143.0401   80.8251  225.2135 H   0  0  0  0  0  0  0  0  0  0  0  0
  142.2428   82.7058  223.8375 H   0  0  0  0  0  0  0  0  0  0  0  0
  141.2397   82.3434  221.5892 H   0  0  0  0  0  0  0  0  0  0  0  0
  1  2  1  0
  2  3  1  0
  3  4  1  0
  4  5  2  0
  4  6  1  0
  6  7  1  0
  7  8  1  0
  8  9  1  0
  9 10  1  0
  9 11  1  0
  8 12  1  0
 12 13  1  0
 13 14  1  0
 14 15  2  0
 14 16  1  0
 16 17  1  0
 17 18  1  0
 18 19  2  0
 18 20  1  0
 20 21  2  0
 21 22  1  0
 22 23  2  0
 23 24  1  0
 24 25  2  0
 25 26  1  0
 25 27  1  0
 27 28  2  0
 28 29  1  0
 29 30  2  0
  2 31  1  0
 31 32  2  0
 32 33  1  0
 33 34  2  0
 34 35  1  0
 35 36  2  0
 13  6  1  0
 30 20  1  0
 36 31  1  0
 29 23  1  0
  1 37  1  0
  1 38  1  0
  1 39  1  0
  2 40  1  6
  3 41  1  0
  6 42  1  6
  7 43  1  0
  7 44  1  0
  8 45  1  1
 10 46  1  0
 10 47  1  0
 10 48  1  0
 11 49  1  0
 11 50  1  0
 11 51  1  0
 12 52  1  0
 12 53  1  0
 16 54  1  0
 16 55  1  0
 17 56  1  0
 21 57  1  0
 22 58  1  0
 24 59  1  0
 27 60  1  0
 28 61  1  0
 32 62  1  0
 33 63  1  0
 34 64  1  0
 35 65  1  0
 36 66  1  0
M  END
>  <smiles>  (21) 
CC(NC(=O)[C@H]1C[C@H](N(C)C)CN1C(=O)CNC(=O)c1ccc2cc(Cl)ccc2n1)c1ccccc1

>  <score_type>  (21) 
oracle

>  <origin>  (21) 
autodockgpu

>  <m_score__min__energy>  (21) 
-9.8300000000000001

>  <m_primary>  (21) 
energy

>  <rmsd>  (21) 
2.911566654693875

>  <m_score__min__rmsd>  (21) 
2.911566654693875

>  <meeko>  (21) 
{"free_energy": -8.46, "intermolecular_energy": -10.84, "internal_energy": -2.69, "cluster_size": 20, "cluster_id": 2, "rank_in_cluster": 19}

>  <energy>  (21) 
-9.37

>  <cluster_rmsd>  (21) 
1.8

>  <cluster>  (21) 
2

$$$$

     RDKit          3D

 66 69  0  0  1  0  0  0  0  0999 V2000
  140.2730   71.6570  223.1120 C   0  0  0  0  0  0  0  0  0  0  0  0
  139.2150   70.9090  223.8740 C   0  0  2  0  0  0  0  0  0  0  0  0
  137.8950   71.5020  223.7190 N   0  0  0  0  0  0  0  0  0  0  0  0
  136.7740   70.6010  223.6540 C   0  0  0  0  0  0  0  0  0  0  0  0
  136.9400   69.3430  223.7330 O   0  0  0  0  0  0  0  0  0  0  0  0
  135.4260   71.1750  223.4940 C   0  0  1  0  0  0  0  0  0  0  0  0
  134.6920   71.2660  224.8260 C   0  0  0  0  0  0  0  0  0  0  0  0
  135.0670   72.6390  225.3290 C   0  0  2  0  0  0  0  0  0  0  0  0
  134.1680   73.1830  226.2920 N   0  0  0  0  0  0  0  0  0  0  0  0
  133.2230   72.2520  226.8280 C   0  0  0  0  0  0  0  0  0  0  0  0
  133.4870   74.3230  225.7630 C   0  0  0  0  0  0  0  0  0  0  0  0
  135.3450   73.4740  224.1300 C   0  0  0  0  0  0  0  0  0  0  0  0
  135.4730   72.5480  223.0000 N   0  0  0  0  0  0  0  0  0  0  0  0
  135.6200   72.9430  221.6370 C   0  0  0  0  0  0  0  0  0  0  0  0
  134.5870   73.0880  220.9330 O   0  0  0  0  0  0  0  0  0  0  0  0
  136.9930   73.1700  221.1060 C   0  0  0  0  0  0  0  0  0  0  0  0
  137.7010   74.2080  221.8030 N   0  0  0  0  0  0  0  0  0  0  0  0
  137.8190   75.4700  221.1440 C   0  0  0  0  0  0  0  0  0  0  0  0
  137.2690   75.5270  219.9930 O   0  0  0  0  0  0  0  0  0  0  0  0
  138.5040   76.6130  221.7210 C   0  0  0  0  0  0  0  0  0  0  0  0
  137.7600   77.4710  222.5050 C   0  0  0  0  0  0  0  0  0  0  0  0
  138.2730   78.5900  223.1150 C   0  0  0  0  0  0  0  0  0  0  0  0
  139.6290   78.8570  222.9180 C   0  0  0  0  0  0  0  0  0  0  0  0
  140.2320   79.9600  223.4930 C   0  0  0  0  0  0  0  0  0  0  0  0
  141.5840   80.2290  223.3010 C   0  0  0  0  0  0  0  0  0  0  0  0
  142.2550   81.6400  224.0640 Cl  0  0  0  0  0  0  0  0  0  0  0  0
  142.3040   79.3620  222.5180 C   0  0  0  0  0  0  0  0  0  0  0  0
  141.7080   78.2490  221.9340 C   0  0  0  0  0  0  0  0  0  0  0  0
  140.3680   77.9970  222.1340 C   0  0  0  0  0  0  0  0  0  0  0  0
  139.7970   76.8950  221.5520 N   0  0  0  0  0  0  0  0  0  0  0  0
  139.5770   70.7270  225.3210 C   0  0  0  0  0  0  0  0  0  0  0  0
  140.4030   71.6370  225.9820 C   0  0  0  0  0  0  0  0  0  0  0  0
  140.7560   71.4970  227.3040 C   0  0  0  0  0  0  0  0  0  0  0  0
  140.2770   70.4140  228.0150 C   0  0  0  0  0  0  0  0  0  0  0  0
  139.4610   69.5030  227.3850 C   0  0  0  0  0  0  0  0  0  0  0  0
  139.0940   69.6300  226.0440 C   0  0  0  0  0  0  0  0  0  0  0  0
  140.9603   72.1430  223.8201 H   0  0  0  0  0  0  0  0  0  0  0  0
  140.8349   70.9543  222.4791 H   0  0  0  0  0  0  0  0  0  0  0  0
  139.7979   72.4211  222.4791 H   0  0  0  0  0  0  0  0  0  0  0  0
  139.1666   69.9053  223.4265 H   0  0  0  0  0  0  0  0  0  0  0  0
  137.7710   72.5320  223.6570 H   0  0  0  0  0  0  0  0  0  0  0  0
  134.9156   70.5047  222.7867 H   0  0  0  0  0  0  0  0  0  0  0  0
  133.6045   71.1805  224.6845 H   0  0  0  0  0  0  0  0  0  0  0  0
  134.9617   70.4604  225.5248 H   0  0  0  0  0  0  0  0  0  0  0  0
  135.9802   72.5947  225.9407 H   0  0  0  0  0  0  0  0  0  0  0  0
  133.2576   72.2861  227.9269 H   0  0  0  0  0  0  0  0  0  0  0  0
  132.2121   72.5169  226.4846 H   0  0  0  0  0  0  0  0  0  0  0  0
  133.4728   71.2373  226.4846 H   0  0  0  0  0  0  0  0  0  0  0  0
  133.1155   74.9449  226.5908 H   0  0  0  0  0  0  0  0  0  0  0  0
  134.1818   74.9113  225.1456 H   0  0  0  0  0  0  0  0  0  0  0  0
  132.6397   73.9901  225.1456 H   0  0  0  0  0  0  0  0  0  0  0  0
  134.5161   74.1756  223.9547 H   0  0  0  0  0  0  0  0  0  0  0  0
  136.2603   74.0695  224.2628 H   0  0  0  0  0  0  0  0  0  0  0  0
  137.5635   72.2340  221.1982 H   0  0  0  0  0  0  0  0  0  0  0  0
  136.8915   73.4881  220.0579 H   0  0  0  0  0  0  0  0  0  0  0  0
  138.1340   74.0900  222.7610 H   0  0  0  0  0  0  0  0  0  0  0  0
  136.6931   77.2456  222.6501 H   0  0  0  0  0  0  0  0  0  0  0  0
  137.6425   79.2472  223.7320 H   0  0  0  0  0  0  0  0  0  0  0  0
  139.6308   80.6392  224.1152 H   0  0  0  0  0  0  0  0  0  0  0  0
  143.3743   79.5510  222.3487 H   0  0  0  0  0  0  0  0  0  0  0  0
  142.3075   77.5687  221.3113 H   0  0  0  0  0  0  0  0  0  0  0  0
  140.7878   72.5024  225.4225 H   0  0  0  0  0  0  0  0  0  0  0  0
  141.4104   72.2369  227.7881 H   0  0  0  0  0  0  0  0  0  0  0  0
  140.5451   70.2814  229.0736 H   0  0  0  0  0  0  0  0  0  0  0  0
  139.0841   68.6434  227.9586 H   0  0  0  0  0  0  0  0  0  0  0  0
  138.4403   68.8852  225.5666 H   0  0  0  0  0  0  0  0  0  0  0  0
  1  2  1  0
  2  3  1  0
  3  4  1  0
  4  5  2  0
  4  6  1  0
  6  7  1  0
  7  8  1  0
  8  9  1  0
  9 10  1  0
  9 11  1  0
  8 12  1  0
 12 13  1  0
 13 14  1  0
 14 15  2  0
 14 16  1  0
 16 17  1  0
 17 18  1  0
 18 19  2  0
 18 20  1  0
 20 21  2  0
 21 22  1  0
 22 23  2  0
 23 24  1  0
 24 25  2  0
 25 26  1  0
 25 27  1  0
 27 28  2  0
 28 29  1  0
 29 30  2  0
  2 31  1  0
 31 32  2  0
 32 33  1  0
 33 34  2  0
 34 35  1  0
 35 36  2  0
 13  6  1  0
 30 20  1  0
 36 31  1  0
 29 23  1  0
  1 37  1  0
  1 38  1  0
  1 39  1  0
  2 40  1  6
  3 41  1  0
  6 42  1  6
  7 43  1  0
  7 44  1  0
  8 45  1  1
 10 46  1  0
 10 47  1  0
 10 48  1  0
 11 49  1  0
 11 50  1  0
 11 51  1  0
 12 52  1  0
 12 53  1  0
 16 54  1  0
 16 55  1  0
 17 56  1  0
 21 57  1  0
 22 58  1  0
 24 59  1  0
 27 60  1  0
 28 61  1  0
 32 62  1  0
 33 63  1  0
 34 64  1  0
 35 65  1  0
 36 66  1  0
M  END
>  <smiles>  (22) 
CC(NC(=O)[C@H]1C[C@H](N(C)C)CN1C(=O)CNC(=O)c1ccc2cc(Cl)ccc2n1)c1ccccc1

>  <score_type>  (22) 
oracle

>  <origin>  (22) 
autodockgpu

>  <m_score__min__energy>  (22) 
-9.8300000000000001

>  <m_primary>  (22) 
energy

>  <rmsd>  (22) 
9.341053101491637

>  <m_score__min__rmsd>  (22) 
9.341053101491637

>  <meeko>  (22) 
{"free_energy": -8.71, "intermolecular_energy": -11.1, "internal_energy": -2.3, "cluster_size": 16, "cluster_id": 1, "rank_in_cluster": 13}

>  <energy>  (22) 
-9.2

>  <cluster_rmsd>  (22) 
1.83

>  <cluster>  (22) 
2

$$$$

     RDKit          3D

 66 69  0  0  1  0  0  0  0  0999 V2000
  142.1100   79.0530  223.0830 C   0  0  0  0  0  0  0  0  0  0  0  0
  141.1210   77.9810  222.7180 C   0  0  2  0  0  0  0  0  0  0  0  0
  141.4560   77.3200  221.4660 N   0  0  0  0  0  0  0  0  0  0  0  0
  141.1000   75.9300  221.3410 C   0  0  0  0  0  0  0  0  0  0  0  0
  140.5140   75.3170  222.2880 O   0  0  0  0  0  0  0  0  0  0  0  0
  141.4300   75.2360  220.0830 C   0  0  1  0  0  0  0  0  0  0  0  0
  142.9350   75.0840  219.9040 C   0  0  0  0  0  0  0  0  0  0  0  0
  143.2230   73.7520  220.5540 C   0  0  2  0  0  0  0  0  0  0  0  0
  144.4330   73.1330  220.1240 N   0  0  0  0  0  0  0  0  0  0  0  0
  145.6300   73.7730  220.5720 C   0  0  0  0  0  0  0  0  0  0  0  0
  144.4530   72.9940  218.7020 C   0  0  0  0  0  0  0  0  0  0  0  0
  141.9820   72.9410  220.4410 C   0  0  0  0  0  0  0  0  0  0  0  0
  140.9120   73.8710  220.0630 N   0  0  0  0  0  0  0  0  0  0  0  0
  139.5800   73.4850  219.7310 C   0  0  0  0  0  0  0  0  0  0  0  0
  139.3390   73.0800  218.5630 O   0  0  0  0  0  0  0  0  0  0  0  0
  138.5290   73.5750  220.7830 C   0  0  0  0  0  0  0  0  0  0  0  0
  138.9870   73.1400  222.0730 N   0  0  0  0  0  0  0  0  0  0  0  0
  139.1800   71.7360  222.2550 C   0  0  0  0  0  0  0  0  0  0  0  0
  138.9180   71.0220  221.2300 O   0  0  0  0  0  0  0  0  0  0  0  0
  139.6380   71.1470  223.5010 C   0  0  0  0  0  0  0  0  0  0  0  0
  140.4410   71.9220  224.3130 C   0  0  0  0  0  0  0  0  0  0  0  0
  140.9470   71.4990  225.5180 C   0  0  0  0  0  0  0  0  0  0  0  0
  140.6180   70.2050  225.9270 C   0  0  0  0  0  0  0  0  0  0  0  0
  141.0810   69.6940  227.1250 C   0  0  0  0  0  0  0  0  0  0  0  0
  140.7540   68.4050  227.5370 C   0  0  0  0  0  0  0  0  0  0  0  0
  141.3830   67.8480  229.0590 Cl  0  0  0  0  0  0  0  0  0  0  0  0
  139.9550   67.6530  226.7140 C   0  0  0  0  0  0  0  0  0  0  0  0
  139.4830   68.1570  225.5060 C   0  0  0  0  0  0  0  0  0  0  0  0
  139.8160   69.4340  225.1120 C   0  0  0  0  0  0  0  0  0  0  0  0
  139.3420   69.9150  223.9190 N   0  0  0  0  0  0  0  0  0  0  0  0
  139.7070   78.4860  222.7200 C   0  0  0  0  0  0  0  0  0  0  0  0
  139.3540   79.6520  223.4020 C   0  0  0  0  0  0  0  0  0  0  0  0
  138.0680   80.1400  223.4260 C   0  0  0  0  0  0  0  0  0  0  0  0
  137.0780   79.4540  222.7490 C   0  0  0  0  0  0  0  0  0  0  0  0
  137.4010   78.3010  222.0700 C   0  0  0  0  0  0  0  0  0  0  0  0
  138.7010   77.7930  222.0370 C   0  0  0  0  0  0  0  0  0  0  0  0
  142.1805   79.1294  224.1781 H   0  0  0  0  0  0  0  0  0  0  0  0
  143.0967   78.7979  222.6690 H   0  0  0  0  0  0  0  0  0  0  0  0
  141.7764   80.0160  222.6690 H   0  0  0  0  0  0  0  0  0  0  0  0
  141.1898   77.2186  223.5079 H   0  0  0  0  0  0  0  0  0  0  0  0
  141.9340   77.8320  220.6970 H   0  0  0  0  0  0  0  0  0  0  0  0
  140.9812   75.8541  219.2914 H   0  0  0  0  0  0  0  0  0  0  0  0
  143.2068   75.0705  218.8382 H   0  0  0  0  0  0  0  0  0  0  0  0
  143.5091   75.9132  220.3432 H   0  0  0  0  0  0  0  0  0  0  0  0
  143.4563   73.8807  221.6212 H   0  0  0  0  0  0  0  0  0  0  0  0
  145.6504   73.7839  221.6718 H   0  0  0  0  0  0  0  0  0  0  0  0
  146.5039   73.2218  220.1945 H   0  0  0  0  0  0  0  0  0  0  0  0
  145.6569   74.8059  220.1945 H   0  0  0  0  0  0  0  0  0  0  0  0
  144.6052   71.9368  218.4390 H   0  0  0  0  0  0  0  0  0  0  0  0
  143.4956   73.3412  218.2861 H   0  0  0  0  0  0  0  0  0  0  0  0
  145.2736   73.5970  218.2861 H   0  0  0  0  0  0  0  0  0  0  0  0
  142.1028   72.1663  219.6695 H   0  0  0  0  0  0  0  0  0  0  0  0
  141.7511   72.4314  221.3881 H   0  0  0  0  0  0  0  0  0  0  0  0
  138.2012   74.6220  220.8622 H   0  0  0  0  0  0  0  0  0  0  0  0
  137.7065   72.9085  220.4841 H   0  0  0  0  0  0  0  0  0  0  0  0
  139.1840   73.7920  222.8820 H   0  0  0  0  0  0  0  0  0  0  0  0
  140.6906   72.9387  223.9752 H   0  0  0  0  0  0  0  0  0  0  0  0
  141.5836   72.1512  226.1339 H   0  0  0  0  0  0  0  0  0  0  0  0
  141.7208   70.3185  227.7658 H   0  0  0  0  0  0  0  0  0  0  0  0
  139.6818   66.6309  227.0150 H   0  0  0  0  0  0  0  0  0  0  0  0
  138.8425   67.5341  224.8643 H   0  0  0  0  0  0  0  0  0  0  0  0
  140.1371   80.2036  223.9428 H   0  0  0  0  0  0  0  0  0  0  0  0
  137.8314   81.0627  223.9761 H   0  0  0  0  0  0  0  0  0  0  0  0
  136.0426   79.8253  222.7526 H   0  0  0  0  0  0  0  0  0  0  0  0
  136.6066   77.7606  221.5344 H   0  0  0  0  0  0  0  0  0  0  0  0
  138.9295   76.8686  221.4864 H   0  0  0  0  0  0  0  0  0  0  0  0
  1  2  1  0
  2  3  1  0
  3  4  1  0
  4  5  2  0
  4  6  1  0
  6  7  1  0
  7  8  1  0
  8  9  1  0
  9 10  1  0
  9 11  1  0
  8 12  1  0
 12 13  1  0
 13 14  1  0
 14 15  2  0
 14 16  1  0
 16 17  1  0
 17 18  1  0
 18 19  2  0
 18 20  1  0
 20 21  2  0
 21 22  1  0
 22 23  2  0
 23 24  1  0
 24 25  2  0
 25 26  1  0
 25 27  1  0
 27 28  2  0
 28 29  1  0
 29 30  2  0
  2 31  1  0
 31 32  2  0
 32 33  1  0
 33 34  2  0
 34 35  1  0
 35 36  2  0
 13  6  1  0
 30 20  1  0
 36 31  1  0
 29 23  1  0
  1 37  1  0
  1 38  1  0
  1 39  1  0
  2 40  1  1
  3 41  1  0
  6 42  1  6
  7 43  1  0
  7 44  1  0
  8 45  1  1
 10 46  1  0
 10 47  1  0
 10 48  1  0
 11 49  1  0
 11 50  1  0
 11 51  1  0
 12 52  1  0
 12 53  1  0
 16 54  1  0
 16 55  1  0
 17 56  1  0
 21 57  1  0
 22 58  1  0
 24 59  1  0
 27 60  1  0
 28 61  1  0
 32 62  1  0
 33 63  1  0
 34 64  1  0
 35 65  1  0
 36 66  1  0
M  END
>  <smiles>  (23) 
CC(NC(=O)[C@H]1C[C@H](N(C)C)CN1C(=O)CNC(=O)c1ccc2cc(Cl)ccc2n1)c1ccccc1

>  <score_type>  (23) 
oracle

>  <origin>  (23) 
autodockgpu

>  <m_score__min__energy>  (23) 
-9.8300000000000001

>  <m_primary>  (23) 
energy

>  <rmsd>  (23) 
3.2237655352163945

>  <m_score__min__rmsd>  (23) 
3.2237655352163945

>  <meeko>  (23) 
{"free_energy": -8.92, "intermolecular_energy": -11.31, "internal_energy": -2.81, "cluster_size": 20, "cluster_id": 2, "rank_in_cluster": 11}

>  <energy>  (23) 
-9.11

>  <cluster_rmsd>  (23) 
1.69

>  <cluster>  (23) 
2

$$$$

     RDKit          3D

 66 69  0  0  1  0  0  0  0  0999 V2000
  140.2370   71.8980  223.3660 C   0  0  0  0  0  0  0  0  0  0  0  0
  139.4190   70.8990  224.1360 C   0  0  2  0  0  0  0  0  0  0  0  0
  137.9890   71.1330  224.0030 N   0  0  0  0  0  0  0  0  0  0  0  0
  137.1570   69.9870  223.7400 C   0  0  0  0  0  0  0  0  0  0  0  0
  137.6610   68.8240  223.6340 O   0  0  0  0  0  0  0  0  0  0  0  0
  135.7050   70.1960  223.5990 C   0  0  1  0  0  0  0  0  0  0  0  0
  134.9150   68.9790  224.0630 C   0  0  0  0  0  0  0  0  0  0  0  0
  134.6740   69.2680  225.5250 C   0  0  2  0  0  0  0  0  0  0  0  0
  133.5730   68.5630  226.0950 N   0  0  0  0  0  0  0  0  0  0  0  0
  133.6010   67.1460  225.9020 C   0  0  0  0  0  0  0  0  0  0  0  0
  132.3330   69.0980  225.6270 C   0  0  0  0  0  0  0  0  0  0  0  0
  134.6680   70.7470  225.6770 C   0  0  0  0  0  0  0  0  0  0  0  0
  135.2290   71.2930  224.4360 N   0  0  0  0  0  0  0  0  0  0  0  0
  135.2910   72.6810  224.1130 C   0  0  0  0  0  0  0  0  0  0  0  0
  134.9900   73.5230  225.0000 O   0  0  0  0  0  0  0  0  0  0  0  0
  135.7120   73.0750  222.7400 C   0  0  0  0  0  0  0  0  0  0  0  0
  136.9550   73.7920  222.7170 N   0  0  0  0  0  0  0  0  0  0  0  0
  136.8830   75.2190  222.7030 C   0  0  0  0  0  0  0  0  0  0  0  0
  135.6980   75.6960  222.7120 O   0  0  0  0  0  0  0  0  0  0  0  0
  138.0520   76.0790  222.6790 C   0  0  0  0  0  0  0  0  0  0  0  0
  139.2270   75.5420  222.1940 C   0  0  0  0  0  0  0  0  0  0  0  0
  140.4100   76.2350  222.1110 C   0  0  0  0  0  0  0  0  0  0  0  0
  140.4030   77.5610  222.5500 C   0  0  0  0  0  0  0  0  0  0  0  0
  141.5460   78.3370  222.5040 C   0  0  0  0  0  0  0  0  0  0  0  0
  141.5420   79.6580  222.9380 C   0  0  0  0  0  0  0  0  0  0  0  0
  143.0280   80.5560  222.8430 Cl  0  0  0  0  0  0  0  0  0  0  0  0
  140.3630   80.1720  223.4180 C   0  0  0  0  0  0  0  0  0  0  0  0
  139.2060   79.4010  223.4680 C   0  0  0  0  0  0  0  0  0  0  0  0
  139.2270   78.0930  223.0350 C   0  0  0  0  0  0  0  0  0  0  0  0
  138.0770   77.3480  223.0910 N   0  0  0  0  0  0  0  0  0  0  0  0
  139.8370   70.8100  225.5760 C   0  0  0  0  0  0  0  0  0  0  0  0
  139.4010   69.7670  226.3950 C   0  0  0  0  0  0  0  0  0  0  0  0
  139.7630   69.6580  227.7170 C   0  0  0  0  0  0  0  0  0  0  0  0
  140.5920   70.6160  228.2670 C   0  0  0  0  0  0  0  0  0  0  0  0
  141.0350   71.6550  227.4800 C   0  0  0  0  0  0  0  0  0  0  0  0
  140.6760   71.7800  226.1360 C   0  0  0  0  0  0  0  0  0  0  0  0
  140.7730   72.5527  224.0689 H   0  0  0  0  0  0  0  0  0  0  0  0
  140.9632   71.3672  222.7328 H   0  0  0  0  0  0  0  0  0  0  0  0
  139.5733   72.5052  222.7328 H   0  0  0  0  0  0  0  0  0  0  0  0
  139.6242   69.9185  223.6815 H   0  0  0  0  0  0  0  0  0  0  0  0
  137.5880   72.0880  224.0940 H   0  0  0  0  0  0  0  0  0  0  0  0
  135.5507   70.4037  222.5299 H   0  0  0  0  0  0  0  0  0  0  0  0
  133.9650   68.8920  223.5153 H   0  0  0  0  0  0  0  0  0  0  0  0
  135.4413   68.0287  223.8899 H   0  0  0  0  0  0  0  0  0  0  0  0
  135.4884   68.8597  226.1414 H   0  0  0  0  0  0  0  0  0  0  0  0
  133.6109   66.6429  226.8801 H   0  0  0  0  0  0  0  0  0  0  0  0
  132.7088   66.8350  225.3387 H   0  0  0  0  0  0  0  0  0  0  0  0
  134.5048   66.8705  225.3387 H   0  0  0  0  0  0  0  0  0  0  0  0
  131.7031   69.3698  226.4869 H   0  0  0  0  0  0  0  0  0  0  0  0
  132.5266   69.9926  225.0170 H   0  0  0  0  0  0  0  0  0  0  0  0
  131.8150   68.3433  225.0170 H   0  0  0  0  0  0  0  0  0  0  0  0
  133.6399   71.1104  225.8220 H   0  0  0  0  0  0  0  0  0  0  0  0
  135.2559   71.0604  226.5523 H   0  0  0  0  0  0  0  0  0  0  0  0
  135.8216   72.1645  222.1325 H   0  0  0  0  0  0  0  0  0  0  0  0
  134.9383   73.7464  222.3393 H   0  0  0  0  0  0  0  0  0  0  0  0
  137.9060   73.3300  222.7100 H   0  0  0  0  0  0  0  0  0  0  0  0
  139.2156   74.4961  221.8534 H   0  0  0  0  0  0  0  0  0  0  0  0
  141.3233   75.7661  221.7159 H   0  0  0  0  0  0  0  0  0  0  0  0
  142.4781   77.9004  222.1160 H   0  0  0  0  0  0  0  0  0  0  0  0
  140.3325   81.2137  223.7699 H   0  0  0  0  0  0  0  0  0  0  0  0
  138.2725   79.8365  223.8540 H   0  0  0  0  0  0  0  0  0  0  0  0
  138.7401   69.0002  225.9647 H   0  0  0  0  0  0  0  0  0  0  0  0
  139.3975   68.8195  228.3280 H   0  0  0  0  0  0  0  0  0  0  0  0
  140.8950   70.5495  229.3224 H   0  0  0  0  0  0  0  0  0  0  0  0
  141.6952   72.4137  227.9255 H   0  0  0  0  0  0  0  0  0  0  0  0
  141.0444   72.6219  225.5314 H   0  0  0  0  0  0  0  0  0  0  0  0
  1  2  1  0
  2  3  1  0
  3  4  1  0
  4  5  2  0
  4  6  1  0
  6  7  1  0
  7  8  1  0
  8  9  1  0
  9 10  1  0
  9 11  1  0
  8 12  1  0
 12 13  1  0
 13 14  1  0
 14 15  2  0
 14 16  1  0
 16 17  1  0
 17 18  1  0
 18 19  2  0
 18 20  1  0
 20 21  2  0
 21 22  1  0
 22 23  2  0
 23 24  1  0
 24 25  2  0
 25 26  1  0
 25 27  1  0
 27 28  2  0
 28 29  1  0
 29 30  2  0
  2 31  1  0
 31 32  2  0
 32 33  1  0
 33 34  2  0
 34 35  1  0
 35 36  2  0
 13  6  1  0
 30 20  1  0
 36 31  1  0
 29 23  1  0
  1 37  1  0
  1 38  1  0
  1 39  1  0
  2 40  1  6
  3 41  1  0
  6 42  1  6
  7 43  1  0
  7 44  1  0
  8 45  1  1
 10 46  1  0
 10 47  1  0
 10 48  1  0
 11 49  1  0
 11 50  1  0
 11 51  1  0
 12 52  1  0
 12 53  1  0
 16 54  1  0
 16 55  1  0
 17 56  1  0
 21 57  1  0
 22 58  1  0
 24 59  1  0
 27 60  1  0
 28 61  1  0
 32 62  1  0
 33 63  1  0
 34 64  1  0
 35 65  1  0
 36 66  1  0
M  END
>  <smiles>  (24) 
CC(NC(=O)[C@H]1C[C@H](N(C)C)CN1C(=O)CNC(=O)c1ccc2cc(Cl)ccc2n1)c1ccccc1

>  <score_type>  (24) 
oracle

>  <origin>  (24) 
autodockgpu

>  <m_score__min__energy>  (24) 
-9.8300000000000001

>  <m_primary>  (24) 
energy

>  <rmsd>  (24) 
9.570656095839984

>  <m_score__min__rmsd>  (24) 
9.570656095839984

>  <meeko>  (24) 
{"free_energy": -9.83, "intermolecular_energy": -12.22, "internal_energy": -2.3, "cluster_size": 16, "cluster_id": 1, "rank_in_cluster": 1}

>  <energy>  (24) 
-9.08

>  <cluster_rmsd>  (24) 
1.6

>  <cluster>  (24) 
2

$$$$

     RDKit          3D

 66 69  0  0  1  0  0  0  0  0999 V2000
  139.1850   76.9770  222.2860 C   0  0  0  0  0  0  0  0  0  0  0  0
  140.0010   77.8300  221.3540 C   0  0  2  0  0  0  0  0  0  0  0  0
  140.6520   77.0490  220.3130 N   0  0  0  0  0  0  0  0  0  0  0  0
  141.4240   75.9080  220.7320 C   0  0  0  0  0  0  0  0  0  0  0  0
  141.5240   75.6030  221.9620 O   0  0  0  0  0  0  0  0  0  0  0  0
  142.0950   75.1020  219.6980 C   0  0  1  0  0  0  0  0  0  0  0  0
  143.5730   74.9060  220.0090 C   0  0  0  0  0  0  0  0  0  0  0  0
  143.5860   73.6300  220.8160 C   0  0  2  0  0  0  0  0  0  0  0  0
  144.8400   72.9530  220.8330 N   0  0  0  0  0  0  0  0  0  0  0  0
  145.9850   73.8060  220.9080 C   0  0  0  0  0  0  0  0  0  0  0  0
  144.9560   72.0730  219.7130 C   0  0  0  0  0  0  0  0  0  0  0  0
  142.4050   72.8360  220.3830 C   0  0  0  0  0  0  0  0  0  0  0  0
  141.5480   73.7500  219.6200 N   0  0  0  0  0  0  0  0  0  0  0  0
  140.3680   73.3630  218.9190 C   0  0  0  0  0  0  0  0  0  0  0  0
  140.4170   73.2500  217.6670 O   0  0  0  0  0  0  0  0  0  0  0  0
  139.1270   73.1050  219.7020 C   0  0  0  0  0  0  0  0  0  0  0  0
  139.3010   72.1060  220.7190 N   0  0  0  0  0  0  0  0  0  0  0  0
  139.5900   72.5660  222.0400 C   0  0  0  0  0  0  0  0  0  0  0  0
  139.6590   73.8360  222.1620 O   0  0  0  0  0  0  0  0  0  0  0  0
  139.7910   71.6780  223.1710 C   0  0  0  0  0  0  0  0  0  0  0  0
  139.4190   70.3580  223.0160 C   0  0  0  0  0  0  0  0  0  0  0  0
  139.5510   69.4050  223.9960 C   0  0  0  0  0  0  0  0  0  0  0  0
  140.0950   69.8160  225.2150 C   0  0  0  0  0  0  0  0  0  0  0  0
  140.2660   68.9270  226.2590 C   0  0  0  0  0  0  0  0  0  0  0  0
  140.8100   69.3320  227.4740 C   0  0  0  0  0  0  0  0  0  0  0  0
  140.9870   68.1430  228.7300 Cl  0  0  0  0  0  0  0  0  0  0  0  0
  141.1720   70.6490  227.6060 C   0  0  0  0  0  0  0  0  0  0  0  0
  141.0050   71.5530  226.5610 C   0  0  0  0  0  0  0  0  0  0  0  0
  140.4650   71.1360  225.3650 C   0  0  0  0  0  0  0  0  0  0  0  0
  140.3080   72.0400  224.3460 N   0  0  0  0  0  0  0  0  0  0  0  0
  140.9790   78.7010  222.0900 C   0  0  0  0  0  0  0  0  0  0  0  0
  141.2170   78.5320  223.4550 C   0  0  0  0  0  0  0  0  0  0  0  0
  142.1030   79.3150  224.1580 C   0  0  0  0  0  0  0  0  0  0  0  0
  142.7900   80.3130  223.4940 C   0  0  0  0  0  0  0  0  0  0  0  0
  142.5720   80.4990  222.1480 C   0  0  0  0  0  0  0  0  0  0  0  0
  141.6760   79.7140  221.4200 C   0  0  0  0  0  0  0  0  0  0  0  0
  139.4303   77.2334  223.3272 H   0  0  0  0  0  0  0  0  0  0  0  0
  138.1149   77.1577  222.1062 H   0  0  0  0  0  0  0  0  0  0  0  0
  139.4129   75.9160  222.1062 H   0  0  0  0  0  0  0  0  0  0  0  0
  139.2898   78.5006  220.8496 H   0  0  0  0  0  0  0  0  0  0  0  0
  140.5610   77.3080  219.3100 H   0  0  0  0  0  0  0  0  0  0  0  0
  141.9410   75.6586  218.7618 H   0  0  0  0  0  0  0  0  0  0  0  0
  144.1597   74.7951  219.0852 H   0  0  0  0  0  0  0  0  0  0  0  0
  144.0201   75.7588  220.5408 H   0  0  0  0  0  0  0  0  0  0  0  0
  143.4839   73.8460  221.8897 H   0  0  0  0  0  0  0  0  0  0  0  0
  146.2350   73.9922  221.9629 H   0  0  0  0  0  0  0  0  0  0  0  0
  146.8370   73.3208  220.4094 H   0  0  0  0  0  0  0  0  0  0  0  0
  145.7639   74.7613  220.4094 H   0  0  0  0  0  0  0  0  0  0  0  0
  145.0920   71.0414  220.0698 H   0  0  0  0  0  0  0  0  0  0  0  0
  144.0422   72.1327  219.1036 H   0  0  0  0  0  0  0  0  0  0  0  0
  145.8231   72.3675  219.1036 H   0  0  0  0  0  0  0  0  0  0  0  0
  142.7236   71.9952  219.7493 H   0  0  0  0  0  0  0  0  0  0  0  0
  141.8694   72.4150  221.2466 H   0  0  0  0  0  0  0  0  0  0  0  0
  138.8148   74.0437  220.1829 H   0  0  0  0  0  0  0  0  0  0  0  0
  138.3677   72.7301  218.9999 H   0  0  0  0  0  0  0  0  0  0  0  0
  139.2300   71.0650  220.5460 H   0  0  0  0  0  0  0  0  0  0  0  0
  138.9914   70.0510  222.0501 H   0  0  0  0  0  0  0  0  0  0  0  0
  139.2416   68.3628  223.8281 H   0  0  0  0  0  0  0  0  0  0  0  0
  139.9658   67.8771  226.1268 H   0  0  0  0  0  0  0  0  0  0  0  0
  141.6026   70.9971  228.5564 H   0  0  0  0  0  0  0  0  0  0  0  0
  141.3052   72.6032  226.6909 H   0  0  0  0  0  0  0  0  0  0  0  0
  140.6735   77.7398  223.9908 H   0  0  0  0  0  0  0  0  0  0  0  0
  142.2623   79.1489  225.2337 H   0  0  0  0  0  0  0  0  0  0  0  0
  143.5033   80.9519  224.0353 H   0  0  0  0  0  0  0  0  0  0  0  0
  143.1238   81.2951  221.6268 H   0  0  0  0  0  0  0  0  0  0  0  0
  141.5211   79.8872  220.3448 H   0  0  0  0  0  0  0  0  0  0  0  0
  1  2  1  0
  2  3  1  0
  3  4  1  0
  4  5  2  0
  4  6  1  0
  6  7  1  0
  7  8  1  0
  8  9  1  0
  9 10  1  0
  9 11  1  0
  8 12  1  0
 12 13  1  0
 13 14  1  0
 14 15  2  0
 14 16  1  0
 16 17  1  0
 17 18  1  0
 18 19  2  0
 18 20  1  0
 20 21  2  0
 21 22  1  0
 22 23  2  0
 23 24  1  0
 24 25  2  0
 25 26  1  0
 25 27  1  0
 27 28  2  0
 28 29  1  0
 29 30  2  0
  2 31  1  0
 31 32  2  0
 32 33  1  0
 33 34  2  0
 34 35  1  0
 35 36  2  0
 13  6  1  0
 30 20  1  0
 36 31  1  0
 29 23  1  0
  1 37  1  0
  1 38  1  0
  1 39  1  0
  2 40  1  6
  3 41  1  0
  6 42  1  6
  7 43  1  0
  7 44  1  0
  8 45  1  1
 10 46  1  0
 10 47  1  0
 10 48  1  0
 11 49  1  0
 11 50  1  0
 11 51  1  0
 12 52  1  0
 12 53  1  0
 16 54  1  0
 16 55  1  0
 17 56  1  0
 21 57  1  0
 22 58  1  0
 24 59  1  0
 27 60  1  0
 28 61  1  0
 32 62  1  0
 33 63  1  0
 34 64  1  0
 35 65  1  0
 36 66  1  0
M  END
>  <smiles>  (25) 
CC(NC(=O)[C@H]1C[C@H](N(C)C)CN1C(=O)CNC(=O)c1ccc2cc(Cl)ccc2n1)c1ccccc1

>  <score_type>  (25) 
oracle

>  <origin>  (25) 
autodockgpu

>  <m_score__min__energy>  (25) 
-9.8300000000000001

>  <m_primary>  (25) 
energy

>  <rmsd>  (25) 
3.4384326709625035

>  <m_score__min__rmsd>  (25) 
3.4384326709625035

>  <meeko>  (25) 
{"free_energy": -9.65, "intermolecular_energy": -12.03, "internal_energy": -2.35, "cluster_size": 20, "cluster_id": 2, "rank_in_cluster": 1}

>  <energy>  (25) 
-9.01

>  <cluster_rmsd>  (25) 
1.57

>  <cluster>  (25) 
2

$$$$

     RDKit          3D

 66 69  0  0  1  0  0  0  0  0999 V2000
  140.3840   72.2600  223.2190 C   0  0  0  0  0  0  0  0  0  0  0  0
  139.5690   71.1670  223.8520 C   0  0  2  0  0  0  0  0  0  0  0  0
  138.1420   71.3320  223.6190 N   0  0  0  0  0  0  0  0  0  0  0  0
  137.3720   70.1380  223.3850 C   0  0  0  0  0  0  0  0  0  0  0  0
  137.9230   68.9920  223.3880 O   0  0  0  0  0  0  0  0  0  0  0  0
  135.9240   70.2770  223.1440 C   0  0  1  0  0  0  0  0  0  0  0  0
  135.2130   68.9320  223.2090 C   0  0  0  0  0  0  0  0  0  0  0  0
  134.8200   68.8230  224.6620 C   0  0  2  0  0  0  0  0  0  0  0  0
  133.7440   67.9240  224.9190 N   0  0  0  0  0  0  0  0  0  0  0  0
  133.8780   67.1490  226.1140 C   0  0  0  0  0  0  0  0  0  0  0  0
  133.5230   67.0650  223.7990 C   0  0  0  0  0  0  0  0  0  0  0  0
  134.6640   70.2120  225.1710 C   0  0  0  0  0  0  0  0  0  0  0  0
  135.2770   71.0910  224.1690 N   0  0  0  0  0  0  0  0  0  0  0  0
  135.2380   72.5160  224.2060 C   0  0  0  0  0  0  0  0  0  0  0  0
  135.0900   73.0900  225.3160 O   0  0  0  0  0  0  0  0  0  0  0  0
  135.3780   73.2660  222.9260 C   0  0  0  0  0  0  0  0  0  0  0  0
  136.2360   74.4120  223.0370 N   0  0  0  0  0  0  0  0  0  0  0  0
  137.4790   74.3640  222.3350 C   0  0  0  0  0  0  0  0  0  0  0  0
  137.6830   73.2870  221.6790 O   0  0  0  0  0  0  0  0  0  0  0  0
  138.4490   75.4440  222.3500 C   0  0  0  0  0  0  0  0  0  0  0  0
  139.7220   75.1630  221.8960 C   0  0  0  0  0  0  0  0  0  0  0  0
  140.7400   76.0840  221.8520 C   0  0  0  0  0  0  0  0  0  0  0  0
  140.4510   77.3750  222.2980 C   0  0  0  0  0  0  0  0  0  0  0  0
  141.4130   78.3670  222.2900 C   0  0  0  0  0  0  0  0  0  0  0  0
  141.1280   79.6560  222.7320 C   0  0  0  0  0  0  0  0  0  0  0  0
  142.4020   80.8380  222.6850 Cl  0  0  0  0  0  0  0  0  0  0  0  0
  139.8560   79.9130  223.1790 C   0  0  0  0  0  0  0  0  0  0  0  0
  138.8800   78.9220  223.1920 C   0  0  0  0  0  0  0  0  0  0  0  0
  139.1780   77.6510  222.7520 C   0  0  0  0  0  0  0  0  0  0  0  0
  138.2030   76.6870  222.7700 N   0  0  0  0  0  0  0  0  0  0  0  0
  139.8790   70.9980  225.3120 C   0  0  0  0  0  0  0  0  0  0  0  0
  140.7140   71.8910  225.9840 C   0  0  0  0  0  0  0  0  0  0  0  0
  141.0210   71.7630  227.3180 C   0  0  0  0  0  0  0  0  0  0  0  0
  140.4840   70.7080  228.0320 C   0  0  0  0  0  0  0  0  0  0  0  0
  139.6580   69.8130  227.3900 C   0  0  0  0  0  0  0  0  0  0  0  0
  139.3380   69.9300  226.0370 C   0  0  0  0  0  0  0  0  0  0  0  0
  140.8439   72.8767  224.0052 H   0  0  0  0  0  0  0  0  0  0  0  0
  141.1723   71.8147  222.5943 H   0  0  0  0  0  0  0  0  0  0  0  0
  139.7323   72.8884  222.5943 H   0  0  0  0  0  0  0  0  0  0  0  0
  139.8664   70.2339  223.3511 H   0  0  0  0  0  0  0  0  0  0  0  0
  137.7010   72.2740  223.6200 H   0  0  0  0  0  0  0  0  0  0  0  0
  135.8451   70.7376  222.1482 H   0  0  0  0  0  0  0  0  0  0  0  0
  134.3262   68.9222  222.5582 H   0  0  0  0  0  0  0  0  0  0  0  0
  135.8388   68.0949  222.8662 H   0  0  0  0  0  0  0  0  0  0  0  0
  135.6114   68.3274  225.2434 H   0  0  0  0  0  0  0  0  0  0  0  0
  133.7648   67.8040  226.9904 H   0  0  0  0  0  0  0  0  0  0  0  0
  133.1011   66.3705  226.1352 H   0  0  0  0  0  0  0  0  0  0  0  0
  134.8712   66.6766  226.1352 H   0  0  0  0  0  0  0  0  0  0  0  0
  133.2637   66.0572  224.1554 H   0  0  0  0  0  0  0  0  0  0  0  0
  132.6977   67.4620  223.1896 H   0  0  0  0  0  0  0  0  0  0  0  0
  134.4374   67.0144  223.1896 H   0  0  0  0  0  0  0  0  0  0  0  0
  133.5981   70.4561  225.2902 H   0  0  0  0  0  0  0  0  0  0  0  0
  135.1426   70.3328  226.1540 H   0  0  0  0  0  0  0  0  0  0  0  0
  135.7952   72.5882  222.1667 H   0  0  0  0  0  0  0  0  0  0  0  0
  134.3781   73.6300  222.6474 H   0  0  0  0  0  0  0  0  0  0  0  0
  136.0020   75.2750  223.6010 H   0  0  0  0  0  0  0  0  0  0  0  0
  139.9336   74.1409  221.5489 H   0  0  0  0  0  0  0  0  0  0  0  0
  141.7403   75.8159  221.4812 H   0  0  0  0  0  0  0  0  0  0  0  0
  142.4247   78.1334  221.9269 H   0  0  0  0  0  0  0  0  0  0  0  0
  139.6033   80.9230  223.5341 H   0  0  0  0  0  0  0  0  0  0  0  0
  137.8677   79.1538  223.5545 H   0  0  0  0  0  0  0  0  0  0  0  0
  141.1450   72.7332  225.4228 H   0  0  0  0  0  0  0  0  0  0  0  0
  141.6843   72.4895  227.8101 H   0  0  0  0  0  0  0  0  0  0  0  0
  140.7140   70.5851  229.1006 H   0  0  0  0  0  0  0  0  0  0  0  0
  139.2352   68.9756  227.9644 H   0  0  0  0  0  0  0  0  0  0  0  0
  138.6752   69.1990  225.5509 H   0  0  0  0  0  0  0  0  0  0  0  0
  1  2  1  0
  2  3  1  0
  3  4  1  0
  4  5  2  0
  4  6  1  0
  6  7  1  0
  7  8  1  0
  8  9  1  0
  9 10  1  0
  9 11  1  0
  8 12  1  0
 12 13  1  0
 13 14  1  0
 14 15  2  0
 14 16  1  0
 16 17  1  0
 17 18  1  0
 18 19  2  0
 18 20  1  0
 20 21  2  0
 21 22  1  0
 22 23  2  0
 23 24  1  0
 24 25  2  0
 25 26  1  0
 25 27  1  0
 27 28  2  0
 28 29  1  0
 29 30  2  0
  2 31  1  0
 31 32  2  0
 32 33  1  0
 33 34  2  0
 34 35  1  0
 35 36  2  0
 13  6  1  0
 30 20  1  0
 36 31  1  0
 29 23  1  0
  1 37  1  0
  1 38  1  0
  1 39  1  0
  2 40  1  6
  3 41  1  0
  6 42  1  6
  7 43  1  0
  7 44  1  0
  8 45  1  1
 10 46  1  0
 10 47  1  0
 10 48  1  0
 11 49  1  0
 11 50  1  0
 11 51  1  0
 12 52  1  0
 12 53  1  0
 16 54  1  0
 16 55  1  0
 17 56  1  0
 21 57  1  0
 22 58  1  0
 24 59  1  0
 27 60  1  0
 28 61  1  0
 32 62  1  0
 33 63  1  0
 34 64  1  0
 35 65  1  0
 36 66  1  0
M  END
>  <smiles>  (26) 
CC(NC(=O)[C@H]1C[C@H](N(C)C)CN1C(=O)CNC(=O)c1ccc2cc(Cl)ccc2n1)c1ccccc1

>  <score_type>  (26) 
oracle

>  <origin>  (26) 
autodockgpu

>  <m_score__min__energy>  (26) 
-9.8300000000000001

>  <m_primary>  (26) 
energy

>  <rmsd>  (26) 
9.231473446248337

>  <m_score__min__rmsd>  (26) 
9.231473446248337

>  <meeko>  (26) 
{"free_energy": -8.49, "intermolecular_energy": -10.87, "internal_energy": -3.36, "cluster_size": 16, "cluster_id": 1, "rank_in_cluster": 14}

>  <energy>  (26) 
-8.96

>  <cluster_rmsd>  (26) 
1.84

>  <cluster>  (26) 
2

$$$$

     RDKit          3D

 66 69  0  0  1  0  0  0  0  0999 V2000
  141.4680   77.5030  220.6960 C   0  0  0  0  0  0  0  0  0  0  0  0
  141.0340   77.6430  222.1280 C   0  0  2  0  0  0  0  0  0  0  0  0
  139.6090   77.4100  222.3030 N   0  0  0  0  0  0  0  0  0  0  0  0
  139.1710   76.0400  222.3700 C   0  0  0  0  0  0  0  0  0  0  0  0
  140.0030   75.0820  222.2830 O   0  0  0  0  0  0  0  0  0  0  0  0
  137.7310   75.7750  222.5440 C   0  0  1  0  0  0  0  0  0  0  0  0
  136.9980   76.9930  223.0890 C   0  0  0  0  0  0  0  0  0  0  0  0
  136.5710   77.7230  221.8390 C   0  0  2  0  0  0  0  0  0  0  0  0
  135.4760   78.6170  222.0190 N   0  0  0  0  0  0  0  0  0  0  0  0
  135.8320   79.9170  222.4990 C   0  0  0  0  0  0  0  0  0  0  0  0
  134.4820   78.0370  222.8650 C   0  0  0  0  0  0  0  0  0  0  0  0
  136.4250   76.6970  220.7710 C   0  0  0  0  0  0  0  0  0  0  0  0
  137.0740   75.4810  221.2740 N   0  0  0  0  0  0  0  0  0  0  0  0
  137.0560   74.2170  220.6120 C   0  0  0  0  0  0  0  0  0  0  0  0
  135.9850   73.8290  220.0770 O   0  0  0  0  0  0  0  0  0  0  0  0
  138.3090   73.4120  220.5810 C   0  0  0  0  0  0  0  0  0  0  0  0
  138.6550   72.8610  221.8610 N   0  0  0  0  0  0  0  0  0  0  0  0
  138.8740   71.4510  221.9250 C   0  0  0  0  0  0  0  0  0  0  0  0
  138.7340   70.8360  220.8140 O   0  0  0  0  0  0  0  0  0  0  0  0
  139.2300   70.7510  223.1460 C   0  0  0  0  0  0  0  0  0  0  0  0
  138.9220   69.4080  223.2220 C   0  0  0  0  0  0  0  0  0  0  0  0
  139.1990   68.6180  224.3110 C   0  0  0  0  0  0  0  0  0  0  0  0
  139.8290   69.2300  225.3970 C   0  0  0  0  0  0  0  0  0  0  0  0
  140.1470   68.5150  226.5360 C   0  0  0  0  0  0  0  0  0  0  0  0
  140.7770   69.1210  227.6190 C   0  0  0  0  0  0  0  0  0  0  0  0
  141.1370   68.1420  229.0090 Cl  0  0  0  0  0  0  0  0  0  0  0  0
  141.0730   70.4580  227.5220 C   0  0  0  0  0  0  0  0  0  0  0  0
  140.7570   71.1880  226.3800 C   0  0  0  0  0  0  0  0  0  0  0  0
  140.1340   70.5730  225.3170 C   0  0  0  0  0  0  0  0  0  0  0  0
  139.8310   71.3070  224.1990 N   0  0  0  0  0  0  0  0  0  0  0  0
  141.4610   78.9540  222.7270 C   0  0  0  0  0  0  0  0  0  0  0  0
  140.5250   79.8740  223.2000 C   0  0  0  0  0  0  0  0  0  0  0  0
  140.8820   81.0830  223.7500 C   0  0  0  0  0  0  0  0  0  0  0  0
  142.2220   81.4080  223.8420 C   0  0  0  0  0  0  0  0  0  0  0  0
  143.1640   80.5170  223.3810 C   0  0  0  0  0  0  0  0  0  0  0  0
  142.8170   79.2870  222.8200 C   0  0  0  0  0  0  0  0  0  0  0  0
  142.5144   77.1655  220.6613 H   0  0  0  0  0  0  0  0  0  0  0  0
  140.8279   76.7658  220.1893 H   0  0  0  0  0  0  0  0  0  0  0  0
  141.3794   78.4753  220.1893 H   0  0  0  0  0  0  0  0  0  0  0  0
  141.5554   76.8501  222.6843 H   0  0  0  0  0  0  0  0  0  0  0  0
  138.9380   78.2010  222.3740 H   0  0  0  0  0  0  0  0  0  0  0  0
  137.6815   74.9209  223.2354 H   0  0  0  0  0  0  0  0  0  0  0  0
  136.1259   76.6934  223.6888 H   0  0  0  0  0  0  0  0  0  0  0  0
  137.6183   77.6075  223.7581 H   0  0  0  0  0  0  0  0  0  0  0  0
  137.3413   78.4434  221.5263 H   0  0  0  0  0  0  0  0  0  0  0  0
  135.8313   79.9146  223.5990 H   0  0  0  0  0  0  0  0  0  0  0  0
  136.8354   80.1807  222.1335 H   0  0  0  0  0  0  0  0  0  0  0  0
  135.1029   80.6552  222.1335 H   0  0  0  0  0  0  0  0  0  0  0  0
  134.7574   78.1977  223.9178 H   0  0  0  0  0  0  0  0  0  0  0  0
  133.5089   78.5091  222.6644 H   0  0  0  0  0  0  0  0  0  0  0  0
  134.4142   76.9576  222.6644 H   0  0  0  0  0  0  0  0  0  0  0  0
  135.3606   76.5051  220.5706 H   0  0  0  0  0  0  0  0  0  0  0  0
  136.8831   77.0334  219.8292 H   0  0  0  0  0  0  0  0  0  0  0  0
  138.1765   72.5850  219.8679 H   0  0  0  0  0  0  0  0  0  0  0  0
  139.1252   74.0861  220.2820 H   0  0  0  0  0  0  0  0  0  0  0  0
  138.7540   73.4330  222.7450 H   0  0  0  0  0  0  0  0  0  0  0  0
  138.4247   68.9421  222.3585 H   0  0  0  0  0  0  0  0  0  0  0  0
  138.9362   67.5500  224.3271 H   0  0  0  0  0  0  0  0  0  0  0  0
  139.8971   67.4450  226.5877 H   0  0  0  0  0  0  0  0  0  0  0  0
  141.5699   70.9625  228.3638 H   0  0  0  0  0  0  0  0  0  0  0  0
  141.0054   72.2583  226.3264 H   0  0  0  0  0  0  0  0  0  0  0  0
  139.4566   79.6219  223.1301 H   0  0  0  0  0  0  0  0  0  0  0  0
  140.1123   81.7809  224.1113 H   0  0  0  0  0  0  0  0  0  0  0  0
  142.5323   82.3686  224.2790 H   0  0  0  0  0  0  0  0  0  0  0  0
  144.2284   80.7837  223.4574 H   0  0  0  0  0  0  0  0  0  0  0  0
  143.5920   78.5949  222.4591 H   0  0  0  0  0  0  0  0  0  0  0  0
  1  2  1  0
  2  3  1  0
  3  4  1  0
  4  5  2  0
  4  6  1  0
  6  7  1  0
  7  8  1  0
  8  9  1  0
  9 10  1  0
  9 11  1  0
  8 12  1  0
 12 13  1  0
 13 14  1  0
 14 15  2  0
 14 16  1  0
 16 17  1  0
 17 18  1  0
 18 19  2  0
 18 20  1  0
 20 21  2  0
 21 22  1  0
 22 23  2  0
 23 24  1  0
 24 25  2  0
 25 26  1  0
 25 27  1  0
 27 28  2  0
 28 29  1  0
 29 30  2  0
  2 31  1  0
 31 32  2  0
 32 33  1  0
 33 34  2  0
 34 35  1  0
 35 36  2  0
 13  6  1  0
 30 20  1  0
 36 31  1  0
 29 23  1  0
  1 37  1  0
  1 38  1  0
  1 39  1  0
  2 40  1  1
  3 41  1  0
  6 42  1  1
  7 43  1  0
  7 44  1  0
  8 45  1  6
 10 46  1  0
 10 47  1  0
 10 48  1  0
 11 49  1  0
 11 50  1  0
 11 51  1  0
 12 52  1  0
 12 53  1  0
 16 54  1  0
 16 55  1  0
 17 56  1  0
 21 57  1  0
 22 58  1  0
 24 59  1  0
 27 60  1  0
 28 61  1  0
 32 62  1  0
 33 63  1  0
 34 64  1  0
 35 65  1  0
 36 66  1  0
M  END
>  <smiles>  (27) 
CC(NC(=O)[C@H]1C[C@H](N(C)C)CN1C(=O)CNC(=O)c1ccc2cc(Cl)ccc2n1)c1ccccc1

>  <score_type>  (27) 
oracle

>  <origin>  (27) 
autodockgpu

>  <m_score__min__energy>  (27) 
-9.8300000000000001

>  <m_primary>  (27) 
energy

>  <rmsd>  (27) 
3.443284144325128

>  <m_score__min__rmsd>  (27) 
3.443284144325128

>  <meeko>  (27) 
{"free_energy": -8.88, "intermolecular_energy": -11.27, "internal_energy": -2.6, "cluster_size": 4, "cluster_id": 4, "rank_in_cluster": 1}

>  <energy>  (27) 
-8.92

>  <cluster_rmsd>  (27) 
1.81

>  <cluster>  (27) 
2

$$$$

     RDKit          3D

 66 69  0  0  1  0  0  0  0  0999 V2000
  141.7590   77.1200  220.5540 C   0  0  0  0  0  0  0  0  0  0  0  0
  141.0850   77.1540  221.8970 C   0  0  2  0  0  0  0  0  0  0  0  0
  139.6970   76.7230  221.8340 N   0  0  0  0  0  0  0  0  0  0  0  0
  139.4330   75.3230  222.0420 C   0  0  0  0  0  0  0  0  0  0  0  0
  140.3800   74.5060  222.2740 O   0  0  0  0  0  0  0  0  0  0  0  0
  138.0360   74.8590  221.9800 C   0  0  1  0  0  0  0  0  0  0  0  0
  137.1250   75.6980  222.8670 C   0  0  0  0  0  0  0  0  0  0  0  0
  136.6580   76.7920  221.9380 C   0  0  2  0  0  0  0  0  0  0  0  0
  135.4480   77.4310  222.3370 N   0  0  0  0  0  0  0  0  0  0  0  0
  135.5980   78.7820  222.7820 C   0  0  0  0  0  0  0  0  0  0  0  0
  134.7710   76.6590  223.3310 C   0  0  0  0  0  0  0  0  0  0  0  0
  136.6930   76.2310  220.5610 C   0  0  0  0  0  0  0  0  0  0  0  0
  137.4760   74.9930  220.6380 N   0  0  0  0  0  0  0  0  0  0  0  0
  137.6530   74.0740  219.5610 C   0  0  0  0  0  0  0  0  0  0  0  0
  137.7460   74.5250  218.3900 O   0  0  0  0  0  0  0  0  0  0  0  0
  137.7220   72.6190  219.8700 C   0  0  0  0  0  0  0  0  0  0  0  0
  138.5000   72.3300  221.0420 N   0  0  0  0  0  0  0  0  0  0  0  0
  138.0290   71.2830  221.8930 C   0  0  0  0  0  0  0  0  0  0  0  0
  136.9520   70.7180  221.5030 O   0  0  0  0  0  0  0  0  0  0  0  0
  138.7070   70.8760  223.1110 C   0  0  0  0  0  0  0  0  0  0  0  0
  139.6600   71.7320  223.6240 C   0  0  0  0  0  0  0  0  0  0  0  0
  140.3800   71.4810  224.7670 C   0  0  0  0  0  0  0  0  0  0  0  0
  140.1170   70.2830  225.4340 C   0  0  0  0  0  0  0  0  0  0  0  0
  140.7910   69.9460  226.5930 C   0  0  0  0  0  0  0  0  0  0  0  0
  140.5300   68.7540  227.2610 C   0  0  0  0  0  0  0  0  0  0  0  0
  141.4290   68.4140  228.7110 Cl  0  0  0  0  0  0  0  0  0  0  0  0
  139.5790   67.9170  226.7330 C   0  0  0  0  0  0  0  0  0  0  0  0
  138.8930   68.2470  225.5680 C   0  0  0  0  0  0  0  0  0  0  0  0
  139.1640   69.4310  224.9170 C   0  0  0  0  0  0  0  0  0  0  0  0
  138.4780   69.7400  223.7710 N   0  0  0  0  0  0  0  0  0  0  0  0
  141.2230   78.4910  222.5690 C   0  0  0  0  0  0  0  0  0  0  0  0
  140.1190   79.1420  223.1220 C   0  0  0  0  0  0  0  0  0  0  0  0
  140.2100   80.3670  223.7400 C   0  0  0  0  0  0  0  0  0  0  0  0
  141.4420   80.9860  223.8230 C   0  0  0  0  0  0  0  0  0  0  0  0
  142.5460   80.3640  223.2850 C   0  0  0  0  0  0  0  0  0  0  0  0
  142.4690   79.1210  222.6540 C   0  0  0  0  0  0  0  0  0  0  0  0
  142.8489   77.0650  220.6920 H   0  0  0  0  0  0  0  0  0  0  0  0
  141.4154   76.2380  219.9935 H   0  0  0  0  0  0  0  0  0  0  0  0
  141.5059   78.0321  219.9935 H   0  0  0  0  0  0  0  0  0  0  0  0
  141.6153   76.4225  222.5245 H   0  0  0  0  0  0  0  0  0  0  0  0
  138.9310   77.4000  221.6440 H   0  0  0  0  0  0  0  0  0  0  0  0
  138.0726   73.8082  222.3033 H   0  0  0  0  0  0  0  0  0  0  0  0
  136.2760   75.1037  223.2358 H   0  0  0  0  0  0  0  0  0  0  0  0
  137.6291   76.0801  223.7669 H   0  0  0  0  0  0  0  0  0  0  0  0
  137.3391   77.6549  221.9781 H   0  0  0  0  0  0  0  0  0  0  0  0
  135.6009   78.8076  223.8817 H   0  0  0  0  0  0  0  0  0  0  0  0
  136.5469   79.1896  222.4033 H   0  0  0  0  0  0  0  0  0  0  0  0
  134.7616   79.3878  222.4033 H   0  0  0  0  0  0  0  0  0  0  0  0
  135.0729   77.0033  224.3312 H   0  0  0  0  0  0  0  0  0  0  0  0
  133.6842   76.7819  223.2135 H   0  0  0  0  0  0  0  0  0  0  0  0
  135.0348   75.5976  223.2135 H   0  0  0  0  0  0  0  0  0  0  0  0
  135.6724   76.0146  220.2123 H   0  0  0  0  0  0  0  0  0  0  0  0
  137.1408   76.9426  219.8517 H   0  0  0  0  0  0  0  0  0  0  0  0
  136.6995   72.2453  220.0272 H   0  0  0  0  0  0  0  0  0  0  0  0
  138.2137   72.1251  219.0189 H   0  0  0  0  0  0  0  0  0  0  0  0
  139.3870   72.8410  221.3060 H   0  0  0  0  0  0  0  0  0  0  0  0
  139.8549   72.6713  223.0858 H   0  0  0  0  0  0  0  0  0  0  0  0
  141.1309   72.1929  225.1403 H   0  0  0  0  0  0  0  0  0  0  0  0
  141.5490   70.6343  226.9951 H   0  0  0  0  0  0  0  0  0  0  0  0
  139.3547   66.9671  227.2404 H   0  0  0  0  0  0  0  0  0  0  0  0
  138.1328   67.5612  225.1659 H   0  0  0  0  0  0  0  0  0  0  0  0
  139.1348   78.6546  223.0608 H   0  0  0  0  0  0  0  0  0  0  0  0
  139.3148   80.8470  224.1621 H   0  0  0  0  0  0  0  0  0  0  0  0
  141.5399   81.9656  224.3138 H   0  0  0  0  0  0  0  0  0  0  0  0
  143.5233   80.8640  223.3547 H   0  0  0  0  0  0  0  0  0  0  0  0
  143.3682   78.6476  222.2330 H   0  0  0  0  0  0  0  0  0  0  0  0
  1  2  1  0
  2  3  1  0
  3  4  1  0
  4  5  2  0
  4  6  1  0
  6  7  1  0
  7  8  1  0
  8  9  1  0
  9 10  1  0
  9 11  1  0
  8 12  1  0
 12 13  1  0
 13 14  1  0
 14 15  2  0
 14 16  1  0
 16 17  1  0
 17 18  1  0
 18 19  2  0
 18 20  1  0
 20 21  2  0
 21 22  1  0
 22 23  2  0
 23 24  1  0
 24 25  2  0
 25 26  1  0
 25 27  1  0
 27 28  2  0
 28 29  1  0
 29 30  2  0
  2 31  1  0
 31 32  2  0
 32 33  1  0
 33 34  2  0
 34 35  1  0
 35 36  2  0
 13  6  1  0
 30 20  1  0
 36 31  1  0
 29 23  1  0
  1 37  1  0
  1 38  1  0
  1 39  1  0
  2 40  1  1
  3 41  1  0
  6 42  1  1
  7 43  1  0
  7 44  1  0
  8 45  1  6
 10 46  1  0
 10 47  1  0
 10 48  1  0
 11 49  1  0
 11 50  1  0
 11 51  1  0
 12 52  1  0
 12 53  1  0
 16 54  1  0
 16 55  1  0
 17 56  1  0
 21 57  1  0
 22 58  1  0
 24 59  1  0
 27 60  1  0
 28 61  1  0
 32 62  1  0
 33 63  1  0
 34 64  1  0
 35 65  1  0
 36 66  1  0
M  END
>  <smiles>  (28) 
CC(NC(=O)[C@H]1C[C@H](N(C)C)CN1C(=O)CNC(=O)c1ccc2cc(Cl)ccc2n1)c1ccccc1

>  <score_type>  (28) 
oracle

>  <origin>  (28) 
autodockgpu

>  <m_score__min__energy>  (28) 
-9.8300000000000001

>  <m_primary>  (28) 
energy

>  <rmsd>  (28) 
3.87878931590004

>  <m_score__min__rmsd>  (28) 
3.87878931590004

>  <meeko>  (28) 
{"free_energy": -8.04, "intermolecular_energy": -10.42, "internal_energy": -2.8, "cluster_size": 4, "cluster_id": 4, "rank_in_cluster": 3}

>  <energy>  (28) 
-8.87

>  <cluster_rmsd>  (28) 
1.62

>  <cluster>  (28) 
2

$$$$

     RDKit          3D

 66 69  0  0  1  0  0  0  0  0999 V2000
  141.3950   77.4780  219.9720 C   0  0  0  0  0  0  0  0  0  0  0  0
  140.9870   77.4810  221.4200 C   0  0  2  0  0  0  0  0  0  0  0  0
  139.5510   77.3280  221.5930 N   0  0  0  0  0  0  0  0  0  0  0  0
  139.0930   76.1400  222.2660 C   0  0  0  0  0  0  0  0  0  0  0  0
  139.9170   75.2700  222.6900 O   0  0  0  0  0  0  0  0  0  0  0  0
  137.6420   75.9590  222.4520 C   0  0  1  0  0  0  0  0  0  0  0  0
  136.9560   77.2670  222.8210 C   0  0  0  0  0  0  0  0  0  0  0  0
  136.5710   77.8410  221.4780 C   0  0  2  0  0  0  0  0  0  0  0  0
  135.5130   78.7940  221.5220 N   0  0  0  0  0  0  0  0  0  0  0  0
  135.2230   79.4310  220.2750 C   0  0  0  0  0  0  0  0  0  0  0  0
  135.7590   79.7780  222.5300 C   0  0  0  0  0  0  0  0  0  0  0  0
  136.3920   76.6890  220.5540 C   0  0  0  0  0  0  0  0  0  0  0  0
  136.9850   75.5250  221.2230 N   0  0  0  0  0  0  0  0  0  0  0  0
  136.9200   74.1870  220.7340 C   0  0  0  0  0  0  0  0  0  0  0  0
  135.8030   73.7220  220.3880 O   0  0  0  0  0  0  0  0  0  0  0  0
  138.1810   73.3970  220.6520 C   0  0  0  0  0  0  0  0  0  0  0  0
  138.5870   72.8530  221.9170 N   0  0  0  0  0  0  0  0  0  0  0  0
  138.7140   71.4320  222.0030 C   0  0  0  0  0  0  0  0  0  0  0  0
  138.4460   70.8040  220.9230 O   0  0  0  0  0  0  0  0  0  0  0  0
  139.1150   70.7370  223.2120 C   0  0  0  0  0  0  0  0  0  0  0  0
  138.8440   69.3860  223.2880 C   0  0  0  0  0  0  0  0  0  0  0  0
  139.1660   68.5990  224.3670 C   0  0  0  0  0  0  0  0  0  0  0  0
  139.8030   69.2230  225.4420 C   0  0  0  0  0  0  0  0  0  0  0  0
  140.1650   68.5120  226.5710 C   0  0  0  0  0  0  0  0  0  0  0  0
  140.8010   69.1290  227.6430 C   0  0  0  0  0  0  0  0  0  0  0  0
  141.2180   68.1540  229.0200 Cl  0  0  0  0  0  0  0  0  0  0  0  0
  141.0600   70.4740  227.5460 C   0  0  0  0  0  0  0  0  0  0  0  0
  140.7000   71.2000  226.4150 C   0  0  0  0  0  0  0  0  0  0  0  0
  140.0700   70.5730  225.3620 C   0  0  0  0  0  0  0  0  0  0  0  0
  139.7240   71.3040  224.2550 N   0  0  0  0  0  0  0  0  0  0  0  0
  141.5120   78.6810  222.1560 C   0  0  0  0  0  0  0  0  0  0  0  0
  141.7870   79.8770  221.4910 C   0  0  0  0  0  0  0  0  0  0  0  0
  142.2710   80.9920  222.1340 C   0  0  0  0  0  0  0  0  0  0  0  0
  142.4980   80.9350  223.4960 C   0  0  0  0  0  0  0  0  0  0  0  0
  142.2350   79.7660  224.1740 C   0  0  0  0  0  0  0  0  0  0  0  0
  141.7440   78.6260  223.5350 C   0  0  0  0  0  0  0  0  0  0  0  0
  142.4926   77.4699  219.9004 H   0  0  0  0  0  0  0  0  0  0  0  0
  140.9887   76.5828  219.4784 H   0  0  0  0  0  0  0  0  0  0  0  0
  141.0020   78.3791  219.4784 H   0  0  0  0  0  0  0  0  0  0  0  0
  141.4566   76.5954  221.8730 H   0  0  0  0  0  0  0  0  0  0  0  0
  138.8860   78.0470  221.2430 H   0  0  0  0  0  0  0  0  0  0  0  0
  137.5501   75.2068  223.2494 H   0  0  0  0  0  0  0  0  0  0  0  0
  136.0668   77.0852  223.4426 H   0  0  0  0  0  0  0  0  0  0  0  0
  137.5952   77.9394  223.4121 H   0  0  0  0  0  0  0  0  0  0  0  0
  137.3735   78.4817  221.0835 H   0  0  0  0  0  0  0  0  0  0  0  0
  134.7739   80.4174  220.4628 H   0  0  0  0  0  0  0  0  0  0  0  0
  136.1534   79.5549  219.7014 H   0  0  0  0  0  0  0  0  0  0  0  0
  134.5186   78.8107  219.7014 H   0  0  0  0  0  0  0  0  0  0  0  0
  135.6448   79.3211  223.5241 H   0  0  0  0  0  0  0  0  0  0  0  0
  136.7821   80.1671  222.4207 H   0  0  0  0  0  0  0  0  0  0  0  0
  135.0394   80.6028  222.4207 H   0  0  0  0  0  0  0  0  0  0  0  0
  135.3223   76.5153  220.3654 H   0  0  0  0  0  0  0  0  0  0  0  0
  136.8726   76.8784  219.5828 H   0  0  0  0  0  0  0  0  0  0  0  0
  138.0291   72.5670  219.9463 H   0  0  0  0  0  0  0  0  0  0  0  0
  138.9756   74.0805  220.3182 H   0  0  0  0  0  0  0  0  0  0  0  0
  138.7920   73.4360  222.7740 H   0  0  0  0  0  0  0  0  0  0  0  0
  138.3400   68.9108  222.4335 H   0  0  0  0  0  0  0  0  0  0  0  0
  138.9323   67.5242  224.3836 H   0  0  0  0  0  0  0  0  0  0  0  0
  139.9453   67.4354  226.6226 H   0  0  0  0  0  0  0  0  0  0  0  0
  141.5621   70.9877  228.3791 H   0  0  0  0  0  0  0  0  0  0  0  0
  140.9187   72.2767  226.3613 H   0  0  0  0  0  0  0  0  0  0  0  0
  141.6091   79.9298  220.4068 H   0  0  0  0  0  0  0  0  0  0  0  0
  142.4745   81.9157  221.5725 H   0  0  0  0  0  0  0  0  0  0  0  0
  142.8846   81.8140  224.0325 H   0  0  0  0  0  0  0  0  0  0  0  0
  142.4183   79.7289  225.2580 H   0  0  0  0  0  0  0  0  0  0  0  0
  141.5440   77.7053  224.1027 H   0  0  0  0  0  0  0  0  0  0  0  0
  1  2  1  0
  2  3  1  0
  3  4  1  0
  4  5  2  0
  4  6  1  0
  6  7  1  0
  7  8  1  0
  8  9  1  0
  9 10  1  0
  9 11  1  0
  8 12  1  0
 12 13  1  0
 13 14  1  0
 14 15  2  0
 14 16  1  0
 16 17  1  0
 17 18  1  0
 18 19  2  0
 18 20  1  0
 20 21  2  0
 21 22  1  0
 22 23  2  0
 23 24  1  0
 24 25  2  0
 25 26  1  0
 25 27  1  0
 27 28  2  0
 28 29  1  0
 29 30  2  0
  2 31  1  0
 31 32  2  0
 32 33  1  0
 33 34  2  0
 34 35  1  0
 35 36  2  0
 13  6  1  0
 30 20  1  0
 36 31  1  0
 29 23  1  0
  1 37  1  0
  1 38  1  0
  1 39  1  0
  2 40  1  1
  3 41  1  0
  6 42  1  1
  7 43  1  0
  7 44  1  0
  8 45  1  6
 10 46  1  0
 10 47  1  0
 10 48  1  0
 11 49  1  0
 11 50  1  0
 11 51  1  0
 12 52  1  0
 12 53  1  0
 16 54  1  0
 16 55  1  0
 17 56  1  0
 21 57  1  0
 22 58  1  0
 24 59  1  0
 27 60  1  0
 28 61  1  0
 32 62  1  0
 33 63  1  0
 34 64  1  0
 35 65  1  0
 36 66  1  0
M  END
>  <smiles>  (29) 
CC(NC(=O)[C@H]1C[C@H](N(C)C)CN1C(=O)CNC(=O)c1ccc2cc(Cl)ccc2n1)c1ccccc1

>  <score_type>  (29) 
oracle

>  <origin>  (29) 
autodockgpu

>  <m_score__min__energy>  (29) 
-9.8300000000000001

>  <m_primary>  (29) 
energy

>  <rmsd>  (29) 
3.310928283540357

>  <m_score__min__rmsd>  (29) 
3.310928283540357

>  <meeko>  (29) 
{"free_energy": -8.41, "intermolecular_energy": -10.8, "internal_energy": -2.71, "cluster_size": 4, "cluster_id": 4, "rank_in_cluster": 2}

>  <energy>  (29) 
-8.85

>  <cluster_rmsd>  (29) 
0.95

>  <cluster>  (29) 
2

$$$$

     RDKit          3D

 66 69  0  0  1  0  0  0  0  0999 V2000
  140.7020   80.3860  219.3520 C   0  0  0  0  0  0  0  0  0  0  0  0
  141.5720   79.3090  219.9390 C   0  0  2  0  0  0  0  0  0  0  0  0
  141.0880   77.9730  219.6280 N   0  0  0  0  0  0  0  0  0  0  0  0
  142.0750   76.9710  219.3220 C   0  0  0  0  0  0  0  0  0  0  0  0
  143.3160   77.2510  219.3300 O   0  0  0  0  0  0  0  0  0  0  0  0
  141.6120   75.6090  219.0010 C   0  0  1  0  0  0  0  0  0  0  0  0
  142.7790   74.6500  218.8070 C   0  0  0  0  0  0  0  0  0  0  0  0
  143.0000   74.0980  220.1950 C   0  0  2  0  0  0  0  0  0  0  0  0
  143.6860   72.8490  220.2330 N   0  0  0  0  0  0  0  0  0  0  0  0
  142.9610   71.7810  220.8480 C   0  0  0  0  0  0  0  0  0  0  0  0
  144.9660   72.9930  220.8520 C   0  0  0  0  0  0  0  0  0  0  0  0
  141.6910   74.1600  220.8960 C   0  0  0  0  0  0  0  0  0  0  0  0
  140.8290   75.0300  220.0880 N   0  0  0  0  0  0  0  0  0  0  0  0
  139.4440   75.2610  220.3380 C   0  0  0  0  0  0  0  0  0  0  0  0
  139.0210   76.4470  220.3590 O   0  0  0  0  0  0  0  0  0  0  0  0
  138.5550   74.0870  220.5640 C   0  0  0  0  0  0  0  0  0  0  0  0
  138.7900   73.4380  221.8230 N   0  0  0  0  0  0  0  0  0  0  0  0
  139.1950   72.0680  221.7820 C   0  0  0  0  0  0  0  0  0  0  0  0
  139.3030   71.5760  220.6080 O   0  0  0  0  0  0  0  0  0  0  0  0
  139.4690   71.2800  222.9700 C   0  0  0  0  0  0  0  0  0  0  0  0
  139.1030   69.9490  222.9480 C   0  0  0  0  0  0  0  0  0  0  0  0
  139.3000   69.0830  223.9960 C   0  0  0  0  0  0  0  0  0  0  0  0
  139.9070   69.5990  225.1430 C   0  0  0  0  0  0  0  0  0  0  0  0
  140.1460   68.8020  226.2460 C   0  0  0  0  0  0  0  0  0  0  0  0
  140.7520   69.3120  227.3900 C   0  0  0  0  0  0  0  0  0  0  0  0
  141.0120   68.2350  228.7300 Cl  0  0  0  0  0  0  0  0  0  0  0  0
  141.1070   70.6380  227.3910 C   0  0  0  0  0  0  0  0  0  0  0  0
  140.8710   71.4500  226.2850 C   0  0  0  0  0  0  0  0  0  0  0  0
  140.2690   70.9290  225.1600 C   0  0  0  0  0  0  0  0  0  0  0  0
  140.0460   71.7430  224.0800 N   0  0  0  0  0  0  0  0  0  0  0  0
  141.7880   79.4940  221.4140 C   0  0  0  0  0  0  0  0  0  0  0  0
  142.3160   80.6800  221.9270 C   0  0  0  0  0  0  0  0  0  0  0  0
  142.5290   80.8790  223.2710 C   0  0  0  0  0  0  0  0  0  0  0  0
  142.2110   79.8690  224.1580 C   0  0  0  0  0  0  0  0  0  0  0  0
  141.6910   78.6890  223.6760 C   0  0  0  0  0  0  0  0  0  0  0  0
  141.4690   78.4720  222.3150 C   0  0  0  0  0  0  0  0  0  0  0  0
  140.2355   80.9635  220.1637 H   0  0  0  0  0  0  0  0  0  0  0  0
  141.3157   81.0555  218.7315 H   0  0  0  0  0  0  0  0  0  0  0  0
  139.9184   79.9268  218.7315 H   0  0  0  0  0  0  0  0  0  0  0  0
  142.5547   79.4103  219.4553 H   0  0  0  0  0  0  0  0  0  0  0  0
  140.0710   77.7550  219.6260 H   0  0  0  0  0  0  0  0  0  0  0  0
  141.0149   75.7214  218.0841 H   0  0  0  0  0  0  0  0  0  0  0  0
  142.5188   73.8487  218.0998 H   0  0  0  0  0  0  0  0  0  0  0  0
  143.6724   75.1343  218.3860 H   0  0  0  0  0  0  0  0  0  0  0  0
  143.7203   74.7167  220.7503 H   0  0  0  0  0  0  0  0  0  0  0  0
  143.0256   71.8762  221.9420 H   0  0  0  0  0  0  0  0  0  0  0  0
  141.9067   71.8270  220.5376 H   0  0  0  0  0  0  0  0  0  0  0  0
  143.3929   70.8181  220.5376 H   0  0  0  0  0  0  0  0  0  0  0  0
  144.8480   72.9797  221.9456 H   0  0  0  0  0  0  0  0  0  0  0  0
  145.6180   72.1625  220.5434 H   0  0  0  0  0  0  0  0  0  0  0  0
  145.4172   73.9476  220.5434 H   0  0  0  0  0  0  0  0  0  0  0  0
  141.2521   73.1542  220.9720 H   0  0  0  0  0  0  0  0  0  0  0  0
  141.8043   74.5495  221.9185 H   0  0  0  0  0  0  0  0  0  0  0  0
  137.5097   74.4285  220.5357 H   0  0  0  0  0  0  0  0  0  0  0  0
  138.7700   73.3548  219.7718 H   0  0  0  0  0  0  0  0  0  0  0  0
  138.6800   73.9090  222.7620 H   0  0  0  0  0  0  0  0  0  0  0  0
  138.6253   69.5588  222.0372 H   0  0  0  0  0  0  0  0  0  0  0  0
  138.9929   68.0285  223.9344 H   0  0  0  0  0  0  0  0  0  0  0  0
  139.8512   67.7426  226.2192 H   0  0  0  0  0  0  0  0  0  0  0  0
  141.5871   71.0672  228.2828 H   0  0  0  0  0  0  0  0  0  0  0  0
  141.1656   72.5095  226.3091 H   0  0  0  0  0  0  0  0  0  0  0  0
  142.5723   81.4890  221.2272 H   0  0  0  0  0  0  0  0  0  0  0  0
  142.9469   81.8294  223.6346 H   0  0  0  0  0  0  0  0  0  0  0  0
  142.3715   80.0061  225.2376 H   0  0  0  0  0  0  0  0  0  0  0  0
  141.4416   77.8889  224.3885 H   0  0  0  0  0  0  0  0  0  0  0  0
  141.0524   77.5184  221.9586 H   0  0  0  0  0  0  0  0  0  0  0  0
  1  2  1  0
  2  3  1  0
  3  4  1  0
  4  5  2  0
  4  6  1  0
  6  7  1  0
  7  8  1  0
  8  9  1  0
  9 10  1  0
  9 11  1  0
  8 12  1  0
 12 13  1  0
 13 14  1  0
 14 15  2  0
 14 16  1  0
 16 17  1  0
 17 18  1  0
 18 19  2  0
 18 20  1  0
 20 21  2  0
 21 22  1  0
 22 23  2  0
 23 24  1  0
 24 25  2  0
 25 26  1  0
 25 27  1  0
 27 28  2  0
 28 29  1  0
 29 30  2  0
  2 31  1  0
 31 32  2  0
 32 33  1  0
 33 34  2  0
 34 35  1  0
 35 36  2  0
 13  6  1  0
 30 20  1  0
 36 31  1  0
 29 23  1  0
  1 37  1  0
  1 38  1  0
  1 39  1  0
  2 40  1  6
  3 41  1  0
  6 42  1  6
  7 43  1  0
  7 44  1  0
  8 45  1  1
 10 46  1  0
 10 47  1  0
 10 48  1  0
 11 49  1  0
 11 50  1  0
 11 51  1  0
 12 52  1  0
 12 53  1  0
 16 54  1  0
 16 55  1  0
 17 56  1  0
 21 57  1  0
 22 58  1  0
 24 59  1  0
 27 60  1  0
 28 61  1  0
 32 62  1  0
 33 63  1  0
 34 64  1  0
 35 65  1  0
 36 66  1  0
M  END
>  <smiles>  (30) 
CC(NC(=O)[C@H]1C[C@H](N(C)C)CN1C(=O)CNC(=O)c1ccc2cc(Cl)ccc2n1)c1ccccc1

>  <score_type>  (30) 
oracle

>  <origin>  (30) 
autodockgpu

>  <m_score__min__energy>  (30) 
-9.8300000000000001

>  <m_primary>  (30) 
energy

>  <rmsd>  (30) 
2.9834118331331223

>  <m_score__min__rmsd>  (30) 
2.9834118331331223

>  <meeko>  (30) 
{"free_energy": -9.01, "intermolecular_energy": -11.39, "internal_energy": -3.12, "cluster_size": 20, "cluster_id": 2, "rank_in_cluster": 9}

>  <energy>  (30) 
-8.81

>  <cluster_rmsd>  (30) 
1.9

>  <cluster>  (30) 
2

$$$$

     RDKit          3D

 66 69  0  0  1  0  0  0  0  0999 V2000
  140.4030   80.1070  219.2550 C   0  0  0  0  0  0  0  0  0  0  0  0
  141.4250   79.1480  219.7980 C   0  0  2  0  0  0  0  0  0  0  0  0
  141.0440   77.7580  219.5970 N   0  0  0  0  0  0  0  0  0  0  0  0
  142.1070   76.7950  219.4820 C   0  0  0  0  0  0  0  0  0  0  0  0
  143.3250   77.1530  219.5570 O   0  0  0  0  0  0  0  0  0  0  0  0
  141.7490   75.3800  219.2760 C   0  0  1  0  0  0  0  0  0  0  0  0
  142.8510   74.6220  218.5480 C   0  0  0  0  0  0  0  0  0  0  0  0
  143.7060   74.0970  219.6760 C   0  0  2  0  0  0  0  0  0  0  0  0
  144.5140   72.9730  219.3340 N   0  0  0  0  0  0  0  0  0  0  0  0
  145.5600   72.6780  220.2630 C   0  0  0  0  0  0  0  0  0  0  0  0
  145.0520   73.1180  218.0180 C   0  0  0  0  0  0  0  0  0  0  0  0
  142.8140   73.9410  220.8550 C   0  0  0  0  0  0  0  0  0  0  0  0
  141.5800   74.6710  220.5400 N   0  0  0  0  0  0  0  0  0  0  0  0
  140.4080   74.6750  221.3540 C   0  0  0  0  0  0  0  0  0  0  0  0
  140.3340   73.8640  222.3130 O   0  0  0  0  0  0  0  0  0  0  0  0
  139.3230   75.6430  221.0340 C   0  0  0  0  0  0  0  0  0  0  0  0
  139.0360   76.5450  222.1140 N   0  0  0  0  0  0  0  0  0  0  0  0
  138.4290   77.7930  221.7760 C   0  0  0  0  0  0  0  0  0  0  0  0
  138.2090   77.9620  220.5290 O   0  0  0  0  0  0  0  0  0  0  0  0
  138.0810   78.8050  222.7580 C   0  0  0  0  0  0  0  0  0  0  0  0
  139.1060   79.5730  223.2700 C   0  0  0  0  0  0  0  0  0  0  0  0
  138.9280   80.5660  224.2020 C   0  0  0  0  0  0  0  0  0  0  0  0
  137.6240   80.7960  224.6460 C   0  0  0  0  0  0  0  0  0  0  0  0
  137.3480   81.7750  225.5820 C   0  0  0  0  0  0  0  0  0  0  0  0
  136.0500   82.0080  226.0240 C   0  0  0  0  0  0  0  0  0  0  0  0
  135.7990   83.2600  227.2040 Cl  0  0  0  0  0  0  0  0  0  0  0  0
  135.0450   81.2320  225.5020 C   0  0  0  0  0  0  0  0  0  0  0  0
  135.3110   80.2440  224.5590 C   0  0  0  0  0  0  0  0  0  0  0  0
  136.6030   80.0250  224.1310 C   0  0  0  0  0  0  0  0  0  0  0  0
  136.8460   79.0480  223.2010 N   0  0  0  0  0  0  0  0  0  0  0  0
  141.7640   79.4300  221.2340 C   0  0  0  0  0  0  0  0  0  0  0  0
  142.0310   80.7270  221.6740 C   0  0  0  0  0  0  0  0  0  0  0  0
  142.3480   81.0190  222.9800 C   0  0  0  0  0  0  0  0  0  0  0  0
  142.4060   79.9920  223.9020 C   0  0  0  0  0  0  0  0  0  0  0  0
  142.1470   78.7040  223.4920 C   0  0  0  0  0  0  0  0  0  0  0  0
  141.8250   78.3920  222.1700 C   0  0  0  0  0  0  0  0  0  0  0  0
  139.8805   80.5973  220.0896 H   0  0  0  0  0  0  0  0  0  0  0  0
  140.9049   80.8677  218.6390 H   0  0  0  0  0  0  0  0  0  0  0  0
  139.6757   79.5578  218.6390 H   0  0  0  0  0  0  0  0  0  0  0  0
  142.3420   79.3137  219.2134 H   0  0  0  0  0  0  0  0  0  0  0  0
  140.0440   77.4770  219.5390 H   0  0  0  0  0  0  0  0  0  0  0  0
  140.8146   75.4061  218.6961 H   0  0  0  0  0  0  0  0  0  0  0  0
  142.4351   73.7973  217.9506 H   0  0  0  0  0  0  0  0  0  0  0  0
  143.4096   75.2477  217.8363 H   0  0  0  0  0  0  0  0  0  0  0  0
  144.4974   74.8168  219.9320 H   0  0  0  0  0  0  0  0  0  0  0  0
  145.1797   72.7853  221.2896 H   0  0  0  0  0  0  0  0  0  0  0  0
  145.9087   71.6465  220.1071 H   0  0  0  0  0  0  0  0  0  0  0  0
  146.3963   73.3753  220.1071 H   0  0  0  0  0  0  0  0  0  0  0  0
  146.1121   73.4037  218.0847 H   0  0  0  0  0  0  0  0  0  0  0  0
  144.9627   72.1637  217.4782 H   0  0  0  0  0  0  0  0  0  0  0  0
  144.4953   73.8981  217.4782 H   0  0  0  0  0  0  0  0  0  0  0  0
  142.5934   72.8772  221.0271 H   0  0  0  0  0  0  0  0  0  0  0  0
  143.2871   74.3323  221.7677 H   0  0  0  0  0  0  0  0  0  0  0  0
  139.6275   76.2328  220.1569 H   0  0  0  0  0  0  0  0  0  0  0  0
  138.4099   75.0604  220.8418 H   0  0  0  0  0  0  0  0  0  0  0  0
  139.2480   76.3390  223.1300 H   0  0  0  0  0  0  0  0  0  0  0  0
  140.1272   79.3785  222.9103 H   0  0  0  0  0  0  0  0  0  0  0  0
  139.7758   81.1547  224.5823 H   0  0  0  0  0  0  0  0  0  0  0  0
  138.1717   82.3822  225.9855 H   0  0  0  0  0  0  0  0  0  0  0  0
  134.0095   81.3944  225.8356 H   0  0  0  0  0  0  0  0  0  0  0  0
  134.4884   79.6363  224.1541 H   0  0  0  0  0  0  0  0  0  0  0  0
  141.9861   81.5503  220.9459 H   0  0  0  0  0  0  0  0  0  0  0  0
  142.5525   82.0556  223.2860 H   0  0  0  0  0  0  0  0  0  0  0  0
  142.6565   80.2014  224.9524 H   0  0  0  0  0  0  0  0  0  0  0  0
  142.1954   77.8917  224.2322 H   0  0  0  0  0  0  0  0  0  0  0  0
  141.6236   77.3528  221.8708 H   0  0  0  0  0  0  0  0  0  0  0  0
  1  2  1  0
  2  3  1  0
  3  4  1  0
  4  5  2  0
  4  6  1  0
  6  7  1  0
  7  8  1  0
  8  9  1  0
  9 10  1  0
  9 11  1  0
  8 12  1  0
 12 13  1  0
 13 14  1  0
 14 15  2  0
 14 16  1  0
 16 17  1  0
 17 18  1  0
 18 19  2  0
 18 20  1  0
 20 21  2  0
 21 22  1  0
 22 23  2  0
 23 24  1  0
 24 25  2  0
 25 26  1  0
 25 27  1  0
 27 28  2  0
 28 29  1  0
 29 30  2  0
  2 31  1  0
 31 32  2  0
 32 33  1  0
 33 34  2  0
 34 35  1  0
 35 36  2  0
 13  6  1  0
 30 20  1  0
 36 31  1  0
 29 23  1  0
  1 37  1  0
  1 38  1  0
  1 39  1  0
  2 40  1  6
  3 41  1  0
  6 42  1  6
  7 43  1  0
  7 44  1  0
  8 45  1  1
 10 46  1  0
 10 47  1  0
 10 48  1  0
 11 49  1  0
 11 50  1  0
 11 51  1  0
 12 52  1  0
 12 53  1  0
 16 54  1  0
 16 55  1  0
 17 56  1  0
 21 57  1  0
 22 58  1  0
 24 59  1  0
 27 60  1  0
 28 61  1  0
 32 62  1  0
 33 63  1  0
 34 64  1  0
 35 65  1  0
 36 66  1  0
M  END
>  <smiles>  (31) 
CC(NC(=O)[C@H]1C[C@H](N(C)C)CN1C(=O)CNC(=O)c1ccc2cc(Cl)ccc2n1)c1ccccc1

>  <score_type>  (31) 
oracle

>  <origin>  (31) 
autodockgpu

>  <m_score__min__energy>  (31) 
-9.8300000000000001

>  <m_primary>  (31) 
energy

>  <rmsd>  (31) 
7.081169845808308

>  <m_score__min__rmsd>  (31) 
7.081169845808308

>  <meeko>  (31) 
{"free_energy": -7.44, "intermolecular_energy": -9.83, "internal_energy": -3.76, "cluster_size": 2, "cluster_id": 9, "rank_in_cluster": 1}

>  <energy>  (31) 
-8.81

>  <cluster_rmsd>  (31) 
0.88

>  <cluster>  (31) 
2

$$$$

     RDKit          3D

 66 69  0  0  1  0  0  0  0  0999 V2000
  140.3930   71.9190  223.3690 C   0  0  0  0  0  0  0  0  0  0  0  0
  139.5960   70.9160  224.1570 C   0  0  2  0  0  0  0  0  0  0  0  0
  138.1620   71.1030  224.0040 N   0  0  0  0  0  0  0  0  0  0  0  0
  137.3960   69.9740  223.5430 C   0  0  0  0  0  0  0  0  0  0  0  0
  137.9600   68.8640  223.2850 O   0  0  0  0  0  0  0  0  0  0  0  0
  135.9410   70.1380  223.3770 C   0  0  1  0  0  0  0  0  0  0  0  0
  135.1640   69.3270  224.4060 C   0  0  0  0  0  0  0  0  0  0  0  0
  135.0030   70.2950  225.5530 C   0  0  2  0  0  0  0  0  0  0  0  0
  133.9270   69.9930  226.4370 N   0  0  0  0  0  0  0  0  0  0  0  0
  132.7620   69.4520  225.8070 C   0  0  0  0  0  0  0  0  0  0  0  0
  133.5760   71.1370  227.2180 C   0  0  0  0  0  0  0  0  0  0  0  0
  135.0200   71.6620  224.9670 C   0  0  0  0  0  0  0  0  0  0  0  0
  135.5200   71.5190  223.5950 N   0  0  0  0  0  0  0  0  0  0  0  0
  135.5780   72.5740  222.6360 C   0  0  0  0  0  0  0  0  0  0  0  0
  134.6370   73.4080  222.5960 O   0  0  0  0  0  0  0  0  0  0  0  0
  136.7550   72.6440  221.7260 C   0  0  0  0  0  0  0  0  0  0  0  0
  137.7690   73.5510  222.1850 N   0  0  0  0  0  0  0  0  0  0  0  0
  137.7510   74.8740  221.6460 C   0  0  0  0  0  0  0  0  0  0  0  0
  136.8170   75.0970  220.8040 O   0  0  0  0  0  0  0  0  0  0  0  0
  138.7090   75.9000  222.0140 C   0  0  0  0  0  0  0  0  0  0  0  0
  140.0490   75.5830  221.9190 C   0  0  0  0  0  0  0  0  0  0  0  0
  141.0660   76.4510  222.2310 C   0  0  0  0  0  0  0  0  0  0  0  0
  140.7020   77.7260  222.6700 C   0  0  0  0  0  0  0  0  0  0  0  0
  141.6570   78.6670  223.0060 C   0  0  0  0  0  0  0  0  0  0  0  0
  141.2990   79.9390  223.4420 C   0  0  0  0  0  0  0  0  0  0  0  0
  142.5690   81.0560  223.8430 Cl  0  0  0  0  0  0  0  0  0  0  0  0
  139.9610   80.2330  223.5300 C   0  0  0  0  0  0  0  0  0  0  0  0
  138.9910   79.2940  223.1940 C   0  0  0  0  0  0  0  0  0  0  0  0
  139.3620   78.0380  222.7640 C   0  0  0  0  0  0  0  0  0  0  0  0
  138.3930   77.1260  222.4360 N   0  0  0  0  0  0  0  0  0  0  0  0
  140.0020   70.8760  225.6030 C   0  0  0  0  0  0  0  0  0  0  0  0
  139.6220   69.8210  226.4340 C   0  0  0  0  0  0  0  0  0  0  0  0
  139.9740   69.7560  227.7610 C   0  0  0  0  0  0  0  0  0  0  0  0
  140.7360   70.7730  228.3040 C   0  0  0  0  0  0  0  0  0  0  0  0
  141.1220   71.8240  227.5050 C   0  0  0  0  0  0  0  0  0  0  0  0
  140.7730   71.9050  226.1550 C   0  0  0  0  0  0  0  0  0  0  0  0
  140.9253   72.5889  224.0603 H   0  0  0  0  0  0  0  0  0  0  0  0
  141.1215   71.3921  222.7352 H   0  0  0  0  0  0  0  0  0  0  0  0
  139.7151   72.5096  222.7352 H   0  0  0  0  0  0  0  0  0  0  0  0
  139.8343   69.9307  223.7299 H   0  0  0  0  0  0  0  0  0  0  0  0
  137.7120   72.0160  224.2190 H   0  0  0  0  0  0  0  0  0  0  0  0
  135.7337   69.8066  222.3488 H   0  0  0  0  0  0  0  0  0  0  0  0
  134.1856   69.0187  224.0090 H   0  0  0  0  0  0  0  0  0  0  0  0
  135.6712   68.3946  224.6947 H   0  0  0  0  0  0  0  0  0  0  0  0
  135.8437   70.2081  226.2570 H   0  0  0  0  0  0  0  0  0  0  0  0
  132.0492   69.1210  226.5767 H   0  0  0  0  0  0  0  0  0  0  0  0
  132.2922   70.2241  225.1800 H   0  0  0  0  0  0  0  0  0  0  0  0
  133.0488   68.5949  225.1800 H   0  0  0  0  0  0  0  0  0  0  0  0
  133.6522   70.8886  228.2869 H   0  0  0  0  0  0  0  0  0  0  0  0
  134.2614   71.9649  226.9842 H   0  0  0  0  0  0  0  0  0  0  0  0
  132.5442   71.4381  226.9842 H   0  0  0  0  0  0  0  0  0  0  0  0
  134.0047   72.0853  224.9596 H   0  0  0  0  0  0  0  0  0  0  0  0
  135.6568   72.3396  225.5546 H   0  0  0  0  0  0  0  0  0  0  0  0
  137.1950   71.6391  221.6449 H   0  0  0  0  0  0  0  0  0  0  0  0
  136.3970   73.0166  220.7549 H   0  0  0  0  0  0  0  0  0  0  0  0
  138.5160   73.2970  222.8890 H   0  0  0  0  0  0  0  0  0  0  0  0
  140.3183   74.5743  221.5725 H   0  0  0  0  0  0  0  0  0  0  0  0
  142.1215   76.1552  222.1392 H   0  0  0  0  0  0  0  0  0  0  0  0
  142.7224   78.4049  222.9271 H   0  0  0  0  0  0  0  0  0  0  0  0
  139.6496   81.2307  223.8729 H   0  0  0  0  0  0  0  0  0  0  0  0
  137.9251   79.5546  223.2717 H   0  0  0  0  0  0  0  0  0  0  0  0
  139.0155   69.0076  226.0092 H   0  0  0  0  0  0  0  0  0  0  0  0
  139.6537   68.9065  228.3821 H   0  0  0  0  0  0  0  0  0  0  0  0
  141.0306   70.7424  229.3634 H   0  0  0  0  0  0  0  0  0  0  0  0
  141.7275   72.6300  227.9452 H   0  0  0  0  0  0  0  0  0  0  0  0
  141.0967   72.7577  225.5401 H   0  0  0  0  0  0  0  0  0  0  0  0
  1  2  1  0
  2  3  1  0
  3  4  1  0
  4  5  2  0
  4  6  1  0
  6  7  1  0
  7  8  1  0
  8  9  1  0
  9 10  1  0
  9 11  1  0
  8 12  1  0
 12 13  1  0
 13 14  1  0
 14 15  2  0
 14 16  1  0
 16 17  1  0
 17 18  1  0
 18 19  2  0
 18 20  1  0
 20 21  2  0
 21 22  1  0
 22 23  2  0
 23 24  1  0
 24 25  2  0
 25 26  1  0
 25 27  1  0
 27 28  2  0
 28 29  1  0
 29 30  2  0
  2 31  1  0
 31 32  2  0
 32 33  1  0
 33 34  2  0
 34 35  1  0
 35 36  2  0
 13  6  1  0
 30 20  1  0
 36 31  1  0
 29 23  1  0
  1 37  1  0
  1 38  1  0
  1 39  1  0
  2 40  1  6
  3 41  1  0
  6 42  1  6
  7 43  1  0
  7 44  1  0
  8 45  1  1
 10 46  1  0
 10 47  1  0
 10 48  1  0
 11 49  1  0
 11 50  1  0
 11 51  1  0
 12 52  1  0
 12 53  1  0
 16 54  1  0
 16 55  1  0
 17 56  1  0
 21 57  1  0
 22 58  1  0
 24 59  1  0
 27 60  1  0
 28 61  1  0
 32 62  1  0
 33 63  1  0
 34 64  1  0
 35 65  1  0
 36 66  1  0
M  END
>  <smiles>  (32) 
CC(NC(=O)[C@H]1C[C@H](N(C)C)CN1C(=O)CNC(=O)c1ccc2cc(Cl)ccc2n1)c1ccccc1

>  <score_type>  (32) 
oracle

>  <origin>  (32) 
autodockgpu

>  <m_score__min__energy>  (32) 
-9.8300000000000001

>  <m_primary>  (32) 
energy

>  <rmsd>  (32) 
9.407930157853372

>  <m_score__min__rmsd>  (32) 
9.407930157853372

>  <meeko>  (32) 
{"free_energy": -9.62, "intermolecular_energy": -12.0, "internal_energy": -2.28, "cluster_size": 16, "cluster_id": 1, "rank_in_cluster": 2}

>  <energy>  (32) 
-8.69

>  <cluster_rmsd>  (32) 
1.02

>  <cluster>  (32) 
2

$$$$

     RDKit          3D

 66 69  0  0  1  0  0  0  0  0999 V2000
  140.3680   79.6780  219.3850 C   0  0  0  0  0  0  0  0  0  0  0  0
  141.4560   78.8390  219.9950 C   0  0  2  0  0  0  0  0  0  0  0  0
  141.2220   77.4140  219.8190 N   0  0  0  0  0  0  0  0  0  0  0  0
  142.3220   76.6220  219.3330 C   0  0  0  0  0  0  0  0  0  0  0  0
  143.4480   77.1550  219.0740 O   0  0  0  0  0  0  0  0  0  0  0  0
  142.1110   75.1760  219.1430 C   0  0  1  0  0  0  0  0  0  0  0  0
  143.2780   74.5300  218.4070 C   0  0  0  0  0  0  0  0  0  0  0  0
  144.1970   74.1080  219.5280 C   0  0  2  0  0  0  0  0  0  0  0  0
  145.1140   73.0730  219.1850 N   0  0  0  0  0  0  0  0  0  0  0  0
  144.5100   71.8650  218.7130 C   0  0  0  0  0  0  0  0  0  0  0  0
  145.9890   72.7880  220.2780 C   0  0  0  0  0  0  0  0  0  0  0  0
  143.3410   73.8720  220.7210 C   0  0  0  0  0  0  0  0  0  0  0  0
  142.0340   74.4650  220.4160 N   0  0  0  0  0  0  0  0  0  0  0  0
  140.8780   74.3550  221.2460 C   0  0  0  0  0  0  0  0  0  0  0  0
  140.9710   73.7280  222.3330 O   0  0  0  0  0  0  0  0  0  0  0  0
  139.6110   74.9900  220.7880 C   0  0  0  0  0  0  0  0  0  0  0  0
  139.0170   75.8400  221.7820 N   0  0  0  0  0  0  0  0  0  0  0  0
  138.4070   77.0480  221.3230 C   0  0  0  0  0  0  0  0  0  0  0  0
  138.4630   77.2310  220.0600 O   0  0  0  0  0  0  0  0  0  0  0  0
  137.7680   78.0060  222.2070 C   0  0  0  0  0  0  0  0  0  0  0  0
  136.3940   77.9470  222.3220 C   0  0  0  0  0  0  0  0  0  0  0  0
  135.6550   78.7860  223.1190 C   0  0  0  0  0  0  0  0  0  0  0  0
  136.3530   79.7510  223.8470 C   0  0  0  0  0  0  0  0  0  0  0  0
  135.6940   80.6390  224.6760 C   0  0  0  0  0  0  0  0  0  0  0  0
  136.3870   81.6010  225.4040 C   0  0  0  0  0  0  0  0  0  0  0  0
  135.4720   82.6750  226.4200 Cl  0  0  0  0  0  0  0  0  0  0  0  0
  137.7520   81.6430  225.2750 C   0  0  0  0  0  0  0  0  0  0  0  0
  138.4270   80.7540  224.4430 C   0  0  0  0  0  0  0  0  0  0  0  0
  137.7260   79.8080  223.7280 C   0  0  0  0  0  0  0  0  0  0  0  0
  138.4070   78.9390  222.9150 N   0  0  0  0  0  0  0  0  0  0  0  0
  141.7060   79.1890  221.4340 C   0  0  0  0  0  0  0  0  0  0  0  0
  141.4660   78.2690  222.4570 C   0  0  0  0  0  0  0  0  0  0  0  0
  141.6820   78.5590  223.7830 C   0  0  0  0  0  0  0  0  0  0  0  0
  142.1550   79.8100  224.1280 C   0  0  0  0  0  0  0  0  0  0  0  0
  142.3990   80.7340  223.1380 C   0  0  0  0  0  0  0  0  0  0  0  0
  142.1850   80.4550  221.7870 C   0  0  0  0  0  0  0  0  0  0  0  0
  139.7694   80.1396  220.1841 H   0  0  0  0  0  0  0  0  0  0  0  0
  140.8177   80.4654  218.7623 H   0  0  0  0  0  0  0  0  0  0  0  0
  139.7208   79.0429  218.7623 H   0  0  0  0  0  0  0  0  0  0  0  0
  142.3760   79.0803  219.4424 H   0  0  0  0  0  0  0  0  0  0  0  0
  140.2980   76.9890  220.0350 H   0  0  0  0  0  0  0  0  0  0  0  0
  141.1719   75.0989  218.5754 H   0  0  0  0  0  0  0  0  0  0  0  0
  142.9435   73.6606  217.8219 H   0  0  0  0  0  0  0  0  0  0  0  0
  143.7595   75.2039  217.6831 H   0  0  0  0  0  0  0  0  0  0  0  0
  144.9120   74.9089  219.7675 H   0  0  0  0  0  0  0  0  0  0  0  0
  144.2022   71.2494  219.5711 H   0  0  0  0  0  0  0  0  0  0  0  0
  143.6284   72.1101  218.1025 H   0  0  0  0  0  0  0  0  0  0  0  0
  145.2350   71.3067  218.1025 H   0  0  0  0  0  0  0  0  0  0  0  0
  145.4592   72.9606  221.2264 H   0  0  0  0  0  0  0  0  0  0  0  0
  146.3126   71.7380  220.2245 H   0  0  0  0  0  0  0  0  0  0  0  0
  146.8689   73.4460  220.2245 H   0  0  0  0  0  0  0  0  0  0  0  0
  143.2354   72.7929  220.9062 H   0  0  0  0  0  0  0  0  0  0  0  0
  143.7819   74.3204  221.6235 H   0  0  0  0  0  0  0  0  0  0  0  0
  139.8249   75.5934  219.8935 H   0  0  0  0  0  0  0  0  0  0  0  0
  138.8957   74.1814  220.5770 H   0  0  0  0  0  0  0  0  0  0  0  0
  139.0090   75.6250  222.8170 H   0  0  0  0  0  0  0  0  0  0  0  0
  135.8588   77.1820  221.7403 H   0  0  0  0  0  0  0  0  0  0  0  0
  134.5600   78.7013  223.1811 H   0  0  0  0  0  0  0  0  0  0  0  0
  134.5987   80.5840  224.7620 H   0  0  0  0  0  0  0  0  0  0  0  0
  138.3243   82.3936  225.8398 H   0  0  0  0  0  0  0  0  0  0  0  0
  139.5223   80.8071  224.3564 H   0  0  0  0  0  0  0  0  0  0  0  0
  141.0884   77.2708  222.1904 H   0  0  0  0  0  0  0  0  0  0  0  0
  141.4810   77.8053  224.5586 H   0  0  0  0  0  0  0  0  0  0  0  0
  142.3347   80.0649  225.1829 H   0  0  0  0  0  0  0  0  0  0  0  0
  142.7761   81.7278  223.4212 H   0  0  0  0  0  0  0  0  0  0  0  0
  142.3885   81.2139  221.0171 H   0  0  0  0  0  0  0  0  0  0  0  0
  1  2  1  0
  2  3  1  0
  3  4  1  0
  4  5  2  0
  4  6  1  0
  6  7  1  0
  7  8  1  0
  8  9  1  0
  9 10  1  0
  9 11  1  0
  8 12  1  0
 12 13  1  0
 13 14  1  0
 14 15  2  0
 14 16  1  0
 16 17  1  0
 17 18  1  0
 18 19  2  0
 18 20  1  0
 20 21  2  0
 21 22  1  0
 22 23  2  0
 23 24  1  0
 24 25  2  0
 25 26  1  0
 25 27  1  0
 27 28  2  0
 28 29  1  0
 29 30  2  0
  2 31  1  0
 31 32  2  0
 32 33  1  0
 33 34  2  0
 34 35  1  0
 35 36  2  0
 13  6  1  0
 30 20  1  0
 36 31  1  0
 29 23  1  0
  1 37  1  0
  1 38  1  0
  1 39  1  0
  2 40  1  6
  3 41  1  0
  6 42  1  6
  7 43  1  0
  7 44  1  0
  8 45  1  1
 10 46  1  0
 10 47  1  0
 10 48  1  0
 11 49  1  0
 11 50  1  0
 11 51  1  0
 12 52  1  0
 12 53  1  0
 16 54  1  0
 16 55  1  0
 17 56  1  0
 21 57  1  0
 22 58  1  0
 24 59  1  0
 27 60  1  0
 28 61  1  0
 32 62  1  0
 33 63  1  0
 34 64  1  0
 35 65  1  0
 36 66  1  0
M  END
>  <smiles>  (33) 
CC(NC(=O)[C@H]1C[C@H](N(C)C)CN1C(=O)CNC(=O)c1ccc2cc(Cl)ccc2n1)c1ccccc1

>  <score_type>  (33) 
oracle

>  <origin>  (33) 
autodockgpu

>  <m_score__min__energy>  (33) 
-9.8300000000000001

>  <m_primary>  (33) 
energy

>  <rmsd>  (33) 
6.746019943563967

>  <m_score__min__rmsd>  (33) 
6.746019943563967

>  <meeko>  (33) 
{"free_energy": -7.27, "intermolecular_energy": -9.65, "internal_energy": -3.98, "cluster_size": 2, "cluster_id": 9, "rank_in_cluster": 2}

>  <energy>  (33) 
-8.58

>  <cluster_rmsd>  (33) 
1.82

>  <cluster>  (33) 
2

$$$$

     RDKit          3D

 66 69  0  0  1  0  0  0  0  0999 V2000
  141.7030   78.6700  224.0130 C   0  0  0  0  0  0  0  0  0  0  0  0
  140.4710   78.8870  223.1780 C   0  0  2  0  0  0  0  0  0  0  0  0
  140.2810   77.8390  222.1860 N   0  0  0  0  0  0  0  0  0  0  0  0
  141.3130   77.6770  221.1950 C   0  0  0  0  0  0  0  0  0  0  0  0
  142.3450   78.4200  221.1970 O   0  0  0  0  0  0  0  0  0  0  0  0
  141.1440   76.6240  220.1780 C   0  0  1  0  0  0  0  0  0  0  0  0
  142.4650   75.9380  219.8550 C   0  0  0  0  0  0  0  0  0  0  0  0
  142.5020   74.7910  220.8350 C   0  0  2  0  0  0  0  0  0  0  0  0
  143.3590   73.7160  220.4580 N   0  0  0  0  0  0  0  0  0  0  0  0
  144.7540   74.0320  220.4510 C   0  0  0  0  0  0  0  0  0  0  0  0
  142.9710   73.1790  219.1920 C   0  0  0  0  0  0  0  0  0  0  0  0
  141.0890   74.4410  221.1410 C   0  0  0  0  0  0  0  0  0  0  0  0
  140.2700   75.5520  220.6430 N   0  0  0  0  0  0  0  0  0  0  0  0
  138.8440   75.5650  220.6240 C   0  0  0  0  0  0  0  0  0  0  0  0
  138.2500   76.6630  220.4650 O   0  0  0  0  0  0  0  0  0  0  0  0
  138.1180   74.2750  220.7910 C   0  0  0  0  0  0  0  0  0  0  0  0
  138.4320   73.6090  222.0230 N   0  0  0  0  0  0  0  0  0  0  0  0
  138.8230   72.2370  221.9400 C   0  0  0  0  0  0  0  0  0  0  0  0
  138.8470   71.7580  220.7560 O   0  0  0  0  0  0  0  0  0  0  0  0
  139.1700   71.4320  223.0970 C   0  0  0  0  0  0  0  0  0  0  0  0
  138.8410   70.0920  223.0610 C   0  0  0  0  0  0  0  0  0  0  0  0
  139.1080   69.2100  224.0800 C   0  0  0  0  0  0  0  0  0  0  0  0
  139.7500   69.7200  225.2110 C   0  0  0  0  0  0  0  0  0  0  0  0
  140.0590   68.9070  226.2850 C   0  0  0  0  0  0  0  0  0  0  0  0
  140.7010   69.4110  227.4130 C   0  0  0  0  0  0  0  0  0  0  0  0
  141.0490   68.3130  228.7150 Cl  0  0  0  0  0  0  0  0  0  0  0  0
  141.0180   70.7460  227.4270 C   0  0  0  0  0  0  0  0  0  0  0  0
  140.7120   71.5730  226.3510 C   0  0  0  0  0  0  0  0  0  0  0  0
  140.0760   71.0590  225.2420 C   0  0  0  0  0  0  0  0  0  0  0  0
  139.7830   71.8890  224.1900 N   0  0  0  0  0  0  0  0  0  0  0  0
  140.4370   80.2540  222.5570 C   0  0  0  0  0  0  0  0  0  0  0  0
  139.2920   80.7330  221.9200 C   0  0  0  0  0  0  0  0  0  0  0  0
  139.2290   81.9780  221.3390 C   0  0  0  0  0  0  0  0  0  0  0  0
  140.3420   82.7960  221.3830 C   0  0  0  0  0  0  0  0  0  0  0  0
  141.4840   82.3450  222.0060 C   0  0  0  0  0  0  0  0  0  0  0  0
  141.5630   81.0840  222.5990 C   0  0  0  0  0  0  0  0  0  0  0  0
  141.4363   78.7170  225.0791 H   0  0  0  0  0  0  0  0  0  0  0  0
  142.1311   77.6826  223.7853 H   0  0  0  0  0  0  0  0  0  0  0  0
  142.4427   79.4517  223.7853 H   0  0  0  0  0  0  0  0  0  0  0  0
  139.6177   78.8282  223.8697 H   0  0  0  0  0  0  0  0  0  0  0  0
  139.4340   77.2360  222.1950 H   0  0  0  0  0  0  0  0  0  0  0  0
  140.7233   77.1408  219.3028 H   0  0  0  0  0  0  0  0  0  0  0  0
  142.4769   75.5720  218.8177 H   0  0  0  0  0  0  0  0  0  0  0  0
  143.3330   76.6083  219.9400 H   0  0  0  0  0  0  0  0  0  0  0  0
  142.9951   75.0939  221.7705 H   0  0  0  0  0  0  0  0  0  0  0  0
  145.1165   74.1141  221.4863 H   0  0  0  0  0  0  0  0  0  0  0  0
  145.3076   73.2365  219.9307 H   0  0  0  0  0  0  0  0  0  0  0  0
  144.9107   74.9884  219.9307 H   0  0  0  0  0  0  0  0  0  0  0  0
  142.3333   72.2964  219.3480 H   0  0  0  0  0  0  0  0  0  0  0  0
  142.4125   73.9396  218.6267 H   0  0  0  0  0  0  0  0  0  0  0  0
  143.8685   72.8876  218.6267 H   0  0  0  0  0  0  0  0  0  0  0  0
  140.8103   73.5056  220.6337 H   0  0  0  0  0  0  0  0  0  0  0  0
  140.9406   74.2886  222.2202 H   0  0  0  0  0  0  0  0  0  0  0  0
  137.0368   74.4759  220.7671 H   0  0  0  0  0  0  0  0  0  0  0  0
  138.4315   73.6129  219.9704 H   0  0  0  0  0  0  0  0  0  0  0  0
  138.3900   74.0700  222.9740 H   0  0  0  0  0  0  0  0  0  0  0  0
  138.3350   69.7074  222.1632 H   0  0  0  0  0  0  0  0  0  0  0  0
  138.8284   68.1485  224.0084 H   0  0  0  0  0  0  0  0  0  0  0  0
  139.7924   67.8404  226.2479 H   0  0  0  0  0  0  0  0  0  0  0  0
  141.5241   71.1707  228.3065 H   0  0  0  0  0  0  0  0  0  0  0  0
  140.9784   72.6397  226.3856 H   0  0  0  0  0  0  0  0  0  0  0  0
  138.4020   80.0877  221.8808 H   0  0  0  0  0  0  0  0  0  0  0  0
  138.3060   82.3177  220.8464 H   0  0  0  0  0  0  0  0  0  0  0  0
  140.3158   83.7960  220.9255 H   0  0  0  0  0  0  0  0  0  0  0  0
  142.3657   83.0020  222.0375 H   0  0  0  0  0  0  0  0  0  0  0  0
  142.4897   80.7500  223.0885 H   0  0  0  0  0  0  0  0  0  0  0  0
  1  2  1  0
  2  3  1  0
  3  4  1  0
  4  5  2  0
  4  6  1  0
  6  7  1  0
  7  8  1  0
  8  9  1  0
  9 10  1  0
  9 11  1  0
  8 12  1  0
 12 13  1  0
 13 14  1  0
 14 15  2  0
 14 16  1  0
 16 17  1  0
 17 18  1  0
 18 19  2  0
 18 20  1  0
 20 21  2  0
 21 22  1  0
 22 23  2  0
 23 24  1  0
 24 25  2  0
 25 26  1  0
 25 27  1  0
 27 28  2  0
 28 29  1  0
 29 30  2  0
  2 31  1  0
 31 32  2  0
 32 33  1  0
 33 34  2  0
 34 35  1  0
 35 36  2  0
 13  6  1  0
 30 20  1  0
 36 31  1  0
 29 23  1  0
  1 37  1  0
  1 38  1  0
  1 39  1  0
  2 40  1  1
  3 41  1  0
  6 42  1  6
  7 43  1  0
  7 44  1  0
  8 45  1  1
 10 46  1  0
 10 47  1  0
 10 48  1  0
 11 49  1  0
 11 50  1  0
 11 51  1  0
 12 52  1  0
 12 53  1  0
 16 54  1  0
 16 55  1  0
 17 56  1  0
 21 57  1  0
 22 58  1  0
 24 59  1  0
 27 60  1  0
 28 61  1  0
 32 62  1  0
 33 63  1  0
 34 64  1  0
 35 65  1  0
 36 66  1  0
M  END
>  <smiles>  (34) 
CC(NC(=O)[C@H]1C[C@H](N(C)C)CN1C(=O)CNC(=O)c1ccc2cc(Cl)ccc2n1)c1ccccc1

>  <score_type>  (34) 
oracle

>  <origin>  (34) 
autodockgpu

>  <m_score__min__energy>  (34) 
-9.8300000000000001

>  <m_primary>  (34) 
energy

>  <rmsd>  (34) 
2.2083139488749333

>  <m_score__min__rmsd>  (34) 
2.2083139488749333

>  <meeko>  (34) 
{"free_energy": -8.39, "intermolecular_energy": -10.77, "internal_energy": -2.8, "cluster_size": 20, "cluster_id": 2, "rank_in_cluster": 20}

>  <energy>  (34) 
-8.51

>  <cluster_rmsd>  (34) 
1.76

>  <cluster>  (34) 
2

$$$$

     RDKit          3D

 66 69  0  0  1  0  0  0  0  0999 V2000
  143.3530   76.2680  218.4330 C   0  0  0  0  0  0  0  0  0  0  0  0
  142.9390   75.1170  219.3070 C   0  0  2  0  0  0  0  0  0  0  0  0
  142.1840   75.5500  220.4730 N   0  0  0  0  0  0  0  0  0  0  0  0
  140.7950   75.1740  220.5340 C   0  0  0  0  0  0  0  0  0  0  0  0
  140.2610   74.4900  219.6040 O   0  0  0  0  0  0  0  0  0  0  0  0
  140.0070   75.6010  221.7030 C   0  0  1  0  0  0  0  0  0  0  0  0
  140.7600   76.6220  222.5460 C   0  0  0  0  0  0  0  0  0  0  0  0
  140.3310   77.9400  221.9500 C   0  0  2  0  0  0  0  0  0  0  0  0
  140.4860   79.0610  222.8160 N   0  0  0  0  0  0  0  0  0  0  0  0
  141.5510   78.9480  223.7640 C   0  0  0  0  0  0  0  0  0  0  0  0
  139.2600   79.3550  223.4890 C   0  0  0  0  0  0  0  0  0  0  0  0
  138.9790   77.7290  221.3680 C   0  0  0  0  0  0  0  0  0  0  0  0
  138.7740   76.2770  221.3110 N   0  0  0  0  0  0  0  0  0  0  0  0
  137.5540   75.6430  220.9310 C   0  0  0  0  0  0  0  0  0  0  0  0
  136.5560   76.3610  220.6630 O   0  0  0  0  0  0  0  0  0  0  0  0
  137.5160   74.1560  220.8650 C   0  0  0  0  0  0  0  0  0  0  0  0
  137.9430   73.5280  222.0840 N   0  0  0  0  0  0  0  0  0  0  0  0
  138.2290   72.1290  222.0290 C   0  0  0  0  0  0  0  0  0  0  0  0
  138.0680   71.5930  220.8810 O   0  0  0  0  0  0  0  0  0  0  0  0
  138.6700   71.3570  223.1770 C   0  0  0  0  0  0  0  0  0  0  0  0
  138.2220   70.0560  223.2790 C   0  0  0  0  0  0  0  0  0  0  0  0
  138.5570   69.2080  224.3060 C   0  0  0  0  0  0  0  0  0  0  0  0
  139.4010   69.7130  225.2980 C   0  0  0  0  0  0  0  0  0  0  0  0
  139.7920   68.9330  226.3700 C   0  0  0  0  0  0  0  0  0  0  0  0
  140.6340   69.4310  227.3590 C   0  0  0  0  0  0  0  0  0  0  0  0
  141.0710   68.3770  228.6700 Cl  0  0  0  0  0  0  0  0  0  0  0  0
  141.0670   70.7280  227.2380 C   0  0  0  0  0  0  0  0  0  0  0  0
  140.6810   71.5220  226.1630 C   0  0  0  0  0  0  0  0  0  0  0  0
  139.8450   71.0140  225.1930 C   0  0  0  0  0  0  0  0  0  0  0  0
  139.4750   71.8100  224.1400 N   0  0  0  0  0  0  0  0  0  0  0  0
  144.1010   74.2450  219.6880 C   0  0  0  0  0  0  0  0  0  0  0  0
  144.8740   74.5180  220.8170 C   0  0  0  0  0  0  0  0  0  0  0  0
  145.9450   73.7420  221.1910 C   0  0  0  0  0  0  0  0  0  0  0  0
  146.2770   72.6420  220.4230 C   0  0  0  0  0  0  0  0  0  0  0  0
  145.5300   72.3520  219.3040 C   0  0  0  0  0  0  0  0  0  0  0  0
  144.4400   73.1310  218.9110 C   0  0  0  0  0  0  0  0  0  0  0  0
  143.6580   77.1161  219.0637 H   0  0  0  0  0  0  0  0  0  0  0  0
  144.1971   75.9611  217.7979 H   0  0  0  0  0  0  0  0  0  0  0  0
  142.5068   76.5690  217.7979 H   0  0  0  0  0  0  0  0  0  0  0  0
  142.2603   74.4992  218.7006 H   0  0  0  0  0  0  0  0  0  0  0  0
  142.6310   76.1080  221.2280 H   0  0  0  0  0  0  0  0  0  0  0  0
  139.8043   74.6752  222.2613 H   0  0  0  0  0  0  0  0  0  0  0  0
  140.4676   76.5532  223.6042 H   0  0  0  0  0  0  0  0  0  0  0  0
  141.8501   76.4752  222.5319 H   0  0  0  0  0  0  0  0  0  0  0  0
  141.0132   78.2424  221.1419 H   0  0  0  0  0  0  0  0  0  0  0  0
  141.1405   78.9916  224.7836 H   0  0  0  0  0  0  0  0  0  0  0  0
  142.0710   77.9896  223.6188 H   0  0  0  0  0  0  0  0  0  0  0  0
  142.2606   79.7759  223.6188 H   0  0  0  0  0  0  0  0  0  0  0  0
  139.4204   79.3165  224.5766 H   0  0  0  0  0  0  0  0  0  0  0  0
  138.9174   80.3608  223.2042 H   0  0  0  0  0  0  0  0  0  0  0  0
  138.4985   78.6140  223.2042 H   0  0  0  0  0  0  0  0  0  0  0  0
  138.2136   78.1965  222.0048 H   0  0  0  0  0  0  0  0  0  0  0  0
  138.9000   78.1822  220.3688 H   0  0  0  0  0  0  0  0  0  0  0  0
  136.4839   73.8411  220.6516 H   0  0  0  0  0  0  0  0  0  0  0  0
  138.2131   73.8444  220.0732 H   0  0  0  0  0  0  0  0  0  0  0  0
  138.0550   74.0360  223.0050 H   0  0  0  0  0  0  0  0  0  0  0  0
  137.5565   69.6751  222.4903 H   0  0  0  0  0  0  0  0  0  0  0  0
  138.1774   68.1763  224.3457 H   0  0  0  0  0  0  0  0  0  0  0  0
  139.4298   67.8969  226.4426 H   0  0  0  0  0  0  0  0  0  0  0  0
  141.7326   71.1479  228.0066 H   0  0  0  0  0  0  0  0  0  0  0  0
  141.0440   72.5576  226.0873 H   0  0  0  0  0  0  0  0  0  0  0  0
  144.6153   75.3912  221.4339 H   0  0  0  0  0  0  0  0  0  0  0  0
  146.5294   73.9928  222.0885 H   0  0  0  0  0  0  0  0  0  0  0  0
  147.1290   72.0051  220.7031 H   0  0  0  0  0  0  0  0  0  0  0  0
  145.8014   71.4752  218.6977 H   0  0  0  0  0  0  0  0  0  0  0  0
  143.8609   72.8752  218.0114 H   0  0  0  0  0  0  0  0  0  0  0  0
  1  2  1  0
  2  3  1  0
  3  4  1  0
  4  5  2  0
  4  6  1  0
  6  7  1  0
  7  8  1  0
  8  9  1  0
  9 10  1  0
  9 11  1  0
  8 12  1  0
 12 13  1  0
 13 14  1  0
 14 15  2  0
 14 16  1  0
 16 17  1  0
 17 18  1  0
 18 19  2  0
 18 20  1  0
 20 21  2  0
 21 22  1  0
 22 23  2  0
 23 24  1  0
 24 25  2  0
 25 26  1  0
 25 27  1  0
 27 28  2  0
 28 29  1  0
 29 30  2  0
  2 31  1  0
 31 32  2  0
 32 33  1  0
 33 34  2  0
 34 35  1  0
 35 36  2  0
 13  6  1  0
 30 20  1  0
 36 31  1  0
 29 23  1  0
  1 37  1  0
  1 38  1  0
  1 39  1  0
  2 40  1  6
  3 41  1  0
  6 42  1  1
  7 43  1  0
  7 44  1  0
  8 45  1  6
 10 46  1  0
 10 47  1  0
 10 48  1  0
 11 49  1  0
 11 50  1  0
 11 51  1  0
 12 52  1  0
 12 53  1  0
 16 54  1  0
 16 55  1  0
 17 56  1  0
 21 57  1  0
 22 58  1  0
 24 59  1  0
 27 60  1  0
 28 61  1  0
 32 62  1  0
 33 63  1  0
 34 64  1  0
 35 65  1  0
 36 66  1  0
M  END
>  <smiles>  (35) 
CC(NC(=O)[C@H]1C[C@H](N(C)C)CN1C(=O)CNC(=O)c1ccc2cc(Cl)ccc2n1)c1ccccc1

>  <score_type>  (35) 
oracle

>  <origin>  (35) 
autodockgpu

>  <m_score__min__energy>  (35) 
-9.8300000000000001

>  <m_primary>  (35) 
energy

>  <rmsd>  (35) 
5.272934335141351

>  <m_score__min__rmsd>  (35) 
5.272934335141351

>  <meeko>  (35) 
{"free_energy": -9.24, "intermolecular_energy": -11.62, "internal_energy": -2.07, "cluster_size": 4, "cluster_id": 3, "rank_in_cluster": 2}

>  <energy>  (35) 
-8.46

>  <cluster_rmsd>  (35) 
1.85

>  <cluster>  (35) 
2

$$$$

     RDKit          3D

 66 69  0  0  1  0  0  0  0  0999 V2000
  140.9810   80.4620  218.9980 C   0  0  0  0  0  0  0  0  0  0  0  0
  141.7840   79.5010  219.8290 C   0  0  2  0  0  0  0  0  0  0  0  0
  141.3080   78.1320  219.7120 N   0  0  0  0  0  0  0  0  0  0  0  0
  142.1760   77.1870  219.0590 C   0  0  0  0  0  0  0  0  0  0  0  0
  143.3110   77.5430  218.6100 O   0  0  0  0  0  0  0  0  0  0  0  0
  141.7160   75.7930  218.9250 C   0  0  1  0  0  0  0  0  0  0  0  0
  142.8780   74.8390  218.6790 C   0  0  0  0  0  0  0  0  0  0  0  0
  143.2810   74.4260  220.0730 C   0  0  2  0  0  0  0  0  0  0  0  0
  144.0020   73.1980  220.1430 N   0  0  0  0  0  0  0  0  0  0  0  0
  143.2750   72.1030  220.7060 C   0  0  0  0  0  0  0  0  0  0  0  0
  145.2380   73.3760  220.8360 C   0  0  0  0  0  0  0  0  0  0  0  0
  142.0650   74.5330  220.9220 C   0  0  0  0  0  0  0  0  0  0  0  0
  141.0860   75.3070  220.1490 N   0  0  0  0  0  0  0  0  0  0  0  0
  139.7360   75.5380  220.5460 C   0  0  0  0  0  0  0  0  0  0  0  0
  139.3610   76.7200  220.7580 O   0  0  0  0  0  0  0  0  0  0  0  0
  138.8260   74.3670  220.6910 C   0  0  0  0  0  0  0  0  0  0  0  0
  139.0060   73.6660  221.9310 N   0  0  0  0  0  0  0  0  0  0  0  0
  139.4270   72.3030  221.8530 C   0  0  0  0  0  0  0  0  0  0  0  0
  139.5980   71.8620  220.6660 O   0  0  0  0  0  0  0  0  0  0  0  0
  139.6500   71.4660  223.0180 C   0  0  0  0  0  0  0  0  0  0  0  0
  139.2940   70.1360  222.9230 C   0  0  0  0  0  0  0  0  0  0  0  0
  139.4480   69.2270  223.9420 C   0  0  0  0  0  0  0  0  0  0  0  0
  139.9970   69.6970  225.1360 C   0  0  0  0  0  0  0  0  0  0  0  0
  140.1890   68.8560  226.2160 C   0  0  0  0  0  0  0  0  0  0  0  0
  140.7390   69.3200  227.4070 C   0  0  0  0  0  0  0  0  0  0  0  0
  140.9420   68.1880  228.7110 Cl  0  0  0  0  0  0  0  0  0  0  0  0
  141.0850   70.6460  227.4790 C   0  0  0  0  0  0  0  0  0  0  0  0
  140.8960   71.5020  226.3990 C   0  0  0  0  0  0  0  0  0  0  0  0
  140.3500   71.0270  225.2270 C   0  0  0  0  0  0  0  0  0  0  0  0
  140.1730   71.8850  224.1720 N   0  0  0  0  0  0  0  0  0  0  0  0
  141.8840   79.9350  221.2640 C   0  0  0  0  0  0  0  0  0  0  0  0
  141.7240   81.2730  221.6300 C   0  0  0  0  0  0  0  0  0  0  0  0
  141.8120   81.7040  222.9320 C   0  0  0  0  0  0  0  0  0  0  0  0
  142.0700   80.7810  223.9280 C   0  0  0  0  0  0  0  0  0  0  0  0
  142.2320   79.4560  223.5920 C   0  0  0  0  0  0  0  0  0  0  0  0
  142.1460   79.0040  222.2750 C   0  0  0  0  0  0  0  0  0  0  0  0
  140.4174   81.1365  219.6594 H   0  0  0  0  0  0  0  0  0  0  0  0
  141.6581   81.0523  218.3632 H   0  0  0  0  0  0  0  0  0  0  0  0
  140.2797   79.9005  218.3632 H   0  0  0  0  0  0  0  0  0  0  0  0
  142.8036   79.5180  219.4165 H   0  0  0  0  0  0  0  0  0  0  0  0
  140.3780   77.8510  220.0850 H   0  0  0  0  0  0  0  0  0  0  0  0
  141.0097   75.8077  218.0819 H   0  0  0  0  0  0  0  0  0  0  0  0
  142.5568   73.9695  218.0867 H   0  0  0  0  0  0  0  0  0  0  0  0
  143.6999   75.2960  218.1083 H   0  0  0  0  0  0  0  0  0  0  0  0
  144.0460   75.1070  220.4743 H   0  0  0  0  0  0  0  0  0  0  0  0
  143.3144   72.1624  221.8037 H   0  0  0  0  0  0  0  0  0  0  0  0
  142.2274   72.1489  220.3737 H   0  0  0  0  0  0  0  0  0  0  0  0
  143.7239   71.1553  220.3737 H   0  0  0  0  0  0  0  0  0  0  0  0
  145.0572   73.3500  221.9207 H   0  0  0  0  0  0  0  0  0  0  0  0
  145.9324   72.5686  220.5605 H   0  0  0  0  0  0  0  0  0  0  0  0
  145.6764   74.3465  220.5605 H   0  0  0  0  0  0  0  0  0  0  0  0
  141.6676   73.5318  221.1451 H   0  0  0  0  0  0  0  0  0  0  0  0
  142.2906   75.0209  221.8817 H   0  0  0  0  0  0  0  0  0  0  0  0
  137.7864   74.7223  220.6371 H   0  0  0  0  0  0  0  0  0  0  0  0
  139.0628   73.6641  219.8786 H   0  0  0  0  0  0  0  0  0  0  0  0
  138.8440   74.0950  222.8840 H   0  0  0  0  0  0  0  0  0  0  0  0
  138.8613   69.7826  221.9754 H   0  0  0  0  0  0  0  0  0  0  0  0
  139.1514   68.1746  223.8219 H   0  0  0  0  0  0  0  0  0  0  0  0
  139.9010   67.7977  226.1322 H   0  0  0  0  0  0  0  0  0  0  0  0
  141.5205   71.0398  228.4092 H   0  0  0  0  0  0  0  0  0  0  0  0
  141.1832   72.5607  226.4811 H   0  0  0  0  0  0  0  0  0  0  0  0
  141.5188   82.0134  220.8428 H   0  0  0  0  0  0  0  0  0  0  0  0
  141.6791   82.7679  223.1779 H   0  0  0  0  0  0  0  0  0  0  0  0
  142.1451   81.1017  224.9775 H   0  0  0  0  0  0  0  0  0  0  0  0
  142.4366   78.7276  224.3904 H   0  0  0  0  0  0  0  0  0  0  0  0
  142.2812   77.9387  222.0366 H   0  0  0  0  0  0  0  0  0  0  0  0
  1  2  1  0
  2  3  1  0
  3  4  1  0
  4  5  2  0
  4  6  1  0
  6  7  1  0
  7  8  1  0
  8  9  1  0
  9 10  1  0
  9 11  1  0
  8 12  1  0
 12 13  1  0
 13 14  1  0
 14 15  2  0
 14 16  1  0
 16 17  1  0
 17 18  1  0
 18 19  2  0
 18 20  1  0
 20 21  2  0
 21 22  1  0
 22 23  2  0
 23 24  1  0
 24 25  2  0
 25 26  1  0
 25 27  1  0
 27 28  2  0
 28 29  1  0
 29 30  2  0
  2 31  1  0
 31 32  2  0
 32 33  1  0
 33 34  2  0
 34 35  1  0
 35 36  2  0
 13  6  1  0
 30 20  1  0
 36 31  1  0
 29 23  1  0
  1 37  1  0
  1 38  1  0
  1 39  1  0
  2 40  1  6
  3 41  1  0
  6 42  1  6
  7 43  1  0
  7 44  1  0
  8 45  1  1
 10 46  1  0
 10 47  1  0
 10 48  1  0
 11 49  1  0
 11 50  1  0
 11 51  1  0
 12 52  1  0
 12 53  1  0
 16 54  1  0
 16 55  1  0
 17 56  1  0
 21 57  1  0
 22 58  1  0
 24 59  1  0
 27 60  1  0
 28 61  1  0
 32 62  1  0
 33 63  1  0
 34 64  1  0
 35 65  1  0
 36 66  1  0
M  END
>  <smiles>  (36) 
CC(NC(=O)[C@H]1C[C@H](N(C)C)CN1C(=O)CNC(=O)c1ccc2cc(Cl)ccc2n1)c1ccccc1

>  <score_type>  (36) 
oracle

>  <origin>  (36) 
autodockgpu

>  <m_score__min__energy>  (36) 
-9.8300000000000001

>  <m_primary>  (36) 
energy

>  <rmsd>  (36) 
2.9673417424484656

>  <m_score__min__rmsd>  (36) 
2.9673417424484656

>  <meeko>  (36) 
{"free_energy": -9.39, "intermolecular_energy": -11.78, "internal_energy": -3.02, "cluster_size": 20, "cluster_id": 2, "rank_in_cluster": 4}

>  <energy>  (36) 
-8.39

>  <cluster_rmsd>  (36) 
1.95

>  <cluster>  (36) 
2

$$$$

     RDKit          3D

 66 69  0  0  1  0  0  0  0  0999 V2000
  140.4030   72.1350  223.2650 C   0  0  0  0  0  0  0  0  0  0  0  0
  139.6570   71.0230  223.9480 C   0  0  2  0  0  0  0  0  0  0  0  0
  138.2170   71.1260  223.7670 N   0  0  0  0  0  0  0  0  0  0  0  0
  137.5910   70.1510  222.9120 C   0  0  0  0  0  0  0  0  0  0  0  0
  138.2750   69.2400  222.3470 O   0  0  0  0  0  0  0  0  0  0  0  0
  136.1330   70.2340  222.7090 C   0  0  1  0  0  0  0  0  0  0  0  0
  135.4700   68.8680  222.8320 C   0  0  0  0  0  0  0  0  0  0  0  0
  135.1220   68.7890  224.2990 C   0  0  2  0  0  0  0  0  0  0  0  0
  134.0850   67.8630  224.6120 N   0  0  0  0  0  0  0  0  0  0  0  0
  132.8350   68.1140  223.9630 C   0  0  0  0  0  0  0  0  0  0  0  0
  133.8940   67.7750  226.0260 C   0  0  0  0  0  0  0  0  0  0  0  0
  134.9320   70.1870  224.7720 C   0  0  0  0  0  0  0  0  0  0  0  0
  135.4870   71.0560  223.7280 N   0  0  0  0  0  0  0  0  0  0  0  0
  135.4000   72.4800  223.7260 C   0  0  0  0  0  0  0  0  0  0  0  0
  135.0180   73.0650  224.7720 O   0  0  0  0  0  0  0  0  0  0  0  0
  135.7700   73.2130  222.4830 C   0  0  0  0  0  0  0  0  0  0  0  0
  136.6100   74.3510  222.7300 N   0  0  0  0  0  0  0  0  0  0  0  0
  137.8160   74.4470  221.9710 C   0  0  0  0  0  0  0  0  0  0  0  0
  138.0070   73.4900  221.1460 O   0  0  0  0  0  0  0  0  0  0  0  0
  138.7640   75.5370  222.1090 C   0  0  0  0  0  0  0  0  0  0  0  0
  140.0560   75.3150  221.6780 C   0  0  0  0  0  0  0  0  0  0  0  0
  141.0580   76.2520  221.7440 C   0  0  0  0  0  0  0  0  0  0  0  0
  140.7300   77.4970  222.2860 C   0  0  0  0  0  0  0  0  0  0  0  0
  141.6730   78.5020  222.3920 C   0  0  0  0  0  0  0  0  0  0  0  0
  141.3500   79.7440  222.9290 C   0  0  0  0  0  0  0  0  0  0  0  0
  142.6020   80.9470  223.0240 Cl  0  0  0  0  0  0  0  0  0  0  0  0
  140.0600   79.9430  223.3530 C   0  0  0  0  0  0  0  0  0  0  0  0
  139.1020   78.9390  223.2500 C   0  0  0  0  0  0  0  0  0  0  0  0
  139.4380   77.7140  222.7160 C   0  0  0  0  0  0  0  0  0  0  0  0
  138.4820   76.7360  222.6220 N   0  0  0  0  0  0  0  0  0  0  0  0
  140.0280   70.8960  225.3990 C   0  0  0  0  0  0  0  0  0  0  0  0
  139.5820   69.8210  226.1700 C   0  0  0  0  0  0  0  0  0  0  0  0
  139.9000   69.6770  227.5000 C   0  0  0  0  0  0  0  0  0  0  0  0
  140.6940   70.6310  228.1060 C   0  0  0  0  0  0  0  0  0  0  0  0
  141.1450   71.7010  227.3670 C   0  0  0  0  0  0  0  0  0  0  0  0
  140.8310   71.8610  226.0160 C   0  0  0  0  0  0  0  0  0  0  0  0
  140.8475   72.7976  224.0223 H   0  0  0  0  0  0  0  0  0  0  0  0
  141.1996   71.7102  222.6365 H   0  0  0  0  0  0  0  0  0  0  0  0
  139.7079   72.7110  222.6365 H   0  0  0  0  0  0  0  0  0  0  0  0
  139.9729   70.0930  223.4528 H   0  0  0  0  0  0  0  0  0  0  0  0
  137.6670   71.8750  224.2350 H   0  0  0  0  0  0  0  0  0  0  0  0
  136.0110   70.6620  221.7031 H   0  0  0  0  0  0  0  0  0  0  0  0
  134.5662   68.8098  222.2078 H   0  0  0  0  0  0  0  0  0  0  0  0
  136.1137   68.0423  222.4946 H   0  0  0  0  0  0  0  0  0  0  0  0
  135.9459   68.3380  224.8715 H   0  0  0  0  0  0  0  0  0  0  0  0
  132.0534   68.2710  224.7209 H   0  0  0  0  0  0  0  0  0  0  0  0
  132.9221   69.0126  223.3345 H   0  0  0  0  0  0  0  0  0  0  0  0
  132.5684   67.2515  223.3345 H   0  0  0  0  0  0  0  0  0  0  0  0
  134.7767   68.1817  226.5412 H   0  0  0  0  0  0  0  0  0  0  0  0
  133.0034   68.3536  226.3124 H   0  0  0  0  0  0  0  0  0  0  0  0
  133.7550   66.7221  226.3124 H   0  0  0  0  0  0  0  0  0  0  0  0
  133.8619   70.3985  224.9141 H   0  0  0  0  0  0  0  0  0  0  0  0
  135.4327   70.3532  225.7373 H   0  0  0  0  0  0  0  0  0  0  0  0
  136.3043   72.5217  221.8147 H   0  0  0  0  0  0  0  0  0  0  0  0
  134.8384   73.5844  222.0312 H   0  0  0  0  0  0  0  0  0  0  0  0
  136.3880   75.1100  223.4330 H   0  0  0  0  0  0  0  0  0  0  0  0
  140.2979   74.3283  221.2562 H   0  0  0  0  0  0  0  0  0  0  0  0
  142.0744   76.0317  221.3857 H   0  0  0  0  0  0  0  0  0  0  0  0
  142.7000   78.3159  222.0446 H   0  0  0  0  0  0  0  0  0  0  0  0
  139.7777   80.9154  223.7828 H   0  0  0  0  0  0  0  0  0  0  0  0
  138.0742   79.1237  223.5956 H   0  0  0  0  0  0  0  0  0  0  0  0
  138.9498   69.0572  225.6936 H   0  0  0  0  0  0  0  0  0  0  0  0
  139.5276   68.8149  228.0728 H   0  0  0  0  0  0  0  0  0  0  0  0
  140.9632   70.5366  229.1684 H   0  0  0  0  0  0  0  0  0  0  0  0
  141.7752   72.4570  227.8582 H   0  0  0  0  0  0  0  0  0  0  0  0
  141.2065   72.7261  225.4498 H   0  0  0  0  0  0  0  0  0  0  0  0
  1  2  1  0
  2  3  1  0
  3  4  1  0
  4  5  2  0
  4  6  1  0
  6  7  1  0
  7  8  1  0
  8  9  1  0
  9 10  1  0
  9 11  1  0
  8 12  1  0
 12 13  1  0
 13 14  1  0
 14 15  2  0
 14 16  1  0
 16 17  1  0
 17 18  1  0
 18 19  2  0
 18 20  1  0
 20 21  2  0
 21 22  1  0
 22 23  2  0
 23 24  1  0
 24 25  2  0
 25 26  1  0
 25 27  1  0
 27 28  2  0
 28 29  1  0
 29 30  2  0
  2 31  1  0
 31 32  2  0
 32 33  1  0
 33 34  2  0
 34 35  1  0
 35 36  2  0
 13  6  1  0
 30 20  1  0
 36 31  1  0
 29 23  1  0
  1 37  1  0
  1 38  1  0
  1 39  1  0
  2 40  1  6
  3 41  1  0
  6 42  1  6
  7 43  1  0
  7 44  1  0
  8 45  1  1
 10 46  1  0
 10 47  1  0
 10 48  1  0
 11 49  1  0
 11 50  1  0
 11 51  1  0
 12 52  1  0
 12 53  1  0
 16 54  1  0
 16 55  1  0
 17 56  1  0
 21 57  1  0
 22 58  1  0
 24 59  1  0
 27 60  1  0
 28 61  1  0
 32 62  1  0
 33 63  1  0
 34 64  1  0
 35 65  1  0
 36 66  1  0
M  END
>  <smiles>  (37) 
CC(NC(=O)[C@H]1C[C@H](N(C)C)CN1C(=O)CNC(=O)c1ccc2cc(Cl)ccc2n1)c1ccccc1

>  <score_type>  (37) 
oracle

>  <origin>  (37) 
autodockgpu

>  <m_score__min__energy>  (37) 
-9.8300000000000001

>  <m_primary>  (37) 
energy

>  <rmsd>  (37) 
9.311063673789551

>  <m_score__min__rmsd>  (37) 
9.311063673789551

>  <meeko>  (37) 
{"free_energy": -8.73, "intermolecular_energy": -11.11, "internal_energy": -2.78, "cluster_size": 16, "cluster_id": 1, "rank_in_cluster": 12}

>  <energy>  (37) 
-9.44

>  <cluster_rmsd>  (37) 
0.0

>  <cluster>  (37) 
3

$$$$

     RDKit          3D

 66 69  0  0  1  0  0  0  0  0999 V2000
  138.8130   68.4800  223.7940 C   0  0  0  0  0  0  0  0  0  0  0  0
  138.1730   69.2750  224.8980 C   0  0  2  0  0  0  0  0  0  0  0  0
  137.2010   70.2350  224.3990 N   0  0  0  0  0  0  0  0  0  0  0  0
  135.8090   69.9260  224.5970 C   0  0  0  0  0  0  0  0  0  0  0  0
  135.4540   68.8560  225.1870 O   0  0  0  0  0  0  0  0  0  0  0  0
  134.8030   70.8810  224.1000 C   0  0  1  0  0  0  0  0  0  0  0  0
  133.8390   71.3060  225.2000 C   0  0  0  0  0  0  0  0  0  0  0  0
  134.5060   72.5260  225.7850 C   0  0  2  0  0  0  0  0  0  0  0  0
  133.6280   73.4020  226.4880 N   0  0  0  0  0  0  0  0  0  0  0  0
  132.3300   72.8660  226.7560 C   0  0  0  0  0  0  0  0  0  0  0  0
  133.5110   74.6540  225.8090 C   0  0  0  0  0  0  0  0  0  0  0  0
  135.3240   73.1320  224.7010 C   0  0  0  0  0  0  0  0  0  0  0  0
  135.4140   72.1240  223.6380 N   0  0  0  0  0  0  0  0  0  0  0  0
  136.0090   72.3420  222.3600 C   0  0  0  0  0  0  0  0  0  0  0  0
  136.8070   71.4800  221.9090 O   0  0  0  0  0  0  0  0  0  0  0  0
  135.6570   73.5810  221.6130 C   0  0  0  0  0  0  0  0  0  0  0  0
  136.4300   74.7210  222.0180 N   0  0  0  0  0  0  0  0  0  0  0  0
  137.8270   74.6990  221.7210 C   0  0  0  0  0  0  0  0  0  0  0  0
  138.2300   73.6470  221.1180 O   0  0  0  0  0  0  0  0  0  0  0  0
  138.7360   75.7760  222.0680 C   0  0  0  0  0  0  0  0  0  0  0  0
  140.0860   75.5530  221.8860 C   0  0  0  0  0  0  0  0  0  0  0  0
  141.0600   76.4780  222.1690 C   0  0  0  0  0  0  0  0  0  0  0  0
  140.6400   77.7120  222.6700 C   0  0  0  0  0  0  0  0  0  0  0  0
  141.5500   78.7050  222.9820 C   0  0  0  0  0  0  0  0  0  0  0  0
  141.1350   79.9360  223.4800 C   0  0  0  0  0  0  0  0  0  0  0  0
  142.3510   81.1240  223.8450 Cl  0  0  0  0  0  0  0  0  0  0  0  0
  139.7880   80.1370  223.6530 C   0  0  0  0  0  0  0  0  0  0  0  0
  138.8640   79.1450  223.3420 C   0  0  0  0  0  0  0  0  0  0  0  0
  139.2910   77.9300  222.8510 C   0  0  0  0  0  0  0  0  0  0  0  0
  138.3660   76.9640  222.5480 N   0  0  0  0  0  0  0  0  0  0  0  0
  139.1890   69.9240  225.7940 C   0  0  0  0  0  0  0  0  0  0  0  0
  139.3950   69.4770  227.1000 C   0  0  0  0  0  0  0  0  0  0  0  0
  140.3140   70.0510  227.9470 C   0  0  0  0  0  0  0  0  0  0  0  0
  141.0690   71.1160  227.4950 C   0  0  0  0  0  0  0  0  0  0  0  0
  140.8830   71.5750  226.2110 C   0  0  0  0  0  0  0  0  0  0  0  0
  139.9540   71.0030  225.3390 C   0  0  0  0  0  0  0  0  0  0  0  0
  139.4466   67.6929  224.2288 H   0  0  0  0  0  0  0  0  0  0  0  0
  138.0307   68.0195  223.1728 H   0  0  0  0  0  0  0  0  0  0  0  0
  139.4299   69.1459  223.1728 H   0  0  0  0  0  0  0  0  0  0  0  0
  137.6171   68.5531  225.5143 H   0  0  0  0  0  0  0  0  0  0  0  0
  137.5030   71.1070  223.9190 H   0  0  0  0  0  0  0  0  0  0  0  0
  134.2889   70.3516  223.2843 H   0  0  0  0  0  0  0  0  0  0  0  0
  132.8515   71.5563  224.7850 H   0  0  0  0  0  0  0  0  0  0  0  0
  133.6539   70.5158  225.9426 H   0  0  0  0  0  0  0  0  0  0  0  0
  135.1775   72.2441  226.6094 H   0  0  0  0  0  0  0  0  0  0  0  0
  132.1768   72.8027  227.8434 H   0  0  0  0  0  0  0  0  0  0  0  0
  131.5645   73.5216  226.3154 H   0  0  0  0  0  0  0  0  0  0  0  0
  132.2501   71.8613  226.3154 H   0  0  0  0  0  0  0  0  0  0  0  0
  133.4351   75.4659  226.5473 H   0  0  0  0  0  0  0  0  0  0  0  0
  134.3982   74.8135  225.1785 H   0  0  0  0  0  0  0  0  0  0  0  0
  132.6097   74.6464  225.1785 H   0  0  0  0  0  0  0  0  0  0  0  0
  134.8381   74.0430  224.3215 H   0  0  0  0  0  0  0  0  0  0  0  0
  136.3217   73.4174  225.0659 H   0  0  0  0  0  0  0  0  0  0  0  0
  135.8288   73.4043  220.5410 H   0  0  0  0  0  0  0  0  0  0  0  0
  134.6022   73.8061  221.8292 H   0  0  0  0  0  0  0  0  0  0  0  0
  136.0280   75.5620  222.5170 H   0  0  0  0  0  0  0  0  0  0  0  0
  140.4001   74.5758  221.4906 H   0  0  0  0  0  0  0  0  0  0  0  0
  142.1254   76.2567  222.0081 H   0  0  0  0  0  0  0  0  0  0  0  0
  142.6238   78.5180  222.8335 H   0  0  0  0  0  0  0  0  0  0  0  0
  139.4326   81.1013  224.0452 H   0  0  0  0  0  0  0  0  0  0  0  0
  137.7897   79.3306  223.4883 H   0  0  0  0  0  0  0  0  0  0  0  0
  138.7971   68.6299  227.4674 H   0  0  0  0  0  0  0  0  0  0  0  0
  140.4460   69.6677  228.9696 H   0  0  0  0  0  0  0  0  0  0  0  0
  141.8104   71.5917  228.1539 H   0  0  0  0  0  0  0  0  0  0  0  0
  141.4881   72.4233  225.8586 H   0  0  0  0  0  0  0  0  0  0  0  0
  139.8269   71.3920  224.3180 H   0  0  0  0  0  0  0  0  0  0  0  0
  1  2  1  0
  2  3  1  0
  3  4  1  0
  4  5  2  0
  4  6  1  0
  6  7  1  0
  7  8  1  0
  8  9  1  0
  9 10  1  0
  9 11  1  0
  8 12  1  0
 12 13  1  0
 13 14  1  0
 14 15  2  0
 14 16  1  0
 16 17  1  0
 17 18  1  0
 18 19  2  0
 18 20  1  0
 20 21  2  0
 21 22  1  0
 22 23  2  0
 23 24  1  0
 24 25  2  0
 25 26  1  0
 25 27  1  0
 27 28  2  0
 28 29  1  0
 29 30  2  0
  2 31  1  0
 31 32  2  0
 32 33  1  0
 33 34  2  0
 34 35  1  0
 35 36  2  0
 13  6  1  0
 30 20  1  0
 36 31  1  0
 29 23  1  0
  1 37  1  0
  1 38  1  0
  1 39  1  0
  2 40  1  1
  3 41  1  0
  6 42  1  6
  7 43  1  0
  7 44  1  0
  8 45  1  1
 10 46  1  0
 10 47  1  0
 10 48  1  0
 11 49  1  0
 11 50  1  0
 11 51  1  0
 12 52  1  0
 12 53  1  0
 16 54  1  0
 16 55  1  0
 17 56  1  0
 21 57  1  0
 22 58  1  0
 24 59  1  0
 27 60  1  0
 28 61  1  0
 32 62  1  0
 33 63  1  0
 34 64  1  0
 35 65  1  0
 36 66  1  0
M  END
>  <smiles>  (38) 
CC(NC(=O)[C@H]1C[C@H](N(C)C)CN1C(=O)CNC(=O)c1ccc2cc(Cl)ccc2n1)c1ccccc1

>  <score_type>  (38) 
oracle

>  <origin>  (38) 
autodockgpu

>  <m_score__min__energy>  (38) 
-9.8300000000000001

>  <m_primary>  (38) 
energy

>  <rmsd>  (38) 
9.854228128573457

>  <m_score__min__rmsd>  (38) 
9.854228128573457

>  <meeko>  (38) 
{"free_energy": -8.91, "intermolecular_energy": -11.29, "internal_energy": -2.85, "cluster_size": 16, "cluster_id": 1, "rank_in_cluster": 9}

>  <energy>  (38) 
-9.24

>  <cluster_rmsd>  (38) 
0.56

>  <cluster>  (38) 
3

$$$$

     RDKit          3D

 66 69  0  0  1  0  0  0  0  0999 V2000
  140.8460   80.4360  218.9790 C   0  0  0  0  0  0  0  0  0  0  0  0
  141.6670   79.5260  219.8490 C   0  0  2  0  0  0  0  0  0  0  0  0
  141.2210   78.1430  219.7830 N   0  0  0  0  0  0  0  0  0  0  0  0
  142.1200   77.1900  219.1870 C   0  0  0  0  0  0  0  0  0  0  0  0
  143.2560   77.5510  218.7430 O   0  0  0  0  0  0  0  0  0  0  0  0
  141.6920   75.7820  219.1050 C   0  0  1  0  0  0  0  0  0  0  0  0
  142.8840   74.8360  219.0230 C   0  0  0  0  0  0  0  0  0  0  0  0
  143.1690   74.5210  220.4710 C   0  0  2  0  0  0  0  0  0  0  0  0
  143.8980   73.3140  220.6820 N   0  0  0  0  0  0  0  0  0  0  0  0
  145.3120   73.4230  220.4980 C   0  0  0  0  0  0  0  0  0  0  0  0
  143.3770   72.2600  219.8700 C   0  0  0  0  0  0  0  0  0  0  0  0
  141.8830   74.6600  221.2040 C   0  0  0  0  0  0  0  0  0  0  0  0
  140.9650   75.3630  220.3000 N   0  0  0  0  0  0  0  0  0  0  0  0
  139.5830   75.5940  220.5640 C   0  0  0  0  0  0  0  0  0  0  0  0
  139.1600   76.7790  220.5890 O   0  0  0  0  0  0  0  0  0  0  0  0
  138.6970   74.4190  220.7950 C   0  0  0  0  0  0  0  0  0  0  0  0
  138.9730   73.7410  222.0300 N   0  0  0  0  0  0  0  0  0  0  0  0
  139.1460   72.3240  221.9690 C   0  0  0  0  0  0  0  0  0  0  0  0
  139.0320   71.8200  220.8010 O   0  0  0  0  0  0  0  0  0  0  0  0
  139.4300   71.5020  223.1320 C   0  0  0  0  0  0  0  0  0  0  0  0
  139.1070   70.1620  223.0580 C   0  0  0  0  0  0  0  0  0  0  0  0
  139.3190   69.2660  224.0770 C   0  0  0  0  0  0  0  0  0  0  0  0
  139.8950   69.7590  225.2490 C   0  0  0  0  0  0  0  0  0  0  0  0
  140.1460   68.9310  226.3270 C   0  0  0  0  0  0  0  0  0  0  0  0
  140.7220   69.4180  227.4960 C   0  0  0  0  0  0  0  0  0  0  0  0
  140.9990   68.3020  228.8000 Cl  0  0  0  0  0  0  0  0  0  0  0  0
  141.0340   70.7540  227.5480 C   0  0  0  0  0  0  0  0  0  0  0  0
  140.7870   71.5970  226.4690 C   0  0  0  0  0  0  0  0  0  0  0  0
  140.2150   71.0990  225.3190 C   0  0  0  0  0  0  0  0  0  0  0  0
  139.9790   71.9440  224.2650 N   0  0  0  0  0  0  0  0  0  0  0  0
  141.7510   80.0170  221.2670 C   0  0  0  0  0  0  0  0  0  0  0  0
  142.0200   79.1440  222.3220 C   0  0  0  0  0  0  0  0  0  0  0  0
  142.1010   79.5610  223.6300 C   0  0  0  0  0  0  0  0  0  0  0  0
  141.9080   80.8980  223.9210 C   0  0  0  0  0  0  0  0  0  0  0  0
  141.6400   81.7780  222.8970 C   0  0  0  0  0  0  0  0  0  0  0  0
  141.5540   81.3700  221.5650 C   0  0  0  0  0  0  0  0  0  0  0  0
  140.2436   81.1037  219.6125 H   0  0  0  0  0  0  0  0  0  0  0  0
  141.5136   81.0368  218.3439 H   0  0  0  0  0  0  0  0  0  0  0  0
  140.1799   79.8335  218.3439 H   0  0  0  0  0  0  0  0  0  0  0  0
  142.6879   79.5498  219.4400 H   0  0  0  0  0  0  0  0  0  0  0  0
  140.2900   77.8590  220.1510 H   0  0  0  0  0  0  0  0  0  0  0  0
  141.0615   75.7298  218.2051 H   0  0  0  0  0  0  0  0  0  0  0  0
  142.6273   73.9244  218.4634 H   0  0  0  0  0  0  0  0  0  0  0  0
  143.7465   75.2707  218.4965 H   0  0  0  0  0  0  0  0  0  0  0  0
  143.8864   75.2407  220.8922 H   0  0  0  0  0  0  0  0  0  0  0  0
  145.8076   73.4612  221.4793 H   0  0  0  0  0  0  0  0  0  0  0  0
  145.6770   72.5503  219.9366 H   0  0  0  0  0  0  0  0  0  0  0  0
  145.5390   74.3413  219.9366 H   0  0  0  0  0  0  0  0  0  0  0  0
  142.9821   71.4612  220.5150 H   0  0  0  0  0  0  0  0  0  0  0  0
  142.5687   72.6517  219.2349 H   0  0  0  0  0  0  0  0  0  0  0  0
  144.1790   71.8557  219.2349 H   0  0  0  0  0  0  0  0  0  0  0  0
  141.4811   73.6682  221.4586 H   0  0  0  0  0  0  0  0  0  0  0  0
  142.0180   75.2135  222.1450 H   0  0  0  0  0  0  0  0  0  0  0  0
  137.6531   74.7653  220.8112 H   0  0  0  0  0  0  0  0  0  0  0  0
  138.8805   73.7039  219.9796 H   0  0  0  0  0  0  0  0  0  0  0  0
  139.0540   74.2250  222.9670 H   0  0  0  0  0  0  0  0  0  0  0  0
  138.6529   69.7898  222.1278 H   0  0  0  0  0  0  0  0  0  0  0  0
  139.0466   68.2053  223.9740 H   0  0  0  0  0  0  0  0  0  0  0  0
  139.8848   67.8646  226.2591 H   0  0  0  0  0  0  0  0  0  0  0  0
  141.4884   71.1662  228.4610 H   0  0  0  0  0  0  0  0  0  0  0  0
  141.0490   72.6633  226.5344 H   0  0  0  0  0  0  0  0  0  0  0  0
  142.1736   78.0780  222.0981 H   0  0  0  0  0  0  0  0  0  0  0  0
  142.3163   78.8406  224.4330 H   0  0  0  0  0  0  0  0  0  0  0  0
  141.9679   81.2552  224.9597 H   0  0  0  0  0  0  0  0  0  0  0  0
  141.4882   82.8407  223.1370 H   0  0  0  0  0  0  0  0  0  0  0  0
  141.3363   82.0956  220.7675 H   0  0  0  0  0  0  0  0  0  0  0  0
  1  2  1  0
  2  3  1  0
  3  4  1  0
  4  5  2  0
  4  6  1  0
  6  7  1  0
  7  8  1  0
  8  9  1  0
  9 10  1  0
  9 11  1  0
  8 12  1  0
 12 13  1  0
 13 14  1  0
 14 15  2  0
 14 16  1  0
 16 17  1  0
 17 18  1  0
 18 19  2  0
 18 20  1  0
 20 21  2  0
 21 22  1  0
 22 23  2  0
 23 24  1  0
 24 25  2  0
 25 26  1  0
 25 27  1  0
 27 28  2  0
 28 29  1  0
 29 30  2  0
  2 31  1  0
 31 32  2  0
 32 33  1  0
 33 34  2  0
 34 35  1  0
 35 36  2  0
 13  6  1  0
 30 20  1  0
 36 31  1  0
 29 23  1  0
  1 37  1  0
  1 38  1  0
  1 39  1  0
  2 40  1  6
  3 41  1  0
  6 42  1  6
  7 43  1  0
  7 44  1  0
  8 45  1  1
 10 46  1  0
 10 47  1  0
 10 48  1  0
 11 49  1  0
 11 50  1  0
 11 51  1  0
 12 52  1  0
 12 53  1  0
 16 54  1  0
 16 55  1  0
 17 56  1  0
 21 57  1  0
 22 58  1  0
 24 59  1  0
 27 60  1  0
 28 61  1  0
 32 62  1  0
 33 63  1  0
 34 64  1  0
 35 65  1  0
 36 66  1  0
M  END
>  <smiles>  (39) 
CC(NC(=O)[C@H]1C[C@H](N(C)C)CN1C(=O)CNC(=O)c1ccc2cc(Cl)ccc2n1)c1ccccc1

>  <score_type>  (39) 
oracle

>  <origin>  (39) 
autodockgpu

>  <m_score__min__energy>  (39) 
-9.8300000000000001

>  <m_primary>  (39) 
energy

>  <rmsd>  (39) 
3.0088885390035958

>  <m_score__min__rmsd>  (39) 
3.0088885390035958

>  <meeko>  (39) 
{"free_energy": -9.11, "intermolecular_energy": -11.5, "internal_energy": -2.93, "cluster_size": 20, "cluster_id": 2, "rank_in_cluster": 7}

>  <energy>  (39) 
-8.73

>  <cluster_rmsd>  (39) 
1.1

>  <cluster>  (39) 
3

$$$$

     RDKit          3D

 66 69  0  0  1  0  0  0  0  0999 V2000
  142.5940   79.9090  222.3220 C   0  0  0  0  0  0  0  0  0  0  0  0
  141.6710   78.7630  222.6290 C   0  0  2  0  0  0  0  0  0  0  0  0
  141.6320   77.7790  221.5580 N   0  0  0  0  0  0  0  0  0  0  0  0
  141.1400   78.2190  220.2780 C   0  0  0  0  0  0  0  0  0  0  0  0
  140.7600   79.4200  220.1010 O   0  0  0  0  0  0  0  0  0  0  0  0
  141.0880   77.2420  219.1760 C   0  0  1  0  0  0  0  0  0  0  0  0
  141.1190   77.9270  217.8160 C   0  0  0  0  0  0  0  0  0  0  0  0
  142.5940   77.9950  217.5020 C   0  0  2  0  0  0  0  0  0  0  0  0
  142.8980   78.1380  216.1170 N   0  0  0  0  0  0  0  0  0  0  0  0
  141.8120   78.5920  215.3050 C   0  0  0  0  0  0  0  0  0  0  0  0
  143.4330   76.9230  215.5880 C   0  0  0  0  0  0  0  0  0  0  0  0
  143.2370   76.8570  218.2120 C   0  0  0  0  0  0  0  0  0  0  0  0
  142.2500   76.3590  219.1760 N   0  0  0  0  0  0  0  0  0  0  0  0
  142.4160   75.1920  219.9800 C   0  0  0  0  0  0  0  0  0  0  0  0
  143.5460   74.9580  220.4820 O   0  0  0  0  0  0  0  0  0  0  0  0
  141.2420   74.3010  220.1920 C   0  0  0  0  0  0  0  0  0  0  0  0
  141.3600   73.4850  221.3680 N   0  0  0  0  0  0  0  0  0  0  0  0
  140.1880   72.7910  221.7990 C   0  0  0  0  0  0  0  0  0  0  0  0
  139.1550   72.9820  221.0730 O   0  0  0  0  0  0  0  0  0  0  0  0
  140.1530   71.9300  222.9680 C   0  0  0  0  0  0  0  0  0  0  0  0
  139.5400   70.7010  222.8340 C   0  0  0  0  0  0  0  0  0  0  0  0
  139.4320   69.7840  223.8500 C   0  0  0  0  0  0  0  0  0  0  0  0
  139.9800   70.1350  225.0860 C   0  0  0  0  0  0  0  0  0  0  0  0
  139.9190   69.2760  226.1660 C   0  0  0  0  0  0  0  0  0  0  0  0
  140.4660   69.6210  227.3980 C   0  0  0  0  0  0  0  0  0  0  0  0
  140.3420   68.4760  228.7000 Cl  0  0  0  0  0  0  0  0  0  0  0  0
  141.0700   70.8490  227.5090 C   0  0  0  0  0  0  0  0  0  0  0  0
  141.1380   71.7220  226.4280 C   0  0  0  0  0  0  0  0  0  0  0  0
  140.5910   71.3650  225.2150 C   0  0  0  0  0  0  0  0  0  0  0  0
  140.6670   72.2380  224.1600 N   0  0  0  0  0  0  0  0  0  0  0  0
  140.2940   79.2270  223.0090 C   0  0  0  0  0  0  0  0  0  0  0  0
  140.0930   80.4490  223.6540 C   0  0  0  0  0  0  0  0  0  0  0  0
  138.8460   80.9010  224.0180 C   0  0  0  0  0  0  0  0  0  0  0  0
  137.7410   80.1210  223.7380 C   0  0  0  0  0  0  0  0  0  0  0  0
  137.9140   78.9120  223.1030 C   0  0  0  0  0  0  0  0  0  0  0  0
  139.1730   78.4390  222.7280 C   0  0  0  0  0  0  0  0  0  0  0  0
  142.9520   80.3535  223.2624 H   0  0  0  0  0  0  0  0  0  0  0  0
  143.4522   79.5427  221.7395 H   0  0  0  0  0  0  0  0  0  0  0  0
  142.0532   80.6694  221.7395 H   0  0  0  0  0  0  0  0  0  0  0  0
  142.0933   78.2569  223.5096 H   0  0  0  0  0  0  0  0  0  0  0  0
  141.9470   76.8000  221.7140 H   0  0  0  0  0  0  0  0  0  0  0  0
  140.1530   76.6848  219.3353 H   0  0  0  0  0  0  0  0  0  0  0  0
  140.5815   77.3331  217.0621 H   0  0  0  0  0  0  0  0  0  0  0  0
  140.6306   78.9126  217.8165 H   0  0  0  0  0  0  0  0  0  0  0  0
  143.0312   78.9310  217.8798 H   0  0  0  0  0  0  0  0  0  0  0  0
  140.9902   78.9356  215.9505 H   0  0  0  0  0  0  0  0  0  0  0  0
  142.1516   79.4235  214.6699 H   0  0  0  0  0  0  0  0  0  0  0  0
  141.4588   77.7662  214.6699 H   0  0  0  0  0  0  0  0  0  0  0  0
  143.7250   76.2599  216.4157 H   0  0  0  0  0  0  0  0  0  0  0  0
  142.6709   76.4250  214.9706 H   0  0  0  0  0  0  0  0  0  0  0  0
  144.3149   77.1489  214.9706 H   0  0  0  0  0  0  0  0  0  0  0  0
  143.5039   76.0647  217.4972 H   0  0  0  0  0  0  0  0  0  0  0  0
  144.1622   77.1732  218.7161 H   0  0  0  0  0  0  0  0  0  0  0  0
  140.3414   74.9252  220.2878 H   0  0  0  0  0  0  0  0  0  0  0  0
  141.1833   73.6239  219.3271 H   0  0  0  0  0  0  0  0  0  0  0  0
  142.2530   73.3730  221.9240 H   0  0  0  0  0  0  0  0  0  0  0  0
  139.1123   70.4405  221.8546 H   0  0  0  0  0  0  0  0  0  0  0  0
  138.9353   68.8145  223.6973 H   0  0  0  0  0  0  0  0  0  0  0  0
  139.4277   68.2987  226.0497 H   0  0  0  0  0  0  0  0  0  0  0  0
  141.5090   71.1486  228.4721 H   0  0  0  0  0  0  0  0  0  0  0  0
  141.6296   72.6994  226.5420 H   0  0  0  0  0  0  0  0  0  0  0  0
  140.9680   81.0760  223.8804 H   0  0  0  0  0  0  0  0  0  0  0  0
  138.7303   81.8703  224.5251 H   0  0  0  0  0  0  0  0  0  0  0  0
  136.7338   80.4622  224.0194 H   0  0  0  0  0  0  0  0  0  0  0  0
  137.0290   78.2968  222.8832 H   0  0  0  0  0  0  0  0  0  0  0  0
  139.2810   77.4679  222.2226 H   0  0  0  0  0  0  0  0  0  0  0  0
  1  2  1  0
  2  3  1  0
  3  4  1  0
  4  5  2  0
  4  6  1  0
  6  7  1  0
  7  8  1  0
  8  9  1  0
  9 10  1  0
  9 11  1  0
  8 12  1  0
 12 13  1  0
 13 14  1  0
 14 15  2  0
 14 16  1  0
 16 17  1  0
 17 18  1  0
 18 19  2  0
 18 20  1  0
 20 21  2  0
 21 22  1  0
 22 23  2  0
 23 24  1  0
 24 25  2  0
 25 26  1  0
 25 27  1  0
 27 28  2  0
 28 29  1  0
 29 30  2  0
  2 31  1  0
 31 32  2  0
 32 33  1  0
 33 34  2  0
 34 35  1  0
 35 36  2  0
 13  6  1  0
 30 20  1  0
 36 31  1  0
 29 23  1  0
  1 37  1  0
  1 38  1  0
  1 39  1  0
  2 40  1  1
  3 41  1  0
  6 42  1  1
  7 43  1  0
  7 44  1  0
  8 45  1  1
 10 46  1  0
 10 47  1  0
 10 48  1  0
 11 49  1  0
 11 50  1  0
 11 51  1  0
 12 52  1  0
 12 53  1  0
 16 54  1  0
 16 55  1  0
 17 56  1  0
 21 57  1  0
 22 58  1  0
 24 59  1  0
 27 60  1  0
 28 61  1  0
 32 62  1  0
 33 63  1  0
 34 64  1  0
 35 65  1  0
 36 66  1  0
M  END
>  <smiles>  (40) 
CC(NC(=O)[C@H]1C[C@H](N(C)C)CN1C(=O)CNC(=O)c1ccc2cc(Cl)ccc2n1)c1ccccc1

>  <score_type>  (40) 
oracle

>  <origin>  (40) 
autodockgpu

>  <m_score__min__energy>  (40) 
-9.8300000000000001

>  <m_primary>  (40) 
energy

>  <rmsd>  (40) 
2.7103875094274312

>  <m_score__min__rmsd>  (40) 
2.7103875094274312

>  <meeko>  (40) 
{"free_energy": -8.32, "intermolecular_energy": -10.7, "internal_energy": -2.3, "cluster_size": 1, "cluster_id": 5, "rank_in_cluster": 1}

>  <energy>  (40) 
-8.59

>  <cluster_rmsd>  (40) 
1.47

>  <cluster>  (40) 
3

$$$$

     RDKit          3D

 66 69  0  0  1  0  0  0  0  0999 V2000
  140.5460   71.8640  223.3630 C   0  0  0  0  0  0  0  0  0  0  0  0
  139.7410   70.8420  224.1160 C   0  0  2  0  0  0  0  0  0  0  0  0
  138.3150   70.9540  223.8540 N   0  0  0  0  0  0  0  0  0  0  0  0
  137.5570   69.7310  223.8050 C   0  0  0  0  0  0  0  0  0  0  0  0
  138.1190   68.6050  223.9880 O   0  0  0  0  0  0  0  0  0  0  0  0
  136.1100   69.8170  223.5380 C   0  0  1  0  0  0  0  0  0  0  0  0
  135.2970   69.1050  224.6120 C   0  0  0  0  0  0  0  0  0  0  0  0
  135.0360   70.1960  225.6220 C   0  0  2  0  0  0  0  0  0  0  0  0
  133.9180   69.9590  226.4740 N   0  0  0  0  0  0  0  0  0  0  0  0
  132.7520   69.4600  225.8130 C   0  0  0  0  0  0  0  0  0  0  0  0
  133.5940   71.1330  227.2220 C   0  0  0  0  0  0  0  0  0  0  0  0
  135.0450   71.4830  224.8770 C   0  0  0  0  0  0  0  0  0  0  0  0
  135.6320   71.1970  223.5630 N   0  0  0  0  0  0  0  0  0  0  0  0
  135.7160   72.1320  222.4890 C   0  0  0  0  0  0  0  0  0  0  0  0
  136.1690   71.7430  221.3810 O   0  0  0  0  0  0  0  0  0  0  0  0
  135.2590   73.5300  222.7250 C   0  0  0  0  0  0  0  0  0  0  0  0
  136.3250   74.4120  223.1110 N   0  0  0  0  0  0  0  0  0  0  0  0
  137.0410   75.0650  222.0610 C   0  0  0  0  0  0  0  0  0  0  0  0
  136.6400   74.7810  220.8820 O   0  0  0  0  0  0  0  0  0  0  0  0
  138.1410   75.9830  222.2940 C   0  0  0  0  0  0  0  0  0  0  0  0
  139.4170   75.5250  222.0370 C   0  0  0  0  0  0  0  0  0  0  0  0
  140.5520   76.2790  222.2090 C   0  0  0  0  0  0  0  0  0  0  0  0
  140.3830   77.5850  222.6740 C   0  0  0  0  0  0  0  0  0  0  0  0
  141.4670   78.4190  222.8770 C   0  0  0  0  0  0  0  0  0  0  0  0
  141.3020   79.7210  223.3380 C   0  0  0  0  0  0  0  0  0  0  0  0
  142.7240   80.6960  223.5640 Cl  0  0  0  0  0  0  0  0  0  0  0  0
  140.0250   80.1560  223.5880 C   0  0  0  0  0  0  0  0  0  0  0  0
  138.9260   79.3260  223.3870 C   0  0  0  0  0  0  0  0  0  0  0  0
  139.1060   78.0380  222.9300 C   0  0  0  0  0  0  0  0  0  0  0  0
  138.0120   77.2350  222.7370 N   0  0  0  0  0  0  0  0  0  0  0  0
  140.0400   70.8540  225.5890 C   0  0  0  0  0  0  0  0  0  0  0  0
  140.7660   71.8930  226.1730 C   0  0  0  0  0  0  0  0  0  0  0  0
  141.0580   71.9330  227.5160 C   0  0  0  0  0  0  0  0  0  0  0  0
  140.6200   70.9060  228.3290 C   0  0  0  0  0  0  0  0  0  0  0  0
  139.9030   69.8690  227.7760 C   0  0  0  0  0  0  0  0  0  0  0  0
  139.5980   69.8140  226.4140 C   0  0  0  0  0  0  0  0  0  0  0  0
  141.0638   72.5214  224.0769 H   0  0  0  0  0  0  0  0  0  0  0  0
  141.2872   71.3535  222.7305 H   0  0  0  0  0  0  0  0  0  0  0  0
  139.8761   72.4650  222.7305 H   0  0  0  0  0  0  0  0  0  0  0  0
  140.0568   69.8606  223.7325 H   0  0  0  0  0  0  0  0  0  0  0  0
  137.8660   71.8810  223.7080 H   0  0  0  0  0  0  0  0  0  0  0  0
  135.9774   69.3573  222.5475 H   0  0  0  0  0  0  0  0  0  0  0  0
  134.3548   68.7143  224.2002 H   0  0  0  0  0  0  0  0  0  0  0  0
  135.8144   68.2338  225.0400 H   0  0  0  0  0  0  0  0  0  0  0  0
  135.8349   70.2271  226.3775 H   0  0  0  0  0  0  0  0  0  0  0  0
  132.0124   69.1435  226.5632 H   0  0  0  0  0  0  0  0  0  0  0  0
  132.3200   70.2521  225.1837 H   0  0  0  0  0  0  0  0  0  0  0  0
  133.0268   68.6007  225.1837 H   0  0  0  0  0  0  0  0  0  0  0  0
  133.6553   70.9110  228.2976 H   0  0  0  0  0  0  0  0  0  0  0  0
  134.3045   71.9347  226.9720 H   0  0  0  0  0  0  0  0  0  0  0  0
  132.5729   71.4568  226.9720 H   0  0  0  0  0  0  0  0  0  0  0  0
  134.0191   71.8625  224.7609 H   0  0  0  0  0  0  0  0  0  0  0  0
  135.6227   72.2502  225.4134 H   0  0  0  0  0  0  0  0  0  0  0  0
  134.8065   73.9119  221.7980 H   0  0  0  0  0  0  0  0  0  0  0  0
  134.5370   73.5042  223.5545 H   0  0  0  0  0  0  0  0  0  0  0  0
  136.6050   74.6000  224.1130 H   0  0  0  0  0  0  0  0  0  0  0  0
  139.5321   74.4936  221.6723 H   0  0  0  0  0  0  0  0  0  0  0  0
  141.5503   75.8721  221.9901 H   0  0  0  0  0  0  0  0  0  0  0  0
  142.4806   78.0452  222.6697 H   0  0  0  0  0  0  0  0  0  0  0  0
  139.8666   81.1810  223.9545 H   0  0  0  0  0  0  0  0  0  0  0  0
  137.9118   79.6985  223.5932 H   0  0  0  0  0  0  0  0  0  0  0  0
  141.1194   72.7142  225.5321 H   0  0  0  0  0  0  0  0  0  0  0  0
  141.6324   72.7713  227.9371 H   0  0  0  0  0  0  0  0  0  0  0  0
  140.8416   70.9165  229.4064 H   0  0  0  0  0  0  0  0  0  0  0  0
  139.5580   69.0547  228.4301 H   0  0  0  0  0  0  0  0  0  0  0  0
  139.0236   68.9724  225.9996 H   0  0  0  0  0  0  0  0  0  0  0  0
  1  2  1  0
  2  3  1  0
  3  4  1  0
  4  5  2  0
  4  6  1  0
  6  7  1  0
  7  8  1  0
  8  9  1  0
  9 10  1  0
  9 11  1  0
  8 12  1  0
 12 13  1  0
 13 14  1  0
 14 15  2  0
 14 16  1  0
 16 17  1  0
 17 18  1  0
 18 19  2  0
 18 20  1  0
 20 21  2  0
 21 22  1  0
 22 23  2  0
 23 24  1  0
 24 25  2  0
 25 26  1  0
 25 27  1  0
 27 28  2  0
 28 29  1  0
 29 30  2  0
  2 31  1  0
 31 32  2  0
 32 33  1  0
 33 34  2  0
 34 35  1  0
 35 36  2  0
 13  6  1  0
 30 20  1  0
 36 31  1  0
 29 23  1  0
  1 37  1  0
  1 38  1  0
  1 39  1  0
  2 40  1  6
  3 41  1  0
  6 42  1  6
  7 43  1  0
  7 44  1  0
  8 45  1  1
 10 46  1  0
 10 47  1  0
 10 48  1  0
 11 49  1  0
 11 50  1  0
 11 51  1  0
 12 52  1  0
 12 53  1  0
 16 54  1  0
 16 55  1  0
 17 56  1  0
 21 57  1  0
 22 58  1  0
 24 59  1  0
 27 60  1  0
 28 61  1  0
 32 62  1  0
 33 63  1  0
 34 64  1  0
 35 65  1  0
 36 66  1  0
M  END
>  <smiles>  (41) 
CC(NC(=O)[C@H]1C[C@H](N(C)C)CN1C(=O)CNC(=O)c1ccc2cc(Cl)ccc2n1)c1ccccc1

>  <score_type>  (41) 
oracle

>  <origin>  (41) 
autodockgpu

>  <m_score__min__energy>  (41) 
-9.8300000000000001

>  <m_primary>  (41) 
energy

>  <rmsd>  (41) 
9.322391966526755

>  <m_score__min__rmsd>  (41) 
9.322391966526755

>  <meeko>  (41) 
{"free_energy": -9.45, "intermolecular_energy": -11.84, "internal_energy": -2.4, "cluster_size": 16, "cluster_id": 1, "rank_in_cluster": 4}

>  <energy>  (41) 
-8.88

>  <cluster_rmsd>  (41) 
0.0

>  <cluster>  (41) 
4

$$$$

     RDKit          3D

 66 69  0  0  1  0  0  0  0  0999 V2000
  138.9210   77.7540  220.5070 C   0  0  0  0  0  0  0  0  0  0  0  0
  140.4130   77.7470  220.3230 C   0  0  2  0  0  0  0  0  0  0  0  0
  140.9280   76.4220  220.0140 N   0  0  0  0  0  0  0  0  0  0  0  0
  141.7580   76.2950  218.8440 C   0  0  0  0  0  0  0  0  0  0  0  0
  142.0270   77.3060  218.1200 O   0  0  0  0  0  0  0  0  0  0  0  0
  142.2920   74.9630  218.5070 C   0  0  1  0  0  0  0  0  0  0  0  0
  143.7290   74.7970  218.9830 C   0  0  0  0  0  0  0  0  0  0  0  0
  143.5640   74.2270  220.3710 C   0  0  2  0  0  0  0  0  0  0  0  0
  144.7050   73.5300  220.8650 N   0  0  0  0  0  0  0  0  0  0  0  0
  145.9380   74.2480  220.7690 C   0  0  0  0  0  0  0  0  0  0  0  0
  144.8310   72.2530  220.2350 C   0  0  0  0  0  0  0  0  0  0  0  0
  142.2750   73.4860  220.3820 C   0  0  0  0  0  0  0  0  0  0  0  0
  141.5510   73.8960  219.1730 N   0  0  0  0  0  0  0  0  0  0  0  0
  140.3190   73.3290  218.7320 C   0  0  0  0  0  0  0  0  0  0  0  0
  140.2790   72.7660  217.6070 O   0  0  0  0  0  0  0  0  0  0  0  0
  139.1310   73.4270  219.6250 C   0  0  0  0  0  0  0  0  0  0  0  0
  139.1320   72.4440  220.6720 N   0  0  0  0  0  0  0  0  0  0  0  0
  139.6500   72.8470  221.9410 C   0  0  0  0  0  0  0  0  0  0  0  0
  140.0580   74.0560  221.9940 O   0  0  0  0  0  0  0  0  0  0  0  0
  139.7160   71.9660  223.0940 C   0  0  0  0  0  0  0  0  0  0  0  0
  139.0400   70.7660  223.0170 C   0  0  0  0  0  0  0  0  0  0  0  0
  139.0130   69.8350  224.0260 C   0  0  0  0  0  0  0  0  0  0  0  0
  139.7190   70.1400  225.1920 C   0  0  0  0  0  0  0  0  0  0  0  0
  139.7490   69.2640  226.2600 C   0  0  0  0  0  0  0  0  0  0  0  0
  140.4530   69.5640  227.4230 C   0  0  0  0  0  0  0  0  0  0  0  0
  140.4340   68.4000  228.7140 Cl  0  0  0  0  0  0  0  0  0  0  0  0
  141.1180   70.7630  227.4780 C   0  0  0  0  0  0  0  0  0  0  0  0
  141.0940   71.6530  226.4090 C   0  0  0  0  0  0  0  0  0  0  0  0
  140.3920   71.3410  225.2650 C   0  0  0  0  0  0  0  0  0  0  0  0
  140.3800   72.2300  224.2200 N   0  0  0  0  0  0  0  0  0  0  0  0
  141.1340   78.3670  221.4860 C   0  0  0  0  0  0  0  0  0  0  0  0
  141.8460   79.5590  221.3460 C   0  0  0  0  0  0  0  0  0  0  0  0
  142.5180   80.1510  222.3890 C   0  0  0  0  0  0  0  0  0  0  0  0
  142.4930   79.5480  223.6320 C   0  0  0  0  0  0  0  0  0  0  0  0
  141.7970   78.3710  223.7950 C   0  0  0  0  0  0  0  0  0  0  0  0
  141.1100   77.7580  222.7460 C   0  0  0  0  0  0  0  0  0  0  0  0
  138.6840   77.7551  221.5812 H   0  0  0  0  0  0  0  0  0  0  0  0
  138.4978   78.6541  220.0372 H   0  0  0  0  0  0  0  0  0  0  0  0
  138.4894   76.8579  220.0372 H   0  0  0  0  0  0  0  0  0  0  0  0
  140.6161   78.3794  219.4462 H   0  0  0  0  0  0  0  0  0  0  0  0
  140.7040   75.6030  220.6140 H   0  0  0  0  0  0  0  0  0  0  0  0
  142.2110   74.8931  217.4122 H   0  0  0  0  0  0  0  0  0  0  0  0
  144.2827   74.1027  218.3339 H   0  0  0  0  0  0  0  0  0  0  0  0
  144.3023   75.7356  218.9655 H   0  0  0  0  0  0  0  0  0  0  0  0
  143.5074   75.0324  221.1180 H   0  0  0  0  0  0  0  0  0  0  0  0
  146.3143   74.4671  221.7791 H   0  0  0  0  0  0  0  0  0  0  0  0
  146.6760   73.6384  220.2270 H   0  0  0  0  0  0  0  0  0  0  0  0
  145.7721   75.1907  220.2270 H   0  0  0  0  0  0  0  0  0  0  0  0
  144.9082   71.4706  221.0044 H   0  0  0  0  0  0  0  0  0  0  0  0
  143.9471   72.0647  219.6079 H   0  0  0  0  0  0  0  0  0  0  0  0
  145.7347   72.2411  219.6079 H   0  0  0  0  0  0  0  0  0  0  0  0
  142.4594   72.4017  220.3657 H   0  0  0  0  0  0  0  0  0  0  0  0
  141.6945   73.7091  221.2893 H   0  0  0  0  0  0  0  0  0  0  0  0
  139.1188   74.4269  220.0833 H   0  0  0  0  0  0  0  0  0  0  0  0
  138.2393   73.2472  219.0064 H   0  0  0  0  0  0  0  0  0  0  0  0
  138.7760   71.4550  220.5560 H   0  0  0  0  0  0  0  0  0  0  0  0
  138.4894   70.5414  222.0916 H   0  0  0  0  0  0  0  0  0  0  0  0
  138.4595   68.8902  223.9206 H   0  0  0  0  0  0  0  0  0  0  0  0
  139.2056   68.3102  226.1900 H   0  0  0  0  0  0  0  0  0  0  0  0
  141.6814   71.0257  228.3855 H   0  0  0  0  0  0  0  0  0  0  0  0
  141.6364   72.6075  226.4771 H   0  0  0  0  0  0  0  0  0  0  0  0
  141.8705   80.0453  220.3596 H   0  0  0  0  0  0  0  0  0  0  0  0
  143.0678   81.0914  222.2362 H   0  0  0  0  0  0  0  0  0  0  0  0
  143.0231   80.0030  224.4817 H   0  0  0  0  0  0  0  0  0  0  0  0
  141.7819   77.8969  224.7875 H   0  0  0  0  0  0  0  0  0  0  0  0
  140.5621   76.8176  222.9059 H   0  0  0  0  0  0  0  0  0  0  0  0
  1  2  1  0
  2  3  1  0
  3  4  1  0
  4  5  2  0
  4  6  1  0
  6  7  1  0
  7  8  1  0
  8  9  1  0
  9 10  1  0
  9 11  1  0
  8 12  1  0
 12 13  1  0
 13 14  1  0
 14 15  2  0
 14 16  1  0
 16 17  1  0
 17 18  1  0
 18 19  2  0
 18 20  1  0
 20 21  2  0
 21 22  1  0
 22 23  2  0
 23 24  1  0
 24 25  2  0
 25 26  1  0
 25 27  1  0
 27 28  2  0
 28 29  1  0
 29 30  2  0
  2 31  1  0
 31 32  2  0
 32 33  1  0
 33 34  2  0
 34 35  1  0
 35 36  2  0
 13  6  1  0
 30 20  1  0
 36 31  1  0
 29 23  1  0
  1 37  1  0
  1 38  1  0
  1 39  1  0
  2 40  1  6
  3 41  1  0
  6 42  1  6
  7 43  1  0
  7 44  1  0
  8 45  1  1
 10 46  1  0
 10 47  1  0
 10 48  1  0
 11 49  1  0
 11 50  1  0
 11 51  1  0
 12 52  1  0
 12 53  1  0
 16 54  1  0
 16 55  1  0
 17 56  1  0
 21 57  1  0
 22 58  1  0
 24 59  1  0
 27 60  1  0
 28 61  1  0
 32 62  1  0
 33 63  1  0
 34 64  1  0
 35 65  1  0
 36 66  1  0
M  END
>  <smiles>  (42) 
CC(NC(=O)[C@H]1C[C@H](N(C)C)CN1C(=O)CNC(=O)c1ccc2cc(Cl)ccc2n1)c1ccccc1

>  <score_type>  (42) 
oracle

>  <origin>  (42) 
autodockgpu

>  <m_score__min__energy>  (42) 
-9.8300000000000001

>  <m_primary>  (42) 
energy

>  <rmsd>  (42) 
3.3916468273245677

>  <m_score__min__rmsd>  (42) 
3.3916468273245677

>  <meeko>  (42) 
{"free_energy": -8.69, "intermolecular_energy": -11.08, "internal_energy": -3.06, "cluster_size": 20, "cluster_id": 2, "rank_in_cluster": 16}

>  <energy>  (42) 
-8.41

>  <cluster_rmsd>  (42) 
0.7

>  <cluster>  (42) 
4

$$$$

     RDKit          3D

 66 69  0  0  1  0  0  0  0  0999 V2000
  140.3760   75.0560  220.5420 C   0  0  0  0  0  0  0  0  0  0  0  0
  140.9250   73.7940  219.9350 C   0  0  2  0  0  0  0  0  0  0  0  0
  140.1320   72.6240  220.2740 N   0  0  0  0  0  0  0  0  0  0  0  0
  139.8640   72.3920  221.6700 C   0  0  0  0  0  0  0  0  0  0  0  0
  140.3050   73.1850  222.5610 O   0  0  0  0  0  0  0  0  0  0  0  0
  139.0640   71.2110  222.0410 C   0  0  1  0  0  0  0  0  0  0  0  0
  139.9170   70.1440  222.7160 C   0  0  0  0  0  0  0  0  0  0  0  0
  139.8140   70.5010  224.1790 C   0  0  2  0  0  0  0  0  0  0  0  0
  140.1000   69.4280  225.0720 N   0  0  0  0  0  0  0  0  0  0  0  0
  138.9570   68.8590  225.7160 C   0  0  0  0  0  0  0  0  0  0  0  0
  141.0660   69.8250  226.0480 C   0  0  0  0  0  0  0  0  0  0  0  0
  138.5100   71.1920  224.3630 C   0  0  0  0  0  0  0  0  0  0  0  0
  138.0320   71.5380  223.0200 N   0  0  0  0  0  0  0  0  0  0  0  0
  136.7550   72.1050  222.7330 C   0  0  0  0  0  0  0  0  0  0  0  0
  135.7270   71.5500  223.2010 O   0  0  0  0  0  0  0  0  0  0  0  0
  136.6930   73.3330  221.8920 C   0  0  0  0  0  0  0  0  0  0  0  0
  137.6150   74.3500  222.3140 N   0  0  0  0  0  0  0  0  0  0  0  0
  137.2210   75.7080  222.1150 C   0  0  0  0  0  0  0  0  0  0  0  0
  136.0730   75.8590  221.5750 O   0  0  0  0  0  0  0  0  0  0  0  0
  138.0440   76.8440  222.4900 C   0  0  0  0  0  0  0  0  0  0  0  0
  137.4030   78.0420  222.7300 C   0  0  0  0  0  0  0  0  0  0  0  0
  138.0500   79.1980  223.0940 C   0  0  0  0  0  0  0  0  0  0  0  0
  139.4400   79.1360  223.2210 C   0  0  0  0  0  0  0  0  0  0  0  0
  140.1750   80.2490  223.5820 C   0  0  0  0  0  0  0  0  0  0  0  0
  141.5600   80.1910  223.7120 C   0  0  0  0  0  0  0  0  0  0  0  0
  142.4010   81.6410  224.1710 Cl  0  0  0  0  0  0  0  0  0  0  0  0
  142.1760   78.9890  223.4670 C   0  0  0  0  0  0  0  0  0  0  0  0
  141.4460   77.8630  223.1020 C   0  0  0  0  0  0  0  0  0  0  0  0
  140.0760   77.9370  222.9780 C   0  0  0  0  0  0  0  0  0  0  0  0
  139.3710   76.8160  222.6190 N   0  0  0  0  0  0  0  0  0  0  0  0
  142.3790   73.5940  220.2570 C   0  0  0  0  0  0  0  0  0  0  0  0
  143.2750   74.6650  220.2630 C   0  0  0  0  0  0  0  0  0  0  0  0
  144.6110   74.5150  220.5500 C   0  0  0  0  0  0  0  0  0  0  0  0
  145.0970   73.2560  220.8460 C   0  0  0  0  0  0  0  0  0  0  0  0
  144.2330   72.1850  220.8460 C   0  0  0  0  0  0  0  0  0  0  0  0
  142.8740   72.3200  220.5560 C   0  0  0  0  0  0  0  0  0  0  0  0
  140.4091   74.9799  221.6389 H   0  0  0  0  0  0  0  0  0  0  0  0
  140.9823   75.9138  220.2155 H   0  0  0  0  0  0  0  0  0  0  0  0
  139.3351   75.1972  220.2155 H   0  0  0  0  0  0  0  0  0  0  0  0
  140.8519   73.9209  218.8448 H   0  0  0  0  0  0  0  0  0  0  0  0
  139.7750   71.9820  219.5370 H   0  0  0  0  0  0  0  0  0  0  0  0
  138.6300   70.8544  221.0952 H   0  0  0  0  0  0  0  0  0  0  0  0
  139.5152   69.1379  222.5255 H   0  0  0  0  0  0  0  0  0  0  0  0
  140.9533   70.1209  222.3477 H   0  0  0  0  0  0  0  0  0  0  0  0
  140.6173   71.1946  224.4682 H   0  0  0  0  0  0  0  0  0  0  0  0
  139.0820   68.9212  226.8071 H   0  0  0  0  0  0  0  0  0  0  0  0
  138.0546   69.4131  225.4181 H   0  0  0  0  0  0  0  0  0  0  0  0
  138.8551   67.8050  225.4181 H   0  0  0  0  0  0  0  0  0  0  0  0
  140.6588   69.6577  227.0561 H   0  0  0  0  0  0  0  0  0  0  0  0
  141.9827   69.2307  225.9195 H   0  0  0  0  0  0  0  0  0  0  0  0
  141.2999   70.8921  225.9195 H   0  0  0  0  0  0  0  0  0  0  0  0
  137.7924   70.5240  224.8619 H   0  0  0  0  0  0  0  0  0  0  0  0
  138.6187   72.0885  224.9911 H   0  0  0  0  0  0  0  0  0  0  0  0
  136.9261   73.0581  220.8527 H   0  0  0  0  0  0  0  0  0  0  0  0
  135.6788   73.7476  221.9898 H   0  0  0  0  0  0  0  0  0  0  0  0
  138.5550   74.1510  222.7570 H   0  0  0  0  0  0  0  0  0  0  0  0
  136.3086   78.0734  222.6235 H   0  0  0  0  0  0  0  0  0  0  0  0
  137.4978   80.1315  223.2774 H   0  0  0  0  0  0  0  0  0  0  0  0
  139.6554   81.2000  223.7705 H   0  0  0  0  0  0  0  0  0  0  0  0
  143.2694   78.9149  223.5613 H   0  0  0  0  0  0  0  0  0  0  0  0
  141.9636   76.9112  222.9119 H   0  0  0  0  0  0  0  0  0  0  0  0
  142.8960   75.6706  220.0283 H   0  0  0  0  0  0  0  0  0  0  0  0
  145.2838   75.3853  220.5441 H   0  0  0  0  0  0  0  0  0  0  0  0
  146.1623   73.1114  221.0790 H   0  0  0  0  0  0  0  0  0  0  0  0
  144.6275   71.1859  221.0832 H   0  0  0  0  0  0  0  0  0  0  0  0
  142.2077   71.4448  220.5624 H   0  0  0  0  0  0  0  0  0  0  0  0
  1  2  1  0
  2  3  1  0
  3  4  1  0
  4  5  2  0
  4  6  1  0
  6  7  1  0
  7  8  1  0
  8  9  1  0
  9 10  1  0
  9 11  1  0
  8 12  1  0
 12 13  1  0
 13 14  1  0
 14 15  2  0
 14 16  1  0
 16 17  1  0
 17 18  1  0
 18 19  2  0
 18 20  1  0
 20 21  2  0
 21 22  1  0
 22 23  2  0
 23 24  1  0
 24 25  2  0
 25 26  1  0
 25 27  1  0
 27 28  2  0
 28 29  1  0
 29 30  2  0
  2 31  1  0
 31 32  2  0
 32 33  1  0
 33 34  2  0
 34 35  1  0
 35 36  2  0
 13  6  1  0
 30 20  1  0
 36 31  1  0
 29 23  1  0
  1 37  1  0
  1 38  1  0
  1 39  1  0
  2 40  1  6
  3 41  1  0
  6 42  1  6
  7 43  1  0
  7 44  1  0
  8 45  1  1
 10 46  1  0
 10 47  1  0
 10 48  1  0
 11 49  1  0
 11 50  1  0
 11 51  1  0
 12 52  1  0
 12 53  1  0
 16 54  1  0
 16 55  1  0
 17 56  1  0
 21 57  1  0
 22 58  1  0
 24 59  1  0
 27 60  1  0
 28 61  1  0
 32 62  1  0
 33 63  1  0
 34 64  1  0
 35 65  1  0
 36 66  1  0
M  END
>  <smiles>  (43) 
CC(NC(=O)[C@H]1C[C@H](N(C)C)CN1C(=O)CNC(=O)c1ccc2cc(Cl)ccc2n1)c1ccccc1

>  <score_type>  (43) 
oracle

>  <origin>  (43) 
autodockgpu

>  <m_score__min__energy>  (43) 
-9.8300000000000001

>  <m_primary>  (43) 
energy

>  <rmsd>  (43) 
7.954960624596693

>  <m_score__min__rmsd>  (43) 
7.954960624596693

>  <meeko>  (43) 
{"free_energy": -7.9, "intermolecular_energy": -10.29, "internal_energy": -3.21, "cluster_size": 1, "cluster_id": 7, "rank_in_cluster": 1}

>  <energy>  (43) 
-8.04

>  <cluster_rmsd>  (43) 
1.09

>  <cluster>  (43) 
4

$$$$

     RDKit          3D

 66 69  0  0  1  0  0  0  0  0999 V2000
  140.6720   72.1610  223.1570 C   0  0  0  0  0  0  0  0  0  0  0  0
  139.8130   71.1000  223.7860 C   0  0  2  0  0  0  0  0  0  0  0  0
  138.3990   71.2890  223.5020 N   0  0  0  0  0  0  0  0  0  0  0  0
  137.6580   70.1380  223.0560 C   0  0  0  0  0  0  0  0  0  0  0  0
  138.2240   69.0070  222.9220 O   0  0  0  0  0  0  0  0  0  0  0  0
  136.2240   70.3030  222.7590 C   0  0  1  0  0  0  0  0  0  0  0  0
  135.4940   68.9660  222.7500 C   0  0  0  0  0  0  0  0  0  0  0  0
  135.0390   68.8170  224.1820 C   0  0  2  0  0  0  0  0  0  0  0  0
  133.9430   67.9240  224.3650 N   0  0  0  0  0  0  0  0  0  0  0  0
  133.8570   67.3340  225.6650 C   0  0  0  0  0  0  0  0  0  0  0  0
  133.9460   66.9050  223.3630 C   0  0  0  0  0  0  0  0  0  0  0  0
  134.8780   70.1910  224.7270 C   0  0  0  0  0  0  0  0  0  0  0  0
  135.5430   71.0930  223.7810 N   0  0  0  0  0  0  0  0  0  0  0  0
  135.5190   72.5170  223.8610 C   0  0  0  0  0  0  0  0  0  0  0  0
  135.4430   73.0580  224.9950 O   0  0  0  0  0  0  0  0  0  0  0  0
  135.5870   73.3030  222.5980 C   0  0  0  0  0  0  0  0  0  0  0  0
  136.4180   74.4690  222.7050 N   0  0  0  0  0  0  0  0  0  0  0  0
  137.7500   74.3690  222.1970 C   0  0  0  0  0  0  0  0  0  0  0  0
  138.0480   73.2310  221.6980 O   0  0  0  0  0  0  0  0  0  0  0  0
  138.7050   75.4610  222.2350 C   0  0  0  0  0  0  0  0  0  0  0  0
  139.9750   75.2120  221.7570 C   0  0  0  0  0  0  0  0  0  0  0  0
  140.9800   76.1480  221.7280 C   0  0  0  0  0  0  0  0  0  0  0  0
  140.6790   77.4200  222.2180 C   0  0  0  0  0  0  0  0  0  0  0  0
  141.6270   78.4260  222.2290 C   0  0  0  0  0  0  0  0  0  0  0  0
  141.3300   79.6960  222.7140 C   0  0  0  0  0  0  0  0  0  0  0  0
  142.5870   80.8970  222.6890 Cl  0  0  0  0  0  0  0  0  0  0  0  0
  140.0610   79.9210  223.1860 C   0  0  0  0  0  0  0  0  0  0  0  0
  139.0990   78.9160  223.1790 C   0  0  0  0  0  0  0  0  0  0  0  0
  139.4090   77.6640  222.6960 C   0  0  0  0  0  0  0  0  0  0  0  0
  138.4470   76.6860  222.6960 N   0  0  0  0  0  0  0  0  0  0  0  0
  140.0710   70.9570  225.2590 C   0  0  0  0  0  0  0  0  0  0  0  0
  140.8520   71.8840  225.9510 C   0  0  0  0  0  0  0  0  0  0  0  0
  141.1100   71.7810  227.2980 C   0  0  0  0  0  0  0  0  0  0  0  0
  140.5780   70.7190  228.0030 C   0  0  0  0  0  0  0  0  0  0  0  0
  139.8050   69.7910  227.3420 C   0  0  0  0  0  0  0  0  0  0  0  0
  139.5350   69.8820  225.9760 C   0  0  0  0  0  0  0  0  0  0  0  0
  141.1546   72.7571  223.9455 H   0  0  0  0  0  0  0  0  0  0  0  0
  141.4431   71.6860  222.5326 H   0  0  0  0  0  0  0  0  0  0  0  0
  140.0470   72.8163  222.5326 H   0  0  0  0  0  0  0  0  0  0  0  0
  140.1066   70.1500  223.3155 H   0  0  0  0  0  0  0  0  0  0  0  0
  137.9460   72.2190  223.6160 H   0  0  0  0  0  0  0  0  0  0  0  0
  136.1938   70.7955  221.7759 H   0  0  0  0  0  0  0  0  0  0  0  0
  134.6354   68.9891  222.0628 H   0  0  0  0  0  0  0  0  0  0  0  0
  136.1227   68.1315  222.4062 H   0  0  0  0  0  0  0  0  0  0  0  0
  135.7991   68.2938  224.7807 H   0  0  0  0  0  0  0  0  0  0  0  0
  133.9709   68.1156  226.4306 H   0  0  0  0  0  0  0  0  0  0  0  0
  132.8782   66.8459  225.7821 H   0  0  0  0  0  0  0  0  0  0  0  0
  134.6557   66.5868  225.7821 H   0  0  0  0  0  0  0  0  0  0  0  0
  133.9489   65.9164  223.8454 H   0  0  0  0  0  0  0  0  0  0  0  0
  133.0476   67.0045  222.7362 H   0  0  0  0  0  0  0  0  0  0  0  0
  134.8438   67.0098  222.7362 H   0  0  0  0  0  0  0  0  0  0  0  0
  133.8109   70.4451  224.8087 H   0  0  0  0  0  0  0  0  0  0  0  0
  135.3161   70.2747  225.7325 H   0  0  0  0  0  0  0  0  0  0  0  0
  135.9908   72.6568  221.8047 H   0  0  0  0  0  0  0  0  0  0  0  0
  134.5672   73.6465  222.3698 H   0  0  0  0  0  0  0  0  0  0  0  0
  136.1030   75.3830  223.1330 H   0  0  0  0  0  0  0  0  0  0  0  0
  140.1960   74.2039  221.3764 H   0  0  0  0  0  0  0  0  0  0  0  0
  141.9787   75.9057  221.3356 H   0  0  0  0  0  0  0  0  0  0  0  0
  142.6372   78.2183  221.8464 H   0  0  0  0  0  0  0  0  0  0  0  0
  139.7995   80.9152  223.5774 H   0  0  0  0  0  0  0  0  0  0  0  0
  138.0880   79.1219  223.5603 H   0  0  0  0  0  0  0  0  0  0  0  0
  141.2790   72.7323  225.3959 H   0  0  0  0  0  0  0  0  0  0  0  0
  141.7309   72.5333  227.8064 H   0  0  0  0  0  0  0  0  0  0  0  0
  140.7699   70.6158  229.0812 H   0  0  0  0  0  0  0  0  0  0  0  0
  139.3854   68.9481  227.9108 H   0  0  0  0  0  0  0  0  0  0  0  0
  138.9144   69.1251  225.4740 H   0  0  0  0  0  0  0  0  0  0  0  0
  1  2  1  0
  2  3  1  0
  3  4  1  0
  4  5  2  0
  4  6  1  0
  6  7  1  0
  7  8  1  0
  8  9  1  0
  9 10  1  0
  9 11  1  0
  8 12  1  0
 12 13  1  0
 13 14  1  0
 14 15  2  0
 14 16  1  0
 16 17  1  0
 17 18  1  0
 18 19  2  0
 18 20  1  0
 20 21  2  0
 21 22  1  0
 22 23  2  0
 23 24  1  0
 24 25  2  0
 25 26  1  0
 25 27  1  0
 27 28  2  0
 28 29  1  0
 29 30  2  0
  2 31  1  0
 31 32  2  0
 32 33  1  0
 33 34  2  0
 34 35  1  0
 35 36  2  0
 13  6  1  0
 30 20  1  0
 36 31  1  0
 29 23  1  0
  1 37  1  0
  1 38  1  0
  1 39  1  0
  2 40  1  6
  3 41  1  0
  6 42  1  6
  7 43  1  0
  7 44  1  0
  8 45  1  1
 10 46  1  0
 10 47  1  0
 10 48  1  0
 11 49  1  0
 11 50  1  0
 11 51  1  0
 12 52  1  0
 12 53  1  0
 16 54  1  0
 16 55  1  0
 17 56  1  0
 21 57  1  0
 22 58  1  0
 24 59  1  0
 27 60  1  0
 28 61  1  0
 32 62  1  0
 33 63  1  0
 34 64  1  0
 35 65  1  0
 36 66  1  0
M  END
>  <smiles>  (44) 
CC(NC(=O)[C@H]1C[C@H](N(C)C)CN1C(=O)CNC(=O)c1ccc2cc(Cl)ccc2n1)c1ccccc1

>  <score_type>  (44) 
oracle

>  <origin>  (44) 
autodockgpu

>  <m_score__min__energy>  (44) 
-9.8300000000000001

>  <m_primary>  (44) 
energy

>  <rmsd>  (44) 
9.13615542491462

>  <m_score__min__rmsd>  (44) 
9.13615542491462

>  <meeko>  (44) 
{"free_energy": -8.36, "intermolecular_energy": -10.75, "internal_energy": -3.38, "cluster_size": 16, "cluster_id": 1, "rank_in_cluster": 15}

>  <energy>  (44) 
-7.72

>  <cluster_rmsd>  (44) 
1.47

>  <cluster>  (44) 
4

$$$$

     RDKit          3D

 66 69  0  0  1  0  0  0  0  0999 V2000
  138.6850   77.4460  221.3960 C   0  0  0  0  0  0  0  0  0  0  0  0
  140.0560   77.6410  220.8110 C   0  0  2  0  0  0  0  0  0  0  0  0
  140.6440   76.3950  220.3460 N   0  0  0  0  0  0  0  0  0  0  0  0
  141.7180   76.4900  219.3920 C   0  0  0  0  0  0  0  0  0  0  0  0
  142.1320   77.6210  218.9830 O   0  0  0  0  0  0  0  0  0  0  0  0
  142.3300   75.2420  218.9020 C   0  0  1  0  0  0  0  0  0  0  0  0
  143.7510   75.0700  219.4240 C   0  0  0  0  0  0  0  0  0  0  0  0
  143.5520   74.3050  220.7090 C   0  0  2  0  0  0  0  0  0  0  0  0
  144.7020   73.5940  221.1600 N   0  0  0  0  0  0  0  0  0  0  0  0
  145.9540   74.1900  220.8110 C   0  0  0  0  0  0  0  0  0  0  0  0
  144.6640   72.2360  220.7150 C   0  0  0  0  0  0  0  0  0  0  0  0
  142.3000   73.5160  220.5510 C   0  0  0  0  0  0  0  0  0  0  0  0
  141.6130   74.0620  219.3750 N   0  0  0  0  0  0  0  0  0  0  0  0
  140.4300   73.5120  218.7980 C   0  0  0  0  0  0  0  0  0  0  0  0
  140.4510   73.1660  217.5880 O   0  0  0  0  0  0  0  0  0  0  0  0
  139.2200   73.3680  219.6540 C   0  0  0  0  0  0  0  0  0  0  0  0
  139.3660   72.3630  220.6690 N   0  0  0  0  0  0  0  0  0  0  0  0
  139.6660   72.8110  221.9920 C   0  0  0  0  0  0  0  0  0  0  0  0
  139.7700   74.0780  222.1170 O   0  0  0  0  0  0  0  0  0  0  0  0
  139.8410   71.9150  223.1200 C   0  0  0  0  0  0  0  0  0  0  0  0
  139.4480   70.6030  222.9570 C   0  0  0  0  0  0  0  0  0  0  0  0
  139.5540   69.6430  223.9340 C   0  0  0  0  0  0  0  0  0  0  0  0
  140.0940   70.0400  225.1590 C   0  0  0  0  0  0  0  0  0  0  0  0
  140.2400   69.1440  226.2010 C   0  0  0  0  0  0  0  0  0  0  0  0
  140.7800   69.5350  227.4220 C   0  0  0  0  0  0  0  0  0  0  0  0
  140.9240   68.3380  228.6750 Cl  0  0  0  0  0  0  0  0  0  0  0  0
  141.1640   70.8450  227.5630 C   0  0  0  0  0  0  0  0  0  0  0  0
  141.0220   71.7560  226.5210 C   0  0  0  0  0  0  0  0  0  0  0  0
  140.4850   71.3530  225.3180 C   0  0  0  0  0  0  0  0  0  0  0  0
  140.3530   72.2640  224.3020 N   0  0  0  0  0  0  0  0  0  0  0  0
  140.9750   78.3750  221.7470 C   0  0  0  0  0  0  0  0  0  0  0  0
  141.7160   79.4770  221.3200 C   0  0  0  0  0  0  0  0  0  0  0  0
  142.5670   80.1680  222.1500 C   0  0  0  0  0  0  0  0  0  0  0  0
  142.7010   79.7610  223.4630 C   0  0  0  0  0  0  0  0  0  0  0  0
  141.9810   78.6750  223.9080 C   0  0  0  0  0  0  0  0  0  0  0  0
  141.1130   77.9630  223.0780 C   0  0  0  0  0  0  0  0  0  0  0  0
  138.7502   77.4553  222.4940 H   0  0  0  0  0  0  0  0  0  0  0  0
  138.0243   78.2592  221.0610 H   0  0  0  0  0  0  0  0  0  0  0  0
  138.2773   76.4808  221.0610 H   0  0  0  0  0  0  0  0  0  0  0  0
  139.9231   78.2790  219.9249 H   0  0  0  0  0  0  0  0  0  0  0  0
  140.2990   75.4750  220.6880 H   0  0  0  0  0  0  0  0  0  0  0  0
  142.3013   75.3239  217.8054 H   0  0  0  0  0  0  0  0  0  0  0  0
  144.3660   74.4971  218.7143 H   0  0  0  0  0  0  0  0  0  0  0  0
  144.2785   76.0248  219.5659 H   0  0  0  0  0  0  0  0  0  0  0  0
  143.4232   74.9944  221.5564 H   0  0  0  0  0  0  0  0  0  0  0  0
  146.5036   74.4516  221.7272 H   0  0  0  0  0  0  0  0  0  0  0  0
  146.5468   73.4775  220.2186 H   0  0  0  0  0  0  0  0  0  0  0  0
  145.7747   75.0994  220.2186 H   0  0  0  0  0  0  0  0  0  0  0  0
  144.6452   71.5650  221.5864 H   0  0  0  0  0  0  0  0  0  0  0  0
  143.7610   72.0742  220.1081 H   0  0  0  0  0  0  0  0  0  0  0  0
  145.5566   72.0239  220.1081 H   0  0  0  0  0  0  0  0  0  0  0  0
  142.5370   72.4534  220.3941 H   0  0  0  0  0  0  0  0  0  0  0  0
  141.6690   73.5844  221.4494 H   0  0  0  0  0  0  0  0  0  0  0  0
  139.0197   74.3329  220.1427 H   0  0  0  0  0  0  0  0  0  0  0  0
  138.3908   73.0577  219.0013 H   0  0  0  0  0  0  0  0  0  0  0  0
  139.2660   71.3250  220.4930 H   0  0  0  0  0  0  0  0  0  0  0  0
  139.0240   70.3074  221.9860 H   0  0  0  0  0  0  0  0  0  0  0  0
  139.2278   68.6072  223.7590 H   0  0  0  0  0  0  0  0  0  0  0  0
  139.9227   68.1000  226.0620 H   0  0  0  0  0  0  0  0  0  0  0  0
  141.5925   71.1814  228.5186 H   0  0  0  0  0  0  0  0  0  0  0  0
  141.3392   72.8003  226.6580 H   0  0  0  0  0  0  0  0  0  0  0  0
  141.6153   79.8070  220.2755 H   0  0  0  0  0  0  0  0  0  0  0  0
  143.1331   81.0328  221.7736 H   0  0  0  0  0  0  0  0  0  0  0  0
  143.3755   80.2985  224.1457 H   0  0  0  0  0  0  0  0  0  0  0  0
  142.0937   78.3570  224.9550 H   0  0  0  0  0  0  0  0  0  0  0  0
  140.5507   77.0986  223.4608 H   0  0  0  0  0  0  0  0  0  0  0  0
  1  2  1  0
  2  3  1  0
  3  4  1  0
  4  5  2  0
  4  6  1  0
  6  7  1  0
  7  8  1  0
  8  9  1  0
  9 10  1  0
  9 11  1  0
  8 12  1  0
 12 13  1  0
 13 14  1  0
 14 15  2  0
 14 16  1  0
 16 17  1  0
 17 18  1  0
 18 19  2  0
 18 20  1  0
 20 21  2  0
 21 22  1  0
 22 23  2  0
 23 24  1  0
 24 25  2  0
 25 26  1  0
 25 27  1  0
 27 28  2  0
 28 29  1  0
 29 30  2  0
  2 31  1  0
 31 32  2  0
 32 33  1  0
 33 34  2  0
 34 35  1  0
 35 36  2  0
 13  6  1  0
 30 20  1  0
 36 31  1  0
 29 23  1  0
  1 37  1  0
  1 38  1  0
  1 39  1  0
  2 40  1  6
  3 41  1  0
  6 42  1  6
  7 43  1  0
  7 44  1  0
  8 45  1  1
 10 46  1  0
 10 47  1  0
 10 48  1  0
 11 49  1  0
 11 50  1  0
 11 51  1  0
 12 52  1  0
 12 53  1  0
 16 54  1  0
 16 55  1  0
 17 56  1  0
 21 57  1  0
 22 58  1  0
 24 59  1  0
 27 60  1  0
 28 61  1  0
 32 62  1  0
 33 63  1  0
 34 64  1  0
 35 65  1  0
 36 66  1  0
M  END
>  <smiles>  (45) 
CC(NC(=O)[C@H]1C[C@H](N(C)C)CN1C(=O)CNC(=O)c1ccc2cc(Cl)ccc2n1)c1ccccc1

>  <score_type>  (45) 
oracle

>  <origin>  (45) 
autodockgpu

>  <m_score__min__energy>  (45) 
-9.8300000000000001

>  <m_primary>  (45) 
energy

>  <rmsd>  (45) 
3.346472865149686

>  <m_score__min__rmsd>  (45) 
3.346472865149686

>  <meeko>  (45) 
{"free_energy": -8.81, "intermolecular_energy": -11.19, "internal_energy": -3.21, "cluster_size": 20, "cluster_id": 2, "rank_in_cluster": 15}

>  <energy>  (45) 
-8.32

>  <cluster_rmsd>  (45) 
0.0

>  <cluster>  (45) 
5

$$$$

     RDKit          3D

 66 69  0  0  1  0  0  0  0  0999 V2000
  138.7810   77.7000  220.7340 C   0  0  0  0  0  0  0  0  0  0  0  0
  140.2540   77.7270  220.4340 C   0  0  2  0  0  0  0  0  0  0  0  0
  140.7720   76.4170  220.0720 N   0  0  0  0  0  0  0  0  0  0  0  0
  141.7850   76.3690  219.0500 C   0  0  0  0  0  0  0  0  0  0  0  0
  142.2040   77.4340  218.4940 O   0  0  0  0  0  0  0  0  0  0  0  0
  142.3250   75.0540  218.6620 C   0  0  1  0  0  0  0  0  0  0  0  0
  143.7500   74.8620  219.1650 C   0  0  0  0  0  0  0  0  0  0  0  0
  143.5520   74.2270  220.5200 C   0  0  2  0  0  0  0  0  0  0  0  0
  144.6800   73.5060  221.0070 N   0  0  0  0  0  0  0  0  0  0  0  0
  145.9350   74.1760  220.8580 C   0  0  0  0  0  0  0  0  0  0  0  0
  144.7450   72.2070  220.4150 C   0  0  0  0  0  0  0  0  0  0  0  0
  142.2620   73.4890  220.4640 C   0  0  0  0  0  0  0  0  0  0  0  0
  141.5680   73.9570  219.2590 N   0  0  0  0  0  0  0  0  0  0  0  0
  140.3460   73.4150  218.7620 C   0  0  0  0  0  0  0  0  0  0  0  0
  140.3140   72.9700  217.5850 O   0  0  0  0  0  0  0  0  0  0  0  0
  139.1580   73.3950  219.6610 C   0  0  0  0  0  0  0  0  0  0  0  0
  139.2460   72.3950  220.6880 N   0  0  0  0  0  0  0  0  0  0  0  0
  139.6590   72.8280  221.9850 C   0  0  0  0  0  0  0  0  0  0  0  0
  139.9040   74.0790  222.0790 O   0  0  0  0  0  0  0  0  0  0  0  0
  139.7940   71.9350  223.1220 C   0  0  0  0  0  0  0  0  0  0  0  0
  139.3170   70.6480  222.9790 C   0  0  0  0  0  0  0  0  0  0  0  0
  139.3770   69.6950  223.9660 C   0  0  0  0  0  0  0  0  0  0  0  0
  139.9580   70.0710  225.1790 C   0  0  0  0  0  0  0  0  0  0  0  0
  140.0630   69.1790  226.2300 C   0  0  0  0  0  0  0  0  0  0  0  0
  140.6430   69.5490  227.4390 C   0  0  0  0  0  0  0  0  0  0  0  0
  140.7310   68.3590  228.7040 Cl  0  0  0  0  0  0  0  0  0  0  0  0
  141.1100   70.8340  227.5590 C   0  0  0  0  0  0  0  0  0  0  0  0
  141.0100   71.7400  226.5080 C   0  0  0  0  0  0  0  0  0  0  0  0
  140.4320   71.3580  225.3170 C   0  0  0  0  0  0  0  0  0  0  0  0
  140.3430   72.2650  224.2920 N   0  0  0  0  0  0  0  0  0  0  0  0
  141.0500   78.3540  221.5440 C   0  0  0  0  0  0  0  0  0  0  0  0
  141.0900   77.7850  222.8180 C   0  0  0  0  0  0  0  0  0  0  0  0
  141.8050   78.3340  223.8550 C   0  0  0  0  0  0  0  0  0  0  0  0
  142.5160   79.4990  223.6370 C   0  0  0  0  0  0  0  0  0  0  0  0
  142.4920   80.0790  222.3900 C   0  0  0  0  0  0  0  0  0  0  0  0
  141.7700   79.5330  221.3260 C   0  0  0  0  0  0  0  0  0  0  0  0
  138.6287   77.6972  221.8234 H   0  0  0  0  0  0  0  0  0  0  0  0
  138.3019   78.5895  220.2990 H   0  0  0  0  0  0  0  0  0  0  0  0
  138.3348   76.7935  220.2990 H   0  0  0  0  0  0  0  0  0  0  0  0
  140.3745   78.3703  219.5499 H   0  0  0  0  0  0  0  0  0  0  0  0
  140.4220   75.5530  220.5340 H   0  0  0  0  0  0  0  0  0  0  0  0
  142.2695   75.0373  217.5635 H   0  0  0  0  0  0  0  0  0  0  0  0
  144.3185   74.1982  218.4970 H   0  0  0  0  0  0  0  0  0  0  0  0
  144.3239   75.7995  219.2065 H   0  0  0  0  0  0  0  0  0  0  0  0
  143.4786   74.9952  221.3038 H   0  0  0  0  0  0  0  0  0  0  0  0
  146.3520   74.3986  221.8513 H   0  0  0  0  0  0  0  0  0  0  0  0
  146.6320   73.5300  220.3041 H   0  0  0  0  0  0  0  0  0  0  0  0
  145.7861   75.1146  220.3041 H   0  0  0  0  0  0  0  0  0  0  0  0
  144.7831   71.4446  221.2070 H   0  0  0  0  0  0  0  0  0  0  0  0
  143.8539   72.0434  219.7911 H   0  0  0  0  0  0  0  0  0  0  0  0
  145.6480   72.1331  219.7911 H   0  0  0  0  0  0  0  0  0  0  0  0
  142.4457   72.4063  220.4007 H   0  0  0  0  0  0  0  0  0  0  0  0
  141.6597   73.6704  221.3664 H   0  0  0  0  0  0  0  0  0  0  0  0
  139.0643   74.3810  220.1395 H   0  0  0  0  0  0  0  0  0  0  0  0
  138.2817   73.1531  219.0416 H   0  0  0  0  0  0  0  0  0  0  0  0
  139.0270   71.3710  220.5380 H   0  0  0  0  0  0  0  0  0  0  0  0
  138.8617   70.3689  222.0174 H   0  0  0  0  0  0  0  0  0  0  0  0
  138.9845   68.6796  223.8080 H   0  0  0  0  0  0  0  0  0  0  0  0
  139.6799   68.1552  226.1076 H   0  0  0  0  0  0  0  0  0  0  0  0
  141.5723   71.1537  228.5045 H   0  0  0  0  0  0  0  0  0  0  0  0
  141.3934   72.7640  226.6281 H   0  0  0  0  0  0  0  0  0  0  0  0
  140.5256   76.8584  222.9993 H   0  0  0  0  0  0  0  0  0  0  0  0
  141.8114   77.8533  224.8444 H   0  0  0  0  0  0  0  0  0  0  0  0
  143.0950   79.9575  224.4522 H   0  0  0  0  0  0  0  0  0  0  0  0
  143.0615   81.0055  222.2247 H   0  0  0  0  0  0  0  0  0  0  0  0
  141.7678   80.0192  220.3393 H   0  0  0  0  0  0  0  0  0  0  0  0
  1  2  1  0
  2  3  1  0
  3  4  1  0
  4  5  2  0
  4  6  1  0
  6  7  1  0
  7  8  1  0
  8  9  1  0
  9 10  1  0
  9 11  1  0
  8 12  1  0
 12 13  1  0
 13 14  1  0
 14 15  2  0
 14 16  1  0
 16 17  1  0
 17 18  1  0
 18 19  2  0
 18 20  1  0
 20 21  2  0
 21 22  1  0
 22 23  2  0
 23 24  1  0
 24 25  2  0
 25 26  1  0
 25 27  1  0
 27 28  2  0
 28 29  1  0
 29 30  2  0
  2 31  1  0
 31 32  2  0
 32 33  1  0
 33 34  2  0
 34 35  1  0
 35 36  2  0
 13  6  1  0
 30 20  1  0
 36 31  1  0
 29 23  1  0
  1 37  1  0
  1 38  1  0
  1 39  1  0
  2 40  1  6
  3 41  1  0
  6 42  1  6
  7 43  1  0
  7 44  1  0
  8 45  1  1
 10 46  1  0
 10 47  1  0
 10 48  1  0
 11 49  1  0
 11 50  1  0
 11 51  1  0
 12 52  1  0
 12 53  1  0
 16 54  1  0
 16 55  1  0
 17 56  1  0
 21 57  1  0
 22 58  1  0
 24 59  1  0
 27 60  1  0
 28 61  1  0
 32 62  1  0
 33 63  1  0
 34 64  1  0
 35 65  1  0
 36 66  1  0
M  END
>  <smiles>  (46) 
CC(NC(=O)[C@H]1C[C@H](N(C)C)CN1C(=O)CNC(=O)c1ccc2cc(Cl)ccc2n1)c1ccccc1

>  <score_type>  (46) 
oracle

>  <origin>  (46) 
autodockgpu

>  <m_score__min__energy>  (46) 
-9.8300000000000001

>  <m_primary>  (46) 
energy

>  <rmsd>  (46) 
3.5663981193296856

>  <m_score__min__rmsd>  (46) 
3.5663981193296856

>  <meeko>  (46) 
{"free_energy": -8.85, "intermolecular_energy": -11.23, "internal_energy": -3.13, "cluster_size": 20, "cluster_id": 2, "rank_in_cluster": 13}

>  <energy>  (46) 
-8.1

>  <cluster_rmsd>  (46) 
0.0

>  <cluster>  (46) 
6

$$$$

     RDKit          3D

 66 69  0  0  1  0  0  0  0  0999 V2000
  142.1950   79.3640  223.5290 C   0  0  0  0  0  0  0  0  0  0  0  0
  141.1990   78.3290  223.0850 C   0  0  2  0  0  0  0  0  0  0  0  0
  141.5150   77.7780  221.7770 N   0  0  0  0  0  0  0  0  0  0  0  0
  141.1330   76.4120  221.5280 C   0  0  0  0  0  0  0  0  0  0  0  0
  140.5410   75.7260  222.4210 O   0  0  0  0  0  0  0  0  0  0  0  0
  141.4440   75.8290  220.2110 C   0  0  1  0  0  0  0  0  0  0  0  0
  142.9410   75.6110  220.0330 C   0  0  0  0  0  0  0  0  0  0  0  0
  143.1450   74.2070  220.5480 C   0  0  2  0  0  0  0  0  0  0  0  0
  144.3250   73.5670  220.0710 N   0  0  0  0  0  0  0  0  0  0  0  0
  144.2670   72.1380  220.0450 C   0  0  0  0  0  0  0  0  0  0  0  0
  145.4700   73.9980  220.8090 C   0  0  0  0  0  0  0  0  0  0  0  0
  141.8630   73.4820  220.3420 C   0  0  0  0  0  0  0  0  0  0  0  0
  140.8520   74.5040  220.0490 N   0  0  0  0  0  0  0  0  0  0  0  0
  139.5060   74.2290  219.6670 C   0  0  0  0  0  0  0  0  0  0  0  0
  139.2610   73.9570  218.4620 O   0  0  0  0  0  0  0  0  0  0  0  0
  138.4460   74.2720  220.7120 C   0  0  0  0  0  0  0  0  0  0  0  0
  138.8310   73.6170  221.9310 N   0  0  0  0  0  0  0  0  0  0  0  0
  138.7780   72.1890  221.9470 C   0  0  0  0  0  0  0  0  0  0  0  0
  138.3880   71.6550  220.8540 O   0  0  0  0  0  0  0  0  0  0  0  0
  139.1370   71.3880  223.1030 C   0  0  0  0  0  0  0  0  0  0  0  0
  138.7930   70.0520  223.0830 C   0  0  0  0  0  0  0  0  0  0  0  0
  139.0680   69.1740  224.1030 C   0  0  0  0  0  0  0  0  0  0  0  0
  139.7340   69.6840  225.2190 C   0  0  0  0  0  0  0  0  0  0  0  0
  140.0530   68.8760  226.2940 C   0  0  0  0  0  0  0  0  0  0  0  0
  140.7190   69.3800  227.4070 C   0  0  0  0  0  0  0  0  0  0  0  0
  141.0770   68.2880  228.7110 Cl  0  0  0  0  0  0  0  0  0  0  0  0
  141.0500   70.7120  227.4070 C   0  0  0  0  0  0  0  0  0  0  0  0
  140.7340   71.5350  226.3300 C   0  0  0  0  0  0  0  0  0  0  0  0
  140.0750   71.0210  225.2350 C   0  0  0  0  0  0  0  0  0  0  0  0
  139.7720   71.8460  224.1830 N   0  0  0  0  0  0  0  0  0  0  0  0
  139.7860   78.8350  223.1500 C   0  0  0  0  0  0  0  0  0  0  0  0
  138.7190   78.0710  222.6740 C   0  0  0  0  0  0  0  0  0  0  0  0
  137.4150   78.5060  222.7150 C   0  0  0  0  0  0  0  0  0  0  0  0
  137.1400   79.7500  223.2490 C   0  0  0  0  0  0  0  0  0  0  0  0
  138.1750   80.5230  223.7240 C   0  0  0  0  0  0  0  0  0  0  0  0
  139.5040   80.0950  223.6890 C   0  0  0  0  0  0  0  0  0  0  0  0
  142.2255   79.3957  224.6281 H   0  0  0  0  0  0  0  0  0  0  0  0
  143.1913   79.1040  223.1419 H   0  0  0  0  0  0  0  0  0  0  0  0
  141.8969   80.3495  223.1419 H   0  0  0  0  0  0  0  0  0  0  0  0
  141.2769   77.5004  223.8042 H   0  0  0  0  0  0  0  0  0  0  0  0
  141.9980   78.3490  221.0540 H   0  0  0  0  0  0  0  0  0  0  0  0
  141.0424   76.5470  219.4808 H   0  0  0  0  0  0  0  0  0  0  0  0
  143.2284   75.6890  218.9741 H   0  0  0  0  0  0  0  0  0  0  0  0
  143.5528   76.3583  220.5595 H   0  0  0  0  0  0  0  0  0  0  0  0
  143.3684   74.2156  221.6251 H   0  0  0  0  0  0  0  0  0  0  0  0
  144.2514   71.7529  221.0753 H   0  0  0  0  0  0  0  0  0  0  0  0
  143.3551   71.8175  219.5199 H   0  0  0  0  0  0  0  0  0  0  0  0
  145.1499   71.7447  219.5199 H   0  0  0  0  0  0  0  0  0  0  0  0
  145.2625   73.9199  221.8864 H   0  0  0  0  0  0  0  0  0  0  0  0
  146.3309   73.3624  220.5544 H   0  0  0  0  0  0  0  0  0  0  0  0
  145.6981   75.0435  220.5544 H   0  0  0  0  0  0  0  0  0  0  0  0
  141.9528   72.7826  219.4977 H   0  0  0  0  0  0  0  0  0  0  0  0
  141.5900   72.8940  221.2307 H   0  0  0  0  0  0  0  0  0  0  0  0
  138.2181   75.3244  220.9367 H   0  0  0  0  0  0  0  0  0  0  0  0
  137.5707   73.7375  220.3142 H   0  0  0  0  0  0  0  0  0  0  0  0
  139.1450   74.1250  222.8030 H   0  0  0  0  0  0  0  0  0  0  0  0
  138.2669   69.6668  222.1970 H   0  0  0  0  0  0  0  0  0  0  0  0
  138.7761   68.1151  224.0431 H   0  0  0  0  0  0  0  0  0  0  0  0
  139.7745   67.8121  226.2692 H   0  0  0  0  0  0  0  0  0  0  0  0
  141.5752   71.1373  228.2749 H   0  0  0  0  0  0  0  0  0  0  0  0
  141.0113   72.5992  226.3533 H   0  0  0  0  0  0  0  0  0  0  0  0
  138.9302   77.0790  222.2481 H   0  0  0  0  0  0  0  0  0  0  0  0
  136.6030   77.8727  222.3283 H   0  0  0  0  0  0  0  0  0  0  0  0
  136.1047   80.1189  223.2941 H   0  0  0  0  0  0  0  0  0  0  0  0
  137.9474   81.5129  224.1461 H   0  0  0  0  0  0  0  0  0  0  0  0
  140.3110   80.7342  224.0765 H   0  0  0  0  0  0  0  0  0  0  0  0
  1  2  1  0
  2  3  1  0
  3  4  1  0
  4  5  2  0
  4  6  1  0
  6  7  1  0
  7  8  1  0
  8  9  1  0
  9 10  1  0
  9 11  1  0
  8 12  1  0
 12 13  1  0
 13 14  1  0
 14 15  2  0
 14 16  1  0
 16 17  1  0
 17 18  1  0
 18 19  2  0
 18 20  1  0
 20 21  2  0
 21 22  1  0
 22 23  2  0
 23 24  1  0
 24 25  2  0
 25 26  1  0
 25 27  1  0
 27 28  2  0
 28 29  1  0
 29 30  2  0
  2 31  1  0
 31 32  2  0
 32 33  1  0
 33 34  2  0
 34 35  1  0
 35 36  2  0
 13  6  1  0
 30 20  1  0
 36 31  1  0
 29 23  1  0
  1 37  1  0
  1 38  1  0
  1 39  1  0
  2 40  1  1
  3 41  1  0
  6 42  1  6
  7 43  1  0
  7 44  1  0
  8 45  1  1
 10 46  1  0
 10 47  1  0
 10 48  1  0
 11 49  1  0
 11 50  1  0
 11 51  1  0
 12 52  1  0
 12 53  1  0
 16 54  1  0
 16 55  1  0
 17 56  1  0
 21 57  1  0
 22 58  1  0
 24 59  1  0
 27 60  1  0
 28 61  1  0
 32 62  1  0
 33 63  1  0
 34 64  1  0
 35 65  1  0
 36 66  1  0
M  END
>  <smiles>  (47) 
CC(NC(=O)[C@H]1C[C@H](N(C)C)CN1C(=O)CNC(=O)c1ccc2cc(Cl)ccc2n1)c1ccccc1

>  <score_type>  (47) 
oracle

>  <origin>  (47) 
autodockgpu

>  <m_score__min__energy>  (47) 
-9.8300000000000001

>  <m_primary>  (47) 
energy

>  <rmsd>  (47) 
2.60466073669275

>  <m_score__min__rmsd>  (47) 
2.60466073669275

>  <meeko>  (47) 
{"free_energy": -9.2, "intermolecular_energy": -11.58, "internal_energy": -2.91, "cluster_size": 20, "cluster_id": 2, "rank_in_cluster": 6}

>  <energy>  (47) 
-7.9

>  <cluster_rmsd>  (47) 
0.0

>  <cluster>  (47) 
7

$$$$

     RDKit          3D

 66 69  0  0  1  0  0  0  0  0999 V2000
  139.7960   70.0120  223.0220 C   0  0  0  0  0  0  0  0  0  0  0  0
  139.0560   69.4320  224.1940 C   0  0  2  0  0  0  0  0  0  0  0  0
  137.6130   69.5470  224.0520 N   0  0  0  0  0  0  0  0  0  0  0  0
  137.0750   70.8670  223.8510 C   0  0  0  0  0  0  0  0  0  0  0  0
  137.8370   71.8830  223.7980 O   0  0  0  0  0  0  0  0  0  0  0  0
  135.6150   71.0120  223.7060 C   0  0  1  0  0  0  0  0  0  0  0  0
  134.8790   69.7530  224.1480 C   0  0  0  0  0  0  0  0  0  0  0  0
  134.6200   70.0080  225.6130 C   0  0  2  0  0  0  0  0  0  0  0  0
  133.5500   69.2450  226.1660 N   0  0  0  0  0  0  0  0  0  0  0  0
  133.4850   67.8870  225.7210 C   0  0  0  0  0  0  0  0  0  0  0  0
  132.2970   69.8940  225.9450 C   0  0  0  0  0  0  0  0  0  0  0  0
  134.5460   71.4830  225.7870 C   0  0  0  0  0  0  0  0  0  0  0  0
  135.0860   72.0730  224.5570 N   0  0  0  0  0  0  0  0  0  0  0  0
  135.0850   73.4670  224.2570 C   0  0  0  0  0  0  0  0  0  0  0  0
  134.8790   74.2880  225.1880 O   0  0  0  0  0  0  0  0  0  0  0  0
  135.3320   73.8920  222.8510 C   0  0  0  0  0  0  0  0  0  0  0  0
  136.6790   73.6490  222.4180 N   0  0  0  0  0  0  0  0  0  0  0  0
  137.5480   74.7800  222.3280 C   0  0  0  0  0  0  0  0  0  0  0  0
  137.0120   75.8940  222.6500 O   0  0  0  0  0  0  0  0  0  0  0  0
  138.9340   74.6920  221.9060 C   0  0  0  0  0  0  0  0  0  0  0  0
  139.5710   75.8680  221.5660 C   0  0  0  0  0  0  0  0  0  0  0  0
  140.8780   75.9400  221.1510 C   0  0  0  0  0  0  0  0  0  0  0  0
  141.5880   74.7400  221.0750 C   0  0  0  0  0  0  0  0  0  0  0  0
  142.9090   74.7140  220.6680 C   0  0  0  0  0  0  0  0  0  0  0  0
  143.6200   73.5200  220.5930 C   0  0  0  0  0  0  0  0  0  0  0  0
  145.2770   73.5860  220.0710 Cl  0  0  0  0  0  0  0  0  0  0  0  0
  142.9670   72.3630  220.9360 C   0  0  0  0  0  0  0  0  0  0  0  0
  141.6380   72.3770  221.3470 C   0  0  0  0  0  0  0  0  0  0  0  0
  140.9470   73.5670  221.4160 C   0  0  0  0  0  0  0  0  0  0  0  0
  139.6380   73.5620  221.8240 N   0  0  0  0  0  0  0  0  0  0  0  0
  139.5330   69.9950  225.5040 C   0  0  0  0  0  0  0  0  0  0  0  0
  139.2200   69.3760  226.7150 C   0  0  0  0  0  0  0  0  0  0  0  0
  139.6380   69.8670  227.9300 C   0  0  0  0  0  0  0  0  0  0  0  0
  140.4000   71.0190  227.9620 C   0  0  0  0  0  0  0  0  0  0  0  0
  140.7200   71.6470  226.7800 C   0  0  0  0  0  0  0  0  0  0  0  0
  140.3030   71.1620  225.5390 C   0  0  0  0  0  0  0  0  0  0  0  0
  140.6133   70.6526  223.3850 H   0  0  0  0  0  0  0  0  0  0  0  0
  140.2123   69.1971  222.4115 H   0  0  0  0  0  0  0  0  0  0  0  0
  139.1042   70.6109  222.4115 H   0  0  0  0  0  0  0  0  0  0  0  0
  139.2894   68.3571  224.2021 H   0  0  0  0  0  0  0  0  0  0  0  0
  136.9990   68.7080  224.0950 H   0  0  0  0  0  0  0  0  0  0  0  0
  135.4560   71.2289  222.6394 H   0  0  0  0  0  0  0  0  0  0  0  0
  133.9359   69.6316  223.5950 H   0  0  0  0  0  0  0  0  0  0  0  0
  135.4484   68.8303  223.9626 H   0  0  0  0  0  0  0  0  0  0  0  0
  135.4495   69.6282  226.2276 H   0  0  0  0  0  0  0  0  0  0  0  0
  133.4529   67.2167  226.5926 H   0  0  0  0  0  0  0  0  0  0  0  0
  132.5789   67.7430  225.1141 H   0  0  0  0  0  0  0  0  0  0  0  0
  134.3732   67.6571  225.1141 H   0  0  0  0  0  0  0  0  0  0  0  0
  131.8329   70.1344  226.9129 H   0  0  0  0  0  0  0  0  0  0  0  0
  132.4596   70.8212  225.3760 H   0  0  0  0  0  0  0  0  0  0  0  0
  131.6335   69.2262  225.3760 H   0  0  0  0  0  0  0  0  0  0  0  0
  133.5019   71.7969  225.9329 H   0  0  0  0  0  0  0  0  0  0  0  0
  135.1159   71.8095  226.6694 H   0  0  0  0  0  0  0  0  0  0  0  0
  134.6471   73.3379  222.1923 H   0  0  0  0  0  0  0  0  0  0  0  0
  135.1623   74.9777  222.8017 H   0  0  0  0  0  0  0  0  0  0  0  0
  137.0570   72.6940  222.1650 H   0  0  0  0  0  0  0  0  0  0  0  0
  138.9972   76.8042  221.6313 H   0  0  0  0  0  0  0  0  0  0  0  0
  141.3453   76.9010  220.8899 H   0  0  0  0  0  0  0  0  0  0  0  0
  143.4082   75.6562  220.3980 H   0  0  0  0  0  0  0  0  0  0  0  0
  143.5052   71.4050  220.8850 H   0  0  0  0  0  0  0  0  0  0  0  0
  141.1375   71.4356  221.6176 H   0  0  0  0  0  0  0  0  0  0  0  0
  138.6143   68.4580  226.6971 H   0  0  0  0  0  0  0  0  0  0  0  0
  139.3694   69.3498  228.8629 H   0  0  0  0  0  0  0  0  0  0  0  0
  140.7471   71.4297  228.9216 H   0  0  0  0  0  0  0  0  0  0  0  0
  141.3262   72.5642  226.8142 H   0  0  0  0  0  0  0  0  0  0  0  0
  140.5738   71.6856  224.6103 H   0  0  0  0  0  0  0  0  0  0  0  0
  1  2  1  0
  2  3  1  0
  3  4  1  0
  4  5  2  0
  4  6  1  0
  6  7  1  0
  7  8  1  0
  8  9  1  0
  9 10  1  0
  9 11  1  0
  8 12  1  0
 12 13  1  0
 13 14  1  0
 14 15  2  0
 14 16  1  0
 16 17  1  0
 17 18  1  0
 18 19  2  0
 18 20  1  0
 20 21  2  0
 21 22  1  0
 22 23  2  0
 23 24  1  0
 24 25  2  0
 25 26  1  0
 25 27  1  0
 27 28  2  0
 28 29  1  0
 29 30  2  0
  2 31  1  0
 31 32  2  0
 32 33  1  0
 33 34  2  0
 34 35  1  0
 35 36  2  0
 13  6  1  0
 30 20  1  0
 36 31  1  0
 29 23  1  0
  1 37  1  0
  1 38  1  0
  1 39  1  0
  2 40  1  1
  3 41  1  0
  6 42  1  6
  7 43  1  0
  7 44  1  0
  8 45  1  1
 10 46  1  0
 10 47  1  0
 10 48  1  0
 11 49  1  0
 11 50  1  0
 11 51  1  0
 12 52  1  0
 12 53  1  0
 16 54  1  0
 16 55  1  0
 17 56  1  0
 21 57  1  0
 22 58  1  0
 24 59  1  0
 27 60  1  0
 28 61  1  0
 32 62  1  0
 33 63  1  0
 34 64  1  0
 35 65  1  0
 36 66  1  0
M  END
>  <smiles>  (48) 
CC(NC(=O)[C@H]1C[C@H](N(C)C)CN1C(=O)CNC(=O)c1ccc2cc(Cl)ccc2n1)c1ccccc1

>  <score_type>  (48) 
oracle

>  <origin>  (48) 
autodockgpu

>  <m_score__min__energy>  (48) 
-9.8300000000000001

>  <m_primary>  (48) 
energy

>  <rmsd>  (48) 
9.389792042203482

>  <m_score__min__rmsd>  (48) 
9.389792042203482

>  <meeko>  (48) 
{"free_energy": -7.82, "intermolecular_energy": -10.21, "internal_energy": -3.3, "cluster_size": 1, "cluster_id": 8, "rank_in_cluster": 1}

>  <energy>  (48) 
-7.82

>  <cluster_rmsd>  (48) 
0.0

>  <cluster>  (48) 
8

$$$$

     RDKit          3D

 66 69  0  0  1  0  0  0  0  0999 V2000
  140.1940   72.0200  223.1220 C   0  0  0  0  0  0  0  0  0  0  0  0
  139.3900   71.0150  223.8990 C   0  0  2  0  0  0  0  0  0  0  0  0
  137.9580   71.2430  223.7870 N   0  0  0  0  0  0  0  0  0  0  0  0
  137.1030   70.0850  223.8210 C   0  0  0  0  0  0  0  0  0  0  0  0
  137.5890   68.9160  223.9490 O   0  0  0  0  0  0  0  0  0  0  0  0
  135.6480   70.2870  223.7070 C   0  0  1  0  0  0  0  0  0  0  0  0
  134.8740   69.0330  224.0910 C   0  0  0  0  0  0  0  0  0  0  0  0
  134.6430   69.2150  225.5710 C   0  0  2  0  0  0  0  0  0  0  0  0
  133.5550   68.4600  226.0980 N   0  0  0  0  0  0  0  0  0  0  0  0
  133.7420   67.0420  226.0850 C   0  0  0  0  0  0  0  0  0  0  0  0
  132.3350   68.8000  225.4360 C   0  0  0  0  0  0  0  0  0  0  0  0
  134.6230   70.6800  225.8270 C   0  0  0  0  0  0  0  0  0  0  0  0
  135.1670   71.3180  224.6230 N   0  0  0  0  0  0  0  0  0  0  0  0
  135.2120   72.7260  224.3990 C   0  0  0  0  0  0  0  0  0  0  0  0
  134.9450   73.5000  225.3540 O   0  0  0  0  0  0  0  0  0  0  0  0
  135.5770   73.2190  223.0420 C   0  0  0  0  0  0  0  0  0  0  0  0
  136.4130   74.3870  223.0740 N   0  0  0  0  0  0  0  0  0  0  0  0
  137.6420   74.3280  222.3480 C   0  0  0  0  0  0  0  0  0  0  0  0
  137.8550   73.2220  221.7440 O   0  0  0  0  0  0  0  0  0  0  0  0
  138.5880   75.4260  222.2860 C   0  0  0  0  0  0  0  0  0  0  0  0
  139.7980   75.1900  221.6670 C   0  0  0  0  0  0  0  0  0  0  0  0
  140.7890   76.1320  221.5330 C   0  0  0  0  0  0  0  0  0  0  0  0
  140.5370   77.3990  222.0640 C   0  0  0  0  0  0  0  0  0  0  0  0
  141.4740   78.4110  221.9760 C   0  0  0  0  0  0  0  0  0  0  0  0
  141.2260   79.6750  222.5010 C   0  0  0  0  0  0  0  0  0  0  0  0
  142.4650   80.8850  222.3440 Cl  0  0  0  0  0  0  0  0  0  0  0  0
  140.0170   79.8890  223.1140 C   0  0  0  0  0  0  0  0  0  0  0  0
  139.0650   78.8780  223.2080 C   0  0  0  0  0  0  0  0  0  0  0  0
  139.3270   77.6310  222.6830 C   0  0  0  0  0  0  0  0  0  0  0  0
  138.3770   76.6470  222.7830 N   0  0  0  0  0  0  0  0  0  0  0  0
  139.8280   70.9210  225.3330 C   0  0  0  0  0  0  0  0  0  0  0  0
  140.6860   71.8690  225.8930 C   0  0  0  0  0  0  0  0  0  0  0  0
  141.1090   71.8100  227.2000 C   0  0  0  0  0  0  0  0  0  0  0  0
  140.6700   70.7730  228.0010 C   0  0  0  0  0  0  0  0  0  0  0  0
  139.8240   69.8260  227.4710 C   0  0  0  0  0  0  0  0  0  0  0  0
  139.3870   69.8710  226.1460 C   0  0  0  0  0  0  0  0  0  0  0  0
  140.7249   72.6837  223.8203 H   0  0  0  0  0  0  0  0  0  0  0  0
  140.9240   71.4948  222.4886 H   0  0  0  0  0  0  0  0  0  0  0  0
  139.5213   72.6169  222.4886 H   0  0  0  0  0  0  0  0  0  0  0  0
  139.5928   70.0376  223.4368 H   0  0  0  0  0  0  0  0  0  0  0  0
  137.5720   72.2030  223.6840 H   0  0  0  0  0  0  0  0  0  0  0  0
  135.4832   70.5668  222.6560 H   0  0  0  0  0  0  0  0  0  0  0  0
  133.9200   68.9752  223.5464 H   0  0  0  0  0  0  0  0  0  0  0  0
  135.4082   68.1028  223.8473 H   0  0  0  0  0  0  0  0  0  0  0  0
  135.4667   68.7730  226.1507 H   0  0  0  0  0  0  0  0  0  0  0  0
  133.7912   66.6692  227.1187 H   0  0  0  0  0  0  0  0  0  0  0  0
  132.8989   66.5657  225.5631 H   0  0  0  0  0  0  0  0  0  0  0  0
  134.6798   66.8006  225.5631 H   0  0  0  0  0  0  0  0  0  0  0  0
  131.5592   69.0162  226.1853 H   0  0  0  0  0  0  0  0  0  0  0  0
  132.4945   69.6879  224.8066 H   0  0  0  0  0  0  0  0  0  0  0  0
  132.0123   67.9576  224.8066 H   0  0  0  0  0  0  0  0  0  0  0  0
  133.5926   71.0210  226.0058 H   0  0  0  0  0  0  0  0  0  0  0  0
  135.2155   70.9375  226.7173 H   0  0  0  0  0  0  0  0  0  0  0  0
  136.1134   72.4187  222.5111 H   0  0  0  0  0  0  0  0  0  0  0  0
  134.6433   73.4972  222.5314 H   0  0  0  0  0  0  0  0  0  0  0  0
  136.1720   75.2730  223.5980 H   0  0  0  0  0  0  0  0  0  0  0  0
  139.9805   74.1863  221.2556 H   0  0  0  0  0  0  0  0  0  0  0  0
  141.7389   75.8987  221.0298 H   0  0  0  0  0  0  0  0  0  0  0  0
  142.4359   78.2128  221.4805 H   0  0  0  0  0  0  0  0  0  0  0  0
  139.7959   80.8790  223.5394 H   0  0  0  0  0  0  0  0  0  0  0  0
  138.1021   79.0746  223.7021 H   0  0  0  0  0  0  0  0  0  0  0  0
  141.0386   72.6982  225.2621 H   0  0  0  0  0  0  0  0  0  0  0  0
  141.7870   72.5772  227.6022 H   0  0  0  0  0  0  0  0  0  0  0  0
  140.9932   70.7054  229.0503 H   0  0  0  0  0  0  0  0  0  0  0  0
  139.4795   69.0034  228.1149 H   0  0  0  0  0  0  0  0  0  0  0  0
  138.7113   69.0986  225.7500 H   0  0  0  0  0  0  0  0  0  0  0  0
  1  2  1  0
  2  3  1  0
  3  4  1  0
  4  5  2  0
  4  6  1  0
  6  7  1  0
  7  8  1  0
  8  9  1  0
  9 10  1  0
  9 11  1  0
  8 12  1  0
 12 13  1  0
 13 14  1  0
 14 15  2  0
 14 16  1  0
 16 17  1  0
 17 18  1  0
 18 19  2  0
 18 20  1  0
 20 21  2  0
 21 22  1  0
 22 23  2  0
 23 24  1  0
 24 25  2  0
 25 26  1  0
 25 27  1  0
 27 28  2  0
 28 29  1  0
 29 30  2  0
  2 31  1  0
 31 32  2  0
 32 33  1  0
 33 34  2  0
 34 35  1  0
 35 36  2  0
 13  6  1  0
 30 20  1  0
 36 31  1  0
 29 23  1  0
  1 37  1  0
  1 38  1  0
  1 39  1  0
  2 40  1  6
  3 41  1  0
  6 42  1  6
  7 43  1  0
  7 44  1  0
  8 45  1  1
 10 46  1  0
 10 47  1  0
 10 48  1  0
 11 49  1  0
 11 50  1  0
 11 51  1  0
 12 52  1  0
 12 53  1  0
 16 54  1  0
 16 55  1  0
 17 56  1  0
 21 57  1  0
 22 58  1  0
 24 59  1  0
 27 60  1  0
 28 61  1  0
 32 62  1  0
 33 63  1  0
 34 64  1  0
 35 65  1  0
 36 66  1  0
M  END
>  <smiles>  (49) 
CC(NC(=O)[C@H]1C[C@H](N(C)C)CN1C(=O)CNC(=O)c1ccc2cc(Cl)ccc2n1)c1ccccc1

>  <score_type>  (49) 
oracle

>  <origin>  (49) 
autodockgpu

>  <m_score__min__energy>  (49) 
-9.8300000000000001

>  <m_primary>  (49) 
energy

>  <rmsd>  (49) 
9.376425680908282

>  <m_score__min__rmsd>  (49) 
9.376425680908282

>  <meeko>  (49) 
{"free_energy": -8.91, "intermolecular_energy": -11.29, "internal_energy": -3.29, "cluster_size": 16, "cluster_id": 1, "rank_in_cluster": 10}

>  <energy>  (49) 
-7.44

>  <cluster_rmsd>  (49) 
0.0

>  <cluster>  (49) 
9

$$$$

     RDKit          3D

 66 69  0  0  1  0  0  0  0  0999 V2000
  140.1830   71.8830  223.3760 C   0  0  0  0  0  0  0  0  0  0  0  0
  139.3840   70.9030  224.1890 C   0  0  2  0  0  0  0  0  0  0  0  0
  137.9530   71.1450  224.1010 N   0  0  0  0  0  0  0  0  0  0  0  0
  137.1120   70.0170  223.7950 C   0  0  0  0  0  0  0  0  0  0  0  0
  137.6090   68.8610  223.6120 O   0  0  0  0  0  0  0  0  0  0  0  0
  135.6580   70.2360  223.6980 C   0  0  1  0  0  0  0  0  0  0  0  0
  134.8750   68.9980  224.1160 C   0  0  0  0  0  0  0  0  0  0  0  0
  134.6680   69.2100  225.5970 C   0  0  2  0  0  0  0  0  0  0  0  0
  133.5790   68.4780  226.1530 N   0  0  0  0  0  0  0  0  0  0  0  0
  133.7110   67.0560  226.0860 C   0  0  0  0  0  0  0  0  0  0  0  0
  132.3420   68.8850  225.5640 C   0  0  0  0  0  0  0  0  0  0  0  0
  134.6710   70.6790  225.8260 C   0  0  0  0  0  0  0  0  0  0  0  0
  135.2040   71.2880  224.6020 N   0  0  0  0  0  0  0  0  0  0  0  0
  135.2630   72.6910  224.3520 C   0  0  0  0  0  0  0  0  0  0  0  0
  135.1020   73.4860  225.3150 O   0  0  0  0  0  0  0  0  0  0  0  0
  135.5150   73.1560  222.9590 C   0  0  0  0  0  0  0  0  0  0  0  0
  136.5820   74.1130  222.8700 N   0  0  0  0  0  0  0  0  0  0  0  0
  136.2250   75.4950  222.9370 C   0  0  0  0  0  0  0  0  0  0  0  0
  134.9740   75.7180  223.0710 O   0  0  0  0  0  0  0  0  0  0  0  0
  137.1910   76.5750  222.8610 C   0  0  0  0  0  0  0  0  0  0  0  0
  136.7030   77.8660  222.8720 C   0  0  0  0  0  0  0  0  0  0  0  0
  137.4960   78.9860  222.8080 C   0  0  0  0  0  0  0  0  0  0  0  0
  138.8760   78.7840  222.7250 C   0  0  0  0  0  0  0  0  0  0  0  0
  139.7520   79.8510  222.6570 C   0  0  0  0  0  0  0  0  0  0  0  0
  141.1270   79.6550  222.5770 C   0  0  0  0  0  0  0  0  0  0  0  0
  142.1510   81.0570  222.4940 Cl  0  0  0  0  0  0  0  0  0  0  0  0
  141.5900   78.3630  222.5660 C   0  0  0  0  0  0  0  0  0  0  0  0
  140.7170   77.2810  222.6350 C   0  0  0  0  0  0  0  0  0  0  0  0
  139.3580   77.4930  222.7130 C   0  0  0  0  0  0  0  0  0  0  0  0
  138.5130   76.4150  222.7810 N   0  0  0  0  0  0  0  0  0  0  0  0
  139.8510   70.8310  225.6150 C   0  0  0  0  0  0  0  0  0  0  0  0
  139.4780   69.7750  226.4480 C   0  0  0  0  0  0  0  0  0  0  0  0
  139.8850   69.6810  227.7580 C   0  0  0  0  0  0  0  0  0  0  0  0
  140.6980   70.6690  228.2800 C   0  0  0  0  0  0  0  0  0  0  0  0
  141.0790   71.7210  227.4780 C   0  0  0  0  0  0  0  0  0  0  0  0
  140.6740   71.8300  226.1470 C   0  0  0  0  0  0  0  0  0  0  0  0
  140.7323   72.5568  224.0500 H   0  0  0  0  0  0  0  0  0  0  0  0
  140.8968   71.3372  222.7415 H   0  0  0  0  0  0  0  0  0  0  0  0
  139.5046   72.4722  222.7415 H   0  0  0  0  0  0  0  0  0  0  0  0
  139.5660   69.9143  223.7425 H   0  0  0  0  0  0  0  0  0  0  0  0
  137.5570   72.0950  224.2540 H   0  0  0  0  0  0  0  0  0  0  0  0
  135.4807   70.4999  222.6450 H   0  0  0  0  0  0  0  0  0  0  0  0
  133.9125   68.9417  223.5865 H   0  0  0  0  0  0  0  0  0  0  0  0
  135.3945   68.0572  223.8815 H   0  0  0  0  0  0  0  0  0  0  0  0
  135.4941   68.7685  226.1737 H   0  0  0  0  0  0  0  0  0  0  0  0
  133.7493   66.6429  227.1048 H   0  0  0  0  0  0  0  0  0  0  0  0
  132.8483   66.6325  225.5508 H   0  0  0  0  0  0  0  0  0  0  0  0
  134.6369   66.7985  225.5508 H   0  0  0  0  0  0  0  0  0  0  0  0
  131.6187   69.1230  226.3578 H   0  0  0  0  0  0  0  0  0  0  0  0
  132.5083   69.7758  224.9404 H   0  0  0  0  0  0  0  0  0  0  0  0
  131.9469   68.0695  224.9404 H   0  0  0  0  0  0  0  0  0  0  0  0
  133.6480   71.0367  226.0146 H   0  0  0  0  0  0  0  0  0  0  0  0
  135.2810   70.9448  226.7019 H   0  0  0  0  0  0  0  0  0  0  0  0
  135.7738   72.2842  222.3401 H   0  0  0  0  0  0  0  0  0  0  0  0
  134.5984   73.6523  222.6075 H   0  0  0  0  0  0  0  0  0  0  0  0
  137.6010   73.8550  222.7590 H   0  0  0  0  0  0  0  0  0  0  0  0
  135.6139   78.0066  222.9358 H   0  0  0  0  0  0  0  0  0  0  0  0
  137.0635   79.9973  222.8215 H   0  0  0  0  0  0  0  0  0  0  0  0
  139.3537   80.8763  222.6663 H   0  0  0  0  0  0  0  0  0  0  0  0
  142.6726   78.1789  222.5014 H   0  0  0  0  0  0  0  0  0  0  0  0
  141.1130   76.2548  222.6272 H   0  0  0  0  0  0  0  0  0  0  0  0
  138.8312   68.9847  226.0393 H   0  0  0  0  0  0  0  0  0  0  0  0
  139.5681   68.8318  228.3813 H   0  0  0  0  0  0  0  0  0  0  0  0
  141.0371   70.6154  229.3251 H   0  0  0  0  0  0  0  0  0  0  0  0
  141.7257   72.5036  227.9014 H   0  0  0  0  0  0  0  0  0  0  0  0
  140.9945   72.6822  225.5298 H   0  0  0  0  0  0  0  0  0  0  0  0
  1  2  1  0
  2  3  1  0
  3  4  1  0
  4  5  2  0
  4  6  1  0
  6  7  1  0
  7  8  1  0
  8  9  1  0
  9 10  1  0
  9 11  1  0
  8 12  1  0
 12 13  1  0
 13 14  1  0
 14 15  2  0
 14 16  1  0
 16 17  1  0
 17 18  1  0
 18 19  2  0
 18 20  1  0
 20 21  2  0
 21 22  1  0
 22 23  2  0
 23 24  1  0
 24 25  2  0
 25 26  1  0
 25 27  1  0
 27 28  2  0
 28 29  1  0
 29 30  2  0
  2 31  1  0
 31 32  2  0
 32 33  1  0
 33 34  2  0
 34 35  1  0
 35 36  2  0
 13  6  1  0
 30 20  1  0
 36 31  1  0
 29 23  1  0
  1 37  1  0
  1 38  1  0
  1 39  1  0
  2 40  1  6
  3 41  1  0
  6 42  1  6
  7 43  1  0
  7 44  1  0
  8 45  1  1
 10 46  1  0
 10 47  1  0
 10 48  1  0
 11 49  1  0
 11 50  1  0
 11 51  1  0
 12 52  1  0
 12 53  1  0
 16 54  1  0
 16 55  1  0
 17 56  1  0
 21 57  1  0
 22 58  1  0
 24 59  1  0
 27 60  1  0
 28 61  1  0
 32 62  1  0
 33 63  1  0
 34 64  1  0
 35 65  1  0
 36 66  1  0
M  END
>  <smiles>  (50) 
CC(NC(=O)[C@H]1C[C@H](N(C)C)CN1C(=O)CNC(=O)c1ccc2cc(Cl)ccc2n1)c1ccccc1

>  <score_type>  (50) 
oracle

>  <origin>  (50) 
autodockgpu

>  <m_score__min__energy>  (50) 
-9.8300000000000001

>  <m_primary>  (50) 
energy

>  <rmsd>  (50) 
9.80308028893805

>  <m_score__min__rmsd>  (50) 
9.80308028893805

>  <meeko>  (50) 
{"free_energy": -9.44, "intermolecular_energy": -11.82, "internal_energy": -2.33, "cluster_size": 16, "cluster_id": 1, "rank_in_cluster": 5}

>  <energy>  (50) 
-7.27

>  <cluster_rmsd>  (50) 
0.83

>  <cluster>  (50) 
9

$$$$

     RDKit          3D

 66 69  0  0  1  0  0  0  0  0999 V2000
  138.5770   70.0930  222.6150 C   0  0  0  0  0  0  0  0  0  0  0  0
  138.4980   71.1560  223.6820 C   0  0  1  0  0  0  0  0  0  0  0  0
  137.1420   71.6290  223.8780 N   0  0  0  0  0  0  0  0  0  0  0  0
  136.0460   70.7910  224.1680 C   0  0  0  0  0  0  0  0  0  0  0  0
  136.2440   69.5390  224.2640 O   0  0  0  0  0  0  0  0  0  0  0  0
  134.6580   71.2620  224.3720 C   0  0  1  0  0  0  0  0  0  0  0  0
  133.8560   70.0950  224.9260 C   0  0  0  0  0  0  0  0  0  0  0  0
  133.5430   70.4280  226.3570 C   0  0  2  0  0  0  0  0  0  0  0  0
  132.1170   70.6240  226.5000 N   0  0  0  0  0  0  0  0  0  0  0  0
  131.8830   71.9020  227.1340 C   0  0  0  0  0  0  0  0  0  0  0  0
  131.4080   70.5000  225.2570 C   0  0  0  0  0  0  0  0  0  0  0  0
  134.3180   71.6820  226.6700 C   0  0  0  0  0  0  0  0  0  0  0  0
  134.5230   72.2990  225.3510 N   0  0  0  0  0  0  0  0  0  0  0  0
  134.5770   73.7090  225.0730 C   0  0  0  0  0  0  0  0  0  0  0  0
  134.4260   74.5750  225.9770 O   0  0  0  0  0  0  0  0  0  0  0  0
  134.8190   74.1440  223.6750 C   0  0  0  0  0  0  0  0  0  0  0  0
  135.8750   75.1450  223.6560 N   0  0  0  0  0  0  0  0  0  0  0  0
  136.9260   74.9430  222.7190 C   0  0  0  0  0  0  0  0  0  0  0  0
  136.8380   73.9120  221.9940 O   0  0  0  0  0  0  0  0  0  0  0  0
  138.0430   75.8730  222.6020 C   0  0  0  0  0  0  0  0  0  0  0  0
  139.2100   75.4190  222.0250 C   0  0  0  0  0  0  0  0  0  0  0  0
  140.3110   76.2400  221.8820 C   0  0  0  0  0  0  0  0  0  0  0  0
  140.1850   77.5330  222.3420 C   0  0  0  0  0  0  0  0  0  0  0  0
  141.2690   78.3810  222.2120 C   0  0  0  0  0  0  0  0  0  0  0  0
  141.1750   79.6930  222.6670 C   0  0  0  0  0  0  0  0  0  0  0  0
  142.5750   80.7090  222.4730 Cl  0  0  0  0  0  0  0  0  0  0  0  0
  140.0020   80.1540  223.2480 C   0  0  0  0  0  0  0  0  0  0  0  0
  138.9030   79.2990  223.3810 C   0  0  0  0  0  0  0  0  0  0  0  0
  139.0030   77.9980  222.9280 C   0  0  0  0  0  0  0  0  0  0  0  0
  137.9600   77.1490  223.0410 N   0  0  0  0  0  0  0  0  0  0  0  0
  139.1590   70.7370  224.9450 C   0  0  0  0  0  0  0  0  0  0  0  0
  140.1350   71.5320  225.5160 C   0  0  0  0  0  0  0  0  0  0  0  0
  140.7860   71.1980  226.6880 C   0  0  0  0  0  0  0  0  0  0  0  0
  140.4530   70.0070  227.3380 C   0  0  0  0  0  0  0  0  0  0  0  0
  139.4690   69.1980  226.7690 C   0  0  0  0  0  0  0  0  0  0  0  0
  138.8300   69.5520  225.5940 C   0  0  0  0  0  0  0  0  0  0  0  0
  138.6506   69.1029  223.0886 H   0  0  0  0  0  0  0  0  0  0  0  0
  137.6733   70.1339  221.9891 H   0  0  0  0  0  0  0  0  0  0  0  0
  139.4647   70.2670  221.9891 H   0  0  0  0  0  0  0  0  0  0  0  0
  139.0720   72.0210  223.3182 H   0  0  0  0  0  0  0  0  0  0  0  0
  136.9900   72.6570  223.7950 H   0  0  0  0  0  0  0  0  0  0  0  0
  134.3200   71.6488  223.3993 H   0  0  0  0  0  0  0  0  0  0  0  0
  132.9251   69.9689  224.3536 H   0  0  0  0  0  0  0  0  0  0  0  0
  134.4226   69.1550  224.8530 H   0  0  0  0  0  0  0  0  0  0  0  0
  133.8265   69.6246  227.0528 H   0  0  0  0  0  0  0  0  0  0  0  0
  131.9056   71.7788  228.2268 H   0  0  0  0  0  0  0  0  0  0  0  0
  132.6661   72.6116  226.8288 H   0  0  0  0  0  0  0  0  0  0  0  0
  130.8992   72.2881  226.8288 H   0  0  0  0  0  0  0  0  0  0  0  0
  130.3429   70.3137  225.4594 H   0  0  0  0  0  0  0  0  0  0  0  0
  131.5143   71.4304  224.6798 H   0  0  0  0  0  0  0  0  0  0  0  0
  131.8238   69.6609  224.6798 H   0  0  0  0  0  0  0  0  0  0  0  0
  133.7403   72.3467  227.3292 H   0  0  0  0  0  0  0  0  0  0  0  0
  135.2610   71.4811  227.1995 H   0  0  0  0  0  0  0  0  0  0  0  0
  135.1233   73.2781  223.0687 H   0  0  0  0  0  0  0  0  0  0  0  0
  133.8963   74.5755  223.2596 H   0  0  0  0  0  0  0  0  0  0  0  0
  135.8850   75.9790  224.2890 H   0  0  0  0  0  0  0  0  0  0  0  0
  139.2652   74.3791  221.6705 H   0  0  0  0  0  0  0  0  0  0  0  0
  141.2435   75.8795  221.4232 H   0  0  0  0  0  0  0  0  0  0  0  0
  142.2008   78.0208  221.7515 H   0  0  0  0  0  0  0  0  0  0  0  0
  139.9365   81.1927  223.6042 H   0  0  0  0  0  0  0  0  0  0  0  0
  137.9705   79.6583  223.8407 H   0  0  0  0  0  0  0  0  0  0  0  0
  140.4056   72.4730  225.0147 H   0  0  0  0  0  0  0  0  0  0  0  0
  141.5576   71.8622  227.1045 H   0  0  0  0  0  0  0  0  0  0  0  0
  140.9532   69.7150  228.2732 H   0  0  0  0  0  0  0  0  0  0  0  0
  139.1946   68.2561  227.2665 H   0  0  0  0  0  0  0  0  0  0  0  0
  138.0578   68.8927  225.1710 H   0  0  0  0  0  0  0  0  0  0  0  0
  1  2  1  0
  2  3  1  0
  3  4  1  0
  4  5  2  0
  4  6  1  0
  6  7  1  0
  7  8  1  0
  8  9  1  0
  9 10  1  0
  9 11  1  0
  8 12  1  0
 12 13  1  0
 13 14  1  0
 14 15  2  0
 14 16  1  0
 16 17  1  0
 17 18  1  0
 18 19  2  0
 18 20  1  0
 20 21  2  0
 21 22  1  0
 22 23  2  0
 23 24  1  0
 24 25  2  0
 25 26  1  0
 25 27  1  0
 27 28  2  0
 28 29  1  0
 29 30  2  0
  2 31  1  0
 31 32  2  0
 32 33  1  0
 33 34  2  0
 34 35  1  0
 35 36  2  0
 13  6  1  0
 30 20  1  0
 36 31  1  0
 29 23  1  0
  1 37  1  0
  1 38  1  0
  1 39  1  0
  2 40  1  6
  3 41  1  0
  6 42  1  6
  7 43  1  0
  7 44  1  0
  8 45  1  1
 10 46  1  0
 10 47  1  0
 10 48  1  0
 11 49  1  0
 11 50  1  0
 11 51  1  0
 12 52  1  0
 12 53  1  0
 16 54  1  0
 16 55  1  0
 17 56  1  0
 21 57  1  0
 22 58  1  0
 24 59  1  0
 27 60  1  0
 28 61  1  0
 32 62  1  0
 33 63  1  0
 34 64  1  0
 35 65  1  0
 36 66  1  0
M  END
>  <smiles>  (51) 
CC(NC(=O)[C@H]1C[C@H](N(C)C)CN1C(=O)CNC(=O)c1ccc2cc(Cl)ccc2n1)c1ccccc1

>  <score_type>  (51) 
oracle

>  <origin>  (51) 
autodockgpu

>  <m_score__min__energy>  (51) 
-9.8900000000000006

>  <m_primary>  (51) 
energy

>  <rmsd>  (51) 
9.78955297785912

>  <m_score__min__rmsd>  (51) 
9.78955297785912

>  <meeko>  (51) 
{"free_energy": -8.42, "intermolecular_energy": -10.81, "internal_energy": -3.3, "cluster_size": 5, "cluster_id": 6, "rank_in_cluster": 3}

>  <energy>  (51) 
-9.89

>  <cluster_rmsd>  (51) 
0.0

>  <cluster>  (51) 
1

$$$$

     RDKit          3D

 66 69  0  0  1  0  0  0  0  0999 V2000
  142.5660   80.0090  218.7020 C   0  0  0  0  0  0  0  0  0  0  0  0
  141.7760   79.2510  219.7380 C   0  0  1  0  0  0  0  0  0  0  0  0
  142.0750   77.8320  219.7200 N   0  0  0  0  0  0  0  0  0  0  0  0
  141.2650   76.8610  219.0960 C   0  0  0  0  0  0  0  0  0  0  0  0
  140.2020   77.2390  218.5100 O   0  0  0  0  0  0  0  0  0  0  0  0
  141.5600   75.4120  219.0690 C   0  0  1  0  0  0  0  0  0  0  0  0
  142.9470   75.2380  218.4730 C   0  0  0  0  0  0  0  0  0  0  0  0
  143.8440   74.7900  219.5920 C   0  0  2  0  0  0  0  0  0  0  0  0
  144.2820   73.4350  219.3380 N   0  0  0  0  0  0  0  0  0  0  0  0
  145.5770   73.2400  219.9510 C   0  0  0  0  0  0  0  0  0  0  0  0
  143.3280   72.4490  219.7650 C   0  0  0  0  0  0  0  0  0  0  0  0
  143.0200   74.8900  220.8490 C   0  0  0  0  0  0  0  0  0  0  0  0
  141.6360   74.7980  220.3620 N   0  0  0  0  0  0  0  0  0  0  0  0
  140.5300   74.1940  221.0560 C   0  0  0  0  0  0  0  0  0  0  0  0
  140.6990   73.4150  222.0320 O   0  0  0  0  0  0  0  0  0  0  0  0
  139.1530   74.5060  220.5960 C   0  0  0  0  0  0  0  0  0  0  0  0
  138.9570   75.9480  220.6040 N   0  0  0  0  0  0  0  0  0  0  0  0
  139.0510   76.5950  221.8670 C   0  0  0  0  0  0  0  0  0  0  0  0
  139.2960   75.8530  222.8590 O   0  0  0  0  0  0  0  0  0  0  0  0
  138.8740   78.0360  222.0090 C   0  0  0  0  0  0  0  0  0  0  0  0
  138.8560   78.5670  223.2810 C   0  0  0  0  0  0  0  0  0  0  0  0
  138.6900   79.9210  223.4950 C   0  0  0  0  0  0  0  0  0  0  0  0
  138.5450   80.7130  222.3780 C   0  0  0  0  0  0  0  0  0  0  0  0
  138.3790   82.0740  222.5580 C   0  0  0  0  0  0  0  0  0  0  0  0
  138.2290   82.9020  221.4500 C   0  0  0  0  0  0  0  0  0  0  0  0
  138.0230   84.6050  221.7460 Cl  0  0  0  0  0  0  0  0  0  0  0  0
  138.2460   82.3710  220.1670 C   0  0  0  0  0  0  0  0  0  0  0  0
  138.4150   80.9960  219.9810 C   0  0  0  0  0  0  0  0  0  0  0  0
  138.5630   80.1790  221.0850 C   0  0  0  0  0  0  0  0  0  0  0  0
  138.7280   78.8480  220.9380 N   0  0  0  0  0  0  0  0  0  0  0  0
  141.8950   79.8550  221.0900 C   0  0  0  0  0  0  0  0  0  0  0  0
  141.7350   81.2180  221.2600 C   0  0  0  0  0  0  0  0  0  0  0  0
  141.8330   81.8390  222.4900 C   0  0  0  0  0  0  0  0  0  0  0  0
  142.1060   81.0690  223.6230 C   0  0  0  0  0  0  0  0  0  0  0  0
  142.2680   79.6930  223.4630 C   0  0  0  0  0  0  0  0  0  0  0  0
  142.1660   79.0910  222.2210 C   0  0  0  0  0  0  0  0  0  0  0  0
  143.2725   80.6869  219.2033 H   0  0  0  0  0  0  0  0  0  0  0  0
  143.1228   79.2986  218.0733 H   0  0  0  0  0  0  0  0  0  0  0  0
  141.8792   80.5947  218.0733 H   0  0  0  0  0  0  0  0  0  0  0  0
  140.7149   79.3413  219.4626 H   0  0  0  0  0  0  0  0  0  0  0  0
  142.9480   77.5340  220.2050 H   0  0  0  0  0  0  0  0  0  0  0  0
  140.7401   74.9446  218.5040 H   0  0  0  0  0  0  0  0  0  0  0  0
  142.9253   74.4788  217.6773 H   0  0  0  0  0  0  0  0  0  0  0  0
  143.3076   76.1773  218.0284 H   0  0  0  0  0  0  0  0  0  0  0  0
  144.7503   75.4065  219.6845 H   0  0  0  0  0  0  0  0  0  0  0  0
  145.4706   73.2560  221.0457 H   0  0  0  0  0  0  0  0  0  0  0  0
  145.9890   72.2697  219.6368 H   0  0  0  0  0  0  0  0  0  0  0  0
  146.2565   74.0459  219.6368 H   0  0  0  0  0  0  0  0  0  0  0  0
  143.2989   72.4189  220.8642 H   0  0  0  0  0  0  0  0  0  0  0  0
  142.3319   72.7112  219.3788 H   0  0  0  0  0  0  0  0  0  0  0  0
  143.6229   71.4621  219.3788 H   0  0  0  0  0  0  0  0  0  0  0  0
  143.2504   74.0629  221.5367 H   0  0  0  0  0  0  0  0  0  0  0  0
  143.2138   75.8128  221.4154 H   0  0  0  0  0  0  0  0  0  0  0  0
  139.0110   74.1218  219.5751 H   0  0  0  0  0  0  0  0  0  0  0  0
  138.4238   74.0318  221.2694 H   0  0  0  0  0  0  0  0  0  0  0  0
  138.7560   76.5030  219.7390 H   0  0  0  0  0  0  0  0  0  0  0  0
  138.9766   77.8970  224.1450 H   0  0  0  0  0  0  0  0  0  0  0  0
  138.6744   80.3465  224.5092 H   0  0  0  0  0  0  0  0  0  0  0  0
  138.3656   82.4999  223.5721 H   0  0  0  0  0  0  0  0  0  0  0  0
  138.1264   83.0328  219.2966 H   0  0  0  0  0  0  0  0  0  0  0  0
  138.4299   80.5694  218.9672 H   0  0  0  0  0  0  0  0  0  0  0  0
  141.5199   81.8357  220.3756 H   0  0  0  0  0  0  0  0  0  0  0  0
  141.6976   82.9272  222.5762 H   0  0  0  0  0  0  0  0  0  0  0  0
  142.1910   81.5357  224.6155 H   0  0  0  0  0  0  0  0  0  0  0  0
  142.4819   79.0714  224.3450 H   0  0  0  0  0  0  0  0  0  0  0  0
  142.2998   78.0032  222.1274 H   0  0  0  0  0  0  0  0  0  0  0  0
  1  2  1  0
  2  3  1  0
  3  4  1  0
  4  5  2  0
  4  6  1  0
  6  7  1  0
  7  8  1  0
  8  9  1  0
  9 10  1  0
  9 11  1  0
  8 12  1  0
 12 13  1  0
 13 14  1  0
 14 15  2  0
 14 16  1  0
 16 17  1  0
 17 18  1  0
 18 19  2  0
 18 20  1  0
 20 21  2  0
 21 22  1  0
 22 23  2  0
 23 24  1  0
 24 25  2  0
 25 26  1  0
 25 27  1  0
 27 28  2  0
 28 29  1  0
 29 30  2  0
  2 31  1  0
 31 32  2  0
 32 33  1  0
 33 34  2  0
 34 35  1  0
 35 36  2  0
 13  6  1  0
 30 20  1  0
 36 31  1  0
 29 23  1  0
  1 37  1  0
  1 38  1  0
  1 39  1  0
  2 40  1  6
  3 41  1  0
  6 42  1  6
  7 43  1  0
  7 44  1  0
  8 45  1  1
 10 46  1  0
 10 47  1  0
 10 48  1  0
 11 49  1  0
 11 50  1  0
 11 51  1  0
 12 52  1  0
 12 53  1  0
 16 54  1  0
 16 55  1  0
 17 56  1  0
 21 57  1  0
 22 58  1  0
 24 59  1  0
 27 60  1  0
 28 61  1  0
 32 62  1  0
 33 63  1  0
 34 64  1  0
 35 65  1  0
 36 66  1  0
M  END
>  <smiles>  (52) 
CC(NC(=O)[C@H]1C[C@H](N(C)C)CN1C(=O)CNC(=O)c1ccc2cc(Cl)ccc2n1)c1ccccc1

>  <score_type>  (52) 
oracle

>  <origin>  (52) 
autodockgpu

>  <m_score__min__energy>  (52) 
-9.8900000000000006

>  <m_primary>  (52) 
energy

>  <rmsd>  (52) 
7.164982351787067

>  <m_score__min__rmsd>  (52) 
7.164982351787067

>  <meeko>  (52) 
{"free_energy": -6.32, "intermolecular_energy": -8.7, "internal_energy": -4.91, "cluster_size": 7, "cluster_id": 8, "rank_in_cluster": 5}

>  <energy>  (52) 
-9.86

>  <cluster_rmsd>  (52) 
0.1

>  <cluster>  (52) 
1

$$$$

     RDKit          3D

 66 69  0  0  1  0  0  0  0  0999 V2000
  141.8580   73.4200  218.2180 C   0  0  0  0  0  0  0  0  0  0  0  0
  142.5830   74.3670  219.1410 C   0  0  1  0  0  0  0  0  0  0  0  0
  141.7270   74.8500  220.2070 N   0  0  0  0  0  0  0  0  0  0  0  0
  141.7420   76.1720  220.6960 C   0  0  0  0  0  0  0  0  0  0  0  0
  142.5530   77.0030  220.1800 O   0  0  0  0  0  0  0  0  0  0  0  0
  140.8730   76.6770  221.7810 C   0  0  1  0  0  0  0  0  0  0  0  0
  141.4370   78.0140  222.2350 C   0  0  0  0  0  0  0  0  0  0  0  0
  140.4670   79.0670  221.7820 C   0  0  2  0  0  0  0  0  0  0  0  0
  139.8520   79.6780  222.9400 N   0  0  0  0  0  0  0  0  0  0  0  0
  140.7480   80.6810  223.4700 C   0  0  0  0  0  0  0  0  0  0  0  0
  138.5460   80.2110  222.6660 C   0  0  0  0  0  0  0  0  0  0  0  0
  139.4580   78.3570  220.9160 C   0  0  0  0  0  0  0  0  0  0  0  0
  139.5280   76.9630  221.3790 N   0  0  0  0  0  0  0  0  0  0  0  0
  138.4350   76.0290  221.4280 C   0  0  0  0  0  0  0  0  0  0  0  0
  137.2890   76.3630  221.8320 O   0  0  0  0  0  0  0  0  0  0  0  0
  138.6790   74.6330  220.9860 C   0  0  0  0  0  0  0  0  0  0  0  0
  138.7340   73.7610  222.1500 N   0  0  0  0  0  0  0  0  0  0  0  0
  139.6620   72.6850  222.0940 C   0  0  0  0  0  0  0  0  0  0  0  0
  140.3480   72.5920  221.0370 O   0  0  0  0  0  0  0  0  0  0  0  0
  139.8130   71.7400  223.1950 C   0  0  0  0  0  0  0  0  0  0  0  0
  139.4240   70.4330  222.9890 C   0  0  0  0  0  0  0  0  0  0  0  0
  139.5340   69.4830  223.9840 C   0  0  0  0  0  0  0  0  0  0  0  0
  140.0510   69.9030  225.1890 C   0  0  0  0  0  0  0  0  0  0  0  0
  140.1760   68.9740  226.2070 C   0  0  0  0  0  0  0  0  0  0  0  0
  140.6950   69.3660  227.4370 C   0  0  0  0  0  0  0  0  0  0  0  0
  140.8250   68.1500  228.6750 Cl  0  0  0  0  0  0  0  0  0  0  0  0
  141.0870   70.6820  227.6490 C   0  0  0  0  0  0  0  0  0  0  0  0
  140.9630   71.6230  226.6220 C   0  0  0  0  0  0  0  0  0  0  0  0
  140.4470   71.2280  225.4030 C   0  0  0  0  0  0  0  0  0  0  0  0
  140.3150   72.1120  224.3930 N   0  0  0  0  0  0  0  0  0  0  0  0
  143.8660   73.8020  219.6330 C   0  0  0  0  0  0  0  0  0  0  0  0
  144.2400   72.5170  219.2840 C   0  0  0  0  0  0  0  0  0  0  0  0
  145.4190   71.9360  219.7090 C   0  0  0  0  0  0  0  0  0  0  0  0
  146.2830   72.6660  220.5280 C   0  0  0  0  0  0  0  0  0  0  0  0
  145.9150   73.9640  220.8860 C   0  0  0  0  0  0  0  0  0  0  0  0
  144.7280   74.5260  220.4490 C   0  0  0  0  0  0  0  0  0  0  0  0
  141.2959   72.6858  218.8138 H   0  0  0  0  0  0  0  0  0  0  0  0
  141.1615   73.9877  217.5835 H   0  0  0  0  0  0  0  0  0  0  0  0
  142.5878   72.8958  217.5835 H   0  0  0  0  0  0  0  0  0  0  0  0
  142.8548   75.2513  218.5459 H   0  0  0  0  0  0  0  0  0  0  0  0
  141.0670   74.1590  220.6240 H   0  0  0  0  0  0  0  0  0  0  0  0
  140.8520   75.8877  222.5469 H   0  0  0  0  0  0  0  0  0  0  0  0
  141.5328   78.0328  223.3307 H   0  0  0  0  0  0  0  0  0  0  0  0
  142.4365   78.1871  221.8095 H   0  0  0  0  0  0  0  0  0  0  0  0
  140.9504   79.8751  221.2134 H   0  0  0  0  0  0  0  0  0  0  0  0
  140.7220   80.6518  224.5693 H   0  0  0  0  0  0  0  0  0  0  0  0
  141.7717   80.4788  223.1220 H   0  0  0  0  0  0  0  0  0  0  0  0
  140.4321   81.6755  223.1220 H   0  0  0  0  0  0  0  0  0  0  0  0
  138.0297   80.4217  223.6141 H   0  0  0  0  0  0  0  0  0  0  0  0
  138.6437   81.1412  222.0871 H   0  0  0  0  0  0  0  0  0  0  0  0
  137.9649   79.4781  222.0871 H   0  0  0  0  0  0  0  0  0  0  0  0
  138.4501   78.7711  221.0666 H   0  0  0  0  0  0  0  0  0  0  0  0
  139.6667   78.4622  219.8411 H   0  0  0  0  0  0  0  0  0  0  0  0
  137.8627   74.3097  220.3233 H   0  0  0  0  0  0  0  0  0  0  0  0
  139.6336   74.5810  220.4420 H   0  0  0  0  0  0  0  0  0  0  0  0
  138.1330   73.8970  222.9960 H   0  0  0  0  0  0  0  0  0  0  0  0
  139.0169   70.1412  222.0096 H   0  0  0  0  0  0  0  0  0  0  0  0
  139.2235   68.4402  223.8221 H   0  0  0  0  0  0  0  0  0  0  0  0
  139.8666   67.9310  226.0446 H   0  0  0  0  0  0  0  0  0  0  0  0
  141.4950   70.9838  228.6249 H   0  0  0  0  0  0  0  0  0  0  0  0
  141.2729   72.6661  226.7830 H   0  0  0  0  0  0  0  0  0  0  0  0
  143.5684   71.9313  218.6390 H   0  0  0  0  0  0  0  0  0  0  0  0
  145.6744   70.9099  219.4057 H   0  0  0  0  0  0  0  0  0  0  0  0
  147.2288   72.2296  220.8817 H   0  0  0  0  0  0  0  0  0  0  0  0
  146.5837   74.5538  221.5302 H   0  0  0  0  0  0  0  0  0  0  0  0
  144.4652   75.5512  220.7490 H   0  0  0  0  0  0  0  0  0  0  0  0
  1  2  1  0
  2  3  1  0
  3  4  1  0
  4  5  2  0
  4  6  1  0
  6  7  1  0
  7  8  1  0
  8  9  1  0
  9 10  1  0
  9 11  1  0
  8 12  1  0
 12 13  1  0
 13 14  1  0
 14 15  2  0
 14 16  1  0
 16 17  1  0
 17 18  1  0
 18 19  2  0
 18 20  1  0
 20 21  2  0
 21 22  1  0
 22 23  2  0
 23 24  1  0
 24 25  2  0
 25 26  1  0
 25 27  1  0
 27 28  2  0
 28 29  1  0
 29 30  2  0
  2 31  1  0
 31 32  2  0
 32 33  1  0
 33 34  2  0
 34 35  1  0
 35 36  2  0
 13  6  1  0
 30 20  1  0
 36 31  1  0
 29 23  1  0
  1 37  1  0
  1 38  1  0
  1 39  1  0
  2 40  1  6
  3 41  1  0
  6 42  1  1
  7 43  1  0
  7 44  1  0
  8 45  1  6
 10 46  1  0
 10 47  1  0
 10 48  1  0
 11 49  1  0
 11 50  1  0
 11 51  1  0
 12 52  1  0
 12 53  1  0
 16 54  1  0
 16 55  1  0
 17 56  1  0
 21 57  1  0
 22 58  1  0
 24 59  1  0
 27 60  1  0
 28 61  1  0
 32 62  1  0
 33 63  1  0
 34 64  1  0
 35 65  1  0
 36 66  1  0
M  END
>  <smiles>  (53) 
CC(NC(=O)[C@H]1C[C@H](N(C)C)CN1C(=O)CNC(=O)c1ccc2cc(Cl)ccc2n1)c1ccccc1

>  <score_type>  (53) 
oracle

>  <origin>  (53) 
autodockgpu

>  <m_score__min__energy>  (53) 
-9.8900000000000006

>  <m_primary>  (53) 
energy

>  <rmsd>  (53) 
5.621978441431753

>  <m_score__min__rmsd>  (53) 
5.621978441431753

>  <meeko>  (53) 
{"free_energy": -8.9, "intermolecular_energy": -11.28, "internal_energy": -3.01, "cluster_size": 6, "cluster_id": 2, "rank_in_cluster": 2}

>  <energy>  (53) 
-9.81

>  <cluster_rmsd>  (53) 
0.17

>  <cluster>  (53) 
1

$$$$

     RDKit          3D

 66 69  0  0  1  0  0  0  0  0999 V2000
  139.0820   68.7820  224.7180 C   0  0  0  0  0  0  0  0  0  0  0  0
  139.8620   70.0620  224.5660 C   0  0  1  0  0  0  0  0  0  0  0  0
  139.1600   71.0330  223.7480 N   0  0  0  0  0  0  0  0  0  0  0  0
  139.7960   72.0500  223.0070 C   0  0  0  0  0  0  0  0  0  0  0  0
  141.0630   72.1350  223.0500 O   0  0  0  0  0  0  0  0  0  0  0  0
  139.0910   73.0440  222.1690 C   0  0  1  0  0  0  0  0  0  0  0  0
  140.0050   73.3900  221.0040 C   0  0  0  0  0  0  0  0  0  0  0  0
  139.3780   72.7970  219.7740 C   0  0  2  0  0  0  0  0  0  0  0  0
  138.9460   73.8650  218.8980 N   0  0  0  0  0  0  0  0  0  0  0  0
  139.4780   75.1160  219.3910 C   0  0  0  0  0  0  0  0  0  0  0  0
  139.2900   73.6360  217.5220 C   0  0  0  0  0  0  0  0  0  0  0  0
  138.2210   71.9630  220.2590 C   0  0  0  0  0  0  0  0  0  0  0  0
  137.8870   72.5610  221.5610 N   0  0  0  0  0  0  0  0  0  0  0  0
  136.5740   72.6540  222.1410 C   0  0  0  0  0  0  0  0  0  0  0  0
  136.0140   71.6660  222.6870 O   0  0  0  0  0  0  0  0  0  0  0  0
  135.8700   73.9590  222.0870 C   0  0  0  0  0  0  0  0  0  0  0  0
  136.7170   74.9890  222.6680 N   0  0  0  0  0  0  0  0  0  0  0  0
  137.0900   76.0630  221.8130 C   0  0  0  0  0  0  0  0  0  0  0  0
  136.6480   76.0150  220.6310 O   0  0  0  0  0  0  0  0  0  0  0  0
  137.9360   77.1570  222.2750 C   0  0  0  0  0  0  0  0  0  0  0  0
  137.3250   78.3230  222.6870 C   0  0  0  0  0  0  0  0  0  0  0  0
  138.0590   79.4030  223.1350 C   0  0  0  0  0  0  0  0  0  0  0  0
  139.4290   79.2580  223.1520 C   0  0  0  0  0  0  0  0  0  0  0  0
  140.1930   80.3210  223.5970 C   0  0  0  0  0  0  0  0  0  0  0  0
  141.5800   80.2080  223.6260 C   0  0  0  0  0  0  0  0  0  0  0  0
  142.4830   81.5820  224.1970 Cl  0  0  0  0  0  0  0  0  0  0  0  0
  142.1990   79.0360  223.2120 C   0  0  0  0  0  0  0  0  0  0  0  0
  141.4290   77.9590  222.7620 C   0  0  0  0  0  0  0  0  0  0  0  0
  140.0540   78.0780  222.7360 C   0  0  0  0  0  0  0  0  0  0  0  0
  139.2830   77.0560  222.3070 N   0  0  0  0  0  0  0  0  0  0  0  0
  140.3050   70.6120  225.8730 C   0  0  0  0  0  0  0  0  0  0  0  0
  139.9680   69.9660  227.0490 C   0  0  0  0  0  0  0  0  0  0  0  0
  140.3500   70.4270  228.2950 C   0  0  0  0  0  0  0  0  0  0  0  0
  141.1090   71.5950  228.3880 C   0  0  0  0  0  0  0  0  0  0  0  0
  141.4540   72.2540  227.2070 C   0  0  0  0  0  0  0  0  0  0  0  0
  141.0610   71.7750  225.9690 C   0  0  0  0  0  0  0  0  0  0  0  0
  138.9466   68.5598  225.7868 H   0  0  0  0  0  0  0  0  0  0  0  0
  138.0980   68.8932  224.2391 H   0  0  0  0  0  0  0  0  0  0  0  0
  139.6319   67.9584  224.2391 H   0  0  0  0  0  0  0  0  0  0  0  0
  140.7838   69.8131  224.0197 H   0  0  0  0  0  0  0  0  0  0  0  0
  138.1210   70.9560  223.7220 H   0  0  0  0  0  0  0  0  0  0  0  0
  138.8370   73.8805  222.8366 H   0  0  0  0  0  0  0  0  0  0  0  0
  140.0884   74.4818  220.8985 H   0  0  0  0  0  0  0  0  0  0  0  0
  141.0180   72.9920  221.1634 H   0  0  0  0  0  0  0  0  0  0  0  0
  140.0772   72.1735  219.1975 H   0  0  0  0  0  0  0  0  0  0  0  0
  139.4745   75.1078  220.4910 H   0  0  0  0  0  0  0  0  0  0  0  0
  140.5086   75.2444  219.0285 H   0  0  0  0  0  0  0  0  0  0  0  0
  138.8556   75.9474  219.0285 H   0  0  0  0  0  0  0  0  0  0  0  0
  140.2046   73.0271  217.4691 H   0  0  0  0  0  0  0  0  0  0  0  0
  138.4667   73.1051  217.0217 H   0  0  0  0  0  0  0  0  0  0  0  0
  139.4621   74.6004  217.0217 H   0  0  0  0  0  0  0  0  0  0  0  0
  137.3698   72.0307  219.5655 H   0  0  0  0  0  0  0  0  0  0  0  0
  138.4649   70.8927  220.3296 H   0  0  0  0  0  0  0  0  0  0  0  0
  135.6484   74.2134  221.0400 H   0  0  0  0  0  0  0  0  0  0  0  0
  134.9298   73.8932  222.6542 H   0  0  0  0  0  0  0  0  0  0  0  0
  137.0480   74.9650  223.6610 H   0  0  0  0  0  0  0  0  0  0  0  0
  136.2277   78.3939  222.6579 H   0  0  0  0  0  0  0  0  0  0  0  0
  137.5736   80.3342  223.4625 H   0  0  0  0  0  0  0  0  0  0  0  0
  139.7071   81.2513  223.9264 H   0  0  0  0  0  0  0  0  0  0  0  0
  143.2957   78.9547  223.2381 H   0  0  0  0  0  0  0  0  0  0  0  0
  141.9133   77.0279  222.4326 H   0  0  0  0  0  0  0  0  0  0  0  0
  139.3697   69.0449  226.9900 H   0  0  0  0  0  0  0  0  0  0  0  0
  140.0590   69.8794  229.2035 H   0  0  0  0  0  0  0  0  0  0  0  0
  141.4267   71.9856  229.3660 H   0  0  0  0  0  0  0  0  0  0  0  0
  142.0522   73.1755  227.2612 H   0  0  0  0  0  0  0  0  0  0  0  0
  141.3484   72.3175  225.0562 H   0  0  0  0  0  0  0  0  0  0  0  0
  1  2  1  0
  2  3  1  0
  3  4  1  0
  4  5  2  0
  4  6  1  0
  6  7  1  0
  7  8  1  0
  8  9  1  0
  9 10  1  0
  9 11  1  0
  8 12  1  0
 12 13  1  0
 13 14  1  0
 14 15  2  0
 14 16  1  0
 16 17  1  0
 17 18  1  0
 18 19  2  0
 18 20  1  0
 20 21  2  0
 21 22  1  0
 22 23  2  0
 23 24  1  0
 24 25  2  0
 25 26  1  0
 25 27  1  0
 27 28  2  0
 28 29  1  0
 29 30  2  0
  2 31  1  0
 31 32  2  0
 32 33  1  0
 33 34  2  0
 34 35  1  0
 35 36  2  0
 13  6  1  0
 30 20  1  0
 36 31  1  0
 29 23  1  0
  1 37  1  0
  1 38  1  0
  1 39  1  0
  2 40  1  6
  3 41  1  0
  6 42  1  1
  7 43  1  0
  7 44  1  0
  8 45  1  6
 10 46  1  0
 10 47  1  0
 10 48  1  0
 11 49  1  0
 11 50  1  0
 11 51  1  0
 12 52  1  0
 12 53  1  0
 16 54  1  0
 16 55  1  0
 17 56  1  0
 21 57  1  0
 22 58  1  0
 24 59  1  0
 27 60  1  0
 28 61  1  0
 32 62  1  0
 33 63  1  0
 34 64  1  0
 35 65  1  0
 36 66  1  0
M  END
>  <smiles>  (54) 
CC(NC(=O)[C@H]1C[C@H](N(C)C)CN1C(=O)CNC(=O)c1ccc2cc(Cl)ccc2n1)c1ccccc1

>  <score_type>  (54) 
oracle

>  <origin>  (54) 
autodockgpu

>  <m_score__min__energy>  (54) 
-9.8900000000000006

>  <m_primary>  (54) 
energy

>  <rmsd>  (54) 
9.009670158851025

>  <m_score__min__rmsd>  (54) 
9.009670158851025

>  <meeko>  (54) 
{"free_energy": -8.16, "intermolecular_energy": -10.55, "internal_energy": -2.92, "cluster_size": 1, "cluster_id": 7, "rank_in_cluster": 1}

>  <energy>  (54) 
-9.53

>  <cluster_rmsd>  (54) 
1.29

>  <cluster>  (54) 
1

$$$$

     RDKit          3D

 66 69  0  0  1  0  0  0  0  0999 V2000
  141.4020   78.2540  223.1050 C   0  0  0  0  0  0  0  0  0  0  0  0
  140.7030   77.7110  221.8850 C   0  0  1  0  0  0  0  0  0  0  0  0
  141.4660   76.6560  221.2460 N   0  0  0  0  0  0  0  0  0  0  0  0
  141.7850   76.6320  219.8720 C   0  0  0  0  0  0  0  0  0  0  0  0
  141.3830   77.5870  219.1360 O   0  0  0  0  0  0  0  0  0  0  0  0
  142.5630   75.5630  219.2090 C   0  0  1  0  0  0  0  0  0  0  0  0
  144.0180   75.7390  219.6130 C   0  0  0  0  0  0  0  0  0  0  0  0
  144.3550   74.5920  220.5230 C   0  0  2  0  0  0  0  0  0  0  0  0
  145.3220   73.7350  219.8720 N   0  0  0  0  0  0  0  0  0  0  0  0
  146.3260   73.3480  220.8370 C   0  0  0  0  0  0  0  0  0  0  0  0
  144.7220   72.5980  219.2310 C   0  0  0  0  0  0  0  0  0  0  0  0
  143.0550   73.8760  220.7860 C   0  0  0  0  0  0  0  0  0  0  0  0
  142.2230   74.2350  219.6270 N   0  0  0  0  0  0  0  0  0  0  0  0
  141.2300   73.4020  219.0040 C   0  0  0  0  0  0  0  0  0  0  0  0
  141.4990   72.6690  218.0150 O   0  0  0  0  0  0  0  0  0  0  0  0
  139.8510   73.4150  219.5540 C   0  0  0  0  0  0  0  0  0  0  0  0
  139.7460   72.4270  220.6180 N   0  0  0  0  0  0  0  0  0  0  0  0
  140.1710   72.8380  221.9110 C   0  0  0  0  0  0  0  0  0  0  0  0
  140.5990   74.0220  222.0090 O   0  0  0  0  0  0  0  0  0  0  0  0
  140.1160   71.9420  223.0600 C   0  0  0  0  0  0  0  0  0  0  0  0
  139.4690   70.7330  222.9120 C   0  0  0  0  0  0  0  0  0  0  0  0
  139.3740   69.8330  223.9550 C   0  0  0  0  0  0  0  0  0  0  0  0
  139.9570   70.2010  225.1470 C   0  0  0  0  0  0  0  0  0  0  0  0
  139.8800   69.3210  226.2110 C   0  0  0  0  0  0  0  0  0  0  0  0
  140.4580   69.6630  227.4310 C   0  0  0  0  0  0  0  0  0  0  0  0
  140.3260   68.5120  228.7290 Cl  0  0  0  0  0  0  0  0  0  0  0  0
  141.1100   70.8790  227.5840 C   0  0  0  0  0  0  0  0  0  0  0  0
  141.1900   71.7710  226.5100 C   0  0  0  0  0  0  0  0  0  0  0  0
  140.6140   71.4260  225.3030 C   0  0  0  0  0  0  0  0  0  0  0  0
  140.6750   72.2650  224.2470 N   0  0  0  0  0  0  0  0  0  0  0  0
  139.2960   77.3250  222.1660 C   0  0  0  0  0  0  0  0  0  0  0  0
  138.4020   78.2620  222.6520 C   0  0  0  0  0  0  0  0  0  0  0  0
  137.0820   77.9650  222.9320 C   0  0  0  0  0  0  0  0  0  0  0  0
  136.6140   76.6670  222.7200 C   0  0  0  0  0  0  0  0  0  0  0  0
  137.5080   75.7150  222.2280 C   0  0  0  0  0  0  0  0  0  0  0  0
  138.8270   76.0330  221.9540 C   0  0  0  0  0  0  0  0  0  0  0  0
  140.9091   77.8711  224.0108 H   0  0  0  0  0  0  0  0  0  0  0  0
  142.4545   77.9343  223.0973 H   0  0  0  0  0  0  0  0  0  0  0  0
  141.3525   79.3529  223.0973 H   0  0  0  0  0  0  0  0  0  0  0  0
  140.6469   78.5316  221.1547 H   0  0  0  0  0  0  0  0  0  0  0  0
  141.7880   75.8770  221.8580 H   0  0  0  0  0  0  0  0  0  0  0  0
  142.3556   75.6573  218.1329 H   0  0  0  0  0  0  0  0  0  0  0  0
  144.6638   75.7190  218.7227 H   0  0  0  0  0  0  0  0  0  0  0  0
  144.1747   76.7038  220.1177 H   0  0  0  0  0  0  0  0  0  0  0  0
  144.8055   74.9192  221.4717 H   0  0  0  0  0  0  0  0  0  0  0  0
  145.9346   73.4989  221.8539 H   0  0  0  0  0  0  0  0  0  0  0  0
  146.5807   72.2873  220.6958 H   0  0  0  0  0  0  0  0  0  0  0  0
  147.2268   73.9633  220.6958 H   0  0  0  0  0  0  0  0  0  0  0  0
  144.3529   71.8985  219.9955 H   0  0  0  0  0  0  0  0  0  0  0  0
  143.8825   72.9316  218.6033 H   0  0  0  0  0  0  0  0  0  0  0  0
  145.4712   72.0932  218.6033 H   0  0  0  0  0  0  0  0  0  0  0  0
  143.2090   72.7880  220.8372 H   0  0  0  0  0  0  0  0  0  0  0  0
  142.5972   74.1589  221.7454 H   0  0  0  0  0  0  0  0  0  0  0  0
  139.6258   74.4135  219.9567 H   0  0  0  0  0  0  0  0  0  0  0  0
  139.1344   73.1728  218.7554 H   0  0  0  0  0  0  0  0  0  0  0  0
  139.3800   71.4580  220.4640 H   0  0  0  0  0  0  0  0  0  0  0  0
  139.0184   70.4799  221.9410 H   0  0  0  0  0  0  0  0  0  0  0  0
  138.8575   68.8687  223.8392 H   0  0  0  0  0  0  0  0  0  0  0  0
  139.3650   68.3560  226.0943 H   0  0  0  0  0  0  0  0  0  0  0  0
  141.5641   71.1411  228.5510 H   0  0  0  0  0  0  0  0  0  0  0  0
  141.7055   72.7359  226.6251 H   0  0  0  0  0  0  0  0  0  0  0  0
  138.7576   79.2888  222.8231 H   0  0  0  0  0  0  0  0  0  0  0  0
  136.4070   78.7431  223.3179 H   0  0  0  0  0  0  0  0  0  0  0  0
  135.5684   76.4016  222.9350 H   0  0  0  0  0  0  0  0  0  0  0  0
  137.1561   74.6875  222.0538 H   0  0  0  0  0  0  0  0  0  0  0  0
  139.5074   75.2602  221.5668 H   0  0  0  0  0  0  0  0  0  0  0  0
  1  2  1  0
  2  3  1  0
  3  4  1  0
  4  5  2  0
  4  6  1  0
  6  7  1  0
  7  8  1  0
  8  9  1  0
  9 10  1  0
  9 11  1  0
  8 12  1  0
 12 13  1  0
 13 14  1  0
 14 15  2  0
 14 16  1  0
 16 17  1  0
 17 18  1  0
 18 19  2  0
 18 20  1  0
 20 21  2  0
 21 22  1  0
 22 23  2  0
 23 24  1  0
 24 25  2  0
 25 26  1  0
 25 27  1  0
 27 28  2  0
 28 29  1  0
 29 30  2  0
  2 31  1  0
 31 32  2  0
 32 33  1  0
 33 34  2  0
 34 35  1  0
 35 36  2  0
 13  6  1  0
 30 20  1  0
 36 31  1  0
 29 23  1  0
  1 37  1  0
  1 38  1  0
  1 39  1  0
  2 40  1  6
  3 41  1  0
  6 42  1  6
  7 43  1  0
  7 44  1  0
  8 45  1  1
 10 46  1  0
 10 47  1  0
 10 48  1  0
 11 49  1  0
 11 50  1  0
 11 51  1  0
 12 52  1  0
 12 53  1  0
 16 54  1  0
 16 55  1  0
 17 56  1  0
 21 57  1  0
 22 58  1  0
 24 59  1  0
 27 60  1  0
 28 61  1  0
 32 62  1  0
 33 63  1  0
 34 64  1  0
 35 65  1  0
 36 66  1  0
M  END
>  <smiles>  (55) 
CC(NC(=O)[C@H]1C[C@H](N(C)C)CN1C(=O)CNC(=O)c1ccc2cc(Cl)ccc2n1)c1ccccc1

>  <score_type>  (55) 
oracle

>  <origin>  (55) 
autodockgpu

>  <m_score__min__energy>  (55) 
-9.8900000000000006

>  <m_primary>  (55) 
energy

>  <rmsd>  (55) 
3.559081337807406

>  <m_score__min__rmsd>  (55) 
3.559081337807406

>  <meeko>  (55) 
{"free_energy": -8.69, "intermolecular_energy": -11.08, "internal_energy": -3.12, "cluster_size": 21, "cluster_id": 1, "rank_in_cluster": 14}

>  <energy>  (55) 
-9.48

>  <cluster_rmsd>  (55) 
1.68

>  <cluster>  (55) 
1

$$$$

     RDKit          3D

 66 69  0  0  1  0  0  0  0  0999 V2000
  142.2130   80.3340  218.7470 C   0  0  0  0  0  0  0  0  0  0  0  0
  141.7030   79.3310  219.7500 C   0  0  1  0  0  0  0  0  0  0  0  0
  142.2840   78.0180  219.5500 N   0  0  0  0  0  0  0  0  0  0  0  0
  141.6070   76.9360  218.9510 C   0  0  0  0  0  0  0  0  0  0  0  0
  140.4110   77.1080  218.5580 O   0  0  0  0  0  0  0  0  0  0  0  0
  142.1890   75.5930  218.7400 C   0  0  1  0  0  0  0  0  0  0  0  0
  143.6750   75.6850  219.0480 C   0  0  0  0  0  0  0  0  0  0  0  0
  143.8990   74.9230  220.3230 C   0  0  2  0  0  0  0  0  0  0  0  0
  144.6980   73.7500  220.0440 N   0  0  0  0  0  0  0  0  0  0  0  0
  145.8950   73.7980  220.8550 C   0  0  0  0  0  0  0  0  0  0  0  0
  143.9740   72.5230  220.2220 C   0  0  0  0  0  0  0  0  0  0  0  0
  142.5290   74.5620  220.8360 C   0  0  0  0  0  0  0  0  0  0  0  0
  141.6910   74.5850  219.6280 N   0  0  0  0  0  0  0  0  0  0  0  0
  140.5580   73.7390  219.3650 C   0  0  0  0  0  0  0  0  0  0  0  0
  140.5950   72.8220  218.5010 O   0  0  0  0  0  0  0  0  0  0  0  0
  139.3130   73.9650  220.1420 C   0  0  0  0  0  0  0  0  0  0  0  0
  139.0620   75.3940  220.2470 N   0  0  0  0  0  0  0  0  0  0  0  0
  139.2310   75.9770  221.5330 C   0  0  0  0  0  0  0  0  0  0  0  0
  139.5850   75.1940  222.4590 O   0  0  0  0  0  0  0  0  0  0  0  0
  139.0100   77.3990  221.7690 C   0  0  0  0  0  0  0  0  0  0  0  0
  139.0130   77.8500  223.0720 C   0  0  0  0  0  0  0  0  0  0  0  0
  138.8070   79.1810  223.3750 C   0  0  0  0  0  0  0  0  0  0  0  0
  138.6020   80.0350  222.3140 C   0  0  0  0  0  0  0  0  0  0  0  0
  138.3940   81.3750  222.5830 C   0  0  0  0  0  0  0  0  0  0  0  0
  138.1830   82.2640  221.5330 C   0  0  0  0  0  0  0  0  0  0  0  0
  137.9280   83.9370  221.9400 Cl  0  0  0  0  0  0  0  0  0  0  0  0
  138.1790   81.8140  220.2200 C   0  0  0  0  0  0  0  0  0  0  0  0
  138.3890   80.4590  219.9430 C   0  0  0  0  0  0  0  0  0  0  0  0
  138.5980   79.5820  220.9900 C   0  0  0  0  0  0  0  0  0  0  0  0
  138.8040   78.2690  220.7560 N   0  0  0  0  0  0  0  0  0  0  0  0
  141.8290   79.8180  221.1480 C   0  0  0  0  0  0  0  0  0  0  0  0
  142.0900   78.9280  222.1740 C   0  0  0  0  0  0  0  0  0  0  0  0
  142.2180   79.3180  223.4930 C   0  0  0  0  0  0  0  0  0  0  0  0
  142.0800   80.6690  223.8220 C   0  0  0  0  0  0  0  0  0  0  0  0
  141.8180   81.5750  222.7940 C   0  0  0  0  0  0  0  0  0  0  0  0
  141.6930   81.1620  221.4790 C   0  0  0  0  0  0  0  0  0  0  0  0
  142.6498   81.1931  219.2772 H   0  0  0  0  0  0  0  0  0  0  0  0
  142.9813   79.8633  218.1159 H   0  0  0  0  0  0  0  0  0  0  0  0
  141.3801   80.6775  218.1159 H   0  0  0  0  0  0  0  0  0  0  0  0
  140.6239   79.2165  219.5698 H   0  0  0  0  0  0  0  0  0  0  0  0
  143.2650   77.8880  219.8780 H   0  0  0  0  0  0  0  0  0  0  0  0
  141.9363   75.3094  217.7077 H   0  0  0  0  0  0  0  0  0  0  0  0
  144.2600   75.2375  218.2310 H   0  0  0  0  0  0  0  0  0  0  0  0
  143.9937   76.7327  219.1518 H   0  0  0  0  0  0  0  0  0  0  0  0
  144.4440   75.5082  221.0783 H   0  0  0  0  0  0  0  0  0  0  0  0
  145.6175   73.7869  221.9194 H   0  0  0  0  0  0  0  0  0  0  0  0
  146.5248   72.9244  220.6311 H   0  0  0  0  0  0  0  0  0  0  0  0
  146.4529   74.7192  220.6311 H   0  0  0  0  0  0  0  0  0  0  0  0
  143.8544   72.3204  221.2965 H   0  0  0  0  0  0  0  0  0  0  0  0
  142.9829   72.6107  219.7529 H   0  0  0  0  0  0  0  0  0  0  0  0
  144.5300   71.6979  219.7529 H   0  0  0  0  0  0  0  0  0  0  0  0
  142.5318   73.5615  221.2932 H   0  0  0  0  0  0  0  0  0  0  0  0
  142.1708   75.2476  221.6181 H   0  0  0  0  0  0  0  0  0  0  0  0
  138.4681   73.4805  219.6306 H   0  0  0  0  0  0  0  0  0  0  0  0
  139.4253   73.5366  221.1489 H   0  0  0  0  0  0  0  0  0  0  0  0
  138.7700   75.9850  219.4330 H   0  0  0  0  0  0  0  0  0  0  0  0
  139.1834   77.1330  223.8886 H   0  0  0  0  0  0  0  0  0  0  0  0
  138.8066   79.5422  224.4140 H   0  0  0  0  0  0  0  0  0  0  0  0
  138.3952   81.7369  223.6218 H   0  0  0  0  0  0  0  0  0  0  0  0
  138.0105   82.5235  219.3965 H   0  0  0  0  0  0  0  0  0  0  0  0
  138.3878   80.0962  218.9045 H   0  0  0  0  0  0  0  0  0  0  0  0
  142.2006   77.8614  221.9286 H   0  0  0  0  0  0  0  0  0  0  0  0
  142.4262   78.5734  224.2755 H   0  0  0  0  0  0  0  0  0  0  0  0
  142.1754   81.0091  224.8638 H   0  0  0  0  0  0  0  0  0  0  0  0
  141.7082   82.6428  223.0343 H   0  0  0  0  0  0  0  0  0  0  0  0
  141.4849   81.9009  220.6912 H   0  0  0  0  0  0  0  0  0  0  0  0
  1  2  1  0
  2  3  1  0
  3  4  1  0
  4  5  2  0
  4  6  1  0
  6  7  1  0
  7  8  1  0
  8  9  1  0
  9 10  1  0
  9 11  1  0
  8 12  1  0
 12 13  1  0
 13 14  1  0
 14 15  2  0
 14 16  1  0
 16 17  1  0
 17 18  1  0
 18 19  2  0
 18 20  1  0
 20 21  2  0
 21 22  1  0
 22 23  2  0
 23 24  1  0
 24 25  2  0
 25 26  1  0
 25 27  1  0
 27 28  2  0
 28 29  1  0
 29 30  2  0
  2 31  1  0
 31 32  2  0
 32 33  1  0
 33 34  2  0
 34 35  1  0
 35 36  2  0
 13  6  1  0
 30 20  1  0
 36 31  1  0
 29 23  1  0
  1 37  1  0
  1 38  1  0
  1 39  1  0
  2 40  1  6
  3 41  1  0
  6 42  1  6
  7 43  1  0
  7 44  1  0
  8 45  1  1
 10 46  1  0
 10 47  1  0
 10 48  1  0
 11 49  1  0
 11 50  1  0
 11 51  1  0
 12 52  1  0
 12 53  1  0
 16 54  1  0
 16 55  1  0
 17 56  1  0
 21 57  1  0
 22 58  1  0
 24 59  1  0
 27 60  1  0
 28 61  1  0
 32 62  1  0
 33 63  1  0
 34 64  1  0
 35 65  1  0
 36 66  1  0
M  END
>  <smiles>  (56) 
CC(NC(=O)[C@H]1C[C@H](N(C)C)CN1C(=O)CNC(=O)c1ccc2cc(Cl)ccc2n1)c1ccccc1

>  <score_type>  (56) 
oracle

>  <origin>  (56) 
autodockgpu

>  <m_score__min__energy>  (56) 
-9.8900000000000006

>  <m_primary>  (56) 
energy

>  <rmsd>  (56) 
6.953375957089499

>  <m_score__min__rmsd>  (56) 
6.953375957089499

>  <meeko>  (56) 
{"free_energy": -6.55, "intermolecular_energy": -8.94, "internal_energy": -5.19, "cluster_size": 7, "cluster_id": 8, "rank_in_cluster": 2}

>  <energy>  (56) 
-9.33

>  <cluster_rmsd>  (56) 
0.7

>  <cluster>  (56) 
1

$$$$

     RDKit          3D

 66 69  0  0  1  0  0  0  0  0999 V2000
  142.1960   79.5520  218.9190 C   0  0  0  0  0  0  0  0  0  0  0  0
  141.2260   78.9180  219.8830 C   0  0  1  0  0  0  0  0  0  0  0  0
  141.0570   77.5000  219.6310 N   0  0  0  0  0  0  0  0  0  0  0  0
  142.1150   76.5680  219.6100 C   0  0  0  0  0  0  0  0  0  0  0  0
  143.2970   76.9830  219.8230 O   0  0  0  0  0  0  0  0  0  0  0  0
  141.9540   75.1200  219.3570 C   0  0  1  0  0  0  0  0  0  0  0  0
  143.1610   74.6600  218.5540 C   0  0  0  0  0  0  0  0  0  0  0  0
  143.9840   73.7980  219.4690 C   0  0  2  0  0  0  0  0  0  0  0  0
  143.9660   72.4350  218.9840 N   0  0  0  0  0  0  0  0  0  0  0  0
  145.1990   72.1760  218.2760 C   0  0  0  0  0  0  0  0  0  0  0  0
  143.7280   71.4740  220.0240 C   0  0  0  0  0  0  0  0  0  0  0  0
  143.3530   73.9200  220.8320 C   0  0  0  0  0  0  0  0  0  0  0  0
  141.9650   74.3070  220.5360 N   0  0  0  0  0  0  0  0  0  0  0  0
  140.8010   73.9360  221.2950 C   0  0  0  0  0  0  0  0  0  0  0  0
  140.8820   73.2620  222.3570 O   0  0  0  0  0  0  0  0  0  0  0  0
  139.4690   74.3660  220.7990 C   0  0  0  0  0  0  0  0  0  0  0  0
  138.8680   75.2790  221.7600 N   0  0  0  0  0  0  0  0  0  0  0  0
  138.4140   76.5270  221.2530 C   0  0  0  0  0  0  0  0  0  0  0  0
  138.5780   76.7210  220.0150 O   0  0  0  0  0  0  0  0  0  0  0  0
  137.7940   77.5280  222.1130 C   0  0  0  0  0  0  0  0  0  0  0  0
  136.4370   77.4410  222.3400 C   0  0  0  0  0  0  0  0  0  0  0  0
  135.7790   78.3530  223.1410 C   0  0  0  0  0  0  0  0  0  0  0  0
  136.5440   79.3510  223.7020 C   0  0  0  0  0  0  0  0  0  0  0  0
  135.9140   80.2800  224.5100 C   0  0  0  0  0  0  0  0  0  0  0  0
  136.6590   81.3030  225.0920 C   0  0  0  0  0  0  0  0  0  0  0  0
  135.8070   82.4390  226.0990 Cl  0  0  0  0  0  0  0  0  0  0  0  0
  138.0250   81.3950  224.8660 C   0  0  0  0  0  0  0  0  0  0  0  0
  138.6650   80.4570  224.0500 C   0  0  0  0  0  0  0  0  0  0  0  0
  137.9210   79.4450  223.4750 C   0  0  0  0  0  0  0  0  0  0  0  0
  138.5090   78.5240  222.6820 N   0  0  0  0  0  0  0  0  0  0  0  0
  141.5590   79.2230  221.2990 C   0  0  0  0  0  0  0  0  0  0  0  0
  141.9900   80.4880  221.6550 C   0  0  0  0  0  0  0  0  0  0  0  0
  142.3130   80.8340  222.9530 C   0  0  0  0  0  0  0  0  0  0  0  0
  142.2050   79.8750  223.9620 C   0  0  0  0  0  0  0  0  0  0  0  0
  141.7700   78.5960  223.6130 C   0  0  0  0  0  0  0  0  0  0  0  0
  141.4510   78.2700  222.3060 C   0  0  0  0  0  0  0  0  0  0  0  0
  142.9871   80.0691  219.4818 H   0  0  0  0  0  0  0  0  0  0  0  0
  142.6458   78.7730  218.2859 H   0  0  0  0  0  0  0  0  0  0  0  0
  141.6630   80.2766  218.2859 H   0  0  0  0  0  0  0  0  0  0  0  0
  140.2438   79.3784  219.7007 H   0  0  0  0  0  0  0  0  0  0  0  0
  140.0830   77.1710  219.4570 H   0  0  0  0  0  0  0  0  0  0  0  0
  140.9806   75.0033  218.8582 H   0  0  0  0  0  0  0  0  0  0  0  0
  142.8351   74.0801  217.6780 H   0  0  0  0  0  0  0  0  0  0  0  0
  143.7437   75.5182  218.1880 H   0  0  0  0  0  0  0  0  0  0  0  0
  145.0386   74.1076  219.5118 H   0  0  0  0  0  0  0  0  0  0  0  0
  146.0090   72.0059  219.0005 H   0  0  0  0  0  0  0  0  0  0  0  0
  145.0786   71.2835  217.6443 H   0  0  0  0  0  0  0  0  0  0  0  0
  145.4479   73.0415  217.6443 H   0  0  0  0  0  0  0  0  0  0  0  0
  143.8478   71.9577  221.0046 H   0  0  0  0  0  0  0  0  0  0  0  0
  142.7051   71.0799  219.9320 H   0  0  0  0  0  0  0  0  0  0  0  0
  144.4487   70.6481  219.9320 H   0  0  0  0  0  0  0  0  0  0  0  0
  143.3875   72.9602  221.3683 H   0  0  0  0  0  0  0  0  0  0  0  0
  143.8700   74.6433  221.4797 H   0  0  0  0  0  0  0  0  0  0  0  0
  139.5846   74.8756  219.8311 H   0  0  0  0  0  0  0  0  0  0  0  0
  138.8215   73.4857  220.6733 H   0  0  0  0  0  0  0  0  0  0  0  0
  138.7640   75.0520  222.7770 H   0  0  0  0  0  0  0  0  0  0  0  0
  135.8652   76.6261  221.8721 H   0  0  0  0  0  0  0  0  0  0  0  0
  134.6961   78.2856  223.3222 H   0  0  0  0  0  0  0  0  0  0  0  0
  134.8313   80.2114  224.6919 H   0  0  0  0  0  0  0  0  0  0  0  0
  138.6050   82.2067  225.3293 H   0  0  0  0  0  0  0  0  0  0  0  0
  139.7478   80.5241  223.8682 H   0  0  0  0  0  0  0  0  0  0  0  0
  142.0797   81.2529  220.8696 H   0  0  0  0  0  0  0  0  0  0  0  0
  142.6515   81.8537  223.1889 H   0  0  0  0  0  0  0  0  0  0  0  0
  142.4561   80.1212  225.0043 H   0  0  0  0  0  0  0  0  0  0  0  0
  141.6783   77.8282  224.3953 H   0  0  0  0  0  0  0  0  0  0  0  0
  141.1106   77.2526  222.0629 H   0  0  0  0  0  0  0  0  0  0  0  0
  1  2  1  0
  2  3  1  0
  3  4  1  0
  4  5  2  0
  4  6  1  0
  6  7  1  0
  7  8  1  0
  8  9  1  0
  9 10  1  0
  9 11  1  0
  8 12  1  0
 12 13  1  0
 13 14  1  0
 14 15  2  0
 14 16  1  0
 16 17  1  0
 17 18  1  0
 18 19  2  0
 18 20  1  0
 20 21  2  0
 21 22  1  0
 22 23  2  0
 23 24  1  0
 24 25  2  0
 25 26  1  0
 25 27  1  0
 27 28  2  0
 28 29  1  0
 29 30  2  0
  2 31  1  0
 31 32  2  0
 32 33  1  0
 33 34  2  0
 34 35  1  0
 35 36  2  0
 13  6  1  0
 30 20  1  0
 36 31  1  0
 29 23  1  0
  1 37  1  0
  1 38  1  0
  1 39  1  0
  2 40  1  6
  3 41  1  0
  6 42  1  6
  7 43  1  0
  7 44  1  0
  8 45  1  1
 10 46  1  0
 10 47  1  0
 10 48  1  0
 11 49  1  0
 11 50  1  0
 11 51  1  0
 12 52  1  0
 12 53  1  0
 16 54  1  0
 16 55  1  0
 17 56  1  0
 21 57  1  0
 22 58  1  0
 24 59  1  0
 27 60  1  0
 28 61  1  0
 32 62  1  0
 33 63  1  0
 34 64  1  0
 35 65  1  0
 36 66  1  0
M  END
>  <smiles>  (57) 
CC(NC(=O)[C@H]1C[C@H](N(C)C)CN1C(=O)CNC(=O)c1ccc2cc(Cl)ccc2n1)c1ccccc1

>  <score_type>  (57) 
oracle

>  <origin>  (57) 
autodockgpu

>  <m_score__min__energy>  (57) 
-9.8900000000000006

>  <m_primary>  (57) 
energy

>  <rmsd>  (57) 
6.461887875239636

>  <m_score__min__rmsd>  (57) 
6.461887875239636

>  <meeko>  (57) 
{"free_energy": -7.05, "intermolecular_energy": -9.44, "internal_energy": -4.02, "cluster_size": 5, "cluster_id": 9, "rank_in_cluster": 1}

>  <energy>  (57) 
-9.3

>  <cluster_rmsd>  (57) 
0.76

>  <cluster>  (57) 
1

$$$$

     RDKit          3D

 66 69  0  0  1  0  0  0  0  0999 V2000
  142.1750   80.7350  219.0590 C   0  0  0  0  0  0  0  0  0  0  0  0
  141.5910   79.6700  219.9510 C   0  0  1  0  0  0  0  0  0  0  0  0
  142.0260   78.3400  219.5690 N   0  0  0  0  0  0  0  0  0  0  0  0
  141.1850   77.2090  219.5490 C   0  0  0  0  0  0  0  0  0  0  0  0
  139.9680   77.3470  219.8870 O   0  0  0  0  0  0  0  0  0  0  0  0
  141.6160   75.8480  219.1590 C   0  0  1  0  0  0  0  0  0  0  0  0
  143.1300   75.7940  219.2860 C   0  0  0  0  0  0  0  0  0  0  0  0
  143.4330   74.9040  220.4580 C   0  0  2  0  0  0  0  0  0  0  0  0
  144.0860   73.7020  219.9870 N   0  0  0  0  0  0  0  0  0  0  0  0
  145.4500   73.6950  220.4650 C   0  0  0  0  0  0  0  0  0  0  0  0
  143.3810   72.5030  220.3480 C   0  0  0  0  0  0  0  0  0  0  0  0
  142.1060   74.6070  221.1070 C   0  0  0  0  0  0  0  0  0  0  0  0
  141.1370   74.8060  220.0180 N   0  0  0  0  0  0  0  0  0  0  0  0
  139.9100   74.0800  219.8310 C   0  0  0  0  0  0  0  0  0  0  0  0
  139.7370   73.3000  218.8560 O   0  0  0  0  0  0  0  0  0  0  0  0
  138.8220   74.2660  220.8240 C   0  0  0  0  0  0  0  0  0  0  0  0
  139.1510   73.5400  222.0410 N   0  0  0  0  0  0  0  0  0  0  0  0
  139.0710   72.1210  221.9770 C   0  0  0  0  0  0  0  0  0  0  0  0
  138.7210   71.6310  220.8660 O   0  0  0  0  0  0  0  0  0  0  0  0
  139.3750   71.2800  223.1280 C   0  0  0  0  0  0  0  0  0  0  0  0
  139.0600   69.9390  223.0560 C   0  0  0  0  0  0  0  0  0  0  0  0
  139.3150   69.0810  224.1060 C   0  0  0  0  0  0  0  0  0  0  0  0
  139.8990   69.6280  225.2270 C   0  0  0  0  0  0  0  0  0  0  0  0
  140.1690   68.7930  226.2970 C   0  0  0  0  0  0  0  0  0  0  0  0
  140.7590   69.3150  227.4450 C   0  0  0  0  0  0  0  0  0  0  0  0
  141.0720   68.2120  228.7540 Cl  0  0  0  0  0  0  0  0  0  0  0  0
  141.0770   70.6640  227.5220 C   0  0  0  0  0  0  0  0  0  0  0  0
  140.8060   71.5100  226.4420 C   0  0  0  0  0  0  0  0  0  0  0  0
  140.2210   70.9870  225.3060 C   0  0  0  0  0  0  0  0  0  0  0  0
  139.9470   71.7780  224.2470 N   0  0  0  0  0  0  0  0  0  0  0  0
  141.8060   79.9620  221.3920 C   0  0  0  0  0  0  0  0  0  0  0  0
  141.8410   81.2700  221.8400 C   0  0  0  0  0  0  0  0  0  0  0  0
  142.0370   81.6050  223.1650 C   0  0  0  0  0  0  0  0  0  0  0  0
  142.2090   80.5900  224.1080 C   0  0  0  0  0  0  0  0  0  0  0  0
  142.1750   79.2670  223.6670 C   0  0  0  0  0  0  0  0  0  0  0  0
  141.9780   78.9520  222.3340 C   0  0  0  0  0  0  0  0  0  0  0  0
  142.6123   81.5324  219.6779 H   0  0  0  0  0  0  0  0  0  0  0  0
  142.9570   80.2932  218.4240 H   0  0  0  0  0  0  0  0  0  0  0  0
  141.3820   81.1568  218.4240 H   0  0  0  0  0  0  0  0  0  0  0  0
  140.5014   79.6879  219.8011 H   0  0  0  0  0  0  0  0  0  0  0  0
  143.0270   78.2380  219.2950 H   0  0  0  0  0  0  0  0  0  0  0  0
  141.2199   75.6802  218.1466 H   0  0  0  0  0  0  0  0  0  0  0  0
  143.5728   75.3776  218.3692 H   0  0  0  0  0  0  0  0  0  0  0  0
  143.5510   76.7995  219.4332 H   0  0  0  0  0  0  0  0  0  0  0  0
  144.1125   75.3731  221.1848 H   0  0  0  0  0  0  0  0  0  0  0  0
  145.4530   73.6950  221.5650 H   0  0  0  0  0  0  0  0  0  0  0  0
  145.9629   72.7942  220.0969 H   0  0  0  0  0  0  0  0  0  0  0  0
  145.9721   74.5905  220.0969 H   0  0  0  0  0  0  0  0  0  0  0  0
  143.3332   72.4217  221.4440 H   0  0  0  0  0  0  0  0  0  0  0  0
  142.3609   72.5400  219.9382 H   0  0  0  0  0  0  0  0  0  0  0  0
  143.9093   71.6295  219.9382 H   0  0  0  0  0  0  0  0  0  0  0  0
  142.0730   73.5720  221.4780 H   0  0  0  0  0  0  0  0  0  0  0  0
  141.9048   75.2446  221.9805 H   0  0  0  0  0  0  0  0  0  0  0  0
  138.7129   75.3363  221.0530 H   0  0  0  0  0  0  0  0  0  0  0  0
  137.8773   73.8828  220.4109 H   0  0  0  0  0  0  0  0  0  0  0  0
  139.4340   74.0140  222.9310 H   0  0  0  0  0  0  0  0  0  0  0  0
  138.5949   69.5446  222.1405 H   0  0  0  0  0  0  0  0  0  0  0  0
  139.0639   68.0115  224.0505 H   0  0  0  0  0  0  0  0  0  0  0  0
  139.9190   67.7233  226.2409 H   0  0  0  0  0  0  0  0  0  0  0  0
  141.5425   71.0678  228.4332 H   0  0  0  0  0  0  0  0  0  0  0  0
  141.0560   72.5798  226.4969 H   0  0  0  0  0  0  0  0  0  0  0  0
  141.7067   82.0798  221.1078 H   0  0  0  0  0  0  0  0  0  0  0  0
  142.0574   82.6604  223.4743 H   0  0  0  0  0  0  0  0  0  0  0  0
  142.3671   80.8272  225.1704 H   0  0  0  0  0  0  0  0  0  0  0  0
  142.3080   78.4545  224.3965 H   0  0  0  0  0  0  0  0  0  0  0  0
  141.9572   77.8987  222.0175 H   0  0  0  0  0  0  0  0  0  0  0  0
  1  2  1  0
  2  3  1  0
  3  4  1  0
  4  5  2  0
  4  6  1  0
  6  7  1  0
  7  8  1  0
  8  9  1  0
  9 10  1  0
  9 11  1  0
  8 12  1  0
 12 13  1  0
 13 14  1  0
 14 15  2  0
 14 16  1  0
 16 17  1  0
 17 18  1  0
 18 19  2  0
 18 20  1  0
 20 21  2  0
 21 22  1  0
 22 23  2  0
 23 24  1  0
 24 25  2  0
 25 26  1  0
 25 27  1  0
 27 28  2  0
 28 29  1  0
 29 30  2  0
  2 31  1  0
 31 32  2  0
 32 33  1  0
 33 34  2  0
 34 35  1  0
 35 36  2  0
 13  6  1  0
 30 20  1  0
 36 31  1  0
 29 23  1  0
  1 37  1  0
  1 38  1  0
  1 39  1  0
  2 40  1  1
  3 41  1  0
  6 42  1  6
  7 43  1  0
  7 44  1  0
  8 45  1  1
 10 46  1  0
 10 47  1  0
 10 48  1  0
 11 49  1  0
 11 50  1  0
 11 51  1  0
 12 52  1  0
 12 53  1  0
 16 54  1  0
 16 55  1  0
 17 56  1  0
 21 57  1  0
 22 58  1  0
 24 59  1  0
 27 60  1  0
 28 61  1  0
 32 62  1  0
 33 63  1  0
 34 64  1  0
 35 65  1  0
 36 66  1  0
M  END
>  <smiles>  (58) 
CC(NC(=O)[C@H]1C[C@H](N(C)C)CN1C(=O)CNC(=O)c1ccc2cc(Cl)ccc2n1)c1ccccc1

>  <score_type>  (58) 
oracle

>  <origin>  (58) 
autodockgpu

>  <m_score__min__energy>  (58) 
-9.8900000000000006

>  <m_primary>  (58) 
energy

>  <rmsd>  (58) 
2.8652983079582786

>  <m_score__min__rmsd>  (58) 
2.8652983079582786

>  <meeko>  (58) 
{"free_energy": -9.48, "intermolecular_energy": -11.87, "internal_energy": -2.28, "cluster_size": 21, "cluster_id": 1, "rank_in_cluster": 5}

>  <energy>  (58) 
-9.1

>  <cluster_rmsd>  (58) 
1.29

>  <cluster>  (58) 
1

$$$$

     RDKit          3D

 66 69  0  0  1  0  0  0  0  0999 V2000
  139.1800   77.2020  222.5160 C   0  0  0  0  0  0  0  0  0  0  0  0
  140.6710   77.2880  222.7210 C   0  0  1  0  0  0  0  0  0  0  0  0
  141.4070   76.7290  221.6040 N   0  0  0  0  0  0  0  0  0  0  0  0
  141.3650   75.3700  221.2300 C   0  0  0  0  0  0  0  0  0  0  0  0
  140.6420   74.5740  221.9070 O   0  0  0  0  0  0  0  0  0  0  0  0
  142.1100   74.7880  220.0920 C   0  0  1  0  0  0  0  0  0  0  0  0
  143.5630   74.6530  220.5170 C   0  0  0  0  0  0  0  0  0  0  0  0
  143.8330   73.1830  220.6700 C   0  0  2  0  0  0  0  0  0  0  0  0
  144.7750   72.7650  219.6550 N   0  0  0  0  0  0  0  0  0  0  0  0
  146.0940   73.2330  220.0200 C   0  0  0  0  0  0  0  0  0  0  0  0
  144.7520   71.3480  219.4190 C   0  0  0  0  0  0  0  0  0  0  0  0
  142.5000   72.4990  220.5180 C   0  0  0  0  0  0  0  0  0  0  0  0
  141.7060   73.4600  219.7370 N   0  0  0  0  0  0  0  0  0  0  0  0
  140.6900   73.1350  218.7720 C   0  0  0  0  0  0  0  0  0  0  0  0
  140.8640   73.3080  217.5350 O   0  0  0  0  0  0  0  0  0  0  0  0
  139.4030   72.5810  219.2600 C   0  0  0  0  0  0  0  0  0  0  0  0
  139.5410   72.2000  220.6580 N   0  0  0  0  0  0  0  0  0  0  0  0
  139.3260   70.8280  220.9660 C   0  0  0  0  0  0  0  0  0  0  0  0
  139.0350   70.0750  219.9950 O   0  0  0  0  0  0  0  0  0  0  0  0
  139.4340   70.3190  222.3290 C   0  0  0  0  0  0  0  0  0  0  0  0
  138.8790   69.0890  222.6100 C   0  0  0  0  0  0  0  0  0  0  0  0
  138.9390   68.5430  223.8770 C   0  0  0  0  0  0  0  0  0  0  0  0
  139.5800   69.2850  224.8430 C   0  0  0  0  0  0  0  0  0  0  0  0
  139.6590   68.7660  226.1220 C   0  0  0  0  0  0  0  0  0  0  0  0
  140.3010   69.4910  227.1220 C   0  0  0  0  0  0  0  0  0  0  0  0
  140.3650   68.7810  228.7100 Cl  0  0  0  0  0  0  0  0  0  0  0  0
  140.8610   70.7310  226.8430 C   0  0  0  0  0  0  0  0  0  0  0  0
  140.7840   71.2590  225.5510 C   0  0  0  0  0  0  0  0  0  0  0  0
  140.1460   70.5340  224.5630 C   0  0  0  0  0  0  0  0  0  0  0  0
  140.0550   71.0170  223.3060 N   0  0  0  0  0  0  0  0  0  0  0  0
  141.1120   78.6610  223.0810 C   0  0  0  0  0  0  0  0  0  0  0  0
  142.4490   79.0050  223.0020 C   0  0  0  0  0  0  0  0  0  0  0  0
  142.9200   80.2640  223.3230 C   0  0  0  0  0  0  0  0  0  0  0  0
  142.0200   81.2430  223.7470 C   0  0  0  0  0  0  0  0  0  0  0  0
  140.6680   80.9050  223.8290 C   0  0  0  0  0  0  0  0  0  0  0  0
  140.2170   79.6380  223.5030 C   0  0  0  0  0  0  0  0  0  0  0  0
  138.6766   77.1730  223.4936 H   0  0  0  0  0  0  0  0  0  0  0  0
  138.8360   78.0818  221.9524 H   0  0  0  0  0  0  0  0  0  0  0  0
  138.9394   76.2885  221.9524 H   0  0  0  0  0  0  0  0  0  0  0  0
  140.9127   76.6585  223.5901 H   0  0  0  0  0  0  0  0  0  0  0  0
  141.9990   77.3910  221.0570 H   0  0  0  0  0  0  0  0  0  0  0  0
  141.9277   75.4535  219.2353 H   0  0  0  0  0  0  0  0  0  0  0  0
  144.2240   75.0820  219.7495 H   0  0  0  0  0  0  0  0  0  0  0  0
  143.7516   75.1901  221.4583 H   0  0  0  0  0  0  0  0  0  0  0  0
  144.2782   72.9298  221.6435 H   0  0  0  0  0  0  0  0  0  0  0  0
  146.1817   73.2641  221.1161 H   0  0  0  0  0  0  0  0  0  0  0  0
  146.8520   72.5490  219.6108 H   0  0  0  0  0  0  0  0  0  0  0  0
  146.2514   74.2418  219.6108 H   0  0  0  0  0  0  0  0  0  0  0  0
  144.7434   70.8160  220.3818 H   0  0  0  0  0  0  0  0  0  0  0  0
  143.8495   71.0861  218.8473 H   0  0  0  0  0  0  0  0  0  0  0  0
  145.6455   71.0570  218.8473 H   0  0  0  0  0  0  0  0  0  0  0  0
  142.6064   71.5466  219.9779 H   0  0  0  0  0  0  0  0  0  0  0  0
  142.0367   72.2457  221.4830 H   0  0  0  0  0  0  0  0  0  0  0  0
  138.6151   73.3425  219.1630 H   0  0  0  0  0  0  0  0  0  0  0  0
  139.1327   71.6976  218.6629 H   0  0  0  0  0  0  0  0  0  0  0  0
  139.7850   72.8800  221.4150 H   0  0  0  0  0  0  0  0  0  0  0  0
  138.3769   68.5297  221.8068 H   0  0  0  0  0  0  0  0  0  0  0  0
  138.4957   67.5621  224.1034 H   0  0  0  0  0  0  0  0  0  0  0  0
  139.2166   67.7847  226.3484 H   0  0  0  0  0  0  0  0  0  0  0  0
  141.3654   71.2980  227.6393 H   0  0  0  0  0  0  0  0  0  0  0  0
  141.2262   72.2402  225.3236 H   0  0  0  0  0  0  0  0  0  0  0  0
  143.1693   78.2432  222.6691 H   0  0  0  0  0  0  0  0  0  0  0  0
  143.9932   80.4922  223.2451 H   0  0  0  0  0  0  0  0  0  0  0  0
  142.3666   82.2534  224.0094 H   0  0  0  0  0  0  0  0  0  0  0  0
  139.9440   81.6638  224.1606 H   0  0  0  0  0  0  0  0  0  0  0  0
  139.1451   79.4025  223.5781 H   0  0  0  0  0  0  0  0  0  0  0  0
  1  2  1  0
  2  3  1  0
  3  4  1  0
  4  5  2  0
  4  6  1  0
  6  7  1  0
  7  8  1  0
  8  9  1  0
  9 10  1  0
  9 11  1  0
  8 12  1  0
 12 13  1  0
 13 14  1  0
 14 15  2  0
 14 16  1  0
 16 17  1  0
 17 18  1  0
 18 19  2  0
 18 20  1  0
 20 21  2  0
 21 22  1  0
 22 23  2  0
 23 24  1  0
 24 25  2  0
 25 26  1  0
 25 27  1  0
 27 28  2  0
 28 29  1  0
 29 30  2  0
  2 31  1  0
 31 32  2  0
 32 33  1  0
 33 34  2  0
 34 35  1  0
 35 36  2  0
 13  6  1  0
 30 20  1  0
 36 31  1  0
 29 23  1  0
  1 37  1  0
  1 38  1  0
  1 39  1  0
  2 40  1  1
  3 41  1  0
  6 42  1  6
  7 43  1  0
  7 44  1  0
  8 45  1  1
 10 46  1  0
 10 47  1  0
 10 48  1  0
 11 49  1  0
 11 50  1  0
 11 51  1  0
 12 52  1  0
 12 53  1  0
 16 54  1  0
 16 55  1  0
 17 56  1  0
 21 57  1  0
 22 58  1  0
 24 59  1  0
 27 60  1  0
 28 61  1  0
 32 62  1  0
 33 63  1  0
 34 64  1  0
 35 65  1  0
 36 66  1  0
M  END
>  <smiles>  (59) 
CC(NC(=O)[C@H]1C[C@H](N(C)C)CN1C(=O)CNC(=O)c1ccc2cc(Cl)ccc2n1)c1ccccc1

>  <score_type>  (59) 
oracle

>  <origin>  (59) 
autodockgpu

>  <m_score__min__energy>  (59) 
-9.8900000000000006

>  <m_primary>  (59) 
energy

>  <rmsd>  (59) 
3.2702131555032663

>  <m_score__min__rmsd>  (59) 
3.2702131555032663

>  <meeko>  (59) 
{"free_energy": -9.1, "intermolecular_energy": -11.48, "internal_energy": -2.9, "cluster_size": 21, "cluster_id": 1, "rank_in_cluster": 8}

>  <energy>  (59) 
-9.07

>  <cluster_rmsd>  (59) 
1.31

>  <cluster>  (59) 
1

$$$$

     RDKit          3D

 66 69  0  0  1  0  0  0  0  0999 V2000
  139.2380   77.2940  222.3500 C   0  0  0  0  0  0  0  0  0  0  0  0
  140.7420   77.3230  222.4430 C   0  0  1  0  0  0  0  0  0  0  0  0
  141.3700   76.6780  221.3060 N   0  0  0  0  0  0  0  0  0  0  0  0
  141.4450   75.2810  221.1320 C   0  0  0  0  0  0  0  0  0  0  0  0
  140.9350   74.5270  222.0190 O   0  0  0  0  0  0  0  0  0  0  0  0
  142.0810   74.6100  219.9770 C   0  0  1  0  0  0  0  0  0  0  0  0
  143.5520   74.4200  220.3110 C   0  0  0  0  0  0  0  0  0  0  0  0
  143.7610   72.9470  220.5160 C   0  0  2  0  0  0  0  0  0  0  0  0
  144.6100   72.4350  219.4630 N   0  0  0  0  0  0  0  0  0  0  0  0
  145.9250   73.0200  219.5990 C   0  0  0  0  0  0  0  0  0  0  0  0
  144.6580   71.0000  219.4290 C   0  0  0  0  0  0  0  0  0  0  0  0
  142.3880   72.3260  220.4850 C   0  0  0  0  0  0  0  0  0  0  0  0
  141.5900   73.2900  219.7140 N   0  0  0  0  0  0  0  0  0  0  0  0
  140.4970   72.9760  218.8330 C   0  0  0  0  0  0  0  0  0  0  0  0
  140.6410   72.9200  217.5830 O   0  0  0  0  0  0  0  0  0  0  0  0
  139.1640   72.7120  219.4310 C   0  0  0  0  0  0  0  0  0  0  0  0
  139.3290   72.2870  220.8130 N   0  0  0  0  0  0  0  0  0  0  0  0
  139.2220   70.8920  221.0660 C   0  0  0  0  0  0  0  0  0  0  0  0
  138.9930   70.1580  220.0640 O   0  0  0  0  0  0  0  0  0  0  0  0
  139.3680   70.3400  222.4070 C   0  0  0  0  0  0  0  0  0  0  0  0
  138.7940   69.1140  222.6720 C   0  0  0  0  0  0  0  0  0  0  0  0
  138.8870   68.5280  223.9190 C   0  0  0  0  0  0  0  0  0  0  0  0
  139.5810   69.2260  224.8820 C   0  0  0  0  0  0  0  0  0  0  0  0
  139.6940   68.6660  226.1420 C   0  0  0  0  0  0  0  0  0  0  0  0
  140.3880   69.3460  227.1380 C   0  0  0  0  0  0  0  0  0  0  0  0
  140.4930   68.5860  228.7010 Cl  0  0  0  0  0  0  0  0  0  0  0  0
  140.9670   70.5800  226.8760 C   0  0  0  0  0  0  0  0  0  0  0  0
  140.8550   71.1500  225.6040 C   0  0  0  0  0  0  0  0  0  0  0  0
  140.1650   70.4700  224.6190 C   0  0  0  0  0  0  0  0  0  0  0  0
  140.0400   70.9930  223.3810 N   0  0  0  0  0  0  0  0  0  0  0  0
  141.2640   78.6900  222.6990 C   0  0  0  0  0  0  0  0  0  0  0  0
  141.8220   79.0030  223.9250 C   0  0  0  0  0  0  0  0  0  0  0  0
  142.3250   80.2550  224.2240 C   0  0  0  0  0  0  0  0  0  0  0  0
  142.2750   81.2600  223.2560 C   0  0  0  0  0  0  0  0  0  0  0  0
  141.7140   80.9540  222.0160 C   0  0  0  0  0  0  0  0  0  0  0  0
  141.2160   79.6930  221.7370 C   0  0  0  0  0  0  0  0  0  0  0  0
  138.8081   77.2857  223.3625 H   0  0  0  0  0  0  0  0  0  0  0  0
  138.8868   78.1855  221.8098 H   0  0  0  0  0  0  0  0  0  0  0  0
  138.9214   76.3896  221.8098 H   0  0  0  0  0  0  0  0  0  0  0  0
  141.0213   76.7262  223.3238 H   0  0  0  0  0  0  0  0  0  0  0  0
  141.7870   77.3050  220.5860 H   0  0  0  0  0  0  0  0  0  0  0  0
  141.8724   75.2443  219.1029 H   0  0  0  0  0  0  0  0  0  0  0  0
  144.1787   74.7801  219.4818 H   0  0  0  0  0  0  0  0  0  0  0  0
  143.8301   74.9882  221.2109 H   0  0  0  0  0  0  0  0  0  0  0  0
  144.2595   72.7158  221.4689 H   0  0  0  0  0  0  0  0  0  0  0  0
  146.1694   73.1287  220.6660 H   0  0  0  0  0  0  0  0  0  0  0  0
  146.6682   72.3676  219.1172 H   0  0  0  0  0  0  0  0  0  0  0  0
  145.9380   74.0088  219.1172 H   0  0  0  0  0  0  0  0  0  0  0  0
  144.6711   70.6091  220.4571 H   0  0  0  0  0  0  0  0  0  0  0  0
  143.7722   70.6159  218.9019 H   0  0  0  0  0  0  0  0  0  0  0  0
  145.5675   70.6759  218.9019 H   0  0  0  0  0  0  0  0  0  0  0  0
  142.4112   71.3465  219.9850 H   0  0  0  0  0  0  0  0  0  0  0  0
  141.9802   72.1401  221.4896 H   0  0  0  0  0  0  0  0  0  0  0  0
  138.5593   73.6303  219.3993 H   0  0  0  0  0  0  0  0  0  0  0  0
  138.6565   71.9196  218.8613 H   0  0  0  0  0  0  0  0  0  0  0  0
  139.5180   72.9540  221.5970 H   0  0  0  0  0  0  0  0  0  0  0  0
  138.2498   68.5912  221.8717 H   0  0  0  0  0  0  0  0  0  0  0  0
  138.4289   67.5510  224.1327 H   0  0  0  0  0  0  0  0  0  0  0  0
  139.2375   67.6882  226.3553 H   0  0  0  0  0  0  0  0  0  0  0  0
  141.5143   71.1099  227.6695 H   0  0  0  0  0  0  0  0  0  0  0  0
  141.3108   72.1280  225.3902 H   0  0  0  0  0  0  0  0  0  0  0  0
  141.8675   78.2204  224.6967 H   0  0  0  0  0  0  0  0  0  0  0  0
  142.7600   80.4576  225.2138 H   0  0  0  0  0  0  0  0  0  0  0  0
  142.6674   82.2660  223.4656 H   0  0  0  0  0  0  0  0  0  0  0  0
  141.6662   81.7335  221.2414 H   0  0  0  0  0  0  0  0  0  0  0  0
  140.7800   79.4832  220.7491 H   0  0  0  0  0  0  0  0  0  0  0  0
  1  2  1  0
  2  3  1  0
  3  4  1  0
  4  5  2  0
  4  6  1  0
  6  7  1  0
  7  8  1  0
  8  9  1  0
  9 10  1  0
  9 11  1  0
  8 12  1  0
 12 13  1  0
 13 14  1  0
 14 15  2  0
 14 16  1  0
 16 17  1  0
 17 18  1  0
 18 19  2  0
 18 20  1  0
 20 21  2  0
 21 22  1  0
 22 23  2  0
 23 24  1  0
 24 25  2  0
 25 26  1  0
 25 27  1  0
 27 28  2  0
 28 29  1  0
 29 30  2  0
  2 31  1  0
 31 32  2  0
 32 33  1  0
 33 34  2  0
 34 35  1  0
 35 36  2  0
 13  6  1  0
 30 20  1  0
 36 31  1  0
 29 23  1  0
  1 37  1  0
  1 38  1  0
  1 39  1  0
  2 40  1  1
  3 41  1  0
  6 42  1  6
  7 43  1  0
  7 44  1  0
  8 45  1  1
 10 46  1  0
 10 47  1  0
 10 48  1  0
 11 49  1  0
 11 50  1  0
 11 51  1  0
 12 52  1  0
 12 53  1  0
 16 54  1  0
 16 55  1  0
 17 56  1  0
 21 57  1  0
 22 58  1  0
 24 59  1  0
 27 60  1  0
 28 61  1  0
 32 62  1  0
 33 63  1  0
 34 64  1  0
 35 65  1  0
 36 66  1  0
M  END
>  <smiles>  (60) 
CC(NC(=O)[C@H]1C[C@H](N(C)C)CN1C(=O)CNC(=O)c1ccc2cc(Cl)ccc2n1)c1ccccc1

>  <score_type>  (60) 
oracle

>  <origin>  (60) 
autodockgpu

>  <m_score__min__energy>  (60) 
-9.8900000000000006

>  <m_primary>  (60) 
energy

>  <rmsd>  (60) 
3.36825041610111

>  <m_score__min__rmsd>  (60) 
3.36825041610111

>  <meeko>  (60) 
{"free_energy": -8.79, "intermolecular_energy": -11.18, "internal_energy": -2.9, "cluster_size": 21, "cluster_id": 1, "rank_in_cluster": 12}

>  <energy>  (60) 
-8.94

>  <cluster_rmsd>  (60) 
1.43

>  <cluster>  (60) 
1

$$$$

     RDKit          3D

 66 69  0  0  1  0  0  0  0  0999 V2000
  142.5310   80.3790  218.7270 C   0  0  0  0  0  0  0  0  0  0  0  0
  141.7330   79.5500  219.7010 C   0  0  1  0  0  0  0  0  0  0  0  0
  142.0120   78.1340  219.5670 N   0  0  0  0  0  0  0  0  0  0  0  0
  141.0870   77.1880  219.0800 C   0  0  0  0  0  0  0  0  0  0  0  0
  139.9310   77.5870  218.7340 O   0  0  0  0  0  0  0  0  0  0  0  0
  141.3610   75.7410  218.9360 C   0  0  1  0  0  0  0  0  0  0  0  0
  142.6430   75.5950  218.1340 C   0  0  0  0  0  0  0  0  0  0  0  0
  143.6910   75.0880  219.0840 C   0  0  2  0  0  0  0  0  0  0  0  0
  144.0730   73.7470  218.7000 N   0  0  0  0  0  0  0  0  0  0  0  0
  144.6590   73.7890  217.3780 C   0  0  0  0  0  0  0  0  0  0  0  0
  144.9410   73.1160  219.6550 C   0  0  0  0  0  0  0  0  0  0  0  0
  143.0630   75.1250  220.4520 C   0  0  0  0  0  0  0  0  0  0  0  0
  141.6210   75.0620  220.1710 N   0  0  0  0  0  0  0  0  0  0  0  0
  140.6230   74.4250  220.9890 C   0  0  0  0  0  0  0  0  0  0  0  0
  140.9300   73.6900  221.9660 O   0  0  0  0  0  0  0  0  0  0  0  0
  139.1930   74.6500  220.6620 C   0  0  0  0  0  0  0  0  0  0  0  0
  138.9080   76.0770  220.7000 N   0  0  0  0  0  0  0  0  0  0  0  0
  139.1330   76.7370  221.9390 C   0  0  0  0  0  0  0  0  0  0  0  0
  139.5600   76.0180  222.8860 O   0  0  0  0  0  0  0  0  0  0  0  0
  138.8860   78.1640  222.1070 C   0  0  0  0  0  0  0  0  0  0  0  0
  138.8600   78.6740  223.3890 C   0  0  0  0  0  0  0  0  0  0  0  0
  138.6290   80.0140  223.6280 C   0  0  0  0  0  0  0  0  0  0  0  0
  138.4270   80.8150  222.5260 C   0  0  0  0  0  0  0  0  0  0  0  0
  138.1950   82.1630  222.7310 C   0  0  0  0  0  0  0  0  0  0  0  0
  137.9870   83.0000  221.6380 C   0  0  0  0  0  0  0  0  0  0  0  0
  137.7000   84.6850  221.9660 Cl  0  0  0  0  0  0  0  0  0  0  0  0
  138.0120   82.4910  220.3470 C   0  0  0  0  0  0  0  0  0  0  0  0
  138.2480   81.1290  220.1350 C   0  0  0  0  0  0  0  0  0  0  0  0
  138.4530   80.3030  221.2230 C   0  0  0  0  0  0  0  0  0  0  0  0
  138.6830   78.9840  221.0520 N   0  0  0  0  0  0  0  0  0  0  0  0
  141.8630   80.0410  221.0970 C   0  0  0  0  0  0  0  0  0  0  0  0
  142.1700   79.1600  222.1180 C   0  0  0  0  0  0  0  0  0  0  0  0
  142.3050   79.5550  223.4350 C   0  0  0  0  0  0  0  0  0  0  0  0
  142.1260   80.8990  223.7670 C   0  0  0  0  0  0  0  0  0  0  0  0
  141.8160   81.7960  222.7440 C   0  0  0  0  0  0  0  0  0  0  0  0
  141.6860   81.3800  221.4300 C   0  0  0  0  0  0  0  0  0  0  0  0
  143.1898   81.0634  219.2817 H   0  0  0  0  0  0  0  0  0  0  0  0
  143.1398   79.7164  218.0943 H   0  0  0  0  0  0  0  0  0  0  0  0
  141.8457   80.9621  218.0943 H   0  0  0  0  0  0  0  0  0  0  0  0
  140.6726   79.6765  219.4374 H   0  0  0  0  0  0  0  0  0  0  0  0
  142.9620   77.8170  219.8550 H   0  0  0  0  0  0  0  0  0  0  0  0
  140.4626   75.3047  218.4749 H   0  0  0  0  0  0  0  0  0  0  0  0
  142.4969   74.8779  217.3128 H   0  0  0  0  0  0  0  0  0  0  0  0
  142.9432   76.5553  217.6894 H   0  0  0  0  0  0  0  0  0  0  0  0
  144.6070   75.6969  219.0724 H   0  0  0  0  0  0  0  0  0  0  0  0
  145.7528   73.8674  217.4641 H   0  0  0  0  0  0  0  0  0  0  0  0
  144.3991   72.8699  216.8323 H   0  0  0  0  0  0  0  0  0  0  0  0
  144.2707   74.6616  216.8323 H   0  0  0  0  0  0  0  0  0  0  0  0
  144.6049   73.3603  220.6735 H   0  0  0  0  0  0  0  0  0  0  0  0
  144.9133   72.0258  219.5114 H   0  0  0  0  0  0  0  0  0  0  0  0
  145.9695   73.4787  219.5114 H   0  0  0  0  0  0  0  0  0  0  0  0
  143.3839   74.2629  221.0551 H   0  0  0  0  0  0  0  0  0  0  0  0
  143.3478   76.0168  221.0296 H   0  0  0  0  0  0  0  0  0  0  0  0
  138.9807   74.2598  219.6557 H   0  0  0  0  0  0  0  0  0  0  0  0
  138.5613   74.1291  221.3966 H   0  0  0  0  0  0  0  0  0  0  0  0
  138.5550   76.6120  219.8720 H   0  0  0  0  0  0  0  0  0  0  0  0
  139.0272   77.9974  224.2400 H   0  0  0  0  0  0  0  0  0  0  0  0
  138.6073   80.4222  224.6492 H   0  0  0  0  0  0  0  0  0  0  0  0
  138.1749   82.5716  223.7521 H   0  0  0  0  0  0  0  0  0  0  0  0
  137.8460   83.1597  219.4895 H   0  0  0  0  0  0  0  0  0  0  0  0
  138.2701   80.7203  219.1140 H   0  0  0  0  0  0  0  0  0  0  0  0
  142.3130   78.0978  221.8705 H   0  0  0  0  0  0  0  0  0  0  0  0
  142.5509   78.8181  224.2138 H   0  0  0  0  0  0  0  0  0  0  0  0
  142.2267   81.2419  224.8073 H   0  0  0  0  0  0  0  0  0  0  0  0
  141.6715   82.8589  222.9875 H   0  0  0  0  0  0  0  0  0  0  0  0
  141.4417   82.1116  220.6457 H   0  0  0  0  0  0  0  0  0  0  0  0
  1  2  1  0
  2  3  1  0
  3  4  1  0
  4  5  2  0
  4  6  1  0
  6  7  1  0
  7  8  1  0
  8  9  1  0
  9 10  1  0
  9 11  1  0
  8 12  1  0
 12 13  1  0
 13 14  1  0
 14 15  2  0
 14 16  1  0
 16 17  1  0
 17 18  1  0
 18 19  2  0
 18 20  1  0
 20 21  2  0
 21 22  1  0
 22 23  2  0
 23 24  1  0
 24 25  2  0
 25 26  1  0
 25 27  1  0
 27 28  2  0
 28 29  1  0
 29 30  2  0
  2 31  1  0
 31 32  2  0
 32 33  1  0
 33 34  2  0
 34 35  1  0
 35 36  2  0
 13  6  1  0
 30 20  1  0
 36 31  1  0
 29 23  1  0
  1 37  1  0
  1 38  1  0
  1 39  1  0
  2 40  1  6
  3 41  1  0
  6 42  1  6
  7 43  1  0
  7 44  1  0
  8 45  1  1
 10 46  1  0
 10 47  1  0
 10 48  1  0
 11 49  1  0
 11 50  1  0
 11 51  1  0
 12 52  1  0
 12 53  1  0
 16 54  1  0
 16 55  1  0
 17 56  1  0
 21 57  1  0
 22 58  1  0
 24 59  1  0
 27 60  1  0
 28 61  1  0
 32 62  1  0
 33 63  1  0
 34 64  1  0
 35 65  1  0
 36 66  1  0
M  END
>  <smiles>  (61) 
CC(NC(=O)[C@H]1C[C@H](N(C)C)CN1C(=O)CNC(=O)c1ccc2cc(Cl)ccc2n1)c1ccccc1

>  <score_type>  (61) 
oracle

>  <origin>  (61) 
autodockgpu

>  <m_score__min__energy>  (61) 
-9.8900000000000006

>  <m_primary>  (61) 
energy

>  <rmsd>  (61) 
7.204750471692267

>  <m_score__min__rmsd>  (61) 
7.204750471692267

>  <meeko>  (61) 
{"free_energy": -6.33, "intermolecular_energy": -8.72, "internal_energy": -4.9, "cluster_size": 7, "cluster_id": 8, "rank_in_cluster": 4}

>  <energy>  (61) 
-8.91

>  <cluster_rmsd>  (61) 
1.32

>  <cluster>  (61) 
1

$$$$

     RDKit          3D

 66 69  0  0  1  0  0  0  0  0999 V2000
  139.5070   67.4070  226.7220 C   0  0  0  0  0  0  0  0  0  0  0  0
  140.2310   68.3680  225.8140 C   0  0  1  0  0  0  0  0  0  0  0  0
  139.5680   68.5090  224.5320 N   0  0  0  0  0  0  0  0  0  0  0  0
  138.4510   69.3390  224.3060 C   0  0  0  0  0  0  0  0  0  0  0  0
  137.9840   70.0110  225.2790 O   0  0  0  0  0  0  0  0  0  0  0  0
  137.7670   69.4930  223.0040 C   0  0  1  0  0  0  0  0  0  0  0  0
  136.8600   68.2870  222.8180 C   0  0  0  0  0  0  0  0  0  0  0  0
  135.4480   68.7870  222.9400 C   0  0  2  0  0  0  0  0  0  0  0  0
  134.7860   68.6580  221.6600 N   0  0  0  0  0  0  0  0  0  0  0  0
  135.3500   67.5280  220.9550 C   0  0  0  0  0  0  0  0  0  0  0  0
  133.3570   68.5630  221.7760 C   0  0  0  0  0  0  0  0  0  0  0  0
  135.5540   70.2240  223.3780 C   0  0  0  0  0  0  0  0  0  0  0  0
  136.8930   70.6260  222.9230 N   0  0  0  0  0  0  0  0  0  0  0  0
  137.2780   71.9350  222.4680 C   0  0  0  0  0  0  0  0  0  0  0  0
  136.4300   72.8400  222.2420 O   0  0  0  0  0  0  0  0  0  0  0  0
  138.7220   72.2140  222.2620 C   0  0  0  0  0  0  0  0  0  0  0  0
  138.9380   73.6530  222.2510 N   0  0  0  0  0  0  0  0  0  0  0  0
  140.1530   74.1080  221.6680 C   0  0  0  0  0  0  0  0  0  0  0  0
  140.9250   73.2170  221.2170 O   0  0  0  0  0  0  0  0  0  0  0  0
  140.4880   75.5260  221.5970 C   0  0  0  0  0  0  0  0  0  0  0  0
  141.4110   75.9290  220.6550 C   0  0  0  0  0  0  0  0  0  0  0  0
  141.7820   77.2530  220.5280 C   0  0  0  0  0  0  0  0  0  0  0  0
  141.1840   78.1490  221.3860 C   0  0  0  0  0  0  0  0  0  0  0  0
  141.5320   79.4840  221.2840 C   0  0  0  0  0  0  0  0  0  0  0  0
  140.9460   80.4160  222.1360 C   0  0  0  0  0  0  0  0  0  0  0  0
  141.4280   82.0780  221.9560 Cl  0  0  0  0  0  0  0  0  0  0  0  0
  140.0170   80.0140  223.0860 C   0  0  0  0  0  0  0  0  0  0  0  0
  139.6620   78.6650  223.1920 C   0  0  0  0  0  0  0  0  0  0  0  0
  140.2460   77.7460  222.3430 C   0  0  0  0  0  0  0  0  0  0  0  0
  139.9250   76.4370  222.4200 N   0  0  0  0  0  0  0  0  0  0  0  0
  140.5060   69.6700  226.4750 C   0  0  0  0  0  0  0  0  0  0  0  0
  141.1960   70.6610  225.8000 C   0  0  0  0  0  0  0  0  0  0  0  0
  141.4820   71.8910  226.3590 C   0  0  0  0  0  0  0  0  0  0  0  0
  141.0640   72.1620  227.6630 C   0  0  0  0  0  0  0  0  0  0  0  0
  140.3660   71.1690  228.3530 C   0  0  0  0  0  0  0  0  0  0  0  0
  140.0900   69.9430  227.7730 C   0  0  0  0  0  0  0  0  0  0  0  0
  139.7068   67.6722  227.7707 H   0  0  0  0  0  0  0  0  0  0  0  0
  138.4256   67.4642  226.5290 H   0  0  0  0  0  0  0  0  0  0  0  0
  139.8603   66.3833  226.5290 H   0  0  0  0  0  0  0  0  0  0  0  0
  141.2163   67.9281  225.6003 H   0  0  0  0  0  0  0  0  0  0  0  0
  139.9580   67.9520  223.7420 H   0  0  0  0  0  0  0  0  0  0  0  0
  138.5629   69.6073  222.2533 H   0  0  0  0  0  0  0  0  0  0  0  0
  137.0202   67.8415  221.8251 H   0  0  0  0  0  0  0  0  0  0  0  0
  137.0722   67.5122  223.5694 H   0  0  0  0  0  0  0  0  0  0  0  0
  134.8534   68.2140  223.6667 H   0  0  0  0  0  0  0  0  0  0  0  0
  135.7187   66.7892  221.6818 H   0  0  0  0  0  0  0  0  0  0  0  0
  134.5765   67.0666  220.3235 H   0  0  0  0  0  0  0  0  0  0  0  0
  136.1837   67.8688  220.3235 H   0  0  0  0  0  0  0  0  0  0  0  0
  133.0759   68.5443  222.8393 H   0  0  0  0  0  0  0  0  0  0  0  0
  132.8910   69.4322  221.2887 H   0  0  0  0  0  0  0  0  0  0  0  0
  133.0101   67.6398  221.2887 H   0  0  0  0  0  0  0  0  0  0  0  0
  134.7762   70.8384  222.9010 H   0  0  0  0  0  0  0  0  0  0  0  0
  135.4143   70.3521  224.4616 H   0  0  0  0  0  0  0  0  0  0  0  0
  139.3036   71.7615  223.0787 H   0  0  0  0  0  0  0  0  0  0  0  0
  139.0463   71.7858  221.3021 H   0  0  0  0  0  0  0  0  0  0  0  0
  138.2520   74.3380  222.6460 H   0  0  0  0  0  0  0  0  0  0  0  0
  141.8621   75.1784  219.9894 H   0  0  0  0  0  0  0  0  0  0  0  0
  142.5191   77.5762  219.7782 H   0  0  0  0  0  0  0  0  0  0  0  0
  142.2681   79.8075  220.5333 H   0  0  0  0  0  0  0  0  0  0  0  0
  139.5596   80.7569  223.7560 H   0  0  0  0  0  0  0  0  0  0  0  0
  138.9265   78.3403  223.9427 H   0  0  0  0  0  0  0  0  0  0  0  0
  141.5319   70.4603  224.7720 H   0  0  0  0  0  0  0  0  0  0  0  0
  142.0332   72.6489  225.7830 H   0  0  0  0  0  0  0  0  0  0  0  0
  141.2789   73.1323  228.1345 H   0  0  0  0  0  0  0  0  0  0  0  0
  140.0277   71.3655  229.3811 H   0  0  0  0  0  0  0  0  0  0  0  0
  139.5384   69.1804  228.3423 H   0  0  0  0  0  0  0  0  0  0  0  0
  1  2  1  0
  2  3  1  0
  3  4  1  0
  4  5  2  0
  4  6  1  0
  6  7  1  0
  7  8  1  0
  8  9  1  0
  9 10  1  0
  9 11  1  0
  8 12  1  0
 12 13  1  0
 13 14  1  0
 14 15  2  0
 14 16  1  0
 16 17  1  0
 17 18  1  0
 18 19  2  0
 18 20  1  0
 20 21  2  0
 21 22  1  0
 22 23  2  0
 23 24  1  0
 24 25  2  0
 25 26  1  0
 25 27  1  0
 27 28  2  0
 28 29  1  0
 29 30  2  0
  2 31  1  0
 31 32  2  0
 32 33  1  0
 33 34  2  0
 34 35  1  0
 35 36  2  0
 13  6  1  0
 30 20  1  0
 36 31  1  0
 29 23  1  0
  1 37  1  0
  1 38  1  0
  1 39  1  0
  2 40  1  6
  3 41  1  0
  6 42  1  6
  7 43  1  0
  7 44  1  0
  8 45  1  1
 10 46  1  0
 10 47  1  0
 10 48  1  0
 11 49  1  0
 11 50  1  0
 11 51  1  0
 12 52  1  0
 12 53  1  0
 16 54  1  0
 16 55  1  0
 17 56  1  0
 21 57  1  0
 22 58  1  0
 24 59  1  0
 27 60  1  0
 28 61  1  0
 32 62  1  0
 33 63  1  0
 34 64  1  0
 35 65  1  0
 36 66  1  0
M  END
>  <smiles>  (62) 
CC(NC(=O)[C@H]1C[C@H](N(C)C)CN1C(=O)CNC(=O)c1ccc2cc(Cl)ccc2n1)c1ccccc1

>  <score_type>  (62) 
oracle

>  <origin>  (62) 
autodockgpu

>  <m_score__min__energy>  (62) 
-9.8900000000000006

>  <m_primary>  (62) 
energy

>  <rmsd>  (62) 
9.894699217585968

>  <m_score__min__rmsd>  (62) 
9.894699217585968

>  <meeko>  (62) 
{"free_energy": -8.51, "intermolecular_energy": -10.9, "internal_energy": -2.43, "cluster_size": 1, "cluster_id": 5, "rank_in_cluster": 1}

>  <energy>  (62) 
-8.79

>  <cluster_rmsd>  (62) 
1.26

>  <cluster>  (62) 
1

$$$$

     RDKit          3D

 66 69  0  0  1  0  0  0  0  0999 V2000
  138.0990   70.0730  222.3900 C   0  0  0  0  0  0  0  0  0  0  0  0
  138.2890   71.2050  223.3670 C   0  0  1  0  0  0  0  0  0  0  0  0
  137.0610   71.9440  223.5900 N   0  0  0  0  0  0  0  0  0  0  0  0
  135.8210   71.3440  223.8910 C   0  0  0  0  0  0  0  0  0  0  0  0
  135.7600   70.0770  223.9750 O   0  0  0  0  0  0  0  0  0  0  0  0
  134.5620   72.0860  224.1210 C   0  0  1  0  0  0  0  0  0  0  0  0
  134.3180   72.1180  225.6220 C   0  0  0  0  0  0  0  0  0  0  0  0
  134.5330   73.5370  226.0640 C   0  0  2  0  0  0  0  0  0  0  0  0
  133.2750   74.0940  226.5100 N   0  0  0  0  0  0  0  0  0  0  0  0
  133.1420   75.4320  225.9780 C   0  0  0  0  0  0  0  0  0  0  0  0
  132.1480   73.2670  226.1780 C   0  0  0  0  0  0  0  0  0  0  0  0
  135.0790   74.2670  224.8640 C   0  0  0  0  0  0  0  0  0  0  0  0
  134.6050   73.4630  223.7270 N   0  0  0  0  0  0  0  0  0  0  0  0
  134.2390   73.9620  222.4280 C   0  0  0  0  0  0  0  0  0  0  0  0
  133.0610   74.3170  222.1570 O   0  0  0  0  0  0  0  0  0  0  0  0
  135.2920   74.0570  221.3860 C   0  0  0  0  0  0  0  0  0  0  0  0
  136.1990   75.1460  221.7140 N   0  0  0  0  0  0  0  0  0  0  0  0
  137.5800   74.8180  221.8040 C   0  0  0  0  0  0  0  0  0  0  0  0
  137.8830   73.6110  221.5900 O   0  0  0  0  0  0  0  0  0  0  0  0
  138.5900   75.8200  222.1260 C   0  0  0  0  0  0  0  0  0  0  0  0
  139.9180   75.4770  221.9760 C   0  0  0  0  0  0  0  0  0  0  0  0
  140.9300   76.3700  222.2630 C   0  0  0  0  0  0  0  0  0  0  0  0
  140.5500   77.6180  222.7040 C   0  0  0  0  0  0  0  0  0  0  0  0
  141.5410   78.5370  222.9990 C   0  0  0  0  0  0  0  0  0  0  0  0
  141.1910   79.8070  223.4480 C   0  0  0  0  0  0  0  0  0  0  0  0
  142.4850   80.9160  223.8010 Cl  0  0  0  0  0  0  0  0  0  0  0  0
  139.8550   80.1560  223.6000 C   0  0  0  0  0  0  0  0  0  0  0  0
  138.8510   79.2300  223.3030 C   0  0  0  0  0  0  0  0  0  0  0  0
  139.2050   77.9720  222.8580 C   0  0  0  0  0  0  0  0  0  0  0  0
  138.2590   77.0550  222.5620 N   0  0  0  0  0  0  0  0  0  0  0  0
  138.9380   70.7590  224.6280 C   0  0  0  0  0  0  0  0  0  0  0  0
  139.9990   71.4730  225.1540 C   0  0  0  0  0  0  0  0  0  0  0  0
  140.6440   71.1100  226.3200 C   0  0  0  0  0  0  0  0  0  0  0  0
  140.2160   69.9740  227.0120 C   0  0  0  0  0  0  0  0  0  0  0  0
  139.1450   69.2480  226.4890 C   0  0  0  0  0  0  0  0  0  0  0  0
  138.5130   69.6290  225.3190 C   0  0  0  0  0  0  0  0  0  0  0  0
  137.9415   69.1347  222.9421 H   0  0  0  0  0  0  0  0  0  0  0  0
  137.2227   70.2778  221.7575 H   0  0  0  0  0  0  0  0  0  0  0  0
  138.9942   69.9804  221.7575 H   0  0  0  0  0  0  0  0  0  0  0  0
  138.9910   71.9140  222.9038 H   0  0  0  0  0  0  0  0  0  0  0  0
  137.1220   72.9820  223.5170 H   0  0  0  0  0  0  0  0  0  0  0  0
  133.7920   71.5726  223.5265 H   0  0  0  0  0  0  0  0  0  0  0  0
  133.2879   71.8033  225.8454 H   0  0  0  0  0  0  0  0  0  0  0  0
  134.9984   71.4323  226.1482 H   0  0  0  0  0  0  0  0  0  0  0  0
  135.2345   73.6183  226.9074 H   0  0  0  0  0  0  0  0  0  0  0  0
  133.0705   76.1510  226.8075 H   0  0  0  0  0  0  0  0  0  0  0  0
  134.0209   75.6703  225.3609 H   0  0  0  0  0  0  0  0  0  0  0  0
  132.2334   75.4926  225.3609 H   0  0  0  0  0  0  0  0  0  0  0  0
  131.6672   72.9142  227.1023 H   0  0  0  0  0  0  0  0  0  0  0  0
  131.4256   73.8509  225.5888 H   0  0  0  0  0  0  0  0  0  0  0  0
  132.4883   72.4027  225.5888 H   0  0  0  0  0  0  0  0  0  0  0  0
  134.6823   75.2917  224.8133 H   0  0  0  0  0  0  0  0  0  0  0  0
  136.1738   74.3711  224.8878 H   0  0  0  0  0  0  0  0  0  0  0  0
  135.8532   73.1119  221.3441 H   0  0  0  0  0  0  0  0  0  0  0  0
  134.8256   74.2489  220.4085 H   0  0  0  0  0  0  0  0  0  0  0  0
  135.8780   76.1290  221.8790 H   0  0  0  0  0  0  0  0  0  0  0  0
  140.1758   74.4688  221.6195 H   0  0  0  0  0  0  0  0  0  0  0  0
  141.9893   76.0981  222.1452 H   0  0  0  0  0  0  0  0  0  0  0  0
  142.6002   78.2654  222.8793 H   0  0  0  0  0  0  0  0  0  0  0  0
  139.5869   81.1622  223.9545 H   0  0  0  0  0  0  0  0  0  0  0  0
  137.7915   79.5004  223.4224 H   0  0  0  0  0  0  0  0  0  0  0  0
  140.3447   72.3703  224.6198 H   0  0  0  0  0  0  0  0  0  0  0  0
  141.4852   71.7085  226.6997 H   0  0  0  0  0  0  0  0  0  0  0  0
  140.7098   69.6605  227.9436 H   0  0  0  0  0  0  0  0  0  0  0  0
  138.7948   68.3507  227.0202 H   0  0  0  0  0  0  0  0  0  0  0  0
  137.6707   69.0358  224.9334 H   0  0  0  0  0  0  0  0  0  0  0  0
  1  2  1  0
  2  3  1  0
  3  4  1  0
  4  5  2  0
  4  6  1  0
  6  7  1  0
  7  8  1  0
  8  9  1  0
  9 10  1  0
  9 11  1  0
  8 12  1  0
 12 13  1  0
 13 14  1  0
 14 15  2  0
 14 16  1  0
 16 17  1  0
 17 18  1  0
 18 19  2  0
 18 20  1  0
 20 21  2  0
 21 22  1  0
 22 23  2  0
 23 24  1  0
 24 25  2  0
 25 26  1  0
 25 27  1  0
 27 28  2  0
 28 29  1  0
 29 30  2  0
  2 31  1  0
 31 32  2  0
 32 33  1  0
 33 34  2  0
 34 35  1  0
 35 36  2  0
 13  6  1  0
 30 20  1  0
 36 31  1  0
 29 23  1  0
  1 37  1  0
  1 38  1  0
  1 39  1  0
  2 40  1  6
  3 41  1  0
  6 42  1  6
  7 43  1  0
  7 44  1  0
  8 45  1  1
 10 46  1  0
 10 47  1  0
 10 48  1  0
 11 49  1  0
 11 50  1  0
 11 51  1  0
 12 52  1  0
 12 53  1  0
 16 54  1  0
 16 55  1  0
 17 56  1  0
 21 57  1  0
 22 58  1  0
 24 59  1  0
 27 60  1  0
 28 61  1  0
 32 62  1  0
 33 63  1  0
 34 64  1  0
 35 65  1  0
 36 66  1  0
M  END
>  <smiles>  (63) 
CC(NC(=O)[C@H]1C[C@H](N(C)C)CN1C(=O)CNC(=O)c1ccc2cc(Cl)ccc2n1)c1ccccc1

>  <score_type>  (63) 
oracle

>  <origin>  (63) 
autodockgpu

>  <m_score__min__energy>  (63) 
-9.8900000000000006

>  <m_primary>  (63) 
energy

>  <rmsd>  (63) 
9.400474502609061

>  <m_score__min__rmsd>  (63) 
9.400474502609061

>  <meeko>  (63) 
{"free_energy": -8.0, "intermolecular_energy": -10.38, "internal_energy": -3.36, "cluster_size": 5, "cluster_id": 6, "rank_in_cluster": 5}

>  <energy>  (63) 
-8.77

>  <cluster_rmsd>  (63) 
1.92

>  <cluster>  (63) 
1

$$$$

     RDKit          3D

 66 69  0  0  1  0  0  0  0  0999 V2000
  142.2160   79.9800  219.0340 C   0  0  0  0  0  0  0  0  0  0  0  0
  141.5130   79.2130  220.1250 C   0  0  1  0  0  0  0  0  0  0  0  0
  141.8070   77.7940  220.0680 N   0  0  0  0  0  0  0  0  0  0  0  0
  141.1910   76.8940  219.1760 C   0  0  0  0  0  0  0  0  0  0  0  0
  140.3190   77.3390  218.3650 O   0  0  0  0  0  0  0  0  0  0  0  0
  141.4830   75.4450  219.1080 C   0  0  1  0  0  0  0  0  0  0  0  0
  142.8600   75.2850  218.4850 C   0  0  0  0  0  0  0  0  0  0  0  0
  143.7750   74.8080  219.5770 C   0  0  2  0  0  0  0  0  0  0  0  0
  144.2060   73.4590  219.2820 N   0  0  0  0  0  0  0  0  0  0  0  0
  145.2980   73.1150  220.1650 C   0  0  0  0  0  0  0  0  0  0  0  0
  143.1370   72.5020  219.3460 C   0  0  0  0  0  0  0  0  0  0  0  0
  142.9710   74.8770  220.8500 C   0  0  0  0  0  0  0  0  0  0  0  0
  141.5790   74.7990  220.3830 N   0  0  0  0  0  0  0  0  0  0  0  0
  140.4840   74.1790  221.0790 C   0  0  0  0  0  0  0  0  0  0  0  0
  140.6680   73.3570  222.0170 O   0  0  0  0  0  0  0  0  0  0  0  0
  139.1000   74.5260  220.6690 C   0  0  0  0  0  0  0  0  0  0  0  0
  138.9430   75.9720  220.6760 N   0  0  0  0  0  0  0  0  0  0  0  0
  138.9000   76.6010  221.9520 C   0  0  0  0  0  0  0  0  0  0  0  0
  139.0030   75.8390  222.9540 O   0  0  0  0  0  0  0  0  0  0  0  0
  138.7460   78.0440  222.0940 C   0  0  0  0  0  0  0  0  0  0  0  0
  138.8030   78.5830  223.3620 C   0  0  0  0  0  0  0  0  0  0  0  0
  138.6630   79.9390  223.5770 C   0  0  0  0  0  0  0  0  0  0  0  0
  138.4650   80.7260  222.4640 C   0  0  0  0  0  0  0  0  0  0  0  0
  138.3230   82.0900  222.6450 C   0  0  0  0  0  0  0  0  0  0  0  0
  138.1210   82.9140  221.5410 C   0  0  0  0  0  0  0  0  0  0  0  0
  137.9490   84.6200  221.8380 Cl  0  0  0  0  0  0  0  0  0  0  0  0
  138.0620   82.3750  220.2630 C   0  0  0  0  0  0  0  0  0  0  0  0
  138.2060   80.9970  220.0760 C   0  0  0  0  0  0  0  0  0  0  0  0
  138.4060   80.1850  221.1750 C   0  0  0  0  0  0  0  0  0  0  0  0
  138.5490   78.8510  221.0280 N   0  0  0  0  0  0  0  0  0  0  0  0
  141.7440   79.8040  221.4680 C   0  0  0  0  0  0  0  0  0  0  0  0
  141.6470   81.1710  221.6530 C   0  0  0  0  0  0  0  0  0  0  0  0
  141.8500   81.7800  222.8760 C   0  0  0  0  0  0  0  0  0  0  0  0
  142.1680   80.9940  223.9860 C   0  0  0  0  0  0  0  0  0  0  0  0
  142.2680   79.6130  223.8100 C   0  0  0  0  0  0  0  0  0  0  0  0
  142.0610   79.0240  222.5750 C   0  0  0  0  0  0  0  0  0  0  0  0
  142.8941   80.7198  219.4844 H   0  0  0  0  0  0  0  0  0  0  0  0
  142.7955   79.2831  218.4108 H   0  0  0  0  0  0  0  0  0  0  0  0
  141.4713   80.4968  218.4108 H   0  0  0  0  0  0  0  0  0  0  0  0
  140.4327   79.3071  219.9401 H   0  0  0  0  0  0  0  0  0  0  0  0
  142.5210   77.4390  220.7390 H   0  0  0  0  0  0  0  0  0  0  0  0
  140.6532   74.9925  218.5453 H   0  0  0  0  0  0  0  0  0  0  0  0
  142.8242   74.5463  217.6707 H   0  0  0  0  0  0  0  0  0  0  0  0
  143.2143   76.2351  218.0587 H   0  0  0  0  0  0  0  0  0  0  0  0
  144.6839   75.4207  219.6697 H   0  0  0  0  0  0  0  0  0  0  0  0
  144.9708   73.2181  221.2101 H   0  0  0  0  0  0  0  0  0  0  0  0
  145.6071   72.0760  219.9783 H   0  0  0  0  0  0  0  0  0  0  0  0
  146.1468   73.7893  219.9783 H   0  0  0  0  0  0  0  0  0  0  0  0
  142.8985   72.2885  220.3984 H   0  0  0  0  0  0  0  0  0  0  0  0
  142.2478   72.9114  218.8443 H   0  0  0  0  0  0  0  0  0  0  0  0
  143.4459   71.5731  218.8443 H   0  0  0  0  0  0  0  0  0  0  0  0
  143.2111   74.0325  221.5127 H   0  0  0  0  0  0  0  0  0  0  0  0
  143.1753   75.7849  221.4365 H   0  0  0  0  0  0  0  0  0  0  0  0
  138.9097   74.1409  219.6563 H   0  0  0  0  0  0  0  0  0  0  0  0
  138.3842   74.0750  221.3720 H   0  0  0  0  0  0  0  0  0  0  0  0
  138.8630   76.5440  219.8030 H   0  0  0  0  0  0  0  0  0  0  0  0
  138.9638   77.9165  224.2222 H   0  0  0  0  0  0  0  0  0  0  0  0
  138.7074   80.3703  224.5879 H   0  0  0  0  0  0  0  0  0  0  0  0
  138.3694   82.5214  223.6558 H   0  0  0  0  0  0  0  0  0  0  0  0
  137.9017   83.0331  219.3963 H   0  0  0  0  0  0  0  0  0  0  0  0
  138.1605   80.5647  219.0655 H   0  0  0  0  0  0  0  0  0  0  0  0
  141.3969   81.8018  220.7872 H   0  0  0  0  0  0  0  0  0  0  0  0
  141.7622   82.8720  222.9748 H   0  0  0  0  0  0  0  0  0  0  0  0
  142.3351   81.4511  224.9724 H   0  0  0  0  0  0  0  0  0  0  0  0
  142.5171   78.9781  224.6730 H   0  0  0  0  0  0  0  0  0  0  0  0
  142.1477   77.9326  222.4682 H   0  0  0  0  0  0  0  0  0  0  0  0
  1  2  1  0
  2  3  1  0
  3  4  1  0
  4  5  2  0
  4  6  1  0
  6  7  1  0
  7  8  1  0
  8  9  1  0
  9 10  1  0
  9 11  1  0
  8 12  1  0
 12 13  1  0
 13 14  1  0
 14 15  2  0
 14 16  1  0
 16 17  1  0
 17 18  1  0
 18 19  2  0
 18 20  1  0
 20 21  2  0
 21 22  1  0
 22 23  2  0
 23 24  1  0
 24 25  2  0
 25 26  1  0
 25 27  1  0
 27 28  2  0
 28 29  1  0
 29 30  2  0
  2 31  1  0
 31 32  2  0
 32 33  1  0
 33 34  2  0
 34 35  1  0
 35 36  2  0
 13  6  1  0
 30 20  1  0
 36 31  1  0
 29 23  1  0
  1 37  1  0
  1 38  1  0
  1 39  1  0
  2 40  1  6
  3 41  1  0
  6 42  1  6
  7 43  1  0
  7 44  1  0
  8 45  1  1
 10 46  1  0
 10 47  1  0
 10 48  1  0
 11 49  1  0
 11 50  1  0
 11 51  1  0
 12 52  1  0
 12 53  1  0
 16 54  1  0
 16 55  1  0
 17 56  1  0
 21 57  1  0
 22 58  1  0
 24 59  1  0
 27 60  1  0
 28 61  1  0
 32 62  1  0
 33 63  1  0
 34 64  1  0
 35 65  1  0
 36 66  1  0
M  END
>  <smiles>  (64) 
CC(NC(=O)[C@H]1C[C@H](N(C)C)CN1C(=O)CNC(=O)c1ccc2cc(Cl)ccc2n1)c1ccccc1

>  <score_type>  (64) 
oracle

>  <origin>  (64) 
autodockgpu

>  <m_score__min__energy>  (64) 
-9.8900000000000006

>  <m_primary>  (64) 
energy

>  <rmsd>  (64) 
7.152227497175432

>  <m_score__min__rmsd>  (64) 
7.152227497175432

>  <meeko>  (64) 
{"free_energy": -6.21, "intermolecular_energy": -8.6, "internal_energy": -4.87, "cluster_size": 7, "cluster_id": 8, "rank_in_cluster": 7}

>  <energy>  (64) 
-8.69

>  <cluster_rmsd>  (64) 
1.59

>  <cluster>  (64) 
1

$$$$

     RDKit          3D

 66 69  0  0  1  0  0  0  0  0999 V2000
  139.1050   77.3490  221.8310 C   0  0  0  0  0  0  0  0  0  0  0  0
  140.4980   77.1870  222.3830 C   0  0  1  0  0  0  0  0  0  0  0  0
  141.2720   76.2180  221.6320 N   0  0  0  0  0  0  0  0  0  0  0  0
  141.6500   76.3820  220.2840 C   0  0  0  0  0  0  0  0  0  0  0  0
  141.2960   77.4410  219.6750 O   0  0  0  0  0  0  0  0  0  0  0  0
  142.4410   75.4020  219.5070 C   0  0  1  0  0  0  0  0  0  0  0  0
  143.8720   75.4640  220.0150 C   0  0  0  0  0  0  0  0  0  0  0  0
  144.1230   74.1790  220.7530 C   0  0  2  0  0  0  0  0  0  0  0  0
  145.1060   73.4000  220.0330 N   0  0  0  0  0  0  0  0  0  0  0  0
  146.3380   73.3880  220.7910 C   0  0  0  0  0  0  0  0  0  0  0  0
  144.6520   72.0740  219.7200 C   0  0  0  0  0  0  0  0  0  0  0  0
  142.7920   73.4770  220.8270 C   0  0  0  0  0  0  0  0  0  0  0  0
  142.0420   74.0380  219.6930 N   0  0  0  0  0  0  0  0  0  0  0  0
  141.0690   73.3460  218.8920 C   0  0  0  0  0  0  0  0  0  0  0  0
  141.3380   72.9150  217.7380 O   0  0  0  0  0  0  0  0  0  0  0  0
  139.7100   73.1390  219.4540 C   0  0  0  0  0  0  0  0  0  0  0  0
  139.7750   72.1570  220.5250 N   0  0  0  0  0  0  0  0  0  0  0  0
  139.8930   72.6650  221.8480 C   0  0  0  0  0  0  0  0  0  0  0  0
  139.9300   73.9230  221.9620 O   0  0  0  0  0  0  0  0  0  0  0  0
  139.9680   71.7840  223.0070 C   0  0  0  0  0  0  0  0  0  0  0  0
  139.4960   70.4950  222.8760 C   0  0  0  0  0  0  0  0  0  0  0  0
  139.5300   69.6040  223.9300 C   0  0  0  0  0  0  0  0  0  0  0  0
  140.0590   70.0640  225.1150 C   0  0  0  0  0  0  0  0  0  0  0  0
  140.1090   69.1950  226.1900 C   0  0  0  0  0  0  0  0  0  0  0  0
  140.6370   69.6300  227.4030 C   0  0  0  0  0  0  0  0  0  0  0  0
  140.6710   68.4870  228.7150 Cl  0  0  0  0  0  0  0  0  0  0  0  0
  141.1120   70.9270  227.5390 C   0  0  0  0  0  0  0  0  0  0  0  0
  141.0630   71.8080  226.4540 C   0  0  0  0  0  0  0  0  0  0  0  0
  140.5390   71.3710  225.2540 C   0  0  0  0  0  0  0  0  0  0  0  0
  140.4780   72.1970  224.1880 N   0  0  0  0  0  0  0  0  0  0  0  0
  141.1940   78.4900  222.5470 C   0  0  0  0  0  0  0  0  0  0  0  0
  141.9200   78.7510  223.6950 C   0  0  0  0  0  0  0  0  0  0  0  0
  142.5890   79.9410  223.9050 C   0  0  0  0  0  0  0  0  0  0  0  0
  142.5400   80.9350  222.9250 C   0  0  0  0  0  0  0  0  0  0  0  0
  141.8110   80.6800  221.7630 C   0  0  0  0  0  0  0  0  0  0  0  0
  141.1480   79.4810  221.5720 C   0  0  0  0  0  0  0  0  0  0  0  0
  138.3888   77.4323  222.6617 H   0  0  0  0  0  0  0  0  0  0  0  0
  139.0585   78.2586  221.2142 H   0  0  0  0  0  0  0  0  0  0  0  0
  138.8510   76.4743  221.2142 H   0  0  0  0  0  0  0  0  0  0  0  0
  140.3960   76.7732  223.3971 H   0  0  0  0  0  0  0  0  0  0  0  0
  141.5550   75.3530  222.1400 H   0  0  0  0  0  0  0  0  0  0  0  0
  142.3033   75.6680  218.4486 H   0  0  0  0  0  0  0  0  0  0  0  0
  144.5705   75.5591  219.1706 H   0  0  0  0  0  0  0  0  0  0  0  0
  144.0220   76.3338  220.6715 H   0  0  0  0  0  0  0  0  0  0  0  0
  144.5223   74.3402  221.7652 H   0  0  0  0  0  0  0  0  0  0  0  0
  146.1069   73.3903  221.8664 H   0  0  0  0  0  0  0  0  0  0  0  0
  146.9132   72.4842  220.5415 H   0  0  0  0  0  0  0  0  0  0  0  0
  146.9307   74.2804  220.5415 H   0  0  0  0  0  0  0  0  0  0  0  0
  144.4629   71.5216  220.6522 H   0  0  0  0  0  0  0  0  0  0  0  0
  143.7230   72.1333  219.1340 H   0  0  0  0  0  0  0  0  0  0  0  0
  145.4224   71.5514  219.1340 H   0  0  0  0  0  0  0  0  0  0  0  0
  142.9149   72.3894  220.7171 H   0  0  0  0  0  0  0  0  0  0  0  0
  142.2835   73.6251  221.7911 H   0  0  0  0  0  0  0  0  0  0  0  0
  139.3283   74.0910  219.8515 H   0  0  0  0  0  0  0  0  0  0  0  0
  139.0365   72.7766  218.6634 H   0  0  0  0  0  0  0  0  0  0  0  0
  139.7390   71.1240  220.3570 H   0  0  0  0  0  0  0  0  0  0  0  0
  139.0831   70.1693  221.9099 H   0  0  0  0  0  0  0  0  0  0  0  0
  139.1525   68.5758  223.8279 H   0  0  0  0  0  0  0  0  0  0  0  0
  139.7338   68.1661  226.0873 H   0  0  0  0  0  0  0  0  0  0  0  0
  141.5273   71.2622  228.5009 H   0  0  0  0  0  0  0  0  0  0  0  0
  141.4377   72.8372  226.5556 H   0  0  0  0  0  0  0  0  0  0  0  0
  141.9666   77.9768  224.4751 H   0  0  0  0  0  0  0  0  0  0  0  0
  143.1545   80.1042  224.8343 H   0  0  0  0  0  0  0  0  0  0  0  0
  143.0620   81.8930  223.0655 H   0  0  0  0  0  0  0  0  0  0  0  0
  141.7623   81.4509  220.9799 H   0  0  0  0  0  0  0  0  0  0  0  0
  140.5816   79.3105  220.6446 H   0  0  0  0  0  0  0  0  0  0  0  0
  1  2  1  0
  2  3  1  0
  3  4  1  0
  4  5  2  0
  4  6  1  0
  6  7  1  0
  7  8  1  0
  8  9  1  0
  9 10  1  0
  9 11  1  0
  8 12  1  0
 12 13  1  0
 13 14  1  0
 14 15  2  0
 14 16  1  0
 16 17  1  0
 17 18  1  0
 18 19  2  0
 18 20  1  0
 20 21  2  0
 21 22  1  0
 22 23  2  0
 23 24  1  0
 24 25  2  0
 25 26  1  0
 25 27  1  0
 27 28  2  0
 28 29  1  0
 29 30  2  0
  2 31  1  0
 31 32  2  0
 32 33  1  0
 33 34  2  0
 34 35  1  0
 35 36  2  0
 13  6  1  0
 30 20  1  0
 36 31  1  0
 29 23  1  0
  1 37  1  0
  1 38  1  0
  1 39  1  0
  2 40  1  1
  3 41  1  0
  6 42  1  6
  7 43  1  0
  7 44  1  0
  8 45  1  1
 10 46  1  0
 10 47  1  0
 10 48  1  0
 11 49  1  0
 11 50  1  0
 11 51  1  0
 12 52  1  0
 12 53  1  0
 16 54  1  0
 16 55  1  0
 17 56  1  0
 21 57  1  0
 22 58  1  0
 24 59  1  0
 27 60  1  0
 28 61  1  0
 32 62  1  0
 33 63  1  0
 34 64  1  0
 35 65  1  0
 36 66  1  0
M  END
>  <smiles>  (65) 
CC(NC(=O)[C@H]1C[C@H](N(C)C)CN1C(=O)CNC(=O)c1ccc2cc(Cl)ccc2n1)c1ccccc1

>  <score_type>  (65) 
oracle

>  <origin>  (65) 
autodockgpu

>  <m_score__min__energy>  (65) 
-9.8900000000000006

>  <m_primary>  (65) 
energy

>  <rmsd>  (65) 
3.4220316195694322

>  <m_score__min__rmsd>  (65) 
3.4220316195694322

>  <meeko>  (65) 
{"free_energy": -9.86, "intermolecular_energy": -12.25, "internal_energy": -3.0, "cluster_size": 21, "cluster_id": 1, "rank_in_cluster": 2}

>  <energy>  (65) 
-8.65

>  <cluster_rmsd>  (65) 
1.86

>  <cluster>  (65) 
1

$$$$

     RDKit          3D

 66 69  0  0  1  0  0  0  0  0999 V2000
  142.2060   80.2530  218.7380 C   0  0  0  0  0  0  0  0  0  0  0  0
  141.7100   79.2460  219.7440 C   0  0  1  0  0  0  0  0  0  0  0  0
  142.3040   77.9380  219.5420 N   0  0  0  0  0  0  0  0  0  0  0  0
  141.6290   76.8440  218.9630 C   0  0  0  0  0  0  0  0  0  0  0  0
  140.4230   76.9980  218.5910 O   0  0  0  0  0  0  0  0  0  0  0  0
  142.2240   75.5060  218.7500 C   0  0  1  0  0  0  0  0  0  0  0  0
  143.6950   75.5960  219.1200 C   0  0  0  0  0  0  0  0  0  0  0  0
  143.8700   74.8110  220.3890 C   0  0  2  0  0  0  0  0  0  0  0  0
  144.6840   73.6450  220.1200 N   0  0  0  0  0  0  0  0  0  0  0  0
  145.9380   73.7790  220.8280 C   0  0  0  0  0  0  0  0  0  0  0  0
  144.0170   72.4120  220.4330 C   0  0  0  0  0  0  0  0  0  0  0  0
  142.4810   74.4370  220.8400 C   0  0  0  0  0  0  0  0  0  0  0  0
  141.6930   74.4800  219.5990 N   0  0  0  0  0  0  0  0  0  0  0  0
  140.5740   73.6370  219.2740 C   0  0  0  0  0  0  0  0  0  0  0  0
  140.6480   72.7380  218.3940 O   0  0  0  0  0  0  0  0  0  0  0  0
  139.2990   73.8430  220.0060 C   0  0  0  0  0  0  0  0  0  0  0  0
  139.0420   75.2700  220.1350 N   0  0  0  0  0  0  0  0  0  0  0  0
  139.2240   75.8340  221.4280 C   0  0  0  0  0  0  0  0  0  0  0  0
  139.5910   75.0390  222.3380 O   0  0  0  0  0  0  0  0  0  0  0  0
  138.9980   77.2510  221.6880 C   0  0  0  0  0  0  0  0  0  0  0  0
  138.9780   77.6760  223.0000 C   0  0  0  0  0  0  0  0  0  0  0  0
  138.7670   79.0010  223.3250 C   0  0  0  0  0  0  0  0  0  0  0  0
  138.5800   79.8750  222.2780 C   0  0  0  0  0  0  0  0  0  0  0  0
  138.3680   81.2100  222.5700 C   0  0  0  0  0  0  0  0  0  0  0  0
  138.1750   82.1200  221.5340 C   0  0  0  0  0  0  0  0  0  0  0  0
  137.9130   83.7840  221.9700 Cl  0  0  0  0  0  0  0  0  0  0  0  0
  138.1940   81.6950  220.2120 C   0  0  0  0  0  0  0  0  0  0  0  0
  138.4090   80.3460  219.9130 C   0  0  0  0  0  0  0  0  0  0  0  0
  138.6000   79.4490  220.9450 C   0  0  0  0  0  0  0  0  0  0  0  0
  138.8100   78.1410  220.6890 N   0  0  0  0  0  0  0  0  0  0  0  0
  141.8370   79.7350  221.1410 C   0  0  0  0  0  0  0  0  0  0  0  0
  142.0720   78.8430  222.1710 C   0  0  0  0  0  0  0  0  0  0  0  0
  142.2000   79.2350  223.4900 C   0  0  0  0  0  0  0  0  0  0  0  0
  142.0900   80.5890  223.8130 C   0  0  0  0  0  0  0  0  0  0  0  0
  141.8540   81.4970  222.7800 C   0  0  0  0  0  0  0  0  0  0  0  0
  141.7290   81.0830  221.4650 C   0  0  0  0  0  0  0  0  0  0  0  0
  142.6325   81.1189  219.2656 H   0  0  0  0  0  0  0  0  0  0  0  0
  142.9794   79.7906  218.1071 H   0  0  0  0  0  0  0  0  0  0  0  0
  141.3680   80.5843  218.1071 H   0  0  0  0  0  0  0  0  0  0  0  0
  140.6313   79.1209  219.5689 H   0  0  0  0  0  0  0  0  0  0  0  0
  143.2920   77.8220  219.8520 H   0  0  0  0  0  0  0  0  0  0  0  0
  142.0149   75.2412  217.7030 H   0  0  0  0  0  0  0  0  0  0  0  0
  144.3143   75.1653  218.3194 H   0  0  0  0  0  0  0  0  0  0  0  0
  144.0053   76.6425  219.2562 H   0  0  0  0  0  0  0  0  0  0  0  0
  144.3820   75.3832  221.1767 H   0  0  0  0  0  0  0  0  0  0  0  0
  145.7511   73.7590  221.9118 H   0  0  0  0  0  0  0  0  0  0  0  0
  146.6038   72.9469  220.5553 H   0  0  0  0  0  0  0  0  0  0  0  0
  146.4129   74.7330  220.5553 H   0  0  0  0  0  0  0  0  0  0  0  0
  143.9543   72.2960  221.5251 H   0  0  0  0  0  0  0  0  0  0  0  0
  143.0030   72.4252  220.0068 H   0  0  0  0  0  0  0  0  0  0  0  0
  144.5829   71.5705  220.0068 H   0  0  0  0  0  0  0  0  0  0  0  0
  142.4685   73.4284  221.2788 H   0  0  0  0  0  0  0  0  0  0  0  0
  142.0891   75.1070  221.6194 H   0  0  0  0  0  0  0  0  0  0  0  0
  138.4759   73.3704  219.4500 H   0  0  0  0  0  0  0  0  0  0  0  0
  139.3715   73.3903  221.0059 H   0  0  0  0  0  0  0  0  0  0  0  0
  138.7380   75.8710  219.3340 H   0  0  0  0  0  0  0  0  0  0  0  0
  139.1336   76.9429  223.8052 H   0  0  0  0  0  0  0  0  0  0  0  0
  138.7491   79.3421  224.3706 H   0  0  0  0  0  0  0  0  0  0  0  0
  138.3519   81.5513  223.6156 H   0  0  0  0  0  0  0  0  0  0  0  0
  138.0398   82.4202  219.3994 H   0  0  0  0  0  0  0  0  0  0  0  0
  138.4257   80.0035  218.8678 H   0  0  0  0  0  0  0  0  0  0  0  0
  142.1611   77.7735  221.9297 H   0  0  0  0  0  0  0  0  0  0  0  0
  142.3864   78.4889  224.2765 H   0  0  0  0  0  0  0  0  0  0  0  0
  142.1868   80.9308  224.8541 H   0  0  0  0  0  0  0  0  0  0  0  0
  141.7652   82.5676  223.0164 H   0  0  0  0  0  0  0  0  0  0  0  0
  141.5435   81.8235  220.6730 H   0  0  0  0  0  0  0  0  0  0  0  0
  1  2  1  0
  2  3  1  0
  3  4  1  0
  4  5  2  0
  4  6  1  0
  6  7  1  0
  7  8  1  0
  8  9  1  0
  9 10  1  0
  9 11  1  0
  8 12  1  0
 12 13  1  0
 13 14  1  0
 14 15  2  0
 14 16  1  0
 16 17  1  0
 17 18  1  0
 18 19  2  0
 18 20  1  0
 20 21  2  0
 21 22  1  0
 22 23  2  0
 23 24  1  0
 24 25  2  0
 25 26  1  0
 25 27  1  0
 27 28  2  0
 28 29  1  0
 29 30  2  0
  2 31  1  0
 31 32  2  0
 32 33  1  0
 33 34  2  0
 34 35  1  0
 35 36  2  0
 13  6  1  0
 30 20  1  0
 36 31  1  0
 29 23  1  0
  1 37  1  0
  1 38  1  0
  1 39  1  0
  2 40  1  6
  3 41  1  0
  6 42  1  6
  7 43  1  0
  7 44  1  0
  8 45  1  1
 10 46  1  0
 10 47  1  0
 10 48  1  0
 11 49  1  0
 11 50  1  0
 11 51  1  0
 12 52  1  0
 12 53  1  0
 16 54  1  0
 16 55  1  0
 17 56  1  0
 21 57  1  0
 22 58  1  0
 24 59  1  0
 27 60  1  0
 28 61  1  0
 32 62  1  0
 33 63  1  0
 34 64  1  0
 35 65  1  0
 36 66  1  0
M  END
>  <smiles>  (66) 
CC(NC(=O)[C@H]1C[C@H](N(C)C)CN1C(=O)CNC(=O)c1ccc2cc(Cl)ccc2n1)c1ccccc1

>  <score_type>  (66) 
oracle

>  <origin>  (66) 
autodockgpu

>  <m_score__min__energy>  (66) 
-9.8900000000000006

>  <m_primary>  (66) 
energy

>  <rmsd>  (66) 
6.901190228682828

>  <m_score__min__rmsd>  (66) 
6.901190228682828

>  <meeko>  (66) 
{"free_energy": -6.56, "intermolecular_energy": -8.95, "internal_energy": -5.21, "cluster_size": 2, "cluster_id": 10, "rank_in_cluster": 1}

>  <energy>  (66) 
-8.65

>  <cluster_rmsd>  (66) 
1.85

>  <cluster>  (66) 
1

$$$$

     RDKit          3D

 66 69  0  0  1  0  0  0  0  0999 V2000
  142.1600   80.1770  218.7540 C   0  0  0  0  0  0  0  0  0  0  0  0
  141.6570   79.1430  219.7280 C   0  0  1  0  0  0  0  0  0  0  0  0
  142.2670   77.8460  219.5080 N   0  0  0  0  0  0  0  0  0  0  0  0
  141.5800   76.7260  218.9960 C   0  0  0  0  0  0  0  0  0  0  0  0
  140.3480   76.8460  218.7070 O   0  0  0  0  0  0  0  0  0  0  0  0
  142.1900   75.3980  218.7650 C   0  0  1  0  0  0  0  0  0  0  0  0
  143.6950   75.5540  218.9200 C   0  0  0  0  0  0  0  0  0  0  0  0
  144.0730   74.8410  220.1880 C   0  0  2  0  0  0  0  0  0  0  0  0
  144.8860   73.6900  219.8620 N   0  0  0  0  0  0  0  0  0  0  0  0
  146.1060   73.7470  220.6360 C   0  0  0  0  0  0  0  0  0  0  0  0
  144.1920   72.4450  220.0400 C   0  0  0  0  0  0  0  0  0  0  0  0
  142.7760   74.4470  220.8450 C   0  0  0  0  0  0  0  0  0  0  0  0
  141.8230   74.4010  219.7260 N   0  0  0  0  0  0  0  0  0  0  0  0
  140.7030   73.5080  219.6020 C   0  0  0  0  0  0  0  0  0  0  0  0
  140.6900   72.5650  218.7650 O   0  0  0  0  0  0  0  0  0  0  0  0
  139.5330   73.7130  220.4920 C   0  0  0  0  0  0  0  0  0  0  0  0
  139.1210   75.1080  220.4330 N   0  0  0  0  0  0  0  0  0  0  0  0
  139.1720   75.8370  221.6530 C   0  0  0  0  0  0  0  0  0  0  0  0
  139.5720   75.2020  222.6680 O   0  0  0  0  0  0  0  0  0  0  0  0
  138.7850   77.2420  221.7270 C   0  0  0  0  0  0  0  0  0  0  0  0
  138.3640   77.8620  220.5690 C   0  0  0  0  0  0  0  0  0  0  0  0
  137.9850   79.1890  220.5590 C   0  0  0  0  0  0  0  0  0  0  0  0
  138.0460   79.8610  221.7600 C   0  0  0  0  0  0  0  0  0  0  0  0
  137.6710   81.1920  221.7840 C   0  0  0  0  0  0  0  0  0  0  0  0
  137.7220   81.9000  222.9820 C   0  0  0  0  0  0  0  0  0  0  0  0
  137.2370   83.5710  222.9440 Cl  0  0  0  0  0  0  0  0  0  0  0  0
  138.1450   81.2790  224.1490 C   0  0  0  0  0  0  0  0  0  0  0  0
  138.5250   79.9330  224.1280 C   0  0  0  0  0  0  0  0  0  0  0  0
  138.4720   79.2370  222.9370 C   0  0  0  0  0  0  0  0  0  0  0  0
  138.8310   77.9370  222.8850 N   0  0  0  0  0  0  0  0  0  0  0  0
  141.7560   79.6020  221.1380 C   0  0  0  0  0  0  0  0  0  0  0  0
  141.8570   78.6800  222.1640 C   0  0  0  0  0  0  0  0  0  0  0  0
  141.9520   79.0430  223.4940 C   0  0  0  0  0  0  0  0  0  0  0  0
  141.9470   80.3970  223.8330 C   0  0  0  0  0  0  0  0  0  0  0  0
  141.8450   81.3350  222.8050 C   0  0  0  0  0  0  0  0  0  0  0  0
  141.7510   80.9500  221.4790 C   0  0  0  0  0  0  0  0  0  0  0  0
  142.5756   81.0314  219.3084 H   0  0  0  0  0  0  0  0  0  0  0  0
  142.9434   79.7343  218.1213 H   0  0  0  0  0  0  0  0  0  0  0  0
  141.3281   80.5201  218.1213 H   0  0  0  0  0  0  0  0  0  0  0  0
  140.5828   79.0114  219.5308 H   0  0  0  0  0  0  0  0  0  0  0  0
  143.2770   77.7580  219.7500 H   0  0  0  0  0  0  0  0  0  0  0  0
  141.8468   75.0728  217.7718 H   0  0  0  0  0  0  0  0  0  0  0  0
  144.2137   75.1022  218.0616 H   0  0  0  0  0  0  0  0  0  0  0  0
  143.9813   76.6153  218.9615 H   0  0  0  0  0  0  0  0  0  0  0  0
  144.6658   75.4688  220.8696 H   0  0  0  0  0  0  0  0  0  0  0  0
  145.8608   73.7355  221.7083 H   0  0  0  0  0  0  0  0  0  0  0  0
  146.7346   72.8772  220.3943 H   0  0  0  0  0  0  0  0  0  0  0  0
  146.6507   74.6716  220.3943 H   0  0  0  0  0  0  0  0  0  0  0  0
  144.0774   72.2395  221.1145 H   0  0  0  0  0  0  0  0  0  0  0  0
  143.1991   72.5084  219.5709 H   0  0  0  0  0  0  0  0  0  0  0  0
  144.7681   71.6338  219.5709 H   0  0  0  0  0  0  0  0  0  0  0  0
  142.8632   73.4624  221.3276 H   0  0  0  0  0  0  0  0  0  0  0  0
  142.4699   75.1435  221.6395 H   0  0  0  0  0  0  0  0  0  0  0  0
  138.7033   73.0707  220.1617 H   0  0  0  0  0  0  0  0  0  0  0  0
  139.8066   73.4534  221.5253 H   0  0  0  0  0  0  0  0  0  0  0  0
  138.7990   75.5730  219.5520 H   0  0  0  0  0  0  0  0  0  0  0  0
  138.3296   77.2859  219.6326 H   0  0  0  0  0  0  0  0  0  0  0  0
  137.6504   79.6861  219.6366 H   0  0  0  0  0  0  0  0  0  0  0  0
  137.3344   81.6885  220.8620 H   0  0  0  0  0  0  0  0  0  0  0  0
  138.1814   81.8457  225.0911 H   0  0  0  0  0  0  0  0  0  0  0  0
  138.8619   79.4352  225.0492 H   0  0  0  0  0  0  0  0  0  0  0  0
  141.8619   77.6098  221.9099 H   0  0  0  0  0  0  0  0  0  0  0  0
  142.0306   78.2738  224.2764 H   0  0  0  0  0  0  0  0  0  0  0  0
  142.0215   80.7162  224.8830 H   0  0  0  0  0  0  0  0  0  0  0  0
  141.8392   82.4063  223.0545 H   0  0  0  0  0  0  0  0  0  0  0  0
  141.6720   81.7138  220.6913 H   0  0  0  0  0  0  0  0  0  0  0  0
  1  2  1  0
  2  3  1  0
  3  4  1  0
  4  5  2  0
  4  6  1  0
  6  7  1  0
  7  8  1  0
  8  9  1  0
  9 10  1  0
  9 11  1  0
  8 12  1  0
 12 13  1  0
 13 14  1  0
 14 15  2  0
 14 16  1  0
 16 17  1  0
 17 18  1  0
 18 19  2  0
 18 20  1  0
 20 21  2  0
 21 22  1  0
 22 23  2  0
 23 24  1  0
 24 25  2  0
 25 26  1  0
 25 27  1  0
 27 28  2  0
 28 29  1  0
 29 30  2  0
  2 31  1  0
 31 32  2  0
 32 33  1  0
 33 34  2  0
 34 35  1  0
 35 36  2  0
 13  6  1  0
 30 20  1  0
 36 31  1  0
 29 23  1  0
  1 37  1  0
  1 38  1  0
  1 39  1  0
  2 40  1  6
  3 41  1  0
  6 42  1  6
  7 43  1  0
  7 44  1  0
  8 45  1  1
 10 46  1  0
 10 47  1  0
 10 48  1  0
 11 49  1  0
 11 50  1  0
 11 51  1  0
 12 52  1  0
 12 53  1  0
 16 54  1  0
 16 55  1  0
 17 56  1  0
 21 57  1  0
 22 58  1  0
 24 59  1  0
 27 60  1  0
 28 61  1  0
 32 62  1  0
 33 63  1  0
 34 64  1  0
 35 65  1  0
 36 66  1  0
M  END
>  <smiles>  (67) 
CC(NC(=O)[C@H]1C[C@H](N(C)C)CN1C(=O)CNC(=O)c1ccc2cc(Cl)ccc2n1)c1ccccc1

>  <score_type>  (67) 
oracle

>  <origin>  (67) 
autodockgpu

>  <m_score__min__energy>  (67) 
-9.8900000000000006

>  <m_primary>  (67) 
energy

>  <rmsd>  (67) 
6.664968119320163

>  <m_score__min__rmsd>  (67) 
6.664968119320163

>  <meeko>  (67) 
{"free_energy": -6.85, "intermolecular_energy": -9.23, "internal_energy": -4.82, "cluster_size": 5, "cluster_id": 9, "rank_in_cluster": 2}

>  <energy>  (67) 
-8.5

>  <cluster_rmsd>  (67) 
1.89

>  <cluster>  (67) 
1

$$$$

     RDKit          3D

 66 69  0  0  1  0  0  0  0  0999 V2000
  139.5950   78.5270  219.7940 C   0  0  0  0  0  0  0  0  0  0  0  0
  140.1670   77.7250  220.9350 C   0  0  1  0  0  0  0  0  0  0  0  0
  140.8420   76.5280  220.4730 N   0  0  0  0  0  0  0  0  0  0  0  0
  141.9330   76.5290  219.5790 C   0  0  0  0  0  0  0  0  0  0  0  0
  142.3610   77.6430  219.1410 O   0  0  0  0  0  0  0  0  0  0  0  0
  142.6310   75.3160  219.1020 C   0  0  1  0  0  0  0  0  0  0  0  0
  144.0360   75.3390  219.6800 C   0  0  0  0  0  0  0  0  0  0  0  0
  144.0980   74.2430  220.7060 C   0  0  2  0  0  0  0  0  0  0  0  0
  145.0090   73.2150  220.2510 N   0  0  0  0  0  0  0  0  0  0  0  0
  145.1950   73.3560  218.8240 C   0  0  0  0  0  0  0  0  0  0  0  0
  146.2580   73.2190  220.9610 C   0  0  0  0  0  0  0  0  0  0  0  0
  142.6900   73.7250  220.8460 C   0  0  0  0  0  0  0  0  0  0  0  0
  142.0620   74.0840  219.5650 N   0  0  0  0  0  0  0  0  0  0  0  0
  141.0470   73.3330  218.8770 C   0  0  0  0  0  0  0  0  0  0  0  0
  141.2720   72.7530  217.7810 O   0  0  0  0  0  0  0  0  0  0  0  0
  139.6960   73.2480  219.4880 C   0  0  0  0  0  0  0  0  0  0  0  0
  139.7090   72.2530  220.5500 N   0  0  0  0  0  0  0  0  0  0  0  0
  139.8860   72.7400  221.8740 C   0  0  0  0  0  0  0  0  0  0  0  0
  140.0150   73.9900  221.9980 O   0  0  0  0  0  0  0  0  0  0  0  0
  139.9170   71.8450  223.0260 C   0  0  0  0  0  0  0  0  0  0  0  0
  139.3590   70.5910  222.8910 C   0  0  0  0  0  0  0  0  0  0  0  0
  139.3480   69.6900  223.9360 C   0  0  0  0  0  0  0  0  0  0  0  0
  139.9220   70.1030  225.1180 C   0  0  0  0  0  0  0  0  0  0  0  0
  139.9290   69.2230  226.1850 C   0  0  0  0  0  0  0  0  0  0  0  0
  140.5010   69.6100  227.3930 C   0  0  0  0  0  0  0  0  0  0  0  0
  140.4760   68.4560  228.6950 Cl  0  0  0  0  0  0  0  0  0  0  0  0
  141.0640   70.8710  227.5330 C   0  0  0  0  0  0  0  0  0  0  0  0
  141.0590   71.7640  226.4570 C   0  0  0  0  0  0  0  0  0  0  0  0
  140.4900   71.3740  225.2600 C   0  0  0  0  0  0  0  0  0  0  0  0
  140.4710   72.2120  224.2030 N   0  0  0  0  0  0  0  0  0  0  0  0
  141.0030   78.5520  221.8430 C   0  0  0  0  0  0  0  0  0  0  0  0
  141.0450   78.2730  223.1970 C   0  0  0  0  0  0  0  0  0  0  0  0
  141.8020   79.0050  224.0910 C   0  0  0  0  0  0  0  0  0  0  0  0
  142.5650   80.0770  223.6230 C   0  0  0  0  0  0  0  0  0  0  0  0
  142.5300   80.3660  222.2590 C   0  0  0  0  0  0  0  0  0  0  0  0
  141.7650   79.6200  221.3800 C   0  0  0  0  0  0  0  0  0  0  0  0
  139.0000   79.3612  220.1942 H   0  0  0  0  0  0  0  0  0  0  0  0
  140.4150   78.9241  219.1776 H   0  0  0  0  0  0  0  0  0  0  0  0
  138.9526   77.8810  219.1776 H   0  0  0  0  0  0  0  0  0  0  0  0
  139.3175   77.3806  221.5431 H   0  0  0  0  0  0  0  0  0  0  0  0
  140.4820   75.6200  220.8360 H   0  0  0  0  0  0  0  0  0  0  0  0
  142.5713   75.3414  218.0039 H   0  0  0  0  0  0  0  0  0  0  0  0
  144.7756   75.1577  218.8862 H   0  0  0  0  0  0  0  0  0  0  0  0
  144.2628   76.3165  220.1306 H   0  0  0  0  0  0  0  0  0  0  0  0
  144.4708   74.5928  221.6800 H   0  0  0  0  0  0  0  0  0  0  0  0
  146.0578   74.0101  218.6296 H   0  0  0  0  0  0  0  0  0  0  0  0
  145.3769   72.3669  218.3784 H   0  0  0  0  0  0  0  0  0  0  0  0
  144.2918   73.7983  218.3784 H   0  0  0  0  0  0  0  0  0  0  0  0
  146.0642   73.2184  222.0438 H   0  0  0  0  0  0  0  0  0  0  0  0
  146.8359   72.3227  220.6914 H   0  0  0  0  0  0  0  0  0  0  0  0
  146.8301   74.1190  220.6914 H   0  0  0  0  0  0  0  0  0  0  0  0
  142.6852   72.6350  220.9943 H   0  0  0  0  0  0  0  0  0  0  0  0
  142.1629   74.1472  221.7143 H   0  0  0  0  0  0  0  0  0  0  0  0
  139.4196   74.2274  219.9057 H   0  0  0  0  0  0  0  0  0  0  0  0
  138.9628   72.9581  218.7210 H   0  0  0  0  0  0  0  0  0  0  0  0
  139.5960   71.2270  220.3740 H   0  0  0  0  0  0  0  0  0  0  0  0
  138.9124   70.3025  221.9281 H   0  0  0  0  0  0  0  0  0  0  0  0
  138.9023   68.6899  223.8302 H   0  0  0  0  0  0  0  0  0  0  0  0
  139.4847   68.2223  226.0792 H   0  0  0  0  0  0  0  0  0  0  0  0
  141.5146   71.1682  228.4915 H   0  0  0  0  0  0  0  0  0  0  0  0
  141.5028   72.7650  226.5623 H   0  0  0  0  0  0  0  0  0  0  0  0
  140.4492   77.4309  223.5789 H   0  0  0  0  0  0  0  0  0  0  0  0
  141.8038   78.7463  225.1601 H   0  0  0  0  0  0  0  0  0  0  0  0
  143.1773   80.6775  224.3118 H   0  0  0  0  0  0  0  0  0  0  0  0
  143.1247   81.2070  221.8729 H   0  0  0  0  0  0  0  0  0  0  0  0
  141.7592   79.8727  220.3094 H   0  0  0  0  0  0  0  0  0  0  0  0
  1  2  1  0
  2  3  1  0
  3  4  1  0
  4  5  2  0
  4  6  1  0
  6  7  1  0
  7  8  1  0
  8  9  1  0
  9 10  1  0
  9 11  1  0
  8 12  1  0
 12 13  1  0
 13 14  1  0
 14 15  2  0
 14 16  1  0
 16 17  1  0
 17 18  1  0
 18 19  2  0
 18 20  1  0
 20 21  2  0
 21 22  1  0
 22 23  2  0
 23 24  1  0
 24 25  2  0
 25 26  1  0
 25 27  1  0
 27 28  2  0
 28 29  1  0
 29 30  2  0
  2 31  1  0
 31 32  2  0
 32 33  1  0
 33 34  2  0
 34 35  1  0
 35 36  2  0
 13  6  1  0
 30 20  1  0
 36 31  1  0
 29 23  1  0
  1 37  1  0
  1 38  1  0
  1 39  1  0
  2 40  1  1
  3 41  1  0
  6 42  1  6
  7 43  1  0
  7 44  1  0
  8 45  1  1
 10 46  1  0
 10 47  1  0
 10 48  1  0
 11 49  1  0
 11 50  1  0
 11 51  1  0
 12 52  1  0
 12 53  1  0
 16 54  1  0
 16 55  1  0
 17 56  1  0
 21 57  1  0
 22 58  1  0
 24 59  1  0
 27 60  1  0
 28 61  1  0
 32 62  1  0
 33 63  1  0
 34 64  1  0
 35 65  1  0
 36 66  1  0
M  END
>  <smiles>  (68) 
CC(NC(=O)[C@H]1C[C@H](N(C)C)CN1C(=O)CNC(=O)c1ccc2cc(Cl)ccc2n1)c1ccccc1

>  <score_type>  (68) 
oracle

>  <origin>  (68) 
autodockgpu

>  <m_score__min__energy>  (68) 
-9.8900000000000006

>  <m_primary>  (68) 
energy

>  <rmsd>  (68) 
3.5453679878804976

>  <m_score__min__rmsd>  (68) 
3.5453679878804976

>  <meeko>  (68) 
{"free_energy": -9.3, "intermolecular_energy": -11.69, "internal_energy": -2.96, "cluster_size": 21, "cluster_id": 1, "rank_in_cluster": 7}

>  <energy>  (68) 
-8.38

>  <cluster_rmsd>  (68) 
1.97

>  <cluster>  (68) 
1

$$$$

     RDKit          3D

 66 69  0  0  1  0  0  0  0  0999 V2000
  138.2050   78.5040  222.2630 C   0  0  0  0  0  0  0  0  0  0  0  0
  139.5160   77.9310  222.7370 C   0  0  1  0  0  0  0  0  0  0  0  0
  139.9840   76.8600  221.8790 N   0  0  0  0  0  0  0  0  0  0  0  0
  140.5520   77.0590  220.6050 C   0  0  0  0  0  0  0  0  0  0  0  0
  140.6670   78.2460  220.1660 O   0  0  0  0  0  0  0  0  0  0  0  0
  141.0350   75.9750  219.7210 C   0  0  1  0  0  0  0  0  0  0  0  0
  142.5540   76.0120  219.7390 C   0  0  0  0  0  0  0  0  0  0  0  0
  143.0070   74.7900  220.4860 C   0  0  2  0  0  0  0  0  0  0  0  0
  143.6940   73.9010  219.5730 N   0  0  0  0  0  0  0  0  0  0  0  0
  143.7100   74.5050  218.2590 C   0  0  0  0  0  0  0  0  0  0  0  0
  145.0120   73.5480  220.0210 C   0  0  0  0  0  0  0  0  0  0  0  0
  141.7590   74.1630  221.0500 C   0  0  0  0  0  0  0  0  0  0  0  0
  140.6940   74.6550  220.1620 N   0  0  0  0  0  0  0  0  0  0  0  0
  139.5030   73.9400  219.7870 C   0  0  0  0  0  0  0  0  0  0  0  0
  139.4050   73.3390  218.6840 O   0  0  0  0  0  0  0  0  0  0  0  0
  138.3640   73.9190  220.7380 C   0  0  0  0  0  0  0  0  0  0  0  0
  138.7670   73.2360  221.9590 N   0  0  0  0  0  0  0  0  0  0  0  0
  138.7160   71.8150  221.9380 C   0  0  0  0  0  0  0  0  0  0  0  0
  138.3260   71.2850  220.8590 O   0  0  0  0  0  0  0  0  0  0  0  0
  139.0940   71.0140  223.0960 C   0  0  0  0  0  0  0  0  0  0  0  0
  138.7990   69.6670  223.0800 C   0  0  0  0  0  0  0  0  0  0  0  0
  139.1230   68.8450  224.1410 C   0  0  0  0  0  0  0  0  0  0  0  0
  139.7550   69.4350  225.2130 C   0  0  0  0  0  0  0  0  0  0  0  0
  140.0940   68.6380  226.2920 C   0  0  0  0  0  0  0  0  0  0  0  0
  140.7330   69.2040  227.3910 C   0  0  0  0  0  0  0  0  0  0  0  0
  141.1320   68.1470  228.7150 Cl  0  0  0  0  0  0  0  0  0  0  0  0
  141.0310   70.5600  227.4120 C   0  0  0  0  0  0  0  0  0  0  0  0
  140.6910   71.3680  226.3230 C   0  0  0  0  0  0  0  0  0  0  0  0
  140.0560   70.8010  225.2350 C   0  0  0  0  0  0  0  0  0  0  0  0
  139.7150   71.5540  224.1680 N   0  0  0  0  0  0  0  0  0  0  0  0
  140.5400   78.9830  222.9690 C   0  0  0  0  0  0  0  0  0  0  0  0
  140.1810   80.3190  222.9500 C   0  0  0  0  0  0  0  0  0  0  0  0
  141.0860   81.3420  223.1580 C   0  0  0  0  0  0  0  0  0  0  0  0
  142.4260   81.0300  223.3990 C   0  0  0  0  0  0  0  0  0  0  0  0
  142.7970   79.6850  223.4210 C   0  0  0  0  0  0  0  0  0  0  0  0
  141.8740   78.6760  223.2100 C   0  0  0  0  0  0  0  0  0  0  0  0
  137.5872   78.7740  223.1322 H   0  0  0  0  0  0  0  0  0  0  0  0
  138.3952   79.4011  221.6555 H   0  0  0  0  0  0  0  0  0  0  0  0
  137.6758   77.7551  221.6555 H   0  0  0  0  0  0  0  0  0  0  0  0
  139.3301   77.4734  223.7198 H   0  0  0  0  0  0  0  0  0  0  0  0
  139.8830   75.8900  222.2480 H   0  0  0  0  0  0  0  0  0  0  0  0
  140.5694   76.1508  218.7400 H   0  0  0  0  0  0  0  0  0  0  0  0
  142.9458   75.9950  218.7113 H   0  0  0  0  0  0  0  0  0  0  0  0
  142.9216   76.9296  220.2216 H   0  0  0  0  0  0  0  0  0  0  0  0
  143.7126   75.0234  221.2970 H   0  0  0  0  0  0  0  0  0  0  0  0
  143.7390   75.6000  218.3591 H   0  0  0  0  0  0  0  0  0  0  0  0
  144.5994   74.1634  217.7092 H   0  0  0  0  0  0  0  0  0  0  0  0
  142.8038   74.2110  217.7092 H   0  0  0  0  0  0  0  0  0  0  0  0
  145.0360   73.5416  221.1207 H   0  0  0  0  0  0  0  0  0  0  0  0
  145.2724   72.5485  219.6427 H   0  0  0  0  0  0  0  0  0  0  0  0
  145.7371   74.2836  219.6427 H   0  0  0  0  0  0  0  0  0  0  0  0
  141.8217   73.0653  221.0176 H   0  0  0  0  0  0  0  0  0  0  0  0
  141.5896   74.4221  222.1055 H   0  0  0  0  0  0  0  0  0  0  0  0
  138.0653   74.9506  220.9759 H   0  0  0  0  0  0  0  0  0  0  0  0
  137.5147   73.3883  220.2830 H   0  0  0  0  0  0  0  0  0  0  0  0
  139.0810   73.7410  222.8200 H   0  0  0  0  0  0  0  0  0  0  0  0
  138.2941   69.2377  222.2021 H   0  0  0  0  0  0  0  0  0  0  0  0
  138.8876   67.7705  224.1306 H   0  0  0  0  0  0  0  0  0  0  0  0
  139.8598   67.5633  226.2812 H   0  0  0  0  0  0  0  0  0  0  0  0
  141.5349   70.9987  228.2859 H   0  0  0  0  0  0  0  0  0  0  0  0
  140.9263   72.4425  226.3323 H   0  0  0  0  0  0  0  0  0  0  0  0
  139.1288   80.5781  222.7610 H   0  0  0  0  0  0  0  0  0  0  0  0
  140.7549   82.3907  223.1341 H   0  0  0  0  0  0  0  0  0  0  0  0
  143.1691   81.8235  223.5670 H   0  0  0  0  0  0  0  0  0  0  0  0
  143.8478   79.4207  223.6105 H   0  0  0  0  0  0  0  0  0  0  0  0
  142.1978   77.6250  223.2331 H   0  0  0  0  0  0  0  0  0  0  0  0
  1  2  1  0
  2  3  1  0
  3  4  1  0
  4  5  2  0
  4  6  1  0
  6  7  1  0
  7  8  1  0
  8  9  1  0
  9 10  1  0
  9 11  1  0
  8 12  1  0
 12 13  1  0
 13 14  1  0
 14 15  2  0
 14 16  1  0
 16 17  1  0
 17 18  1  0
 18 19  2  0
 18 20  1  0
 20 21  2  0
 21 22  1  0
 22 23  2  0
 23 24  1  0
 24 25  2  0
 25 26  1  0
 25 27  1  0
 27 28  2  0
 28 29  1  0
 29 30  2  0
  2 31  1  0
 31 32  2  0
 32 33  1  0
 33 34  2  0
 34 35  1  0
 35 36  2  0
 13  6  1  0
 30 20  1  0
 36 31  1  0
 29 23  1  0
  1 37  1  0
  1 38  1  0
  1 39  1  0
  2 40  1  1
  3 41  1  0
  6 42  1  6
  7 43  1  0
  7 44  1  0
  8 45  1  1
 10 46  1  0
 10 47  1  0
 10 48  1  0
 11 49  1  0
 11 50  1  0
 11 51  1  0
 12 52  1  0
 12 53  1  0
 16 54  1  0
 16 55  1  0
 17 56  1  0
 21 57  1  0
 22 58  1  0
 24 59  1  0
 27 60  1  0
 28 61  1  0
 32 62  1  0
 33 63  1  0
 34 64  1  0
 35 65  1  0
 36 66  1  0
M  END
>  <smiles>  (69) 
CC(NC(=O)[C@H]1C[C@H](N(C)C)CN1C(=O)CNC(=O)c1ccc2cc(Cl)ccc2n1)c1ccccc1

>  <score_type>  (69) 
oracle

>  <origin>  (69) 
autodockgpu

>  <m_score__min__energy>  (69) 
-9.8900000000000006

>  <m_primary>  (69) 
energy

>  <rmsd>  (69) 
2.945518186966993

>  <m_score__min__rmsd>  (69) 
2.945518186966993

>  <meeko>  (69) 
{"free_energy": -8.94, "intermolecular_energy": -11.33, "internal_energy": -2.38, "cluster_size": 21, "cluster_id": 1, "rank_in_cluster": 10}

>  <energy>  (69) 
-8.38

>  <cluster_rmsd>  (69) 
1.91

>  <cluster>  (69) 
1

$$$$

     RDKit          3D

 66 69  0  0  1  0  0  0  0  0999 V2000
  139.1890   77.0120  221.8550 C   0  0  0  0  0  0  0  0  0  0  0  0
  140.6490   77.1300  222.2130 C   0  0  1  0  0  0  0  0  0  0  0  0
  141.5110   76.6710  221.1410 N   0  0  0  0  0  0  0  0  0  0  0  0
  141.8650   75.3220  220.9330 C   0  0  0  0  0  0  0  0  0  0  0  0
  141.4080   74.4420  221.7280 O   0  0  0  0  0  0  0  0  0  0  0  0
  142.7410   74.8420  219.8420 C   0  0  1  0  0  0  0  0  0  0  0  0
  144.0950   74.5160  220.4530 C   0  0  0  0  0  0  0  0  0  0  0  0
  144.2360   73.0200  220.4150 C   0  0  2  0  0  0  0  0  0  0  0  0
  145.2980   72.6650  219.4990 N   0  0  0  0  0  0  0  0  0  0  0  0
  145.3180   71.2280  219.3430 C   0  0  0  0  0  0  0  0  0  0  0  0
  145.2000   73.3440  218.2370 C   0  0  0  0  0  0  0  0  0  0  0  0
  142.9000   72.4890  219.9620 C   0  0  0  0  0  0  0  0  0  0  0  0
  142.3100   73.6200  219.2300 N   0  0  0  0  0  0  0  0  0  0  0  0
  141.4430   73.5310  218.0860 C   0  0  0  0  0  0  0  0  0  0  0  0
  140.6240   72.5840  217.9410 O   0  0  0  0  0  0  0  0  0  0  0  0
  141.5280   74.5920  217.0520 C   0  0  0  0  0  0  0  0  0  0  0  0
  141.1680   75.8720  217.6430 N   0  0  0  0  0  0  0  0  0  0  0  0
  142.1680   76.8840  217.6260 C   0  0  0  0  0  0  0  0  0  0  0  0
  143.2710   76.5700  217.0980 O   0  0  0  0  0  0  0  0  0  0  0  0
  141.9320   78.2090  218.1880 C   0  0  0  0  0  0  0  0  0  0  0  0
  142.8700   79.1920  217.9520 C   0  0  0  0  0  0  0  0  0  0  0  0
  142.7180   80.4690  218.4530 C   0  0  0  0  0  0  0  0  0  0  0  0
  141.5840   80.7130  219.1960 C   0  0  0  0  0  0  0  0  0  0  0  0
  141.4010   81.9840  219.7100 C   0  0  0  0  0  0  0  0  0  0  0  0
  140.2660   82.2640  220.4660 C   0  0  0  0  0  0  0  0  0  0  0  0
  140.0950   83.8820  221.0840 Cl  0  0  0  0  0  0  0  0  0  0  0  0
  139.3190   81.2770  220.7050 C   0  0  0  0  0  0  0  0  0  0  0  0
  139.5000   79.9910  220.1860 C   0  0  0  0  0  0  0  0  0  0  0  0
  140.6290   79.7200  219.4370 C   0  0  0  0  0  0  0  0  0  0  0  0
  140.8330   78.4890  218.9220 N   0  0  0  0  0  0  0  0  0  0  0  0
  141.0010   78.4870  222.7040 C   0  0  0  0  0  0  0  0  0  0  0  0
  142.2650   79.0020  222.4810 C   0  0  0  0  0  0  0  0  0  0  0  0
  142.6530   80.2560  222.9120 C   0  0  0  0  0  0  0  0  0  0  0  0
  141.7390   81.0520  223.6050 C   0  0  0  0  0  0  0  0  0  0  0  0
  140.4600   80.5420  223.8350 C   0  0  0  0  0  0  0  0  0  0  0  0
  140.0930   79.2830  223.3940 C   0  0  0  0  0  0  0  0  0  0  0  0
  138.5885   76.9635  222.7754 H   0  0  0  0  0  0  0  0  0  0  0  0
  138.8843   77.8885  221.2642 H   0  0  0  0  0  0  0  0  0  0  0  0
  139.0290   76.0980  221.2642 H   0  0  0  0  0  0  0  0  0  0  0  0
  140.8282   76.4505  223.0593 H   0  0  0  0  0  0  0  0  0  0  0  0
  141.8810   77.4010  220.4950 H   0  0  0  0  0  0  0  0  0  0  0  0
  142.7438   75.6359  219.0806 H   0  0  0  0  0  0  0  0  0  0  0  0
  144.8985   74.9877  219.8682 H   0  0  0  0  0  0  0  0  0  0  0  0
  144.1660   74.8945  221.4834 H   0  0  0  0  0  0  0  0  0  0  0  0
  144.5009   72.5919  221.3930 H   0  0  0  0  0  0  0  0  0  0  0  0
  145.3246   70.7516  220.3345 H   0  0  0  0  0  0  0  0  0  0  0  0
  144.4242   70.9070  218.7879 H   0  0  0  0  0  0  0  0  0  0  0  0
  146.2203   70.9319  218.7879 H   0  0  0  0  0  0  0  0  0  0  0  0
  145.0448   74.4191  218.4102 H   0  0  0  0  0  0  0  0  0  0  0  0
  146.1290   73.1947  217.6672 H   0  0  0  0  0  0  0  0  0  0  0  0
  144.3511   72.9381  217.6672 H   0  0  0  0  0  0  0  0  0  0  0  0
  143.0265   71.6174  219.3030 H   0  0  0  0  0  0  0  0  0  0  0  0
  142.2712   72.1444  220.7962 H   0  0  0  0  0  0  0  0  0  0  0  0
  142.5554   74.6435  216.6625 H   0  0  0  0  0  0  0  0  0  0  0  0
  140.8363   74.3595  216.2289 H   0  0  0  0  0  0  0  0  0  0  0  0
  140.2300   76.0630  218.0660 H   0  0  0  0  0  0  0  0  0  0  0  0
  143.7596   78.9529  217.3508 H   0  0  0  0  0  0  0  0  0  0  0  0
  143.4661   81.2539  218.2680 H   0  0  0  0  0  0  0  0  0  0  0  0
  142.1481   82.7692  219.5225 H   0  0  0  0  0  0  0  0  0  0  0  0
  138.4251   81.5069  221.3034 H   0  0  0  0  0  0  0  0  0  0  0  0
  138.7530   79.2052  220.3717 H   0  0  0  0  0  0  0  0  0  0  0  0
  142.9946   78.3852  221.9357 H   0  0  0  0  0  0  0  0  0  0  0  0
  143.6704   80.6230  222.7115 H   0  0  0  0  0  0  0  0  0  0  0  0
  142.0193   82.0546  223.9604 H   0  0  0  0  0  0  0  0  0  0  0  0
  139.7270   81.1553  224.3795 H   0  0  0  0  0  0  0  0  0  0  0  0
  139.0772   78.9095  223.5903 H   0  0  0  0  0  0  0  0  0  0  0  0
  1  2  1  0
  2  3  1  0
  3  4  1  0
  4  5  2  0
  4  6  1  0
  6  7  1  0
  7  8  1  0
  8  9  1  0
  9 10  1  0
  9 11  1  0
  8 12  1  0
 12 13  1  0
 13 14  1  0
 14 15  2  0
 14 16  1  0
 16 17  1  0
 17 18  1  0
 18 19  2  0
 18 20  1  0
 20 21  2  0
 21 22  1  0
 22 23  2  0
 23 24  1  0
 24 25  2  0
 25 26  1  0
 25 27  1  0
 27 28  2  0
 28 29  1  0
 29 30  2  0
  2 31  1  0
 31 32  2  0
 32 33  1  0
 33 34  2  0
 34 35  1  0
 35 36  2  0
 13  6  1  0
 30 20  1  0
 36 31  1  0
 29 23  1  0
  1 37  1  0
  1 38  1  0
  1 39  1  0
  2 40  1  1
  3 41  1  0
  6 42  1  6
  7 43  1  0
  7 44  1  0
  8 45  1  1
 10 46  1  0
 10 47  1  0
 10 48  1  0
 11 49  1  0
 11 50  1  0
 11 51  1  0
 12 52  1  0
 12 53  1  0
 16 54  1  0
 16 55  1  0
 17 56  1  0
 21 57  1  0
 22 58  1  0
 24 59  1  0
 27 60  1  0
 28 61  1  0
 32 62  1  0
 33 63  1  0
 34 64  1  0
 35 65  1  0
 36 66  1  0
M  END
>  <smiles>  (70) 
CC(NC(=O)[C@H]1C[C@H](N(C)C)CN1C(=O)CNC(=O)c1ccc2cc(Cl)ccc2n1)c1ccccc1

>  <score_type>  (70) 
oracle

>  <origin>  (70) 
autodockgpu

>  <m_score__min__energy>  (70) 
-9.8900000000000006

>  <m_primary>  (70) 
energy

>  <rmsd>  (70) 
7.885721466194274

>  <m_score__min__rmsd>  (70) 
7.885721466194274

>  <meeko>  (70) 
{"free_energy": -6.48, "intermolecular_energy": -8.87, "internal_energy": -4.69, "cluster_size": 7, "cluster_id": 8, "rank_in_cluster": 3}

>  <energy>  (70) 
-8.37

>  <cluster_rmsd>  (70) 
1.84

>  <cluster>  (70) 
1

$$$$

     RDKit          3D

 66 69  0  0  1  0  0  0  0  0999 V2000
  140.9120   79.9600  219.1850 C   0  0  0  0  0  0  0  0  0  0  0  0
  140.3450   79.2130  220.3660 C   0  0  1  0  0  0  0  0  0  0  0  0
  140.1810   77.8000  220.0880 N   0  0  0  0  0  0  0  0  0  0  0  0
  141.2420   76.9290  219.7640 C   0  0  0  0  0  0  0  0  0  0  0  0
  142.4210   77.3990  219.7070 O   0  0  0  0  0  0  0  0  0  0  0  0
  141.0880   75.4860  219.4800 C   0  0  1  0  0  0  0  0  0  0  0  0
  142.4620   74.8470  219.6000 C   0  0  0  0  0  0  0  0  0  0  0  0
  142.4350   73.9940  220.8360 C   0  0  2  0  0  0  0  0  0  0  0  0
  142.5440   72.6020  220.4580 N   0  0  0  0  0  0  0  0  0  0  0  0
  142.2450   72.4780  219.0490 C   0  0  0  0  0  0  0  0  0  0  0  0
  143.8180   72.0290  220.7920 C   0  0  0  0  0  0  0  0  0  0  0  0
  141.1240   74.2920  221.5170 C   0  0  0  0  0  0  0  0  0  0  0  0
  140.2710   74.7800  220.4230 N   0  0  0  0  0  0  0  0  0  0  0  0
  138.8500   74.5870  220.3030 C   0  0  0  0  0  0  0  0  0  0  0  0
  138.0750   75.5230  219.9710 O   0  0  0  0  0  0  0  0  0  0  0  0
  138.2950   73.2390  220.5820 C   0  0  0  0  0  0  0  0  0  0  0  0
  138.6530   72.8400  221.9350 N   0  0  0  0  0  0  0  0  0  0  0  0
  139.3710   71.6190  222.0680 C   0  0  0  0  0  0  0  0  0  0  0  0
  139.6280   71.0020  220.9970 O   0  0  0  0  0  0  0  0  0  0  0  0
  139.7880   71.1100  223.3700 C   0  0  0  0  0  0  0  0  0  0  0  0
  140.6210   71.8940  224.1390 C   0  0  0  0  0  0  0  0  0  0  0  0
  141.0590   71.4790  225.3810 C   0  0  0  0  0  0  0  0  0  0  0  0
  140.6240   70.2460  225.8120 C   0  0  0  0  0  0  0  0  0  0  0  0
  141.0440   69.8010  227.0520 C   0  0  0  0  0  0  0  0  0  0  0  0
  140.6220   68.5590  227.5170 C   0  0  0  0  0  0  0  0  0  0  0  0
  141.1870   68.0580  229.0860 Cl  0  0  0  0  0  0  0  0  0  0  0  0
  139.7840   67.7650  226.7450 C   0  0  0  0  0  0  0  0  0  0  0  0
  139.3560   68.2120  225.4910 C   0  0  0  0  0  0  0  0  0  0  0  0
  139.7780   69.4460  225.0350 C   0  0  0  0  0  0  0  0  0  0  0  0
  139.3830   69.9050  223.8290 N   0  0  0  0  0  0  0  0  0  0  0  0
  141.1020   79.4780  221.6170 C   0  0  0  0  0  0  0  0  0  0  0  0
  141.8710   80.6220  221.7360 C   0  0  0  0  0  0  0  0  0  0  0  0
  142.5970   80.9240  222.8710 C   0  0  0  0  0  0  0  0  0  0  0  0
  142.5640   80.0450  223.9570 C   0  0  0  0  0  0  0  0  0  0  0  0
  141.7910   78.8890  223.8460 C   0  0  0  0  0  0  0  0  0  0  0  0
  141.0710   78.6050  222.6990 C   0  0  0  0  0  0  0  0  0  0  0  0
  141.5409   80.7885  219.5428 H   0  0  0  0  0  0  0  0  0  0  0  0
  141.5197   79.2751  218.5754 H   0  0  0  0  0  0  0  0  0  0  0  0
  140.0889   80.3612  218.5754 H   0  0  0  0  0  0  0  0  0  0  0  0
  139.3332   79.6077  220.5404 H   0  0  0  0  0  0  0  0  0  0  0  0
  139.2090   77.4250  220.1350 H   0  0  0  0  0  0  0  0  0  0  0  0
  140.6196   75.4187  218.4870 H   0  0  0  0  0  0  0  0  0  0  0  0
  142.6701   74.2267  218.7158 H   0  0  0  0  0  0  0  0  0  0  0  0
  143.2498   75.6120  219.6644 H   0  0  0  0  0  0  0  0  0  0  0  0
  143.2720   74.2060  221.5176 H   0  0  0  0  0  0  0  0  0  0  0  0
  141.2355   72.0594  218.9239 H   0  0  0  0  0  0  0  0  0  0  0  0
  142.2919   73.4698  218.5755 H   0  0  0  0  0  0  0  0  0  0  0  0
  142.9800   71.8105  218.5755 H   0  0  0  0  0  0  0  0  0  0  0  0
  143.9233   71.9817  221.8859 H   0  0  0  0  0  0  0  0  0  0  0  0
  143.8848   71.0141  220.3729 H   0  0  0  0  0  0  0  0  0  0  0  0
  144.6216   72.6524  220.3729 H   0  0  0  0  0  0  0  0  0  0  0  0
  140.7009   73.3832  221.9699 H   0  0  0  0  0  0  0  0  0  0  0  0
  141.2233   75.0169  222.3384 H   0  0  0  0  0  0  0  0  0  0  0  0
  137.1996   73.2657  220.4848 H   0  0  0  0  0  0  0  0  0  0  0  0
  138.7081   72.5154  219.8638 H   0  0  0  0  0  0  0  0  0  0  0  0
  138.4060   73.4040  222.7810 H   0  0  0  0  0  0  0  0  0  0  0  0
  140.9442   72.8726  223.7545 H   0  0  0  0  0  0  0  0  0  0  0  0
  141.7234   72.1034  225.9963 H   0  0  0  0  0  0  0  0  0  0  0  0
  141.7082   70.4254  227.6677 H   0  0  0  0  0  0  0  0  0  0  0  0
  139.4568   66.7841  227.1201 H   0  0  0  0  0  0  0  0  0  0  0  0
  138.6913   67.5886  224.8750 H   0  0  0  0  0  0  0  0  0  0  0  0
  141.9056   81.3223  220.8884 H   0  0  0  0  0  0  0  0  0  0  0  0
  143.1947   81.8462  222.9199 H   0  0  0  0  0  0  0  0  0  0  0  0
  143.1321   80.2588  224.8744 H   0  0  0  0  0  0  0  0  0  0  0  0
  141.7529   78.1859  224.6911 H   0  0  0  0  0  0  0  0  0  0  0  0
  140.4714   77.6845  222.6428 H   0  0  0  0  0  0  0  0  0  0  0  0
  1  2  1  0
  2  3  1  0
  3  4  1  0
  4  5  2  0
  4  6  1  0
  6  7  1  0
  7  8  1  0
  8  9  1  0
  9 10  1  0
  9 11  1  0
  8 12  1  0
 12 13  1  0
 13 14  1  0
 14 15  2  0
 14 16  1  0
 16 17  1  0
 17 18  1  0
 18 19  2  0
 18 20  1  0
 20 21  2  0
 21 22  1  0
 22 23  2  0
 23 24  1  0
 24 25  2  0
 25 26  1  0
 25 27  1  0
 27 28  2  0
 28 29  1  0
 29 30  2  0
  2 31  1  0
 31 32  2  0
 32 33  1  0
 33 34  2  0
 34 35  1  0
 35 36  2  0
 13  6  1  0
 30 20  1  0
 36 31  1  0
 29 23  1  0
  1 37  1  0
  1 38  1  0
  1 39  1  0
  2 40  1  1
  3 41  1  0
  6 42  1  6
  7 43  1  0
  7 44  1  0
  8 45  1  1
 10 46  1  0
 10 47  1  0
 10 48  1  0
 11 49  1  0
 11 50  1  0
 11 51  1  0
 12 52  1  0
 12 53  1  0
 16 54  1  0
 16 55  1  0
 17 56  1  0
 21 57  1  0
 22 58  1  0
 24 59  1  0
 27 60  1  0
 28 61  1  0
 32 62  1  0
 33 63  1  0
 34 64  1  0
 35 65  1  0
 36 66  1  0
M  END
>  <smiles>  (71) 
CC(NC(=O)[C@H]1C[C@H](N(C)C)CN1C(=O)CNC(=O)c1ccc2cc(Cl)ccc2n1)c1ccccc1

>  <score_type>  (71) 
oracle

>  <origin>  (71) 
autodockgpu

>  <m_score__min__energy>  (71) 
-9.8900000000000006

>  <m_primary>  (71) 
energy

>  <rmsd>  (71) 
3.4077657520378937

>  <m_score__min__rmsd>  (71) 
3.4077657520378937

>  <meeko>  (71) 
{"free_energy": -8.37, "intermolecular_energy": -10.76, "internal_energy": -3.05, "cluster_size": 21, "cluster_id": 1, "rank_in_cluster": 20}

>  <energy>  (71) 
-8.34

>  <cluster_rmsd>  (71) 
1.91

>  <cluster>  (71) 
1

$$$$

     RDKit          3D

 66 69  0  0  1  0  0  0  0  0999 V2000
  142.2000   80.0570  218.8970 C   0  0  0  0  0  0  0  0  0  0  0  0
  141.1810   79.6910  219.9460 C   0  0  1  0  0  0  0  0  0  0  0  0
  140.7600   78.3080  219.8370 N   0  0  0  0  0  0  0  0  0  0  0  0
  141.6330   77.2340  219.5690 C   0  0  0  0  0  0  0  0  0  0  0  0
  142.8700   77.4790  219.4090 O   0  0  0  0  0  0  0  0  0  0  0  0
  141.2170   75.8190  219.4570 C   0  0  1  0  0  0  0  0  0  0  0  0
  142.4750   74.9670  219.5050 C   0  0  0  0  0  0  0  0  0  0  0  0
  142.4560   74.2440  220.8220 C   0  0  2  0  0  0  0  0  0  0  0  0
  142.2940   72.8260  220.5850 N   0  0  0  0  0  0  0  0  0  0  0  0
  141.8100   72.6310  219.2360 C   0  0  0  0  0  0  0  0  0  0  0  0
  143.4910   72.0750  220.8430 C   0  0  0  0  0  0  0  0  0  0  0  0
  141.2990   74.8210  221.5950 C   0  0  0  0  0  0  0  0  0  0  0  0
  140.4130   75.3500  220.5470 N   0  0  0  0  0  0  0  0  0  0  0  0
  138.9760   75.3940  220.5920 C   0  0  0  0  0  0  0  0  0  0  0  0
  138.3420   76.4830  220.6180 O   0  0  0  0  0  0  0  0  0  0  0  0
  138.2310   74.1100  220.6080 C   0  0  0  0  0  0  0  0  0  0  0  0
  138.4750   73.4260  221.8690 N   0  0  0  0  0  0  0  0  0  0  0  0
  139.0250   72.1170  221.7860 C   0  0  0  0  0  0  0  0  0  0  0  0
  139.2470   71.6770  220.6230 O   0  0  0  0  0  0  0  0  0  0  0  0
  139.3150   71.3270  222.9760 C   0  0  0  0  0  0  0  0  0  0  0  0
  138.9410   69.9990  222.9830 C   0  0  0  0  0  0  0  0  0  0  0  0
  139.1790   69.1880  224.0750 C   0  0  0  0  0  0  0  0  0  0  0  0
  139.8090   69.7690  225.1540 C   0  0  0  0  0  0  0  0  0  0  0  0
  140.0640   68.9830  226.2630 C   0  0  0  0  0  0  0  0  0  0  0  0
  140.6980   69.5390  227.3700 C   0  0  0  0  0  0  0  0  0  0  0  0
  140.9890   68.4970  228.7320 Cl  0  0  0  0  0  0  0  0  0  0  0  0
  141.0760   70.8760  227.3670 C   0  0  0  0  0  0  0  0  0  0  0  0
  140.8210   71.6730  226.2470 C   0  0  0  0  0  0  0  0  0  0  0  0
  140.1910   71.1150  225.1520 C   0  0  0  0  0  0  0  0  0  0  0  0
  139.9300   71.8580  224.0560 N   0  0  0  0  0  0  0  0  0  0  0  0
  141.6240   80.0600  221.3150 C   0  0  0  0  0  0  0  0  0  0  0  0
  142.1420   79.0970  222.1610 C   0  0  0  0  0  0  0  0  0  0  0  0
  142.5710   79.3770  223.4440 C   0  0  0  0  0  0  0  0  0  0  0  0
  142.4850   80.6860  223.9230 C   0  0  0  0  0  0  0  0  0  0  0  0
  141.9650   81.6650  223.0760 C   0  0  0  0  0  0  0  0  0  0  0  0
  141.5400   81.3630  221.7940 C   0  0  0  0  0  0  0  0  0  0  0  0
  143.1270   80.3900  219.3867 H   0  0  0  0  0  0  0  0  0  0  0  0
  142.4119   79.1788  218.2694 H   0  0  0  0  0  0  0  0  0  0  0  0
  141.8047   80.8693  218.2694 H   0  0  0  0  0  0  0  0  0  0  0  0
  140.2848   80.2975  219.7486 H   0  0  0  0  0  0  0  0  0  0  0  0
  139.7430   78.1180  219.9670 H   0  0  0  0  0  0  0  0  0  0  0  0
  140.6311   75.7453  218.5290 H   0  0  0  0  0  0  0  0  0  0  0  0
  142.4755   74.2444  218.6757 H   0  0  0  0  0  0  0  0  0  0  0  0
  143.3777   75.5879  219.4072 H   0  0  0  0  0  0  0  0  0  0  0  0
  143.3899   74.3688  221.3896 H   0  0  0  0  0  0  0  0  0  0  0  0
  140.7901   72.2201  219.2682 H   0  0  0  0  0  0  0  0  0  0  0  0
  141.8003   73.5954  218.7069 H   0  0  0  0  0  0  0  0  0  0  0  0
  142.4715   71.9292  218.7069 H   0  0  0  0  0  0  0  0  0  0  0  0
  143.6388   71.9823  221.9291 H   0  0  0  0  0  0  0  0  0  0  0  0
  143.3981   71.0730  220.3987 H   0  0  0  0  0  0  0  0  0  0  0  0
  144.3528   72.5946  220.3987 H   0  0  0  0  0  0  0  0  0  0  0  0
  140.7912   74.0417  222.1822 H   0  0  0  0  0  0  0  0  0  0  0  0
  141.6091   75.5879  222.3200 H   0  0  0  0  0  0  0  0  0  0  0  0
  137.1545   74.3088  220.5005 H   0  0  0  0  0  0  0  0  0  0  0  0
  138.5708   73.4773  219.7748 H   0  0  0  0  0  0  0  0  0  0  0  0
  138.2650   73.8530  222.8020 H   0  0  0  0  0  0  0  0  0  0  0  0
  138.4418   69.5766  222.0985 H   0  0  0  0  0  0  0  0  0  0  0  0
  138.8801   68.1294  224.0831 H   0  0  0  0  0  0  0  0  0  0  0  0
  139.7672   67.9238  226.2700 H   0  0  0  0  0  0  0  0  0  0  0  0
  141.5762   71.3077  228.2464 H   0  0  0  0  0  0  0  0  0  0  0  0
  141.1186   72.7319  226.2381 H   0  0  0  0  0  0  0  0  0  0  0  0
  142.2158   78.0618  221.7963 H   0  0  0  0  0  0  0  0  0  0  0  0
  142.9760   78.5773  224.0816 H   0  0  0  0  0  0  0  0  0  0  0  0
  142.8182   80.9383  224.9405 H   0  0  0  0  0  0  0  0  0  0  0  0
  141.8910   82.7019  223.4358 H   0  0  0  0  0  0  0  0  0  0  0  0
  141.1337   82.1574  221.1507 H   0  0  0  0  0  0  0  0  0  0  0  0
  1  2  1  0
  2  3  1  0
  3  4  1  0
  4  5  2  0
  4  6  1  0
  6  7  1  0
  7  8  1  0
  8  9  1  0
  9 10  1  0
  9 11  1  0
  8 12  1  0
 12 13  1  0
 13 14  1  0
 14 15  2  0
 14 16  1  0
 16 17  1  0
 17 18  1  0
 18 19  2  0
 18 20  1  0
 20 21  2  0
 21 22  1  0
 22 23  2  0
 23 24  1  0
 24 25  2  0
 25 26  1  0
 25 27  1  0
 27 28  2  0
 28 29  1  0
 29 30  2  0
  2 31  1  0
 31 32  2  0
 32 33  1  0
 33 34  2  0
 34 35  1  0
 35 36  2  0
 13  6  1  0
 30 20  1  0
 36 31  1  0
 29 23  1  0
  1 37  1  0
  1 38  1  0
  1 39  1  0
  2 40  1  6
  3 41  1  0
  6 42  1  6
  7 43  1  0
  7 44  1  0
  8 45  1  1
 10 46  1  0
 10 47  1  0
 10 48  1  0
 11 49  1  0
 11 50  1  0
 11 51  1  0
 12 52  1  0
 12 53  1  0
 16 54  1  0
 16 55  1  0
 17 56  1  0
 21 57  1  0
 22 58  1  0
 24 59  1  0
 27 60  1  0
 28 61  1  0
 32 62  1  0
 33 63  1  0
 34 64  1  0
 35 65  1  0
 36 66  1  0
M  END
>  <smiles>  (72) 
CC(NC(=O)[C@H]1C[C@H](N(C)C)CN1C(=O)CNC(=O)c1ccc2cc(Cl)ccc2n1)c1ccccc1

>  <score_type>  (72) 
oracle

>  <origin>  (72) 
autodockgpu

>  <m_score__min__energy>  (72) 
-9.8900000000000006

>  <m_primary>  (72) 
energy

>  <rmsd>  (72) 
2.9448127723251547

>  <m_score__min__rmsd>  (72) 
2.9448127723251547

>  <meeko>  (72) 
{"free_energy": -8.65, "intermolecular_energy": -11.04, "internal_energy": -3.04, "cluster_size": 21, "cluster_id": 1, "rank_in_cluster": 15}

>  <energy>  (72) 
-8.92

>  <cluster_rmsd>  (72) 
0.0

>  <cluster>  (72) 
2

$$$$

     RDKit          3D

 66 69  0  0  1  0  0  0  0  0999 V2000
  141.5730   80.1440  219.2470 C   0  0  0  0  0  0  0  0  0  0  0  0
  140.7410   79.5660  220.3630 C   0  0  1  0  0  0  0  0  0  0  0  0
  140.4010   78.1770  220.1240 N   0  0  0  0  0  0  0  0  0  0  0  0
  141.3400   77.1770  219.7980 C   0  0  0  0  0  0  0  0  0  0  0  0
  142.5660   77.4990  219.7030 O   0  0  0  0  0  0  0  0  0  0  0  0
  141.0060   75.7570  219.5540 C   0  0  1  0  0  0  0  0  0  0  0  0
  142.3090   74.9740  219.5490 C   0  0  0  0  0  0  0  0  0  0  0  0
  142.3140   74.1360  220.7960 C   0  0  2  0  0  0  0  0  0  0  0  0
  142.2360   72.7390  220.4310 N   0  0  0  0  0  0  0  0  0  0  0  0
  143.5310   72.3100  219.9510 C   0  0  0  0  0  0  0  0  0  0  0  0
  141.7540   71.9070  221.4980 C   0  0  0  0  0  0  0  0  0  0  0  0
  141.1160   74.5770  221.5970 C   0  0  0  0  0  0  0  0  0  0  0  0
  140.2160   75.1480  220.5840 N   0  0  0  0  0  0  0  0  0  0  0  0
  138.7780   75.1090  220.6070 C   0  0  0  0  0  0  0  0  0  0  0  0
  138.0800   76.1560  220.5460 O   0  0  0  0  0  0  0  0  0  0  0  0
  138.1100   73.7860  220.7050 C   0  0  0  0  0  0  0  0  0  0  0  0
  138.4990   73.1400  221.9490 N   0  0  0  0  0  0  0  0  0  0  0  0
  138.5920   71.7220  221.9260 C   0  0  0  0  0  0  0  0  0  0  0  0
  138.3280   71.1620  220.8260 O   0  0  0  0  0  0  0  0  0  0  0  0
  138.9720   70.9560  223.1080 C   0  0  0  0  0  0  0  0  0  0  0  0
  138.6100   69.6260  223.1660 C   0  0  0  0  0  0  0  0  0  0  0  0
  138.9310   68.8380  224.2530 C   0  0  0  0  0  0  0  0  0  0  0  0
  139.6300   69.4430  225.2740 C   0  0  0  0  0  0  0  0  0  0  0  0
  139.9690   68.6800  226.3760 C   0  0  0  0  0  0  0  0  0  0  0  0
  140.6750   69.2620  227.4260 C   0  0  0  0  0  0  0  0  0  0  0  0
  141.0690   68.2470  228.7830 Cl  0  0  0  0  0  0  0  0  0  0  0  0
  141.0410   70.6000  227.3710 C   0  0  0  0  0  0  0  0  0  0  0  0
  140.7010   71.3740  226.2580 C   0  0  0  0  0  0  0  0  0  0  0  0
  140.0000   70.7920  225.2200 C   0  0  0  0  0  0  0  0  0  0  0  0
  139.6580   71.5120  224.1310 N   0  0  0  0  0  0  0  0  0  0  0  0
  141.3510   79.7960  221.6980 C   0  0  0  0  0  0  0  0  0  0  0  0
  141.7520   81.0660  222.0700 C   0  0  0  0  0  0  0  0  0  0  0  0
  142.3240   81.3440  223.2960 C   0  0  0  0  0  0  0  0  0  0  0  0
  142.5130   80.3070  224.2120 C   0  0  0  0  0  0  0  0  0  0  0  0
  142.1110   79.0220  223.8470 C   0  0  0  0  0  0  0  0  0  0  0  0
  141.5400   78.7650  222.6130 C   0  0  0  0  0  0  0  0  0  0  0  0
  142.4060   80.7227  219.6726 H   0  0  0  0  0  0  0  0  0  0  0  0
  141.9725   79.3279  218.6270 H   0  0  0  0  0  0  0  0  0  0  0  0
  140.9476   80.8032  218.6270 H   0  0  0  0  0  0  0  0  0  0  0  0
  139.7881   80.1154  220.3718 H   0  0  0  0  0  0  0  0  0  0  0  0
  139.3930   77.9240  220.2030 H   0  0  0  0  0  0  0  0  0  0  0  0
  140.4370   75.7353  218.6128 H   0  0  0  0  0  0  0  0  0  0  0  0
  142.3606   74.3296  218.6590 H   0  0  0  0  0  0  0  0  0  0  0  0
  143.1766   75.6498  219.5230 H   0  0  0  0  0  0  0  0  0  0  0  0
  143.2318   74.2606  221.3894 H   0  0  0  0  0  0  0  0  0  0  0  0
  144.1861   72.0930  220.8076 H   0  0  0  0  0  0  0  0  0  0  0  0
  143.4135   71.4028  219.3402 H   0  0  0  0  0  0  0  0  0  0  0  0
  143.9784   73.1079  219.3402 H   0  0  0  0  0  0  0  0  0  0  0  0
  142.0172   72.3612  222.4647 H   0  0  0  0  0  0  0  0  0  0  0  0
  140.6607   71.8115  221.4233 H   0  0  0  0  0  0  0  0  0  0  0  0
  142.2150   70.9111  221.4233 H   0  0  0  0  0  0  0  0  0  0  0  0
  140.6453   73.7215  222.1035 H   0  0  0  0  0  0  0  0  0  0  0  0
  141.3727   75.2914  222.3930 H   0  0  0  0  0  0  0  0  0  0  0  0
  137.0188   73.9236  220.6884 H   0  0  0  0  0  0  0  0  0  0  0  0
  138.4121   73.1576  219.8542 H   0  0  0  0  0  0  0  0  0  0  0  0
  138.7040   73.6700  222.8290 H   0  0  0  0  0  0  0  0  0  0  0  0
  138.0530   69.1834  222.3270 H   0  0  0  0  0  0  0  0  0  0  0  0
  138.6424   67.7777  224.3015 H   0  0  0  0  0  0  0  0  0  0  0  0
  139.6826   67.6190  226.4232 H   0  0  0  0  0  0  0  0  0  0  0  0
  141.5992   71.0515  228.2044 H   0  0  0  0  0  0  0  0  0  0  0  0
  140.9885   72.4347  226.2093 H   0  0  0  0  0  0  0  0  0  0  0  0
  141.6090   81.8919  221.3576 H   0  0  0  0  0  0  0  0  0  0  0  0
  142.6273   82.3709  223.5481 H   0  0  0  0  0  0  0  0  0  0  0  0
  142.9669   80.4984  225.1955 H   0  0  0  0  0  0  0  0  0  0  0  0
  142.2512   78.1935  224.5569 H   0  0  0  0  0  0  0  0  0  0  0  0
  141.2340   77.7406  222.3542 H   0  0  0  0  0  0  0  0  0  0  0  0
  1  2  1  0
  2  3  1  0
  3  4  1  0
  4  5  2  0
  4  6  1  0
  6  7  1  0
  7  8  1  0
  8  9  1  0
  9 10  1  0
  9 11  1  0
  8 12  1  0
 12 13  1  0
 13 14  1  0
 14 15  2  0
 14 16  1  0
 16 17  1  0
 17 18  1  0
 18 19  2  0
 18 20  1  0
 20 21  2  0
 21 22  1  0
 22 23  2  0
 23 24  1  0
 24 25  2  0
 25 26  1  0
 25 27  1  0
 27 28  2  0
 28 29  1  0
 29 30  2  0
  2 31  1  0
 31 32  2  0
 32 33  1  0
 33 34  2  0
 34 35  1  0
 35 36  2  0
 13  6  1  0
 30 20  1  0
 36 31  1  0
 29 23  1  0
  1 37  1  0
  1 38  1  0
  1 39  1  0
  2 40  1  1
  3 41  1  0
  6 42  1  6
  7 43  1  0
  7 44  1  0
  8 45  1  1
 10 46  1  0
 10 47  1  0
 10 48  1  0
 11 49  1  0
 11 50  1  0
 11 51  1  0
 12 52  1  0
 12 53  1  0
 16 54  1  0
 16 55  1  0
 17 56  1  0
 21 57  1  0
 22 58  1  0
 24 59  1  0
 27 60  1  0
 28 61  1  0
 32 62  1  0
 33 63  1  0
 34 64  1  0
 35 65  1  0
 36 66  1  0
M  END
>  <smiles>  (73) 
CC(NC(=O)[C@H]1C[C@H](N(C)C)CN1C(=O)CNC(=O)c1ccc2cc(Cl)ccc2n1)c1ccccc1

>  <score_type>  (73) 
oracle

>  <origin>  (73) 
autodockgpu

>  <m_score__min__energy>  (73) 
-9.8900000000000006

>  <m_primary>  (73) 
energy

>  <rmsd>  (73) 
2.8653987163524564

>  <m_score__min__rmsd>  (73) 
2.8653987163524564

>  <meeko>  (73) 
{"free_energy": -8.5, "intermolecular_energy": -10.89, "internal_energy": -3.11, "cluster_size": 21, "cluster_id": 1, "rank_in_cluster": 17}

>  <energy>  (73) 
-8.9

>  <cluster_rmsd>  (73) 
0.66

>  <cluster>  (73) 
2

$$$$

     RDKit          3D

 66 69  0  0  1  0  0  0  0  0999 V2000
  138.1160   77.4030  221.3730 C   0  0  0  0  0  0  0  0  0  0  0  0
  138.8450   77.1400  222.6650 C   0  0  1  0  0  0  0  0  0  0  0  0
  139.5480   75.8710  222.6450 N   0  0  0  0  0  0  0  0  0  0  0  0
  140.3690   75.4390  221.5840 C   0  0  0  0  0  0  0  0  0  0  0  0
  140.5110   76.1980  220.5740 O   0  0  0  0  0  0  0  0  0  0  0  0
  141.0920   74.1490  221.5510 C   0  0  1  0  0  0  0  0  0  0  0  0
  140.0530   73.0460  221.4230 C   0  0  0  0  0  0  0  0  0  0  0  0
  140.1980   72.4760  220.0400 C   0  0  2  0  0  0  0  0  0  0  0  0
  140.6750   71.1140  220.1340 N   0  0  0  0  0  0  0  0  0  0  0  0
  139.7590   70.2490  219.4250 C   0  0  0  0  0  0  0  0  0  0  0  0
  142.0270   70.9620  219.6730 C   0  0  0  0  0  0  0  0  0  0  0  0
  141.1770   73.3690  219.3240 C   0  0  0  0  0  0  0  0  0  0  0  0
  141.9510   73.9790  220.4170 N   0  0  0  0  0  0  0  0  0  0  0  0
  143.3410   74.3460  220.3710 C   0  0  0  0  0  0  0  0  0  0  0  0
  144.2320   73.6580  220.9360 O   0  0  0  0  0  0  0  0  0  0  0  0
  143.7210   75.5760  219.6310 C   0  0  0  0  0  0  0  0  0  0  0  0
  142.8800   76.6810  220.0660 N   0  0  0  0  0  0  0  0  0  0  0  0
  142.5060   77.6250  219.0700 C   0  0  0  0  0  0  0  0  0  0  0  0
  142.9420   77.4090  217.9040 O   0  0  0  0  0  0  0  0  0  0  0  0
  141.6670   78.7760  219.3780 C   0  0  0  0  0  0  0  0  0  0  0  0
  140.3700   78.7800  218.9100 C   0  0  0  0  0  0  0  0  0  0  0  0
  139.5160   79.8360  219.1580 C   0  0  0  0  0  0  0  0  0  0  0  0
  140.0220   80.8830  219.8970 C   0  0  0  0  0  0  0  0  0  0  0  0
  139.1910   81.9560  220.1650 C   0  0  0  0  0  0  0  0  0  0  0  0
  139.6720   83.0300  220.9080 C   0  0  0  0  0  0  0  0  0  0  0  0
  138.5760   84.3480  221.2100 Cl  0  0  0  0  0  0  0  0  0  0  0  0
  140.9770   83.0300  221.3810 C   0  0  0  0  0  0  0  0  0  0  0  0
  141.8200   81.9470  221.1130 C   0  0  0  0  0  0  0  0  0  0  0  0
  141.3370   80.8840  220.3750 C   0  0  0  0  0  0  0  0  0  0  0  0
  142.1250   79.8240  220.0990 N   0  0  0  0  0  0  0  0  0  0  0  0
  139.7110   78.2790  223.0670 C   0  0  0  0  0  0  0  0  0  0  0  0
  141.0860   78.1340  223.0890 C   0  0  0  0  0  0  0  0  0  0  0  0
  141.9430   79.1550  223.4520 C   0  0  0  0  0  0  0  0  0  0  0  0
  141.4130   80.3940  223.8170 C   0  0  0  0  0  0  0  0  0  0  0  0
  140.0260   80.5500  223.7970 C   0  0  0  0  0  0  0  0  0  0  0  0
  139.1860   79.5150  223.4300 C   0  0  0  0  0  0  0  0  0  0  0  0
  137.1020   77.7688  221.5920 H   0  0  0  0  0  0  0  0  0  0  0  0
  138.6617   78.1609  220.7918 H   0  0  0  0  0  0  0  0  0  0  0  0
  138.0521   76.4713  220.7918 H   0  0  0  0  0  0  0  0  0  0  0  0
  138.0811   77.0532  223.4518 H   0  0  0  0  0  0  0  0  0  0  0  0
  139.4220   75.2550  223.4760 H   0  0  0  0  0  0  0  0  0  0  0  0
  141.7046   74.1189  222.4641 H   0  0  0  0  0  0  0  0  0  0  0  0
  140.2342   72.2650  222.1761 H   0  0  0  0  0  0  0  0  0  0  0  0
  139.0379   73.4372  221.5858 H   0  0  0  0  0  0  0  0  0  0  0  0
  139.2457   72.4433  219.4903 H   0  0  0  0  0  0  0  0  0  0  0  0
  139.1569   69.6804  220.1490 H   0  0  0  0  0  0  0  0  0  0  0  0
  139.0949   70.8572  218.7933 H   0  0  0  0  0  0  0  0  0  0  0  0
  140.3282   69.5512  218.7933 H   0  0  0  0  0  0  0  0  0  0  0  0
  142.7028   70.8860  220.5376 H   0  0  0  0  0  0  0  0  0  0  0  0
  142.1064   70.0493  219.0642 H   0  0  0  0  0  0  0  0  0  0  0  0
  142.3071   71.8343  219.0642 H   0  0  0  0  0  0  0  0  0  0  0  0
  141.8296   72.7836  218.6596 H   0  0  0  0  0  0  0  0  0  0  0  0
  140.6854   74.1136  218.6806 H   0  0  0  0  0  0  0  0  0  0  0  0
  144.7753   75.8153  219.8338 H   0  0  0  0  0  0  0  0  0  0  0  0
  143.5840   75.4127  218.5519 H   0  0  0  0  0  0  0  0  0  0  0  0
  142.5550   76.7970  221.0540 H   0  0  0  0  0  0  0  0  0  0  0  0
  140.0073   77.9217  218.3254 H   0  0  0  0  0  0  0  0  0  0  0  0
  138.4817   79.8413  218.7837 H   0  0  0  0  0  0  0  0  0  0  0  0
  138.1558   81.9603  219.7929 H   0  0  0  0  0  0  0  0  0  0  0  0
  141.3486   83.8832  221.9675 H   0  0  0  0  0  0  0  0  0  0  0  0
  142.8551   81.9417  221.4853 H   0  0  0  0  0  0  0  0  0  0  0  0
  141.5166   77.1625  222.8048 H   0  0  0  0  0  0  0  0  0  0  0  0
  143.0311   78.9935  223.4534 H   0  0  0  0  0  0  0  0  0  0  0  0
  142.0707   81.2248  224.1124 H   0  0  0  0  0  0  0  0  0  0  0  0
  139.5908   81.5198  224.0801 H   0  0  0  0  0  0  0  0  0  0  0  0
  138.0969   79.6697  223.4250 H   0  0  0  0  0  0  0  0  0  0  0  0
  1  2  1  0
  2  3  1  0
  3  4  1  0
  4  5  2  0
  4  6  1  0
  6  7  1  0
  7  8  1  0
  8  9  1  0
  9 10  1  0
  9 11  1  0
  8 12  1  0
 12 13  1  0
 13 14  1  0
 14 15  2  0
 14 16  1  0
 16 17  1  0
 17 18  1  0
 18 19  2  0
 18 20  1  0
 20 21  2  0
 21 22  1  0
 22 23  2  0
 23 24  1  0
 24 25  2  0
 25 26  1  0
 25 27  1  0
 27 28  2  0
 28 29  1  0
 29 30  2  0
  2 31  1  0
 31 32  2  0
 32 33  1  0
 33 34  2  0
 34 35  1  0
 35 36  2  0
 13  6  1  0
 30 20  1  0
 36 31  1  0
 29 23  1  0
  1 37  1  0
  1 38  1  0
  1 39  1  0
  2 40  1  1
  3 41  1  0
  6 42  1  1
  7 43  1  0
  7 44  1  0
  8 45  1  6
 10 46  1  0
 10 47  1  0
 10 48  1  0
 11 49  1  0
 11 50  1  0
 11 51  1  0
 12 52  1  0
 12 53  1  0
 16 54  1  0
 16 55  1  0
 17 56  1  0
 21 57  1  0
 22 58  1  0
 24 59  1  0
 27 60  1  0
 28 61  1  0
 32 62  1  0
 33 63  1  0
 34 64  1  0
 35 65  1  0
 36 66  1  0
M  END
>  <smiles>  (74) 
CC(NC(=O)[C@H]1C[C@H](N(C)C)CN1C(=O)CNC(=O)c1ccc2cc(Cl)ccc2n1)c1ccccc1

>  <score_type>  (74) 
oracle

>  <origin>  (74) 
autodockgpu

>  <m_score__min__energy>  (74) 
-9.8900000000000006

>  <m_primary>  (74) 
energy

>  <rmsd>  (74) 
7.872012682022147

>  <m_score__min__rmsd>  (74) 
7.872012682022147

>  <meeko>  (74) 
{"free_energy": -6.31, "intermolecular_energy": -8.7, "internal_energy": -4.39, "cluster_size": 7, "cluster_id": 8, "rank_in_cluster": 6}

>  <energy>  (74) 
-8.86

>  <cluster_rmsd>  (74) 
0.87

>  <cluster>  (74) 
2

$$$$

     RDKit          3D

 66 69  0  0  1  0  0  0  0  0999 V2000
  141.4180   80.4570  219.2330 C   0  0  0  0  0  0  0  0  0  0  0  0
  140.6580   79.8260  220.3720 C   0  0  1  0  0  0  0  0  0  0  0  0
  140.4030   78.4170  220.1410 N   0  0  0  0  0  0  0  0  0  0  0  0
  141.3730   77.5030  219.6810 C   0  0  0  0  0  0  0  0  0  0  0  0
  142.5480   77.9270  219.4470 O   0  0  0  0  0  0  0  0  0  0  0  0
  141.1260   76.0640  219.4430 C   0  0  1  0  0  0  0  0  0  0  0  0
  142.4780   75.3730  219.3740 C   0  0  0  0  0  0  0  0  0  0  0  0
  142.5980   74.5340  220.6140 C   0  0  2  0  0  0  0  0  0  0  0  0
  142.5990   73.1350  220.2440 N   0  0  0  0  0  0  0  0  0  0  0  0
  143.9620   72.7210  219.9940 C   0  0  0  0  0  0  0  0  0  0  0  0
  141.9500   72.2990  221.2150 C   0  0  0  0  0  0  0  0  0  0  0  0
  141.4100   74.8890  221.4710 C   0  0  0  0  0  0  0  0  0  0  0  0
  140.4270   75.4000  220.5040 N   0  0  0  0  0  0  0  0  0  0  0  0
  138.9980   75.2610  220.5920 C   0  0  0  0  0  0  0  0  0  0  0  0
  138.2350   76.2600  220.6770 O   0  0  0  0  0  0  0  0  0  0  0  0
  138.4200   73.8940  220.5810 C   0  0  0  0  0  0  0  0  0  0  0  0
  138.7280   73.2300  221.8390 N   0  0  0  0  0  0  0  0  0  0  0  0
  138.9400   71.8250  221.7800 C   0  0  0  0  0  0  0  0  0  0  0  0
  138.8410   71.2920  220.6390 O   0  0  0  0  0  0  0  0  0  0  0  0
  139.2550   71.0440  222.9700 C   0  0  0  0  0  0  0  0  0  0  0  0
  138.8940   69.7130  222.9890 C   0  0  0  0  0  0  0  0  0  0  0  0
  139.1560   68.9100  224.0810 C   0  0  0  0  0  0  0  0  0  0  0  0
  139.7960   69.5020  225.1480 C   0  0  0  0  0  0  0  0  0  0  0  0
  140.0740   68.7240  226.2570 C   0  0  0  0  0  0  0  0  0  0  0  0
  140.7200   69.2910  227.3510 C   0  0  0  0  0  0  0  0  0  0  0  0
  141.0410   68.2580  228.7150 Cl  0  0  0  0  0  0  0  0  0  0  0  0
  141.0850   70.6310  227.3360 C   0  0  0  0  0  0  0  0  0  0  0  0
  140.8060   71.4200  226.2160 C   0  0  0  0  0  0  0  0  0  0  0  0
  140.1650   70.8510  225.1330 C   0  0  0  0  0  0  0  0  0  0  0  0
  139.8820   71.5860  224.0370 N   0  0  0  0  0  0  0  0  0  0  0  0
  141.2900   80.0970  221.6890 C   0  0  0  0  0  0  0  0  0  0  0  0
  141.6140   79.0500  222.5330 C   0  0  0  0  0  0  0  0  0  0  0  0
  142.2030   79.2370  223.7690 C   0  0  0  0  0  0  0  0  0  0  0  0
  142.4890   80.5340  224.2000 C   0  0  0  0  0  0  0  0  0  0  0  0
  142.1660   81.5970  223.3560 C   0  0  0  0  0  0  0  0  0  0  0  0
  141.5760   81.3870  222.1210 C   0  0  0  0  0  0  0  0  0  0  0  0
  142.2056   81.1109  219.6355 H   0  0  0  0  0  0  0  0  0  0  0  0
  141.8752   79.6692  218.6163 H   0  0  0  0  0  0  0  0  0  0  0  0
  140.7277   81.0512  218.6163 H   0  0  0  0  0  0  0  0  0  0  0  0
  139.6714   80.3110  220.4090 H   0  0  0  0  0  0  0  0  0  0  0  0
  139.4350   78.0810  220.3340 H   0  0  0  0  0  0  0  0  0  0  0  0
  140.5178   76.0053  218.5283 H   0  0  0  0  0  0  0  0  0  0  0  0
  142.5330   74.7363  218.4787 H   0  0  0  0  0  0  0  0  0  0  0  0
  143.2948   76.1072  219.3126 H   0  0  0  0  0  0  0  0  0  0  0  0
  143.5314   74.7198  221.1657 H   0  0  0  0  0  0  0  0  0  0  0  0
  144.4791   72.5639  220.9521 H   0  0  0  0  0  0  0  0  0  0  0  0
  143.9608   71.7827  219.4199 H   0  0  0  0  0  0  0  0  0  0  0  0
  144.4828   73.5015  219.4199 H   0  0  0  0  0  0  0  0  0  0  0  0
  142.2143   72.6394  222.2271 H   0  0  0  0  0  0  0  0  0  0  0  0
  140.8599   72.3594  221.0808 H   0  0  0  0  0  0  0  0  0  0  0  0
  142.2788   71.2579  221.0808 H   0  0  0  0  0  0  0  0  0  0  0  0
  141.0229   74.0014  221.9929 H   0  0  0  0  0  0  0  0  0  0  0  0
  141.6533   75.6172  222.2587 H   0  0  0  0  0  0  0  0  0  0  0  0
  137.3289   73.9577  220.4569 H   0  0  0  0  0  0  0  0  0  0  0  0
  138.8495   73.3196  219.7470 H   0  0  0  0  0  0  0  0  0  0  0  0
  138.7950   73.7370  222.7520 H   0  0  0  0  0  0  0  0  0  0  0  0
  138.3857   69.2814  222.1141 H   0  0  0  0  0  0  0  0  0  0  0  0
  138.8677   67.8486  224.0984 H   0  0  0  0  0  0  0  0  0  0  0  0
  139.7859   67.6625  226.2741 H   0  0  0  0  0  0  0  0  0  0  0  0
  141.5939   71.0718  228.2059 H   0  0  0  0  0  0  0  0  0  0  0  0
  141.0937   72.4816  226.1976 H   0  0  0  0  0  0  0  0  0  0  0  0
  141.3930   78.0233  222.2058 H   0  0  0  0  0  0  0  0  0  0  0  0
  142.4439   78.3735  224.4064 H   0  0  0  0  0  0  0  0  0  0  0  0
  142.9567   80.7130  225.1794 H   0  0  0  0  0  0  0  0  0  0  0  0
  142.3850   82.6254  223.6791 H   0  0  0  0  0  0  0  0  0  0  0  0
  141.3323   82.2457  221.4782 H   0  0  0  0  0  0  0  0  0  0  0  0
  1  2  1  0
  2  3  1  0
  3  4  1  0
  4  5  2  0
  4  6  1  0
  6  7  1  0
  7  8  1  0
  8  9  1  0
  9 10  1  0
  9 11  1  0
  8 12  1  0
 12 13  1  0
 13 14  1  0
 14 15  2  0
 14 16  1  0
 16 17  1  0
 17 18  1  0
 18 19  2  0
 18 20  1  0
 20 21  2  0
 21 22  1  0
 22 23  2  0
 23 24  1  0
 24 25  2  0
 25 26  1  0
 25 27  1  0
 27 28  2  0
 28 29  1  0
 29 30  2  0
  2 31  1  0
 31 32  2  0
 32 33  1  0
 33 34  2  0
 34 35  1  0
 35 36  2  0
 13  6  1  0
 30 20  1  0
 36 31  1  0
 29 23  1  0
  1 37  1  0
  1 38  1  0
  1 39  1  0
  2 40  1  1
  3 41  1  0
  6 42  1  6
  7 43  1  0
  7 44  1  0
  8 45  1  1
 10 46  1  0
 10 47  1  0
 10 48  1  0
 11 49  1  0
 11 50  1  0
 11 51  1  0
 12 52  1  0
 12 53  1  0
 16 54  1  0
 16 55  1  0
 17 56  1  0
 21 57  1  0
 22 58  1  0
 24 59  1  0
 27 60  1  0
 28 61  1  0
 32 62  1  0
 33 63  1  0
 34 64  1  0
 35 65  1  0
 36 66  1  0
M  END
>  <smiles>  (75) 
CC(NC(=O)[C@H]1C[C@H](N(C)C)CN1C(=O)CNC(=O)c1ccc2cc(Cl)ccc2n1)c1ccccc1

>  <score_type>  (75) 
oracle

>  <origin>  (75) 
autodockgpu

>  <m_score__min__energy>  (75) 
-9.8900000000000006

>  <m_primary>  (75) 
energy

>  <rmsd>  (75) 
2.901913792088309

>  <m_score__min__rmsd>  (75) 
2.901913792088309

>  <meeko>  (75) 
{"free_energy": -8.65, "intermolecular_energy": -11.03, "internal_energy": -3.01, "cluster_size": 21, "cluster_id": 1, "rank_in_cluster": 16}

>  <energy>  (75) 
-8.63

>  <cluster_rmsd>  (75) 
0.48

>  <cluster>  (75) 
2

$$$$

     RDKit          3D

 66 69  0  0  1  0  0  0  0  0999 V2000
  139.2390   70.1130  222.7950 C   0  0  0  0  0  0  0  0  0  0  0  0
  138.9510   71.1480  223.8520 C   0  0  1  0  0  0  0  0  0  0  0  0
  137.5530   71.5350  223.8680 N   0  0  0  0  0  0  0  0  0  0  0  0
  136.4820   70.6260  223.9860 C   0  0  0  0  0  0  0  0  0  0  0  0
  136.7430   69.3860  224.0850 O   0  0  0  0  0  0  0  0  0  0  0  0
  135.0540   71.0080  224.0050 C   0  0  1  0  0  0  0  0  0  0  0  0
  134.2460   69.7450  224.2610 C   0  0  0  0  0  0  0  0  0  0  0  0
  133.6790   69.8700  225.6470 C   0  0  2  0  0  0  0  0  0  0  0  0
  132.2400   69.9870  225.5640 N   0  0  0  0  0  0  0  0  0  0  0  0
  131.6540   68.6800  225.7660 C   0  0  0  0  0  0  0  0  0  0  0  0
  131.7040   70.9650  226.4700 C   0  0  0  0  0  0  0  0  0  0  0  0
  134.3110   71.1000  226.2450 C   0  0  0  0  0  0  0  0  0  0  0  0
  134.6920   71.8980  225.0690 N   0  0  0  0  0  0  0  0  0  0  0  0
  134.7030   73.3330  224.9840 C   0  0  0  0  0  0  0  0  0  0  0  0
  134.6520   74.0630  226.0100 O   0  0  0  0  0  0  0  0  0  0  0  0
  134.7770   73.9600  223.6410 C   0  0  0  0  0  0  0  0  0  0  0  0
  135.8330   74.9610  223.6320 N   0  0  0  0  0  0  0  0  0  0  0  0
  136.9060   74.7450  222.7240 C   0  0  0  0  0  0  0  0  0  0  0  0
  136.8350   73.7030  222.0130 O   0  0  0  0  0  0  0  0  0  0  0  0
  138.0250   75.6730  222.6190 C   0  0  0  0  0  0  0  0  0  0  0  0
  139.1910   75.2240  222.0370 C   0  0  0  0  0  0  0  0  0  0  0  0
  140.2940   76.0440  221.9050 C   0  0  0  0  0  0  0  0  0  0  0  0
  140.1720   77.3300  222.3810 C   0  0  0  0  0  0  0  0  0  0  0  0
  141.2590   78.1770  222.2630 C   0  0  0  0  0  0  0  0  0  0  0  0
  141.1680   79.4840  222.7340 C   0  0  0  0  0  0  0  0  0  0  0  0
  142.5710   80.4980  222.5550 Cl  0  0  0  0  0  0  0  0  0  0  0  0
  139.9960   79.9400  223.3220 C   0  0  0  0  0  0  0  0  0  0  0  0
  138.8950   79.0870  223.4430 C   0  0  0  0  0  0  0  0  0  0  0  0
  138.9910   77.7920  222.9730 C   0  0  0  0  0  0  0  0  0  0  0  0
  137.9460   76.9440  223.0750 N   0  0  0  0  0  0  0  0  0  0  0  0
  139.4600   70.7450  225.1880 C   0  0  0  0  0  0  0  0  0  0  0  0
  139.0770   69.5380  225.7440 C   0  0  0  0  0  0  0  0  0  0  0  0
  139.5160   69.1080  226.9820 C   0  0  0  0  0  0  0  0  0  0  0  0
  140.3850   69.9170  227.7160 C   0  0  0  0  0  0  0  0  0  0  0  0
  140.7790   71.1360  227.1640 C   0  0  0  0  0  0  0  0  0  0  0  0
  140.3270   71.5480  225.9220 C   0  0  0  0  0  0  0  0  0  0  0  0
  139.5040   69.1605  223.2771 H   0  0  0  0  0  0  0  0  0  0  0  0
  138.3463   69.9708  222.1682 H   0  0  0  0  0  0  0  0  0  0  0  0
  140.0768   70.4523  222.1682 H   0  0  0  0  0  0  0  0  0  0  0  0
  139.5137   72.0527  223.5783 H   0  0  0  0  0  0  0  0  0  0  0  0
  137.3510   72.5540  223.7840 H   0  0  0  0  0  0  0  0  0  0  0  0
  134.8591   71.5085  223.0450 H   0  0  0  0  0  0  0  0  0  0  0  0
  133.4331   69.6591  223.5250 H   0  0  0  0  0  0  0  0  0  0  0  0
  134.8749   68.8471  224.1698 H   0  0  0  0  0  0  0  0  0  0  0  0
  133.8927   68.9926  226.2751 H   0  0  0  0  0  0  0  0  0  0  0  0
  131.5647   68.4809  226.8441 H   0  0  0  0  0  0  0  0  0  0  0  0
  130.6563   68.6501  225.3037 H   0  0  0  0  0  0  0  0  0  0  0  0
  132.2954   67.9152  225.3037 H   0  0  0  0  0  0  0  0  0  0  0  0
  131.8815   70.6411  227.5061 H   0  0  0  0  0  0  0  0  0  0  0  0
  132.1977   71.9330  226.2987 H   0  0  0  0  0  0  0  0  0  0  0  0
  130.6225   71.0696  226.2987 H   0  0  0  0  0  0  0  0  0  0  0  0
  133.5917   71.6453  226.8737 H   0  0  0  0  0  0  0  0  0  0  0  0
  135.1642   70.8678  226.8993 H   0  0  0  0  0  0  0  0  0  0  0  0
  134.9959   73.1889  222.8876 H   0  0  0  0  0  0  0  0  0  0  0  0
  133.8150   74.4389  223.4058 H   0  0  0  0  0  0  0  0  0  0  0  0
  135.8270   75.8050  224.2520 H   0  0  0  0  0  0  0  0  0  0  0  0
  139.2440   74.1886  221.6693 H   0  0  0  0  0  0  0  0  0  0  0  0
  141.2256   75.6868  221.4417 H   0  0  0  0  0  0  0  0  0  0  0  0
  142.1905   77.8199  221.7995 H   0  0  0  0  0  0  0  0  0  0  0  0
  139.9336   80.9736  223.6931 H   0  0  0  0  0  0  0  0  0  0  0  0
  137.9634   79.4431  223.9070 H   0  0  0  0  0  0  0  0  0  0  0  0
  138.3924   68.8913  225.1756 H   0  0  0  0  0  0  0  0  0  0  0  0
  139.1844   68.1394  227.3842 H   0  0  0  0  0  0  0  0  0  0  0  0
  140.7498   69.6013  228.7046 H   0  0  0  0  0  0  0  0  0  0  0  0
  141.4647   71.7849  227.7286 H   0  0  0  0  0  0  0  0  0  0  0  0
  140.6551   72.5152  225.5135 H   0  0  0  0  0  0  0  0  0  0  0  0
  1  2  1  0
  2  3  1  0
  3  4  1  0
  4  5  2  0
  4  6  1  0
  6  7  1  0
  7  8  1  0
  8  9  1  0
  9 10  1  0
  9 11  1  0
  8 12  1  0
 12 13  1  0
 13 14  1  0
 14 15  2  0
 14 16  1  0
 16 17  1  0
 17 18  1  0
 18 19  2  0
 18 20  1  0
 20 21  2  0
 21 22  1  0
 22 23  2  0
 23 24  1  0
 24 25  2  0
 25 26  1  0
 25 27  1  0
 27 28  2  0
 28 29  1  0
 29 30  2  0
  2 31  1  0
 31 32  2  0
 32 33  1  0
 33 34  2  0
 34 35  1  0
 35 36  2  0
 13  6  1  0
 30 20  1  0
 36 31  1  0
 29 23  1  0
  1 37  1  0
  1 38  1  0
  1 39  1  0
  2 40  1  6
  3 41  1  0
  6 42  1  6
  7 43  1  0
  7 44  1  0
  8 45  1  1
 10 46  1  0
 10 47  1  0
 10 48  1  0
 11 49  1  0
 11 50  1  0
 11 51  1  0
 12 52  1  0
 12 53  1  0
 16 54  1  0
 16 55  1  0
 17 56  1  0
 21 57  1  0
 22 58  1  0
 24 59  1  0
 27 60  1  0
 28 61  1  0
 32 62  1  0
 33 63  1  0
 34 64  1  0
 35 65  1  0
 36 66  1  0
M  END
>  <smiles>  (76) 
CC(NC(=O)[C@H]1C[C@H](N(C)C)CN1C(=O)CNC(=O)c1ccc2cc(Cl)ccc2n1)c1ccccc1

>  <score_type>  (76) 
oracle

>  <origin>  (76) 
autodockgpu

>  <m_score__min__energy>  (76) 
-9.8900000000000006

>  <m_primary>  (76) 
energy

>  <rmsd>  (76) 
9.77521297883225

>  <m_score__min__rmsd>  (76) 
9.77521297883225

>  <meeko>  (76) 
{"free_energy": -8.43, "intermolecular_energy": -10.82, "internal_energy": -3.25, "cluster_size": 5, "cluster_id": 6, "rank_in_cluster": 2}

>  <energy>  (76) 
-8.63

>  <cluster_rmsd>  (76) 
1.02

>  <cluster>  (76) 
2

$$$$

     RDKit          3D

 66 69  0  0  1  0  0  0  0  0999 V2000
  142.1850   80.2620  218.6820 C   0  0  0  0  0  0  0  0  0  0  0  0
  141.6980   79.2740  219.7110 C   0  0  1  0  0  0  0  0  0  0  0  0
  142.2880   77.9620  219.5270 N   0  0  0  0  0  0  0  0  0  0  0  0
  141.6340   76.8810  218.9030 C   0  0  0  0  0  0  0  0  0  0  0  0
  140.4510   77.0520  218.4700 O   0  0  0  0  0  0  0  0  0  0  0  0
  142.2250   75.5390  218.7080 C   0  0  1  0  0  0  0  0  0  0  0  0
  143.7030   75.6360  219.0500 C   0  0  0  0  0  0  0  0  0  0  0  0
  143.9000   74.8780  220.3320 C   0  0  2  0  0  0  0  0  0  0  0  0
  144.7090   73.7070  220.0740 N   0  0  0  0  0  0  0  0  0  0  0  0
  145.9350   73.8110  220.8340 C   0  0  0  0  0  0  0  0  0  0  0  0
  144.0150   72.4770  220.3340 C   0  0  0  0  0  0  0  0  0  0  0  0
  142.5200   74.5140  220.8150 C   0  0  0  0  0  0  0  0  0  0  0  0
  141.7100   74.5310  219.5870 N   0  0  0  0  0  0  0  0  0  0  0  0
  140.5850   73.6810  219.3000 C   0  0  0  0  0  0  0  0  0  0  0  0
  140.6470   72.7580  218.4440 O   0  0  0  0  0  0  0  0  0  0  0  0
  139.3200   73.9100  220.0420 C   0  0  0  0  0  0  0  0  0  0  0  0
  139.0810   75.3410  220.1600 N   0  0  0  0  0  0  0  0  0  0  0  0
  139.2380   75.9060  221.4560 C   0  0  0  0  0  0  0  0  0  0  0  0
  139.5690   75.1090  222.3770 O   0  0  0  0  0  0  0  0  0  0  0  0
  139.0270   77.3270  221.7050 C   0  0  0  0  0  0  0  0  0  0  0  0
  139.0530   77.7690  223.0120 C   0  0  0  0  0  0  0  0  0  0  0  0
  138.8590   79.0990  223.3270 C   0  0  0  0  0  0  0  0  0  0  0  0
  138.6400   79.9610  222.2750 C   0  0  0  0  0  0  0  0  0  0  0  0
  138.4440   81.3010  222.5580 C   0  0  0  0  0  0  0  0  0  0  0  0
  138.2200   82.1980  221.5170 C   0  0  0  0  0  0  0  0  0  0  0  0
  137.9800   83.8690  221.9410 Cl  0  0  0  0  0  0  0  0  0  0  0  0
  138.1930   81.7570  220.2010 C   0  0  0  0  0  0  0  0  0  0  0  0
  138.3920   80.4040  219.9120 C   0  0  0  0  0  0  0  0  0  0  0  0
  138.6130   79.5180  220.9480 C   0  0  0  0  0  0  0  0  0  0  0  0
  138.8090   78.2060  220.7020 N   0  0  0  0  0  0  0  0  0  0  0  0
  141.8400   79.7890  221.0980 C   0  0  0  0  0  0  0  0  0  0  0  0
  142.1210   78.9200  222.1370 C   0  0  0  0  0  0  0  0  0  0  0  0
  142.2650   79.3370  223.4460 C   0  0  0  0  0  0  0  0  0  0  0  0
  142.1240   80.6920  223.7500 C   0  0  0  0  0  0  0  0  0  0  0  0
  141.8410   81.5770  222.7090 C   0  0  0  0  0  0  0  0  0  0  0  0
  141.7000   81.1380  221.4040 C   0  0  0  0  0  0  0  0  0  0  0  0
  142.6165   81.1373  219.1896 H   0  0  0  0  0  0  0  0  0  0  0  0
  142.9526   79.7877  218.0528 H   0  0  0  0  0  0  0  0  0  0  0  0
  141.3414   80.5819  218.0528 H   0  0  0  0  0  0  0  0  0  0  0  0
  140.6175   79.1467  219.5491 H   0  0  0  0  0  0  0  0  0  0  0  0
  143.2580   77.8320  219.8880 H   0  0  0  0  0  0  0  0  0  0  0  0
  141.9968   75.2528  217.6707 H   0  0  0  0  0  0  0  0  0  0  0  0
  144.3079   75.1880  218.2479 H   0  0  0  0  0  0  0  0  0  0  0  0
  144.0161   76.6849  219.1584 H   0  0  0  0  0  0  0  0  0  0  0  0
  144.4255   75.4669  221.0982 H   0  0  0  0  0  0  0  0  0  0  0  0
  145.7028   73.7913  221.9090 H   0  0  0  0  0  0  0  0  0  0  0  0
  146.5933   72.9655  220.5855 H   0  0  0  0  0  0  0  0  0  0  0  0
  146.4415   74.7553  220.5855 H   0  0  0  0  0  0  0  0  0  0  0  0
  143.9301   72.3265  221.4203 H   0  0  0  0  0  0  0  0  0  0  0  0
  143.0094   72.5225  219.8904 H   0  0  0  0  0  0  0  0  0  0  0  0
  144.5739   71.6398  219.8904 H   0  0  0  0  0  0  0  0  0  0  0  0
  142.5154   73.5149  221.2751 H   0  0  0  0  0  0  0  0  0  0  0  0
  142.1417   75.2003  221.5870 H   0  0  0  0  0  0  0  0  0  0  0  0
  138.4859   73.4422  219.4985 H   0  0  0  0  0  0  0  0  0  0  0  0
  139.3972   73.4664  221.0456 H   0  0  0  0  0  0  0  0  0  0  0  0
  138.8080   75.9440  219.3490 H   0  0  0  0  0  0  0  0  0  0  0  0
  139.2323   77.0454  223.8209 H   0  0  0  0  0  0  0  0  0  0  0  0
  138.8784   79.4535  224.3681 H   0  0  0  0  0  0  0  0  0  0  0  0
  138.4650   81.6555  223.5991 H   0  0  0  0  0  0  0  0  0  0  0  0
  138.0148   82.4729  219.3850 H   0  0  0  0  0  0  0  0  0  0  0  0
  138.3728   80.0489  218.8711 H   0  0  0  0  0  0  0  0  0  0  0  0
  142.2348   77.8495  221.9108 H   0  0  0  0  0  0  0  0  0  0  0  0
  142.4883   78.6093  224.2401 H   0  0  0  0  0  0  0  0  0  0  0  0
  142.2331   81.0528  224.7834 H   0  0  0  0  0  0  0  0  0  0  0  0
  141.7273   82.6484  222.9306 H   0  0  0  0  0  0  0  0  0  0  0  0
  141.4760   81.8600  220.6049 H   0  0  0  0  0  0  0  0  0  0  0  0
  1  2  1  0
  2  3  1  0
  3  4  1  0
  4  5  2  0
  4  6  1  0
  6  7  1  0
  7  8  1  0
  8  9  1  0
  9 10  1  0
  9 11  1  0
  8 12  1  0
 12 13  1  0
 13 14  1  0
 14 15  2  0
 14 16  1  0
 16 17  1  0
 17 18  1  0
 18 19  2  0
 18 20  1  0
 20 21  2  0
 21 22  1  0
 22 23  2  0
 23 24  1  0
 24 25  2  0
 25 26  1  0
 25 27  1  0
 27 28  2  0
 28 29  1  0
 29 30  2  0
  2 31  1  0
 31 32  2  0
 32 33  1  0
 33 34  2  0
 34 35  1  0
 35 36  2  0
 13  6  1  0
 30 20  1  0
 36 31  1  0
 29 23  1  0
  1 37  1  0
  1 38  1  0
  1 39  1  0
  2 40  1  6
  3 41  1  0
  6 42  1  6
  7 43  1  0
  7 44  1  0
  8 45  1  1
 10 46  1  0
 10 47  1  0
 10 48  1  0
 11 49  1  0
 11 50  1  0
 11 51  1  0
 12 52  1  0
 12 53  1  0
 16 54  1  0
 16 55  1  0
 17 56  1  0
 21 57  1  0
 22 58  1  0
 24 59  1  0
 27 60  1  0
 28 61  1  0
 32 62  1  0
 33 63  1  0
 34 64  1  0
 35 65  1  0
 36 66  1  0
M  END
>  <smiles>  (77) 
CC(NC(=O)[C@H]1C[C@H](N(C)C)CN1C(=O)CNC(=O)c1ccc2cc(Cl)ccc2n1)c1ccccc1

>  <score_type>  (77) 
oracle

>  <origin>  (77) 
autodockgpu

>  <m_score__min__energy>  (77) 
-9.8900000000000006

>  <m_primary>  (77) 
energy

>  <rmsd>  (77) 
6.93437205615327

>  <m_score__min__rmsd>  (77) 
6.93437205615327

>  <meeko>  (77) 
{"free_energy": -6.55, "intermolecular_energy": -8.94, "internal_energy": -5.19, "cluster_size": 2, "cluster_id": 10, "rank_in_cluster": 2}

>  <energy>  (77) 
-8.54

>  <cluster_rmsd>  (77) 
0.83

>  <cluster>  (77) 
2

$$$$

     RDKit          3D

 66 69  0  0  1  0  0  0  0  0999 V2000
  139.1430   77.3390  221.9430 C   0  0  0  0  0  0  0  0  0  0  0  0
  140.5630   77.2340  222.4380 C   0  0  1  0  0  0  0  0  0  0  0  0
  141.3390   76.2810  221.6680 N   0  0  0  0  0  0  0  0  0  0  0  0
  141.6250   76.4210  220.2950 C   0  0  0  0  0  0  0  0  0  0  0  0
  141.1800   77.4400  219.6800 O   0  0  0  0  0  0  0  0  0  0  0  0
  142.4160   75.4570  219.4990 C   0  0  1  0  0  0  0  0  0  0  0  0
  143.8590   75.5500  219.9700 C   0  0  0  0  0  0  0  0  0  0  0  0
  144.1560   74.2720  220.7020 C   0  0  2  0  0  0  0  0  0  0  0  0
  145.1370   73.5140  219.9570 N   0  0  0  0  0  0  0  0  0  0  0  0
  146.3580   73.4440  220.7300 C   0  0  0  0  0  0  0  0  0  0  0  0
  144.6660   72.2120  219.5730 C   0  0  0  0  0  0  0  0  0  0  0  0
  142.8430   73.5410  220.8100 C   0  0  0  0  0  0  0  0  0  0  0  0
  142.0520   74.0850  219.6960 N   0  0  0  0  0  0  0  0  0  0  0  0
  141.0740   73.3710  218.9210 C   0  0  0  0  0  0  0  0  0  0  0  0
  141.3400   72.8950  217.7840 O   0  0  0  0  0  0  0  0  0  0  0  0
  139.7140   73.1960  219.4890 C   0  0  0  0  0  0  0  0  0  0  0  0
  139.7600   72.2080  220.5570 N   0  0  0  0  0  0  0  0  0  0  0  0
  139.9680   72.7050  221.8730 C   0  0  0  0  0  0  0  0  0  0  0  0
  140.0910   73.9570  221.9850 O   0  0  0  0  0  0  0  0  0  0  0  0
  140.0340   71.8190  223.0290 C   0  0  0  0  0  0  0  0  0  0  0  0
  139.5500   70.5350  222.8930 C   0  0  0  0  0  0  0  0  0  0  0  0
  139.5760   69.6390  223.9430 C   0  0  0  0  0  0  0  0  0  0  0  0
  140.1100   70.0890  225.1300 C   0  0  0  0  0  0  0  0  0  0  0  0
  140.1520   69.2150  226.2010 C   0  0  0  0  0  0  0  0  0  0  0  0
  140.6850   69.6390  227.4150 C   0  0  0  0  0  0  0  0  0  0  0  0
  140.7080   68.4910  228.7230 Cl  0  0  0  0  0  0  0  0  0  0  0  0
  141.1730   70.9310  227.5570 C   0  0  0  0  0  0  0  0  0  0  0  0
  141.1320   71.8170  226.4760 C   0  0  0  0  0  0  0  0  0  0  0  0
  140.6030   71.3910  225.2740 C   0  0  0  0  0  0  0  0  0  0  0  0
  140.5500   72.2220  224.2120 N   0  0  0  0  0  0  0  0  0  0  0  0
  141.2190   78.5620  222.5550 C   0  0  0  0  0  0  0  0  0  0  0  0
  141.9770   78.8670  223.6710 C   0  0  0  0  0  0  0  0  0  0  0  0
  142.6120   80.0830  223.8370 C   0  0  0  0  0  0  0  0  0  0  0  0
  142.4920   81.0580  222.8440 C   0  0  0  0  0  0  0  0  0  0  0  0
  141.7300   80.7580  221.7140 C   0  0  0  0  0  0  0  0  0  0  0  0
  141.1030   79.5340  221.5670 C   0  0  0  0  0  0  0  0  0  0  0  0
  138.4580   77.3896  222.8022 H   0  0  0  0  0  0  0  0  0  0  0  0
  139.0337   78.2477  221.3328 H   0  0  0  0  0  0  0  0  0  0  0  0
  138.9012   76.4563  221.3328 H   0  0  0  0  0  0  0  0  0  0  0  0
  140.5176   76.8325  223.4611 H   0  0  0  0  0  0  0  0  0  0  0  0
  141.6970   75.4480  222.1820 H   0  0  0  0  0  0  0  0  0  0  0  0
  142.2446   75.7188  218.4445 H   0  0  0  0  0  0  0  0  0  0  0  0
  144.5332   75.6588  219.1077 H   0  0  0  0  0  0  0  0  0  0  0  0
  144.0075   76.4236  220.6217 H   0  0  0  0  0  0  0  0  0  0  0  0
  144.5768   74.4428  221.7039 H   0  0  0  0  0  0  0  0  0  0  0  0
  146.1143   73.4580  221.8026 H   0  0  0  0  0  0  0  0  0  0  0  0
  146.8926   72.5137  220.4876 H   0  0  0  0  0  0  0  0  0  0  0  0
  146.9954   74.3071  220.4876 H   0  0  0  0  0  0  0  0  0  0  0  0
  144.4515   71.6191  220.4744 H   0  0  0  0  0  0  0  0  0  0  0  0
  143.7484   72.3156  218.9753 H   0  0  0  0  0  0  0  0  0  0  0  0
  145.4375   71.7045  218.9753 H   0  0  0  0  0  0  0  0  0  0  0  0
  142.9868   72.4563  220.6967 H   0  0  0  0  0  0  0  0  0  0  0  0
  142.3564   73.6782  221.7869 H   0  0  0  0  0  0  0  0  0  0  0  0
  139.3582   74.1557  219.8919 H   0  0  0  0  0  0  0  0  0  0  0  0
  139.0276   72.8534  218.7006 H   0  0  0  0  0  0  0  0  0  0  0  0
  139.6490   71.1810  220.3910 H   0  0  0  0  0  0  0  0  0  0  0  0
  139.1336   70.2173  221.9257 H   0  0  0  0  0  0  0  0  0  0  0  0
  139.1888   68.6149  223.8366 H   0  0  0  0  0  0  0  0  0  0  0  0
  139.7663   68.1904  226.0941 H   0  0  0  0  0  0  0  0  0  0  0  0
  141.5920   71.2577  228.5202 H   0  0  0  0  0  0  0  0  0  0  0  0
  141.5169   72.8420  226.5821 H   0  0  0  0  0  0  0  0  0  0  0  0
  142.0788   78.1083  224.4610 H   0  0  0  0  0  0  0  0  0  0  0  0
  143.2057   80.2811  224.7416 H   0  0  0  0  0  0  0  0  0  0  0  0
  142.9848   82.0357  222.9498 H   0  0  0  0  0  0  0  0  0  0  0  0
  141.6255   81.5132  220.9211 H   0  0  0  0  0  0  0  0  0  0  0  0
  140.5095   79.3282  220.6640 H   0  0  0  0  0  0  0  0  0  0  0  0
  1  2  1  0
  2  3  1  0
  3  4  1  0
  4  5  2  0
  4  6  1  0
  6  7  1  0
  7  8  1  0
  8  9  1  0
  9 10  1  0
  9 11  1  0
  8 12  1  0
 12 13  1  0
 13 14  1  0
 14 15  2  0
 14 16  1  0
 16 17  1  0
 17 18  1  0
 18 19  2  0
 18 20  1  0
 20 21  2  0
 21 22  1  0
 22 23  2  0
 23 24  1  0
 24 25  2  0
 25 26  1  0
 25 27  1  0
 27 28  2  0
 28 29  1  0
 29 30  2  0
  2 31  1  0
 31 32  2  0
 32 33  1  0
 33 34  2  0
 34 35  1  0
 35 36  2  0
 13  6  1  0
 30 20  1  0
 36 31  1  0
 29 23  1  0
  1 37  1  0
  1 38  1  0
  1 39  1  0
  2 40  1  1
  3 41  1  0
  6 42  1  6
  7 43  1  0
  7 44  1  0
  8 45  1  1
 10 46  1  0
 10 47  1  0
 10 48  1  0
 11 49  1  0
 11 50  1  0
 11 51  1  0
 12 52  1  0
 12 53  1  0
 16 54  1  0
 16 55  1  0
 17 56  1  0
 21 57  1  0
 22 58  1  0
 24 59  1  0
 27 60  1  0
 28 61  1  0
 32 62  1  0
 33 63  1  0
 34 64  1  0
 35 65  1  0
 36 66  1  0
M  END
>  <smiles>  (78) 
CC(NC(=O)[C@H]1C[C@H](N(C)C)CN1C(=O)CNC(=O)c1ccc2cc(Cl)ccc2n1)c1ccccc1

>  <score_type>  (78) 
oracle

>  <origin>  (78) 
autodockgpu

>  <m_score__min__energy>  (78) 
-9.8900000000000006

>  <m_primary>  (78) 
energy

>  <rmsd>  (78) 
3.3851121625440967

>  <m_score__min__rmsd>  (78) 
3.3851121625440967

>  <meeko>  (78) 
{"free_energy": -9.89, "intermolecular_energy": -12.28, "internal_energy": -2.98, "cluster_size": 21, "cluster_id": 1, "rank_in_cluster": 1}

>  <energy>  (78) 
-8.89

>  <cluster_rmsd>  (78) 
0.0

>  <cluster>  (78) 
3

$$$$

     RDKit          3D

 66 69  0  0  1  0  0  0  0  0999 V2000
  142.2110   79.5790  219.0250 C   0  0  0  0  0  0  0  0  0  0  0  0
  141.5580   78.7550  220.1050 C   0  0  1  0  0  0  0  0  0  0  0  0
  141.9630   77.3640  220.0480 N   0  0  0  0  0  0  0  0  0  0  0  0
  141.4130   76.4160  219.1620 C   0  0  0  0  0  0  0  0  0  0  0  0
  140.5020   76.7890  218.3580 O   0  0  0  0  0  0  0  0  0  0  0  0
  141.8190   74.9950  219.0930 C   0  0  1  0  0  0  0  0  0  0  0  0
  143.2080   74.9460  218.4760 C   0  0  0  0  0  0  0  0  0  0  0  0
  144.1520   74.5400  219.5720 C   0  0  2  0  0  0  0  0  0  0  0  0
  144.6900   73.2300  219.2770 N   0  0  0  0  0  0  0  0  0  0  0  0
  145.2080   73.2320  217.9270 C   0  0  0  0  0  0  0  0  0  0  0  0
  145.6740   72.8000  220.2320 C   0  0  0  0  0  0  0  0  0  0  0  0
  143.3400   74.5430  220.8410 C   0  0  0  0  0  0  0  0  0  0  0  0
  141.9600   74.3560  220.3680 N   0  0  0  0  0  0  0  0  0  0  0  0
  140.9140   73.6500  221.0580 C   0  0  0  0  0  0  0  0  0  0  0  0
  141.1470   72.9300  222.0660 O   0  0  0  0  0  0  0  0  0  0  0  0
  139.5230   73.7830  220.5570 C   0  0  0  0  0  0  0  0  0  0  0  0
  139.1820   75.1930  220.4470 N   0  0  0  0  0  0  0  0  0  0  0  0
  139.0650   75.9150  221.6670 C   0  0  0  0  0  0  0  0  0  0  0  0
  139.2690   75.2590  222.7270 O   0  0  0  0  0  0  0  0  0  0  0  0
  138.7280   77.3330  221.6930 C   0  0  0  0  0  0  0  0  0  0  0  0
  138.4010   77.9460  220.5010 C   0  0  0  0  0  0  0  0  0  0  0  0
  138.0740   79.2860  220.4450 C   0  0  0  0  0  0  0  0  0  0  0  0
  138.0870   79.9790  221.6360 C   0  0  0  0  0  0  0  0  0  0  0  0
  137.7620   81.3230  221.6140 C   0  0  0  0  0  0  0  0  0  0  0  0
  137.7670   82.0520  222.7990 C   0  0  0  0  0  0  0  0  0  0  0  0
  137.3490   83.7380  222.7030 Cl  0  0  0  0  0  0  0  0  0  0  0  0
  138.0960   81.4390  224.0010 C   0  0  0  0  0  0  0  0  0  0  0  0
  138.4250   80.0800  224.0270 C   0  0  0  0  0  0  0  0  0  0  0  0
  138.4180   79.3620  222.8470 C   0  0  0  0  0  0  0  0  0  0  0  0
  138.7300   78.0490  222.8390 N   0  0  0  0  0  0  0  0  0  0  0  0
  141.7260   79.3570  221.4530 C   0  0  0  0  0  0  0  0  0  0  0  0
  141.8090   80.7300  221.5960 C   0  0  0  0  0  0  0  0  0  0  0  0
  141.9660   81.3500  222.8210 C   0  0  0  0  0  0  0  0  0  0  0  0
  142.0450   80.5690  223.9760 C   0  0  0  0  0  0  0  0  0  0  0  0
  141.9620   79.1820  223.8420 C   0  0  0  0  0  0  0  0  0  0  0  0
  141.8050   78.5820  222.6050 C   0  0  0  0  0  0  0  0  0  0  0  0
  142.8314   80.3619  219.4857 H   0  0  0  0  0  0  0  0  0  0  0  0
  142.8430   78.9304  218.4006 H   0  0  0  0  0  0  0  0  0  0  0  0
  141.4352   80.0461  218.4006 H   0  0  0  0  0  0  0  0  0  0  0  0
  140.4761   78.7649  219.9066 H   0  0  0  0  0  0  0  0  0  0  0  0
  142.7090   77.0690  220.7140 H   0  0  0  0  0  0  0  0  0  0  0  0
  141.0304   74.4791  218.5256 H   0  0  0  0  0  0  0  0  0  0  0  0
  143.2347   74.2089  217.6600 H   0  0  0  0  0  0  0  0  0  0  0  0
  143.4883   75.9220  218.0532 H   0  0  0  0  0  0  0  0  0  0  0  0
  145.0091   75.2225  219.6702 H   0  0  0  0  0  0  0  0  0  0  0  0
  146.3076   73.2362  217.9562 H   0  0  0  0  0  0  0  0  0  0  0  0
  144.8587   72.3325  217.3989 H   0  0  0  0  0  0  0  0  0  0  0  0
  144.8518   74.1288  217.3989 H   0  0  0  0  0  0  0  0  0  0  0  0
  145.2935   72.9663  221.2506 H   0  0  0  0  0  0  0  0  0  0  0  0
  145.8812   71.7293  220.0882 H   0  0  0  0  0  0  0  0  0  0  0  0
  146.6005   73.3753  220.0882 H   0  0  0  0  0  0  0  0  0  0  0  0
  143.6433   73.7189  221.5035 H   0  0  0  0  0  0  0  0  0  0  0  0
  143.4695   75.4633  221.4295 H   0  0  0  0  0  0  0  0  0  0  0  0
  139.4419   73.3076  219.5684 H   0  0  0  0  0  0  0  0  0  0  0  0
  138.8316   73.2912  221.2571 H   0  0  0  0  0  0  0  0  0  0  0  0
  139.0260   75.6740  219.5310 H   0  0  0  0  0  0  0  0  0  0  0  0
  138.4009   77.3535  219.5742 H   0  0  0  0  0  0  0  0  0  0  0  0
  137.8155   79.7770  219.4952 H   0  0  0  0  0  0  0  0  0  0  0  0
  137.5009   81.8131  220.6645 H   0  0  0  0  0  0  0  0  0  0  0  0
  138.0978   82.0228  224.9333 H   0  0  0  0  0  0  0  0  0  0  0  0
  138.6863   79.5887  224.9759 H   0  0  0  0  0  0  0  0  0  0  0  0
  141.7473   81.3568  220.6941 H   0  0  0  0  0  0  0  0  0  0  0  0
  142.0281   82.4463  222.8856 H   0  0  0  0  0  0  0  0  0  0  0  0
  142.1693   81.0344  224.9649 H   0  0  0  0  0  0  0  0  0  0  0  0
  142.0229   78.5511  224.7410 H   0  0  0  0  0  0  0  0  0  0  0  0
  141.7423   77.4862  222.5325 H   0  0  0  0  0  0  0  0  0  0  0  0
  1  2  1  0
  2  3  1  0
  3  4  1  0
  4  5  2  0
  4  6  1  0
  6  7  1  0
  7  8  1  0
  8  9  1  0
  9 10  1  0
  9 11  1  0
  8 12  1  0
 12 13  1  0
 13 14  1  0
 14 15  2  0
 14 16  1  0
 16 17  1  0
 17 18  1  0
 18 19  2  0
 18 20  1  0
 20 21  2  0
 21 22  1  0
 22 23  2  0
 23 24  1  0
 24 25  2  0
 25 26  1  0
 25 27  1  0
 27 28  2  0
 28 29  1  0
 29 30  2  0
  2 31  1  0
 31 32  2  0
 32 33  1  0
 33 34  2  0
 34 35  1  0
 35 36  2  0
 13  6  1  0
 30 20  1  0
 36 31  1  0
 29 23  1  0
  1 37  1  0
  1 38  1  0
  1 39  1  0
  2 40  1  6
  3 41  1  0
  6 42  1  6
  7 43  1  0
  7 44  1  0
  8 45  1  1
 10 46  1  0
 10 47  1  0
 10 48  1  0
 11 49  1  0
 11 50  1  0
 11 51  1  0
 12 52  1  0
 12 53  1  0
 16 54  1  0
 16 55  1  0
 17 56  1  0
 21 57  1  0
 22 58  1  0
 24 59  1  0
 27 60  1  0
 28 61  1  0
 32 62  1  0
 33 63  1  0
 34 64  1  0
 35 65  1  0
 36 66  1  0
M  END
>  <smiles>  (79) 
CC(NC(=O)[C@H]1C[C@H](N(C)C)CN1C(=O)CNC(=O)c1ccc2cc(Cl)ccc2n1)c1ccccc1

>  <score_type>  (79) 
oracle

>  <origin>  (79) 
autodockgpu

>  <m_score__min__energy>  (79) 
-9.8900000000000006

>  <m_primary>  (79) 
energy

>  <rmsd>  (79) 
6.6760194223584675

>  <m_score__min__rmsd>  (79) 
6.6760194223584675

>  <meeko>  (79) 
{"free_energy": -6.57, "intermolecular_energy": -8.96, "internal_energy": -4.63, "cluster_size": 5, "cluster_id": 9, "rank_in_cluster": 4}

>  <energy>  (79) 
-8.57

>  <cluster_rmsd>  (79) 
0.0

>  <cluster>  (79) 
4

$$$$

     RDKit          3D

 66 69  0  0  1  0  0  0  0  0999 V2000
  141.7600   79.9800  218.8530 C   0  0  0  0  0  0  0  0  0  0  0  0
  141.4460   78.9740  219.9300 C   0  0  1  0  0  0  0  0  0  0  0  0
  142.1150   77.7080  219.7030 N   0  0  0  0  0  0  0  0  0  0  0  0
  141.5400   76.6210  219.0150 C   0  0  0  0  0  0  0  0  0  0  0  0
  140.3590   76.7440  218.5590 O   0  0  0  0  0  0  0  0  0  0  0  0
  142.2120   75.3250  218.7750 C   0  0  1  0  0  0  0  0  0  0  0  0
  143.7100   75.5590  218.8910 C   0  0  0  0  0  0  0  0  0  0  0  0
  144.1570   74.8760  220.1530 C   0  0  2  0  0  0  0  0  0  0  0  0
  145.0200   73.7660  219.8130 N   0  0  0  0  0  0  0  0  0  0  0  0
  146.0330   73.6330  220.8360 C   0  0  0  0  0  0  0  0  0  0  0  0
  144.3010   72.5400  219.6030 C   0  0  0  0  0  0  0  0  0  0  0  0
  142.8980   74.4200  220.8450 C   0  0  0  0  0  0  0  0  0  0  0  0
  141.9210   74.3170  219.7510 N   0  0  0  0  0  0  0  0  0  0  0  0
  140.8460   73.3650  219.6590 C   0  0  0  0  0  0  0  0  0  0  0  0
  140.8970   72.3720  218.8850 O   0  0  0  0  0  0  0  0  0  0  0  0
  139.6460   73.5720  220.5090 C   0  0  0  0  0  0  0  0  0  0  0  0
  139.2320   74.9640  220.4280 N   0  0  0  0  0  0  0  0  0  0  0  0
  139.2230   75.6960  221.6470 C   0  0  0  0  0  0  0  0  0  0  0  0
  139.5780   75.0640  222.6810 O   0  0  0  0  0  0  0  0  0  0  0  0
  138.8280   77.0990  221.7000 C   0  0  0  0  0  0  0  0  0  0  0  0
  138.3140   77.6740  220.5560 C   0  0  0  0  0  0  0  0  0  0  0  0
  137.9200   78.9960  220.5280 C   0  0  0  0  0  0  0  0  0  0  0  0
  138.0640   79.7120  221.6960 C   0  0  0  0  0  0  0  0  0  0  0  0
  137.6770   81.0400  221.7020 C   0  0  0  0  0  0  0  0  0  0  0  0
  137.8090   81.7910  222.8660 C   0  0  0  0  0  0  0  0  0  0  0  0
  137.3040   83.4550  222.8050 Cl  0  0  0  0  0  0  0  0  0  0  0  0
  138.3260   81.2160  224.0190 C   0  0  0  0  0  0  0  0  0  0  0  0
  138.7180   79.8740  224.0180 C   0  0  0  0  0  0  0  0  0  0  0  0
  138.5840   79.1340  222.8590 C   0  0  0  0  0  0  0  0  0  0  0  0
  138.9520   77.8360  222.8260 N   0  0  0  0  0  0  0  0  0  0  0  0
  141.6730   79.5180  221.2940 C   0  0  0  0  0  0  0  0  0  0  0  0
  141.6220   80.8820  221.5170 C   0  0  0  0  0  0  0  0  0  0  0  0
  141.8240   81.4480  222.7610 C   0  0  0  0  0  0  0  0  0  0  0  0
  142.0930   80.6200  223.8520 C   0  0  0  0  0  0  0  0  0  0  0  0
  142.1470   79.2420  223.6380 C   0  0  0  0  0  0  0  0  0  0  0  0
  141.9410   78.6950  222.3830 C   0  0  0  0  0  0  0  0  0  0  0  0
  142.0573   80.9324  219.3163 H   0  0  0  0  0  0  0  0  0  0  0  0
  142.5833   79.6034  218.2283 H   0  0  0  0  0  0  0  0  0  0  0  0
  140.8686   80.1386  218.2283 H   0  0  0  0  0  0  0  0  0  0  0  0
  140.3680   78.7637  219.8689 H   0  0  0  0  0  0  0  0  0  0  0  0
  143.0820   77.6170  220.0830 H   0  0  0  0  0  0  0  0  0  0  0  0
  141.8617   74.9762  217.7923 H   0  0  0  0  0  0  0  0  0  0  0  0
  144.2295   75.1282  218.0223 H   0  0  0  0  0  0  0  0  0  0  0  0
  143.9417   76.6340  218.9193 H   0  0  0  0  0  0  0  0  0  0  0  0
  144.7338   75.5382  220.8154 H   0  0  0  0  0  0  0  0  0  0  0  0
  145.5623   73.6948  221.8283 H   0  0  0  0  0  0  0  0  0  0  0  0
  146.5368   72.6610  220.7290 H   0  0  0  0  0  0  0  0  0  0  0  0
  146.7706   74.4420  220.7290 H   0  0  0  0  0  0  0  0  0  0  0  0
  144.0408   72.0964  220.5754 H   0  0  0  0  0  0  0  0  0  0  0  0
  143.3811   72.7469  219.0364 H   0  0  0  0  0  0  0  0  0  0  0  0
  144.9306   71.8381  219.0364 H   0  0  0  0  0  0  0  0  0  0  0  0
  143.0480   73.4446  221.3309 H   0  0  0  0  0  0  0  0  0  0  0  0
  142.5761   75.1055  221.6428 H   0  0  0  0  0  0  0  0  0  0  0  0
  138.8296   72.9250  220.1556 H   0  0  0  0  0  0  0  0  0  0  0  0
  139.8864   73.3199  221.5524 H   0  0  0  0  0  0  0  0  0  0  0  0
  138.9490   75.4260  219.5320 H   0  0  0  0  0  0  0  0  0  0  0  0
  138.2161   77.0646  219.6455 H   0  0  0  0  0  0  0  0  0  0  0  0
  137.5105   79.4562  219.6167 H   0  0  0  0  0  0  0  0  0  0  0  0
  137.2669   81.5002  220.7910 H   0  0  0  0  0  0  0  0  0  0  0  0
  138.4274   81.8171  224.9346 H   0  0  0  0  0  0  0  0  0  0  0  0
  139.1280   79.4130  224.9287 H   0  0  0  0  0  0  0  0  0  0  0  0
  141.4111   81.5460  220.6657 H   0  0  0  0  0  0  0  0  0  0  0  0
  141.7734   82.5392  222.8903 H   0  0  0  0  0  0  0  0  0  0  0  0
  142.2581   81.0425  224.8541 H   0  0  0  0  0  0  0  0  0  0  0  0
  142.3582   78.5747  224.4866 H   0  0  0  0  0  0  0  0  0  0  0  0
  141.9895   77.6046  222.2463 H   0  0  0  0  0  0  0  0  0  0  0  0
  1  2  1  0
  2  3  1  0
  3  4  1  0
  4  5  2  0
  4  6  1  0
  6  7  1  0
  7  8  1  0
  8  9  1  0
  9 10  1  0
  9 11  1  0
  8 12  1  0
 12 13  1  0
 13 14  1  0
 14 15  2  0
 14 16  1  0
 16 17  1  0
 17 18  1  0
 18 19  2  0
 18 20  1  0
 20 21  2  0
 21 22  1  0
 22 23  2  0
 23 24  1  0
 24 25  2  0
 25 26  1  0
 25 27  1  0
 27 28  2  0
 28 29  1  0
 29 30  2  0
  2 31  1  0
 31 32  2  0
 32 33  1  0
 33 34  2  0
 34 35  1  0
 35 36  2  0
 13  6  1  0
 30 20  1  0
 36 31  1  0
 29 23  1  0
  1 37  1  0
  1 38  1  0
  1 39  1  0
  2 40  1  1
  3 41  1  0
  6 42  1  6
  7 43  1  0
  7 44  1  0
  8 45  1  1
 10 46  1  0
 10 47  1  0
 10 48  1  0
 11 49  1  0
 11 50  1  0
 11 51  1  0
 12 52  1  0
 12 53  1  0
 16 54  1  0
 16 55  1  0
 17 56  1  0
 21 57  1  0
 22 58  1  0
 24 59  1  0
 27 60  1  0
 28 61  1  0
 32 62  1  0
 33 63  1  0
 34 64  1  0
 35 65  1  0
 36 66  1  0
M  END
>  <smiles>  (80) 
CC(NC(=O)[C@H]1C[C@H](N(C)C)CN1C(=O)CNC(=O)c1ccc2cc(Cl)ccc2n1)c1ccccc1

>  <score_type>  (80) 
oracle

>  <origin>  (80) 
autodockgpu

>  <m_score__min__energy>  (80) 
-9.8900000000000006

>  <m_primary>  (80) 
energy

>  <rmsd>  (80) 
6.574890018154213

>  <m_score__min__rmsd>  (80) 
6.574890018154213

>  <meeko>  (80) 
{"free_energy": -6.79, "intermolecular_energy": -9.17, "internal_energy": -4.87, "cluster_size": 5, "cluster_id": 9, "rank_in_cluster": 3}

>  <energy>  (80) 
-8.51

>  <cluster_rmsd>  (80) 
0.0

>  <cluster>  (80) 
5

$$$$

     RDKit          3D

 66 69  0  0  1  0  0  0  0  0999 V2000
  141.5400   79.3840  223.6670 C   0  0  0  0  0  0  0  0  0  0  0  0
  142.2260   79.5420  222.3340 C   0  0  1  0  0  0  0  0  0  0  0  0
  142.1170   78.3460  221.5210 N   0  0  0  0  0  0  0  0  0  0  0  0
  140.8950   77.8040  221.0700 C   0  0  0  0  0  0  0  0  0  0  0  0
  139.8140   78.3900  221.3900 O   0  0  0  0  0  0  0  0  0  0  0  0
  140.7710   76.5870  220.2400 C   0  0  1  0  0  0  0  0  0  0  0  0
  142.1760   76.0670  219.9770 C   0  0  0  0  0  0  0  0  0  0  0  0
  142.3170   74.7920  220.7610 C   0  0  2  0  0  0  0  0  0  0  0  0
  142.4420   73.6810  219.8430 N   0  0  0  0  0  0  0  0  0  0  0  0
  141.9090   72.4940  220.4740 C   0  0  0  0  0  0  0  0  0  0  0  0
  141.8300   73.9350  218.5680 C   0  0  0  0  0  0  0  0  0  0  0  0
  141.0760   74.6870  221.6080 C   0  0  0  0  0  0  0  0  0  0  0  0
  140.0900   75.5000  220.8800 N   0  0  0  0  0  0  0  0  0  0  0  0
  138.6750   75.2560  220.8090 C   0  0  0  0  0  0  0  0  0  0  0  0
  137.8370   76.1970  220.7640 O   0  0  0  0  0  0  0  0  0  0  0  0
  138.2010   73.8500  220.7890 C   0  0  0  0  0  0  0  0  0  0  0  0
  138.6140   73.1830  222.0140 N   0  0  0  0  0  0  0  0  0  0  0  0
  138.6870   71.7640  221.9720 C   0  0  0  0  0  0  0  0  0  0  0  0
  138.3850   71.2210  220.8720 O   0  0  0  0  0  0  0  0  0  0  0  0
  139.0880   70.9790  223.1340 C   0  0  0  0  0  0  0  0  0  0  0  0
  138.8270   69.6250  223.1260 C   0  0  0  0  0  0  0  0  0  0  0  0
  139.1740   68.8170  224.1900 C   0  0  0  0  0  0  0  0  0  0  0  0
  139.7940   69.4280  225.2570 C   0  0  0  0  0  0  0  0  0  0  0  0
  140.1560   68.6460  226.3390 C   0  0  0  0  0  0  0  0  0  0  0  0
  140.7840   69.2330  227.4340 C   0  0  0  0  0  0  0  0  0  0  0  0
  141.2130   68.1940  228.7620 Cl  0  0  0  0  0  0  0  0  0  0  0  0
  141.0480   70.5970  227.4460 C   0  0  0  0  0  0  0  0  0  0  0  0
  140.6840   71.3900  226.3540 C   0  0  0  0  0  0  0  0  0  0  0  0
  140.0610   70.8020  225.2710 C   0  0  0  0  0  0  0  0  0  0  0  0
  139.6980   71.5410  224.2010 N   0  0  0  0  0  0  0  0  0  0  0  0
  141.7960   80.7730  221.6210 C   0  0  0  0  0  0  0  0  0  0  0  0
  141.8210   80.8210  220.2390 C   0  0  0  0  0  0  0  0  0  0  0  0
  141.4340   81.9350  219.5190 C   0  0  0  0  0  0  0  0  0  0  0  0
  140.9950   83.0710  220.2030 C   0  0  0  0  0  0  0  0  0  0  0  0
  140.9650   83.0320  221.5970 C   0  0  0  0  0  0  0  0  0  0  0  0
  141.3570   81.9050  222.2990 C   0  0  0  0  0  0  0  0  0  0  0  0
  142.2668   79.5514  224.4755 H   0  0  0  0  0  0  0  0  0  0  0  0
  140.7247   80.1179  223.7491 H   0  0  0  0  0  0  0  0  0  0  0  0
  141.1279   78.3674  223.7491 H   0  0  0  0  0  0  0  0  0  0  0  0
  143.2987   79.6744  222.5383 H   0  0  0  0  0  0  0  0  0  0  0  0
  143.0100   77.8730  221.2660 H   0  0  0  0  0  0  0  0  0  0  0  0
  140.2014   76.8832  219.3468 H   0  0  0  0  0  0  0  0  0  0  0  0
  142.3126   75.8694  218.9036 H   0  0  0  0  0  0  0  0  0  0  0  0
  142.9344   76.8041  220.2795 H   0  0  0  0  0  0  0  0  0  0  0  0
  143.2121   74.7808  221.4003 H   0  0  0  0  0  0  0  0  0  0  0  0
  141.9592   72.6059  221.5671 H   0  0  0  0  0  0  0  0  0  0  0  0
  140.8618   72.3545  220.1674 H   0  0  0  0  0  0  0  0  0  0  0  0
  142.5005   71.6187  220.1674 H   0  0  0  0  0  0  0  0  0  0  0  0
  140.8239   74.3526  218.7209 H   0  0  0  0  0  0  0  0  0  0  0  0
  142.4431   74.6530  218.0035 H   0  0  0  0  0  0  0  0  0  0  0  0
  141.7545   72.9939  218.0035 H   0  0  0  0  0  0  0  0  0  0  0  0
  140.7418   73.6420  221.6870 H   0  0  0  0  0  0  0  0  0  0  0  0
  141.2336   75.0303  222.6411 H   0  0  0  0  0  0  0  0  0  0  0  0
  137.1037   73.8338  220.7144 H   0  0  0  0  0  0  0  0  0  0  0  0
  138.6345   73.3286  219.9228 H   0  0  0  0  0  0  0  0  0  0  0  0
  138.8500   73.6990  222.8940 H   0  0  0  0  0  0  0  0  0  0  0  0
  138.3309   69.1785  222.2516 H   0  0  0  0  0  0  0  0  0  0  0  0
  138.9653   67.7370  224.1858 H   0  0  0  0  0  0  0  0  0  0  0  0
  139.9487   67.5657  226.3343 H   0  0  0  0  0  0  0  0  0  0  0  0
  141.5438   71.0532  228.3155 H   0  0  0  0  0  0  0  0  0  0  0  0
  140.8915   72.4702  226.3573 H   0  0  0  0  0  0  0  0  0  0  0  0
  142.1643   79.9327  219.6885 H   0  0  0  0  0  0  0  0  0  0  0  0
  141.4712   81.9273  218.4197 H   0  0  0  0  0  0  0  0  0  0  0  0
  140.6812   83.9727  219.6567 H   0  0  0  0  0  0  0  0  0  0  0  0
  140.6217   83.9177  222.1517 H   0  0  0  0  0  0  0  0  0  0  0  0
  141.3210   81.9050  223.3984 H   0  0  0  0  0  0  0  0  0  0  0  0
  1  2  1  0
  2  3  1  0
  3  4  1  0
  4  5  2  0
  4  6  1  0
  6  7  1  0
  7  8  1  0
  8  9  1  0
  9 10  1  0
  9 11  1  0
  8 12  1  0
 12 13  1  0
 13 14  1  0
 14 15  2  0
 14 16  1  0
 16 17  1  0
 17 18  1  0
 18 19  2  0
 18 20  1  0
 20 21  2  0
 21 22  1  0
 22 23  2  0
 23 24  1  0
 24 25  2  0
 25 26  1  0
 25 27  1  0
 27 28  2  0
 28 29  1  0
 29 30  2  0
  2 31  1  0
 31 32  2  0
 32 33  1  0
 33 34  2  0
 34 35  1  0
 35 36  2  0
 13  6  1  0
 30 20  1  0
 36 31  1  0
 29 23  1  0
  1 37  1  0
  1 38  1  0
  1 39  1  0
  2 40  1  1
  3 41  1  0
  6 42  1  6
  7 43  1  0
  7 44  1  0
  8 45  1  1
 10 46  1  0
 10 47  1  0
 10 48  1  0
 11 49  1  0
 11 50  1  0
 11 51  1  0
 12 52  1  0
 12 53  1  0
 16 54  1  0
 16 55  1  0
 17 56  1  0
 21 57  1  0
 22 58  1  0
 24 59  1  0
 27 60  1  0
 28 61  1  0
 32 62  1  0
 33 63  1  0
 34 64  1  0
 35 65  1  0
 36 66  1  0
M  END
>  <smiles>  (81) 
CC(NC(=O)[C@H]1C[C@H](N(C)C)CN1C(=O)CNC(=O)c1ccc2cc(Cl)ccc2n1)c1ccccc1

>  <score_type>  (81) 
oracle

>  <origin>  (81) 
autodockgpu

>  <m_score__min__energy>  (81) 
-9.8900000000000006

>  <m_primary>  (81) 
energy

>  <rmsd>  (81) 
1.9964985703939495

>  <m_score__min__rmsd>  (81) 
1.9964985703939495

>  <meeko>  (81) 
{"free_energy": -8.77, "intermolecular_energy": -11.16, "internal_energy": -2.3, "cluster_size": 21, "cluster_id": 1, "rank_in_cluster": 13}

>  <energy>  (81) 
-8.49

>  <cluster_rmsd>  (81) 
0.0

>  <cluster>  (81) 
6

$$$$

     RDKit          3D

 66 69  0  0  1  0  0  0  0  0999 V2000
  141.7530   80.1080  219.1880 C   0  0  0  0  0  0  0  0  0  0  0  0
  140.8660   79.5690  220.2810 C   0  0  1  0  0  0  0  0  0  0  0  0
  140.4740   78.1940  220.0350 N   0  0  0  0  0  0  0  0  0  0  0  0
  141.3830   77.1450  219.7890 C   0  0  0  0  0  0  0  0  0  0  0  0
  142.6270   77.4060  219.7770 O   0  0  0  0  0  0  0  0  0  0  0  0
  140.9960   75.7390  219.5390 C   0  0  1  0  0  0  0  0  0  0  0  0
  142.2720   74.9140  219.4970 C   0  0  0  0  0  0  0  0  0  0  0  0
  142.2770   74.0640  220.7360 C   0  0  2  0  0  0  0  0  0  0  0  0
  142.1450   72.6730  220.3590 N   0  0  0  0  0  0  0  0  0  0  0  0
  141.7970   71.9040  221.5330 C   0  0  0  0  0  0  0  0  0  0  0  0
  141.2130   72.4700  219.2850 C   0  0  0  0  0  0  0  0  0  0  0  0
  141.1130   74.5360  221.5670 C   0  0  0  0  0  0  0  0  0  0  0  0
  140.2090   75.1470  220.5800 N   0  0  0  0  0  0  0  0  0  0  0  0
  138.7720   75.1540  220.6350 C   0  0  0  0  0  0  0  0  0  0  0  0
  138.1080   76.2240  220.5910 O   0  0  0  0  0  0  0  0  0  0  0  0
  138.0630   73.8550  220.7480 C   0  0  0  0  0  0  0  0  0  0  0  0
  138.4670   73.1890  221.9770 N   0  0  0  0  0  0  0  0  0  0  0  0
  138.5580   71.7710  221.9310 C   0  0  0  0  0  0  0  0  0  0  0  0
  138.2790   71.2280  220.8250 O   0  0  0  0  0  0  0  0  0  0  0  0
  138.9530   70.9860  223.0950 C   0  0  0  0  0  0  0  0  0  0  0  0
  138.5900   69.6560  223.1370 C   0  0  0  0  0  0  0  0  0  0  0  0
  138.9240   68.8510  224.2070 C   0  0  0  0  0  0  0  0  0  0  0  0
  139.6380   69.4390  225.2280 C   0  0  0  0  0  0  0  0  0  0  0  0
  139.9900   68.6590  226.3140 C   0  0  0  0  0  0  0  0  0  0  0  0
  140.7110   69.2230  227.3630 C   0  0  0  0  0  0  0  0  0  0  0  0
  141.1220   68.1870  228.6990 Cl  0  0  0  0  0  0  0  0  0  0  0  0
  141.0770   70.5620  227.3250 C   0  0  0  0  0  0  0  0  0  0  0  0
  140.7240   71.3540  226.2280 C   0  0  0  0  0  0  0  0  0  0  0  0
  140.0090   70.7880  225.1910 C   0  0  0  0  0  0  0  0  0  0  0  0
  139.6520   71.5260  224.1180 N   0  0  0  0  0  0  0  0  0  0  0  0
  141.4470   79.7770  221.6320 C   0  0  0  0  0  0  0  0  0  0  0  0
  141.4140   78.7600  222.5680 C   0  0  0  0  0  0  0  0  0  0  0  0
  141.9370   78.8920  223.8400 C   0  0  0  0  0  0  0  0  0  0  0  0
  142.5280   80.1010  224.2130 C   0  0  0  0  0  0  0  0  0  0  0  0
  142.5660   81.1340  223.2750 C   0  0  0  0  0  0  0  0  0  0  0  0
  142.0360   80.9800  222.0060 C   0  0  0  0  0  0  0  0  0  0  0  0
  142.6115   80.6297  219.6363 H   0  0  0  0  0  0  0  0  0  0  0  0
  142.1138   79.2763  218.5650 H   0  0  0  0  0  0  0  0  0  0  0  0
  141.1810   80.8114  218.5650 H   0  0  0  0  0  0  0  0  0  0  0  0
  139.9373   80.1582  220.2615 H   0  0  0  0  0  0  0  0  0  0  0  0
  139.4510   77.9920  220.0450 H   0  0  0  0  0  0  0  0  0  0  0  0
  140.4058   75.7450  218.6108 H   0  0  0  0  0  0  0  0  0  0  0  0
  142.2824   74.2771  218.6002 H   0  0  0  0  0  0  0  0  0  0  0  0
  143.1607   75.5611  219.4573 H   0  0  0  0  0  0  0  0  0  0  0  0
  143.2110   74.1524  221.3103 H   0  0  0  0  0  0  0  0  0  0  0  0
  142.0559   72.4761  222.4361 H   0  0  0  0  0  0  0  0  0  0  0  0
  140.7169   71.6957  221.5280 H   0  0  0  0  0  0  0  0  0  0  0  0
  142.3534   70.9551  221.5280 H   0  0  0  0  0  0  0  0  0  0  0  0
  140.2174   72.2532  219.6995 H   0  0  0  0  0  0  0  0  0  0  0  0
  141.1628   73.3783  218.6665 H   0  0  0  0  0  0  0  0  0  0  0  0
  141.5451   71.6231  218.6665 H   0  0  0  0  0  0  0  0  0  0  0  0
  140.6257   73.6914  222.0760 H   0  0  0  0  0  0  0  0  0  0  0  0
  141.4112   75.2339  222.3633 H   0  0  0  0  0  0  0  0  0  0  0  0
  136.9771   74.0299  220.7653 H   0  0  0  0  0  0  0  0  0  0  0  0
  138.3179   73.2212  219.8858 H   0  0  0  0  0  0  0  0  0  0  0  0
  138.6850   73.7050  222.8620 H   0  0  0  0  0  0  0  0  0  0  0  0
  138.0214   69.2273  222.2986 H   0  0  0  0  0  0  0  0  0  0  0  0
  138.6340   67.7905  224.2430 H   0  0  0  0  0  0  0  0  0  0  0  0
  139.7018   67.5980  226.3490 H   0  0  0  0  0  0  0  0  0  0  0  0
  141.6452   71.0001  228.1588 H   0  0  0  0  0  0  0  0  0  0  0  0
  141.0123   72.4149  226.1915 H   0  0  0  0  0  0  0  0  0  0  0  0
  140.9505   77.8027  222.2874 H   0  0  0  0  0  0  0  0  0  0  0  0
  141.8884   78.0541  224.5510 H   0  0  0  0  0  0  0  0  0  0  0  0
  142.9522   80.2357  225.2189 H   0  0  0  0  0  0  0  0  0  0  0  0
  143.0282   82.0932  223.5511 H   0  0  0  0  0  0  0  0  0  0  0  0
  142.0808   81.8134  221.2894 H   0  0  0  0  0  0  0  0  0  0  0  0
  1  2  1  0
  2  3  1  0
  3  4  1  0
  4  5  2  0
  4  6  1  0
  6  7  1  0
  7  8  1  0
  8  9  1  0
  9 10  1  0
  9 11  1  0
  8 12  1  0
 12 13  1  0
 13 14  1  0
 14 15  2  0
 14 16  1  0
 16 17  1  0
 17 18  1  0
 18 19  2  0
 18 20  1  0
 20 21  2  0
 21 22  1  0
 22 23  2  0
 23 24  1  0
 24 25  2  0
 25 26  1  0
 25 27  1  0
 27 28  2  0
 28 29  1  0
 29 30  2  0
  2 31  1  0
 31 32  2  0
 32 33  1  0
 33 34  2  0
 34 35  1  0
 35 36  2  0
 13  6  1  0
 30 20  1  0
 36 31  1  0
 29 23  1  0
  1 37  1  0
  1 38  1  0
  1 39  1  0
  2 40  1  1
  3 41  1  0
  6 42  1  6
  7 43  1  0
  7 44  1  0
  8 45  1  1
 10 46  1  0
 10 47  1  0
 10 48  1  0
 11 49  1  0
 11 50  1  0
 11 51  1  0
 12 52  1  0
 12 53  1  0
 16 54  1  0
 16 55  1  0
 17 56  1  0
 21 57  1  0
 22 58  1  0
 24 59  1  0
 27 60  1  0
 28 61  1  0
 32 62  1  0
 33 63  1  0
 34 64  1  0
 35 65  1  0
 36 66  1  0
M  END
>  <smiles>  (82) 
CC(NC(=O)[C@H]1C[C@H](N(C)C)CN1C(=O)CNC(=O)c1ccc2cc(Cl)ccc2n1)c1ccccc1

>  <score_type>  (82) 
oracle

>  <origin>  (82) 
autodockgpu

>  <m_score__min__energy>  (82) 
-9.8900000000000006

>  <m_primary>  (82) 
energy

>  <rmsd>  (82) 
2.988646516474221

>  <m_score__min__rmsd>  (82) 
2.988646516474221

>  <meeko>  (82) 
{"free_energy": -8.38, "intermolecular_energy": -10.77, "internal_energy": -3.19, "cluster_size": 21, "cluster_id": 1, "rank_in_cluster": 19}

>  <energy>  (82) 
-8.43

>  <cluster_rmsd>  (82) 
0.41

>  <cluster>  (82) 
6

$$$$

     RDKit          3D

 66 69  0  0  1  0  0  0  0  0999 V2000
  142.3810   75.2670  218.1050 C   0  0  0  0  0  0  0  0  0  0  0  0
  143.2990   75.4990  219.2780 C   0  0  1  0  0  0  0  0  0  0  0  0
  142.5720   75.9070  220.4650 N   0  0  0  0  0  0  0  0  0  0  0  0
  141.8190   77.0960  220.5620 C   0  0  0  0  0  0  0  0  0  0  0  0
  141.7670   77.8690  219.5550 O   0  0  0  0  0  0  0  0  0  0  0  0
  141.0730   77.5220  221.7660 C   0  0  1  0  0  0  0  0  0  0  0  0
  141.6910   78.8230  222.2510 C   0  0  0  0  0  0  0  0  0  0  0  0
  140.6860   79.9060  221.9780 C   0  0  2  0  0  0  0  0  0  0  0  0
  140.2000   80.4320  223.2350 N   0  0  0  0  0  0  0  0  0  0  0  0
  141.2450   81.2260  223.8430 C   0  0  0  0  0  0  0  0  0  0  0  0
  138.9740   81.1680  223.0990 C   0  0  0  0  0  0  0  0  0  0  0  0
  139.5870   79.2590  221.1760 C   0  0  0  0  0  0  0  0  0  0  0  0
  139.6950   77.8350  221.5290 N   0  0  0  0  0  0  0  0  0  0  0  0
  138.6060   76.9000  221.6260 C   0  0  0  0  0  0  0  0  0  0  0  0
  137.6680   77.0510  222.4540 O   0  0  0  0  0  0  0  0  0  0  0  0
  138.6010   75.7260  220.7180 C   0  0  0  0  0  0  0  0  0  0  0  0
  138.4090   74.5130  221.4980 N   0  0  0  0  0  0  0  0  0  0  0  0
  139.5850   73.8540  221.9490 C   0  0  0  0  0  0  0  0  0  0  0  0
  140.6840   74.3880  221.6270 O   0  0  0  0  0  0  0  0  0  0  0  0
  139.5270   72.6300  222.7390 C   0  0  0  0  0  0  0  0  0  0  0  0
  138.5920   71.6760  222.3950 C   0  0  0  0  0  0  0  0  0  0  0  0
  138.4750   70.4940  223.0970 C   0  0  0  0  0  0  0  0  0  0  0  0
  139.3370   70.3120  224.1550 C   0  0  0  0  0  0  0  0  0  0  0  0
  139.2460   69.1370  224.8780 C   0  0  0  0  0  0  0  0  0  0  0  0
  140.1030   68.9220  225.9540 C   0  0  0  0  0  0  0  0  0  0  0  0
  139.9360   67.4230  226.8230 Cl  0  0  0  0  0  0  0  0  0  0  0  0
  141.0450   69.8800  226.3050 C   0  0  0  0  0  0  0  0  0  0  0  0
  141.1400   71.0690  225.5760 C   0  0  0  0  0  0  0  0  0  0  0  0
  140.2880   71.2760  224.5090 C   0  0  0  0  0  0  0  0  0  0  0  0
  140.3550   72.4130  223.7860 N   0  0  0  0  0  0  0  0  0  0  0  0
  144.2090   74.3500  219.5180 C   0  0  0  0  0  0  0  0  0  0  0  0
  145.0150   74.3240  220.6410 C   0  0  0  0  0  0  0  0  0  0  0  0
  145.8810   73.2840  220.9200 C   0  0  0  0  0  0  0  0  0  0  0  0
  145.9580   72.2040  220.0380 C   0  0  0  0  0  0  0  0  0  0  0  0
  145.1470   72.2210  218.9020 C   0  0  0  0  0  0  0  0  0  0  0  0
  144.2860   73.2730  218.6420 C   0  0  0  0  0  0  0  0  0  0  0  0
  141.3753   75.0128  218.4711 H   0  0  0  0  0  0  0  0  0  0  0  0
  142.3288   76.1802  217.4940 H   0  0  0  0  0  0  0  0  0  0  0  0
  142.7690   74.4387  217.4940 H   0  0  0  0  0  0  0  0  0  0  0  0
  143.9503   76.3451  219.0138 H   0  0  0  0  0  0  0  0  0  0  0  0
  142.6230   75.2670  221.2860 H   0  0  0  0  0  0  0  0  0  0  0  0
  141.1273   76.6806  222.4725 H   0  0  0  0  0  0  0  0  0  0  0  0
  141.9015   78.7641  223.3291 H   0  0  0  0  0  0  0  0  0  0  0  0
  142.6415   79.0260  221.7358 H   0  0  0  0  0  0  0  0  0  0  0  0
  141.1128   80.7526  221.4203 H   0  0  0  0  0  0  0  0  0  0  0  0
  141.1628   81.1635  224.9381 H   0  0  0  0  0  0  0  0  0  0  0  0
  142.2268   80.8440  223.5266 H   0  0  0  0  0  0  0  0  0  0  0  0
  141.1401   82.2743  223.5266 H   0  0  0  0  0  0  0  0  0  0  0  0
  138.5769   81.4064  224.0967 H   0  0  0  0  0  0  0  0  0  0  0  0
  139.1654   82.1006  222.5481 H   0  0  0  0  0  0  0  0  0  0  0  0
  138.2409   80.5606  222.5481 H   0  0  0  0  0  0  0  0  0  0  0  0
  138.6036   79.6610  221.4611 H   0  0  0  0  0  0  0  0  0  0  0  0
  139.6824   79.4403  220.0952 H   0  0  0  0  0  0  0  0  0  0  0  0
  137.7822   75.8281  219.9906 H   0  0  0  0  0  0  0  0  0  0  0  0
  139.5606   75.6710  220.1831 H   0  0  0  0  0  0  0  0  0  0  0  0
  137.4640   74.1250  221.7290 H   0  0  0  0  0  0  0  0  0  0  0  0
  137.9240   71.8619  221.5410 H   0  0  0  0  0  0  0  0  0  0  0  0
  137.7286   69.7333  222.8244 H   0  0  0  0  0  0  0  0  0  0  0  0
  138.5003   68.3760  224.6045 H   0  0  0  0  0  0  0  0  0  0  0  0
  141.7172   69.7031  227.1576 H   0  0  0  0  0  0  0  0  0  0  0  0
  141.8848   71.8310  225.8491 H   0  0  0  0  0  0  0  0  0  0  0  0
  144.9647   75.1688  221.3437 H   0  0  0  0  0  0  0  0  0  0  0  0
  146.5030   73.3065  221.8270 H   0  0  0  0  0  0  0  0  0  0  0  0
  146.6393   71.3627  220.2332 H   0  0  0  0  0  0  0  0  0  0  0  0
  145.1933   71.3782  218.1966 H   0  0  0  0  0  0  0  0  0  0  0  0
  143.6596   73.2570  217.7379 H   0  0  0  0  0  0  0  0  0  0  0  0
  1  2  1  0
  2  3  1  0
  3  4  1  0
  4  5  2  0
  4  6  1  0
  6  7  1  0
  7  8  1  0
  8  9  1  0
  9 10  1  0
  9 11  1  0
  8 12  1  0
 12 13  1  0
 13 14  1  0
 14 15  2  0
 14 16  1  0
 16 17  1  0
 17 18  1  0
 18 19  2  0
 18 20  1  0
 20 21  2  0
 21 22  1  0
 22 23  2  0
 23 24  1  0
 24 25  2  0
 25 26  1  0
 25 27  1  0
 27 28  2  0
 28 29  1  0
 29 30  2  0
  2 31  1  0
 31 32  2  0
 32 33  1  0
 33 34  2  0
 34 35  1  0
 35 36  2  0
 13  6  1  0
 30 20  1  0
 36 31  1  0
 29 23  1  0
  1 37  1  0
  1 38  1  0
  1 39  1  0
  2 40  1  6
  3 41  1  0
  6 42  1  1
  7 43  1  0
  7 44  1  0
  8 45  1  6
 10 46  1  0
 10 47  1  0
 10 48  1  0
 11 49  1  0
 11 50  1  0
 11 51  1  0
 12 52  1  0
 12 53  1  0
 16 54  1  0
 16 55  1  0
 17 56  1  0
 21 57  1  0
 22 58  1  0
 24 59  1  0
 27 60  1  0
 28 61  1  0
 32 62  1  0
 33 63  1  0
 34 64  1  0
 35 65  1  0
 36 66  1  0
M  END
>  <smiles>  (83) 
CC(NC(=O)[C@H]1C[C@H](N(C)C)CN1C(=O)CNC(=O)c1ccc2cc(Cl)ccc2n1)c1ccccc1

>  <score_type>  (83) 
oracle

>  <origin>  (83) 
autodockgpu

>  <m_score__min__energy>  (83) 
-9.8900000000000006

>  <m_primary>  (83) 
energy

>  <rmsd>  (83) 
5.6402339114312365

>  <m_score__min__rmsd>  (83) 
5.6402339114312365

>  <meeko>  (83) 
{"free_energy": -8.63, "intermolecular_energy": -11.01, "internal_energy": -2.8, "cluster_size": 6, "cluster_id": 2, "rank_in_cluster": 5}

>  <energy>  (83) 
-8.42

>  <cluster_rmsd>  (83) 
0.23

>  <cluster>  (83) 
6

$$$$

     RDKit          3D

 66 69  0  0  1  0  0  0  0  0999 V2000
  139.2450   77.2780  222.5250 C   0  0  0  0  0  0  0  0  0  0  0  0
  140.7400   77.3280  222.7100 C   0  0  1  0  0  0  0  0  0  0  0  0
  141.4470   76.7330  221.5930 N   0  0  0  0  0  0  0  0  0  0  0  0
  141.3970   75.3630  221.2640 C   0  0  0  0  0  0  0  0  0  0  0  0
  140.6920   74.5880  221.9840 O   0  0  0  0  0  0  0  0  0  0  0  0
  142.1120   74.7450  220.1260 C   0  0  1  0  0  0  0  0  0  0  0  0
  143.5500   74.5140  220.5610 C   0  0  0  0  0  0  0  0  0  0  0  0
  143.7250   73.0280  220.7010 C   0  0  2  0  0  0  0  0  0  0  0  0
  144.6470   72.5600  219.6890 N   0  0  0  0  0  0  0  0  0  0  0  0
  145.9840   72.9780  220.0470 C   0  0  0  0  0  0  0  0  0  0  0  0
  144.5650   71.1430  219.4700 C   0  0  0  0  0  0  0  0  0  0  0  0
  142.3520   72.4310  220.5330 C   0  0  0  0  0  0  0  0  0  0  0  0
  141.6270   73.4480  219.7560 N   0  0  0  0  0  0  0  0  0  0  0  0
  140.6010   73.1980  218.7800 C   0  0  0  0  0  0  0  0  0  0  0  0
  140.7200   73.5580  217.5780 O   0  0  0  0  0  0  0  0  0  0  0  0
  139.3690   72.4920  219.2150 C   0  0  0  0  0  0  0  0  0  0  0  0
  139.4900   72.1330  220.6200 N   0  0  0  0  0  0  0  0  0  0  0  0
  139.3260   70.7570  220.9400 C   0  0  0  0  0  0  0  0  0  0  0  0
  139.0910   69.9820  219.9710 O   0  0  0  0  0  0  0  0  0  0  0  0
  139.4230   70.2680  222.3110 C   0  0  0  0  0  0  0  0  0  0  0  0
  138.8650   69.0420  222.6060 C   0  0  0  0  0  0  0  0  0  0  0  0
  138.9150   68.5150  223.8810 C   0  0  0  0  0  0  0  0  0  0  0  0
  139.5500   69.2710  224.8410 C   0  0  0  0  0  0  0  0  0  0  0  0
  139.6180   68.7700  226.1280 C   0  0  0  0  0  0  0  0  0  0  0  0
  140.2530   69.5100  227.1220 C   0  0  0  0  0  0  0  0  0  0  0  0
  140.3040   68.8230  228.7200 Cl  0  0  0  0  0  0  0  0  0  0  0  0
  140.8160   70.7450  226.8290 C   0  0  0  0  0  0  0  0  0  0  0  0
  140.7490   71.2540  225.5280 C   0  0  0  0  0  0  0  0  0  0  0  0
  140.1180   70.5160  224.5470 C   0  0  0  0  0  0  0  0  0  0  0  0
  140.0380   70.9800  223.2820 N   0  0  0  0  0  0  0  0  0  0  0  0
  141.2210   78.6930  223.0450 C   0  0  0  0  0  0  0  0  0  0  0  0
  142.5570   79.0170  222.8920 C   0  0  0  0  0  0  0  0  0  0  0  0
  143.0640   80.2680  223.1850 C   0  0  0  0  0  0  0  0  0  0  0  0
  142.2040   81.2600  223.6590 C   0  0  0  0  0  0  0  0  0  0  0  0
  140.8540   80.9430  223.8170 C   0  0  0  0  0  0  0  0  0  0  0  0
  140.3660   79.6840  223.5170 C   0  0  0  0  0  0  0  0  0  0  0  0
  138.7541   77.2616  223.5092 H   0  0  0  0  0  0  0  0  0  0  0  0
  138.9149   78.1656  221.9654 H   0  0  0  0  0  0  0  0  0  0  0  0
  138.9749   76.3703  221.9654 H   0  0  0  0  0  0  0  0  0  0  0  0
  140.9765   76.7051  223.5853 H   0  0  0  0  0  0  0  0  0  0  0  0
  142.0230   77.3770  221.0100 H   0  0  0  0  0  0  0  0  0  0  0  0
  141.9792   75.4279  219.2740 H   0  0  0  0  0  0  0  0  0  0  0  0
  144.2433   74.9077  219.8031 H   0  0  0  0  0  0  0  0  0  0  0  0
  143.7643   75.0289  221.5092 H   0  0  0  0  0  0  0  0  0  0  0  0
  144.1458   72.7381  221.6751 H   0  0  0  0  0  0  0  0  0  0  0  0
  146.0780   73.0074  221.1426 H   0  0  0  0  0  0  0  0  0  0  0  0
  146.7136   72.2651  219.6354 H   0  0  0  0  0  0  0  0  0  0  0  0
  146.1776   73.9795  219.6354 H   0  0  0  0  0  0  0  0  0  0  0  0
  144.5349   70.6234  220.4391 H   0  0  0  0  0  0  0  0  0  0  0  0
  143.6520   70.9120  218.9016 H   0  0  0  0  0  0  0  0  0  0  0  0
  145.4453   70.8083  218.9016 H   0  0  0  0  0  0  0  0  0  0  0  0
  142.4019   71.4789  219.9843 H   0  0  0  0  0  0  0  0  0  0  0  0
  141.8662   72.1983  221.4921 H   0  0  0  0  0  0  0  0  0  0  0  0
  138.4997   73.1520  219.0781 H   0  0  0  0  0  0  0  0  0  0  0  0
  139.2344   71.5814  218.6127 H   0  0  0  0  0  0  0  0  0  0  0  0
  139.6870   72.8310  221.3750 H   0  0  0  0  0  0  0  0  0  0  0  0
  138.3688   68.4710  221.8074 H   0  0  0  0  0  0  0  0  0  0  0  0
  138.4689   67.5380  224.1187 H   0  0  0  0  0  0  0  0  0  0  0  0
  139.1730   67.7924  226.3652 H   0  0  0  0  0  0  0  0  0  0  0  0
  141.3150   71.3234  227.6205 H   0  0  0  0  0  0  0  0  0  0  0  0
  141.1940   72.2312  225.2893 H   0  0  0  0  0  0  0  0  0  0  0  0
  143.2462   78.2443  222.5206 H   0  0  0  0  0  0  0  0  0  0  0  0
  144.1344   80.4803  223.0462 H   0  0  0  0  0  0  0  0  0  0  0  0
  142.5802   82.2648  223.9015 H   0  0  0  0  0  0  0  0  0  0  0  0
  140.1617   81.7126  224.1889 H   0  0  0  0  0  0  0  0  0  0  0  0
  139.2965   79.4651  223.6523 H   0  0  0  0  0  0  0  0  0  0  0  0
  1  2  1  0
  2  3  1  0
  3  4  1  0
  4  5  2  0
  4  6  1  0
  6  7  1  0
  7  8  1  0
  8  9  1  0
  9 10  1  0
  9 11  1  0
  8 12  1  0
 12 13  1  0
 13 14  1  0
 14 15  2  0
 14 16  1  0
 16 17  1  0
 17 18  1  0
 18 19  2  0
 18 20  1  0
 20 21  2  0
 21 22  1  0
 22 23  2  0
 23 24  1  0
 24 25  2  0
 25 26  1  0
 25 27  1  0
 27 28  2  0
 28 29  1  0
 29 30  2  0
  2 31  1  0
 31 32  2  0
 32 33  1  0
 33 34  2  0
 34 35  1  0
 35 36  2  0
 13  6  1  0
 30 20  1  0
 36 31  1  0
 29 23  1  0
  1 37  1  0
  1 38  1  0
  1 39  1  0
  2 40  1  1
  3 41  1  0
  6 42  1  6
  7 43  1  0
  7 44  1  0
  8 45  1  1
 10 46  1  0
 10 47  1  0
 10 48  1  0
 11 49  1  0
 11 50  1  0
 11 51  1  0
 12 52  1  0
 12 53  1  0
 16 54  1  0
 16 55  1  0
 17 56  1  0
 21 57  1  0
 22 58  1  0
 24 59  1  0
 27 60  1  0
 28 61  1  0
 32 62  1  0
 33 63  1  0
 34 64  1  0
 35 65  1  0
 36 66  1  0
M  END
>  <smiles>  (84) 
CC(NC(=O)[C@H]1C[C@H](N(C)C)CN1C(=O)CNC(=O)c1ccc2cc(Cl)ccc2n1)c1ccccc1

>  <score_type>  (84) 
oracle

>  <origin>  (84) 
autodockgpu

>  <m_score__min__energy>  (84) 
-9.8900000000000006

>  <m_primary>  (84) 
energy

>  <rmsd>  (84) 
3.268591877114299

>  <m_score__min__rmsd>  (84) 
3.268591877114299

>  <meeko>  (84) 
{"free_energy": -9.07, "intermolecular_energy": -11.45, "internal_energy": -2.86, "cluster_size": 21, "cluster_id": 1, "rank_in_cluster": 9}

>  <energy>  (84) 
-8.14

>  <cluster_rmsd>  (84) 
1.38

>  <cluster>  (84) 
6

$$$$

     RDKit          3D

 66 69  0  0  1  0  0  0  0  0999 V2000
  141.8130   79.9180  219.1660 C   0  0  0  0  0  0  0  0  0  0  0  0
  140.8920   79.4150  220.2480 C   0  0  1  0  0  0  0  0  0  0  0  0
  140.4960   78.0370  220.0280 N   0  0  0  0  0  0  0  0  0  0  0  0
  141.3970   76.9900  219.7490 C   0  0  0  0  0  0  0  0  0  0  0  0
  142.6390   77.2550  219.6830 O   0  0  0  0  0  0  0  0  0  0  0  0
  141.0060   75.5810  219.5240 C   0  0  1  0  0  0  0  0  0  0  0  0
  142.2730   74.7420  219.5640 C   0  0  0  0  0  0  0  0  0  0  0  0
  142.2130   73.9300  220.8270 C   0  0  2  0  0  0  0  0  0  0  0  0
  142.0810   72.5300  220.4860 N   0  0  0  0  0  0  0  0  0  0  0  0
  141.5420   71.8220  221.6260 C   0  0  0  0  0  0  0  0  0  0  0  0
  141.3020   72.3130  219.2990 C   0  0  0  0  0  0  0  0  0  0  0  0
  141.0180   74.4390  221.5910 C   0  0  0  0  0  0  0  0  0  0  0  0
  140.1670   75.0290  220.5460 N   0  0  0  0  0  0  0  0  0  0  0  0
  138.7280   75.0530  220.5370 C   0  0  0  0  0  0  0  0  0  0  0  0
  138.0800   76.1220  220.3830 O   0  0  0  0  0  0  0  0  0  0  0  0
  138.0000   73.7720  220.7140 C   0  0  0  0  0  0  0  0  0  0  0  0
  138.4650   73.1160  221.9270 N   0  0  0  0  0  0  0  0  0  0  0  0
  138.3600   71.6980  221.9630 C   0  0  0  0  0  0  0  0  0  0  0  0
  137.8720   71.1480  220.9360 O   0  0  0  0  0  0  0  0  0  0  0  0
  138.7910   70.9230  223.1210 C   0  0  0  0  0  0  0  0  0  0  0  0
  138.4360   69.5920  223.1820 C   0  0  0  0  0  0  0  0  0  0  0  0
  138.8040   68.7950  224.2480 C   0  0  0  0  0  0  0  0  0  0  0  0
  139.5440   69.3940  225.2440 C   0  0  0  0  0  0  0  0  0  0  0  0
  139.9300   68.6220  226.3240 C   0  0  0  0  0  0  0  0  0  0  0  0
  140.6780   69.1970  227.3480 C   0  0  0  0  0  0  0  0  0  0  0  0
  141.1320   68.1720  228.6790 Cl  0  0  0  0  0  0  0  0  0  0  0  0
  141.0370   70.5370  227.2910 C   0  0  0  0  0  0  0  0  0  0  0  0
  140.6480   71.3200  226.1990 C   0  0  0  0  0  0  0  0  0  0  0  0
  139.9070   70.7440  225.1870 C   0  0  0  0  0  0  0  0  0  0  0  0
  139.5170   71.4730  224.1200 N   0  0  0  0  0  0  0  0  0  0  0  0
  141.4380   79.6540  221.6090 C   0  0  0  0  0  0  0  0  0  0  0  0
  141.3550   78.6680  222.5750 C   0  0  0  0  0  0  0  0  0  0  0  0
  141.8430   78.8300  223.8570 C   0  0  0  0  0  0  0  0  0  0  0  0
  142.4510   80.0370  224.2090 C   0  0  0  0  0  0  0  0  0  0  0  0
  142.5400   81.0370  223.2410 C   0  0  0  0  0  0  0  0  0  0  0  0
  142.0440   80.8550  221.9620 C   0  0  0  0  0  0  0  0  0  0  0  0
  142.6904   80.3972  219.6248 H   0  0  0  0  0  0  0  0  0  0  0  0
  142.1409   79.0737  218.5418 H   0  0  0  0  0  0  0  0  0  0  0  0
  141.2799   80.6502  218.5418 H   0  0  0  0  0  0  0  0  0  0  0  0
  139.9692   80.0107  220.1872 H   0  0  0  0  0  0  0  0  0  0  0  0
  139.4750   77.8320  220.0820 H   0  0  0  0  0  0  0  0  0  0  0  0
  140.4581   75.5647  218.5703 H   0  0  0  0  0  0  0  0  0  0  0  0
  142.3159   74.0780  218.6880 H   0  0  0  0  0  0  0  0  0  0  0  0
  143.1700   75.3784  219.5448 H   0  0  0  0  0  0  0  0  0  0  0  0
  143.1216   74.0262  221.4395 H   0  0  0  0  0  0  0  0  0  0  0  0
  141.9006   72.2930  222.5532 H   0  0  0  0  0  0  0  0  0  0  0  0
  140.4431   71.8613  221.5960 H   0  0  0  0  0  0  0  0  0  0  0  0
  141.8724   70.7732  221.5960 H   0  0  0  0  0  0  0  0  0  0  0  0
  140.2775   72.0276  219.5799 H   0  0  0  0  0  0  0  0  0  0  0  0
  141.2750   73.2378  218.7040 H   0  0  0  0  0  0  0  0  0  0  0  0
  141.7570   71.5074  218.7040 H   0  0  0  0  0  0  0  0  0  0  0  0
  140.4984   73.6152  222.1023 H   0  0  0  0  0  0  0  0  0  0  0  0
  141.2880   75.1572  222.3792 H   0  0  0  0  0  0  0  0  0  0  0  0
  136.9212   73.9710  220.7948 H   0  0  0  0  0  0  0  0  0  0  0  0
  138.1876   73.1198  219.8483 H   0  0  0  0  0  0  0  0  0  0  0  0
  138.8600   73.6380  222.7440 H   0  0  0  0  0  0  0  0  0  0  0  0
  137.8462   69.1550  222.3628 H   0  0  0  0  0  0  0  0  0  0  0  0
  138.5201   67.7335  224.2995 H   0  0  0  0  0  0  0  0  0  0  0  0
  139.6479   67.5600  226.3740 H   0  0  0  0  0  0  0  0  0  0  0  0
  141.6275   70.9831  228.1048 H   0  0  0  0  0  0  0  0  0  0  0  0
  140.9293   72.3822  226.1475 H   0  0  0  0  0  0  0  0  0  0  0  0
  140.8792   77.7121  222.3107 H   0  0  0  0  0  0  0  0  0  0  0  0
  141.7537   78.0171  224.5927 H   0  0  0  0  0  0  0  0  0  0  0  0
  142.8489   80.1947  225.2223 H   0  0  0  0  0  0  0  0  0  0  0  0
  143.0162   81.9940  223.5006 H   0  0  0  0  0  0  0  0  0  0  0  0
  142.1294   81.6638  221.2213 H   0  0  0  0  0  0  0  0  0  0  0  0
  1  2  1  0
  2  3  1  0
  3  4  1  0
  4  5  2  0
  4  6  1  0
  6  7  1  0
  7  8  1  0
  8  9  1  0
  9 10  1  0
  9 11  1  0
  8 12  1  0
 12 13  1  0
 13 14  1  0
 14 15  2  0
 14 16  1  0
 16 17  1  0
 17 18  1  0
 18 19  2  0
 18 20  1  0
 20 21  2  0
 21 22  1  0
 22 23  2  0
 23 24  1  0
 24 25  2  0
 25 26  1  0
 25 27  1  0
 27 28  2  0
 28 29  1  0
 29 30  2  0
  2 31  1  0
 31 32  2  0
 32 33  1  0
 33 34  2  0
 34 35  1  0
 35 36  2  0
 13  6  1  0
 30 20  1  0
 36 31  1  0
 29 23  1  0
  1 37  1  0
  1 38  1  0
  1 39  1  0
  2 40  1  1
  3 41  1  0
  6 42  1  6
  7 43  1  0
  7 44  1  0
  8 45  1  1
 10 46  1  0
 10 47  1  0
 10 48  1  0
 11 49  1  0
 11 50  1  0
 11 51  1  0
 12 52  1  0
 12 53  1  0
 16 54  1  0
 16 55  1  0
 17 56  1  0
 21 57  1  0
 22 58  1  0
 24 59  1  0
 27 60  1  0
 28 61  1  0
 32 62  1  0
 33 63  1  0
 34 64  1  0
 35 65  1  0
 36 66  1  0
M  END
>  <smiles>  (85) 
CC(NC(=O)[C@H]1C[C@H](N(C)C)CN1C(=O)CNC(=O)c1ccc2cc(Cl)ccc2n1)c1ccccc1

>  <score_type>  (85) 
oracle

>  <origin>  (85) 
autodockgpu

>  <m_score__min__energy>  (85) 
-9.8900000000000006

>  <m_primary>  (85) 
energy

>  <rmsd>  (85) 
3.0199028011460505

>  <m_score__min__rmsd>  (85) 
3.0199028011460505

>  <meeko>  (85) 
{"free_energy": -8.34, "intermolecular_energy": -10.73, "internal_energy": -3.19, "cluster_size": 21, "cluster_id": 1, "rank_in_cluster": 21}

>  <energy>  (85) 
-8.0

>  <cluster_rmsd>  (85) 
1.44

>  <cluster>  (85) 
6

$$$$

     RDKit          3D

 66 69  0  0  1  0  0  0  0  0999 V2000
  142.3910   75.0830  217.9330 C   0  0  0  0  0  0  0  0  0  0  0  0
  143.0460   75.3130  219.2710 C   0  0  1  0  0  0  0  0  0  0  0  0
  142.0720   75.4870  220.3310 N   0  0  0  0  0  0  0  0  0  0  0  0
  141.6320   76.7400  220.8040 C   0  0  0  0  0  0  0  0  0  0  0  0
  142.1120   77.7930  220.2780 O   0  0  0  0  0  0  0  0  0  0  0  0
  140.6380   76.9300  221.8830 C   0  0  1  0  0  0  0  0  0  0  0  0
  140.9330   78.2660  222.5450 C   0  0  0  0  0  0  0  0  0  0  0  0
  139.8100   79.1910  222.1680 C   0  0  2  0  0  0  0  0  0  0  0  0
  139.0440   79.5170  223.3500 N   0  0  0  0  0  0  0  0  0  0  0  0
  139.4130   80.8430  223.7940 C   0  0  0  0  0  0  0  0  0  0  0  0
  137.6260   79.3890  223.1520 C   0  0  0  0  0  0  0  0  0  0  0  0
  138.9860   78.4480  221.1490 C   0  0  0  0  0  0  0  0  0  0  0  0
  139.2830   77.0350  221.4280 N   0  0  0  0  0  0  0  0  0  0  0  0
  138.3740   75.9310  221.2780 C   0  0  0  0  0  0  0  0  0  0  0  0
  137.1340   76.0550  221.4670 O   0  0  0  0  0  0  0  0  0  0  0  0
  138.9270   74.6090  220.8880 C   0  0  0  0  0  0  0  0  0  0  0  0
  138.8760   73.7090  222.0300 N   0  0  0  0  0  0  0  0  0  0  0  0
  139.9430   72.7760  222.1510 C   0  0  0  0  0  0  0  0  0  0  0  0
  140.8310   72.8230  221.2550 O   0  0  0  0  0  0  0  0  0  0  0  0
  140.0080   71.8200  223.2500 C   0  0  0  0  0  0  0  0  0  0  0  0
  139.5520   70.5370  223.0250 C   0  0  0  0  0  0  0  0  0  0  0  0
  139.5790   69.5770  224.0160 C   0  0  0  0  0  0  0  0  0  0  0  0
  140.0830   69.9620  225.2390 C   0  0  0  0  0  0  0  0  0  0  0  0
  140.1240   69.0230  226.2540 C   0  0  0  0  0  0  0  0  0  0  0  0
  140.6270   69.3800  227.5020 C   0  0  0  0  0  0  0  0  0  0  0  0
  140.6520   68.1520  228.7350 Cl  0  0  0  0  0  0  0  0  0  0  0  0
  141.0860   70.6700  227.7330 C   0  0  0  0  0  0  0  0  0  0  0  0
  141.0460   71.6210  226.7090 C   0  0  0  0  0  0  0  0  0  0  0  0
  140.5460   71.2610  225.4730 C   0  0  0  0  0  0  0  0  0  0  0  0
  140.4950   72.1570  224.4650 N   0  0  0  0  0  0  0  0  0  0  0  0
  144.0700   74.2810  219.5820 C   0  0  0  0  0  0  0  0  0  0  0  0
  144.2750   73.2230  218.7170 C   0  0  0  0  0  0  0  0  0  0  0  0
  145.2110   72.2330  218.9500 C   0  0  0  0  0  0  0  0  0  0  0  0
  145.9910   72.2900  220.1070 C   0  0  0  0  0  0  0  0  0  0  0  0
  145.7910   73.3550  220.9860 C   0  0  0  0  0  0  0  0  0  0  0  0
  144.8490   74.3360  220.7330 C   0  0  0  0  0  0  0  0  0  0  0  0
  141.3631   74.7221  218.0852 H   0  0  0  0  0  0  0  0  0  0  0  0
  142.3684   76.0270  217.3687 H   0  0  0  0  0  0  0  0  0  0  0  0
  142.9635   74.3321  217.3687 H   0  0  0  0  0  0  0  0  0  0  0  0
  143.5929   76.2650  219.2021 H   0  0  0  0  0  0  0  0  0  0  0  0
  141.6870   74.6160  220.7570 H   0  0  0  0  0  0  0  0  0  0  0  0
  140.7229   76.0493  222.5365 H   0  0  0  0  0  0  0  0  0  0  0  0
  140.9755   78.1467  223.6377 H   0  0  0  0  0  0  0  0  0  0  0  0
  141.9032   78.6659  222.2151 H   0  0  0  0  0  0  0  0  0  0  0  0
  140.1651   80.1426  221.7456 H   0  0  0  0  0  0  0  0  0  0  0  0
  139.4212   80.8724  224.8936 H   0  0  0  0  0  0  0  0  0  0  0  0
  140.4145   81.0918  223.4131 H   0  0  0  0  0  0  0  0  0  0  0  0
  138.6840   81.5733  223.4131 H   0  0  0  0  0  0  0  0  0  0  0  0
  137.1220   79.3435  224.1287 H   0  0  0  0  0  0  0  0  0  0  0  0
  137.2547   80.2573  222.5879 H   0  0  0  0  0  0  0  0  0  0  0  0
  137.4162   78.4683  222.5879 H   0  0  0  0  0  0  0  0  0  0  0  0
  137.9144   78.6578  221.2820 H   0  0  0  0  0  0  0  0  0  0  0  0
  139.2220   78.7382  220.1146 H   0  0  0  0  0  0  0  0  0  0  0  0
  138.3310   74.1904  220.0637 H   0  0  0  0  0  0  0  0  0  0  0  0
  139.9702   74.7288  220.5603 H   0  0  0  0  0  0  0  0  0  0  0  0
  138.1060   73.7260  222.7380 H   0  0  0  0  0  0  0  0  0  0  0  0
  139.1578   70.2734  222.0325 H   0  0  0  0  0  0  0  0  0  0  0  0
  139.2157   68.5541  223.8381 H   0  0  0  0  0  0  0  0  0  0  0  0
  139.7612   67.9999  226.0760 H   0  0  0  0  0  0  0  0  0  0  0  0
  141.4813   70.9438  228.7223 H   0  0  0  0  0  0  0  0  0  0  0  0
  141.4087   72.6443  226.8858 H   0  0  0  0  0  0  0  0  0  0  0  0
  143.6663   73.1662  217.8025 H   0  0  0  0  0  0  0  0  0  0  0  0
  145.3401   71.4095  218.2322 H   0  0  0  0  0  0  0  0  0  0  0  0
  146.7430   71.5159  220.3197 H   0  0  0  0  0  0  0  0  0  0  0  0
  146.3969   73.4160  221.9021 H   0  0  0  0  0  0  0  0  0  0  0  0
  144.7154   75.1634  221.4454 H   0  0  0  0  0  0  0  0  0  0  0  0
  1  2  1  0
  2  3  1  0
  3  4  1  0
  4  5  2  0
  4  6  1  0
  6  7  1  0
  7  8  1  0
  8  9  1  0
  9 10  1  0
  9 11  1  0
  8 12  1  0
 12 13  1  0
 13 14  1  0
 14 15  2  0
 14 16  1  0
 16 17  1  0
 17 18  1  0
 18 19  2  0
 18 20  1  0
 20 21  2  0
 21 22  1  0
 22 23  2  0
 23 24  1  0
 24 25  2  0
 25 26  1  0
 25 27  1  0
 27 28  2  0
 28 29  1  0
 29 30  2  0
  2 31  1  0
 31 32  2  0
 32 33  1  0
 33 34  2  0
 34 35  1  0
 35 36  2  0
 13  6  1  0
 30 20  1  0
 36 31  1  0
 29 23  1  0
  1 37  1  0
  1 38  1  0
  1 39  1  0
  2 40  1  6
  3 41  1  0
  6 42  1  1
  7 43  1  0
  7 44  1  0
  8 45  1  6
 10 46  1  0
 10 47  1  0
 10 48  1  0
 11 49  1  0
 11 50  1  0
 11 51  1  0
 12 52  1  0
 12 53  1  0
 16 54  1  0
 16 55  1  0
 17 56  1  0
 21 57  1  0
 22 58  1  0
 24 59  1  0
 27 60  1  0
 28 61  1  0
 32 62  1  0
 33 63  1  0
 34 64  1  0
 35 65  1  0
 36 66  1  0
M  END
>  <smiles>  (86) 
CC(NC(=O)[C@H]1C[C@H](N(C)C)CN1C(=O)CNC(=O)c1ccc2cc(Cl)ccc2n1)c1ccccc1

>  <score_type>  (86) 
oracle

>  <origin>  (86) 
autodockgpu

>  <m_score__min__energy>  (86) 
-9.8900000000000006

>  <m_primary>  (86) 
energy

>  <rmsd>  (86) 
5.467868651189414

>  <m_score__min__rmsd>  (86) 
5.467868651189414

>  <meeko>  (86) 
{"free_energy": -8.92, "intermolecular_energy": -11.31, "internal_energy": -2.9, "cluster_size": 6, "cluster_id": 2, "rank_in_cluster": 1}

>  <energy>  (86) 
-8.16

>  <cluster_rmsd>  (86) 
0.0

>  <cluster>  (86) 
7

$$$$

     RDKit          3D

 66 69  0  0  1  0  0  0  0  0999 V2000
  142.1740   74.9580  218.0300 C   0  0  0  0  0  0  0  0  0  0  0  0
  142.7750   75.3570  219.3540 C   0  0  1  0  0  0  0  0  0  0  0  0
  141.7610   75.5830  220.3650 N   0  0  0  0  0  0  0  0  0  0  0  0
  141.3990   76.8560  220.8510 C   0  0  0  0  0  0  0  0  0  0  0  0
  141.9920   77.8790  220.3830 O   0  0  0  0  0  0  0  0  0  0  0  0
  140.3660   77.1010  221.8810 C   0  0  1  0  0  0  0  0  0  0  0  0
  140.5140   78.5400  222.3450 C   0  0  0  0  0  0  0  0  0  0  0  0
  139.3180   79.2870  221.8260 C   0  0  2  0  0  0  0  0  0  0  0  0
  138.4950   79.7020  222.9410 N   0  0  0  0  0  0  0  0  0  0  0  0
  137.3520   78.8210  223.0310 C   0  0  0  0  0  0  0  0  0  0  0  0
  139.2210   79.7720  224.1780 C   0  0  0  0  0  0  0  0  0  0  0  0
  138.5930   78.3280  220.9170 C   0  0  0  0  0  0  0  0  0  0  0  0
  139.0180   77.0060  221.4020 N   0  0  0  0  0  0  0  0  0  0  0  0
  138.2230   75.8070  221.4050 C   0  0  0  0  0  0  0  0  0  0  0  0
  137.0050   75.8140  221.7280 O   0  0  0  0  0  0  0  0  0  0  0  0
  138.8710   74.5300  221.0130 C   0  0  0  0  0  0  0  0  0  0  0  0
  138.8080   73.5950  222.1260 N   0  0  0  0  0  0  0  0  0  0  0  0
  139.9850   72.8410  222.3890 C   0  0  0  0  0  0  0  0  0  0  0  0
  140.9700   73.0580  221.6290 O   0  0  0  0  0  0  0  0  0  0  0  0
  140.0510   71.8710  223.4760 C   0  0  0  0  0  0  0  0  0  0  0  0
  139.6050   70.5890  223.2320 C   0  0  0  0  0  0  0  0  0  0  0  0
  139.6330   69.6170  224.2120 C   0  0  0  0  0  0  0  0  0  0  0  0
  140.1290   69.9900  225.4420 C   0  0  0  0  0  0  0  0  0  0  0  0
  140.1720   69.0380  226.4450 C   0  0  0  0  0  0  0  0  0  0  0  0
  140.6670   69.3820  227.6990 C   0  0  0  0  0  0  0  0  0  0  0  0
  140.6940   68.1390  228.9170 Cl  0  0  0  0  0  0  0  0  0  0  0  0
  141.1170   70.6720  227.9490 C   0  0  0  0  0  0  0  0  0  0  0  0
  141.0750   71.6360  226.9370 C   0  0  0  0  0  0  0  0  0  0  0  0
  140.5830   71.2890  225.6950 C   0  0  0  0  0  0  0  0  0  0  0  0
  140.5300   72.1960  224.6970 N   0  0  0  0  0  0  0  0  0  0  0  0
  143.8400   74.4190  219.7950 C   0  0  0  0  0  0  0  0  0  0  0  0
  144.9380   74.8910  220.4900 C   0  0  0  0  0  0  0  0  0  0  0  0
  145.9600   74.0700  220.9270 C   0  0  0  0  0  0  0  0  0  0  0  0
  145.8960   72.7010  220.6630 C   0  0  0  0  0  0  0  0  0  0  0  0
  144.7910   72.2140  219.9630 C   0  0  0  0  0  0  0  0  0  0  0  0
  143.7780   73.0540  219.5340 C   0  0  0  0  0  0  0  0  0  0  0  0
  141.2691   74.3573  218.2042 H   0  0  0  0  0  0  0  0  0  0  0  0
  141.9104   75.8611  217.4599 H   0  0  0  0  0  0  0  0  0  0  0  0
  142.9040   74.3646  217.4599 H   0  0  0  0  0  0  0  0  0  0  0  0
  143.2742   76.3254  219.2021 H   0  0  0  0  0  0  0  0  0  0  0  0
  141.2830   74.7380  220.7430 H   0  0  0  0  0  0  0  0  0  0  0  0
  140.5204   76.3361  222.6563 H   0  0  0  0  0  0  0  0  0  0  0  0
  140.5402   78.5831  223.4438 H   0  0  0  0  0  0  0  0  0  0  0  0
  141.4492   78.9819  221.9706 H   0  0  0  0  0  0  0  0  0  0  0  0
  139.5914   80.1982  221.2738 H   0  0  0  0  0  0  0  0  0  0  0  0
  137.1133   78.6370  224.0889 H   0  0  0  0  0  0  0  0  0  0  0  0
  136.4883   79.2892  222.5363 H   0  0  0  0  0  0  0  0  0  0  0  0
  137.5849   77.8665  222.5363 H   0  0  0  0  0  0  0  0  0  0  0  0
  138.5171   79.7041  225.0206 H   0  0  0  0  0  0  0  0  0  0  0  0
  139.9372   78.9387  224.2305 H   0  0  0  0  0  0  0  0  0  0  0  0
  139.7648   80.7267  224.2305 H   0  0  0  0  0  0  0  0  0  0  0  0
  137.5033   78.4482  221.0076 H   0  0  0  0  0  0  0  0  0  0  0  0
  138.8241   78.4885  219.8536 H   0  0  0  0  0  0  0  0  0  0  0  0
  138.3466   74.1035  220.1452 H   0  0  0  0  0  0  0  0  0  0  0  0
  139.9224   74.7171  220.7491 H   0  0  0  0  0  0  0  0  0  0  0  0
  137.9540   73.4660  222.7170 H   0  0  0  0  0  0  0  0  0  0  0  0
  139.2182   70.3352  222.2340 H   0  0  0  0  0  0  0  0  0  0  0  0
  139.2765   68.5942  224.0201 H   0  0  0  0  0  0  0  0  0  0  0  0
  139.8168   68.0149  226.2522 H   0  0  0  0  0  0  0  0  0  0  0  0
  141.5066   70.9354  228.9434 H   0  0  0  0  0  0  0  0  0  0  0  0
  141.4301   72.6594  227.1285 H   0  0  0  0  0  0  0  0  0  0  0  0
  145.0009   75.9680  220.7047 H   0  0  0  0  0  0  0  0  0  0  0  0
  146.8147   74.4908  221.4769 H   0  0  0  0  0  0  0  0  0  0  0  0
  146.6954   72.0236  220.9978 H   0  0  0  0  0  0  0  0  0  0  0  0
  144.7236   71.1375  219.7472 H   0  0  0  0  0  0  0  0  0  0  0  0
  142.9199   72.6403  218.9841 H   0  0  0  0  0  0  0  0  0  0  0  0
  1  2  1  0
  2  3  1  0
  3  4  1  0
  4  5  2  0
  4  6  1  0
  6  7  1  0
  7  8  1  0
  8  9  1  0
  9 10  1  0
  9 11  1  0
  8 12  1  0
 12 13  1  0
 13 14  1  0
 14 15  2  0
 14 16  1  0
 16 17  1  0
 17 18  1  0
 18 19  2  0
 18 20  1  0
 20 21  2  0
 21 22  1  0
 22 23  2  0
 23 24  1  0
 24 25  2  0
 25 26  1  0
 25 27  1  0
 27 28  2  0
 28 29  1  0
 29 30  2  0
  2 31  1  0
 31 32  2  0
 32 33  1  0
 33 34  2  0
 34 35  1  0
 35 36  2  0
 13  6  1  0
 30 20  1  0
 36 31  1  0
 29 23  1  0
  1 37  1  0
  1 38  1  0
  1 39  1  0
  2 40  1  6
  3 41  1  0
  6 42  1  1
  7 43  1  0
  7 44  1  0
  8 45  1  6
 10 46  1  0
 10 47  1  0
 10 48  1  0
 11 49  1  0
 11 50  1  0
 11 51  1  0
 12 52  1  0
 12 53  1  0
 16 54  1  0
 16 55  1  0
 17 56  1  0
 21 57  1  0
 22 58  1  0
 24 59  1  0
 27 60  1  0
 28 61  1  0
 32 62  1  0
 33 63  1  0
 34 64  1  0
 35 65  1  0
 36 66  1  0
M  END
>  <smiles>  (87) 
CC(NC(=O)[C@H]1C[C@H](N(C)C)CN1C(=O)CNC(=O)c1ccc2cc(Cl)ccc2n1)c1ccccc1

>  <score_type>  (87) 
oracle

>  <origin>  (87) 
autodockgpu

>  <m_score__min__energy>  (87) 
-9.8900000000000006

>  <m_primary>  (87) 
energy

>  <rmsd>  (87) 
5.295580064629342

>  <m_score__min__rmsd>  (87) 
5.295580064629342

>  <meeko>  (87) 
{"free_energy": -8.63, "intermolecular_energy": -11.01, "internal_energy": -2.99, "cluster_size": 6, "cluster_id": 2, "rank_in_cluster": 4}

>  <energy>  (87) 
-7.2

>  <cluster_rmsd>  (87) 
0.0

>  <cluster>  (87) 
8

$$$$

     RDKit          3D

 66 69  0  0  1  0  0  0  0  0999 V2000
  139.2350   77.3080  222.5620 C   0  0  0  0  0  0  0  0  0  0  0  0
  140.7330   77.3700  222.7220 C   0  0  1  0  0  0  0  0  0  0  0  0
  141.4250   76.7990  221.5830 N   0  0  0  0  0  0  0  0  0  0  0  0
  141.4260   75.4260  221.2650 C   0  0  0  0  0  0  0  0  0  0  0  0
  140.7850   74.6250  222.0160 O   0  0  0  0  0  0  0  0  0  0  0  0
  142.1270   74.8320  220.1060 C   0  0  1  0  0  0  0  0  0  0  0  0
  143.5960   74.7040  220.4760 C   0  0  0  0  0  0  0  0  0  0  0  0
  143.8750   73.2360  220.6340 C   0  0  2  0  0  0  0  0  0  0  0  0
  144.7780   72.8070  219.5880 N   0  0  0  0  0  0  0  0  0  0  0  0
  144.6670   71.3740  219.4360 C   0  0  0  0  0  0  0  0  0  0  0  0
  144.5670   73.5000  218.3470 C   0  0  0  0  0  0  0  0  0  0  0  0
  142.5380   72.5480  220.5410 C   0  0  0  0  0  0  0  0  0  0  0  0
  141.7120   73.4990  219.7820 N   0  0  0  0  0  0  0  0  0  0  0  0
  140.6610   73.1630  218.8600 C   0  0  0  0  0  0  0  0  0  0  0  0
  140.8100   73.2600  217.6120 O   0  0  0  0  0  0  0  0  0  0  0  0
  139.3660   72.6880  219.4090 C   0  0  0  0  0  0  0  0  0  0  0  0
  139.5550   72.2550  220.7850 N   0  0  0  0  0  0  0  0  0  0  0  0
  139.2360   70.8990  221.0730 C   0  0  0  0  0  0  0  0  0  0  0  0
  138.8190   70.2040  220.1040 O   0  0  0  0  0  0  0  0  0  0  0  0
  139.3810   70.3420  222.4130 C   0  0  0  0  0  0  0  0  0  0  0  0
  138.8150   69.1120  222.6720 C   0  0  0  0  0  0  0  0  0  0  0  0
  138.9080   68.5220  223.9160 C   0  0  0  0  0  0  0  0  0  0  0  0
  139.5950   69.2210  224.8850 C   0  0  0  0  0  0  0  0  0  0  0  0
  139.7080   68.6560  226.1420 C   0  0  0  0  0  0  0  0  0  0  0  0
  140.3950   69.3360  227.1430 C   0  0  0  0  0  0  0  0  0  0  0  0
  140.5010   68.5710  228.7030 Cl  0  0  0  0  0  0  0  0  0  0  0  0
  140.9660   70.5760  226.8870 C   0  0  0  0  0  0  0  0  0  0  0  0
  140.8550   71.1490  225.6170 C   0  0  0  0  0  0  0  0  0  0  0  0
  140.1720   70.4690  224.6280 C   0  0  0  0  0  0  0  0  0  0  0  0
  140.0470   70.9960  223.3910 N   0  0  0  0  0  0  0  0  0  0  0  0
  141.2060   78.7350  223.0690 C   0  0  0  0  0  0  0  0  0  0  0  0
  142.5600   79.0200  223.0780 C   0  0  0  0  0  0  0  0  0  0  0  0
  143.0620   80.2690  223.3910 C   0  0  0  0  0  0  0  0  0  0  0  0
  142.1770   81.2990  223.7160 C   0  0  0  0  0  0  0  0  0  0  0  0
  140.8090   81.0210  223.7090 C   0  0  0  0  0  0  0  0  0  0  0  0
  140.3270   79.7630  223.3920 C   0  0  0  0  0  0  0  0  0  0  0  0
  138.7608   77.2884  223.5543 H   0  0  0  0  0  0  0  0  0  0  0  0
  138.8886   78.1926  222.0075 H   0  0  0  0  0  0  0  0  0  0  0  0
  138.9628   76.3978  222.0075 H   0  0  0  0  0  0  0  0  0  0  0  0
  140.9920   76.7368  223.5834 H   0  0  0  0  0  0  0  0  0  0  0  0
  141.9500   77.4640  220.9750 H   0  0  0  0  0  0  0  0  0  0  0  0
  141.9102   75.4872  219.2494 H   0  0  0  0  0  0  0  0  0  0  0  0
  144.2259   75.1260  219.6790 H   0  0  0  0  0  0  0  0  0  0  0  0
  143.8196   75.2514  221.4036 H   0  0  0  0  0  0  0  0  0  0  0  0
  144.3586   72.9950  221.5922 H   0  0  0  0  0  0  0  0  0  0  0  0
  144.6304   70.9017  220.4288 H   0  0  0  0  0  0  0  0  0  0  0  0
  143.7476   71.1342  218.8818 H   0  0  0  0  0  0  0  0  0  0  0  0
  145.5385   70.9955  218.8818 H   0  0  0  0  0  0  0  0  0  0  0  0
  144.2523   74.5337  218.5532 H   0  0  0  0  0  0  0  0  0  0  0  0
  145.5028   73.5100  217.7689 H   0  0  0  0  0  0  0  0  0  0  0  0
  143.7844   72.9868  217.7689 H   0  0  0  0  0  0  0  0  0  0  0  0
  142.6254   71.5903  220.0070 H   0  0  0  0  0  0  0  0  0  0  0  0
  142.1133   72.3041  221.5260 H   0  0  0  0  0  0  0  0  0  0  0  0
  138.6322   73.5069  219.3793 H   0  0  0  0  0  0  0  0  0  0  0  0
  138.9977   71.8452  218.8056 H   0  0  0  0  0  0  0  0  0  0  0  0
  139.9060   72.8880  221.5410 H   0  0  0  0  0  0  0  0  0  0  0  0
  138.2766   68.5885  221.8682 H   0  0  0  0  0  0  0  0  0  0  0  0
  138.4557   67.5412  224.1242 H   0  0  0  0  0  0  0  0  0  0  0  0
  139.2572   67.6743  226.3495 H   0  0  0  0  0  0  0  0  0  0  0  0
  141.5060   71.1075  227.6844 H   0  0  0  0  0  0  0  0  0  0  0  0
  141.3064   72.1301  225.4078 H   0  0  0  0  0  0  0  0  0  0  0  0
  143.2680   78.2171  222.8249 H   0  0  0  0  0  0  0  0  0  0  0  0
  144.1470   80.4498  223.3842 H   0  0  0  0  0  0  0  0  0  0  0  0
  142.5479   82.3028  223.9708 H   0  0  0  0  0  0  0  0  0  0  0  0
  140.0973   81.8208  223.9614 H   0  0  0  0  0  0  0  0  0  0  0  0
  139.2431   79.5754  223.3956 H   0  0  0  0  0  0  0  0  0  0  0  0
  1  2  1  0
  2  3  1  0
  3  4  1  0
  4  5  2  0
  4  6  1  0
  6  7  1  0
  7  8  1  0
  8  9  1  0
  9 10  1  0
  9 11  1  0
  8 12  1  0
 12 13  1  0
 13 14  1  0
 14 15  2  0
 14 16  1  0
 16 17  1  0
 17 18  1  0
 18 19  2  0
 18 20  1  0
 20 21  2  0
 21 22  1  0
 22 23  2  0
 23 24  1  0
 24 25  2  0
 25 26  1  0
 25 27  1  0
 27 28  2  0
 28 29  1  0
 29 30  2  0
  2 31  1  0
 31 32  2  0
 32 33  1  0
 33 34  2  0
 34 35  1  0
 35 36  2  0
 13  6  1  0
 30 20  1  0
 36 31  1  0
 29 23  1  0
  1 37  1  0
  1 38  1  0
  1 39  1  0
  2 40  1  1
  3 41  1  0
  6 42  1  6
  7 43  1  0
  7 44  1  0
  8 45  1  1
 10 46  1  0
 10 47  1  0
 10 48  1  0
 11 49  1  0
 11 50  1  0
 11 51  1  0
 12 52  1  0
 12 53  1  0
 16 54  1  0
 16 55  1  0
 17 56  1  0
 21 57  1  0
 22 58  1  0
 24 59  1  0
 27 60  1  0
 28 61  1  0
 32 62  1  0
 33 63  1  0
 34 64  1  0
 35 65  1  0
 36 66  1  0
M  END
>  <smiles>  (88) 
CC(NC(=O)[C@H]1C[C@H](N(C)C)CN1C(=O)CNC(=O)c1ccc2cc(Cl)ccc2n1)c1ccccc1

>  <score_type>  (88) 
oracle

>  <origin>  (88) 
autodockgpu

>  <m_score__min__energy>  (88) 
-9.8900000000000006

>  <m_primary>  (88) 
energy

>  <rmsd>  (88) 
3.2488620459037834

>  <m_score__min__rmsd>  (88) 
3.2488620459037834

>  <meeko>  (88) 
{"free_energy": -8.91, "intermolecular_energy": -11.3, "internal_energy": -2.92, "cluster_size": 21, "cluster_id": 1, "rank_in_cluster": 11}

>  <energy>  (88) 
-6.55

>  <cluster_rmsd>  (88) 
2.0

>  <cluster>  (88) 
8

$$$$

     RDKit          3D

 66 69  0  0  1  0  0  0  0  0999 V2000
  141.9430   72.9680  218.2730 C   0  0  0  0  0  0  0  0  0  0  0  0
  142.5070   74.0230  219.1900 C   0  0  1  0  0  0  0  0  0  0  0  0
  141.5530   74.4310  220.2030 N   0  0  0  0  0  0  0  0  0  0  0  0
  141.4590   75.7380  220.7210 C   0  0  0  0  0  0  0  0  0  0  0  0
  142.2560   76.6260  220.2830 O   0  0  0  0  0  0  0  0  0  0  0  0
  140.4890   76.1670  221.7530 C   0  0  1  0  0  0  0  0  0  0  0  0
  141.0390   77.4260  222.4030 C   0  0  0  0  0  0  0  0  0  0  0  0
  140.1580   78.5600  221.9610 C   0  0  2  0  0  0  0  0  0  0  0  0
  139.4350   79.0750  223.1030 N   0  0  0  0  0  0  0  0  0  0  0  0
  140.3720   79.7240  223.9930 C   0  0  0  0  0  0  0  0  0  0  0  0
  138.3500   79.9410  222.7360 C   0  0  0  0  0  0  0  0  0  0  0  0
  139.2320   77.9840  220.9210 C   0  0  0  0  0  0  0  0  0  0  0  0
  139.2070   76.5480  221.2390 N   0  0  0  0  0  0  0  0  0  0  0  0
  138.0870   75.6600  221.0700 C   0  0  0  0  0  0  0  0  0  0  0  0
  136.8970   76.0540  221.1990 O   0  0  0  0  0  0  0  0  0  0  0  0
  138.3580   74.2400  220.7340 C   0  0  0  0  0  0  0  0  0  0  0  0
  138.4860   73.4690  221.9610 N   0  0  0  0  0  0  0  0  0  0  0  0
  139.3520   72.3420  221.9160 C   0  0  0  0  0  0  0  0  0  0  0  0
  139.9260   72.1220  220.8130 O   0  0  0  0  0  0  0  0  0  0  0  0
  139.5670   71.4890  223.0790 C   0  0  0  0  0  0  0  0  0  0  0  0
  139.1760   70.1690  222.9990 C   0  0  0  0  0  0  0  0  0  0  0  0
  139.3430   69.3010  224.0590 C   0  0  0  0  0  0  0  0  0  0  0  0
  139.9210   69.8170  225.1980 C   0  0  0  0  0  0  0  0  0  0  0  0
  140.1040   68.9730  226.2780 C   0  0  0  0  0  0  0  0  0  0  0  0
  140.6840   69.4630  227.4450 C   0  0  0  0  0  0  0  0  0  0  0  0
  140.8860   68.3490  228.7670 Cl  0  0  0  0  0  0  0  0  0  0  0  0
  141.0790   70.7910  227.5300 C   0  0  0  0  0  0  0  0  0  0  0  0
  140.8960   71.6480  226.4400 C   0  0  0  0  0  0  0  0  0  0  0  0
  140.3190   71.1550  225.2850 C   0  0  0  0  0  0  0  0  0  0  0  0
  140.1290   71.9560  224.2160 N   0  0  0  0  0  0  0  0  0  0  0  0
  143.8250   73.6330  219.7540 C   0  0  0  0  0  0  0  0  0  0  0  0
  144.3300   72.3650  219.5300 C   0  0  0  0  0  0  0  0  0  0  0  0
  145.5480   71.9430  220.0270 C   0  0  0  0  0  0  0  0  0  0  0  0
  146.3170   72.8250  220.7900 C   0  0  0  0  0  0  0  0  0  0  0  0
  145.8160   74.1070  221.0210 C   0  0  0  0  0  0  0  0  0  0  0  0
  144.5930   74.5090  220.5140 C   0  0  0  0  0  0  0  0  0  0  0  0
  141.5083   72.1550  218.8730 H   0  0  0  0  0  0  0  0  0  0  0  0
  141.1625   73.4130  217.6384 H   0  0  0  0  0  0  0  0  0  0  0  0
  142.7466   72.5661  217.6384 H   0  0  0  0  0  0  0  0  0  0  0  0
  142.6968   74.9149  218.5747 H   0  0  0  0  0  0  0  0  0  0  0  0
  140.9050   73.6940  220.5570 H   0  0  0  0  0  0  0  0  0  0  0  0
  140.3578   75.3064  222.4254 H   0  0  0  0  0  0  0  0  0  0  0  0
  141.0122   77.3298  223.4985 H   0  0  0  0  0  0  0  0  0  0  0  0
  142.0846   77.5991  222.1084 H   0  0  0  0  0  0  0  0  0  0  0  0
  140.7266   79.4009  221.5372 H   0  0  0  0  0  0  0  0  0  0  0  0
  140.0849   79.5251  225.0361 H   0  0  0  0  0  0  0  0  0  0  0  0
  141.3833   79.3319  223.8099 H   0  0  0  0  0  0  0  0  0  0  0  0
  140.3605   80.8086  223.8099 H   0  0  0  0  0  0  0  0  0  0  0  0
  137.8658   80.3275  223.6449 H   0  0  0  0  0  0  0  0  0  0  0  0
  138.7368   80.7814  222.1410 H   0  0  0  0  0  0  0  0  0  0  0  0
  137.6163   79.3775  222.1410 H   0  0  0  0  0  0  0  0  0  0  0  0
  138.2266   78.4224  221.0041 H   0  0  0  0  0  0  0  0  0  0  0  0
  139.5636   78.1887  219.8924 H   0  0  0  0  0  0  0  0  0  0  0  0
  137.5273   73.8399  220.1341 H   0  0  0  0  0  0  0  0  0  0  0  0
  139.2922   74.1707  220.1574 H   0  0  0  0  0  0  0  0  0  0  0  0
  137.9790   73.7110  222.8450 H   0  0  0  0  0  0  0  0  0  0  0  0
  138.7203   69.7992  222.0686 H   0  0  0  0  0  0  0  0  0  0  0  0
  139.0298   68.2483  223.9973 H   0  0  0  0  0  0  0  0  0  0  0  0
  139.7929   67.9198  226.2154 H   0  0  0  0  0  0  0  0  0  0  0  0
  141.5365   71.1698  228.4558 H   0  0  0  0  0  0  0  0  0  0  0  0
  141.2074   72.7012  226.5012 H   0  0  0  0  0  0  0  0  0  0  0  0
  143.7353   71.6611  218.9293 H   0  0  0  0  0  0  0  0  0  0  0  0
  145.9083   70.9237  219.8241 H   0  0  0  0  0  0  0  0  0  0  0  0
  147.2912   72.5174  221.1978 H   0  0  0  0  0  0  0  0  0  0  0  0
  146.4075   74.8147  221.6204 H   0  0  0  0  0  0  0  0  0  0  0  0
  144.2261   75.5267  220.7130 H   0  0  0  0  0  0  0  0  0  0  0  0
  1  2  1  0
  2  3  1  0
  3  4  1  0
  4  5  2  0
  4  6  1  0
  6  7  1  0
  7  8  1  0
  8  9  1  0
  9 10  1  0
  9 11  1  0
  8 12  1  0
 12 13  1  0
 13 14  1  0
 14 15  2  0
 14 16  1  0
 16 17  1  0
 17 18  1  0
 18 19  2  0
 18 20  1  0
 20 21  2  0
 21 22  1  0
 22 23  2  0
 23 24  1  0
 24 25  2  0
 25 26  1  0
 25 27  1  0
 27 28  2  0
 28 29  1  0
 29 30  2  0
  2 31  1  0
 31 32  2  0
 32 33  1  0
 33 34  2  0
 34 35  1  0
 35 36  2  0
 13  6  1  0
 30 20  1  0
 36 31  1  0
 29 23  1  0
  1 37  1  0
  1 38  1  0
  1 39  1  0
  2 40  1  6
  3 41  1  0
  6 42  1  1
  7 43  1  0
  7 44  1  0
  8 45  1  6
 10 46  1  0
 10 47  1  0
 10 48  1  0
 11 49  1  0
 11 50  1  0
 11 51  1  0
 12 52  1  0
 12 53  1  0
 16 54  1  0
 16 55  1  0
 17 56  1  0
 21 57  1  0
 22 58  1  0
 24 59  1  0
 27 60  1  0
 28 61  1  0
 32 62  1  0
 33 63  1  0
 34 64  1  0
 35 65  1  0
 36 66  1  0
M  END
>  <smiles>  (89) 
CC(NC(=O)[C@H]1C[C@H](N(C)C)CN1C(=O)CNC(=O)c1ccc2cc(Cl)ccc2n1)c1ccccc1

>  <score_type>  (89) 
oracle

>  <origin>  (89) 
autodockgpu

>  <m_score__min__energy>  (89) 
-9.8900000000000006

>  <m_primary>  (89) 
energy

>  <rmsd>  (89) 
5.649035933497881

>  <m_score__min__rmsd>  (89) 
5.649035933497881

>  <meeko>  (89) 
{"free_energy": -8.54, "intermolecular_energy": -10.93, "internal_energy": -3.0, "cluster_size": 6, "cluster_id": 2, "rank_in_cluster": 6}

>  <energy>  (89) 
-6.48

>  <cluster_rmsd>  (89) 
1.89

>  <cluster>  (89) 
8

$$$$

     RDKit          3D

 66 69  0  0  1  0  0  0  0  0999 V2000
  142.1440   77.6760  220.1050 C   0  0  0  0  0  0  0  0  0  0  0  0
  140.9380   78.4570  220.5610 C   0  0  1  0  0  0  0  0  0  0  0  0
  139.7920   77.6000  220.7960 N   0  0  0  0  0  0  0  0  0  0  0  0
  139.7380   76.6080  221.7970 C   0  0  0  0  0  0  0  0  0  0  0  0
  140.7510   76.4430  222.5470 O   0  0  0  0  0  0  0  0  0  0  0  0
  138.5750   75.7290  222.0480 C   0  0  1  0  0  0  0  0  0  0  0  0
  137.7160   76.3990  223.1080 C   0  0  0  0  0  0  0  0  0  0  0  0
  136.4610   76.8570  222.4210 C   0  0  2  0  0  0  0  0  0  0  0  0
  135.3370   76.0990  222.9260 N   0  0  0  0  0  0  0  0  0  0  0  0
  135.7990   74.7860  223.3170 C   0  0  0  0  0  0  0  0  0  0  0  0
  134.6450   76.7670  223.9920 C   0  0  0  0  0  0  0  0  0  0  0  0
  136.6850   76.6210  220.9500 C   0  0  0  0  0  0  0  0  0  0  0  0
  137.7050   75.5620  220.9210 N   0  0  0  0  0  0  0  0  0  0  0  0
  137.8220   74.5220  219.9350 C   0  0  0  0  0  0  0  0  0  0  0  0
  136.9120   74.2940  219.0930 O   0  0  0  0  0  0  0  0  0  0  0  0
  139.0570   73.6990  219.9200 C   0  0  0  0  0  0  0  0  0  0  0  0
  138.9910   72.7090  220.9850 N   0  0  0  0  0  0  0  0  0  0  0  0
  139.9550   72.8280  222.0240 C   0  0  0  0  0  0  0  0  0  0  0  0
  140.7740   73.7840  221.9190 O   0  0  0  0  0  0  0  0  0  0  0  0
  139.9940   71.9000  223.1480 C   0  0  0  0  0  0  0  0  0  0  0  0
  139.4820   70.6320  222.9630 C   0  0  0  0  0  0  0  0  0  0  0  0
  139.4820   69.6990  223.9800 C   0  0  0  0  0  0  0  0  0  0  0  0
  140.0190   70.0940  225.1850 C   0  0  0  0  0  0  0  0  0  0  0  0
  140.0350   69.1820  226.2240 C   0  0  0  0  0  0  0  0  0  0  0  0
  140.5700   69.5500  227.4560 C   0  0  0  0  0  0  0  0  0  0  0  0
  140.5600   68.3550  228.7210 Cl  0  0  0  0  0  0  0  0  0  0  0  0
  141.0860   70.8250  227.6460 C   0  0  0  0  0  0  0  0  0  0  0  0
  141.0720   71.7500  226.5970 C   0  0  0  0  0  0  0  0  0  0  0  0
  140.5400   71.3790  225.3780 C   0  0  0  0  0  0  0  0  0  0  0  0
  140.5120   72.2480  224.3460 N   0  0  0  0  0  0  0  0  0  0  0  0
  141.2440   79.3490  221.7090 C   0  0  0  0  0  0  0  0  0  0  0  0
  142.5240   79.3950  222.2310 C   0  0  0  0  0  0  0  0  0  0  0  0
  142.8720   80.2040  223.2970 C   0  0  0  0  0  0  0  0  0  0  0  0
  141.8990   81.0160  223.8840 C   0  0  0  0  0  0  0  0  0  0  0  0
  140.6050   80.9760  223.3630 C   0  0  0  0  0  0  0  0  0  0  0  0
  140.2780   80.1590  222.2950 C   0  0  0  0  0  0  0  0  0  0  0  0
  142.7007   77.3155  220.9826 H   0  0  0  0  0  0  0  0  0  0  0  0
  141.8175   76.8174  219.4998 H   0  0  0  0  0  0  0  0  0  0  0  0
  142.7939   78.3252  219.4998 H   0  0  0  0  0  0  0  0  0  0  0  0
  140.6554   79.1234  219.7327 H   0  0  0  0  0  0  0  0  0  0  0  0
  138.9680   77.7430  220.1740 H   0  0  0  0  0  0  0  0  0  0  0  0
  138.9874   74.7473  222.3243 H   0  0  0  0  0  0  0  0  0  0  0  0
  137.4714   75.6826  223.9061 H   0  0  0  0  0  0  0  0  0  0  0  0
  138.2457   77.2454  223.5694 H   0  0  0  0  0  0  0  0  0  0  0  0
  136.2379   77.9185  222.6041 H   0  0  0  0  0  0  0  0  0  0  0  0
  135.8231   74.7176  224.4146 H   0  0  0  0  0  0  0  0  0  0  0  0
  135.1155   74.0226  222.9169 H   0  0  0  0  0  0  0  0  0  0  0  0
  136.8099   74.6188  222.9169 H   0  0  0  0  0  0  0  0  0  0  0  0
  135.0223   76.4028  224.9590 H   0  0  0  0  0  0  0  0  0  0  0  0
  134.8151   77.8512  223.9169 H   0  0  0  0  0  0  0  0  0  0  0  0
  133.5675   76.5588  223.9169 H   0  0  0  0  0  0  0  0  0  0  0  0
  135.7583   76.2873  220.4602 H   0  0  0  0  0  0  0  0  0  0  0  0
  136.9968   77.5295  220.4140 H   0  0  0  0  0  0  0  0  0  0  0  0
  139.1463   73.1888  218.9496 H   0  0  0  0  0  0  0  0  0  0  0  0
  139.9324   74.3470  220.0743 H   0  0  0  0  0  0  0  0  0  0  0  0
  138.2810   71.9400  221.0080 H   0  0  0  0  0  0  0  0  0  0  0  0
  139.0644   70.3587  221.9827 H   0  0  0  0  0  0  0  0  0  0  0  0
  139.0727   68.6883  223.8350 H   0  0  0  0  0  0  0  0  0  0  0  0
  139.6272   68.1708  226.0783 H   0  0  0  0  0  0  0  0  0  0  0  0
  141.5062   71.1078  228.6224 H   0  0  0  0  0  0  0  0  0  0  0  0
  141.4801   72.7613  226.7414 H   0  0  0  0  0  0  0  0  0  0  0  0
  143.2995   78.7598  221.7781 H   0  0  0  0  0  0  0  0  0  0  0  0
  143.9037   80.2080  223.6785 H   0  0  0  0  0  0  0  0  0  0  0  0
  142.1459   81.6693  224.7339 H   0  0  0  0  0  0  0  0  0  0  0  0
  139.8259   81.6094  223.8123 H   0  0  0  0  0  0  0  0  0  0  0  0
  139.2485   80.1504  221.9078 H   0  0  0  0  0  0  0  0  0  0  0  0
  1  2  1  0
  2  3  1  0
  3  4  1  0
  4  5  2  0
  4  6  1  0
  6  7  1  0
  7  8  1  0
  8  9  1  0
  9 10  1  0
  9 11  1  0
  8 12  1  0
 12 13  1  0
 13 14  1  0
 14 15  2  0
 14 16  1  0
 16 17  1  0
 17 18  1  0
 18 19  2  0
 18 20  1  0
 20 21  2  0
 21 22  1  0
 22 23  2  0
 23 24  1  0
 24 25  2  0
 25 26  1  0
 25 27  1  0
 27 28  2  0
 28 29  1  0
 29 30  2  0
  2 31  1  0
 31 32  2  0
 32 33  1  0
 33 34  2  0
 34 35  1  0
 35 36  2  0
 13  6  1  0
 30 20  1  0
 36 31  1  0
 29 23  1  0
  1 37  1  0
  1 38  1  0
  1 39  1  0
  2 40  1  6
  3 41  1  0
  6 42  1  1
  7 43  1  0
  7 44  1  0
  8 45  1  6
 10 46  1  0
 10 47  1  0
 10 48  1  0
 11 49  1  0
 11 50  1  0
 11 51  1  0
 12 52  1  0
 12 53  1  0
 16 54  1  0
 16 55  1  0
 17 56  1  0
 21 57  1  0
 22 58  1  0
 24 59  1  0
 27 60  1  0
 28 61  1  0
 32 62  1  0
 33 63  1  0
 34 64  1  0
 35 65  1  0
 36 66  1  0
M  END
>  <smiles>  (90) 
CC(NC(=O)[C@H]1C[C@H](N(C)C)CN1C(=O)CNC(=O)c1ccc2cc(Cl)ccc2n1)c1ccccc1

>  <score_type>  (90) 
oracle

>  <origin>  (90) 
autodockgpu

>  <m_score__min__energy>  (90) 
-9.8900000000000006

>  <m_primary>  (90) 
energy

>  <rmsd>  (90) 
3.3120788123370453

>  <m_score__min__rmsd>  (90) 
3.3120788123370453

>  <meeko>  (90) 
{"free_energy": -8.57, "intermolecular_energy": -10.96, "internal_energy": -2.38, "cluster_size": 1, "cluster_id": 4, "rank_in_cluster": 1}

>  <energy>  (90) 
-6.33

>  <cluster_rmsd>  (90) 
1.87

>  <cluster>  (90) 
8

$$$$

     RDKit          3D

 66 69  0  0  1  0  0  0  0  0999 V2000
  138.1910   70.0250  222.4360 C   0  0  0  0  0  0  0  0  0  0  0  0
  138.3610   71.1750  223.3970 C   0  0  1  0  0  0  0  0  0  0  0  0
  137.1210   71.8980  223.6030 N   0  0  0  0  0  0  0  0  0  0  0  0
  135.8730   71.2820  223.8240 C   0  0  0  0  0  0  0  0  0  0  0  0
  135.8150   70.0120  223.8440 O   0  0  0  0  0  0  0  0  0  0  0  0
  134.6020   72.0080  224.0370 C   0  0  1  0  0  0  0  0  0  0  0  0
  134.2640   71.9150  225.5160 C   0  0  0  0  0  0  0  0  0  0  0  0
  134.4520   73.2920  226.0890 C   0  0  2  0  0  0  0  0  0  0  0  0
  133.1680   73.8150  226.5000 N   0  0  0  0  0  0  0  0  0  0  0  0
  133.0140   75.1490  225.9630 C   0  0  0  0  0  0  0  0  0  0  0  0
  132.0720   72.9580  226.1410 C   0  0  0  0  0  0  0  0  0  0  0  0
  135.0710   74.1170  224.9900 C   0  0  0  0  0  0  0  0  0  0  0  0
  134.6690   73.4130  223.7630 N   0  0  0  0  0  0  0  0  0  0  0  0
  134.3850   74.0210  222.4900 C   0  0  0  0  0  0  0  0  0  0  0  0
  133.2540   74.5080  222.2210 O   0  0  0  0  0  0  0  0  0  0  0  0
  135.4660   74.0680  221.4740 C   0  0  0  0  0  0  0  0  0  0  0  0
  136.3590   75.1780  221.7700 N   0  0  0  0  0  0  0  0  0  0  0  0
  137.7400   74.8640  221.9020 C   0  0  0  0  0  0  0  0  0  0  0  0
  138.0540   73.6510  221.7480 O   0  0  0  0  0  0  0  0  0  0  0  0
  138.7360   75.8870  222.1980 C   0  0  0  0  0  0  0  0  0  0  0  0
  140.0640   75.5840  221.9810 C   0  0  0  0  0  0  0  0  0  0  0  0
  141.0650   76.4990  222.2400 C   0  0  0  0  0  0  0  0  0  0  0  0
  140.6720   77.7280  222.7230 C   0  0  0  0  0  0  0  0  0  0  0  0
  141.6510   78.6670  222.9920 C   0  0  0  0  0  0  0  0  0  0  0  0
  141.2870   79.9190  223.4820 C   0  0  0  0  0  0  0  0  0  0  0  0
  142.5670   81.0550  223.7990 Cl  0  0  0  0  0  0  0  0  0  0  0  0
  139.9520   80.2280  223.7020 C   0  0  0  0  0  0  0  0  0  0  0  0
  138.9600   79.2800  223.4310 C   0  0  0  0  0  0  0  0  0  0  0  0
  139.3270   78.0410  222.9450 C   0  0  0  0  0  0  0  0  0  0  0  0
  138.3930   77.1050  222.6730 N   0  0  0  0  0  0  0  0  0  0  0  0
  139.0110   70.7580  224.6660 C   0  0  0  0  0  0  0  0  0  0  0  0
  140.0520   71.5010  225.1910 C   0  0  0  0  0  0  0  0  0  0  0  0
  140.6960   71.1660  226.3660 C   0  0  0  0  0  0  0  0  0  0  0  0
  140.2900   70.0290  227.0670 C   0  0  0  0  0  0  0  0  0  0  0  0
  139.2400   69.2720  226.5460 C   0  0  0  0  0  0  0  0  0  0  0  0
  138.6080   69.6260  225.3660 C   0  0  0  0  0  0  0  0  0  0  0  0
  138.0530   69.0918  223.0017 H   0  0  0  0  0  0  0  0  0  0  0  0
  137.3095   70.2036  221.8027 H   0  0  0  0  0  0  0  0  0  0  0  0
  139.0865   69.9409  221.8027 H   0  0  0  0  0  0  0  0  0  0  0  0
  139.0548   71.8876  222.9271 H   0  0  0  0  0  0  0  0  0  0  0  0
  137.1800   72.9390  223.5820 H   0  0  0  0  0  0  0  0  0  0  0  0
  133.8708   71.5498  223.3548 H   0  0  0  0  0  0  0  0  0  0  0  0
  133.2217   71.5888  225.6470 H   0  0  0  0  0  0  0  0  0  0  0  0
  134.9092   71.1833  226.0243 H   0  0  0  0  0  0  0  0  0  0  0  0
  135.1000   73.2995  226.9778 H   0  0  0  0  0  0  0  0  0  0  0  0
  132.9308   75.8697  226.7898 H   0  0  0  0  0  0  0  0  0  0  0  0
  133.8893   75.3989  225.3454 H   0  0  0  0  0  0  0  0  0  0  0  0
  132.1048   75.1929  225.3454 H   0  0  0  0  0  0  0  0  0  0  0  0
  131.5882   72.5797  227.0536 H   0  0  0  0  0  0  0  0  0  0  0  0
  131.3411   73.5266  225.5473 H   0  0  0  0  0  0  0  0  0  0  0  0
  132.4476   72.1116  225.5473 H   0  0  0  0  0  0  0  0  0  0  0  0
  134.6776   75.1442  225.0006 H   0  0  0  0  0  0  0  0  0  0  0  0
  136.1622   74.2136  225.0901 H   0  0  0  0  0  0  0  0  0  0  0  0
  136.0323   73.1252  221.4966 H   0  0  0  0  0  0  0  0  0  0  0  0
  135.0261   74.2064  220.4753 H   0  0  0  0  0  0  0  0  0  0  0  0
  136.0270   76.1640  221.8840 H   0  0  0  0  0  0  0  0  0  0  0  0
  140.3318   74.5903  221.5926 H   0  0  0  0  0  0  0  0  0  0  0  0
  142.1247   76.2585  222.0690 H   0  0  0  0  0  0  0  0  0  0  0  0
  142.7106   78.4266  222.8201 H   0  0  0  0  0  0  0  0  0  0  0  0
  139.6739   81.2191  224.0897 H   0  0  0  0  0  0  0  0  0  0  0  0
  137.9001   79.5188  223.6030 H   0  0  0  0  0  0  0  0  0  0  0  0
  140.3822   72.3992  224.6486 H   0  0  0  0  0  0  0  0  0  0  0  0
  141.5199   71.7883  226.7454 H   0  0  0  0  0  0  0  0  0  0  0  0
  140.7848   69.7376  228.0052 H   0  0  0  0  0  0  0  0  0  0  0  0
  138.9066   68.3731  227.0853 H   0  0  0  0  0  0  0  0  0  0  0  0
  137.7831   69.0088  224.9804 H   0  0  0  0  0  0  0  0  0  0  0  0
  1  2  1  0
  2  3  1  0
  3  4  1  0
  4  5  2  0
  4  6  1  0
  6  7  1  0
  7  8  1  0
  8  9  1  0
  9 10  1  0
  9 11  1  0
  8 12  1  0
 12 13  1  0
 13 14  1  0
 14 15  2  0
 14 16  1  0
 16 17  1  0
 17 18  1  0
 18 19  2  0
 18 20  1  0
 20 21  2  0
 21 22  1  0
 22 23  2  0
 23 24  1  0
 24 25  2  0
 25 26  1  0
 25 27  1  0
 27 28  2  0
 28 29  1  0
 29 30  2  0
  2 31  1  0
 31 32  2  0
 32 33  1  0
 33 34  2  0
 34 35  1  0
 35 36  2  0
 13  6  1  0
 30 20  1  0
 36 31  1  0
 29 23  1  0
  1 37  1  0
  1 38  1  0
  1 39  1  0
  2 40  1  6
  3 41  1  0
  6 42  1  6
  7 43  1  0
  7 44  1  0
  8 45  1  1
 10 46  1  0
 10 47  1  0
 10 48  1  0
 11 49  1  0
 11 50  1  0
 11 51  1  0
 12 52  1  0
 12 53  1  0
 16 54  1  0
 16 55  1  0
 17 56  1  0
 21 57  1  0
 22 58  1  0
 24 59  1  0
 27 60  1  0
 28 61  1  0
 32 62  1  0
 33 63  1  0
 34 64  1  0
 35 65  1  0
 36 66  1  0
M  END
>  <smiles>  (91) 
CC(NC(=O)[C@H]1C[C@H](N(C)C)CN1C(=O)CNC(=O)c1ccc2cc(Cl)ccc2n1)c1ccccc1

>  <score_type>  (91) 
oracle

>  <origin>  (91) 
autodockgpu

>  <m_score__min__energy>  (91) 
-9.8900000000000006

>  <m_primary>  (91) 
energy

>  <rmsd>  (91) 
9.426390141436626

>  <m_score__min__rmsd>  (91) 
9.426390141436626

>  <meeko>  (91) 
{"free_energy": -8.14, "intermolecular_energy": -10.53, "internal_energy": -3.27, "cluster_size": 5, "cluster_id": 6, "rank_in_cluster": 4}

>  <energy>  (91) 
-6.32

>  <cluster_rmsd>  (91) 
1.79

>  <cluster>  (91) 
8

$$$$

     RDKit          3D

 66 69  0  0  1  0  0  0  0  0999 V2000
  142.9330   79.6650  223.3070 C   0  0  0  0  0  0  0  0  0  0  0  0
  141.8870   79.7270  222.2230 C   0  0  1  0  0  0  0  0  0  0  0  0
  141.7860   78.4780  221.4930 N   0  0  0  0  0  0  0  0  0  0  0  0
  141.6370   78.3900  220.0940 C   0  0  0  0  0  0  0  0  0  0  0  0
  141.5860   79.4650  219.4170 O   0  0  0  0  0  0  0  0  0  0  0  0
  141.5340   77.1230  219.3370 C   0  0  1  0  0  0  0  0  0  0  0  0
  142.4190   77.2510  218.1080 C   0  0  0  0  0  0  0  0  0  0  0  0
  143.5880   76.3320  218.3200 C   0  0  2  0  0  0  0  0  0  0  0  0
  143.5280   75.2550  217.3560 N   0  0  0  0  0  0  0  0  0  0  0  0
  142.1610   75.1050  216.9090 C   0  0  0  0  0  0  0  0  0  0  0  0
  144.4390   75.4320  216.2600 C   0  0  0  0  0  0  0  0  0  0  0  0
  143.4680   75.8290  219.7360 C   0  0  0  0  0  0  0  0  0  0  0  0
  142.0350   75.9750  220.0330 N   0  0  0  0  0  0  0  0  0  0  0  0
  141.2520   75.1150  220.8780 C   0  0  0  0  0  0  0  0  0  0  0  0
  140.8080   75.4980  221.9940 O   0  0  0  0  0  0  0  0  0  0  0  0
  140.9640   73.7360  220.4100 C   0  0  0  0  0  0  0  0  0  0  0  0
  141.1420   72.8040  221.5130 N   0  0  0  0  0  0  0  0  0  0  0  0
  139.9940   72.5360  222.3090 C   0  0  0  0  0  0  0  0  0  0  0  0
  138.9320   73.1340  221.9780 O   0  0  0  0  0  0  0  0  0  0  0  0
  140.0410   71.6210  223.4430 C   0  0  0  0  0  0  0  0  0  0  0  0
  139.5640   70.3390  223.2660 C   0  0  0  0  0  0  0  0  0  0  0  0
  139.5730   69.4170  224.2930 C   0  0  0  0  0  0  0  0  0  0  0  0
  140.0810   69.8400  225.5020 C   0  0  0  0  0  0  0  0  0  0  0  0
  140.1050   68.9390  226.5520 C   0  0  0  0  0  0  0  0  0  0  0  0
  140.6120   69.3350  227.7860 C   0  0  0  0  0  0  0  0  0  0  0  0
  140.6130   68.1540  229.0650 Cl  0  0  0  0  0  0  0  0  0  0  0  0
  141.0920   70.6250  227.9690 C   0  0  0  0  0  0  0  0  0  0  0  0
  141.0700   71.5370  226.9100 C   0  0  0  0  0  0  0  0  0  0  0  0
  140.5660   71.1390  225.6880 C   0  0  0  0  0  0  0  0  0  0  0  0
  140.5310   71.9960  224.6460 N   0  0  0  0  0  0  0  0  0  0  0  0
  140.5780   80.2150  222.7300 C   0  0  0  0  0  0  0  0  0  0  0  0
  139.9470   81.2800  222.1150 C   0  0  0  0  0  0  0  0  0  0  0  0
  138.7300   81.7790  222.5380 C   0  0  0  0  0  0  0  0  0  0  0  0
  138.0970   81.1920  223.6360 C   0  0  0  0  0  0  0  0  0  0  0  0
  138.7260   80.1160  224.2630 C   0  0  0  0  0  0  0  0  0  0  0  0
  139.9450   79.6320  223.8230 C   0  0  0  0  0  0  0  0  0  0  0  0
  142.4430   79.6940  224.2914 H   0  0  0  0  0  0  0  0  0  0  0  0
  143.5064   78.7313  223.2102 H   0  0  0  0  0  0  0  0  0  0  0  0
  143.6127   80.5244  223.2102 H   0  0  0  0  0  0  0  0  0  0  0  0
  142.2231   80.4788  221.4938 H   0  0  0  0  0  0  0  0  0  0  0  0
  141.8270   77.6030  222.0580 H   0  0  0  0  0  0  0  0  0  0  0  0
  140.4630   76.9739  219.1352 H   0  0  0  0  0  0  0  0  0  0  0  0
  141.8619   76.9541  217.2072 H   0  0  0  0  0  0  0  0  0  0  0  0
  142.7528   78.2897  217.9673 H   0  0  0  0  0  0  0  0  0  0  0  0
  144.5564   76.8341  218.1781 H   0  0  0  0  0  0  0  0  0  0  0  0
  141.4957   75.0320  217.7819 H   0  0  0  0  0  0  0  0  0  0  0  0
  141.8757   75.9772  216.3025 H   0  0  0  0  0  0  0  0  0  0  0  0
  142.0717   74.1917  216.3025 H   0  0  0  0  0  0  0  0  0  0  0  0
  145.4485   75.6281  216.6503 H   0  0  0  0  0  0  0  0  0  0  0  0
  144.4544   74.5201  215.6451 H   0  0  0  0  0  0  0  0  0  0  0  0
  144.1118   76.2834  215.6451 H   0  0  0  0  0  0  0  0  0  0  0  0
  143.7787   74.7762  219.8067 H   0  0  0  0  0  0  0  0  0  0  0  0
  144.1094   76.3781  220.4411 H   0  0  0  0  0  0  0  0  0  0  0  0
  139.9272   73.6808  220.0467 H   0  0  0  0  0  0  0  0  0  0  0  0
  141.6525   73.4741  219.5931 H   0  0  0  0  0  0  0  0  0  0  0  0
  142.0560   72.3420  221.7310 H   0  0  0  0  0  0  0  0  0  0  0  0
  139.1671   70.0445  222.2833 H   0  0  0  0  0  0  0  0  0  0  0  0
  139.1931   68.3942  224.1532 H   0  0  0  0  0  0  0  0  0  0  0  0
  139.7256   67.9160  226.4121 H   0  0  0  0  0  0  0  0  0  0  0  0
  141.4899   70.9295  228.9483 H   0  0  0  0  0  0  0  0  0  0  0  0
  141.4499   72.5600  227.0487 H   0  0  0  0  0  0  0  0  0  0  0  0
  140.4358   81.7516  221.2498 H   0  0  0  0  0  0  0  0  0  0  0  0
  138.2651   82.6285  222.0162 H   0  0  0  0  0  0  0  0  0  0  0  0
  137.1283   81.5681  223.9968 H   0  0  0  0  0  0  0  0  0  0  0  0
  138.2408   79.6409  225.1283 H   0  0  0  0  0  0  0  0  0  0  0  0
  140.4157   78.7826  224.3396 H   0  0  0  0  0  0  0  0  0  0  0  0
  1  2  1  0
  2  3  1  0
  3  4  1  0
  4  5  2  0
  4  6  1  0
  6  7  1  0
  7  8  1  0
  8  9  1  0
  9 10  1  0
  9 11  1  0
  8 12  1  0
 12 13  1  0
 13 14  1  0
 14 15  2  0
 14 16  1  0
 16 17  1  0
 17 18  1  0
 18 19  2  0
 18 20  1  0
 20 21  2  0
 21 22  1  0
 22 23  2  0
 23 24  1  0
 24 25  2  0
 25 26  1  0
 25 27  1  0
 27 28  2  0
 28 29  1  0
 29 30  2  0
  2 31  1  0
 31 32  2  0
 32 33  1  0
 33 34  2  0
 34 35  1  0
 35 36  2  0
 13  6  1  0
 30 20  1  0
 36 31  1  0
 29 23  1  0
  1 37  1  0
  1 38  1  0
  1 39  1  0
  2 40  1  6
  3 41  1  0
  6 42  1  6
  7 43  1  0
  7 44  1  0
  8 45  1  1
 10 46  1  0
 10 47  1  0
 10 48  1  0
 11 49  1  0
 11 50  1  0
 11 51  1  0
 12 52  1  0
 12 53  1  0
 16 54  1  0
 16 55  1  0
 17 56  1  0
 21 57  1  0
 22 58  1  0
 24 59  1  0
 27 60  1  0
 28 61  1  0
 32 62  1  0
 33 63  1  0
 34 64  1  0
 35 65  1  0
 36 66  1  0
M  END
>  <smiles>  (92) 
CC(NC(=O)[C@H]1C[C@H](N(C)C)CN1C(=O)CNC(=O)c1ccc2cc(Cl)ccc2n1)c1ccccc1

>  <score_type>  (92) 
oracle

>  <origin>  (92) 
autodockgpu

>  <m_score__min__energy>  (92) 
-9.8900000000000006

>  <m_primary>  (92) 
energy

>  <rmsd>  (92) 
2.418760748452121

>  <m_score__min__rmsd>  (92) 
2.418760748452121

>  <meeko>  (92) 
{"free_energy": -8.89, "intermolecular_energy": -11.28, "internal_energy": -2.31, "cluster_size": 1, "cluster_id": 3, "rank_in_cluster": 1}

>  <energy>  (92) 
-6.31

>  <cluster_rmsd>  (92) 
1.23

>  <cluster>  (92) 
8

$$$$

     RDKit          3D

 66 69  0  0  1  0  0  0  0  0999 V2000
  139.1080   77.1830  222.2290 C   0  0  0  0  0  0  0  0  0  0  0  0
  140.5740   77.1860  222.5790 C   0  0  1  0  0  0  0  0  0  0  0  0
  141.3280   76.2440  221.7750 N   0  0  0  0  0  0  0  0  0  0  0  0
  141.6010   76.4170  220.4020 C   0  0  0  0  0  0  0  0  0  0  0  0
  141.1650   77.4590  219.8200 O   0  0  0  0  0  0  0  0  0  0  0  0
  142.3700   75.4650  219.5720 C   0  0  1  0  0  0  0  0  0  0  0  0
  143.8140   75.5080  220.0440 C   0  0  0  0  0  0  0  0  0  0  0  0
  144.0830   74.1980  220.7300 C   0  0  2  0  0  0  0  0  0  0  0  0
  145.0460   73.4450  219.9570 N   0  0  0  0  0  0  0  0  0  0  0  0
  146.3100   73.4460  220.6600 C   0  0  0  0  0  0  0  0  0  0  0  0
  144.6000   72.1140  219.6500 C   0  0  0  0  0  0  0  0  0  0  0  0
  142.7530   73.4940  220.8140 C   0  0  0  0  0  0  0  0  0  0  0  0
  141.9750   74.0950  219.7210 N   0  0  0  0  0  0  0  0  0  0  0  0
  140.9800   73.4310  218.9220 C   0  0  0  0  0  0  0  0  0  0  0  0
  141.2260   73.0150  217.7580 O   0  0  0  0  0  0  0  0  0  0  0  0
  139.6260   73.2370  219.4990 C   0  0  0  0  0  0  0  0  0  0  0  0
  139.6910   72.2420  220.5590 N   0  0  0  0  0  0  0  0  0  0  0  0
  139.8930   72.7320  221.8790 C   0  0  0  0  0  0  0  0  0  0  0  0
  139.9960   73.9840  222.0000 O   0  0  0  0  0  0  0  0  0  0  0  0
  139.9770   71.8370  223.0270 C   0  0  0  0  0  0  0  0  0  0  0  0
  139.5150   70.5450  222.8810 C   0  0  0  0  0  0  0  0  0  0  0  0
  139.5580   69.6420  223.9240 C   0  0  0  0  0  0  0  0  0  0  0  0
  140.0860   70.0920  225.1140 C   0  0  0  0  0  0  0  0  0  0  0  0
  140.1450   69.2100  226.1780 C   0  0  0  0  0  0  0  0  0  0  0  0
  140.6710   69.6340  227.3950 C   0  0  0  0  0  0  0  0  0  0  0  0
  140.7170   68.4750  228.6930 Cl  0  0  0  0  0  0  0  0  0  0  0  0
  141.1360   70.9330  227.5460 C   0  0  0  0  0  0  0  0  0  0  0  0
  141.0790   71.8270  226.4720 C   0  0  0  0  0  0  0  0  0  0  0  0
  140.5550   71.4010  225.2680 C   0  0  0  0  0  0  0  0  0  0  0  0
  140.4860   72.2400  224.2130 N   0  0  0  0  0  0  0  0  0  0  0  0
  141.1530   78.5550  222.5700 C   0  0  0  0  0  0  0  0  0  0  0  0
  142.1760   78.8830  223.4410 C   0  0  0  0  0  0  0  0  0  0  0  0
  142.7550   80.1370  223.4810 C   0  0  0  0  0  0  0  0  0  0  0  0
  142.2980   81.1280  222.6090 C   0  0  0  0  0  0  0  0  0  0  0  0
  141.2670   80.8060  221.7260 C   0  0  0  0  0  0  0  0  0  0  0  0
  140.7010   79.5430  221.7030 C   0  0  0  0  0  0  0  0  0  0  0  0
  138.5105   77.1818  223.1526 H   0  0  0  0  0  0  0  0  0  0  0  0
  138.8699   78.0807  221.6395 H   0  0  0  0  0  0  0  0  0  0  0  0
  138.8736   76.2844  221.6395 H   0  0  0  0  0  0  0  0  0  0  0  0
  140.6567   76.8332  223.6176 H   0  0  0  0  0  0  0  0  0  0  0  0
  141.6790   75.3920  222.2620 H   0  0  0  0  0  0  0  0  0  0  0  0
  142.2046   75.7685  218.5277 H   0  0  0  0  0  0  0  0  0  0  0  0
  144.4901   75.6321  219.1852 H   0  0  0  0  0  0  0  0  0  0  0  0
  143.9823   76.3541  220.7265 H   0  0  0  0  0  0  0  0  0  0  0  0
  144.5088   74.3230  221.7365 H   0  0  0  0  0  0  0  0  0  0  0  0
  146.1263   73.4459  221.7446 H   0  0  0  0  0  0  0  0  0  0  0  0
  146.8832   72.5483  220.3851 H   0  0  0  0  0  0  0  0  0  0  0  0
  146.8818   74.3446  220.3851 H   0  0  0  0  0  0  0  0  0  0  0  0
  144.4158   71.5643  220.5848 H   0  0  0  0  0  0  0  0  0  0  0  0
  143.6698   72.1648  219.0651 H   0  0  0  0  0  0  0  0  0  0  0  0
  145.3730   71.5940  219.0651 H   0  0  0  0  0  0  0  0  0  0  0  0
  142.8715   72.4109  220.6625 H   0  0  0  0  0  0  0  0  0  0  0  0
  142.2700   73.6079  221.7957 H   0  0  0  0  0  0  0  0  0  0  0  0
  139.2628   74.1898  219.9116 H   0  0  0  0  0  0  0  0  0  0  0  0
  138.9374   72.8928  218.7133 H   0  0  0  0  0  0  0  0  0  0  0  0
  139.5970   71.2140  220.3850 H   0  0  0  0  0  0  0  0  0  0  0  0
  139.1032   70.2276  221.9116 H   0  0  0  0  0  0  0  0  0  0  0  0
  139.1883   68.6122  223.8104 H   0  0  0  0  0  0  0  0  0  0  0  0
  139.7783   68.1793  226.0630 H   0  0  0  0  0  0  0  0  0  0  0  0
  141.5498   71.2597  228.5114 H   0  0  0  0  0  0  0  0  0  0  0  0
  141.4473   72.8573  226.5853 H   0  0  0  0  0  0  0  0  0  0  0  0
  142.5451   78.1114  224.1326 H   0  0  0  0  0  0  0  0  0  0  0  0
  143.5666   80.3525  224.1915 H   0  0  0  0  0  0  0  0  0  0  0  0
  142.7393   82.1355  222.6183 H   0  0  0  0  0  0  0  0  0  0  0  0
  140.8951   81.5739  221.0317 H   0  0  0  0  0  0  0  0  0  0  0  0
  139.8893   79.3200  220.9949 H   0  0  0  0  0  0  0  0  0  0  0  0
  1  2  1  0
  2  3  1  0
  3  4  1  0
  4  5  2  0
  4  6  1  0
  6  7  1  0
  7  8  1  0
  8  9  1  0
  9 10  1  0
  9 11  1  0
  8 12  1  0
 12 13  1  0
 13 14  1  0
 14 15  2  0
 14 16  1  0
 16 17  1  0
 17 18  1  0
 18 19  2  0
 18 20  1  0
 20 21  2  0
 21 22  1  0
 22 23  2  0
 23 24  1  0
 24 25  2  0
 25 26  1  0
 25 27  1  0
 27 28  2  0
 28 29  1  0
 29 30  2  0
  2 31  1  0
 31 32  2  0
 32 33  1  0
 33 34  2  0
 34 35  1  0
 35 36  2  0
 13  6  1  0
 30 20  1  0
 36 31  1  0
 29 23  1  0
  1 37  1  0
  1 38  1  0
  1 39  1  0
  2 40  1  1
  3 41  1  0
  6 42  1  6
  7 43  1  0
  7 44  1  0
  8 45  1  1
 10 46  1  0
 10 47  1  0
 10 48  1  0
 11 49  1  0
 11 50  1  0
 11 51  1  0
 12 52  1  0
 12 53  1  0
 16 54  1  0
 16 55  1  0
 17 56  1  0
 21 57  1  0
 22 58  1  0
 24 59  1  0
 27 60  1  0
 28 61  1  0
 32 62  1  0
 33 63  1  0
 34 64  1  0
 35 65  1  0
 36 66  1  0
M  END
>  <smiles>  (93) 
CC(NC(=O)[C@H]1C[C@H](N(C)C)CN1C(=O)CNC(=O)c1ccc2cc(Cl)ccc2n1)c1ccccc1

>  <score_type>  (93) 
oracle

>  <origin>  (93) 
autodockgpu

>  <m_score__min__energy>  (93) 
-9.8900000000000006

>  <m_primary>  (93) 
energy

>  <rmsd>  (93) 
3.319757346319988

>  <m_score__min__rmsd>  (93) 
3.319757346319988

>  <meeko>  (93) 
{"free_energy": -9.81, "intermolecular_energy": -12.2, "internal_energy": -3.0, "cluster_size": 21, "cluster_id": 1, "rank_in_cluster": 3}

>  <energy>  (93) 
-6.21

>  <cluster_rmsd>  (93) 
1.81

>  <cluster>  (93) 
8

$$$$

     RDKit          3D

 66 69  0  0  1  0  0  0  0  0999 V2000
  139.5290   78.4320  220.0300 C   0  0  0  0  0  0  0  0  0  0  0  0
  140.2280   77.6710  221.1270 C   0  0  1  0  0  0  0  0  0  0  0  0
  140.9080   76.4930  220.6240 N   0  0  0  0  0  0  0  0  0  0  0  0
  141.9520   76.5260  219.6780 C   0  0  0  0  0  0  0  0  0  0  0  0
  142.3320   77.6520  219.2280 O   0  0  0  0  0  0  0  0  0  0  0  0
  142.6540   75.3320  219.1590 C   0  0  1  0  0  0  0  0  0  0  0  0
  144.0580   75.3370  219.7420 C   0  0  0  0  0  0  0  0  0  0  0  0
  144.1200   74.2040  220.7270 C   0  0  2  0  0  0  0  0  0  0  0  0
  145.0350   73.1960  220.2380 N   0  0  0  0  0  0  0  0  0  0  0  0
  145.1890   73.3610  218.8090 C   0  0  0  0  0  0  0  0  0  0  0  0
  146.2980   73.2070  220.9210 C   0  0  0  0  0  0  0  0  0  0  0  0
  142.7130   73.6790  220.8440 C   0  0  0  0  0  0  0  0  0  0  0  0
  142.0880   74.0830  219.5750 N   0  0  0  0  0  0  0  0  0  0  0  0
  141.0760   73.3550  218.8580 C   0  0  0  0  0  0  0  0  0  0  0  0
  141.2970   72.8400  217.7290 O   0  0  0  0  0  0  0  0  0  0  0  0
  139.7340   73.2150  219.4770 C   0  0  0  0  0  0  0  0  0  0  0  0
  139.7940   72.2220  220.5390 N   0  0  0  0  0  0  0  0  0  0  0  0
  139.9180   72.7170  221.8660 C   0  0  0  0  0  0  0  0  0  0  0  0
  139.9630   73.9730  221.9920 O   0  0  0  0  0  0  0  0  0  0  0  0
  139.9880   71.8240  223.0170 C   0  0  0  0  0  0  0  0  0  0  0  0
  139.5260   70.5340  222.8690 C   0  0  0  0  0  0  0  0  0  0  0  0
  139.5570   69.6320  223.9140 C   0  0  0  0  0  0  0  0  0  0  0  0
  140.0730   70.0830  225.1080 C   0  0  0  0  0  0  0  0  0  0  0  0
  140.1200   69.2040  226.1740 C   0  0  0  0  0  0  0  0  0  0  0  0
  140.6350   69.6280  227.3960 C   0  0  0  0  0  0  0  0  0  0  0  0
  140.6660   68.4730  228.6960 Cl  0  0  0  0  0  0  0  0  0  0  0  0
  141.1020   70.9270  227.5490 C   0  0  0  0  0  0  0  0  0  0  0  0
  141.0560   71.8190  226.4730 C   0  0  0  0  0  0  0  0  0  0  0  0
  140.5440   71.3920  225.2640 C   0  0  0  0  0  0  0  0  0  0  0  0
  140.4870   72.2280  224.2070 N   0  0  0  0  0  0  0  0  0  0  0  0
  141.1060   78.5450  221.9480 C   0  0  0  0  0  0  0  0  0  0  0  0
  141.7370   79.6330  221.3740 C   0  0  0  0  0  0  0  0  0  0  0  0
  142.5650   80.4820  222.0840 C   0  0  0  0  0  0  0  0  0  0  0  0
  142.7820   80.2450  223.4430 C   0  0  0  0  0  0  0  0  0  0  0  0
  142.1480   79.1500  224.0310 C   0  0  0  0  0  0  0  0  0  0  0  0
  141.3240   78.3120  223.3020 C   0  0  0  0  0  0  0  0  0  0  0  0
  138.8483   79.1731  220.4742 H   0  0  0  0  0  0  0  0  0  0  0  0
  140.2757   78.9467  219.4075 H   0  0  0  0  0  0  0  0  0  0  0  0
  138.9528   77.7316  219.4075 H   0  0  0  0  0  0  0  0  0  0  0  0
  139.4483   77.3036  221.8105 H   0  0  0  0  0  0  0  0  0  0  0  0
  140.5870   75.5750  220.9980 H   0  0  0  0  0  0  0  0  0  0  0  0
  142.5963   75.3974  218.0625 H   0  0  0  0  0  0  0  0  0  0  0  0
  144.8004   75.1870  218.9443 H   0  0  0  0  0  0  0  0  0  0  0  0
  144.2809   76.2977  220.2292 H   0  0  0  0  0  0  0  0  0  0  0  0
  144.4895   74.5181  221.7143 H   0  0  0  0  0  0  0  0  0  0  0  0
  145.9270   74.1517  218.6086 H   0  0  0  0  0  0  0  0  0  0  0  0
  145.5352   72.4156  218.3659 H   0  0  0  0  0  0  0  0  0  0  0  0
  144.2219   73.6412  218.3659 H   0  0  0  0  0  0  0  0  0  0  0  0
  146.1272   73.2055  222.0077 H   0  0  0  0  0  0  0  0  0  0  0  0
  146.8750   72.3138  220.6393 H   0  0  0  0  0  0  0  0  0  0  0  0
  146.8593   74.1101  220.6393 H   0  0  0  0  0  0  0  0  0  0  0  0
  142.7097   72.5844  220.9527 H   0  0  0  0  0  0  0  0  0  0  0  0
  142.1827   74.0686  221.7254 H   0  0  0  0  0  0  0  0  0  0  0  0
  139.4202   74.1824  219.8961 H   0  0  0  0  0  0  0  0  0  0  0  0
  139.0087   72.8948  218.7145 H   0  0  0  0  0  0  0  0  0  0  0  0
  139.7500   71.1910  220.3610 H   0  0  0  0  0  0  0  0  0  0  0  0
  139.1233   70.2157  221.8961 H   0  0  0  0  0  0  0  0  0  0  0  0
  139.1872   68.6025  223.7980 H   0  0  0  0  0  0  0  0  0  0  0  0
  139.7520   68.1740  226.0572 H   0  0  0  0  0  0  0  0  0  0  0  0
  141.5084   71.2544  228.5173 H   0  0  0  0  0  0  0  0  0  0  0  0
  141.4236   72.8493  226.5886 H   0  0  0  0  0  0  0  0  0  0  0  0
  141.5728   79.8319  220.3047 H   0  0  0  0  0  0  0  0  0  0  0  0
  143.0476   81.3348  221.5842 H   0  0  0  0  0  0  0  0  0  0  0  0
  143.4352   80.9039  224.0340 H   0  0  0  0  0  0  0  0  0  0  0  0
  142.3074   78.9483  225.1005 H   0  0  0  0  0  0  0  0  0  0  0  0
  140.8386   77.4570  223.7953 H   0  0  0  0  0  0  0  0  0  0  0  0
  1  2  1  0
  2  3  1  0
  3  4  1  0
  4  5  2  0
  4  6  1  0
  6  7  1  0
  7  8  1  0
  8  9  1  0
  9 10  1  0
  9 11  1  0
  8 12  1  0
 12 13  1  0
 13 14  1  0
 14 15  2  0
 14 16  1  0
 16 17  1  0
 17 18  1  0
 18 19  2  0
 18 20  1  0
 20 21  2  0
 21 22  1  0
 22 23  2  0
 23 24  1  0
 24 25  2  0
 25 26  1  0
 25 27  1  0
 27 28  2  0
 28 29  1  0
 29 30  2  0
  2 31  1  0
 31 32  2  0
 32 33  1  0
 33 34  2  0
 34 35  1  0
 35 36  2  0
 13  6  1  0
 30 20  1  0
 36 31  1  0
 29 23  1  0
  1 37  1  0
  1 38  1  0
  1 39  1  0
  2 40  1  1
  3 41  1  0
  6 42  1  6
  7 43  1  0
  7 44  1  0
  8 45  1  1
 10 46  1  0
 10 47  1  0
 10 48  1  0
 11 49  1  0
 11 50  1  0
 11 51  1  0
 12 52  1  0
 12 53  1  0
 16 54  1  0
 16 55  1  0
 17 56  1  0
 21 57  1  0
 22 58  1  0
 24 59  1  0
 27 60  1  0
 28 61  1  0
 32 62  1  0
 33 63  1  0
 34 64  1  0
 35 65  1  0
 36 66  1  0
M  END
>  <smiles>  (94) 
CC(NC(=O)[C@H]1C[C@H](N(C)C)CN1C(=O)CNC(=O)c1ccc2cc(Cl)ccc2n1)c1ccccc1

>  <score_type>  (94) 
oracle

>  <origin>  (94) 
autodockgpu

>  <m_score__min__energy>  (94) 
-9.8900000000000006

>  <m_primary>  (94) 
energy

>  <rmsd>  (94) 
3.3543280471523413

>  <m_score__min__rmsd>  (94) 
3.3543280471523413

>  <meeko>  (94) 
{"free_energy": -9.33, "intermolecular_energy": -11.72, "internal_energy": -2.98, "cluster_size": 21, "cluster_id": 1, "rank_in_cluster": 6}

>  <energy>  (94) 
-7.05

>  <cluster_rmsd>  (94) 
0.0

>  <cluster>  (94) 
9

$$$$

     RDKit          3D

 66 69  0  0  1  0  0  0  0  0999 V2000
  141.9080   80.2030  218.7140 C   0  0  0  0  0  0  0  0  0  0  0  0
  141.5080   79.1740  219.7410 C   0  0  1  0  0  0  0  0  0  0  0  0
  142.1880   77.9090  219.5380 N   0  0  0  0  0  0  0  0  0  0  0  0
  141.5870   76.7730  218.9580 C   0  0  0  0  0  0  0  0  0  0  0  0
  140.3740   76.8470  218.5870 O   0  0  0  0  0  0  0  0  0  0  0  0
  142.2700   75.4780  218.7440 C   0  0  1  0  0  0  0  0  0  0  0  0
  143.6680   75.5960  219.3290 C   0  0  0  0  0  0  0  0  0  0  0  0
  143.6970   74.7260  220.5540 C   0  0  2  0  0  0  0  0  0  0  0  0
  144.5960   73.6150  220.3280 N   0  0  0  0  0  0  0  0  0  0  0  0
  144.7710   73.4400  218.9030 C   0  0  0  0  0  0  0  0  0  0  0  0
  145.8510   73.7620  221.0110 C   0  0  0  0  0  0  0  0  0  0  0  0
  142.2780   74.2670  220.7700 C   0  0  0  0  0  0  0  0  0  0  0  0
  141.6740   74.3730  219.4340 N   0  0  0  0  0  0  0  0  0  0  0  0
  140.6540   73.5140  218.8930 C   0  0  0  0  0  0  0  0  0  0  0  0
  140.8240   72.8660  217.8260 O   0  0  0  0  0  0  0  0  0  0  0  0
  139.3680   73.3980  219.6260 C   0  0  0  0  0  0  0  0  0  0  0  0
  139.4880   72.3730  220.6510 N   0  0  0  0  0  0  0  0  0  0  0  0
  139.6870   72.8270  221.9840 C   0  0  0  0  0  0  0  0  0  0  0  0
  139.7400   74.0790  222.1450 O   0  0  0  0  0  0  0  0  0  0  0  0
  139.8220   71.9000  223.1010 C   0  0  0  0  0  0  0  0  0  0  0  0
  139.4090   70.5970  222.9190 C   0  0  0  0  0  0  0  0  0  0  0  0
  139.5030   69.6620  223.9310 C   0  0  0  0  0  0  0  0  0  0  0  0
  140.0300   70.0940  225.1280 C   0  0  0  0  0  0  0  0  0  0  0  0
  140.1390   69.1820  226.1620 C   0  0  0  0  0  0  0  0  0  0  0  0
  140.6670   69.5860  227.3840 C   0  0  0  0  0  0  0  0  0  0  0  0
  140.7760   68.3890  228.6430 Cl  0  0  0  0  0  0  0  0  0  0  0  0
  141.0830   70.8970  227.5720 C   0  0  0  0  0  0  0  0  0  0  0  0
  140.9750   71.8230  226.5290 C   0  0  0  0  0  0  0  0  0  0  0  0
  140.4510   71.4150  225.3180 C   0  0  0  0  0  0  0  0  0  0  0  0
  140.3340   72.2840  224.2920 N   0  0  0  0  0  0  0  0  0  0  0  0
  141.6330   79.6860  221.1310 C   0  0  0  0  0  0  0  0  0  0  0  0
  141.0140   80.8680  221.4940 C   0  0  0  0  0  0  0  0  0  0  0  0
  141.0920   81.3960  222.7690 C   0  0  0  0  0  0  0  0  0  0  0  0
  141.8250   80.7180  223.7450 C   0  0  0  0  0  0  0  0  0  0  0  0
  142.4530   79.5240  223.3880 C   0  0  0  0  0  0  0  0  0  0  0  0
  142.3620   79.0130  222.1050 C   0  0  0  0  0  0  0  0  0  0  0  0
  142.2612   81.1116  219.2236 H   0  0  0  0  0  0  0  0  0  0  0  0
  142.7144   79.7986  218.0846 H   0  0  0  0  0  0  0  0  0  0  0  0
  141.0402   80.4495  218.0846 H   0  0  0  0  0  0  0  0  0  0  0  0
  140.4371   78.9715  219.5918 H   0  0  0  0  0  0  0  0  0  0  0  0
  143.1820   77.8590  219.8480 H   0  0  0  0  0  0  0  0  0  0  0  0
  142.2250   75.2838  217.6622 H   0  0  0  0  0  0  0  0  0  0  0  0
  144.4149   75.2492  218.5997 H   0  0  0  0  0  0  0  0  0  0  0  0
  143.9060   76.6404  219.5791 H   0  0  0  0  0  0  0  0  0  0  0  0
  144.0626   75.2572  221.4452 H   0  0  0  0  0  0  0  0  0  0  0  0
  145.5379   72.6731  218.7192 H   0  0  0  0  0  0  0  0  0  0  0  0
  143.8190   73.1218  218.4530 H   0  0  0  0  0  0  0  0  0  0  0  0
  145.0892   74.3920  218.4530 H   0  0  0  0  0  0  0  0  0  0  0  0
  145.6816   73.7422  222.0977 H   0  0  0  0  0  0  0  0  0  0  0  0
  146.5208   72.9362  220.7292 H   0  0  0  0  0  0  0  0  0  0  0  0
  146.3118   74.7203  220.7292 H   0  0  0  0  0  0  0  0  0  0  0  0
  142.2518   73.2285  221.1317 H   0  0  0  0  0  0  0  0  0  0  0  0
  141.7469   74.8615  221.5279 H   0  0  0  0  0  0  0  0  0  0  0  0
  139.1257   74.3620  220.0973 H   0  0  0  0  0  0  0  0  0  0  0  0
  138.5675   73.1235  218.9233 H   0  0  0  0  0  0  0  0  0  0  0  0
  139.4340   71.3480  220.4440 H   0  0  0  0  0  0  0  0  0  0  0  0
  138.9952   70.2954  221.9455 H   0  0  0  0  0  0  0  0  0  0  0  0
  139.1730   68.6225  223.7880 H   0  0  0  0  0  0  0  0  0  0  0  0
  139.8098   68.1422  226.0188 H   0  0  0  0  0  0  0  0  0  0  0  0
  141.4979   71.2080  228.5421 H   0  0  0  0  0  0  0  0  0  0  0  0
  141.3033   72.8631  226.6716 H   0  0  0  0  0  0  0  0  0  0  0  0
  140.4338   81.4123  220.7343 H   0  0  0  0  0  0  0  0  0  0  0  0
  140.5822   82.3399  223.0121 H   0  0  0  0  0  0  0  0  0  0  0  0
  141.9053   81.1144  224.7679 H   0  0  0  0  0  0  0  0  0  0  0  0
  143.0341   78.9760  224.1443 H   0  0  0  0  0  0  0  0  0  0  0  0
  142.8691   78.0695  221.8546 H   0  0  0  0  0  0  0  0  0  0  0  0
  1  2  1  0
  2  3  1  0
  3  4  1  0
  4  5  2  0
  4  6  1  0
  6  7  1  0
  7  8  1  0
  8  9  1  0
  9 10  1  0
  9 11  1  0
  8 12  1  0
 12 13  1  0
 13 14  1  0
 14 15  2  0
 14 16  1  0
 16 17  1  0
 17 18  1  0
 18 19  2  0
 18 20  1  0
 20 21  2  0
 21 22  1  0
 22 23  2  0
 23 24  1  0
 24 25  2  0
 25 26  1  0
 25 27  1  0
 27 28  2  0
 28 29  1  0
 29 30  2  0
  2 31  1  0
 31 32  2  0
 32 33  1  0
 33 34  2  0
 34 35  1  0
 35 36  2  0
 13  6  1  0
 30 20  1  0
 36 31  1  0
 29 23  1  0
  1 37  1  0
  1 38  1  0
  1 39  1  0
  2 40  1  6
  3 41  1  0
  6 42  1  6
  7 43  1  0
  7 44  1  0
  8 45  1  1
 10 46  1  0
 10 47  1  0
 10 48  1  0
 11 49  1  0
 11 50  1  0
 11 51  1  0
 12 52  1  0
 12 53  1  0
 16 54  1  0
 16 55  1  0
 17 56  1  0
 21 57  1  0
 22 58  1  0
 24 59  1  0
 27 60  1  0
 28 61  1  0
 32 62  1  0
 33 63  1  0
 34 64  1  0
 35 65  1  0
 36 66  1  0
M  END
>  <smiles>  (95) 
CC(NC(=O)[C@H]1C[C@H](N(C)C)CN1C(=O)CNC(=O)c1ccc2cc(Cl)ccc2n1)c1ccccc1

>  <score_type>  (95) 
oracle

>  <origin>  (95) 
autodockgpu

>  <m_score__min__energy>  (95) 
-9.8900000000000006

>  <m_primary>  (95) 
energy

>  <rmsd>  (95) 
3.131917535975092

>  <m_score__min__rmsd>  (95) 
3.131917535975092

>  <meeko>  (95) 
{"free_energy": -9.53, "intermolecular_energy": -11.92, "internal_energy": -1.99, "cluster_size": 21, "cluster_id": 1, "rank_in_cluster": 4}

>  <energy>  (95) 
-6.85

>  <cluster_rmsd>  (95) 
1.64

>  <cluster>  (95) 
9

$$$$

     RDKit          3D

 66 69  0  0  1  0  0  0  0  0999 V2000
  141.7730   73.3760  218.3050 C   0  0  0  0  0  0  0  0  0  0  0  0
  142.6030   74.3770  219.0680 C   0  0  1  0  0  0  0  0  0  0  0  0
  141.8340   75.0510  220.0950 N   0  0  0  0  0  0  0  0  0  0  0  0
  141.9920   76.4100  220.4370 C   0  0  0  0  0  0  0  0  0  0  0  0
  142.8600   77.0990  219.8150 O   0  0  0  0  0  0  0  0  0  0  0  0
  141.2130   77.1100  221.4820 C   0  0  1  0  0  0  0  0  0  0  0  0
  141.7540   78.5270  221.5840 C   0  0  0  0  0  0  0  0  0  0  0  0
  140.6920   79.4340  221.0300 C   0  0  2  0  0  0  0  0  0  0  0  0
  140.1680   80.2590  222.0970 N   0  0  0  0  0  0  0  0  0  0  0  0
  140.4920   79.6440  223.3640 C   0  0  0  0  0  0  0  0  0  0  0  0
  140.6200   81.6210  222.0260 C   0  0  0  0  0  0  0  0  0  0  0  0
  139.6380   78.5310  220.4460 C   0  0  0  0  0  0  0  0  0  0  0  0
  139.8220   77.2680  221.1780 N   0  0  0  0  0  0  0  0  0  0  0  0
  138.7860   76.3370  221.5380 C   0  0  0  0  0  0  0  0  0  0  0  0
  137.7980   76.6770  222.2420 O   0  0  0  0  0  0  0  0  0  0  0  0
  138.8980   74.9370  221.0590 C   0  0  0  0  0  0  0  0  0  0  0  0
  138.9300   74.0360  222.2010 N   0  0  0  0  0  0  0  0  0  0  0  0
  139.7860   72.9060  222.0960 C   0  0  0  0  0  0  0  0  0  0  0  0
  140.4350   72.7950  221.0180 O   0  0  0  0  0  0  0  0  0  0  0  0
  139.9070   71.9290  223.1710 C   0  0  0  0  0  0  0  0  0  0  0  0
  139.4970   70.6350  222.9250 C   0  0  0  0  0  0  0  0  0  0  0  0
  139.5770   69.6550  223.8940 C   0  0  0  0  0  0  0  0  0  0  0  0
  140.0880   70.0330  225.1170 C   0  0  0  0  0  0  0  0  0  0  0  0
  140.1840   69.0740  226.1090 C   0  0  0  0  0  0  0  0  0  0  0  0
  140.6960   69.4220  227.3560 C   0  0  0  0  0  0  0  0  0  0  0  0
  140.7890   68.1700  228.5600 Cl  0  0  0  0  0  0  0  0  0  0  0  0
  141.1090   70.7240  227.6080 C   0  0  0  0  0  0  0  0  0  0  0  0
  141.0140   71.6950  226.6070 C   0  0  0  0  0  0  0  0  0  0  0  0
  140.5060   71.3430  225.3720 C   0  0  0  0  0  0  0  0  0  0  0  0
  140.4020   72.2580  224.3850 N   0  0  0  0  0  0  0  0  0  0  0  0
  143.8680   73.7870  219.5780 C   0  0  0  0  0  0  0  0  0  0  0  0
  144.6690   74.5050  220.4480 C   0  0  0  0  0  0  0  0  0  0  0  0
  145.8550   74.0120  220.9560 C   0  0  0  0  0  0  0  0  0  0  0  0
  146.2790   72.7340  220.5850 C   0  0  0  0  0  0  0  0  0  0  0  0
  145.4780   72.0020  219.7080 C   0  0  0  0  0  0  0  0  0  0  0  0
  144.2930   72.5150  219.2100 C   0  0  0  0  0  0  0  0  0  0  0  0
  141.2361   72.7285  219.0139 H   0  0  0  0  0  0  0  0  0  0  0  0
  141.0473   73.9078  217.6722 H   0  0  0  0  0  0  0  0  0  0  0  0
  142.4300   72.7613  217.6722 H   0  0  0  0  0  0  0  0  0  0  0  0
  142.9040   75.1572  218.3534 H   0  0  0  0  0  0  0  0  0  0  0  0
  141.1270   74.4760  220.6010 H   0  0  0  0  0  0  0  0  0  0  0  0
  141.3078   76.5009  222.3930 H   0  0  0  0  0  0  0  0  0  0  0  0
  141.9588   78.7802  222.6347 H   0  0  0  0  0  0  0  0  0  0  0  0
  142.6960   78.6326  221.0259 H   0  0  0  0  0  0  0  0  0  0  0  0
  141.0746   80.1160  220.2564 H   0  0  0  0  0  0  0  0  0  0  0  0
  140.1504   80.2924  224.1843 H   0  0  0  0  0  0  0  0  0  0  0  0
  139.9915   78.6671  223.4360 H   0  0  0  0  0  0  0  0  0  0  0  0
  141.5807   79.5044  223.4360 H   0  0  0  0  0  0  0  0  0  0  0  0
  140.7515   82.0172  223.0437 H   0  0  0  0  0  0  0  0  0  0  0  0
  141.5797   81.6614  221.4900 H   0  0  0  0  0  0  0  0  0  0  0  0
  139.8748   82.2272  221.4900 H   0  0  0  0  0  0  0  0  0  0  0  0
  138.6314   78.9407  220.6160 H   0  0  0  0  0  0  0  0  0  0  0  0
  139.7324   78.4119  219.3565 H   0  0  0  0  0  0  0  0  0  0  0  0
  138.0318   74.6956  220.4254 H   0  0  0  0  0  0  0  0  0  0  0  0
  139.8226   74.8218  220.4744 H   0  0  0  0  0  0  0  0  0  0  0  0
  138.3620   74.1910  223.0670 H   0  0  0  0  0  0  0  0  0  0  0  0
  139.0968   70.3780  221.9331 H   0  0  0  0  0  0  0  0  0  0  0  0
  139.2490   68.6232  223.6996 H   0  0  0  0  0  0  0  0  0  0  0  0
  139.8576   68.0419  225.9137 H   0  0  0  0  0  0  0  0  0  0  0  0
  141.5112   70.9913  228.5963 H   0  0  0  0  0  0  0  0  0  0  0  0
  141.3401   72.7275  226.8007 H   0  0  0  0  0  0  0  0  0  0  0  0
  144.3471   75.5130  220.7484 H   0  0  0  0  0  0  0  0  0  0  0  0
  146.4593   74.6196  221.6456 H   0  0  0  0  0  0  0  0  0  0  0  0
  147.2192   72.3158  220.9738 H   0  0  0  0  0  0  0  0  0  0  0  0
  145.7958   70.9934  219.4052 H   0  0  0  0  0  0  0  0  0  0  0  0
  143.6840   71.9133  218.5193 H   0  0  0  0  0  0  0  0  0  0  0  0
  1  2  1  0
  2  3  1  0
  3  4  1  0
  4  5  2  0
  4  6  1  0
  6  7  1  0
  7  8  1  0
  8  9  1  0
  9 10  1  0
  9 11  1  0
  8 12  1  0
 12 13  1  0
 13 14  1  0
 14 15  2  0
 14 16  1  0
 16 17  1  0
 17 18  1  0
 18 19  2  0
 18 20  1  0
 20 21  2  0
 21 22  1  0
 22 23  2  0
 23 24  1  0
 24 25  2  0
 25 26  1  0
 25 27  1  0
 27 28  2  0
 28 29  1  0
 29 30  2  0
  2 31  1  0
 31 32  2  0
 32 33  1  0
 33 34  2  0
 34 35  1  0
 35 36  2  0
 13  6  1  0
 30 20  1  0
 36 31  1  0
 29 23  1  0
  1 37  1  0
  1 38  1  0
  1 39  1  0
  2 40  1  6
  3 41  1  0
  6 42  1  1
  7 43  1  0
  7 44  1  0
  8 45  1  6
 10 46  1  0
 10 47  1  0
 10 48  1  0
 11 49  1  0
 11 50  1  0
 11 51  1  0
 12 52  1  0
 12 53  1  0
 16 54  1  0
 16 55  1  0
 17 56  1  0
 21 57  1  0
 22 58  1  0
 24 59  1  0
 27 60  1  0
 28 61  1  0
 32 62  1  0
 33 63  1  0
 34 64  1  0
 35 65  1  0
 36 66  1  0
M  END
>  <smiles>  (96) 
CC(NC(=O)[C@H]1C[C@H](N(C)C)CN1C(=O)CNC(=O)c1ccc2cc(Cl)ccc2n1)c1ccccc1

>  <score_type>  (96) 
oracle

>  <origin>  (96) 
autodockgpu

>  <m_score__min__energy>  (96) 
-9.8900000000000006

>  <m_primary>  (96) 
energy

>  <rmsd>  (96) 
5.529957117590788

>  <m_score__min__rmsd>  (96) 
5.529957117590788

>  <meeko>  (96) 
{"free_energy": -8.86, "intermolecular_energy": -11.25, "internal_energy": -3.01, "cluster_size": 6, "cluster_id": 2, "rank_in_cluster": 3}

>  <energy>  (96) 
-6.79

>  <cluster_rmsd>  (96) 
1.65

>  <cluster>  (96) 
9

$$$$

     RDKit          3D

 66 69  0  0  1  0  0  0  0  0999 V2000
  142.2040   80.0530  218.8780 C   0  0  0  0  0  0  0  0  0  0  0  0
  141.6600   79.0510  219.8640 C   0  0  1  0  0  0  0  0  0  0  0  0
  142.2300   77.7320  219.6710 N   0  0  0  0  0  0  0  0  0  0  0  0
  141.6080   76.7000  218.9410 C   0  0  0  0  0  0  0  0  0  0  0  0
  140.4730   76.9250  218.4130 O   0  0  0  0  0  0  0  0  0  0  0  0
  142.1800   75.3510  218.7360 C   0  0  1  0  0  0  0  0  0  0  0  0
  143.6940   75.4920  218.7380 C   0  0  0  0  0  0  0  0  0  0  0  0
  144.1850   74.8520  220.0060 C   0  0  2  0  0  0  0  0  0  0  0  0
  144.9520   73.6700  219.6770 N   0  0  0  0  0  0  0  0  0  0  0  0
  146.1200   73.6220  220.5270 C   0  0  0  0  0  0  0  0  0  0  0  0
  144.1790   72.4620  219.7520 C   0  0  0  0  0  0  0  0  0  0  0  0
  142.9520   74.5200  220.8060 C   0  0  0  0  0  0  0  0  0  0  0  0
  141.8960   74.4210  219.7880 N   0  0  0  0  0  0  0  0  0  0  0  0
  140.7600   73.5390  219.8250 C   0  0  0  0  0  0  0  0  0  0  0  0
  140.6960   72.5020  219.1120 O   0  0  0  0  0  0  0  0  0  0  0  0
  139.6370   73.8720  220.7370 C   0  0  0  0  0  0  0  0  0  0  0  0
  139.3000   75.2800  220.5910 N   0  0  0  0  0  0  0  0  0  0  0  0
  139.1360   76.0220  221.7940 C   0  0  0  0  0  0  0  0  0  0  0  0
  139.3010   75.3840  222.8710 O   0  0  0  0  0  0  0  0  0  0  0  0
  138.7970   77.4400  221.7830 C   0  0  0  0  0  0  0  0  0  0  0  0
  138.5650   78.0450  220.5660 C   0  0  0  0  0  0  0  0  0  0  0  0
  138.2420   79.3840  220.4750 C   0  0  0  0  0  0  0  0  0  0  0  0
  138.1610   80.0840  221.6580 C   0  0  0  0  0  0  0  0  0  0  0  0
  137.8380   81.4280  221.6020 C   0  0  0  0  0  0  0  0  0  0  0  0
  137.7490   82.1650  222.7790 C   0  0  0  0  0  0  0  0  0  0  0  0
  137.3390   83.8500  222.6390 Cl  0  0  0  0  0  0  0  0  0  0  0  0
  137.9830   81.5600  224.0070 C   0  0  0  0  0  0  0  0  0  0  0  0
  138.3090   80.2020  224.0680 C   0  0  0  0  0  0  0  0  0  0  0  0
  138.3960   79.4760  222.8960 C   0  0  0  0  0  0  0  0  0  0  0  0
  138.7080   78.1630  222.9220 N   0  0  0  0  0  0  0  0  0  0  0  0
  141.7590   79.5310  221.2670 C   0  0  0  0  0  0  0  0  0  0  0  0
  141.7480   80.8860  221.5410 C   0  0  0  0  0  0  0  0  0  0  0  0
  141.8370   81.3940  222.8230 C   0  0  0  0  0  0  0  0  0  0  0  0
  141.9420   80.5120  223.9010 C   0  0  0  0  0  0  0  0  0  0  0  0
  141.9520   79.1420  223.6340 C   0  0  0  0  0  0  0  0  0  0  0  0
  141.8620   78.6550  222.3420 C   0  0  0  0  0  0  0  0  0  0  0  0
  142.6600   80.8929  219.4226 H   0  0  0  0  0  0  0  0  0  0  0  0
  142.9638   79.5701  218.2459 H   0  0  0  0  0  0  0  0  0  0  0  0
  141.3852   80.4272  218.2459 H   0  0  0  0  0  0  0  0  0  0  0  0
  140.5842   78.9488  219.6584 H   0  0  0  0  0  0  0  0  0  0  0  0
  143.1600   77.5580  220.1100 H   0  0  0  0  0  0  0  0  0  0  0  0
  141.7409   74.9712  217.8017 H   0  0  0  0  0  0  0  0  0  0  0  0
  144.1236   74.9805  217.8640 H   0  0  0  0  0  0  0  0  0  0  0  0
  143.9932   76.5493  218.6865 H   0  0  0  0  0  0  0  0  0  0  0  0
  144.8471   75.5103  220.5876 H   0  0  0  0  0  0  0  0  0  0  0  0
  145.8069   73.6349  221.5814 H   0  0  0  0  0  0  0  0  0  0  0  0
  146.6841   72.6999  220.3232 H   0  0  0  0  0  0  0  0  0  0  0  0
  146.7579   74.4947  220.3232 H   0  0  0  0  0  0  0  0  0  0  0  0
  144.0108   72.1992  220.8068 H   0  0  0  0  0  0  0  0  0  0  0  0
  143.2105   72.6149  219.2533 H   0  0  0  0  0  0  0  0  0  0  0  0
  144.7236   71.6467  219.2533 H   0  0  0  0  0  0  0  0  0  0  0  0
  143.0747   73.5655  221.3388 H   0  0  0  0  0  0  0  0  0  0  0  0
  142.7303   75.2690  221.5805 H   0  0  0  0  0  0  0  0  0  0  0  0
  138.7618   73.2564  220.4821 H   0  0  0  0  0  0  0  0  0  0  0  0
  139.9345   73.6703  221.7766 H   0  0  0  0  0  0  0  0  0  0  0  0
  139.1780   75.7460  219.6620 H   0  0  0  0  0  0  0  0  0  0  0  0
  138.6390   77.4466  219.6460 H   0  0  0  0  0  0  0  0  0  0  0  0
  138.0583   79.8683  219.5046 H   0  0  0  0  0  0  0  0  0  0  0  0
  137.6524   81.9118  220.6317 H   0  0  0  0  0  0  0  0  0  0  0  0
  137.9117   82.1500  224.9326 H   0  0  0  0  0  0  0  0  0  0  0  0
  138.4941   79.7172  225.0379 H   0  0  0  0  0  0  0  0  0  0  0  0
  141.6647   81.5913  220.7010 H   0  0  0  0  0  0  0  0  0  0  0  0
  141.8253   82.4808  222.9927 H   0  0  0  0  0  0  0  0  0  0  0  0
  142.0148   80.8870  224.9326 H   0  0  0  0  0  0  0  0  0  0  0  0
  142.0334   78.4326  224.4707 H   0  0  0  0  0  0  0  0  0  0  0  0
  141.8720   77.5695  222.1644 H   0  0  0  0  0  0  0  0  0  0  0  0
  1  2  1  0
  2  3  1  0
  3  4  1  0
  4  5  2  0
  4  6  1  0
  6  7  1  0
  7  8  1  0
  8  9  1  0
  9 10  1  0
  9 11  1  0
  8 12  1  0
 12 13  1  0
 13 14  1  0
 14 15  2  0
 14 16  1  0
 16 17  1  0
 17 18  1  0
 18 19  2  0
 18 20  1  0
 20 21  2  0
 21 22  1  0
 22 23  2  0
 23 24  1  0
 24 25  2  0
 25 26  1  0
 25 27  1  0
 27 28  2  0
 28 29  1  0
 29 30  2  0
  2 31  1  0
 31 32  2  0
 32 33  1  0
 33 34  2  0
 34 35  1  0
 35 36  2  0
 13  6  1  0
 30 20  1  0
 36 31  1  0
 29 23  1  0
  1 37  1  0
  1 38  1  0
  1 39  1  0
  2 40  1  6
  3 41  1  0
  6 42  1  6
  7 43  1  0
  7 44  1  0
  8 45  1  1
 10 46  1  0
 10 47  1  0
 10 48  1  0
 11 49  1  0
 11 50  1  0
 11 51  1  0
 12 52  1  0
 12 53  1  0
 16 54  1  0
 16 55  1  0
 17 56  1  0
 21 57  1  0
 22 58  1  0
 24 59  1  0
 27 60  1  0
 28 61  1  0
 32 62  1  0
 33 63  1  0
 34 64  1  0
 35 65  1  0
 36 66  1  0
M  END
>  <smiles>  (97) 
CC(NC(=O)[C@H]1C[C@H](N(C)C)CN1C(=O)CNC(=O)c1ccc2cc(Cl)ccc2n1)c1ccccc1

>  <score_type>  (97) 
oracle

>  <origin>  (97) 
autodockgpu

>  <m_score__min__energy>  (97) 
-9.8900000000000006

>  <m_primary>  (97) 
energy

>  <rmsd>  (97) 
6.745761091655765

>  <m_score__min__rmsd>  (97) 
6.745761091655765

>  <meeko>  (97) 
{"free_energy": -6.49, "intermolecular_energy": -8.87, "internal_energy": -4.83, "cluster_size": 5, "cluster_id": 9, "rank_in_cluster": 5}

>  <energy>  (97) 
-6.57

>  <cluster_rmsd>  (97) 
1.48

>  <cluster>  (97) 
9

$$$$

     RDKit          3D

 66 69  0  0  1  0  0  0  0  0999 V2000
  138.3610   80.6890  221.3440 C   0  0  0  0  0  0  0  0  0  0  0  0
  138.9390   79.6560  222.2770 C   0  0  1  0  0  0  0  0  0  0  0  0
  138.9940   78.3420  221.6660 N   0  0  0  0  0  0  0  0  0  0  0  0
  139.9620   77.9490  220.7200 C   0  0  0  0  0  0  0  0  0  0  0  0
  140.8490   78.7900  220.3690 O   0  0  0  0  0  0  0  0  0  0  0  0
  140.0300   76.6110  220.0910 C   0  0  1  0  0  0  0  0  0  0  0  0
  141.4860   76.3400  219.7480 C   0  0  0  0  0  0  0  0  0  0  0  0
  141.9560   75.2630  220.6840 C   0  0  2  0  0  0  0  0  0  0  0  0
  142.2360   74.0630  219.9270 N   0  0  0  0  0  0  0  0  0  0  0  0
  143.5860   74.1400  219.4130 C   0  0  0  0  0  0  0  0  0  0  0  0
  142.0130   72.8600  220.6800 C   0  0  0  0  0  0  0  0  0  0  0  0
  140.8380   75.0570  221.6730 C   0  0  0  0  0  0  0  0  0  0  0  0
  139.6470   75.5320  220.9530 N   0  0  0  0  0  0  0  0  0  0  0  0
  138.3140   75.0080  221.0780 C   0  0  0  0  0  0  0  0  0  0  0  0
  137.3170   75.7570  221.2650 O   0  0  0  0  0  0  0  0  0  0  0  0
  138.1200   73.5390  220.9830 C   0  0  0  0  0  0  0  0  0  0  0  0
  138.5550   72.9130  222.2220 N   0  0  0  0  0  0  0  0  0  0  0  0
  138.6550   71.4950  222.2160 C   0  0  0  0  0  0  0  0  0  0  0  0
  138.3560   70.9180  221.1340 O   0  0  0  0  0  0  0  0  0  0  0  0
  139.0800   70.7480  223.3950 C   0  0  0  0  0  0  0  0  0  0  0  0
  138.8510   69.3890  223.4220 C   0  0  0  0  0  0  0  0  0  0  0  0
  139.2210   68.6150  224.5030 C   0  0  0  0  0  0  0  0  0  0  0  0
  139.8320   69.2670  225.5520 C   0  0  0  0  0  0  0  0  0  0  0  0
  140.2170   68.5210  226.6500 C   0  0  0  0  0  0  0  0  0  0  0  0
  140.8370   69.1490  227.7270 C   0  0  0  0  0  0  0  0  0  0  0  0
  141.2960   68.1530  229.0780 Cl  0  0  0  0  0  0  0  0  0  0  0  0
  141.0690   70.5180  227.7040 C   0  0  0  0  0  0  0  0  0  0  0  0
  140.6810   71.2760  226.5950 C   0  0  0  0  0  0  0  0  0  0  0  0
  140.0670   70.6460  225.5300 C   0  0  0  0  0  0  0  0  0  0  0  0
  139.6820   71.3500  224.4450 N   0  0  0  0  0  0  0  0  0  0  0  0
  140.2390   80.0840  222.8560 C   0  0  0  0  0  0  0  0  0  0  0  0
  140.9790   79.2070  223.6270 C   0  0  0  0  0  0  0  0  0  0  0  0
  142.1940   79.5450  224.1930 C   0  0  0  0  0  0  0  0  0  0  0  0
  142.7100   80.8260  223.9870 C   0  0  0  0  0  0  0  0  0  0  0  0
  141.9700   81.7190  223.2100 C   0  0  0  0  0  0  0  0  0  0  0  0
  140.7550   81.3590  222.6520 C   0  0  0  0  0  0  0  0  0  0  0  0
  137.9069   81.5006  221.9315 H   0  0  0  0  0  0  0  0  0  0  0  0
  139.1609   81.0987  220.7098 H   0  0  0  0  0  0  0  0  0  0  0  0
  137.5933   80.2216  220.7098 H   0  0  0  0  0  0  0  0  0  0  0  0
  138.2472   79.5681  223.1277 H   0  0  0  0  0  0  0  0  0  0  0  0
  138.2610   77.6610  221.9590 H   0  0  0  0  0  0  0  0  0  0  0  0
  139.3405   76.6400  219.2344 H   0  0  0  0  0  0  0  0  0  0  0  0
  141.5732   76.0008  218.7052 H   0  0  0  0  0  0  0  0  0  0  0  0
  142.0940   77.2504  219.8547 H   0  0  0  0  0  0  0  0  0  0  0  0
  142.8830   75.5317  221.2116 H   0  0  0  0  0  0  0  0  0  0  0  0
  144.2961   74.1805  220.2521 H   0  0  0  0  0  0  0  0  0  0  0  0
  143.7954   73.2523  218.7980 H   0  0  0  0  0  0  0  0  0  0  0  0
  143.6931   75.0457  218.7980 H   0  0  0  0  0  0  0  0  0  0  0  0
  142.0552   73.0874  221.7554 H   0  0  0  0  0  0  0  0  0  0  0  0
  141.0234   72.4494  220.4306 H   0  0  0  0  0  0  0  0  0  0  0  0
  142.7897   72.1220  220.4306 H   0  0  0  0  0  0  0  0  0  0  0  0
  140.7388   73.9939  221.9377 H   0  0  0  0  0  0  0  0  0  0  0  0
  141.0037   75.5881  222.6219 H   0  0  0  0  0  0  0  0  0  0  0  0
  137.0553   73.3195  220.8151 H   0  0  0  0  0  0  0  0  0  0  0  0
  138.7117   73.1437  220.1442 H   0  0  0  0  0  0  0  0  0  0  0  0
  138.7890   73.4560  223.0860 H   0  0  0  0  0  0  0  0  0  0  0  0
  138.3616   68.9099  222.5612 H   0  0  0  0  0  0  0  0  0  0  0  0
  139.0372   67.5307  224.5261 H   0  0  0  0  0  0  0  0  0  0  0  0
  140.0345   67.4365  226.6729 H   0  0  0  0  0  0  0  0  0  0  0  0
  141.5586   71.0066  228.5593 H   0  0  0  0  0  0  0  0  0  0  0  0
  140.8625   72.3607  226.5709 H   0  0  0  0  0  0  0  0  0  0  0  0
  140.5833   78.1949  223.7977 H   0  0  0  0  0  0  0  0  0  0  0  0
  142.7481   78.8130  224.7989 H   0  0  0  0  0  0  0  0  0  0  0  0
  143.6740   81.1236  224.4253 H   0  0  0  0  0  0  0  0  0  0  0  0
  142.3613   82.7324  223.0370 H   0  0  0  0  0  0  0  0  0  0  0  0
  140.1952   82.0852  222.0443 H   0  0  0  0  0  0  0  0  0  0  0  0
  1  2  1  0
  2  3  1  0
  3  4  1  0
  4  5  2  0
  4  6  1  0
  6  7  1  0
  7  8  1  0
  8  9  1  0
  9 10  1  0
  9 11  1  0
  8 12  1  0
 12 13  1  0
 13 14  1  0
 14 15  2  0
 14 16  1  0
 16 17  1  0
 17 18  1  0
 18 19  2  0
 18 20  1  0
 20 21  2  0
 21 22  1  0
 22 23  2  0
 23 24  1  0
 24 25  2  0
 25 26  1  0
 25 27  1  0
 27 28  2  0
 28 29  1  0
 29 30  2  0
  2 31  1  0
 31 32  2  0
 32 33  1  0
 33 34  2  0
 34 35  1  0
 35 36  2  0
 13  6  1  0
 30 20  1  0
 36 31  1  0
 29 23  1  0
  1 37  1  0
  1 38  1  0
  1 39  1  0
  2 40  1  1
  3 41  1  0
  6 42  1  6
  7 43  1  0
  7 44  1  0
  8 45  1  1
 10 46  1  0
 10 47  1  0
 10 48  1  0
 11 49  1  0
 11 50  1  0
 11 51  1  0
 12 52  1  0
 12 53  1  0
 16 54  1  0
 16 55  1  0
 17 56  1  0
 21 57  1  0
 22 58  1  0
 24 59  1  0
 27 60  1  0
 28 61  1  0
 32 62  1  0
 33 63  1  0
 34 64  1  0
 35 65  1  0
 36 66  1  0
M  END
>  <smiles>  (98) 
CC(NC(=O)[C@H]1C[C@H](N(C)C)CN1C(=O)CNC(=O)c1ccc2cc(Cl)ccc2n1)c1ccccc1

>  <score_type>  (98) 
oracle

>  <origin>  (98) 
autodockgpu

>  <m_score__min__energy>  (98) 
-9.8900000000000006

>  <m_primary>  (98) 
energy

>  <rmsd>  (98) 
2.929652615931311

>  <m_score__min__rmsd>  (98) 
2.929652615931311

>  <meeko>  (98) 
{"free_energy": -8.38, "intermolecular_energy": -10.77, "internal_energy": -2.97, "cluster_size": 21, "cluster_id": 1, "rank_in_cluster": 18}

>  <energy>  (98) 
-6.49

>  <cluster_rmsd>  (98) 
1.67

>  <cluster>  (98) 
9

$$$$

     RDKit          3D

 66 69  0  0  1  0  0  0  0  0999 V2000
  138.8210   70.0890  222.6290 C   0  0  0  0  0  0  0  0  0  0  0  0
  138.6580   71.1510  223.6860 C   0  0  1  0  0  0  0  0  0  0  0  0
  137.2770   71.5690  223.8300 N   0  0  0  0  0  0  0  0  0  0  0  0
  136.2090   70.6900  224.1030 C   0  0  0  0  0  0  0  0  0  0  0  0
  136.4580   69.4500  224.2320 O   0  0  0  0  0  0  0  0  0  0  0  0
  134.7970   71.1030  224.2530 C   0  0  1  0  0  0  0  0  0  0  0  0
  134.0060   69.8810  224.6910 C   0  0  0  0  0  0  0  0  0  0  0  0
  133.6020   70.1170  226.1190 C   0  0  2  0  0  0  0  0  0  0  0  0
  132.1640   70.2590  226.1890 N   0  0  0  0  0  0  0  0  0  0  0  0
  131.8510   71.5250  226.8140 C   0  0  0  0  0  0  0  0  0  0  0  0
  131.5240   70.1150  224.9110 C   0  0  0  0  0  0  0  0  0  0  0  0
  134.3140   71.3740  226.5480 C   0  0  0  0  0  0  0  0  0  0  0  0
  134.5700   72.0750  225.2820 N   0  0  0  0  0  0  0  0  0  0  0  0
  134.5910   73.5010  225.0890 C   0  0  0  0  0  0  0  0  0  0  0  0
  134.4580   74.3060  226.0500 O   0  0  0  0  0  0  0  0  0  0  0  0
  134.7750   74.0250  223.7130 C   0  0  0  0  0  0  0  0  0  0  0  0
  135.8440   75.0120  223.7110 N   0  0  0  0  0  0  0  0  0  0  0  0
  136.8600   74.8460  222.7300 C   0  0  0  0  0  0  0  0  0  0  0  0
  136.7340   73.8570  221.9560 O   0  0  0  0  0  0  0  0  0  0  0  0
  137.9860   75.7680  222.6240 C   0  0  0  0  0  0  0  0  0  0  0  0
  139.1600   75.3000  222.0730 C   0  0  0  0  0  0  0  0  0  0  0  0
  140.2690   76.1120  221.9420 C   0  0  0  0  0  0  0  0  0  0  0  0
  140.1440   77.4090  222.3870 C   0  0  0  0  0  0  0  0  0  0  0  0
  141.2370   78.2490  222.2680 C   0  0  0  0  0  0  0  0  0  0  0  0
  141.1440   79.5660  222.7080 C   0  0  0  0  0  0  0  0  0  0  0  0
  142.5550   80.5700  222.5310 Cl  0  0  0  0  0  0  0  0  0  0  0  0
  139.9630   80.0410  223.2640 C   0  0  0  0  0  0  0  0  0  0  0  0
  138.8560   79.1950  223.3850 C   0  0  0  0  0  0  0  0  0  0  0  0
  138.9550   77.8890  222.9460 C   0  0  0  0  0  0  0  0  0  0  0  0
  137.9040   77.0480  223.0490 N   0  0  0  0  0  0  0  0  0  0  0  0
  139.2880   70.7650  224.9750 C   0  0  0  0  0  0  0  0  0  0  0  0
  140.2890   71.5470  225.5220 C   0  0  0  0  0  0  0  0  0  0  0  0
  140.9130   71.2410  226.7160 C   0  0  0  0  0  0  0  0  0  0  0  0
  140.5270   70.0960  227.4140 C   0  0  0  0  0  0  0  0  0  0  0  0
  139.5170   69.3010  226.8710 C   0  0  0  0  0  0  0  0  0  0  0  0
  138.9050   69.6250  225.6730 C   0  0  0  0  0  0  0  0  0  0  0  0
  138.9710   69.1117  223.1112 H   0  0  0  0  0  0  0  0  0  0  0  0
  137.9177   70.0538  222.0022 H   0  0  0  0  0  0  0  0  0  0  0  0
  139.6932   70.3263  222.0022 H   0  0  0  0  0  0  0  0  0  0  0  0
  139.2088   72.0373  223.3379 H   0  0  0  0  0  0  0  0  0  0  0  0
  137.0840   72.5870  223.7190 H   0  0  0  0  0  0  0  0  0  0  0  0
  134.5017   71.5362  223.2860 H   0  0  0  0  0  0  0  0  0  0  0  0
  133.1134   69.7608  224.0594 H   0  0  0  0  0  0  0  0  0  0  0  0
  134.6080   68.9652  224.5964 H   0  0  0  0  0  0  0  0  0  0  0  0
  133.8738   69.2831  226.7829 H   0  0  0  0  0  0  0  0  0  0  0  0
  131.8792   71.4109  227.9077 H   0  0  0  0  0  0  0  0  0  0  0  0
  132.5897   72.2791  226.5048 H   0  0  0  0  0  0  0  0  0  0  0  0
  130.8460   71.8480  226.5048 H   0  0  0  0  0  0  0  0  0  0  0  0
  130.4605   69.8757  225.0584 H   0  0  0  0  0  0  0  0  0  0  0  0
  131.6136   71.0557  224.3480 H   0  0  0  0  0  0  0  0  0  0  0  0
  132.0079   69.3033  224.3480 H   0  0  0  0  0  0  0  0  0  0  0  0
  133.6777   71.9792  227.2104 H   0  0  0  0  0  0  0  0  0  0  0  0
  135.2328   71.1716  227.1180 H   0  0  0  0  0  0  0  0  0  0  0  0
  135.0379   73.1978  223.0373 H   0  0  0  0  0  0  0  0  0  0  0  0
  133.8409   74.4942  223.3704 H   0  0  0  0  0  0  0  0  0  0  0  0
  135.8860   75.8110  224.3860 H   0  0  0  0  0  0  0  0  0  0  0  0
  139.2144   74.2562  221.7301 H   0  0  0  0  0  0  0  0  0  0  0  0
  141.2070   75.7407  221.5034 H   0  0  0  0  0  0  0  0  0  0  0  0
  142.1744   77.8778  221.8280 H   0  0  0  0  0  0  0  0  0  0  0  0
  139.8984   81.0834  223.6094 H   0  0  0  0  0  0  0  0  0  0  0  0
  137.9179   79.5650  223.8244 H   0  0  0  0  0  0  0  0  0  0  0  0
  140.6023   72.4529  224.9824 H   0  0  0  0  0  0  0  0  0  0  0  0
  141.7055   71.8929  227.1122 H   0  0  0  0  0  0  0  0  0  0  0  0
  141.0062   69.8273  228.3670 H   0  0  0  0  0  0  0  0  0  0  0  0
  139.1997   68.3950  227.4081 H   0  0  0  0  0  0  0  0  0  0  0  0
  138.1117   68.9777  225.2709 H   0  0  0  0  0  0  0  0  0  0  0  0
  1  2  1  0
  2  3  1  0
  3  4  1  0
  4  5  2  0
  4  6  1  0
  6  7  1  0
  7  8  1  0
  8  9  1  0
  9 10  1  0
  9 11  1  0
  8 12  1  0
 12 13  1  0
 13 14  1  0
 14 15  2  0
 14 16  1  0
 16 17  1  0
 17 18  1  0
 18 19  2  0
 18 20  1  0
 20 21  2  0
 21 22  1  0
 22 23  2  0
 23 24  1  0
 24 25  2  0
 25 26  1  0
 25 27  1  0
 27 28  2  0
 28 29  1  0
 29 30  2  0
  2 31  1  0
 31 32  2  0
 32 33  1  0
 33 34  2  0
 34 35  1  0
 35 36  2  0
 13  6  1  0
 30 20  1  0
 36 31  1  0
 29 23  1  0
  1 37  1  0
  1 38  1  0
  1 39  1  0
  2 40  1  6
  3 41  1  0
  6 42  1  6
  7 43  1  0
  7 44  1  0
  8 45  1  1
 10 46  1  0
 10 47  1  0
 10 48  1  0
 11 49  1  0
 11 50  1  0
 11 51  1  0
 12 52  1  0
 12 53  1  0
 16 54  1  0
 16 55  1  0
 17 56  1  0
 21 57  1  0
 22 58  1  0
 24 59  1  0
 27 60  1  0
 28 61  1  0
 32 62  1  0
 33 63  1  0
 34 64  1  0
 35 65  1  0
 36 66  1  0
M  END
>  <smiles>  (99) 
CC(NC(=O)[C@H]1C[C@H](N(C)C)CN1C(=O)CNC(=O)c1ccc2cc(Cl)ccc2n1)c1ccccc1

>  <score_type>  (99) 
oracle

>  <origin>  (99) 
autodockgpu

>  <m_score__min__energy>  (99) 
-9.8900000000000006

>  <m_primary>  (99) 
energy

>  <rmsd>  (99) 
9.730103701452473

>  <m_score__min__rmsd>  (99) 
9.730103701452473

>  <meeko>  (99) 
{"free_energy": -8.49, "intermolecular_energy": -10.88, "internal_energy": -3.28, "cluster_size": 5, "cluster_id": 6, "rank_in_cluster": 1}

>  <energy>  (99) 
-6.56

>  <cluster_rmsd>  (99) 
0.0

>  <cluster>  (99) 
10

$$$$

     RDKit          3D

 66 69  0  0  1  0  0  0  0  0999 V2000
  138.9000   77.6240  221.7840 C   0  0  0  0  0  0  0  0  0  0  0  0
  140.1470   77.3670  222.5900 C   0  0  1  0  0  0  0  0  0  0  0  0
  140.9660   76.3210  222.0070 N   0  0  0  0  0  0  0  0  0  0  0  0
  140.5660   74.9740  221.8970 C   0  0  0  0  0  0  0  0  0  0  0  0
  139.4200   74.6400  222.3330 O   0  0  0  0  0  0  0  0  0  0  0  0
  141.3910   73.8990  221.3030 C   0  0  1  0  0  0  0  0  0  0  0  0
  140.4590   72.7500  220.9500 C   0  0  0  0  0  0  0  0  0  0  0  0
  140.3870   72.7010  219.4500 C   0  0  2  0  0  0  0  0  0  0  0  0
  141.0040   71.4780  218.9830 N   0  0  0  0  0  0  0  0  0  0  0  0
  139.9920   70.6520  218.3630 C   0  0  0  0  0  0  0  0  0  0  0  0
  142.1200   71.7120  218.1090 C   0  0  0  0  0  0  0  0  0  0  0  0
  141.1170   73.9240  218.9580 C   0  0  0  0  0  0  0  0  0  0  0  0
  142.0250   74.2520  220.0680 N   0  0  0  0  0  0  0  0  0  0  0  0
  143.3370   74.8290  219.9480 C   0  0  0  0  0  0  0  0  0  0  0  0
  144.2760   74.5220  220.7310 O   0  0  0  0  0  0  0  0  0  0  0  0
  143.5780   75.8150  218.8650 C   0  0  0  0  0  0  0  0  0  0  0  0
  143.2090   77.1440  219.3300 N   0  0  0  0  0  0  0  0  0  0  0  0
  142.3310   77.8880  218.4950 C   0  0  0  0  0  0  0  0  0  0  0  0
  141.9590   77.3210  217.4300 O   0  0  0  0  0  0  0  0  0  0  0  0
  141.8870   79.2310  218.8490 C   0  0  0  0  0  0  0  0  0  0  0  0
  142.5630   80.3040  218.3070 C   0  0  0  0  0  0  0  0  0  0  0  0
  142.2030   81.6050  218.5970 C   0  0  0  0  0  0  0  0  0  0  0  0
  141.1360   81.7780  219.4510 C   0  0  0  0  0  0  0  0  0  0  0  0
  140.7490   83.0690  219.7610 C   0  0  0  0  0  0  0  0  0  0  0  0
  139.6750   83.2780  220.6210 C   0  0  0  0  0  0  0  0  0  0  0  0
  139.2400   84.9270  220.9700 Cl  0  0  0  0  0  0  0  0  0  0  0  0
  138.9930   82.2010  221.1700 C   0  0  0  0  0  0  0  0  0  0  0  0
  139.3810   80.8940  220.8580 C   0  0  0  0  0  0  0  0  0  0  0  0
  140.4470   80.6930  220.0040 C   0  0  0  0  0  0  0  0  0  0  0  0
  140.8460   79.4440  219.6840 N   0  0  0  0  0  0  0  0  0  0  0  0
  140.9060   78.6140  222.8680 C   0  0  0  0  0  0  0  0  0  0  0  0
  142.1860   78.7760  222.3700 C   0  0  0  0  0  0  0  0  0  0  0  0
  142.9410   79.9110  222.5940 C   0  0  0  0  0  0  0  0  0  0  0  0
  142.4020   80.9510  223.3550 C   0  0  0  0  0  0  0  0  0  0  0  0
  141.1100   80.7970  223.8610 C   0  0  0  0  0  0  0  0  0  0  0  0
  140.3710   79.6520  223.6250 C   0  0  0  0  0  0  0  0  0  0  0  0
  138.0533   77.7985  222.4641 H   0  0  0  0  0  0  0  0  0  0  0  0
  139.0495   78.5102  221.1497 H   0  0  0  0  0  0  0  0  0  0  0  0
  138.6869   76.7509  221.1497 H   0  0  0  0  0  0  0  0  0  0  0  0
  139.8228   76.9892  223.5709 H   0  0  0  0  0  0  0  0  0  0  0  0
  141.9040   76.6060  221.6550 H   0  0  0  0  0  0  0  0  0  0  0  0
  142.1697   73.6662  222.0443 H   0  0  0  0  0  0  0  0  0  0  0  0
  140.8586   71.8030  221.3419 H   0  0  0  0  0  0  0  0  0  0  0  0
  139.4620   72.8983  221.3904 H   0  0  0  0  0  0  0  0  0  0  0  0
  139.3534   72.7019  219.0736 H   0  0  0  0  0  0  0  0  0  0  0  0
  139.3909   70.1614  219.1427 H   0  0  0  0  0  0  0  0  0  0  0  0
  139.3397   71.2789  217.7373 H   0  0  0  0  0  0  0  0  0  0  0  0
  140.4755   69.8873  217.7373 H   0  0  0  0  0  0  0  0  0  0  0  0
  143.0223   71.9012  218.7090 H   0  0  0  0  0  0  0  0  0  0  0  0
  142.2804   70.8280  217.4744 H   0  0  0  0  0  0  0  0  0  0  0  0
  141.9118   72.5860  217.4744 H   0  0  0  0  0  0  0  0  0  0  0  0
  141.6818   73.7022  218.0405 H   0  0  0  0  0  0  0  0  0  0  0  0
  140.4402   74.7517  218.6994 H   0  0  0  0  0  0  0  0  0  0  0  0
  144.6430   75.8050  218.5900 H   0  0  0  0  0  0  0  0  0  0  0  0
  142.9708   75.5515  217.9865 H   0  0  0  0  0  0  0  0  0  0  0  0
  143.5580   77.5520  220.2290 H   0  0  0  0  0  0  0  0  0  0  0  0
  143.4085   80.1190  217.6280 H   0  0  0  0  0  0  0  0  0  0  0  0
  142.7421   82.4620  218.1669 H   0  0  0  0  0  0  0  0  0  0  0  0
  141.2872   83.9261  219.3301 H   0  0  0  0  0  0  0  0  0  0  0  0
  138.1468   82.3755  221.8509 H   0  0  0  0  0  0  0  0  0  0  0  0
  138.8431   80.0362  221.2880 H   0  0  0  0  0  0  0  0  0  0  0  0
  142.6224   77.9649  221.7687 H   0  0  0  0  0  0  0  0  0  0  0  0
  143.9557   79.9949  222.1776 H   0  0  0  0  0  0  0  0  0  0  0  0
  142.9798   81.8664  223.5503 H   0  0  0  0  0  0  0  0  0  0  0  0
  140.6691   81.6060  224.4620 H   0  0  0  0  0  0  0  0  0  0  0  0
  139.3554   79.5613  224.0377 H   0  0  0  0  0  0  0  0  0  0  0  0
  1  2  1  0
  2  3  1  0
  3  4  1  0
  4  5  2  0
  4  6  1  0
  6  7  1  0
  7  8  1  0
  8  9  1  0
  9 10  1  0
  9 11  1  0
  8 12  1  0
 12 13  1  0
 13 14  1  0
 14 15  2  0
 14 16  1  0
 16 17  1  0
 17 18  1  0
 18 19  2  0
 18 20  1  0
 20 21  2  0
 21 22  1  0
 22 23  2  0
 23 24  1  0
 24 25  2  0
 25 26  1  0
 25 27  1  0
 27 28  2  0
 28 29  1  0
 29 30  2  0
  2 31  1  0
 31 32  2  0
 32 33  1  0
 33 34  2  0
 34 35  1  0
 35 36  2  0
 13  6  1  0
 30 20  1  0
 36 31  1  0
 29 23  1  0
  1 37  1  0
  1 38  1  0
  1 39  1  0
  2 40  1  1
  3 41  1  0
  6 42  1  1
  7 43  1  0
  7 44  1  0
  8 45  1  1
 10 46  1  0
 10 47  1  0
 10 48  1  0
 11 49  1  0
 11 50  1  0
 11 51  1  0
 12 52  1  0
 12 53  1  0
 16 54  1  0
 16 55  1  0
 17 56  1  0
 21 57  1  0
 22 58  1  0
 24 59  1  0
 27 60  1  0
 28 61  1  0
 32 62  1  0
 33 63  1  0
 34 64  1  0
 35 65  1  0
 36 66  1  0
M  END
>  <smiles>  (100) 
CC(NC(=O)[C@H]1C[C@H](N(C)C)CN1C(=O)CNC(=O)c1ccc2cc(Cl)ccc2n1)c1ccccc1

>  <score_type>  (100) 
oracle

>  <origin>  (100) 
autodockgpu

>  <m_score__min__energy>  (100) 
-9.8900000000000006

>  <m_primary>  (100) 
energy

>  <rmsd>  (100) 
8.183983113480382

>  <m_score__min__rmsd>  (100) 
8.183983113480382

>  <meeko>  (100) 
{"free_energy": -7.2, "intermolecular_energy": -9.58, "internal_energy": -3.81, "cluster_size": 7, "cluster_id": 8, "rank_in_cluster": 1}

>  <energy>  (100) 
-6.55

>  <cluster_rmsd>  (100) 
0.09

>  <cluster>  (100) 
10

$$$$
