
 67 72  0  0  0  0  0  0  0  0999 V2000
  146.4030   69.3590  217.4210 N   0  0  0  0  0  0  0  0  0  0  0  0
  146.1930   70.0630  218.9620 S   0  0  0  0  0  0  0  0  0  0  0  0
  145.1470   69.2390  219.7000 O   0  0  0  0  0  0  0  0  0  0  0  0
  147.4310   69.9800  219.7740 O   0  0  0  0  0  0  0  0  0  0  0  0
  145.5630   71.6670  218.8910 N   0  0  0  0  0  0  0  0  0  0  0  0
  144.1280   71.6560  218.8420 C   0  0  0  0  0  0  0  0  0  0  0  0
  143.6820   73.0940  218.5840 C   0  0  0  0  0  0  0  0  0  0  0  0
  144.0290   73.9200  219.7740 C   0  0  0  0  0  0  0  0  0  0  0  0
  142.7940   74.2080  220.5530 C   0  0  0  0  0  0  0  0  0  0  0  0
  142.1420   73.1950  221.1200 N   0  0  0  0  0  0  0  0  0  0  0  0
  141.0010   73.3470  221.8560 C   0  0  0  0  0  0  0  0  0  0  0  0
  140.3380   72.2340  222.4460 N   0  0  0  0  0  0  0  0  0  0  0  0
  139.3650   71.5290  221.6600 C   0  0  0  0  0  0  0  0  0  0  0  0
  138.4010   70.6810  222.3750 C   0  0  0  0  0  0  0  0  0  0  0  0
  138.8240   70.1840  223.6810 C   0  0  0  0  0  0  0  0  0  0  0  0
  138.1090   69.1200  224.2290 C   0  0  0  0  0  0  0  0  0  0  0  0
  138.4740   68.6220  225.4580 C   0  0  0  0  0  0  0  0  0  0  0  0
  139.5430   69.1850  226.1250 C   0  0  0  0  0  0  0  0  0  0  0  0
  140.2510   70.2510  225.5630 C   0  0  0  0  0  0  0  0  0  0  0  0
  139.8940   70.7620  224.3280 C   0  0  0  0  0  0  0  0  0  0  0  0
  140.6830   71.8850  223.8000 C   0  0  0  0  0  0  0  0  0  0  0  0
  140.5510   74.5960  221.9860 N   0  0  0  0  0  0  0  0  0  0  0  0
  141.1790   75.6440  221.4310 C   0  0  0  0  0  0  0  0  0  0  0  0
  140.6740   76.9590  221.5910 N   0  0  0  0  0  0  0  0  0  0  0  0
  140.1320   77.6870  220.4620 C   0  0  0  0  0  0  0  0  0  0  0  0
  139.4740   78.9670  220.9330 C   0  0  0  0  0  0  0  0  0  0  0  0
  140.4830   79.6980  221.7420 C   0  0  0  0  0  0  0  0  0  0  0  0
  140.8170   81.0150  221.5380 C   0  0  0  0  0  0  0  0  0  0  0  0
  141.7590   81.6130  222.3340 C   0  0  0  0  0  0  0  0  0  0  0  0
  142.4100   80.9310  223.3640 C   0  0  0  0  0  0  0  0  0  0  0  0
  142.0740   79.5960  223.5720 C   0  0  0  0  0  0  0  0  0  0  0  0
  141.1250   79.0140  222.7630 C   0  0  0  0  0  0  0  0  0  0  0  0
  140.7100   77.5760  222.9270 C   0  0  0  0  0  0  0  0  0  0  0  0
  142.3000   75.4500  220.7130 N   0  0  0  0  0  0  0  0  0  0  0  0
  145.0430   73.2620  220.6810 C   0  0  0  0  0  0  0  0  0  0  0  0
  146.1030   72.5210  219.8990 C   0  0  0  0  0  0  0  0  0  0  0  0
  145.8020   68.5350  217.3010 H   0  0  0  0  0  0  0  0  0  0  0  0
  147.4090   69.1410  217.2930 H   0  0  0  0  0  0  0  0  0  0  0  0
  143.7823   71.0010  218.0287 H   0  0  0  0  0  0  0  0  0  0  0  0
  143.7047   71.2753  219.7832 H   0  0  0  0  0  0  0  0  0  0  0  0
  144.1978   73.4883  217.6960 H   0  0  0  0  0  0  0  0  0  0  0  0
  142.5965   73.1250  218.4086 H   0  0  0  0  0  0  0  0  0  0  0  0
  144.4850   74.8470  219.3961 H   0  0  0  0  0  0  0  0  0  0  0  0
  138.7901   72.2790  221.0970 H   0  0  0  0  0  0  0  0  0  0  0  0
  139.9529   70.8298  221.0472 H   0  0  0  0  0  0  0  0  0  0  0  0
  137.4818   71.2673  222.5207 H   0  0  0  0  0  0  0  0  0  0  0  0
  138.2732   69.7869  221.7471 H   0  0  0  0  0  0  0  0  0  0  0  0
  137.2601   68.6825  223.6831 H   0  0  0  0  0  0  0  0  0  0  0  0
  137.9195   67.7835  225.9047 H   0  0  0  0  0  0  0  0  0  0  0  0
  139.8406   68.7911  227.1080 H   0  0  0  0  0  0  0  0  0  0  0  0
  141.1006   70.6880  226.1082 H   0  0  0  0  0  0  0  0  0  0  0  0
  140.5141   72.7628  224.4411 H   0  0  0  0  0  0  0  0  0  0  0  0
  141.7373   71.5713  223.7981 H   0  0  0  0  0  0  0  0  0  0  0  0
  140.9454   77.9323  219.7633 H   0  0  0  0  0  0  0  0  0  0  0  0
  139.3806   77.0611  219.9583 H   0  0  0  0  0  0  0  0  0  0  0  0
  139.1687   79.5756  220.0690 H   0  0  0  0  0  0  0  0  0  0  0  0
  138.5737   78.7516  221.5272 H   0  0  0  0  0  0  0  0  0  0  0  0
  140.3289   81.5890  220.7366 H   0  0  0  0  0  0  0  0  0  0  0  0
  142.0114   82.6686  222.1549 H   0  0  0  0  0  0  0  0  0  0  0  0
  143.1631   81.4318  223.9901 H   0  0  0  0  0  0  0  0  0  0  0  0
  142.5595   79.0156  224.3704 H   0  0  0  0  0  0  0  0  0  0  0  0
  141.4359   77.0480  223.5628 H   0  0  0  0  0  0  0  0  0  0  0  0
  139.7203   77.5153  223.4033 H   0  0  0  0  0  0  0  0  0  0  0  0
  145.5288   74.0368  221.2922 H   0  0  0  0  0  0  0  0  0  0  0  0
  144.5132   72.5330  221.3117 H   0  0  0  0  0  0  0  0  0  0  0  0
  146.7614   73.2585  219.4167 H   0  0  0  0  0  0  0  0  0  0  0  0
  146.6485   71.8834  220.6102 H   0  0  0  0  0  0  0  0  0  0  0  0
  1  2  1  0
  2  3  2  0
  2  4  2  0
  2  5  1  0
  5  6  1  0
  6  7  1  0
  7  8  1  0
  8  9  1  0
  9 10  2  0
 10 11  1  0
 11 12  1  0
 12 13  1  0
 13 14  1  0
 14 15  1  0
 15 16  2  0
 16 17  1  0
 17 18  2  0
 18 19  1  0
 19 20  2  0
 20 21  1  0
 11 22  2  0
 22 23  1  0
 23 24  1  0
 24 25  1  0
 25 26  1  0
 26 27  1  0
 27 28  2  0
 28 29  1  0
 29 30  2  0
 30 31  1  0
 31 32  2  0
 32 33  1  0
 23 34  2  0
  8 35  1  0
 35 36  1  0
 36  5  1  0
 34  9  1  0
 21 12  1  0
 33 24  1  0
 20 15  1  0
 32 27  1  0
  1 37  1  0
  1 38  1  0
  6 39  1  0
  6 40  1  0
  7 41  1  0
  7 42  1  0
  8 43  1  0
 13 44  1  0
 13 45  1  0
 14 46  1  0
 14 47  1  0
 16 48  1  0
 17 49  1  0
 18 50  1  0
 19 51  1  0
 21 52  1  0
 21 53  1  0
 25 54  1  0
 25 55  1  0
 26 56  1  0
 26 57  1  0
 28 58  1  0
 29 59  1  0
 30 60  1  0
 31 61  1  0
 33 62  1  0
 33 63  1  0
 35 64  1  0
 35 65  1  0
 36 66  1  0
 36 67  1  0
M  END
