
     RDKit          3D

 76 82  0  0  0  0  0  0  0  0999 V2000
  138.2240   70.8540  224.4550 O   0  0  0  0  0  0  0  0  0  0  0  0
  139.3550   71.1390  223.9430 C   0  0  0  0  0  0  0  0  0  0  0  0
  140.4880   70.7370  224.7090 N   0  0  0  0  0  0  0  0  0  0  0  0
  140.3810   70.0640  225.9580 C   0  0  0  0  0  0  0  0  0  0  0  0
  140.2930   68.6880  226.0170 C   0  0  0  0  0  0  0  0  0  0  0  0
  140.1920   68.0930  227.2540 C   0  0  0  0  0  0  0  0  0  0  0  0
  140.1770   68.8230  228.4320 C   0  0  0  0  0  0  0  0  0  0  0  0
  140.2670   70.1860  228.3400 C   0  0  0  0  0  0  0  0  0  0  0  0
  140.3680   70.7900  227.1240 C   0  0  0  0  0  0  0  0  0  0  0  0
  139.4790   71.8390  222.6420 C   0  0  2  0  0  0  0  0  0  0  0  0
  139.3000   70.8670  221.5050 C   0  0  0  0  0  0  0  0  0  0  0  0
  140.5580   70.5810  220.7530 C   0  0  0  0  0  0  0  0  0  0  0  0
  141.1920   71.8420  220.2530 C   0  0  0  0  0  0  0  0  0  0  0  0
  141.1010   72.9360  221.1720 N   0  0  0  0  0  0  0  0  0  0  0  0
  141.3430   74.2610  220.7130 C   0  0  0  0  0  0  0  0  0  0  0  0
  142.0760   74.4260  219.5970 N   0  0  0  0  0  0  0  0  0  0  0  0
  142.3550   75.6410  219.0890 C   0  0  0  0  0  0  0  0  0  0  0  0
  143.1390   75.8080  217.8970 N   0  0  0  0  0  0  0  0  0  0  0  0
  143.0900   77.1150  217.2690 C   0  0  0  0  0  0  0  0  0  0  0  0
  143.0760   76.8470  215.7660 C   0  0  0  0  0  0  0  0  0  0  0  0
  144.3970   76.2050  215.4600 C   0  0  0  0  0  0  0  0  0  0  0  0
  145.1940   76.6300  214.4190 C   0  0  0  0  0  0  0  0  0  0  0  0
  146.4020   76.0180  214.1670 C   0  0  0  0  0  0  0  0  0  0  0  0
  146.7820   74.9730  214.9850 C   0  0  0  0  0  0  0  0  0  0  0  0
  145.9810   74.5530  216.0240 C   0  0  0  0  0  0  0  0  0  0  0  0
  144.7600   75.1580  216.2930 C   0  0  0  0  0  0  0  0  0  0  0  0
  143.8990   74.7020  217.4140 C   0  0  0  0  0  0  0  0  0  0  0  0
  141.8600   76.7180  219.7530 N   0  0  0  0  0  0  0  0  0  0  0  0
  141.1220   76.6040  220.8720 C   0  0  0  0  0  0  0  0  0  0  0  0
  140.6410   77.7780  221.5090 N   0  0  0  0  0  0  0  0  0  0  0  0
  141.3780   78.2460  222.6690 C   0  0  0  0  0  0  0  0  0  0  0  0
  141.1170   79.7430  222.8810 C   0  0  0  0  0  0  0  0  0  0  0  0
  139.6410   79.8290  223.1340 C   0  0  0  0  0  0  0  0  0  0  0  0
  139.1340   80.5020  224.2290 C   0  0  0  0  0  0  0  0  0  0  0  0
  137.7550   80.5360  224.3920 C   0  0  0  0  0  0  0  0  0  0  0  0
  136.9220   79.9020  223.4650 C   0  0  0  0  0  0  0  0  0  0  0  0
  137.4620   79.2320  222.3700 C   0  0  0  0  0  0  0  0  0  0  0  0
  138.8340   79.1970  222.2060 C   0  0  0  0  0  0  0  0  0  0  0  0
  139.4740   78.4880  221.0440 C   0  0  0  0  0  0  0  0  0  0  0  0
  140.8760   75.3580  221.3360 N   0  0  0  0  0  0  0  0  0  0  0  0
  140.7610   72.6380  222.5520 C   0  0  0  0  0  0  0  0  0  0  0  0
  141.4530   70.9290  224.3680 H   0  0  0  0  0  0  0  0  0  0  0  0
  140.3033   68.0823  225.0989 H   0  0  0  0  0  0  0  0  0  0  0  0
  140.1205   66.9967  227.3097 H   0  0  0  0  0  0  0  0  0  0  0  0
  140.0955   68.3237  229.4088 H   0  0  0  0  0  0  0  0  0  0  0  0
  140.2576   70.7972  229.2545 H   0  0  0  0  0  0  0  0  0  0  0  0
  140.4410   71.8864  227.0741 H   0  0  0  0  0  0  0  0  0  0  0  0
  138.6692   72.5792  222.5624 H   0  0  0  0  0  0  0  0  0  0  0  0
  138.9181   69.9203  221.9149 H   0  0  0  0  0  0  0  0  0  0  0  0
  138.6002   71.3307  220.7942 H   0  0  0  0  0  0  0  0  0  0  0  0
  141.2644   70.0648  221.4197 H   0  0  0  0  0  0  0  0  0  0  0  0
  140.3088   69.9507  219.8866 H   0  0  0  0  0  0  0  0  0  0  0  0
  142.2555   71.6415  220.0561 H   0  0  0  0  0  0  0  0  0  0  0  0
  140.6455   72.1384  219.3455 H   0  0  0  0  0  0  0  0  0  0  0  0
  142.1794   77.6528  217.5718 H   0  0  0  0  0  0  0  0  0  0  0  0
  143.9455   77.7407  217.5633 H   0  0  0  0  0  0  0  0  0  0  0  0
  142.2498   76.1697  215.5041 H   0  0  0  0  0  0  0  0  0  0  0  0
  142.9285   77.7715  215.1884 H   0  0  0  0  0  0  0  0  0  0  0  0
  144.8626   77.4649  213.7841 H   0  0  0  0  0  0  0  0  0  0  0  0
  147.0445   76.3519  213.3389 H   0  0  0  0  0  0  0  0  0  0  0  0
  147.7416   74.4666  214.8039 H   0  0  0  0  0  0  0  0  0  0  0  0
  146.3167   73.7178  216.6563 H   0  0  0  0  0  0  0  0  0  0  0  0
  143.2184   73.9141  217.0591 H   0  0  0  0  0  0  0  0  0  0  0  0
  144.5259   74.3006  218.2239 H   0  0  0  0  0  0  0  0  0  0  0  0
  141.0506   77.6886  223.5590 H   0  0  0  0  0  0  0  0  0  0  0  0
  142.4537   78.0843  222.5055 H   0  0  0  0  0  0  0  0  0  0  0  0
  141.6833   80.1187  223.7460 H   0  0  0  0  0  0  0  0  0  0  0  0
  141.4322   80.3509  222.0201 H   0  0  0  0  0  0  0  0  0  0  0  0
  139.8022   80.9959  224.9498 H   0  0  0  0  0  0  0  0  0  0  0  0
  137.3171   81.0630  225.2525 H   0  0  0  0  0  0  0  0  0  0  0  0
  135.8310   79.9327  223.6018 H   0  0  0  0  0  0  0  0  0  0  0  0
  136.8030   78.7354  221.6426 H   0  0  0  0  0  0  0  0  0  0  0  0
  138.7586   77.7752  220.6080 H   0  0  0  0  0  0  0  0  0  0  0  0
  139.7669   79.2212  220.2781 H   0  0  0  0  0  0  0  0  0  0  0  0
  141.5779   72.0570  223.0049 H   0  0  0  0  0  0  0  0  0  0  0  0
  140.6163   73.5882  223.0870 H   0  0  0  0  0  0  0  0  0  0  0  0
  1  2  2  0
  2  3  1  0
  3  4  1  0
  4  5  2  0
  5  6  1  0
  6  7  2  0
  7  8  1  0
  8  9  2  0
  2 10  1  0
 10 11  1  0
 11 12  1  0
 12 13  1  0
 13 14  1  0
 14 15  1  0
 15 16  2  0
 16 17  1  0
 17 18  1  0
 18 19  1  0
 19 20  1  0
 20 21  1  0
 21 22  2  0
 22 23  1  0
 23 24  2  0
 24 25  1  0
 25 26  2  0
 26 27  1  0
 17 28  2  0
 28 29  1  0
 29 30  1  0
 30 31  1  0
 31 32  1  0
 32 33  1  0
 33 34  2  0
 34 35  1  0
 35 36  2  0
 36 37  1  0
 37 38  2  0
 38 39  1  0
 29 40  2  0
 14 41  1  0
  9  4  1  0
 41 10  1  0
 40 15  1  0
 27 18  1  0
 39 30  1  0
 26 21  1  0
 38 33  1  0
  3 42  1  0
  5 43  1  0
  6 44  1  0
  7 45  1  0
  8 46  1  0
  9 47  1  0
 10 48  1  1
 11 49  1  0
 11 50  1  0
 12 51  1  0
 12 52  1  0
 13 53  1  0
 13 54  1  0
 19 55  1  0
 19 56  1  0
 20 57  1  0
 20 58  1  0
 22 59  1  0
 23 60  1  0
 24 61  1  0
 25 62  1  0
 27 63  1  0
 27 64  1  0
 31 65  1  0
 31 66  1  0
 32 67  1  0
 32 68  1  0
 34 69  1  0
 35 70  1  0
 36 71  1  0
 37 72  1  0
 39 73  1  0
 39 74  1  0
 41 75  1  0
 41 76  1  0
M  END
