
     RDKit          3D

 59 64  0  0  1  0  0  0  0  0999 V2000
  146.2160   69.5070  217.9260 N   0  0  0  0  0  0  0  0  0  0  0  0
  145.4350   69.7150  219.1050 C   0  0  0  0  0  0  0  0  0  0  0  0
  145.1870   68.7930  219.9210 O   0  0  0  0  0  0  0  0  0  0  0  0
  144.8900   71.0480  219.3990 C   0  0  0  0  0  0  0  0  0  0  0  0
  145.6130   72.1510  219.0110 C   0  0  0  0  0  0  0  0  0  0  0  0
  145.1320   73.4160  219.2700 C   0  0  0  0  0  0  0  0  0  0  0  0
  143.9230   73.5680  219.9220 C   0  0  0  0  0  0  0  0  0  0  0  0
  143.2260   74.6980  220.2960 C   0  0  0  0  0  0  0  0  0  0  0  0
  142.0520   74.2890  220.9280 C   0  0  0  0  0  0  0  0  0  0  0  0
  141.0440   75.1610  221.4670 C   0  0  0  0  0  0  0  0  0  0  0  0
  140.2600   74.6630  222.3400 O   0  0  0  0  0  0  0  0  0  0  0  0
  140.8610   76.5040  221.1070 N   0  0  0  0  0  0  0  0  0  0  0  0
  140.2120   77.0230  219.8930 C   0  0  0  0  0  0  0  0  0  0  0  0
  141.1750   78.1420  219.5550 C   0  0  1  0  0  0  0  0  0  0  0  0
  142.3850   77.4930  218.9140 C   0  0  0  0  0  0  0  0  0  0  0  0
  141.9890   77.6300  217.4370 C   0  0  0  0  0  0  0  0  0  0  0  0
  141.5370   79.0090  217.4270 N   0  0  0  0  0  0  0  0  0  0  0  0
  140.8880   79.3560  216.1790 C   0  0  2  0  0  0  0  0  0  0  0  0
  141.2930   78.4330  215.0650 C   0  0  0  0  0  0  0  0  0  0  0  0
  142.5840   79.0350  214.6050 C   0  0  0  0  0  0  0  0  0  0  0  0
  142.4860   80.4480  214.8090 N   0  0  0  0  0  0  0  0  0  0  0  0
  141.4420   80.7180  215.7600 C   0  0  0  0  0  0  0  0  0  0  0  0
  140.6380   79.1200  218.5550 C   0  0  0  0  0  0  0  0  0  0  0  0
  141.4530   78.7140  220.8850 C   0  0  0  0  0  0  0  0  0  0  0  0
  141.8370   79.9450  221.3570 C   0  0  0  0  0  0  0  0  0  0  0  0
  142.0170   80.1500  222.7170 C   0  0  0  0  0  0  0  0  0  0  0  0
  141.8190   79.1350  223.6350 C   0  0  0  0  0  0  0  0  0  0  0  0
  141.4340   77.8970  223.1740 C   0  0  0  0  0  0  0  0  0  0  0  0
  141.2560   77.7000  221.8110 C   0  0  0  0  0  0  0  0  0  0  0  0
  142.0510   72.9350  220.9290 N   0  0  0  0  0  0  0  0  0  0  0  0
  143.1680   72.4710  220.3270 C   0  0  0  0  0  0  0  0  0  0  0  0
  143.6930   71.2320  220.0440 C   0  0  0  0  0  0  0  0  0  0  0  0
  145.9600   69.8810  216.9920 H   0  0  0  0  0  0  0  0  0  0  0  0
  147.1140   68.9450  217.9560 H   0  0  0  0  0  0  0  0  0  0  0  0
  146.5755   72.0237  218.4938 H   0  0  0  0  0  0  0  0  0  0  0  0
  145.7075   74.3005  218.9593 H   0  0  0  0  0  0  0  0  0  0  0  0
  143.5406   75.7382  220.1258 H   0  0  0  0  0  0  0  0  0  0  0  0
  140.1664   76.2660  219.0963 H   0  0  0  0  0  0  0  0  0  0  0  0
  139.1628   77.3292  220.0169 H   0  0  0  0  0  0  0  0  0  0  0  0
  143.3129   78.0376  219.1429 H   0  0  0  0  0  0  0  0  0  0  0  0
  142.6005   76.4677  219.2491 H   0  0  0  0  0  0  0  0  0  0  0  0
  142.8483   77.4767  216.7676 H   0  0  0  0  0  0  0  0  0  0  0  0
  141.2491   76.8962  217.0846 H   0  0  0  0  0  0  0  0  0  0  0  0
  139.7997   79.3188  216.3344 H   0  0  0  0  0  0  0  0  0  0  0  0
  141.4405   77.4066  215.4319 H   0  0  0  0  0  0  0  0  0  0  0  0
  140.5390   78.3465  214.2687 H   0  0  0  0  0  0  0  0  0  0  0  0
  143.4207   78.6264  215.1907 H   0  0  0  0  0  0  0  0  0  0  0  0
  142.7678   78.8044  213.5453 H   0  0  0  0  0  0  0  0  0  0  0  0
  143.4360   80.7700  215.1410 H   0  0  0  0  0  0  0  0  0  0  0  0
  141.8488   81.2497  216.6328 H   0  0  0  0  0  0  0  0  0  0  0  0
  140.6573   81.3548  215.3255 H   0  0  0  0  0  0  0  0  0  0  0  0
  140.6500   80.1412  218.9637 H   0  0  0  0  0  0  0  0  0  0  0  0
  139.5933   78.9103  218.2817 H   0  0  0  0  0  0  0  0  0  0  0  0
  142.0028   80.7734  220.6525 H   0  0  0  0  0  0  0  0  0  0  0  0
  142.3247   81.1440  223.0739 H   0  0  0  0  0  0  0  0  0  0  0  0
  141.9661   79.3134  224.7104 H   0  0  0  0  0  0  0  0  0  0  0  0
  141.2685   77.0697  223.8798 H   0  0  0  0  0  0  0  0  0  0  0  0
  141.3280   72.2910  221.3170 H   0  0  0  0  0  0  0  0  0  0  0  0
  143.1238   70.3421  220.3507 H   0  0  0  0  0  0  0  0  0  0  0  0
  1  2  1  0
  2  3  2  0
  2  4  1  0
  4  5  2  0
  5  6  1  0
  6  7  2  0
  7  8  1  0
  8  9  2  0
  9 10  1  0
 10 11  2  0
 10 12  1  0
 12 13  1  0
 14 13  1  1
 14 15  1  0
 15 16  1  0
 16 17  1  0
 17 18  1  0
 18 19  1  0
 19 20  1  0
 20 21  1  0
 21 22  1  0
 17 23  1  0
 14 24  1  0
 24 25  2  0
 25 26  1  0
 26 27  2  0
 27 28  1  0
 28 29  2  0
  9 30  1  0
 30 31  1  0
 31 32  2  0
 32  4  1  0
 31  7  1  0
 29 12  1  0
 23 14  1  0
 29 24  1  0
 22 18  1  0
  1 33  1  0
  1 34  1  0
  5 35  1  0
  6 36  1  0
  8 37  1  0
 13 38  1  0
 13 39  1  0
 15 40  1  0
 15 41  1  0
 16 42  1  0
 16 43  1  0
 18 44  1  1
 19 45  1  0
 19 46  1  0
 20 47  1  0
 20 48  1  0
 21 49  1  0
 22 50  1  0
 22 51  1  0
 23 52  1  0
 23 53  1  0
 25 54  1  0
 26 55  1  0
 27 56  1  0
 28 57  1  0
 30 58  1  0
 32 59  1  0
M  END
>  <smiles>  (1) 
NC(=O)c1ccc2cc(C(=O)N3C[C@]4(CCN(C5CCNC5)C4)c4ccccc43)[nH]c2c1

>  <score_type>  (1) 
oracle

>  <origin>  (1) 
autodockgpu

>  <m_score__min__energy>  (1) 
-9.4000000000000004

>  <m_primary>  (1) 
energy

>  <rmsd>  (1) 
6.367123000557505

>  <m_score__min__rmsd>  (1) 
6.367123000557505

>  <meeko>  (1) 
{"free_energy": -8.27, "intermolecular_energy": -9.47, "internal_energy": -1.36, "cluster_size": 8, "cluster_id": 3, "rank_in_cluster": 6}

>  <energy>  (1) 
-9.4

>  <cluster_rmsd>  (1) 
0.0

>  <cluster>  (1) 
1

$$$$

     RDKit          3D

 59 64  0  0  1  0  0  0  0  0999 V2000
  146.3160   73.0320  221.5470 N   0  0  0  0  0  0  0  0  0  0  0  0
  145.6140   73.2130  220.3150 C   0  0  0  0  0  0  0  0  0  0  0  0
  146.0780   72.8290  219.2130 O   0  0  0  0  0  0  0  0  0  0  0  0
  144.2990   73.8680  220.3080 C   0  0  0  0  0  0  0  0  0  0  0  0
  143.1810   73.0930  220.5120 C   0  0  0  0  0  0  0  0  0  0  0  0
  141.9310   73.6740  220.5120 C   0  0  0  0  0  0  0  0  0  0  0  0
  141.8090   75.0350  220.3050 C   0  0  0  0  0  0  0  0  0  0  0  0
  140.6990   75.8530  220.2580 C   0  0  0  0  0  0  0  0  0  0  0  0
  141.1350   77.1560  220.0210 C   0  0  0  0  0  0  0  0  0  0  0  0
  140.2910   78.3130  219.9030 C   0  0  0  0  0  0  0  0  0  0  0  0
  139.4480   78.3160  218.9470 O   0  0  0  0  0  0  0  0  0  0  0  0
  140.3250   79.4280  220.7530 N   0  0  0  0  0  0  0  0  0  0  0  0
  139.6090   80.7020  220.5840 C   0  0  0  0  0  0  0  0  0  0  0  0
  140.7100   81.6620  220.9850 C   0  0  1  0  0  0  0  0  0  0  0  0
  141.6490   81.7620  219.8000 C   0  0  0  0  0  0  0  0  0  0  0  0
  141.0600   83.0060  219.1200 C   0  0  0  0  0  0  0  0  0  0  0  0
  140.8970   83.8680  220.2750 N   0  0  0  0  0  0  0  0  0  0  0  0
  140.1410   85.0620  219.9550 C   0  0  2  0  0  0  0  0  0  0  0  0
  138.7520   85.0120  220.5240 C   0  0  0  0  0  0  0  0  0  0  0  0
  138.0120   84.2200  219.4900 C   0  0  0  0  0  0  0  0  0  0  0  0
  138.6130   84.5120  218.2250 N   0  0  0  0  0  0  0  0  0  0  0  0
  139.9280   85.0530  218.4400 C   0  0  0  0  0  0  0  0  0  0  0  0
  140.2270   83.0520  221.2640 C   0  0  0  0  0  0  0  0  0  0  0  0
  141.3030   80.9730  222.1460 C   0  0  0  0  0  0  0  0  0  0  0  0
  141.9950   81.3670  223.2650 C   0  0  0  0  0  0  0  0  0  0  0  0
  142.4240   80.4260  224.1910 C   0  0  0  0  0  0  0  0  0  0  0  0
  142.1750   79.0770  224.0220 C   0  0  0  0  0  0  0  0  0  0  0  0
  141.4830   78.6700  222.9040 C   0  0  0  0  0  0  0  0  0  0  0  0
  141.0570   79.6180  221.9820 C   0  0  0  0  0  0  0  0  0  0  0  0
  142.4850   77.1130  219.9280 N   0  0  0  0  0  0  0  0  0  0  0  0
  142.9210   75.8460  220.0960 C   0  0  0  0  0  0  0  0  0  0  0  0
  144.1440   75.2160  220.1060 C   0  0  0  0  0  0  0  0  0  0  0  0
  146.4020   73.7680  222.2740 H   0  0  0  0  0  0  0  0  0  0  0  0
  146.7920   72.1130  221.7770 H   0  0  0  0  0  0  0  0  0  0  0  0
  143.2844   72.0101  220.6751 H   0  0  0  0  0  0  0  0  0  0  0  0
  141.0349   73.0574  220.6760 H   0  0  0  0  0  0  0  0  0  0  0  0
  139.6541   75.5335  220.3851 H   0  0  0  0  0  0  0  0  0  0  0  0
  139.2878   80.8574  219.5435 H   0  0  0  0  0  0  0  0  0  0  0  0
  138.6751   80.7942  221.1579 H   0  0  0  0  0  0  0  0  0  0  0  0
  142.6914   81.9198  220.1137 H   0  0  0  0  0  0  0  0  0  0  0  0
  141.7054   80.8634  219.1681 H   0  0  0  0  0  0  0  0  0  0  0  0
  141.7544   83.4365  218.3835 H   0  0  0  0  0  0  0  0  0  0  0  0
  140.1421   82.8276  218.5406 H   0  0  0  0  0  0  0  0  0  0  0  0
  140.6875   85.9318  220.3485 H   0  0  0  0  0  0  0  0  0  0  0  0
  138.7391   84.5039  221.4995 H   0  0  0  0  0  0  0  0  0  0  0  0
  138.3173   86.0047  220.7130 H   0  0  0  0  0  0  0  0  0  0  0  0
  138.0950   83.1450  219.7077 H   0  0  0  0  0  0  0  0  0  0  0  0
  136.9441   84.4839  219.4857 H   0  0  0  0  0  0  0  0  0  0  0  0
  138.6270   83.6050  217.6840 H   0  0  0  0  0  0  0  0  0  0  0  0
  140.6850   84.4216  217.9519 H   0  0  0  0  0  0  0  0  0  0  0  0
  140.0211   86.0634  218.0152 H   0  0  0  0  0  0  0  0  0  0  0  0
  140.5059   83.3647  222.2811 H   0  0  0  0  0  0  0  0  0  0  0  0
  139.1317   83.1360  221.2064 H   0  0  0  0  0  0  0  0  0  0  0  0
  142.2103   82.4333  223.4282 H   0  0  0  0  0  0  0  0  0  0  0  0
  142.9757   80.7623  225.0812 H   0  0  0  0  0  0  0  0  0  0  0  0
  142.5225   78.3443  224.7652 H   0  0  0  0  0  0  0  0  0  0  0  0
  141.2691   77.6033  222.7419 H   0  0  0  0  0  0  0  0  0  0  0  0
  143.1460   77.9020  219.7550 H   0  0  0  0  0  0  0  0  0  0  0  0
  145.0452   75.8254  219.9434 H   0  0  0  0  0  0  0  0  0  0  0  0
  1  2  1  0
  2  3  2  0
  2  4  1  0
  4  5  2  0
  5  6  1  0
  6  7  2  0
  7  8  1  0
  8  9  2  0
  9 10  1  0
 10 11  2  0
 10 12  1  0
 12 13  1  0
 14 13  1  6
 14 15  1  0
 15 16  1  0
 16 17  1  0
 17 18  1  0
 18 19  1  0
 19 20  1  0
 20 21  1  0
 21 22  1  0
 17 23  1  0
 14 24  1  0
 24 25  2  0
 25 26  1  0
 26 27  2  0
 27 28  1  0
 28 29  2  0
  9 30  1  0
 30 31  1  0
 31 32  2  0
 32  4  1  0
 31  7  1  0
 29 12  1  0
 23 14  1  0
 29 24  1  0
 22 18  1  0
  1 33  1  0
  1 34  1  0
  5 35  1  0
  6 36  1  0
  8 37  1  0
 13 38  1  0
 13 39  1  0
 15 40  1  0
 15 41  1  0
 16 42  1  0
 16 43  1  0
 18 44  1  6
 19 45  1  0
 19 46  1  0
 20 47  1  0
 20 48  1  0
 21 49  1  0
 22 50  1  0
 22 51  1  0
 23 52  1  0
 23 53  1  0
 25 54  1  0
 26 55  1  0
 27 56  1  0
 28 57  1  0
 30 58  1  0
 32 59  1  0
M  END
>  <smiles>  (2) 
NC(=O)c1ccc2cc(C(=O)N3C[C@]4(CCN(C5CCNC5)C4)c4ccccc43)[nH]c2c1

>  <score_type>  (2) 
oracle

>  <origin>  (2) 
autodockgpu

>  <m_score__min__energy>  (2) 
-9.4000000000000004

>  <m_primary>  (2) 
energy

>  <rmsd>  (2) 
6.769293663616191

>  <m_score__min__rmsd>  (2) 
6.769293663616191

>  <meeko>  (2) 
{"free_energy": -8.41, "intermolecular_energy": -9.6, "internal_energy": -1.25, "cluster_size": 4, "cluster_id": 2, "rank_in_cluster": 2}

>  <energy>  (2) 
-9.38

>  <cluster_rmsd>  (2) 
0.16

>  <cluster>  (2) 
1

$$$$

     RDKit          3D

 59 64  0  0  1  0  0  0  0  0999 V2000
  145.9990   72.9090  220.9300 N   0  0  0  0  0  0  0  0  0  0  0  0
  145.4750   73.1450  219.6210 C   0  0  0  0  0  0  0  0  0  0  0  0
  145.9070   72.5490  218.6030 O   0  0  0  0  0  0  0  0  0  0  0  0
  144.3890   74.1170  219.4290 C   0  0  0  0  0  0  0  0  0  0  0  0
  144.0870   74.5140  218.1470 C   0  0  0  0  0  0  0  0  0  0  0  0
  143.0750   75.4230  217.9290 C   0  0  0  0  0  0  0  0  0  0  0  0
  142.3680   75.9320  219.0030 C   0  0  0  0  0  0  0  0  0  0  0  0
  141.3280   76.8360  219.0620 C   0  0  0  0  0  0  0  0  0  0  0  0
  140.9790   77.0010  220.4020 C   0  0  0  0  0  0  0  0  0  0  0  0
  139.9360   77.8590  220.8960 C   0  0  0  0  0  0  0  0  0  0  0  0
  138.8820   77.9520  220.1850 O   0  0  0  0  0  0  0  0  0  0  0  0
  139.9910   78.5930  222.0900 N   0  0  0  0  0  0  0  0  0  0  0  0
  138.9280   78.7410  223.0960 C   0  0  0  0  0  0  0  0  0  0  0  0
  139.0710   80.2200  223.3930 C   0  0  1  0  0  0  0  0  0  0  0  0
  138.4110   80.9570  222.2460 C   0  0  0  0  0  0  0  0  0  0  0  0
  137.0130   81.1550  222.8490 C   0  0  0  0  0  0  0  0  0  0  0  0
  137.3760   81.6040  224.1800 N   0  0  0  0  0  0  0  0  0  0  0  0
  136.2280   81.6630  225.0620 C   0  0  2  0  0  0  0  0  0  0  0  0
  135.5960   83.0250  225.0640 C   0  0  0  0  0  0  0  0  0  0  0  0
  136.4410   83.7670  226.0520 C   0  0  0  0  0  0  0  0  0  0  0  0
  136.8810   82.8180  227.0280 N   0  0  0  0  0  0  0  0  0  0  0  0
  136.7600   81.4920  226.4850 C   0  0  0  0  0  0  0  0  0  0  0  0
  138.3660   80.6560  224.6410 C   0  0  0  0  0  0  0  0  0  0  0  0
  140.5360   80.3810  223.4270 C   0  0  0  0  0  0  0  0  0  0  0  0
  141.4080   81.2480  224.0380 C   0  0  0  0  0  0  0  0  0  0  0  0
  142.7770   81.1140  223.8510 C   0  0  0  0  0  0  0  0  0  0  0  0
  143.3050   80.1170  223.0530 C   0  0  0  0  0  0  0  0  0  0  0  0
  142.4410   79.2420  222.4360 C   0  0  0  0  0  0  0  0  0  0  0  0
  141.0720   79.3820  222.6270 C   0  0  0  0  0  0  0  0  0  0  0  0
  141.8010   76.2080  221.1290 N   0  0  0  0  0  0  0  0  0  0  0  0
  142.6500   75.5490  220.3110 C   0  0  0  0  0  0  0  0  0  0  0  0
  143.6690   74.6390  220.4720 C   0  0  0  0  0  0  0  0  0  0  0  0
  146.2210   73.6640  221.6070 H   0  0  0  0  0  0  0  0  0  0  0  0
  146.1910   71.9250  221.2740 H   0  0  0  0  0  0  0  0  0  0  0  0
  144.6531   74.1060  217.2966 H   0  0  0  0  0  0  0  0  0  0  0  0
  142.8304   75.7425  216.9052 H   0  0  0  0  0  0  0  0  0  0  0  0
  140.8572   77.3380  218.2039 H   0  0  0  0  0  0  0  0  0  0  0  0
  137.9369   78.4987  222.6848 H   0  0  0  0  0  0  0  0  0  0  0  0
  139.0131   78.0772  223.9690 H   0  0  0  0  0  0  0  0  0  0  0  0
  138.9068   81.9158  222.0339 H   0  0  0  0  0  0  0  0  0  0  0  0
  138.4354   80.4367  221.2771 H   0  0  0  0  0  0  0  0  0  0  0  0
  136.4371   81.9172  222.3037 H   0  0  0  0  0  0  0  0  0  0  0  0
  136.3649   80.2667  222.8196 H   0  0  0  0  0  0  0  0  0  0  0  0
  135.5030   80.9026  224.7361 H   0  0  0  0  0  0  0  0  0  0  0  0
  135.6469   83.4893  224.0681 H   0  0  0  0  0  0  0  0  0  0  0  0
  134.5262   83.0139  225.3198 H   0  0  0  0  0  0  0  0  0  0  0  0
  137.3078   84.2157  225.5449 H   0  0  0  0  0  0  0  0  0  0  0  0
  135.8678   84.5776  226.5257 H   0  0  0  0  0  0  0  0  0  0  0  0
  137.8780   83.0740  227.2660 H   0  0  0  0  0  0  0  0  0  0  0  0
  137.7413   80.9953  226.4685 H   0  0  0  0  0  0  0  0  0  0  0  0
  136.0877   80.8688  227.0930 H   0  0  0  0  0  0  0  0  0  0  0  0
  139.0689   81.1350  225.3385 H   0  0  0  0  0  0  0  0  0  0  0  0
  137.9179   79.8126  225.1868 H   0  0  0  0  0  0  0  0  0  0  0  0
  141.0197   82.0531  224.6791 H   0  0  0  0  0  0  0  0  0  0  0  0
  143.4582   81.8187  224.3503 H   0  0  0  0  0  0  0  0  0  0  0  0
  144.3923   80.0250  222.9141 H   0  0  0  0  0  0  0  0  0  0  0  0
  142.8314   78.4371  221.7959 H   0  0  0  0  0  0  0  0  0  0  0  0
  141.8250   76.0790  222.1630 H   0  0  0  0  0  0  0  0  0  0  0  0
  143.9194   74.3128  221.4923 H   0  0  0  0  0  0  0  0  0  0  0  0
  1  2  1  0
  2  3  2  0
  2  4  1  0
  4  5  2  0
  5  6  1  0
  6  7  2  0
  7  8  1  0
  8  9  2  0
  9 10  1  0
 10 11  2  0
 10 12  1  0
 12 13  1  0
 14 13  1  6
 14 15  1  0
 15 16  1  0
 16 17  1  0
 17 18  1  0
 18 19  1  0
 19 20  1  0
 20 21  1  0
 21 22  1  0
 17 23  1  0
 14 24  1  0
 24 25  2  0
 25 26  1  0
 26 27  2  0
 27 28  1  0
 28 29  2  0
  9 30  1  0
 30 31  1  0
 31 32  2  0
 32  4  1  0
 31  7  1  0
 29 12  1  0
 23 14  1  0
 29 24  1  0
 22 18  1  0
  1 33  1  0
  1 34  1  0
  5 35  1  0
  6 36  1  0
  8 37  1  0
 13 38  1  0
 13 39  1  0
 15 40  1  0
 15 41  1  0
 16 42  1  0
 16 43  1  0
 18 44  1  6
 19 45  1  0
 19 46  1  0
 20 47  1  0
 20 48  1  0
 21 49  1  0
 22 50  1  0
 22 51  1  0
 23 52  1  0
 23 53  1  0
 25 54  1  0
 26 55  1  0
 27 56  1  0
 28 57  1  0
 30 58  1  0
 32 59  1  0
M  END
>  <smiles>  (3) 
NC(=O)c1ccc2cc(C(=O)N3C[C@]4(CCN(C5CCNC5)C4)c4ccccc43)[nH]c2c1

>  <score_type>  (3) 
oracle

>  <origin>  (3) 
autodockgpu

>  <m_score__min__energy>  (3) 
-9.4000000000000004

>  <m_primary>  (3) 
energy

>  <rmsd>  (3) 
7.208843976316814

>  <m_score__min__rmsd>  (3) 
7.208843976316814

>  <meeko>  (3) 
{"free_energy": -9.35, "intermolecular_energy": -10.54, "internal_energy": -1.24, "cluster_size": 35, "cluster_id": 1, "rank_in_cluster": 7}

>  <energy>  (3) 
-9.38

>  <cluster_rmsd>  (3) 
0.17

>  <cluster>  (3) 
1

$$$$

     RDKit          3D

 59 64  0  0  1  0  0  0  0  0999 V2000
  146.2440   69.6250  218.0540 N   0  0  0  0  0  0  0  0  0  0  0  0
  145.4570   69.8090  219.2330 C   0  0  0  0  0  0  0  0  0  0  0  0
  145.2060   68.8710  220.0290 O   0  0  0  0  0  0  0  0  0  0  0  0
  144.9100   71.1360  219.5510 C   0  0  0  0  0  0  0  0  0  0  0  0
  145.6900   72.2410  219.3050 C   0  0  0  0  0  0  0  0  0  0  0  0
  145.2090   73.5000  219.5910 C   0  0  0  0  0  0  0  0  0  0  0  0
  143.9430   73.6450  220.1250 C   0  0  0  0  0  0  0  0  0  0  0  0
  143.2330   74.7680  220.4950 C   0  0  0  0  0  0  0  0  0  0  0  0
  141.9930   74.3530  220.9790 C   0  0  0  0  0  0  0  0  0  0  0  0
  140.9520   75.2160  221.4650 C   0  0  0  0  0  0  0  0  0  0  0  0
  140.1000   74.7000  222.2600 O   0  0  0  0  0  0  0  0  0  0  0  0
  140.8050   76.5710  221.1330 N   0  0  0  0  0  0  0  0  0  0  0  0
  140.1550   77.1320  219.9390 C   0  0  0  0  0  0  0  0  0  0  0  0
  141.1470   78.2280  219.6070 C   0  0  1  0  0  0  0  0  0  0  0  0
  142.3270   77.5540  218.9360 C   0  0  0  0  0  0  0  0  0  0  0  0
  141.9150   77.7310  217.4680 C   0  0  0  0  0  0  0  0  0  0  0  0
  141.5050   79.1230  217.4910 N   0  0  0  0  0  0  0  0  0  0  0  0
  140.8500   79.5130  216.2590 C   0  0  2  0  0  0  0  0  0  0  0  0
  141.2000   78.5920  215.1250 C   0  0  0  0  0  0  0  0  0  0  0  0
  142.5060   79.1510  214.6520 C   0  0  0  0  0  0  0  0  0  0  0  0
  142.4660   80.5630  214.8770 N   0  0  0  0  0  0  0  0  0  0  0  0
  141.4500   80.8590  215.8500 C   0  0  0  0  0  0  0  0  0  0  0  0
  140.6260   79.2400  218.6330 C   0  0  0  0  0  0  0  0  0  0  0  0
  141.4610   78.7660  220.9430 C   0  0  0  0  0  0  0  0  0  0  0  0
  141.8890   79.9750  221.4320 C   0  0  0  0  0  0  0  0  0  0  0  0
  142.0940   80.1490  222.7930 C   0  0  0  0  0  0  0  0  0  0  0  0
  141.8780   79.1230  223.6950 C   0  0  0  0  0  0  0  0  0  0  0  0
  141.4490   77.9070  223.2170 C   0  0  0  0  0  0  0  0  0  0  0  0
  141.2460   77.7410  221.8530 C   0  0  0  0  0  0  0  0  0  0  0  0
  141.9660   73.0020  220.8970 N   0  0  0  0  0  0  0  0  0  0  0  0
  143.1290   72.5460  220.3850 C   0  0  0  0  0  0  0  0  0  0  0  0
  143.6570   71.3120  220.0810 C   0  0  0  0  0  0  0  0  0  0  0  0
  145.9930   70.0170  217.1260 H   0  0  0  0  0  0  0  0  0  0  0  0
  147.1420   69.0630  218.0770 H   0  0  0  0  0  0  0  0  0  0  0  0
  146.6974   72.1201  218.8801 H   0  0  0  0  0  0  0  0  0  0  0  0
  145.8304   74.3862  219.3950 H   0  0  0  0  0  0  0  0  0  0  0  0
  143.5834   75.8081  220.4212 H   0  0  0  0  0  0  0  0  0  0  0  0
  140.0748   76.3918  219.1292 H   0  0  0  0  0  0  0  0  0  0  0  0
  139.1175   77.4674  220.0843 H   0  0  0  0  0  0  0  0  0  0  0  0
  143.2746   78.0651  219.1612 H   0  0  0  0  0  0  0  0  0  0  0  0
  142.5149   76.5163  219.2488 H   0  0  0  0  0  0  0  0  0  0  0  0
  142.7598   77.5649  216.7834 H   0  0  0  0  0  0  0  0  0  0  0  0
  141.1485   77.0267  217.1123 H   0  0  0  0  0  0  0  0  0  0  0  0
  139.7638   79.5152  216.4324 H   0  0  0  0  0  0  0  0  0  0  0  0
  141.3135   77.5551  215.4743 H   0  0  0  0  0  0  0  0  0  0  0  0
  140.4302   78.5466  214.3406 H   0  0  0  0  0  0  0  0  0  0  0  0
  143.3356   78.7022  215.2180 H   0  0  0  0  0  0  0  0  0  0  0  0
  142.6636   78.9290  213.5862 H   0  0  0  0  0  0  0  0  0  0  0  0
  143.4330   80.8430  215.1970 H   0  0  0  0  0  0  0  0  0  0  0  0
  141.8922   81.3611  216.7232 H   0  0  0  0  0  0  0  0  0  0  0  0
  140.6836   81.5325  215.4388 H   0  0  0  0  0  0  0  0  0  0  0  0
  140.6746   80.2526  219.0599 H   0  0  0  0  0  0  0  0  0  0  0  0
  139.5717   79.0670  218.3711 H   0  0  0  0  0  0  0  0  0  0  0  0
  142.0706   80.8110  220.7406 H   0  0  0  0  0  0  0  0  0  0  0  0
  142.4365   81.1264  223.1636 H   0  0  0  0  0  0  0  0  0  0  0  0
  142.0457   79.2763  224.7713 H   0  0  0  0  0  0  0  0  0  0  0  0
  141.2680   77.0720  223.9098 H   0  0  0  0  0  0  0  0  0  0  0  0
  141.1950   72.3540  221.1700 H   0  0  0  0  0  0  0  0  0  0  0  0
  143.0422   70.4203  220.2730 H   0  0  0  0  0  0  0  0  0  0  0  0
  1  2  1  0
  2  3  2  0
  2  4  1  0
  4  5  2  0
  5  6  1  0
  6  7  2  0
  7  8  1  0
  8  9  2  0
  9 10  1  0
 10 11  2  0
 10 12  1  0
 12 13  1  0
 14 13  1  1
 14 15  1  0
 15 16  1  0
 16 17  1  0
 17 18  1  0
 18 19  1  0
 19 20  1  0
 20 21  1  0
 21 22  1  0
 17 23  1  0
 14 24  1  0
 24 25  2  0
 25 26  1  0
 26 27  2  0
 27 28  1  0
 28 29  2  0
  9 30  1  0
 30 31  1  0
 31 32  2  0
 32  4  1  0
 31  7  1  0
 29 12  1  0
 23 14  1  0
 29 24  1  0
 22 18  1  0
  1 33  1  0
  1 34  1  0
  5 35  1  0
  6 36  1  0
  8 37  1  0
 13 38  1  0
 13 39  1  0
 15 40  1  0
 15 41  1  0
 16 42  1  0
 16 43  1  0
 18 44  1  1
 19 45  1  0
 19 46  1  0
 20 47  1  0
 20 48  1  0
 21 49  1  0
 22 50  1  0
 22 51  1  0
 23 52  1  0
 23 53  1  0
 25 54  1  0
 26 55  1  0
 27 56  1  0
 28 57  1  0
 30 58  1  0
 32 59  1  0
M  END
>  <smiles>  (4) 
NC(=O)c1ccc2cc(C(=O)N3C[C@]4(CCN(C5CCNC5)C4)c4ccccc43)[nH]c2c1

>  <score_type>  (4) 
oracle

>  <origin>  (4) 
autodockgpu

>  <m_score__min__energy>  (4) 
-9.4000000000000004

>  <m_primary>  (4) 
energy

>  <rmsd>  (4) 
6.325192282052714

>  <m_score__min__rmsd>  (4) 
6.325192282052714

>  <meeko>  (4) 
{"free_energy": -8.36, "intermolecular_energy": -9.55, "internal_energy": -1.37, "cluster_size": 8, "cluster_id": 3, "rank_in_cluster": 3}

>  <energy>  (4) 
-9.36

>  <cluster_rmsd>  (4) 
0.91

>  <cluster>  (4) 
1

$$$$

     RDKit          3D

 59 64  0  0  1  0  0  0  0  0999 V2000
  146.3210   72.9930  221.4430 N   0  0  0  0  0  0  0  0  0  0  0  0
  145.6250   73.2620  220.2240 C   0  0  0  0  0  0  0  0  0  0  0  0
  146.1010   72.9730  219.0970 O   0  0  0  0  0  0  0  0  0  0  0  0
  144.3000   73.8970  220.2590 C   0  0  0  0  0  0  0  0  0  0  0  0
  143.2010   73.1050  220.4950 C   0  0  0  0  0  0  0  0  0  0  0  0
  141.9430   73.6670  220.5350 C   0  0  0  0  0  0  0  0  0  0  0  0
  141.7940   75.0260  220.3360 C   0  0  0  0  0  0  0  0  0  0  0  0
  140.6710   75.8270  220.3260 C   0  0  0  0  0  0  0  0  0  0  0  0
  141.0800   77.1370  220.0800 C   0  0  0  0  0  0  0  0  0  0  0  0
  140.2160   78.2820  219.9920 C   0  0  0  0  0  0  0  0  0  0  0  0
  139.3090   78.2510  219.0960 O   0  0  0  0  0  0  0  0  0  0  0  0
  140.2930   79.4190  220.8100 N   0  0  0  0  0  0  0  0  0  0  0  0
  139.6070   80.7050  220.6180 C   0  0  0  0  0  0  0  0  0  0  0  0
  140.7390   81.6470  220.9730 C   0  0  1  0  0  0  0  0  0  0  0  0
  141.6580   81.6910  219.7690 C   0  0  0  0  0  0  0  0  0  0  0  0
  141.0880   82.9300  219.0650 C   0  0  0  0  0  0  0  0  0  0  0  0
  140.9680   83.8280  220.1990 N   0  0  0  0  0  0  0  0  0  0  0  0
  140.2360   85.0320  219.8590 C   0  0  2  0  0  0  0  0  0  0  0  0
  138.8610   85.0370  220.4630 C   0  0  0  0  0  0  0  0  0  0  0  0
  138.0750   84.2350  219.4730 C   0  0  0  0  0  0  0  0  0  0  0  0
  138.6520   84.4710  218.1860 N   0  0  0  0  0  0  0  0  0  0  0  0
  139.9860   84.9810  218.3510 C   0  0  0  0  0  0  0  0  0  0  0  0
  140.2970   83.0570  221.2220 C   0  0  0  0  0  0  0  0  0  0  0  0
  141.3360   80.9760  222.1420 C   0  0  0  0  0  0  0  0  0  0  0  0
  142.0580   81.3810  223.2370 C   0  0  0  0  0  0  0  0  0  0  0  0
  142.4810   80.4560  224.1800 C   0  0  0  0  0  0  0  0  0  0  0  0
  142.1950   79.1090  224.0530 C   0  0  0  0  0  0  0  0  0  0  0  0
  141.4720   78.6900  222.9600 C   0  0  0  0  0  0  0  0  0  0  0  0
  141.0530   79.6230  222.0200 C   0  0  0  0  0  0  0  0  0  0  0  0
  142.4270   77.1150  219.9450 N   0  0  0  0  0  0  0  0  0  0  0  0
  142.8870   75.8540  220.0960 C   0  0  0  0  0  0  0  0  0  0  0  0
  144.1190   75.2430  220.0660 C   0  0  0  0  0  0  0  0  0  0  0  0
  146.3930   73.6700  222.2260 H   0  0  0  0  0  0  0  0  0  0  0  0
  146.8090   72.0660  221.6020 H   0  0  0  0  0  0  0  0  0  0  0  0
  143.3257   72.0234  220.6518 H   0  0  0  0  0  0  0  0  0  0  0  0
  141.0618   73.0364  220.7245 H   0  0  0  0  0  0  0  0  0  0  0  0
  139.6355   75.4914  220.4842 H   0  0  0  0  0  0  0  0  0  0  0  0
  139.2712   80.8400  219.5792 H   0  0  0  0  0  0  0  0  0  0  0  0
  138.6862   80.8370  221.2051 H   0  0  0  0  0  0  0  0  0  0  0  0
  142.7096   81.8309  220.0596 H   0  0  0  0  0  0  0  0  0  0  0  0
  141.6801   80.7743  219.1614 H   0  0  0  0  0  0  0  0  0  0  0  0
  141.7793   83.3222  218.3045 H   0  0  0  0  0  0  0  0  0  0  0  0
  140.1554   82.7592  218.5072 H   0  0  0  0  0  0  0  0  0  0  0  0
  140.8143   85.8991  220.2108 H   0  0  0  0  0  0  0  0  0  0  0  0
  138.8593   84.5592  221.4538 H   0  0  0  0  0  0  0  0  0  0  0  0
  138.4576   86.0464  220.6318 H   0  0  0  0  0  0  0  0  0  0  0  0
  138.1342   83.1653  219.7224 H   0  0  0  0  0  0  0  0  0  0  0  0
  137.0149   84.5282  219.4859 H   0  0  0  0  0  0  0  0  0  0  0  0
  138.6280   83.5470  217.6730 H   0  0  0  0  0  0  0  0  0  0  0  0
  140.7130   84.3132  217.8657 H   0  0  0  0  0  0  0  0  0  0  0  0
  140.0968   85.9741  217.8911 H   0  0  0  0  0  0  0  0  0  0  0  0
  140.6033   83.3900  222.2246 H   0  0  0  0  0  0  0  0  0  0  0  0
  139.2033   83.1677  221.1820 H   0  0  0  0  0  0  0  0  0  0  0  0
  142.3026   82.4455  223.3674 H   0  0  0  0  0  0  0  0  0  0  0  0
  143.0580   80.8023  225.0501 H   0  0  0  0  0  0  0  0  0  0  0  0
  142.5382   78.3880  224.8096 H   0  0  0  0  0  0  0  0  0  0  0  0
  141.2278   77.6252  222.8316 H   0  0  0  0  0  0  0  0  0  0  0  0
  143.0700   77.9140  219.7540 H   0  0  0  0  0  0  0  0  0  0  0  0
  145.0055   75.8663  219.8774 H   0  0  0  0  0  0  0  0  0  0  0  0
  1  2  1  0
  2  3  2  0
  2  4  1  0
  4  5  2  0
  5  6  1  0
  6  7  2  0
  7  8  1  0
  8  9  2  0
  9 10  1  0
 10 11  2  0
 10 12  1  0
 12 13  1  0
 14 13  1  6
 14 15  1  0
 15 16  1  0
 16 17  1  0
 17 18  1  0
 18 19  1  0
 19 20  1  0
 20 21  1  0
 21 22  1  0
 17 23  1  0
 14 24  1  0
 24 25  2  0
 25 26  1  0
 26 27  2  0
 27 28  1  0
 28 29  2  0
  9 30  1  0
 30 31  1  0
 31 32  2  0
 32  4  1  0
 31  7  1  0
 29 12  1  0
 23 14  1  0
 29 24  1  0
 22 18  1  0
  1 33  1  0
  1 34  1  0
  5 35  1  0
  6 36  1  0
  8 37  1  0
 13 38  1  0
 13 39  1  0
 15 40  1  0
 15 41  1  0
 16 42  1  0
 16 43  1  0
 18 44  1  6
 19 45  1  0
 19 46  1  0
 20 47  1  0
 20 48  1  0
 21 49  1  0
 22 50  1  0
 22 51  1  0
 23 52  1  0
 23 53  1  0
 25 54  1  0
 26 55  1  0
 27 56  1  0
 28 57  1  0
 30 58  1  0
 32 59  1  0
M  END
>  <smiles>  (5) 
NC(=O)c1ccc2cc(C(=O)N3C[C@]4(CCN(C5CCNC5)C4)c4ccccc43)[nH]c2c1

>  <score_type>  (5) 
oracle

>  <origin>  (5) 
autodockgpu

>  <m_score__min__energy>  (5) 
-9.4000000000000004

>  <m_primary>  (5) 
energy

>  <rmsd>  (5) 
6.765568858557064

>  <m_score__min__rmsd>  (5) 
6.765568858557064

>  <meeko>  (5) 
{"free_energy": -8.43, "intermolecular_energy": -9.62, "internal_energy": -1.26, "cluster_size": 4, "cluster_id": 2, "rank_in_cluster": 1}

>  <energy>  (5) 
-9.36

>  <cluster_rmsd>  (5) 
0.91

>  <cluster>  (5) 
1

$$$$

     RDKit          3D

 59 64  0  0  1  0  0  0  0  0999 V2000
  146.2740   69.6790  218.0060 N   0  0  0  0  0  0  0  0  0  0  0  0
  145.4750   69.8450  219.1800 C   0  0  0  0  0  0  0  0  0  0  0  0
  145.2150   68.8940  219.9580 O   0  0  0  0  0  0  0  0  0  0  0  0
  144.9260   71.1660  219.5140 C   0  0  0  0  0  0  0  0  0  0  0  0
  145.7360   72.2680  219.3650 C   0  0  0  0  0  0  0  0  0  0  0  0
  145.2530   73.5220  219.6680 C   0  0  0  0  0  0  0  0  0  0  0  0
  143.9560   73.6660  220.1230 C   0  0  0  0  0  0  0  0  0  0  0  0
  143.2390   74.7860  220.4890 C   0  0  0  0  0  0  0  0  0  0  0  0
  141.9630   74.3720  220.8720 C   0  0  0  0  0  0  0  0  0  0  0  0
  140.9030   75.2320  221.3220 C   0  0  0  0  0  0  0  0  0  0  0  0
  140.0060   74.7040  222.0580 O   0  0  0  0  0  0  0  0  0  0  0  0
  140.7840   76.5960  221.0160 N   0  0  0  0  0  0  0  0  0  0  0  0
  140.1510   77.1910  219.8290 C   0  0  0  0  0  0  0  0  0  0  0  0
  141.1660   78.2740  219.5230 C   0  0  1  0  0  0  0  0  0  0  0  0
  142.3350   77.5900  218.8450 C   0  0  0  0  0  0  0  0  0  0  0  0
  141.9330   77.8030  217.3780 C   0  0  0  0  0  0  0  0  0  0  0  0
  141.5510   79.2020  217.4260 N   0  0  0  0  0  0  0  0  0  0  0  0
  140.9090   79.6280  216.1990 C   0  0  2  0  0  0  0  0  0  0  0  0
  141.2360   78.7140  215.0520 C   0  0  0  0  0  0  0  0  0  0  0  0
  142.5570   79.2440  214.5890 C   0  0  0  0  0  0  0  0  0  0  0  0
  142.5560   80.6540  214.8340 N   0  0  0  0  0  0  0  0  0  0  0  0
  141.5460   80.9630  215.8100 C   0  0  0  0  0  0  0  0  0  0  0  0
  140.6680   79.3140  218.5660 C   0  0  0  0  0  0  0  0  0  0  0  0
  141.4840   78.7810  220.8700 C   0  0  0  0  0  0  0  0  0  0  0  0
  141.9330   79.9720  221.3840 C   0  0  0  0  0  0  0  0  0  0  0  0
  142.1350   80.1150  222.7490 C   0  0  0  0  0  0  0  0  0  0  0  0
  141.8950   79.0780  223.6300 C   0  0  0  0  0  0  0  0  0  0  0  0
  141.4440   77.8790  223.1280 C   0  0  0  0  0  0  0  0  0  0  0  0
  141.2450   77.7420  221.7600 C   0  0  0  0  0  0  0  0  0  0  0  0
  141.9230   73.0250  220.7350 N   0  0  0  0  0  0  0  0  0  0  0  0
  143.1120   72.5710  220.2830 C   0  0  0  0  0  0  0  0  0  0  0  0
  143.6430   71.3420  219.9660 C   0  0  0  0  0  0  0  0  0  0  0  0
  146.0320   70.0860  217.0820 H   0  0  0  0  0  0  0  0  0  0  0  0
  147.1710   69.1150  218.0290 H   0  0  0  0  0  0  0  0  0  0  0  0
  146.7682   72.1479  219.0043 H   0  0  0  0  0  0  0  0  0  0  0  0
  145.8973   74.4055  219.5482 H   0  0  0  0  0  0  0  0  0  0  0  0
  143.6080   75.8222  220.4804 H   0  0  0  0  0  0  0  0  0  0  0  0
  140.0614   76.4675  219.0052 H   0  0  0  0  0  0  0  0  0  0  0  0
  139.1191   77.5431  219.9747 H   0  0  0  0  0  0  0  0  0  0  0  0
  143.2915   78.0780  219.0839 H   0  0  0  0  0  0  0  0  0  0  0  0
  142.5011   76.5431  219.1389 H   0  0  0  0  0  0  0  0  0  0  0  0
  142.7774   77.6330  216.6938 H   0  0  0  0  0  0  0  0  0  0  0  0
  141.1543   77.1211  217.0058 H   0  0  0  0  0  0  0  0  0  0  0  0
  139.8230   79.6577  216.3712 H   0  0  0  0  0  0  0  0  0  0  0  0
  141.3208   77.6695  215.3865 H   0  0  0  0  0  0  0  0  0  0  0  0
  140.4666   78.7007  214.2660 H   0  0  0  0  0  0  0  0  0  0  0  0
  143.3730   78.7645  215.1496 H   0  0  0  0  0  0  0  0  0  0  0  0
  142.7097   79.0332  213.5202 H   0  0  0  0  0  0  0  0  0  0  0  0
  143.5290   80.9020  215.1610 H   0  0  0  0  0  0  0  0  0  0  0  0
  141.9999   81.4404  216.6909 H   0  0  0  0  0  0  0  0  0  0  0  0
  140.7987   81.6624  215.4071 H   0  0  0  0  0  0  0  0  0  0  0  0
  140.7330   80.3173  219.0122 H   0  0  0  0  0  0  0  0  0  0  0  0
  139.6120   79.1658  218.2961 H   0  0  0  0  0  0  0  0  0  0  0  0
  142.1337   80.8177  220.7098 H   0  0  0  0  0  0  0  0  0  0  0  0
  142.4952   81.0781  223.1398 H   0  0  0  0  0  0  0  0  0  0  0  0
  142.0610   79.2082  224.7096 H   0  0  0  0  0  0  0  0  0  0  0  0
  141.2426   77.0354  223.8046 H   0  0  0  0  0  0  0  0  0  0  0  0
  141.1280   72.3800  220.9310 H   0  0  0  0  0  0  0  0  0  0  0  0
  143.0048   70.4535  220.0811 H   0  0  0  0  0  0  0  0  0  0  0  0
  1  2  1  0
  2  3  2  0
  2  4  1  0
  4  5  2  0
  5  6  1  0
  6  7  2  0
  7  8  1  0
  8  9  2  0
  9 10  1  0
 10 11  2  0
 10 12  1  0
 12 13  1  0
 14 13  1  1
 14 15  1  0
 15 16  1  0
 16 17  1  0
 17 18  1  0
 18 19  1  0
 19 20  1  0
 20 21  1  0
 21 22  1  0
 17 23  1  0
 14 24  1  0
 24 25  2  0
 25 26  1  0
 26 27  2  0
 27 28  1  0
 28 29  2  0
  9 30  1  0
 30 31  1  0
 31 32  2  0
 32  4  1  0
 31  7  1  0
 29 12  1  0
 23 14  1  0
 29 24  1  0
 22 18  1  0
  1 33  1  0
  1 34  1  0
  5 35  1  0
  6 36  1  0
  8 37  1  0
 13 38  1  0
 13 39  1  0
 15 40  1  0
 15 41  1  0
 16 42  1  0
 16 43  1  0
 18 44  1  1
 19 45  1  0
 19 46  1  0
 20 47  1  0
 20 48  1  0
 21 49  1  0
 22 50  1  0
 22 51  1  0
 23 52  1  0
 23 53  1  0
 25 54  1  0
 26 55  1  0
 27 56  1  0
 28 57  1  0
 30 58  1  0
 32 59  1  0
M  END
>  <smiles>  (6) 
NC(=O)c1ccc2cc(C(=O)N3C[C@]4(CCN(C5CCNC5)C4)c4ccccc43)[nH]c2c1

>  <score_type>  (6) 
oracle

>  <origin>  (6) 
autodockgpu

>  <m_score__min__energy>  (6) 
-9.4000000000000004

>  <m_primary>  (6) 
energy

>  <rmsd>  (6) 
6.35661642826717

>  <m_score__min__rmsd>  (6) 
6.35661642826717

>  <meeko>  (6) 
{"free_energy": -8.38, "intermolecular_energy": -9.57, "internal_energy": -1.36, "cluster_size": 8, "cluster_id": 3, "rank_in_cluster": 1}

>  <energy>  (6) 
-9.35

>  <cluster_rmsd>  (6) 
0.91

>  <cluster>  (6) 
1

$$$$

     RDKit          3D

 59 64  0  0  1  0  0  0  0  0999 V2000
  140.2150   67.7510  227.6150 N   0  0  0  0  0  0  0  0  0  0  0  0
  140.0630   69.1320  227.2790 C   0  0  0  0  0  0  0  0  0  0  0  0
  140.1160   70.0460  228.1390 O   0  0  0  0  0  0  0  0  0  0  0  0
  139.8340   69.5270  225.8820 C   0  0  0  0  0  0  0  0  0  0  0  0
  139.4060   68.5690  224.9930 C   0  0  0  0  0  0  0  0  0  0  0  0
  139.1810   68.9040  223.6760 C   0  0  0  0  0  0  0  0  0  0  0  0
  139.3890   70.2030  223.2540 C   0  0  0  0  0  0  0  0  0  0  0  0
  139.2420   70.7940  222.0160 C   0  0  0  0  0  0  0  0  0  0  0  0
  139.5850   72.1400  222.1390 C   0  0  0  0  0  0  0  0  0  0  0  0
  139.5640   73.1100  221.0780 C   0  0  0  0  0  0  0  0  0  0  0  0
  138.6570   72.9740  220.1920 O   0  0  0  0  0  0  0  0  0  0  0  0
  140.4570   74.1830  220.9460 N   0  0  0  0  0  0  0  0  0  0  0  0
  140.7900   75.1960  221.9590 C   0  0  0  0  0  0  0  0  0  0  0  0
  140.7980   76.4320  221.0820 C   0  0  1  0  0  0  0  0  0  0  0  0
  139.3480   76.8040  220.8480 C   0  0  0  0  0  0  0  0  0  0  0  0
  139.1670   77.8280  221.9780 C   0  0  0  0  0  0  0  0  0  0  0  0
  140.3840   78.6010  221.8110 N   0  0  0  0  0  0  0  0  0  0  0  0
  140.5900   79.5270  222.9060 C   0  0  2  0  0  0  0  0  0  0  0  0
  140.7440   80.9400  222.4200 C   0  0  0  0  0  0  0  0  0  0  0  0
  142.1940   80.9940  222.0520 C   0  0  0  0  0  0  0  0  0  0  0  0
  142.8880   80.1130  222.9390 N   0  0  0  0  0  0  0  0  0  0  0  0
  141.9500   79.1880  223.5160 C   0  0  0  0  0  0  0  0  0  0  0  0
  141.4450   77.6220  221.7220 C   0  0  0  0  0  0  0  0  0  0  0  0
  141.4800   75.9390  219.8710 C   0  0  0  0  0  0  0  0  0  0  0  0
  142.2280   76.5110  218.8720 C   0  0  0  0  0  0  0  0  0  0  0  0
  142.7370   75.7300  217.8440 C   0  0  0  0  0  0  0  0  0  0  0  0
  142.5120   74.3680  217.7890 C   0  0  0  0  0  0  0  0  0  0  0  0
  141.7640   73.7830  218.7840 C   0  0  0  0  0  0  0  0  0  0  0  0
  141.2570   74.5710  219.8110 C   0  0  0  0  0  0  0  0  0  0  0  0
  139.9310   72.3460  223.4320 N   0  0  0  0  0  0  0  0  0  0  0  0
  139.8220   71.1950  224.1290 C   0  0  0  0  0  0  0  0  0  0  0  0
  140.0310   70.8080  225.4330 C   0  0  0  0  0  0  0  0  0  0  0  0
  139.6090   66.9960  227.2420 H   0  0  0  0  0  0  0  0  0  0  0  0
  140.9760   67.4300  228.2810 H   0  0  0  0  0  0  0  0  0  0  0  0
  139.2434   67.5357  225.3335 H   0  0  0  0  0  0  0  0  0  0  0  0
  138.8370   68.1402  222.9630 H   0  0  0  0  0  0  0  0  0  0  0  0
  138.9124   70.2919  221.0944 H   0  0  0  0  0  0  0  0  0  0  0  0
  140.0243   75.2563  222.7464 H   0  0  0  0  0  0  0  0  0  0  0  0
  141.7194   75.0120  222.5179 H   0  0  0  0  0  0  0  0  0  0  0  0
  139.1943   77.2548  219.8565 H   0  0  0  0  0  0  0  0  0  0  0  0
  138.6398   75.9624  220.8593 H   0  0  0  0  0  0  0  0  0  0  0  0
  138.2679   78.4444  221.8309 H   0  0  0  0  0  0  0  0  0  0  0  0
  139.0257   77.3947  222.9792 H   0  0  0  0  0  0  0  0  0  0  0  0
  139.7335   79.4467  223.5915 H   0  0  0  0  0  0  0  0  0  0  0  0
  140.1038   81.1329  221.5465 H   0  0  0  0  0  0  0  0  0  0  0  0
  140.4494   81.6960  223.1627 H   0  0  0  0  0  0  0  0  0  0  0  0
  142.3312   80.6659  221.0111 H   0  0  0  0  0  0  0  0  0  0  0  0
  142.5810   82.0200  222.1385 H   0  0  0  0  0  0  0  0  0  0  0  0
  143.6330   79.6340  222.3640 H   0  0  0  0  0  0  0  0  0  0  0  0
  142.2322   78.1540  223.2686 H   0  0  0  0  0  0  0  0  0  0  0  0
  141.9296   79.2683  224.6129 H   0  0  0  0  0  0  0  0  0  0  0  0
  142.2709   77.9979  221.1002 H   0  0  0  0  0  0  0  0  0  0  0  0
  141.8821   77.3856  222.7034 H   0  0  0  0  0  0  0  0  0  0  0  0
  142.4247   77.5932  218.8864 H   0  0  0  0  0  0  0  0  0  0  0  0
  143.3345   76.2072  217.0533 H   0  0  0  0  0  0  0  0  0  0  0  0
  142.9226   73.7639  216.9665 H   0  0  0  0  0  0  0  0  0  0  0  0
  141.5686   72.7006  218.7673 H   0  0  0  0  0  0  0  0  0  0  0  0
  140.2420   73.2340  223.8820 H   0  0  0  0  0  0  0  0  0  0  0  0
  140.3740   71.5657  226.1529 H   0  0  0  0  0  0  0  0  0  0  0  0
  1  2  1  0
  2  3  2  0
  2  4  1  0
  4  5  2  0
  5  6  1  0
  6  7  2  0
  7  8  1  0
  8  9  2  0
  9 10  1  0
 10 11  2  0
 10 12  1  0
 12 13  1  0
 14 13  1  1
 14 15  1  0
 15 16  1  0
 16 17  1  0
 17 18  1  0
 18 19  1  0
 19 20  1  0
 20 21  1  0
 21 22  1  0
 17 23  1  0
 14 24  1  0
 24 25  2  0
 25 26  1  0
 26 27  2  0
 27 28  1  0
 28 29  2  0
  9 30  1  0
 30 31  1  0
 31 32  2  0
 32  4  1  0
 31  7  1  0
 29 12  1  0
 23 14  1  0
 29 24  1  0
 22 18  1  0
  1 33  1  0
  1 34  1  0
  5 35  1  0
  6 36  1  0
  8 37  1  0
 13 38  1  0
 13 39  1  0
 15 40  1  0
 15 41  1  0
 16 42  1  0
 16 43  1  0
 18 44  1  1
 19 45  1  0
 19 46  1  0
 20 47  1  0
 20 48  1  0
 21 49  1  0
 22 50  1  0
 22 51  1  0
 23 52  1  0
 23 53  1  0
 25 54  1  0
 26 55  1  0
 27 56  1  0
 28 57  1  0
 30 58  1  0
 32 59  1  0
M  END
>  <smiles>  (7) 
NC(=O)c1ccc2cc(C(=O)N3C[C@]4(CCN(C5CCNC5)C4)c4ccccc43)[nH]c2c1

>  <score_type>  (7) 
oracle

>  <origin>  (7) 
autodockgpu

>  <m_score__min__energy>  (7) 
-9.4000000000000004

>  <m_primary>  (7) 
energy

>  <rmsd>  (7) 
2.1249610095321865

>  <m_score__min__rmsd>  (7) 
2.1249610095321865

>  <meeko>  (7) 
{"free_energy": -8.31, "intermolecular_energy": -9.51, "internal_energy": -1.14, "cluster_size": 3, "cluster_id": 4, "rank_in_cluster": 1}

>  <energy>  (7) 
-9.35

>  <cluster_rmsd>  (7) 
0.91

>  <cluster>  (7) 
1

$$$$

     RDKit          3D

 59 64  0  0  1  0  0  0  0  0999 V2000
  146.2720   69.6630  218.0370 N   0  0  0  0  0  0  0  0  0  0  0  0
  145.4570   69.8400  219.1980 C   0  0  0  0  0  0  0  0  0  0  0  0
  145.1780   68.8940  219.9760 O   0  0  0  0  0  0  0  0  0  0  0  0
  144.9120   71.1660  219.5190 C   0  0  0  0  0  0  0  0  0  0  0  0
  145.6980   72.2700  219.2830 C   0  0  0  0  0  0  0  0  0  0  0  0
  145.2180   73.5300  219.5720 C   0  0  0  0  0  0  0  0  0  0  0  0
  143.9490   73.6750  220.0980 C   0  0  0  0  0  0  0  0  0  0  0  0
  143.2400   74.8000  220.4680 C   0  0  0  0  0  0  0  0  0  0  0  0
  141.9950   74.3860  220.9410 C   0  0  0  0  0  0  0  0  0  0  0  0
  140.9530   75.2500  221.4240 C   0  0  0  0  0  0  0  0  0  0  0  0
  140.0900   74.7310  222.2040 O   0  0  0  0  0  0  0  0  0  0  0  0
  140.8180   76.6090  221.1040 N   0  0  0  0  0  0  0  0  0  0  0  0
  140.1790   77.1860  219.9110 C   0  0  0  0  0  0  0  0  0  0  0  0
  141.1810   78.2780  219.5950 C   0  0  1  0  0  0  0  0  0  0  0  0
  142.3600   77.6020  218.9250 C   0  0  0  0  0  0  0  0  0  0  0  0
  141.9570   77.7960  217.4570 C   0  0  0  0  0  0  0  0  0  0  0  0
  141.5570   79.1910  217.4900 N   0  0  0  0  0  0  0  0  0  0  0  0
  140.9110   79.5970  216.2580 C   0  0  2  0  0  0  0  0  0  0  0  0
  141.2500   78.6760  215.1210 C   0  0  0  0  0  0  0  0  0  0  0  0
  142.5660   79.2160  214.6540 C   0  0  0  0  0  0  0  0  0  0  0  0
  142.5480   80.6280  214.8860 N   0  0  0  0  0  0  0  0  0  0  0  0
  141.5340   80.9350  215.8570 C   0  0  0  0  0  0  0  0  0  0  0  0
  140.6720   79.3030  218.6290 C   0  0  0  0  0  0  0  0  0  0  0  0
  141.4910   78.8010  220.9380 C   0  0  0  0  0  0  0  0  0  0  0  0
  141.9250   80.0030  221.4410 C   0  0  0  0  0  0  0  0  0  0  0  0
  142.1230   80.1620  222.8050 C   0  0  0  0  0  0  0  0  0  0  0  0
  141.8940   79.1300  223.6960 C   0  0  0  0  0  0  0  0  0  0  0  0
  141.4590   77.9200  223.2040 C   0  0  0  0  0  0  0  0  0  0  0  0
  141.2630   77.7690  221.8370 C   0  0  0  0  0  0  0  0  0  0  0  0
  141.9650   73.0350  220.8530 N   0  0  0  0  0  0  0  0  0  0  0  0
  143.1300   72.5780  220.3470 C   0  0  0  0  0  0  0  0  0  0  0  0
  143.6560   71.3440  220.0410 C   0  0  0  0  0  0  0  0  0  0  0  0
  146.0480   70.0690  217.1080 H   0  0  0  0  0  0  0  0  0  0  0  0
  147.1660   69.0940  218.0760 H   0  0  0  0  0  0  0  0  0  0  0  0
  146.7079   72.1479  218.8644 H   0  0  0  0  0  0  0  0  0  0  0  0
  145.8429   74.4157  219.3845 H   0  0  0  0  0  0  0  0  0  0  0  0
  143.5943   75.8393  220.4016 H   0  0  0  0  0  0  0  0  0  0  0  0
  140.0984   76.4539  219.0939 H   0  0  0  0  0  0  0  0  0  0  0  0
  139.1431   77.5276  220.0533 H   0  0  0  0  0  0  0  0  0  0  0  0
  143.3099   78.1043  219.1603 H   0  0  0  0  0  0  0  0  0  0  0  0
  142.5393   76.5602  219.2292 H   0  0  0  0  0  0  0  0  0  0  0  0
  142.8042   77.6299  216.7753 H   0  0  0  0  0  0  0  0  0  0  0  0
  141.1869   77.1008  217.0913 H   0  0  0  0  0  0  0  0  0  0  0  0
  139.8244   79.6157  216.4282 H   0  0  0  0  0  0  0  0  0  0  0  0
  141.3461   77.6359  215.4660 H   0  0  0  0  0  0  0  0  0  0  0  0
  140.4819   78.6466  214.3341 H   0  0  0  0  0  0  0  0  0  0  0  0
  143.3868   78.7511  215.2199 H   0  0  0  0  0  0  0  0  0  0  0  0
  142.7229   78.9966  213.5876 H   0  0  0  0  0  0  0  0  0  0  0  0
  143.5180   80.8910  215.2100 H   0  0  0  0  0  0  0  0  0  0  0  0
  141.9814   81.4258  216.7339 H   0  0  0  0  0  0  0  0  0  0  0  0
  140.7797   81.6223  215.4464 H   0  0  0  0  0  0  0  0  0  0  0  0
  140.7252   80.3109  219.0663 H   0  0  0  0  0  0  0  0  0  0  0  0
  139.6179   79.1402  218.3599 H   0  0  0  0  0  0  0  0  0  0  0  0
  142.1167   80.8443  220.7587 H   0  0  0  0  0  0  0  0  0  0  0  0
  142.4708   81.1332  223.1869 H   0  0  0  0  0  0  0  0  0  0  0  0
  142.0558   79.2726  224.7746 H   0  0  0  0  0  0  0  0  0  0  0  0
  141.2682   77.0797  223.8877 H   0  0  0  0  0  0  0  0  0  0  0  0
  141.1900   72.3890  221.1180 H   0  0  0  0  0  0  0  0  0  0  0  0
  143.0369   70.4535  220.2246 H   0  0  0  0  0  0  0  0  0  0  0  0
  1  2  1  0
  2  3  2  0
  2  4  1  0
  4  5  2  0
  5  6  1  0
  6  7  2  0
  7  8  1  0
  8  9  2  0
  9 10  1  0
 10 11  2  0
 10 12  1  0
 12 13  1  0
 14 13  1  1
 14 15  1  0
 15 16  1  0
 16 17  1  0
 17 18  1  0
 18 19  1  0
 19 20  1  0
 20 21  1  0
 21 22  1  0
 17 23  1  0
 14 24  1  0
 24 25  2  0
 25 26  1  0
 26 27  2  0
 27 28  1  0
 28 29  2  0
  9 30  1  0
 30 31  1  0
 31 32  2  0
 32  4  1  0
 31  7  1  0
 29 12  1  0
 23 14  1  0
 29 24  1  0
 22 18  1  0
  1 33  1  0
  1 34  1  0
  5 35  1  0
  6 36  1  0
  8 37  1  0
 13 38  1  0
 13 39  1  0
 15 40  1  0
 15 41  1  0
 16 42  1  0
 16 43  1  0
 18 44  1  1
 19 45  1  0
 19 46  1  0
 20 47  1  0
 20 48  1  0
 21 49  1  0
 22 50  1  0
 22 51  1  0
 23 52  1  0
 23 53  1  0
 25 54  1  0
 26 55  1  0
 27 56  1  0
 28 57  1  0
 30 58  1  0
 32 59  1  0
M  END
>  <smiles>  (8) 
NC(=O)c1ccc2cc(C(=O)N3C[C@]4(CCN(C5CCNC5)C4)c4ccccc43)[nH]c2c1

>  <score_type>  (8) 
oracle

>  <origin>  (8) 
autodockgpu

>  <m_score__min__energy>  (8) 
-9.4000000000000004

>  <m_primary>  (8) 
energy

>  <rmsd>  (8) 
6.342222990616814

>  <m_score__min__rmsd>  (8) 
6.342222990616814

>  <meeko>  (8) 
{"free_energy": -8.37, "intermolecular_energy": -9.56, "internal_energy": -1.36, "cluster_size": 8, "cluster_id": 3, "rank_in_cluster": 2}

>  <energy>  (8) 
-9.33

>  <cluster_rmsd>  (8) 
0.91

>  <cluster>  (8) 
1

$$$$

     RDKit          3D

 59 64  0  0  1  0  0  0  0  0999 V2000
  140.7870   68.0620  227.7960 N   0  0  0  0  0  0  0  0  0  0  0  0
  140.6900   69.4600  227.5150 C   0  0  0  0  0  0  0  0  0  0  0  0
  141.0750   70.3400  228.3250 O   0  0  0  0  0  0  0  0  0  0  0  0
  140.1230   69.9160  226.2380 C   0  0  0  0  0  0  0  0  0  0  0  0
  138.9360   69.3640  225.8160 C   0  0  0  0  0  0  0  0  0  0  0  0
  138.3750   69.7670  224.6240 C   0  0  0  0  0  0  0  0  0  0  0  0
  139.0100   70.7260  223.8580 C   0  0  0  0  0  0  0  0  0  0  0  0
  138.6700   71.2980  222.6490 C   0  0  0  0  0  0  0  0  0  0  0  0
  139.6630   72.2200  222.3170 C   0  0  0  0  0  0  0  0  0  0  0  0
  139.6860   73.0340  221.1320 C   0  0  0  0  0  0  0  0  0  0  0  0
  138.9000   72.6970  220.1870 O   0  0  0  0  0  0  0  0  0  0  0  0
  140.5000   74.1600  220.9410 N   0  0  0  0  0  0  0  0  0  0  0  0
  140.9480   75.1210  221.9610 C   0  0  0  0  0  0  0  0  0  0  0  0
  140.7620   76.4100  221.1870 C   0  0  1  0  0  0  0  0  0  0  0  0
  139.2790   76.7190  221.2110 C   0  0  0  0  0  0  0  0  0  0  0  0
  139.2390   77.6540  222.4280 C   0  0  0  0  0  0  0  0  0  0  0  0
  140.3790   78.5010  222.1290 N   0  0  0  0  0  0  0  0  0  0  0  0
  140.7180   79.3620  223.2440 C   0  0  2  0  0  0  0  0  0  0  0  0
  140.8170   80.8020  222.8260 C   0  0  0  0  0  0  0  0  0  0  0  0
  142.2120   80.8830  222.2890 C   0  0  0  0  0  0  0  0  0  0  0  0
  143.0060   79.9540  223.0340 N   0  0  0  0  0  0  0  0  0  0  0  0
  142.1410   78.9940  223.6650 C   0  0  0  0  0  0  0  0  0  0  0  0
  141.4530   77.5880  221.8030 C   0  0  0  0  0  0  0  0  0  0  0  0
  141.2610   76.0350  219.8510 C   0  0  0  0  0  0  0  0  0  0  0  0
  141.8150   76.7110  218.7920 C   0  0  0  0  0  0  0  0  0  0  0  0
  142.1850   76.0280  217.6420 C   0  0  0  0  0  0  0  0  0  0  0  0
  142.0120   74.6620  217.5220 C   0  0  0  0  0  0  0  0  0  0  0  0
  141.4590   73.9740  218.5770 C   0  0  0  0  0  0  0  0  0  0  0  0
  141.0900   74.6640  219.7260 C   0  0  0  0  0  0  0  0  0  0  0  0
  140.5790   72.1960  223.3130 N   0  0  0  0  0  0  0  0  0  0  0  0
  140.2110   71.3040  224.2580 C   0  0  0  0  0  0  0  0  0  0  0  0
  140.7280   70.8660  225.4560 C   0  0  0  0  0  0  0  0  0  0  0  0
  140.0250   67.3830  227.6080 H   0  0  0  0  0  0  0  0  0  0  0  0
  141.6650   67.6490  228.2220 H   0  0  0  0  0  0  0  0  0  0  0  0
  138.4349   68.6011  226.4299 H   0  0  0  0  0  0  0  0  0  0  0  0
  137.4259   69.3274  224.2835 H   0  0  0  0  0  0  0  0  0  0  0  0
  137.7747   71.0678  222.0528 H   0  0  0  0  0  0  0  0  0  0  0  0
  140.3170   75.0881  222.8614 H   0  0  0  0  0  0  0  0  0  0  0  0
  141.9621   74.9511  222.3517 H   0  0  0  0  0  0  0  0  0  0  0  0
  138.9499   77.2262  220.2920 H   0  0  0  0  0  0  0  0  0  0  0  0
  138.6174   75.8422  221.2703 H   0  0  0  0  0  0  0  0  0  0  0  0
  138.3024   78.2293  222.4708 H   0  0  0  0  0  0  0  0  0  0  0  0
  139.2796   77.1481  223.4039 H   0  0  0  0  0  0  0  0  0  0  0  0
  139.9501   79.2378  224.0217 H   0  0  0  0  0  0  0  0  0  0  0  0
  140.0765   81.0431  222.0492 H   0  0  0  0  0  0  0  0  0  0  0  0
  140.6171   81.5123  223.6418 H   0  0  0  0  0  0  0  0  0  0  0  0
  142.2213   80.6161  221.2219 H   0  0  0  0  0  0  0  0  0  0  0  0
  142.6099   81.9038  222.3870 H   0  0  0  0  0  0  0  0  0  0  0  0
  143.6750   79.5130  222.3460 H   0  0  0  0  0  0  0  0  0  0  0  0
  142.3882   77.9771  223.3261 H   0  0  0  0  0  0  0  0  0  0  0  0
  142.2529   79.0113  224.7592 H   0  0  0  0  0  0  0  0  0  0  0  0
  142.1519   78.0475  221.0885 H   0  0  0  0  0  0  0  0  0  0  0  0
  142.0518   77.3114  222.6833 H   0  0  0  0  0  0  0  0  0  0  0  0
  141.9662   77.7987  218.8555 H   0  0  0  0  0  0  0  0  0  0  0  0
  142.6271   76.5880  216.8048 H   0  0  0  0  0  0  0  0  0  0  0  0
  142.3101   74.1364  216.6028 H   0  0  0  0  0  0  0  0  0  0  0  0
  141.3099   72.8861  218.5119 H   0  0  0  0  0  0  0  0  0  0  0  0
  141.4540   72.7560  223.3980 H   0  0  0  0  0  0  0  0  0  0  0  0
  141.6764   71.3009  225.8044 H   0  0  0  0  0  0  0  0  0  0  0  0
  1  2  1  0
  2  3  2  0
  2  4  1  0
  4  5  2  0
  5  6  1  0
  6  7  2  0
  7  8  1  0
  8  9  2  0
  9 10  1  0
 10 11  2  0
 10 12  1  0
 12 13  1  0
 14 13  1  1
 14 15  1  0
 15 16  1  0
 16 17  1  0
 17 18  1  0
 18 19  1  0
 19 20  1  0
 20 21  1  0
 21 22  1  0
 17 23  1  0
 14 24  1  0
 24 25  2  0
 25 26  1  0
 26 27  2  0
 27 28  1  0
 28 29  2  0
  9 30  1  0
 30 31  1  0
 31 32  2  0
 32  4  1  0
 31  7  1  0
 29 12  1  0
 23 14  1  0
 29 24  1  0
 22 18  1  0
  1 33  1  0
  1 34  1  0
  5 35  1  0
  6 36  1  0
  8 37  1  0
 13 38  1  0
 13 39  1  0
 15 40  1  0
 15 41  1  0
 16 42  1  0
 16 43  1  0
 18 44  1  1
 19 45  1  0
 19 46  1  0
 20 47  1  0
 20 48  1  0
 21 49  1  0
 22 50  1  0
 22 51  1  0
 23 52  1  0
 23 53  1  0
 25 54  1  0
 26 55  1  0
 27 56  1  0
 28 57  1  0
 30 58  1  0
 32 59  1  0
M  END
>  <smiles>  (9) 
NC(=O)c1ccc2cc(C(=O)N3C[C@]4(CCN(C5CCNC5)C4)c4ccccc43)[nH]c2c1

>  <score_type>  (9) 
oracle

>  <origin>  (9) 
autodockgpu

>  <m_score__min__energy>  (9) 
-9.4000000000000004

>  <m_primary>  (9) 
energy

>  <rmsd>  (9) 
2.343717688011281

>  <m_score__min__rmsd>  (9) 
2.343717688011281

>  <meeko>  (9) 
{"free_energy": -8.23, "intermolecular_energy": -9.42, "internal_energy": -1.15, "cluster_size": 3, "cluster_id": 4, "rank_in_cluster": 3}

>  <energy>  (9) 
-9.31

>  <cluster_rmsd>  (9) 
0.9

>  <cluster>  (9) 
1

$$$$

     RDKit          3D

 59 64  0  0  1  0  0  0  0  0999 V2000
  146.3120   69.6490  218.0690 N   0  0  0  0  0  0  0  0  0  0  0  0
  145.4900   69.8320  219.2240 C   0  0  0  0  0  0  0  0  0  0  0  0
  145.1960   68.8880  219.9990 O   0  0  0  0  0  0  0  0  0  0  0  0
  144.9570   71.1640  219.5430 C   0  0  0  0  0  0  0  0  0  0  0  0
  145.7680   72.2570  219.3470 C   0  0  0  0  0  0  0  0  0  0  0  0
  145.3000   73.5210  219.6340 C   0  0  0  0  0  0  0  0  0  0  0  0
  144.0160   73.6820  220.1190 C   0  0  0  0  0  0  0  0  0  0  0  0
  143.3140   74.8140  220.4790 C   0  0  0  0  0  0  0  0  0  0  0  0
  142.0470   74.4160  220.9050 C   0  0  0  0  0  0  0  0  0  0  0  0
  141.0040   75.2930  221.3630 C   0  0  0  0  0  0  0  0  0  0  0  0
  140.0850   74.7710  222.0760 O   0  0  0  0  0  0  0  0  0  0  0  0
  140.9230   76.6650  221.0870 N   0  0  0  0  0  0  0  0  0  0  0  0
  140.3830   77.3020  219.8760 C   0  0  0  0  0  0  0  0  0  0  0  0
  141.4300   78.3780  219.6730 C   0  0  1  0  0  0  0  0  0  0  0  0
  142.6370   77.6980  219.0610 C   0  0  0  0  0  0  0  0  0  0  0  0
  142.3430   77.9560  217.5760 C   0  0  0  0  0  0  0  0  0  0  0  0
  141.9750   79.3580  217.6350 N   0  0  0  0  0  0  0  0  0  0  0  0
  141.4270   79.8260  216.3780 C   0  0  2  0  0  0  0  0  0  0  0  0
  142.2060   80.9850  215.8270 C   0  0  0  0  0  0  0  0  0  0  0  0
  141.6130   82.1470  216.5610 C   0  0  0  0  0  0  0  0  0  0  0  0
  140.2390   81.8340  216.8060 N   0  0  0  0  0  0  0  0  0  0  0  0
  140.0500   80.4130  216.6920 C   0  0  0  0  0  0  0  0  0  0  0  0
  141.0140   79.4510  218.7130 C   0  0  0  0  0  0  0  0  0  0  0  0
  141.6570   78.8440  221.0530 C   0  0  0  0  0  0  0  0  0  0  0  0
  142.0820   80.0150  221.6310 C   0  0  0  0  0  0  0  0  0  0  0  0
  142.1870   80.1180  223.0110 C   0  0  0  0  0  0  0  0  0  0  0  0
  141.8730   79.0600  223.8430 C   0  0  0  0  0  0  0  0  0  0  0  0
  141.4450   77.8820  223.2760 C   0  0  0  0  0  0  0  0  0  0  0  0
  141.3430   77.7850  221.8940 C   0  0  0  0  0  0  0  0  0  0  0  0
  141.9970   73.0670  220.8000 N   0  0  0  0  0  0  0  0  0  0  0  0
  143.1710   72.5960  220.3270 C   0  0  0  0  0  0  0  0  0  0  0  0
  143.6870   71.3570  220.0240 C   0  0  0  0  0  0  0  0  0  0  0  0
  146.0990   70.0580  217.1390 H   0  0  0  0  0  0  0  0  0  0  0  0
  147.1990   69.0700  218.1140 H   0  0  0  0  0  0  0  0  0  0  0  0
  146.7894   72.1225  218.9615 H   0  0  0  0  0  0  0  0  0  0  0  0
  145.9456   74.3978  219.4777 H   0  0  0  0  0  0  0  0  0  0  0  0
  143.6876   75.8478  220.4374 H   0  0  0  0  0  0  0  0  0  0  0  0
  140.3427   76.6030  219.0276 H   0  0  0  0  0  0  0  0  0  0  0  0
  139.3479   77.6649  219.9591 H   0  0  0  0  0  0  0  0  0  0  0  0
  143.5791   78.1671  219.3809 H   0  0  0  0  0  0  0  0  0  0  0  0
  142.7706   76.6415  219.3365 H   0  0  0  0  0  0  0  0  0  0  0  0
  143.2319   77.7928  216.9490 H   0  0  0  0  0  0  0  0  0  0  0  0
  141.5846   77.2951  217.1310 H   0  0  0  0  0  0  0  0  0  0  0  0
  141.4302   78.9868  215.6668 H   0  0  0  0  0  0  0  0  0  0  0  0
  143.2794   80.8826  216.0443 H   0  0  0  0  0  0  0  0  0  0  0  0
  142.1429   81.0772  214.7327 H   0  0  0  0  0  0  0  0  0  0  0  0
  142.1407   82.3002  217.5140 H   0  0  0  0  0  0  0  0  0  0  0  0
  141.7045   83.0705  215.9705 H   0  0  0  0  0  0  0  0  0  0  0  0
  140.0150   82.2000  217.7710 H   0  0  0  0  0  0  0  0  0  0  0  0
  139.6662   80.0018  217.6373 H   0  0  0  0  0  0  0  0  0  0  0  0
  139.3195   80.1663  215.9074 H   0  0  0  0  0  0  0  0  0  0  0  0
  141.0592   80.4406  219.1911 H   0  0  0  0  0  0  0  0  0  0  0  0
  139.9782   79.3251  218.3648 H   0  0  0  0  0  0  0  0  0  0  0  0
  142.3406   80.8758  220.9969 H   0  0  0  0  0  0  0  0  0  0  0  0
  142.5286   81.0653  223.4536 H   0  0  0  0  0  0  0  0  0  0  0  0
  141.9634   79.1578  224.9349 H   0  0  0  0  0  0  0  0  0  0  0  0
  141.1854   77.0231  223.9123 H   0  0  0  0  0  0  0  0  0  0  0  0
  141.2040   72.4310  221.0300 H   0  0  0  0  0  0  0  0  0  0  0  0
  143.0475   70.4749  220.1755 H   0  0  0  0  0  0  0  0  0  0  0  0
  1  2  1  0
  2  3  2  0
  2  4  1  0
  4  5  2  0
  5  6  1  0
  6  7  2  0
  7  8  1  0
  8  9  2  0
  9 10  1  0
 10 11  2  0
 10 12  1  0
 12 13  1  0
 14 13  1  1
 14 15  1  0
 15 16  1  0
 16 17  1  0
 17 18  1  0
 18 19  1  0
 19 20  1  0
 20 21  1  0
 21 22  1  0
 17 23  1  0
 14 24  1  0
 24 25  2  0
 25 26  1  0
 26 27  2  0
 27 28  1  0
 28 29  2  0
  9 30  1  0
 30 31  1  0
 31 32  2  0
 32  4  1  0
 31  7  1  0
 29 12  1  0
 23 14  1  0
 29 24  1  0
 22 18  1  0
  1 33  1  0
  1 34  1  0
  5 35  1  0
  6 36  1  0
  8 37  1  0
 13 38  1  0
 13 39  1  0
 15 40  1  0
 15 41  1  0
 16 42  1  0
 16 43  1  0
 18 44  1  6
 19 45  1  0
 19 46  1  0
 20 47  1  0
 20 48  1  0
 21 49  1  0
 22 50  1  0
 22 51  1  0
 23 52  1  0
 23 53  1  0
 25 54  1  0
 26 55  1  0
 27 56  1  0
 28 57  1  0
 30 58  1  0
 32 59  1  0
M  END
>  <smiles>  (10) 
NC(=O)c1ccc2cc(C(=O)N3C[C@]4(CCN(C5CCNC5)C4)c4ccccc43)[nH]c2c1

>  <score_type>  (10) 
oracle

>  <origin>  (10) 
autodockgpu

>  <m_score__min__energy>  (10) 
-9.4000000000000004

>  <m_primary>  (10) 
energy

>  <rmsd>  (10) 
6.222866502782136

>  <m_score__min__rmsd>  (10) 
6.222866502782136

>  <meeko>  (10) 
{"free_energy": -8.04, "intermolecular_energy": -9.24, "internal_energy": -1.45, "cluster_size": 8, "cluster_id": 3, "rank_in_cluster": 7}

>  <energy>  (10) 
-9.29

>  <cluster_rmsd>  (10) 
0.93

>  <cluster>  (10) 
1

$$$$

     RDKit          3D

 59 64  0  0  1  0  0  0  0  0999 V2000
  145.9570   72.8730  220.8950 N   0  0  0  0  0  0  0  0  0  0  0  0
  145.4290   73.0910  219.5850 C   0  0  0  0  0  0  0  0  0  0  0  0
  145.8370   72.4590  218.5790 O   0  0  0  0  0  0  0  0  0  0  0  0
  144.3670   74.0860  219.3760 C   0  0  0  0  0  0  0  0  0  0  0  0
  144.0760   74.4700  218.0880 C   0  0  0  0  0  0  0  0  0  0  0  0
  143.0860   75.4000  217.8550 C   0  0  0  0  0  0  0  0  0  0  0  0
  142.3920   75.9430  218.9200 C   0  0  0  0  0  0  0  0  0  0  0  0
  141.3740   76.8740  218.9640 C   0  0  0  0  0  0  0  0  0  0  0  0
  141.0290   77.0690  220.3010 C   0  0  0  0  0  0  0  0  0  0  0  0
  140.0080   77.9600  220.7800 C   0  0  0  0  0  0  0  0  0  0  0  0
  138.9940   78.1320  220.0260 O   0  0  0  0  0  0  0  0  0  0  0  0
  140.0420   78.6460  222.0030 N   0  0  0  0  0  0  0  0  0  0  0  0
  138.9620   78.7570  222.9940 C   0  0  0  0  0  0  0  0  0  0  0  0
  139.1020   80.2230  223.3520 C   0  0  1  0  0  0  0  0  0  0  0  0
  138.4650   81.0070  222.2240 C   0  0  0  0  0  0  0  0  0  0  0  0
  137.0560   81.1850  222.8080 C   0  0  0  0  0  0  0  0  0  0  0  0
  137.3960   81.5800  224.1620 N   0  0  0  0  0  0  0  0  0  0  0  0
  136.2330   81.6070  225.0250 C   0  0  2  0  0  0  0  0  0  0  0  0
  135.6220   82.9780  225.0950 C   0  0  0  0  0  0  0  0  0  0  0  0
  136.4600   83.6470  226.1400 C   0  0  0  0  0  0  0  0  0  0  0  0
  136.8660   82.6360  227.0660 N   0  0  0  0  0  0  0  0  0  0  0  0
  136.7340   81.3450  226.4460 C   0  0  0  0  0  0  0  0  0  0  0  0
  138.3760   80.6110  224.6040 C   0  0  0  0  0  0  0  0  0  0  0  0
  140.5670   80.3790  223.4200 C   0  0  0  0  0  0  0  0  0  0  0  0
  141.4300   81.2180  224.0800 C   0  0  0  0  0  0  0  0  0  0  0  0
  142.8010   81.0870  223.9120 C   0  0  0  0  0  0  0  0  0  0  0  0
  143.3410   80.1210  223.0850 C   0  0  0  0  0  0  0  0  0  0  0  0
  142.4870   79.2730  222.4180 C   0  0  0  0  0  0  0  0  0  0  0  0
  141.1150   79.4100  222.5910 C   0  0  0  0  0  0  0  0  0  0  0  0
  141.8310   76.2670  221.0400 N   0  0  0  0  0  0  0  0  0  0  0  0
  142.6640   75.5750  220.2340 C   0  0  0  0  0  0  0  0  0  0  0  0
  143.6600   74.6430  220.4110 C   0  0  0  0  0  0  0  0  0  0  0  0
  146.2030   73.6380  221.5520 H   0  0  0  0  0  0  0  0  0  0  0  0
  146.1250   71.8930  221.2620 H   0  0  0  0  0  0  0  0  0  0  0  0
  144.6328   74.0354  217.2447 H   0  0  0  0  0  0  0  0  0  0  0  0
  142.8491   75.7088  216.8261 H   0  0  0  0  0  0  0  0  0  0  0  0
  140.9159   77.3737  218.0977 H   0  0  0  0  0  0  0  0  0  0  0  0
  137.9781   78.5336  222.5557 H   0  0  0  0  0  0  0  0  0  0  0  0
  139.0302   78.0591  223.8415 H   0  0  0  0  0  0  0  0  0  0  0  0
  138.9667   81.9721  222.0598 H   0  0  0  0  0  0  0  0  0  0  0  0
  138.5063   80.5256  221.2358 H   0  0  0  0  0  0  0  0  0  0  0  0
  136.4919   81.9698  222.2827 H   0  0  0  0  0  0  0  0  0  0  0  0
  136.4062   80.3007  222.7314 H   0  0  0  0  0  0  0  0  0  0  0  0
  135.5032   80.8786  224.6419 H   0  0  0  0  0  0  0  0  0  0  0  0
  135.6991   83.4984  224.1290 H   0  0  0  0  0  0  0  0  0  0  0  0
  134.5475   82.9702  225.3302 H   0  0  0  0  0  0  0  0  0  0  0  0
  137.3433   84.1097  225.6757 H   0  0  0  0  0  0  0  0  0  0  0  0
  135.8909   84.4383  226.6499 H   0  0  0  0  0  0  0  0  0  0  0  0
  137.8620   82.8600  227.3370 H   0  0  0  0  0  0  0  0  0  0  0  0
  137.7071   80.8328  226.4195 H   0  0  0  0  0  0  0  0  0  0  0  0
  136.0400   80.6997  227.0045 H   0  0  0  0  0  0  0  0  0  0  0  0
  139.0673   81.0601  225.3323 H   0  0  0  0  0  0  0  0  0  0  0  0
  137.9167   79.7482  225.1086 H   0  0  0  0  0  0  0  0  0  0  0  0
  141.0325   81.9983  224.7456 H   0  0  0  0  0  0  0  0  0  0  0  0
  143.4749   81.7694  224.4508 H   0  0  0  0  0  0  0  0  0  0  0  0
  144.4305   80.0317  222.9624 H   0  0  0  0  0  0  0  0  0  0  0  0
  142.8870   78.4931  221.7533 H   0  0  0  0  0  0  0  0  0  0  0  0
  141.8510   76.1540  222.0770 H   0  0  0  0  0  0  0  0  0  0  0  0
  143.9023   74.3278  221.4366 H   0  0  0  0  0  0  0  0  0  0  0  0
  1  2  1  0
  2  3  2  0
  2  4  1  0
  4  5  2  0
  5  6  1  0
  6  7  2  0
  7  8  1  0
  8  9  2  0
  9 10  1  0
 10 11  2  0
 10 12  1  0
 12 13  1  0
 14 13  1  6
 14 15  1  0
 15 16  1  0
 16 17  1  0
 17 18  1  0
 18 19  1  0
 19 20  1  0
 20 21  1  0
 21 22  1  0
 17 23  1  0
 14 24  1  0
 24 25  2  0
 25 26  1  0
 26 27  2  0
 27 28  1  0
 28 29  2  0
  9 30  1  0
 30 31  1  0
 31 32  2  0
 32  4  1  0
 31  7  1  0
 29 12  1  0
 23 14  1  0
 29 24  1  0
 22 18  1  0
  1 33  1  0
  1 34  1  0
  5 35  1  0
  6 36  1  0
  8 37  1  0
 13 38  1  0
 13 39  1  0
 15 40  1  0
 15 41  1  0
 16 42  1  0
 16 43  1  0
 18 44  1  6
 19 45  1  0
 19 46  1  0
 20 47  1  0
 20 48  1  0
 21 49  1  0
 22 50  1  0
 22 51  1  0
 23 52  1  0
 23 53  1  0
 25 54  1  0
 26 55  1  0
 27 56  1  0
 28 57  1  0
 30 58  1  0
 32 59  1  0
M  END
>  <smiles>  (11) 
NC(=O)c1ccc2cc(C(=O)N3C[C@]4(CCN(C5CCNC5)C4)c4ccccc43)[nH]c2c1

>  <score_type>  (11) 
oracle

>  <origin>  (11) 
autodockgpu

>  <m_score__min__energy>  (11) 
-9.4000000000000004

>  <m_primary>  (11) 
energy

>  <rmsd>  (11) 
7.2212880667827015

>  <m_score__min__rmsd>  (11) 
7.2212880667827015

>  <meeko>  (11) 
{"free_energy": -9.31, "intermolecular_energy": -10.51, "internal_energy": -1.23, "cluster_size": 35, "cluster_id": 1, "rank_in_cluster": 9}

>  <energy>  (11) 
-9.26

>  <cluster_rmsd>  (11) 
0.91

>  <cluster>  (11) 
1

$$$$

     RDKit          3D

 59 64  0  0  1  0  0  0  0  0999 V2000
  145.3620   72.2690  220.5980 N   0  0  0  0  0  0  0  0  0  0  0  0
  145.4000   73.1350  219.4620 C   0  0  0  0  0  0  0  0  0  0  0  0
  146.3110   73.0770  218.5990 O   0  0  0  0  0  0  0  0  0  0  0  0
  144.3450   74.1400  219.2680 C   0  0  0  0  0  0  0  0  0  0  0  0
  144.0540   74.5440  217.9870 C   0  0  0  0  0  0  0  0  0  0  0  0
  143.0700   75.4840  217.7680 C   0  0  0  0  0  0  0  0  0  0  0  0
  142.3830   76.0180  218.8410 C   0  0  0  0  0  0  0  0  0  0  0  0
  141.3720   76.9550  218.9000 C   0  0  0  0  0  0  0  0  0  0  0  0
  141.0310   77.1350  220.2400 C   0  0  0  0  0  0  0  0  0  0  0  0
  140.0170   78.0260  220.7340 C   0  0  0  0  0  0  0  0  0  0  0  0
  139.0050   78.2190  219.9830 O   0  0  0  0  0  0  0  0  0  0  0  0
  140.0580   78.6940  221.9670 N   0  0  0  0  0  0  0  0  0  0  0  0
  138.9830   78.7860  222.9670 C   0  0  0  0  0  0  0  0  0  0  0  0
  139.1220   80.2470  223.3470 C   0  0  1  0  0  0  0  0  0  0  0  0
  138.4760   81.0470  222.2350 C   0  0  0  0  0  0  0  0  0  0  0  0
  137.0710   81.2120  222.8310 C   0  0  0  0  0  0  0  0  0  0  0  0
  137.4180   81.5860  224.1890 N   0  0  0  0  0  0  0  0  0  0  0  0
  136.2600   81.5970  225.0590 C   0  0  2  0  0  0  0  0  0  0  0  0
  135.5480   82.9190  225.0230 C   0  0  0  0  0  0  0  0  0  0  0  0
  136.3360   83.7340  226.0000 C   0  0  0  0  0  0  0  0  0  0  0  0
  136.8230   82.8360  227.0020 N   0  0  0  0  0  0  0  0  0  0  0  0
  136.7870   81.4930  226.4910 C   0  0  0  0  0  0  0  0  0  0  0  0
  138.4030   80.6130  224.6090 C   0  0  0  0  0  0  0  0  0  0  0  0
  140.5870   80.4050  223.4080 C   0  0  0  0  0  0  0  0  0  0  0  0
  141.4520   81.2360  224.0760 C   0  0  0  0  0  0  0  0  0  0  0  0
  142.8230   81.1110  223.8980 C   0  0  0  0  0  0  0  0  0  0  0  0
  143.3600   80.1590  223.0520 C   0  0  0  0  0  0  0  0  0  0  0  0
  142.5030   79.3200  222.3770 C   0  0  0  0  0  0  0  0  0  0  0  0
  141.1320   79.4510  222.5600 C   0  0  0  0  0  0  0  0  0  0  0  0
  141.8280   76.3170  220.9670 N   0  0  0  0  0  0  0  0  0  0  0  0
  142.6540   75.6290  220.1500 C   0  0  0  0  0  0  0  0  0  0  0  0
  143.6440   74.6880  220.3120 C   0  0  0  0  0  0  0  0  0  0  0  0
  145.1490   72.5910  221.5610 H   0  0  0  0  0  0  0  0  0  0  0  0
  145.5570   71.2310  220.5020 H   0  0  0  0  0  0  0  0  0  0  0  0
  144.6062   74.1173  217.1367 H   0  0  0  0  0  0  0  0  0  0  0  0
  142.8329   75.8075  216.7437 H   0  0  0  0  0  0  0  0  0  0  0  0
  140.9155   77.4693  218.0414 H   0  0  0  0  0  0  0  0  0  0  0  0
  137.9970   78.5670  222.5313 H   0  0  0  0  0  0  0  0  0  0  0  0
  139.0579   78.0748  223.8028 H   0  0  0  0  0  0  0  0  0  0  0  0
  138.9743   82.0158  222.0826 H   0  0  0  0  0  0  0  0  0  0  0  0
  138.5122   80.5814  221.2391 H   0  0  0  0  0  0  0  0  0  0  0  0
  136.5017   82.0037  222.3220 H   0  0  0  0  0  0  0  0  0  0  0  0
  136.4233   80.3271  222.7444 H   0  0  0  0  0  0  0  0  0  0  0  0
  135.5853   80.7868  224.7452 H   0  0  0  0  0  0  0  0  0  0  0  0
  135.5815   83.3619  224.0167 H   0  0  0  0  0  0  0  0  0  0  0  0
  134.4783   82.8494  225.2699 H   0  0  0  0  0  0  0  0  0  0  0  0
  137.1790   84.2230  225.4899 H   0  0  0  0  0  0  0  0  0  0  0  0
  135.7100   84.5191  226.4492 H   0  0  0  0  0  0  0  0  0  0  0  0
  137.8000   83.1570  227.2420 H   0  0  0  0  0  0  0  0  0  0  0  0
  137.7964   81.0559  226.4953 H   0  0  0  0  0  0  0  0  0  0  0  0
  136.1469   80.8456  227.1083 H   0  0  0  0  0  0  0  0  0  0  0  0
  139.0977   81.0522  225.3401 H   0  0  0  0  0  0  0  0  0  0  0  0
  137.9490   79.7410  225.1024 H   0  0  0  0  0  0  0  0  0  0  0  0
  141.0565   82.0050  224.7559 H   0  0  0  0  0  0  0  0  0  0  0  0
  143.4986   81.7862  224.4436 H   0  0  0  0  0  0  0  0  0  0  0  0
  144.4489   80.0738  222.9211 H   0  0  0  0  0  0  0  0  0  0  0  0
  142.9005   78.5515  221.6977 H   0  0  0  0  0  0  0  0  0  0  0  0
  141.8500   76.1900  222.0020 H   0  0  0  0  0  0  0  0  0  0  0  0
  143.8864   74.3574  221.3327 H   0  0  0  0  0  0  0  0  0  0  0  0
  1  2  1  0
  2  3  2  0
  2  4  1  0
  4  5  2  0
  5  6  1  0
  6  7  2  0
  7  8  1  0
  8  9  2  0
  9 10  1  0
 10 11  2  0
 10 12  1  0
 12 13  1  0
 14 13  1  6
 14 15  1  0
 15 16  1  0
 16 17  1  0
 17 18  1  0
 18 19  1  0
 19 20  1  0
 20 21  1  0
 21 22  1  0
 17 23  1  0
 14 24  1  0
 24 25  2  0
 25 26  1  0
 26 27  2  0
 27 28  1  0
 28 29  2  0
  9 30  1  0
 30 31  1  0
 31 32  2  0
 32  4  1  0
 31  7  1  0
 29 12  1  0
 23 14  1  0
 29 24  1  0
 22 18  1  0
  1 33  1  0
  1 34  1  0
  5 35  1  0
  6 36  1  0
  8 37  1  0
 13 38  1  0
 13 39  1  0
 15 40  1  0
 15 41  1  0
 16 42  1  0
 16 43  1  0
 18 44  1  6
 19 45  1  0
 19 46  1  0
 20 47  1  0
 20 48  1  0
 21 49  1  0
 22 50  1  0
 22 51  1  0
 23 52  1  0
 23 53  1  0
 25 54  1  0
 26 55  1  0
 27 56  1  0
 28 57  1  0
 30 58  1  0
 32 59  1  0
M  END
>  <smiles>  (12) 
NC(=O)c1ccc2cc(C(=O)N3C[C@]4(CCN(C5CCNC5)C4)c4ccccc43)[nH]c2c1

>  <score_type>  (12) 
oracle

>  <origin>  (12) 
autodockgpu

>  <m_score__min__energy>  (12) 
-9.4000000000000004

>  <m_primary>  (12) 
energy

>  <rmsd>  (12) 
7.249094081650954

>  <m_score__min__rmsd>  (12) 
7.249094081650954

>  <meeko>  (12) 
{"free_energy": -9.22, "intermolecular_energy": -10.41, "internal_energy": -1.23, "cluster_size": 35, "cluster_id": 1, "rank_in_cluster": 13}

>  <energy>  (12) 
-9.23

>  <cluster_rmsd>  (12) 
0.93

>  <cluster>  (12) 
1

$$$$

     RDKit          3D

 59 64  0  0  1  0  0  0  0  0999 V2000
  146.2340   72.2650  220.7240 N   0  0  0  0  0  0  0  0  0  0  0  0
  145.4940   72.9890  219.7380 C   0  0  0  0  0  0  0  0  0  0  0  0
  145.9500   73.2230  218.5910 O   0  0  0  0  0  0  0  0  0  0  0  0
  144.1480   73.4880  220.0490 C   0  0  0  0  0  0  0  0  0  0  0  0
  143.1330   72.5740  220.2130 C   0  0  0  0  0  0  0  0  0  0  0  0
  141.8580   73.0070  220.5060 C   0  0  0  0  0  0  0  0  0  0  0  0
  141.6060   74.3600  220.6310 C   0  0  0  0  0  0  0  0  0  0  0  0
  140.4440   75.0470  220.9150 C   0  0  0  0  0  0  0  0  0  0  0  0
  140.7420   76.4090  220.9260 C   0  0  0  0  0  0  0  0  0  0  0  0
  139.8070   77.4690  221.1840 C   0  0  0  0  0  0  0  0  0  0  0  0
  138.8490   77.6070  220.3540 O   0  0  0  0  0  0  0  0  0  0  0  0
  139.8670   78.3540  222.2710 N   0  0  0  0  0  0  0  0  0  0  0  0
  138.8130   78.6260  223.2600 C   0  0  0  0  0  0  0  0  0  0  0  0
  138.9480   80.1320  223.3600 C   0  0  1  0  0  0  0  0  0  0  0  0
  138.2710   80.7080  222.1330 C   0  0  0  0  0  0  0  0  0  0  0  0
  136.8770   80.9750  222.7190 C   0  0  0  0  0  0  0  0  0  0  0  0
  137.2500   81.5970  223.9760 N   0  0  0  0  0  0  0  0  0  0  0  0
  136.1100   81.7640  224.8540 C   0  0  2  0  0  0  0  0  0  0  0  0
  135.6340   83.1880  224.8850 C   0  0  0  0  0  0  0  0  0  0  0  0
  136.5500   83.8090  225.8930 C   0  0  0  0  0  0  0  0  0  0  0  0
  136.8750   82.7950  226.8490 N   0  0  0  0  0  0  0  0  0  0  0  0
  136.6110   81.5030  226.2760 C   0  0  0  0  0  0  0  0  0  0  0  0
  138.2520   80.7230  224.5470 C   0  0  0  0  0  0  0  0  0  0  0  0
  140.4120   80.3050  223.3570 C   0  0  0  0  0  0  0  0  0  0  0  0
  141.2830   81.2500  223.8400 C   0  0  0  0  0  0  0  0  0  0  0  0
  142.6510   81.1010  223.6580 C   0  0  0  0  0  0  0  0  0  0  0  0
  143.1790   80.0100  222.9920 C   0  0  0  0  0  0  0  0  0  0  0  0
  142.3150   79.0570  222.5040 C   0  0  0  0  0  0  0  0  0  0  0  0
  140.9480   79.2130  222.6900 C   0  0  0  0  0  0  0  0  0  0  0  0
  142.0630   76.5290  220.6530 N   0  0  0  0  0  0  0  0  0  0  0  0
  142.6110   75.3090  220.4710 C   0  0  0  0  0  0  0  0  0  0  0  0
  143.8650   74.8240  220.1800 C   0  0  0  0  0  0  0  0  0  0  0  0
  146.3010   72.5520  221.7200 H   0  0  0  0  0  0  0  0  0  0  0  0
  146.7610   71.3800  220.4740 H   0  0  0  0  0  0  0  0  0  0  0  0
  143.3390   71.4983  220.1103 H   0  0  0  0  0  0  0  0  0  0  0  0
  141.0444   72.2789  220.6398 H   0  0  0  0  0  0  0  0  0  0  0  0
  139.4565   74.5992  221.1001 H   0  0  0  0  0  0  0  0  0  0  0  0
  137.8198   78.3262  222.8944 H   0  0  0  0  0  0  0  0  0  0  0  0
  138.9115   78.0825  224.2113 H   0  0  0  0  0  0  0  0  0  0  0  0
  138.7575   81.6337  221.7917 H   0  0  0  0  0  0  0  0  0  0  0  0
  138.2900   80.0648  221.2408 H   0  0  0  0  0  0  0  0  0  0  0  0
  136.2904   81.6556  222.0844 H   0  0  0  0  0  0  0  0  0  0  0  0
  136.2348   80.0869  222.8129 H   0  0  0  0  0  0  0  0  0  0  0  0
  135.3069   81.0969  224.5077 H   0  0  0  0  0  0  0  0  0  0  0  0
  135.7428   83.6659  223.9002 H   0  0  0  0  0  0  0  0  0  0  0  0
  134.5681   83.2906  225.1365 H   0  0  0  0  0  0  0  0  0  0  0  0
  137.4648   84.1693  225.3997 H   0  0  0  0  0  0  0  0  0  0  0  0
  136.0678   84.6679  226.3827 H   0  0  0  0  0  0  0  0  0  0  0  0
  137.8930   82.9320  227.0960 H   0  0  0  0  0  0  0  0  0  0  0  0
  137.5311   80.9007  226.2521 H   0  0  0  0  0  0  0  0  0  0  0  0
  135.8700   80.9450  226.8671 H   0  0  0  0  0  0  0  0  0  0  0  0
  138.9580   81.2934  225.1685 H   0  0  0  0  0  0  0  0  0  0  0  0
  137.8154   79.9556  225.2031 H   0  0  0  0  0  0  0  0  0  0  0  0
  140.8947   82.1298  224.3740 H   0  0  0  0  0  0  0  0  0  0  0  0
  143.3317   81.8694  224.0531 H   0  0  0  0  0  0  0  0  0  0  0  0
  144.2656   79.9065  222.8555 H   0  0  0  0  0  0  0  0  0  0  0  0
  142.7045   78.1776  221.9702 H   0  0  0  0  0  0  0  0  0  0  0  0
  142.6300   77.4020  220.5810 H   0  0  0  0  0  0  0  0  0  0  0  0
  144.6842   75.5456  220.0452 H   0  0  0  0  0  0  0  0  0  0  0  0
  1  2  1  0
  2  3  2  0
  2  4  1  0
  4  5  2  0
  5  6  1  0
  6  7  2  0
  7  8  1  0
  8  9  2  0
  9 10  1  0
 10 11  2  0
 10 12  1  0
 12 13  1  0
 14 13  1  6
 14 15  1  0
 15 16  1  0
 16 17  1  0
 17 18  1  0
 18 19  1  0
 19 20  1  0
 20 21  1  0
 21 22  1  0
 17 23  1  0
 14 24  1  0
 24 25  2  0
 25 26  1  0
 26 27  2  0
 27 28  1  0
 28 29  2  0
  9 30  1  0
 30 31  1  0
 31 32  2  0
 32  4  1  0
 31  7  1  0
 29 12  1  0
 23 14  1  0
 29 24  1  0
 22 18  1  0
  1 33  1  0
  1 34  1  0
  5 35  1  0
  6 36  1  0
  8 37  1  0
 13 38  1  0
 13 39  1  0
 15 40  1  0
 15 41  1  0
 16 42  1  0
 16 43  1  0
 18 44  1  6
 19 45  1  0
 19 46  1  0
 20 47  1  0
 20 48  1  0
 21 49  1  0
 22 50  1  0
 22 51  1  0
 23 52  1  0
 23 53  1  0
 25 54  1  0
 26 55  1  0
 27 56  1  0
 28 57  1  0
 30 58  1  0
 32 59  1  0
M  END
>  <smiles>  (13) 
NC(=O)c1ccc2cc(C(=O)N3C[C@]4(CCN(C5CCNC5)C4)c4ccccc43)[nH]c2c1

>  <score_type>  (13) 
oracle

>  <origin>  (13) 
autodockgpu

>  <m_score__min__energy>  (13) 
-9.4000000000000004

>  <m_primary>  (13) 
energy

>  <rmsd>  (13) 
6.671052552618014

>  <m_score__min__rmsd>  (13) 
6.671052552618014

>  <meeko>  (13) 
{"free_energy": -9.11, "intermolecular_energy": -10.31, "internal_energy": -1.22, "cluster_size": 35, "cluster_id": 1, "rank_in_cluster": 23}

>  <energy>  (13) 
-9.22

>  <cluster_rmsd>  (13) 
0.93

>  <cluster>  (13) 
1

$$$$

     RDKit          3D

 59 64  0  0  1  0  0  0  0  0999 V2000
  145.7300   73.7690  217.6870 N   0  0  0  0  0  0  0  0  0  0  0  0
  145.4550   73.3750  219.0330 C   0  0  0  0  0  0  0  0  0  0  0  0
  146.2520   72.6770  219.7080 O   0  0  0  0  0  0  0  0  0  0  0  0
  144.2010   73.7900  219.6790 C   0  0  0  0  0  0  0  0  0  0  0  0
  143.4960   72.8540  220.3990 C   0  0  0  0  0  0  0  0  0  0  0  0
  142.3170   73.2070  221.0180 C   0  0  0  0  0  0  0  0  0  0  0  0
  141.8480   74.5030  220.9100 C   0  0  0  0  0  0  0  0  0  0  0  0
  140.7190   75.1080  221.4210 C   0  0  0  0  0  0  0  0  0  0  0  0
  140.7240   76.4410  221.0120 C   0  0  0  0  0  0  0  0  0  0  0  0
  139.7220   77.4200  221.3340 C   0  0  0  0  0  0  0  0  0  0  0  0
  138.6860   77.4500  220.5920 O   0  0  0  0  0  0  0  0  0  0  0  0
  139.7980   78.3350  222.3940 N   0  0  0  0  0  0  0  0  0  0  0  0
  138.7580   78.6350  223.3910 C   0  0  0  0  0  0  0  0  0  0  0  0
  138.8930   80.1430  223.4460 C   0  0  1  0  0  0  0  0  0  0  0  0
  138.1970   80.6840  222.2130 C   0  0  0  0  0  0  0  0  0  0  0  0
  136.8120   80.9660  222.8120 C   0  0  0  0  0  0  0  0  0  0  0  0
  137.2020   81.6230  224.0450 N   0  0  0  0  0  0  0  0  0  0  0  0
  136.0760   81.8140  224.9360 C   0  0  2  0  0  0  0  0  0  0  0  0
  135.6110   83.2420  224.9500 C   0  0  0  0  0  0  0  0  0  0  0  0
  136.5460   83.8720  225.9350 C   0  0  0  0  0  0  0  0  0  0  0  0
  136.8750   82.8710  226.9030 N   0  0  0  0  0  0  0  0  0  0  0  0
  136.5930   81.5720  226.3550 C   0  0  0  0  0  0  0  0  0  0  0  0
  138.2130   80.7670  224.6260 C   0  0  0  0  0  0  0  0  0  0  0  0
  140.3560   80.3170  223.4160 C   0  0  0  0  0  0  0  0  0  0  0  0
  141.2340   81.2760  223.8590 C   0  0  0  0  0  0  0  0  0  0  0  0
  142.5980   81.1230  223.6610 C   0  0  0  0  0  0  0  0  0  0  0  0
  143.1180   80.0150  223.0180 C   0  0  0  0  0  0  0  0  0  0  0  0
  142.2480   79.0470  222.5700 C   0  0  0  0  0  0  0  0  0  0  0  0
  140.8830   79.2070  222.7720 C   0  0  0  0  0  0  0  0  0  0  0  0
  141.8400   76.6250  220.2670 N   0  0  0  0  0  0  0  0  0  0  0  0
  142.5390   75.4720  220.1880 C   0  0  0  0  0  0  0  0  0  0  0  0
  143.7100   75.0670  219.5910 C   0  0  0  0  0  0  0  0  0  0  0  0
  145.0320   73.7260  216.9200 H   0  0  0  0  0  0  0  0  0  0  0  0
  146.6860   74.1300  217.4060 H   0  0  0  0  0  0  0  0  0  0  0  0
  143.8734   71.8240  220.4806 H   0  0  0  0  0  0  0  0  0  0  0  0
  141.7513   72.4611  221.5956 H   0  0  0  0  0  0  0  0  0  0  0  0
  139.9503   74.6244  222.0416 H   0  0  0  0  0  0  0  0  0  0  0  0
  137.7597   78.3245  223.0490 H   0  0  0  0  0  0  0  0  0  0  0  0
  138.8712   78.1190  224.3559 H   0  0  0  0  0  0  0  0  0  0  0  0
  138.6772   81.6001  221.8387 H   0  0  0  0  0  0  0  0  0  0  0  0
  138.2036   80.0162  221.3389 H   0  0  0  0  0  0  0  0  0  0  0  0
  136.2152   81.6280  222.1674 H   0  0  0  0  0  0  0  0  0  0  0  0
  136.1727   80.0801  222.9403 H   0  0  0  0  0  0  0  0  0  0  0  0
  135.2633   81.1476  224.6113 H   0  0  0  0  0  0  0  0  0  0  0  0
  135.7096   83.7029  223.9561 H   0  0  0  0  0  0  0  0  0  0  0  0
  134.5495   83.3571  225.2144 H   0  0  0  0  0  0  0  0  0  0  0  0
  137.4571   84.2160  225.4235 H   0  0  0  0  0  0  0  0  0  0  0  0
  136.0782   84.7433  226.4166 H   0  0  0  0  0  0  0  0  0  0  0  0
  137.8970   83.0040  227.1350 H   0  0  0  0  0  0  0  0  0  0  0  0
  137.5078   80.9616  226.3292 H   0  0  0  0  0  0  0  0  0  0  0  0
  135.8552   81.0299  226.9647 H   0  0  0  0  0  0  0  0  0  0  0  0
  138.9270   81.3556  225.2208 H   0  0  0  0  0  0  0  0  0  0  0  0
  137.7870   80.0181  225.3099 H   0  0  0  0  0  0  0  0  0  0  0  0
  140.8530   82.1704  224.3737 H   0  0  0  0  0  0  0  0  0  0  0  0
  143.2834   81.9027  224.0246 H   0  0  0  0  0  0  0  0  0  0  0  0
  144.2026   79.9094  222.8678 H   0  0  0  0  0  0  0  0  0  0  0  0
  142.6309   78.1532  222.0557 H   0  0  0  0  0  0  0  0  0  0  0  0
  142.1670   77.4980  219.7990 H   0  0  0  0  0  0  0  0  0  0  0  0
  144.2828   75.8067  219.0124 H   0  0  0  0  0  0  0  0  0  0  0  0
  1  2  1  0
  2  3  2  0
  2  4  1  0
  4  5  2  0
  5  6  1  0
  6  7  2  0
  7  8  1  0
  8  9  2  0
  9 10  1  0
 10 11  2  0
 10 12  1  0
 12 13  1  0
 14 13  1  1
 14 15  1  0
 15 16  1  0
 16 17  1  0
 17 18  1  0
 18 19  1  0
 19 20  1  0
 20 21  1  0
 21 22  1  0
 17 23  1  0
 14 24  1  0
 24 25  2  0
 25 26  1  0
 26 27  2  0
 27 28  1  0
 28 29  2  0
  9 30  1  0
 30 31  1  0
 31 32  2  0
 32  4  1  0
 31  7  1  0
 29 12  1  0
 23 14  1  0
 29 24  1  0
 22 18  1  0
  1 33  1  0
  1 34  1  0
  5 35  1  0
  6 36  1  0
  8 37  1  0
 13 38  1  0
 13 39  1  0
 15 40  1  0
 15 41  1  0
 16 42  1  0
 16 43  1  0
 18 44  1  6
 19 45  1  0
 19 46  1  0
 20 47  1  0
 20 48  1  0
 21 49  1  0
 22 50  1  0
 22 51  1  0
 23 52  1  0
 23 53  1  0
 25 54  1  0
 26 55  1  0
 27 56  1  0
 28 57  1  0
 30 58  1  0
 32 59  1  0
M  END
>  <smiles>  (14) 
NC(=O)c1ccc2cc(C(=O)N3C[C@]4(CCN(C5CCNC5)C4)c4ccccc43)[nH]c2c1

>  <score_type>  (14) 
oracle

>  <origin>  (14) 
autodockgpu

>  <m_score__min__energy>  (14) 
-9.4000000000000004

>  <m_primary>  (14) 
energy

>  <rmsd>  (14) 
6.90134627768938

>  <m_score__min__rmsd>  (14) 
6.90134627768938

>  <meeko>  (14) 
{"free_energy": -8.51, "intermolecular_energy": -9.7, "internal_energy": -1.25, "cluster_size": 35, "cluster_id": 1, "rank_in_cluster": 34}

>  <energy>  (14) 
-9.22

>  <cluster_rmsd>  (14) 
0.93

>  <cluster>  (14) 
1

$$$$

     RDKit          3D

 59 64  0  0  1  0  0  0  0  0999 V2000
  145.2730   72.0100  220.4230 N   0  0  0  0  0  0  0  0  0  0  0  0
  145.4690   73.1580  219.5950 C   0  0  0  0  0  0  0  0  0  0  0  0
  146.5560   73.3900  219.0090 O   0  0  0  0  0  0  0  0  0  0  0  0
  144.3760   74.1210  219.4030 C   0  0  0  0  0  0  0  0  0  0  0  0
  144.0540   74.4980  218.1200 C   0  0  0  0  0  0  0  0  0  0  0  0
  143.0340   75.3990  217.9030 C   0  0  0  0  0  0  0  0  0  0  0  0
  142.3400   75.9200  218.9780 C   0  0  0  0  0  0  0  0  0  0  0  0
  141.2960   76.8190  219.0380 C   0  0  0  0  0  0  0  0  0  0  0  0
  140.9650   77.0030  220.3810 C   0  0  0  0  0  0  0  0  0  0  0  0
  139.9240   77.8630  220.8760 C   0  0  0  0  0  0  0  0  0  0  0  0
  138.8730   77.9640  220.1630 O   0  0  0  0  0  0  0  0  0  0  0  0
  139.9790   78.5910  222.0740 N   0  0  0  0  0  0  0  0  0  0  0  0
  138.9190   78.7280  223.0840 C   0  0  0  0  0  0  0  0  0  0  0  0
  139.0550   80.2060  223.3890 C   0  0  1  0  0  0  0  0  0  0  0  0
  138.3880   80.9460  222.2480 C   0  0  0  0  0  0  0  0  0  0  0  0
  136.9900   81.1330  222.8560 C   0  0  0  0  0  0  0  0  0  0  0  0
  137.3560   81.5770  224.1880 N   0  0  0  0  0  0  0  0  0  0  0  0
  136.2110   81.6250  225.0740 C   0  0  2  0  0  0  0  0  0  0  0  0
  135.5500   82.9740  225.0590 C   0  0  0  0  0  0  0  0  0  0  0  0
  136.3830   83.7490  226.0320 C   0  0  0  0  0  0  0  0  0  0  0  0
  136.8470   82.8240  227.0200 N   0  0  0  0  0  0  0  0  0  0  0  0
  136.7520   81.4870  226.4980 C   0  0  0  0  0  0  0  0  0  0  0  0
  138.3520   80.6310  224.6410 C   0  0  0  0  0  0  0  0  0  0  0  0
  140.5200   80.3740  223.4190 C   0  0  0  0  0  0  0  0  0  0  0  0
  141.3890   81.2420  224.0320 C   0  0  0  0  0  0  0  0  0  0  0  0
  142.7580   81.1160  223.8400 C   0  0  0  0  0  0  0  0  0  0  0  0
  143.2880   80.1260  223.0350 C   0  0  0  0  0  0  0  0  0  0  0  0
  142.4270   79.2500  222.4150 C   0  0  0  0  0  0  0  0  0  0  0  0
  141.0580   79.3820  222.6120 C   0  0  0  0  0  0  0  0  0  0  0  0
  141.8010   76.2250  221.1070 N   0  0  0  0  0  0  0  0  0  0  0  0
  142.6420   75.5580  220.2880 C   0  0  0  0  0  0  0  0  0  0  0  0
  143.6680   74.6560  220.4490 C   0  0  0  0  0  0  0  0  0  0  0  0
  144.8060   72.0400  221.3490 H   0  0  0  0  0  0  0  0  0  0  0  0
  145.6070   71.0510  220.1170 H   0  0  0  0  0  0  0  0  0  0  0  0
  144.6102   74.0806  217.2677 H   0  0  0  0  0  0  0  0  0  0  0  0
  142.7735   75.7021  216.8782 H   0  0  0  0  0  0  0  0  0  0  0  0
  140.8102   77.3051  218.1791 H   0  0  0  0  0  0  0  0  0  0  0  0
  137.9279   78.4828  222.6747 H   0  0  0  0  0  0  0  0  0  0  0  0
  139.0107   78.0599  223.9530 H   0  0  0  0  0  0  0  0  0  0  0  0
  138.8780   81.9087  222.0402 H   0  0  0  0  0  0  0  0  0  0  0  0
  138.4127   80.4314  221.2761 H   0  0  0  0  0  0  0  0  0  0  0  0
  136.4081   81.8948  222.3166 H   0  0  0  0  0  0  0  0  0  0  0  0
  136.3461   80.2417  222.8237 H   0  0  0  0  0  0  0  0  0  0  0  0
  135.5014   80.8444  224.7622 H   0  0  0  0  0  0  0  0  0  0  0  0
  135.5867   83.4244  224.0561 H   0  0  0  0  0  0  0  0  0  0  0  0
  134.4819   82.9438  225.3202 H   0  0  0  0  0  0  0  0  0  0  0  0
  137.2380   84.2084  225.5144 H   0  0  0  0  0  0  0  0  0  0  0  0
  135.7948   84.5545  226.4959 H   0  0  0  0  0  0  0  0  0  0  0  0
  137.8390   83.1040  227.2490 H   0  0  0  0  0  0  0  0  0  0  0  0
  137.7435   81.0108  226.4852 H   0  0  0  0  0  0  0  0  0  0  0  0
  136.0954   80.8592  227.1182 H   0  0  0  0  0  0  0  0  0  0  0  0
  139.0546   81.1093  225.3392 H   0  0  0  0  0  0  0  0  0  0  0  0
  137.9097   79.7824  225.1834 H   0  0  0  0  0  0  0  0  0  0  0  0
  140.9985   82.0415  224.6787 H   0  0  0  0  0  0  0  0  0  0  0  0
  143.4373   81.8214  224.3409 H   0  0  0  0  0  0  0  0  0  0  0  0
  144.3754   80.0400  222.8928 H   0  0  0  0  0  0  0  0  0  0  0  0
  142.8195   78.4514  221.7684 H   0  0  0  0  0  0  0  0  0  0  0  0
  141.8390   76.1120  222.1430 H   0  0  0  0  0  0  0  0  0  0  0  0
  143.9348   74.3474  221.4706 H   0  0  0  0  0  0  0  0  0  0  0  0
  1  2  1  0
  2  3  2  0
  2  4  1  0
  4  5  2  0
  5  6  1  0
  6  7  2  0
  7  8  1  0
  8  9  2  0
  9 10  1  0
 10 11  2  0
 10 12  1  0
 12 13  1  0
 14 13  1  6
 14 15  1  0
 15 16  1  0
 16 17  1  0
 17 18  1  0
 18 19  1  0
 19 20  1  0
 20 21  1  0
 21 22  1  0
 17 23  1  0
 14 24  1  0
 24 25  2  0
 25 26  1  0
 26 27  2  0
 27 28  1  0
 28 29  2  0
  9 30  1  0
 30 31  1  0
 31 32  2  0
 32  4  1  0
 31  7  1  0
 29 12  1  0
 23 14  1  0
 29 24  1  0
 22 18  1  0
  1 33  1  0
  1 34  1  0
  5 35  1  0
  6 36  1  0
  8 37  1  0
 13 38  1  0
 13 39  1  0
 15 40  1  0
 15 41  1  0
 16 42  1  0
 16 43  1  0
 18 44  1  6
 19 45  1  0
 19 46  1  0
 20 47  1  0
 20 48  1  0
 21 49  1  0
 22 50  1  0
 22 51  1  0
 23 52  1  0
 23 53  1  0
 25 54  1  0
 26 55  1  0
 27 56  1  0
 28 57  1  0
 30 58  1  0
 32 59  1  0
M  END
>  <smiles>  (15) 
NC(=O)c1ccc2cc(C(=O)N3C[C@]4(CCN(C5CCNC5)C4)c4ccccc43)[nH]c2c1

>  <score_type>  (15) 
oracle

>  <origin>  (15) 
autodockgpu

>  <m_score__min__energy>  (15) 
-9.4000000000000004

>  <m_primary>  (15) 
energy

>  <rmsd>  (15) 
7.196670668242074

>  <m_score__min__rmsd>  (15) 
7.196670668242074

>  <meeko>  (15) 
{"free_energy": -9.06, "intermolecular_energy": -10.25, "internal_energy": -1.24, "cluster_size": 35, "cluster_id": 1, "rank_in_cluster": 24}

>  <energy>  (15) 
-9.21

>  <cluster_rmsd>  (15) 
0.93

>  <cluster>  (15) 
1

$$$$

     RDKit          3D

 59 64  0  0  1  0  0  0  0  0999 V2000
  145.8220   72.6500  220.8460 N   0  0  0  0  0  0  0  0  0  0  0  0
  145.5610   73.2500  219.5750 C   0  0  0  0  0  0  0  0  0  0  0  0
  146.2810   73.0360  218.5680 O   0  0  0  0  0  0  0  0  0  0  0  0
  144.4140   74.1540  219.4100 C   0  0  0  0  0  0  0  0  0  0  0  0
  144.0470   74.5190  218.1360 C   0  0  0  0  0  0  0  0  0  0  0  0
  142.9760   75.3650  217.9440 C   0  0  0  0  0  0  0  0  0  0  0  0
  142.2770   75.8430  219.0360 C   0  0  0  0  0  0  0  0  0  0  0  0
  141.1870   76.6850  219.1220 C   0  0  0  0  0  0  0  0  0  0  0  0
  140.8730   76.8440  220.4710 C   0  0  0  0  0  0  0  0  0  0  0  0
  139.7990   77.6440  220.9920 C   0  0  0  0  0  0  0  0  0  0  0  0
  138.6960   77.6120  220.3540 O   0  0  0  0  0  0  0  0  0  0  0  0
  139.8720   78.4490  222.1380 N   0  0  0  0  0  0  0  0  0  0  0  0
  138.8260   78.6550  223.1520 C   0  0  0  0  0  0  0  0  0  0  0  0
  138.9700   80.1500  223.3580 C   0  0  1  0  0  0  0  0  0  0  0  0
  138.2890   80.8150  222.1800 C   0  0  0  0  0  0  0  0  0  0  0  0
  136.9000   81.0470  222.7940 C   0  0  0  0  0  0  0  0  0  0  0  0
  137.2860   81.5760  224.0890 N   0  0  0  0  0  0  0  0  0  0  0  0
  136.1530   81.6860  224.9860 C   0  0  2  0  0  0  0  0  0  0  0  0
  135.6220   83.0900  225.0450 C   0  0  0  0  0  0  0  0  0  0  0  0
  136.5280   83.7310  226.0490 C   0  0  0  0  0  0  0  0  0  0  0  0
  136.9060   82.7160  226.9850 N   0  0  0  0  0  0  0  0  0  0  0  0
  136.6830   81.4240  226.3960 C   0  0  0  0  0  0  0  0  0  0  0  0
  138.2860   80.6580  224.5890 C   0  0  0  0  0  0  0  0  0  0  0  0
  140.4360   80.3150  223.3570 C   0  0  0  0  0  0  0  0  0  0  0  0
  141.3160   81.2180  223.9000 C   0  0  0  0  0  0  0  0  0  0  0  0
  142.6810   81.0750  223.6970 C   0  0  0  0  0  0  0  0  0  0  0  0
  143.1980   80.0320  222.9510 C   0  0  0  0  0  0  0  0  0  0  0  0
  142.3260   79.1210  222.4020 C   0  0  0  0  0  0  0  0  0  0  0  0
  140.9600   79.2700  222.6090 C   0  0  0  0  0  0  0  0  0  0  0  0
  141.7640   76.1080  221.1770 N   0  0  0  0  0  0  0  0  0  0  0  0
  142.6230   75.4910  220.3370 C   0  0  0  0  0  0  0  0  0  0  0  0
  143.6990   74.6450  220.4730 C   0  0  0  0  0  0  0  0  0  0  0  0
  145.7830   73.1660  221.7450 H   0  0  0  0  0  0  0  0  0  0  0  0
  146.0730   71.6230  220.9250 H   0  0  0  0  0  0  0  0  0  0  0  0
  144.6078   74.1360  217.2707 H   0  0  0  0  0  0  0  0  0  0  0  0
  142.6790   75.6583  216.9263 H   0  0  0  0  0  0  0  0  0  0  0  0
  140.6591   77.1488  218.2757 H   0  0  0  0  0  0  0  0  0  0  0  0
  137.8286   78.3869  222.7733 H   0  0  0  0  0  0  0  0  0  0  0  0
  138.9281   78.0446  224.0614 H   0  0  0  0  0  0  0  0  0  0  0  0
  138.7786   81.7600  221.9019 H   0  0  0  0  0  0  0  0  0  0  0  0
  138.2985   80.2371  221.2441 H   0  0  0  0  0  0  0  0  0  0  0  0
  136.3128   81.7741  222.2139 H   0  0  0  0  0  0  0  0  0  0  0  0
  136.2531   80.1580  222.8292 H   0  0  0  0  0  0  0  0  0  0  0  0
  135.3717   80.9930  224.6406 H   0  0  0  0  0  0  0  0  0  0  0  0
  135.6976   83.5861  224.0661 H   0  0  0  0  0  0  0  0  0  0  0  0
  134.5566   83.1474  225.3128 H   0  0  0  0  0  0  0  0  0  0  0  0
  137.4209   84.1337  225.5483 H   0  0  0  0  0  0  0  0  0  0  0  0
  136.0204   84.5633  226.5585 H   0  0  0  0  0  0  0  0  0  0  0  0
  137.9210   82.8890  227.2200 H   0  0  0  0  0  0  0  0  0  0  0  0
  137.6248   80.8575  226.3506 H   0  0  0  0  0  0  0  0  0  0  0  0
  135.9717   80.8298  226.9885 H   0  0  0  0  0  0  0  0  0  0  0  0
  138.9996   81.1784  225.2447 H   0  0  0  0  0  0  0  0  0  0  0  0
  137.8492   79.8481  225.1917 H   0  0  0  0  0  0  0  0  0  0  0  0
  140.9370   82.0591  224.4990 H   0  0  0  0  0  0  0  0  0  0  0  0
  143.3691   81.8097  224.1406 H   0  0  0  0  0  0  0  0  0  0  0  0
  144.2831   79.9329  222.7999 H   0  0  0  0  0  0  0  0  0  0  0  0
  142.7072   78.2805  221.8034 H   0  0  0  0  0  0  0  0  0  0  0  0
  141.8290   75.9910  222.2110 H   0  0  0  0  0  0  0  0  0  0  0  0
  144.0022   74.3464  221.4874 H   0  0  0  0  0  0  0  0  0  0  0  0
  1  2  1  0
  2  3  2  0
  2  4  1  0
  4  5  2  0
  5  6  1  0
  6  7  2  0
  7  8  1  0
  8  9  2  0
  9 10  1  0
 10 11  2  0
 10 12  1  0
 12 13  1  0
 14 13  1  6
 14 15  1  0
 15 16  1  0
 16 17  1  0
 17 18  1  0
 18 19  1  0
 19 20  1  0
 20 21  1  0
 21 22  1  0
 17 23  1  0
 14 24  1  0
 24 25  2  0
 25 26  1  0
 26 27  2  0
 27 28  1  0
 28 29  2  0
  9 30  1  0
 30 31  1  0
 31 32  2  0
 32  4  1  0
 31  7  1  0
 29 12  1  0
 23 14  1  0
 29 24  1  0
 22 18  1  0
  1 33  1  0
  1 34  1  0
  5 35  1  0
  6 36  1  0
  8 37  1  0
 13 38  1  0
 13 39  1  0
 15 40  1  0
 15 41  1  0
 16 42  1  0
 16 43  1  0
 18 44  1  6
 19 45  1  0
 19 46  1  0
 20 47  1  0
 20 48  1  0
 21 49  1  0
 22 50  1  0
 22 51  1  0
 23 52  1  0
 23 53  1  0
 25 54  1  0
 26 55  1  0
 27 56  1  0
 28 57  1  0
 30 58  1  0
 32 59  1  0
M  END
>  <smiles>  (16) 
NC(=O)c1ccc2cc(C(=O)N3C[C@]4(CCN(C5CCNC5)C4)c4ccccc43)[nH]c2c1

>  <score_type>  (16) 
oracle

>  <origin>  (16) 
autodockgpu

>  <m_score__min__energy>  (16) 
-9.4000000000000004

>  <m_primary>  (16) 
energy

>  <rmsd>  (16) 
7.166405033407045

>  <m_score__min__rmsd>  (16) 
7.166405033407045

>  <meeko>  (16) 
{"free_energy": -9.22, "intermolecular_energy": -10.41, "internal_energy": -1.25, "cluster_size": 35, "cluster_id": 1, "rank_in_cluster": 14}

>  <energy>  (16) 
-9.21

>  <cluster_rmsd>  (16) 
0.9

>  <cluster>  (16) 
1

$$$$

     RDKit          3D

 59 64  0  0  1  0  0  0  0  0999 V2000
  146.1580   72.0720  220.4140 N   0  0  0  0  0  0  0  0  0  0  0  0
  145.5030   72.9440  219.4900 C   0  0  0  0  0  0  0  0  0  0  0  0
  145.9580   73.1740  218.3420 O   0  0  0  0  0  0  0  0  0  0  0  0
  144.2490   73.6090  219.8700 C   0  0  0  0  0  0  0  0  0  0  0  0
  143.2120   72.8330  220.3320 C   0  0  0  0  0  0  0  0  0  0  0  0
  142.0210   73.4230  220.6980 C   0  0  0  0  0  0  0  0  0  0  0  0
  141.8770   74.7930  220.5970 C   0  0  0  0  0  0  0  0  0  0  0  0
  140.8130   75.6210  220.8910 C   0  0  0  0  0  0  0  0  0  0  0  0
  141.1970   76.9310  220.6070 C   0  0  0  0  0  0  0  0  0  0  0  0
  140.3770   78.1000  220.7780 C   0  0  0  0  0  0  0  0  0  0  0  0
  139.6960   78.4770  219.7690 O   0  0  0  0  0  0  0  0  0  0  0  0
  140.2720   78.8470  221.9600 N   0  0  0  0  0  0  0  0  0  0  0  0
  139.0700   79.0520  222.7830 C   0  0  0  0  0  0  0  0  0  0  0  0
  139.2250   80.5280  223.0890 C   0  0  1  0  0  0  0  0  0  0  0  0
  138.7880   81.2750  221.8460 C   0  0  0  0  0  0  0  0  0  0  0  0
  137.3210   81.5380  222.2160 C   0  0  0  0  0  0  0  0  0  0  0  0
  137.4870   81.9900  223.5850 N   0  0  0  0  0  0  0  0  0  0  0  0
  136.2160   82.1070  224.2720 C   0  0  2  0  0  0  0  0  0  0  0  0
  136.1760   83.3110  225.1680 C   0  0  0  0  0  0  0  0  0  0  0  0
  136.8440   82.8080  226.4100 C   0  0  0  0  0  0  0  0  0  0  0  0
  136.5380   81.4140  226.5170 N   0  0  0  0  0  0  0  0  0  0  0  0
  136.1260   80.9200  225.2320 C   0  0  0  0  0  0  0  0  0  0  0  0
  138.3500   81.0080  224.2050 C   0  0  0  0  0  0  0  0  0  0  0  0
  140.6720   80.6300  223.3560 C   0  0  0  0  0  0  0  0  0  0  0  0
  141.4710   81.4690  224.0920 C   0  0  0  0  0  0  0  0  0  0  0  0
  142.8450   81.2770  224.1270 C   0  0  0  0  0  0  0  0  0  0  0  0
  143.4510   80.2480  223.4300 C   0  0  0  0  0  0  0  0  0  0  0  0
  142.6610   79.4010  222.6890 C   0  0  0  0  0  0  0  0  0  0  0  0
  141.2860   79.5990  222.6590 C   0  0  0  0  0  0  0  0  0  0  0  0
  142.4710   76.8830  220.1500 N   0  0  0  0  0  0  0  0  0  0  0  0
  142.9080   75.6050  220.1340 C   0  0  0  0  0  0  0  0  0  0  0  0
  144.0740   74.9660  219.7820 C   0  0  0  0  0  0  0  0  0  0  0  0
  146.2910   72.2920  221.4190 H   0  0  0  0  0  0  0  0  0  0  0  0
  146.5490   71.1370  220.1020 H   0  0  0  0  0  0  0  0  0  0  0  0
  143.3327   71.7424  220.4095 H   0  0  0  0  0  0  0  0  0  0  0  0
  141.1894   72.8057  221.0687 H   0  0  0  0  0  0  0  0  0  0  0  0
  139.8345   75.3036  221.2807 H   0  0  0  0  0  0  0  0  0  0  0  0
  138.1476   78.8441  222.2210 H   0  0  0  0  0  0  0  0  0  0  0  0
  138.9881   78.3975  223.6633 H   0  0  0  0  0  0  0  0  0  0  0  0
  139.3513   82.2099  221.7090 H   0  0  0  0  0  0  0  0  0  0  0  0
  138.9446   80.7406  220.8974 H   0  0  0  0  0  0  0  0  0  0  0  0
  136.8722   82.3155  221.5804 H   0  0  0  0  0  0  0  0  0  0  0  0
  136.6483   80.6769  222.0894 H   0  0  0  0  0  0  0  0  0  0  0  0
  135.4189   82.1624  223.5160 H   0  0  0  0  0  0  0  0  0  0  0  0
  136.7325   84.1524  224.7294 H   0  0  0  0  0  0  0  0  0  0  0  0
  135.1608   83.6979  225.3402 H   0  0  0  0  0  0  0  0  0  0  0  0
  137.9323   82.9510  226.3375 H   0  0  0  0  0  0  0  0  0  0  0  0
  136.4887   83.3560  227.2951 H   0  0  0  0  0  0  0  0  0  0  0  0
  137.4130   80.9420  226.8760 H   0  0  0  0  0  0  0  0  0  0  0  0
  136.7941   80.1108  224.9021 H   0  0  0  0  0  0  0  0  0  0  0  0
  135.1064   80.5088  225.2678 H   0  0  0  0  0  0  0  0  0  0  0  0
  138.9524   81.4669  225.0028 H   0  0  0  0  0  0  0  0  0  0  0  0
  137.7854   80.1909  224.6779 H   0  0  0  0  0  0  0  0  0  0  0  0
  141.0199   82.2980  224.6571 H   0  0  0  0  0  0  0  0  0  0  0  0
  143.4672   81.9601  224.7238 H   0  0  0  0  0  0  0  0  0  0  0  0
  144.5417   80.1100  223.4675 H   0  0  0  0  0  0  0  0  0  0  0  0
  143.1141   78.5729  222.1242 H   0  0  0  0  0  0  0  0  0  0  0  0
  143.0760   77.6740  219.8430 H   0  0  0  0  0  0  0  0  0  0  0  0
  144.9105   75.5760  219.4102 H   0  0  0  0  0  0  0  0  0  0  0  0
  1  2  1  0
  2  3  2  0
  2  4  1  0
  4  5  2  0
  5  6  1  0
  6  7  2  0
  7  8  1  0
  8  9  2  0
  9 10  1  0
 10 11  2  0
 10 12  1  0
 12 13  1  0
 14 13  1  6
 14 15  1  0
 15 16  1  0
 16 17  1  0
 17 18  1  0
 18 19  1  0
 19 20  1  0
 20 21  1  0
 21 22  1  0
 17 23  1  0
 14 24  1  0
 24 25  2  0
 25 26  1  0
 26 27  2  0
 27 28  1  0
 28 29  2  0
  9 30  1  0
 30 31  1  0
 31 32  2  0
 32  4  1  0
 31  7  1  0
 29 12  1  0
 23 14  1  0
 29 24  1  0
 22 18  1  0
  1 33  1  0
  1 34  1  0
  5 35  1  0
  6 36  1  0
  8 37  1  0
 13 38  1  0
 13 39  1  0
 15 40  1  0
 15 41  1  0
 16 42  1  0
 16 43  1  0
 18 44  1  6
 19 45  1  0
 19 46  1  0
 20 47  1  0
 20 48  1  0
 21 49  1  0
 22 50  1  0
 22 51  1  0
 23 52  1  0
 23 53  1  0
 25 54  1  0
 26 55  1  0
 27 56  1  0
 28 57  1  0
 30 58  1  0
 32 59  1  0
M  END
>  <smiles>  (17) 
NC(=O)c1ccc2cc(C(=O)N3C[C@]4(CCN(C5CCNC5)C4)c4ccccc43)[nH]c2c1

>  <score_type>  (17) 
oracle

>  <origin>  (17) 
autodockgpu

>  <m_score__min__energy>  (17) 
-9.4000000000000004

>  <m_primary>  (17) 
energy

>  <rmsd>  (17) 
6.893564568306567

>  <m_score__min__rmsd>  (17) 
6.893564568306567

>  <meeko>  (17) 
{"free_energy": -9.19, "intermolecular_energy": -10.38, "internal_energy": -1.18, "cluster_size": 35, "cluster_id": 1, "rank_in_cluster": 18}

>  <energy>  (17) 
-9.21

>  <cluster_rmsd>  (17) 
0.92

>  <cluster>  (17) 
1

$$$$

     RDKit          3D

 59 64  0  0  1  0  0  0  0  0999 V2000
  146.3400   72.6420  221.2160 N   0  0  0  0  0  0  0  0  0  0  0  0
  145.4990   72.9590  220.1050 C   0  0  0  0  0  0  0  0  0  0  0  0
  145.8790   72.8360  218.9140 O   0  0  0  0  0  0  0  0  0  0  0  0
  144.1330   73.4500  220.3350 C   0  0  0  0  0  0  0  0  0  0  0  0
  143.1140   72.5310  220.4230 C   0  0  0  0  0  0  0  0  0  0  0  0
  141.8210   72.9550  220.6380 C   0  0  0  0  0  0  0  0  0  0  0  0
  141.5550   74.3060  220.7630 C   0  0  0  0  0  0  0  0  0  0  0  0
  140.3740   74.9850  220.9790 C   0  0  0  0  0  0  0  0  0  0  0  0
  140.6650   76.3480  221.0260 C   0  0  0  0  0  0  0  0  0  0  0  0
  139.7100   77.4020  221.2360 C   0  0  0  0  0  0  0  0  0  0  0  0
  138.7540   77.4880  220.3970 O   0  0  0  0  0  0  0  0  0  0  0  0
  139.7510   78.3330  222.2840 N   0  0  0  0  0  0  0  0  0  0  0  0
  138.6540   78.7060  223.1890 C   0  0  0  0  0  0  0  0  0  0  0  0
  138.8650   80.2060  223.2310 C   0  0  1  0  0  0  0  0  0  0  0  0
  138.2990   80.7580  221.9390 C   0  0  0  0  0  0  0  0  0  0  0  0
  136.8880   81.1250  222.4200 C   0  0  0  0  0  0  0  0  0  0  0  0
  137.2150   81.7850  223.6700 N   0  0  0  0  0  0  0  0  0  0  0  0
  136.0330   82.0520  224.4650 C   0  0  2  0  0  0  0  0  0  0  0  0
  136.2050   83.2700  225.3270 C   0  0  0  0  0  0  0  0  0  0  0  0
  136.9260   82.7180  226.5180 C   0  0  0  0  0  0  0  0  0  0  0  0
  136.4840   81.3690  226.6910 N   0  0  0  0  0  0  0  0  0  0  0  0
  135.9050   80.9000  225.4610 C   0  0  0  0  0  0  0  0  0  0  0  0
  138.1290   80.8880  224.3440 C   0  0  0  0  0  0  0  0  0  0  0  0
  140.3340   80.3020  223.3170 C   0  0  0  0  0  0  0  0  0  0  0  0
  141.2240   81.2220  223.8140 C   0  0  0  0  0  0  0  0  0  0  0  0
  142.5900   80.9930  223.7280 C   0  0  0  0  0  0  0  0  0  0  0  0
  143.0970   79.8460  223.1460 C   0  0  0  0  0  0  0  0  0  0  0  0
  142.2150   78.9170  222.6450 C   0  0  0  0  0  0  0  0  0  0  0  0
  140.8490   79.1530  222.7340 C   0  0  0  0  0  0  0  0  0  0  0  0
  142.0000   76.4770  220.8390 N   0  0  0  0  0  0  0  0  0  0  0  0
  142.5640   75.2600  220.6790 C   0  0  0  0  0  0  0  0  0  0  0  0
  143.8370   74.7830  220.4640 C   0  0  0  0  0  0  0  0  0  0  0  0
  146.4320   73.2400  222.0600 H   0  0  0  0  0  0  0  0  0  0  0  0
  146.9240   71.7570  221.2260 H   0  0  0  0  0  0  0  0  0  0  0  0
  143.3312   71.4574  220.3217 H   0  0  0  0  0  0  0  0  0  0  0  0
  141.0039   72.2220  220.7099 H   0  0  0  0  0  0  0  0  0  0  0  0
  139.3784   74.5315  221.0939 H   0  0  0  0  0  0  0  0  0  0  0  0
  137.6707   78.4412  222.7731 H   0  0  0  0  0  0  0  0  0  0  0  0
  138.6627   78.2040  224.1677 H   0  0  0  0  0  0  0  0  0  0  0  0
  138.8563   81.6398  221.5900 H   0  0  0  0  0  0  0  0  0  0  0  0
  138.3382   80.0731  221.0791 H   0  0  0  0  0  0  0  0  0  0  0  0
  136.3812   81.8048  221.7192 H   0  0  0  0  0  0  0  0  0  0  0  0
  136.1929   80.2773  222.5103 H   0  0  0  0  0  0  0  0  0  0  0  0
  135.1799   82.1802  223.7825 H   0  0  0  0  0  0  0  0  0  0  0  0
  136.8065   84.0372  224.8174 H   0  0  0  0  0  0  0  0  0  0  0  0
  135.2577   83.7698  225.5778 H   0  0  0  0  0  0  0  0  0  0  0  0
  138.0120   82.7396  226.3447 H   0  0  0  0  0  0  0  0  0  0  0  0
  136.7136   83.3171  227.4158 H   0  0  0  0  0  0  0  0  0  0  0  0
  137.3320   80.8110  226.9830 H   0  0  0  0  0  0  0  0  0  0  0  0
  136.4495   80.0170  225.0952 H   0  0  0  0  0  0  0  0  0  0  0  0
  134.8548   80.6034  225.5990 H   0  0  0  0  0  0  0  0  0  0  0  0
  138.8247   81.4495  224.9849 H   0  0  0  0  0  0  0  0  0  0  0  0
  137.6105   80.1765  225.0035 H   0  0  0  0  0  0  0  0  0  0  0  0
  140.8523   82.1452  224.2827 H   0  0  0  0  0  0  0  0  0  0  0  0
  143.2863   81.7423  224.1327 H   0  0  0  0  0  0  0  0  0  0  0  0
  144.1827   79.6799  223.0849 H   0  0  0  0  0  0  0  0  0  0  0  0
  142.5886   77.9941  222.1774 H   0  0  0  0  0  0  0  0  0  0  0  0
  142.5670   77.3520  220.8140 H   0  0  0  0  0  0  0  0  0  0  0  0
  144.6603   75.5090  220.3918 H   0  0  0  0  0  0  0  0  0  0  0  0
  1  2  1  0
  2  3  2  0
  2  4  1  0
  4  5  2  0
  5  6  1  0
  6  7  2  0
  7  8  1  0
  8  9  2  0
  9 10  1  0
 10 11  2  0
 10 12  1  0
 12 13  1  0
 14 13  1  6
 14 15  1  0
 15 16  1  0
 16 17  1  0
 17 18  1  0
 18 19  1  0
 19 20  1  0
 20 21  1  0
 21 22  1  0
 17 23  1  0
 14 24  1  0
 24 25  2  0
 25 26  1  0
 26 27  2  0
 27 28  1  0
 28 29  2  0
  9 30  1  0
 30 31  1  0
 31 32  2  0
 32  4  1  0
 31  7  1  0
 29 12  1  0
 23 14  1  0
 29 24  1  0
 22 18  1  0
  1 33  1  0
  1 34  1  0
  5 35  1  0
  6 36  1  0
  8 37  1  0
 13 38  1  0
 13 39  1  0
 15 40  1  0
 15 41  1  0
 16 42  1  0
 16 43  1  0
 18 44  1  6
 19 45  1  0
 19 46  1  0
 20 47  1  0
 20 48  1  0
 21 49  1  0
 22 50  1  0
 22 51  1  0
 23 52  1  0
 23 53  1  0
 25 54  1  0
 26 55  1  0
 27 56  1  0
 28 57  1  0
 30 58  1  0
 32 59  1  0
M  END
>  <smiles>  (18) 
NC(=O)c1ccc2cc(C(=O)N3C[C@]4(CCN(C5CCNC5)C4)c4ccccc43)[nH]c2c1

>  <score_type>  (18) 
oracle

>  <origin>  (18) 
autodockgpu

>  <m_score__min__energy>  (18) 
-9.4000000000000004

>  <m_primary>  (18) 
energy

>  <rmsd>  (18) 
6.633349508095689

>  <m_score__min__rmsd>  (18) 
6.633349508095689

>  <meeko>  (18) 
{"free_energy": -9.03, "intermolecular_energy": -10.22, "internal_energy": -1.1, "cluster_size": 35, "cluster_id": 1, "rank_in_cluster": 27}

>  <energy>  (18) 
-9.19

>  <cluster_rmsd>  (18) 
0.52

>  <cluster>  (18) 
1

$$$$

     RDKit          3D

 59 64  0  0  1  0  0  0  0  0999 V2000
  146.3100   72.6840  221.1080 N   0  0  0  0  0  0  0  0  0  0  0  0
  145.4200   72.8830  220.0070 C   0  0  0  0  0  0  0  0  0  0  0  0
  145.7440   72.6210  218.8220 O   0  0  0  0  0  0  0  0  0  0  0  0
  144.0700   73.4120  220.2410 C   0  0  0  0  0  0  0  0  0  0  0  0
  143.0180   72.5270  220.2820 C   0  0  0  0  0  0  0  0  0  0  0  0
  141.7380   72.9880  220.4990 C   0  0  0  0  0  0  0  0  0  0  0  0
  141.5180   74.3410  220.6740 C   0  0  0  0  0  0  0  0  0  0  0  0
  140.3590   75.0520  220.9030 C   0  0  0  0  0  0  0  0  0  0  0  0
  140.6970   76.4020  221.0060 C   0  0  0  0  0  0  0  0  0  0  0  0
  139.7760   77.4790  221.2470 C   0  0  0  0  0  0  0  0  0  0  0  0
  138.8330   77.6300  220.4020 O   0  0  0  0  0  0  0  0  0  0  0  0
  139.8370   78.3680  222.3300 N   0  0  0  0  0  0  0  0  0  0  0  0
  138.7830   78.6430  223.3190 C   0  0  0  0  0  0  0  0  0  0  0  0
  138.9180   80.1500  223.4130 C   0  0  1  0  0  0  0  0  0  0  0  0
  138.2420   80.7220  222.1840 C   0  0  0  0  0  0  0  0  0  0  0  0
  136.8480   80.9910  222.7700 C   0  0  0  0  0  0  0  0  0  0  0  0
  137.2210   81.6170  224.0240 N   0  0  0  0  0  0  0  0  0  0  0  0
  136.0820   81.7870  224.9030 C   0  0  2  0  0  0  0  0  0  0  0  0
  135.6240   83.2170  224.9520 C   0  0  0  0  0  0  0  0  0  0  0  0
  136.5460   83.8120  225.9710 C   0  0  0  0  0  0  0  0  0  0  0  0
  136.8550   82.7800  226.9130 N   0  0  0  0  0  0  0  0  0  0  0  0
  136.5750   81.5000  226.3210 C   0  0  0  0  0  0  0  0  0  0  0  0
  138.2230   80.7450  224.5990 C   0  0  0  0  0  0  0  0  0  0  0  0
  140.3830   80.3230  223.4100 C   0  0  0  0  0  0  0  0  0  0  0  0
  141.2540   81.2690  223.8900 C   0  0  0  0  0  0  0  0  0  0  0  0
  142.6220   81.1180  223.7080 C   0  0  0  0  0  0  0  0  0  0  0  0
  143.1490   80.0260  223.0450 C   0  0  0  0  0  0  0  0  0  0  0  0
  142.2860   79.0710  222.5600 C   0  0  0  0  0  0  0  0  0  0  0  0
  140.9180   79.2280  222.7460 C   0  0  0  0  0  0  0  0  0  0  0  0
  142.0370   76.4900  220.8400 N   0  0  0  0  0  0  0  0  0  0  0  0
  142.5610   75.2620  220.6380 C   0  0  0  0  0  0  0  0  0  0  0  0
  143.8180   74.7490  220.4180 C   0  0  0  0  0  0  0  0  0  0  0  0
  146.4440   73.3720  221.8730 H   0  0  0  0  0  0  0  0  0  0  0  0
  146.8880   71.7990  221.1920 H   0  0  0  0  0  0  0  0  0  0  0  0
  143.1986   71.4511  220.1415 H   0  0  0  0  0  0  0  0  0  0  0  0
  140.8949   72.2823  220.5328 H   0  0  0  0  0  0  0  0  0  0  0  0
  139.3469   74.6297  220.9892 H   0  0  0  0  0  0  0  0  0  0  0  0
  137.7897   78.3416  222.9551 H   0  0  0  0  0  0  0  0  0  0  0  0
  138.8819   78.1029  224.2722 H   0  0  0  0  0  0  0  0  0  0  0  0
  138.7287   81.6464  221.8397 H   0  0  0  0  0  0  0  0  0  0  0  0
  138.2611   80.0764  221.2936 H   0  0  0  0  0  0  0  0  0  0  0  0
  136.2611   81.6694  222.1333 H   0  0  0  0  0  0  0  0  0  0  0  0
  136.2061   80.1030  222.8673 H   0  0  0  0  0  0  0  0  0  0  0  0
  135.2712   81.1347  224.5463 H   0  0  0  0  0  0  0  0  0  0  0  0
  135.7415   83.7068  223.9741 H   0  0  0  0  0  0  0  0  0  0  0  0
  134.5588   83.3303  225.2020 H   0  0  0  0  0  0  0  0  0  0  0  0
  137.4667   84.1671  225.4850 H   0  0  0  0  0  0  0  0  0  0  0  0
  136.0743   84.6704  226.4716 H   0  0  0  0  0  0  0  0  0  0  0  0
  137.8740   82.9000  227.1650 H   0  0  0  0  0  0  0  0  0  0  0  0
  137.4870   80.8857  226.2910 H   0  0  0  0  0  0  0  0  0  0  0  0
  135.8246   80.9441  226.9023 H   0  0  0  0  0  0  0  0  0  0  0  0
  138.9293   81.3176  225.2181 H   0  0  0  0  0  0  0  0  0  0  0  0
  137.7870   79.9804  225.2588 H   0  0  0  0  0  0  0  0  0  0  0  0
  140.8664   82.1507  224.4213 H   0  0  0  0  0  0  0  0  0  0  0  0
  143.3034   81.8867  224.1013 H   0  0  0  0  0  0  0  0  0  0  0  0
  144.2355   79.9227  222.9080 H   0  0  0  0  0  0  0  0  0  0  0  0
  142.6758   78.1900  222.0291 H   0  0  0  0  0  0  0  0  0  0  0  0
  142.6340   77.3450  220.8550 H   0  0  0  0  0  0  0  0  0  0  0  0
  144.6666   75.4480  220.3820 H   0  0  0  0  0  0  0  0  0  0  0  0
  1  2  1  0
  2  3  2  0
  2  4  1  0
  4  5  2  0
  5  6  1  0
  6  7  2  0
  7  8  1  0
  8  9  2  0
  9 10  1  0
 10 11  2  0
 10 12  1  0
 12 13  1  0
 14 13  1  1
 14 15  1  0
 15 16  1  0
 16 17  1  0
 17 18  1  0
 18 19  1  0
 19 20  1  0
 20 21  1  0
 21 22  1  0
 17 23  1  0
 14 24  1  0
 24 25  2  0
 25 26  1  0
 26 27  2  0
 27 28  1  0
 28 29  2  0
  9 30  1  0
 30 31  1  0
 31 32  2  0
 32  4  1  0
 31  7  1  0
 29 12  1  0
 23 14  1  0
 29 24  1  0
 22 18  1  0
  1 33  1  0
  1 34  1  0
  5 35  1  0
  6 36  1  0
  8 37  1  0
 13 38  1  0
 13 39  1  0
 15 40  1  0
 15 41  1  0
 16 42  1  0
 16 43  1  0
 18 44  1  6
 19 45  1  0
 19 46  1  0
 20 47  1  0
 20 48  1  0
 21 49  1  0
 22 50  1  0
 22 51  1  0
 23 52  1  0
 23 53  1  0
 25 54  1  0
 26 55  1  0
 27 56  1  0
 28 57  1  0
 30 58  1  0
 32 59  1  0
M  END
>  <smiles>  (19) 
NC(=O)c1ccc2cc(C(=O)N3C[C@]4(CCN(C5CCNC5)C4)c4ccccc43)[nH]c2c1

>  <score_type>  (19) 
oracle

>  <origin>  (19) 
autodockgpu

>  <m_score__min__energy>  (19) 
-9.4000000000000004

>  <m_primary>  (19) 
energy

>  <rmsd>  (19) 
6.632052628969857

>  <m_score__min__rmsd>  (19) 
6.632052628969857

>  <meeko>  (19) 
{"free_energy": -9.11, "intermolecular_energy": -10.31, "internal_energy": -1.2, "cluster_size": 35, "cluster_id": 1, "rank_in_cluster": 22}

>  <energy>  (19) 
-9.15

>  <cluster_rmsd>  (19) 
0.97

>  <cluster>  (19) 
1

$$$$

     RDKit          3D

 59 64  0  0  1  0  0  0  0  0999 V2000
  145.9130   72.8870  220.9010 N   0  0  0  0  0  0  0  0  0  0  0  0
  145.4380   73.1710  219.5830 C   0  0  0  0  0  0  0  0  0  0  0  0
  145.9460   72.6520  218.5570 O   0  0  0  0  0  0  0  0  0  0  0  0
  144.3160   74.0990  219.3900 C   0  0  0  0  0  0  0  0  0  0  0  0
  143.9130   74.3800  218.1050 C   0  0  0  0  0  0  0  0  0  0  0  0
  142.8640   75.2460  217.8870 C   0  0  0  0  0  0  0  0  0  0  0  0
  142.2210   75.8280  218.9630 C   0  0  0  0  0  0  0  0  0  0  0  0
  141.1630   76.7120  219.0220 C   0  0  0  0  0  0  0  0  0  0  0  0
  140.9050   76.9820  220.3660 C   0  0  0  0  0  0  0  0  0  0  0  0
  139.8770   77.8560  220.8620 C   0  0  0  0  0  0  0  0  0  0  0  0
  138.8300   77.9770  220.1440 O   0  0  0  0  0  0  0  0  0  0  0  0
  139.9380   78.5770  222.0630 N   0  0  0  0  0  0  0  0  0  0  0  0
  138.8780   78.7220  223.0720 C   0  0  0  0  0  0  0  0  0  0  0  0
  139.0310   80.1960  223.3850 C   0  0  1  0  0  0  0  0  0  0  0  0
  138.3750   80.9500  222.2470 C   0  0  0  0  0  0  0  0  0  0  0  0
  136.9790   81.1520  222.8530 C   0  0  0  0  0  0  0  0  0  0  0  0
  137.3470   81.5840  224.1890 N   0  0  0  0  0  0  0  0  0  0  0  0
  136.2010   81.6410  225.0730 C   0  0  2  0  0  0  0  0  0  0  0  0
  135.5760   83.0070  225.0880 C   0  0  0  0  0  0  0  0  0  0  0  0
  136.4270   83.7360  226.0810 C   0  0  0  0  0  0  0  0  0  0  0  0
  136.8630   82.7760  227.0480 N   0  0  0  0  0  0  0  0  0  0  0  0
  136.7340   81.4550  226.4940 C   0  0  0  0  0  0  0  0  0  0  0  0
  138.3310   80.6240  224.6390 C   0  0  0  0  0  0  0  0  0  0  0  0
  140.4980   80.3470  223.4190 C   0  0  0  0  0  0  0  0  0  0  0  0
  141.3770   81.2010  224.0380 C   0  0  0  0  0  0  0  0  0  0  0  0
  142.7440   81.0590  223.8470 C   0  0  0  0  0  0  0  0  0  0  0  0
  143.2640   80.0670  223.0380 C   0  0  0  0  0  0  0  0  0  0  0  0
  142.3930   79.2050  222.4120 C   0  0  0  0  0  0  0  0  0  0  0  0
  141.0250   79.3530  222.6080 C   0  0  0  0  0  0  0  0  0  0  0  0
  141.7970   76.2700  221.0940 N   0  0  0  0  0  0  0  0  0  0  0  0
  142.6040   75.5630  220.2740 C   0  0  0  0  0  0  0  0  0  0  0  0
  143.6570   74.6920  220.4370 C   0  0  0  0  0  0  0  0  0  0  0  0
  146.0650   73.6130  221.6270 H   0  0  0  0  0  0  0  0  0  0  0  0
  146.1370   71.8950  221.2010 H   0  0  0  0  0  0  0  0  0  0  0  0
  144.4280   73.9135  217.2522 H   0  0  0  0  0  0  0  0  0  0  0  0
  142.5396   75.4733  216.8608 H   0  0  0  0  0  0  0  0  0  0  0  0
  140.6195   77.1297  218.1617 H   0  0  0  0  0  0  0  0  0  0  0  0
  137.8847   78.4910  222.6598 H   0  0  0  0  0  0  0  0  0  0  0  0
  138.9603   78.0485  223.9378 H   0  0  0  0  0  0  0  0  0  0  0  0
  138.8776   81.9073  222.0447 H   0  0  0  0  0  0  0  0  0  0  0  0
  138.3945   80.4396  221.2727 H   0  0  0  0  0  0  0  0  0  0  0  0
  136.4084   81.9244  222.3164 H   0  0  0  0  0  0  0  0  0  0  0  0
  136.3240   80.2691  222.8145 H   0  0  0  0  0  0  0  0  0  0  0  0
  135.4718   80.8871  224.7415 H   0  0  0  0  0  0  0  0  0  0  0  0
  135.6276   83.4797  224.0961 H   0  0  0  0  0  0  0  0  0  0  0  0
  134.5066   82.9994  225.3457 H   0  0  0  0  0  0  0  0  0  0  0  0
  137.2956   84.1841  225.5763 H   0  0  0  0  0  0  0  0  0  0  0  0
  135.8594   84.5459  226.5624 H   0  0  0  0  0  0  0  0  0  0  0  0
  137.8620   83.0230  227.2870 H   0  0  0  0  0  0  0  0  0  0  0  0
  137.7126   80.9531  226.4720 H   0  0  0  0  0  0  0  0  0  0  0  0
  136.0591   80.8303  227.0976 H   0  0  0  0  0  0  0  0  0  0  0  0
  139.0384   81.0906  225.3403 H   0  0  0  0  0  0  0  0  0  0  0  0
  137.8778   79.7783  225.1770 H   0  0  0  0  0  0  0  0  0  0  0  0
  140.9956   82.0018  224.6886 H   0  0  0  0  0  0  0  0  0  0  0  0
  143.4310   81.7537  224.3524 H   0  0  0  0  0  0  0  0  0  0  0  0
  144.3505   79.9684  222.8974 H   0  0  0  0  0  0  0  0  0  0  0  0
  142.7764   78.4051  221.7616 H   0  0  0  0  0  0  0  0  0  0  0  0
  141.8970   76.2300  222.1320 H   0  0  0  0  0  0  0  0  0  0  0  0
  143.9875   74.4592  221.4600 H   0  0  0  0  0  0  0  0  0  0  0  0
  1  2  1  0
  2  3  2  0
  2  4  1  0
  4  5  2  0
  5  6  1  0
  6  7  2  0
  7  8  1  0
  8  9  2  0
  9 10  1  0
 10 11  2  0
 10 12  1  0
 12 13  1  0
 14 13  1  6
 14 15  1  0
 15 16  1  0
 16 17  1  0
 17 18  1  0
 18 19  1  0
 19 20  1  0
 20 21  1  0
 21 22  1  0
 17 23  1  0
 14 24  1  0
 24 25  2  0
 25 26  1  0
 26 27  2  0
 27 28  1  0
 28 29  2  0
  9 30  1  0
 30 31  1  0
 31 32  2  0
 32  4  1  0
 31  7  1  0
 29 12  1  0
 23 14  1  0
 29 24  1  0
 22 18  1  0
  1 33  1  0
  1 34  1  0
  5 35  1  0
  6 36  1  0
  8 37  1  0
 13 38  1  0
 13 39  1  0
 15 40  1  0
 15 41  1  0
 16 42  1  0
 16 43  1  0
 18 44  1  6
 19 45  1  0
 19 46  1  0
 20 47  1  0
 20 48  1  0
 21 49  1  0
 22 50  1  0
 22 51  1  0
 23 52  1  0
 23 53  1  0
 25 54  1  0
 26 55  1  0
 27 56  1  0
 28 57  1  0
 30 58  1  0
 32 59  1  0
M  END
>  <smiles>  (20) 
NC(=O)c1ccc2cc(C(=O)N3C[C@]4(CCN(C5CCNC5)C4)c4ccccc43)[nH]c2c1

>  <score_type>  (20) 
oracle

>  <origin>  (20) 
autodockgpu

>  <m_score__min__energy>  (20) 
-9.4000000000000004

>  <m_primary>  (20) 
energy

>  <rmsd>  (20) 
7.182616893781079

>  <m_score__min__rmsd>  (20) 
7.182616893781079

>  <meeko>  (20) 
{"free_energy": -9.26, "intermolecular_energy": -10.45, "internal_energy": -1.23, "cluster_size": 35, "cluster_id": 1, "rank_in_cluster": 11}

>  <energy>  (20) 
-9.15

>  <cluster_rmsd>  (20) 
0.94

>  <cluster>  (20) 
1

$$$$

     RDKit          3D

 59 64  0  0  1  0  0  0  0  0999 V2000
  146.6620   73.0010  221.6430 N   0  0  0  0  0  0  0  0  0  0  0  0
  145.8730   73.0470  220.4520 C   0  0  0  0  0  0  0  0  0  0  0  0
  146.3090   72.6600  219.3390 O   0  0  0  0  0  0  0  0  0  0  0  0
  144.4970   73.5600  220.5010 C   0  0  0  0  0  0  0  0  0  0  0  0
  143.4720   72.6640  220.7020 C   0  0  0  0  0  0  0  0  0  0  0  0
  142.1690   73.1100  220.7540 C   0  0  0  0  0  0  0  0  0  0  0  0
  141.9000   74.4570  220.6030 C   0  0  0  0  0  0  0  0  0  0  0  0
  140.7100   75.1540  220.6140 C   0  0  0  0  0  0  0  0  0  0  0  0
  141.0010   76.5040  220.4170 C   0  0  0  0  0  0  0  0  0  0  0  0
  140.0370   77.5690  220.3650 C   0  0  0  0  0  0  0  0  0  0  0  0
  138.8160   77.2340  220.2230 O   0  0  0  0  0  0  0  0  0  0  0  0
  140.3380   78.9360  220.4590 N   0  0  0  0  0  0  0  0  0  0  0  0
  140.1590   79.9620  219.4200 C   0  0  0  0  0  0  0  0  0  0  0  0
  141.4560   80.7250  219.5970 C   0  0  1  0  0  0  0  0  0  0  0  0
  142.5370   79.9010  218.9280 C   0  0  0  0  0  0  0  0  0  0  0  0
  142.5420   80.5710  217.5470 C   0  0  0  0  0  0  0  0  0  0  0  0
  142.5250   81.9660  217.9460 N   0  0  0  0  0  0  0  0  0  0  0  0
  142.3030   82.8470  216.8180 C   0  0  2  0  0  0  0  0  0  0  0  0
  143.5960   83.2900  216.1940 C   0  0  0  0  0  0  0  0  0  0  0  0
  143.9920   84.4420  217.0650 C   0  0  0  0  0  0  0  0  0  0  0  0
  142.7860   85.0610  217.5200 N   0  0  0  0  0  0  0  0  0  0  0  0
  141.6960   84.1340  217.3790 C   0  0  0  0  0  0  0  0  0  0  0  0
  141.4650   82.0640  218.9270 C   0  0  0  0  0  0  0  0  0  0  0  0
  141.5800   80.7730  221.0660 C   0  0  0  0  0  0  0  0  0  0  0  0
  142.1870   81.6120  221.9670 C   0  0  0  0  0  0  0  0  0  0  0  0
  142.1060   81.3560  223.3280 C   0  0  0  0  0  0  0  0  0  0  0  0
  141.4200   80.2610  223.8200 C   0  0  0  0  0  0  0  0  0  0  0  0
  140.8070   79.4130  222.9270 C   0  0  0  0  0  0  0  0  0  0  0  0
  140.8930   79.6750  221.5660 C   0  0  0  0  0  0  0  0  0  0  0  0
  142.3450   76.6070  220.2910 N   0  0  0  0  0  0  0  0  0  0  0  0
  142.9150   75.3870  220.3990 C   0  0  0  0  0  0  0  0  0  0  0  0
  144.1970   74.8900  220.3560 C   0  0  0  0  0  0  0  0  0  0  0  0
  146.7120   73.7760  222.3320 H   0  0  0  0  0  0  0  0  0  0  0  0
  147.2470   72.1490  221.8810 H   0  0  0  0  0  0  0  0  0  0  0  0
  143.6925   71.5929  220.8210 H   0  0  0  0  0  0  0  0  0  0  0  0
  141.3470   72.3970  220.9150 H   0  0  0  0  0  0  0  0  0  0  0  0
  139.7082   74.7217  220.7535 H   0  0  0  0  0  0  0  0  0  0  0  0
  140.0767   79.5197  218.4162 H   0  0  0  0  0  0  0  0  0  0  0  0
  139.2441   80.5659  219.5106 H   0  0  0  0  0  0  0  0  0  0  0  0
  143.5063   80.0030  219.4379 H   0  0  0  0  0  0  0  0  0  0  0  0
  142.3640   78.8147  218.9225 H   0  0  0  0  0  0  0  0  0  0  0  0
  143.4475   80.3207  216.9747 H   0  0  0  0  0  0  0  0  0  0  0  0
  141.7201   80.2686  216.8814 H   0  0  0  0  0  0  0  0  0  0  0  0
  141.6816   82.3152  216.0825 H   0  0  0  0  0  0  0  0  0  0  0  0
  144.3490   82.4888  216.2263 H   0  0  0  0  0  0  0  0  0  0  0  0
  143.5043   83.5533  215.1299 H   0  0  0  0  0  0  0  0  0  0  0  0
  144.5780   84.0817  217.9234 H   0  0  0  0  0  0  0  0  0  0  0  0
  144.6127   85.1585  216.5071 H   0  0  0  0  0  0  0  0  0  0  0  0
  142.9540   85.3440  218.5240 H   0  0  0  0  0  0  0  0  0  0  0  0
  141.2297   83.9416  218.3565 H   0  0  0  0  0  0  0  0  0  0  0  0
  140.9138   84.5316  216.7156 H   0  0  0  0  0  0  0  0  0  0  0  0
  141.6789   82.8618  219.6535 H   0  0  0  0  0  0  0  0  0  0  0  0
  140.4944   82.3135  218.4735 H   0  0  0  0  0  0  0  0  0  0  0  0
  142.7406   82.4921  221.6079 H   0  0  0  0  0  0  0  0  0  0  0  0
  142.5997   82.0410  224.0331 H   0  0  0  0  0  0  0  0  0  0  0  0
  141.3656   80.0720  224.9023 H   0  0  0  0  0  0  0  0  0  0  0  0
  140.2529   78.5341  223.2883 H   0  0  0  0  0  0  0  0  0  0  0  0
  142.9140   77.4670  220.1330 H   0  0  0  0  0  0  0  0  0  0  0  0
  145.0249   75.5967  220.1969 H   0  0  0  0  0  0  0  0  0  0  0  0
  1  2  1  0
  2  3  2  0
  2  4  1  0
  4  5  2  0
  5  6  1  0
  6  7  2  0
  7  8  1  0
  8  9  2  0
  9 10  1  0
 10 11  2  0
 10 12  1  0
 12 13  1  0
 14 13  1  1
 14 15  1  0
 15 16  1  0
 16 17  1  0
 17 18  1  0
 18 19  1  0
 19 20  1  0
 20 21  1  0
 21 22  1  0
 17 23  1  0
 14 24  1  0
 24 25  2  0
 25 26  1  0
 26 27  2  0
 27 28  1  0
 28 29  2  0
  9 30  1  0
 30 31  1  0
 31 32  2  0
 32  4  1  0
 31  7  1  0
 29 12  1  0
 23 14  1  0
 29 24  1  0
 22 18  1  0
  1 33  1  0
  1 34  1  0
  5 35  1  0
  6 36  1  0
  8 37  1  0
 13 38  1  0
 13 39  1  0
 15 40  1  0
 15 41  1  0
 16 42  1  0
 16 43  1  0
 18 44  1  6
 19 45  1  0
 19 46  1  0
 20 47  1  0
 20 48  1  0
 21 49  1  0
 22 50  1  0
 22 51  1  0
 23 52  1  0
 23 53  1  0
 25 54  1  0
 26 55  1  0
 27 56  1  0
 28 57  1  0
 30 58  1  0
 32 59  1  0
M  END
>  <smiles>  (21) 
NC(=O)c1ccc2cc(C(=O)N3C[C@]4(CCN(C5CCNC5)C4)c4ccccc43)[nH]c2c1

>  <score_type>  (21) 
oracle

>  <origin>  (21) 
autodockgpu

>  <m_score__min__energy>  (21) 
-9.4000000000000004

>  <m_primary>  (21) 
energy

>  <rmsd>  (21) 
6.487476564028739

>  <m_score__min__rmsd>  (21) 
6.487476564028739

>  <meeko>  (21) 
{"free_energy": -8.22, "intermolecular_energy": -9.41, "internal_energy": -1.32, "cluster_size": 4, "cluster_id": 2, "rank_in_cluster": 4}

>  <energy>  (21) 
-9.13

>  <cluster_rmsd>  (21) 
0.95

>  <cluster>  (21) 
1

$$$$

     RDKit          3D

 59 64  0  0  1  0  0  0  0  0999 V2000
  146.1110   73.0140  220.8920 N   0  0  0  0  0  0  0  0  0  0  0  0
  145.5280   73.1910  219.5990 C   0  0  0  0  0  0  0  0  0  0  0  0
  145.9320   72.5680  218.5860 O   0  0  0  0  0  0  0  0  0  0  0  0
  144.4120   74.1300  219.4180 C   0  0  0  0  0  0  0  0  0  0  0  0
  144.0860   74.5190  218.1400 C   0  0  0  0  0  0  0  0  0  0  0  0
  143.0450   75.3980  217.9320 C   0  0  0  0  0  0  0  0  0  0  0  0
  142.3350   75.8860  219.0130 C   0  0  0  0  0  0  0  0  0  0  0  0
  141.2690   76.7590  219.0830 C   0  0  0  0  0  0  0  0  0  0  0  0
  140.9300   76.9150  220.4270 C   0  0  0  0  0  0  0  0  0  0  0  0
  139.8680   77.7410  220.9320 C   0  0  0  0  0  0  0  0  0  0  0  0
  138.7810   77.7530  220.2650 O   0  0  0  0  0  0  0  0  0  0  0  0
  139.9370   78.5270  222.0910 N   0  0  0  0  0  0  0  0  0  0  0  0
  138.8880   78.7160  223.1050 C   0  0  0  0  0  0  0  0  0  0  0  0
  139.0290   80.2070  223.3350 C   0  0  1  0  0  0  0  0  0  0  0  0
  138.3500   80.8910  222.1660 C   0  0  0  0  0  0  0  0  0  0  0  0
  136.9600   81.1120  222.7790 C   0  0  0  0  0  0  0  0  0  0  0  0
  137.3410   81.6200  224.0840 N   0  0  0  0  0  0  0  0  0  0  0  0
  136.2050   81.7140  224.9780 C   0  0  2  0  0  0  0  0  0  0  0  0
  135.6440   83.1060  225.0230 C   0  0  0  0  0  0  0  0  0  0  0  0
  136.5340   83.7780  226.0210 C   0  0  0  0  0  0  0  0  0  0  0  0
  136.9330   82.7820  226.9670 N   0  0  0  0  0  0  0  0  0  0  0  0
  136.7400   81.4780  226.3920 C   0  0  0  0  0  0  0  0  0  0  0  0
  138.3400   80.6950  224.5720 C   0  0  0  0  0  0  0  0  0  0  0  0
  140.4940   80.3740  223.3410 C   0  0  0  0  0  0  0  0  0  0  0  0
  141.3720   81.2700  223.9010 C   0  0  0  0  0  0  0  0  0  0  0  0
  142.7380   81.1310  223.7010 C   0  0  0  0  0  0  0  0  0  0  0  0
  143.2580   80.1010  222.9400 C   0  0  0  0  0  0  0  0  0  0  0  0
  142.3890   79.1980  222.3740 C   0  0  0  0  0  0  0  0  0  0  0  0
  141.0220   79.3420  222.5780 C   0  0  0  0  0  0  0  0  0  0  0  0
  141.7820   76.1450  221.1450 N   0  0  0  0  0  0  0  0  0  0  0  0
  142.6410   75.5110  220.3180 C   0  0  0  0  0  0  0  0  0  0  0  0
  143.6880   74.6320  220.4690 C   0  0  0  0  0  0  0  0  0  0  0  0
  146.3420   73.7970  221.5320 H   0  0  0  0  0  0  0  0  0  0  0  0
  146.3390   72.0470  221.2620 H   0  0  0  0  0  0  0  0  0  0  0  0
  144.6559   74.1287  217.2839 H   0  0  0  0  0  0  0  0  0  0  0  0
  142.7805   75.7097  216.9108 H   0  0  0  0  0  0  0  0  0  0  0  0
  140.7740   77.2459  218.2298 H   0  0  0  0  0  0  0  0  0  0  0  0
  137.8921   78.4526  222.7193 H   0  0  0  0  0  0  0  0  0  0  0  0
  138.9886   78.0916  224.0050 H   0  0  0  0  0  0  0  0  0  0  0  0
  138.8396   81.8407  221.9047 H   0  0  0  0  0  0  0  0  0  0  0  0
  138.3623   80.3282  221.2210 H   0  0  0  0  0  0  0  0  0  0  0  0
  136.3743   81.8482  222.2089 H   0  0  0  0  0  0  0  0  0  0  0  0
  136.3139   80.2220  222.7977 H   0  0  0  0  0  0  0  0  0  0  0  0
  135.4393   81.0009  224.6386 H   0  0  0  0  0  0  0  0  0  0  0  0
  135.7096   83.5937  224.0392 H   0  0  0  0  0  0  0  0  0  0  0  0
  134.5775   83.1420  225.2901 H   0  0  0  0  0  0  0  0  0  0  0  0
  137.4182   84.1954  225.5171 H   0  0  0  0  0  0  0  0  0  0  0  0
  136.0074   84.6042  226.5211 H   0  0  0  0  0  0  0  0  0  0  0  0
  137.9450   82.9790  227.2020 H   0  0  0  0  0  0  0  0  0  0  0  0
  137.6945   80.9326  226.3532 H   0  0  0  0  0  0  0  0  0  0  0  0
  136.0424   80.8736  226.9904 H   0  0  0  0  0  0  0  0  0  0  0  0
  139.0510   81.2053  225.2384 H   0  0  0  0  0  0  0  0  0  0  0  0
  137.9017   79.8751  225.1599 H   0  0  0  0  0  0  0  0  0  0  0  0
  140.9901   82.1019  224.5111 H   0  0  0  0  0  0  0  0  0  0  0  0
  143.4240   81.8585  224.1594 H   0  0  0  0  0  0  0  0  0  0  0  0
  144.3436   80.0057  222.7904 H   0  0  0  0  0  0  0  0  0  0  0  0
  142.7734   78.3673  221.7639 H   0  0  0  0  0  0  0  0  0  0  0  0
  141.8200   76.0170  222.1790 H   0  0  0  0  0  0  0  0  0  0  0  0
  143.9591   74.3148  221.4868 H   0  0  0  0  0  0  0  0  0  0  0  0
  1  2  1  0
  2  3  2  0
  2  4  1  0
  4  5  2  0
  5  6  1  0
  6  7  2  0
  7  8  1  0
  8  9  2  0
  9 10  1  0
 10 11  2  0
 10 12  1  0
 12 13  1  0
 14 13  1  6
 14 15  1  0
 15 16  1  0
 16 17  1  0
 17 18  1  0
 18 19  1  0
 19 20  1  0
 20 21  1  0
 21 22  1  0
 17 23  1  0
 14 24  1  0
 24 25  2  0
 25 26  1  0
 26 27  2  0
 27 28  1  0
 28 29  2  0
  9 30  1  0
 30 31  1  0
 31 32  2  0
 32  4  1  0
 31  7  1  0
 29 12  1  0
 23 14  1  0
 29 24  1  0
 22 18  1  0
  1 33  1  0
  1 34  1  0
  5 35  1  0
  6 36  1  0
  8 37  1  0
 13 38  1  0
 13 39  1  0
 15 40  1  0
 15 41  1  0
 16 42  1  0
 16 43  1  0
 18 44  1  6
 19 45  1  0
 19 46  1  0
 20 47  1  0
 20 48  1  0
 21 49  1  0
 22 50  1  0
 22 51  1  0
 23 52  1  0
 23 53  1  0
 25 54  1  0
 26 55  1  0
 27 56  1  0
 28 57  1  0
 30 58  1  0
 32 59  1  0
M  END
>  <smiles>  (22) 
NC(=O)c1ccc2cc(C(=O)N3C[C@]4(CCN(C5CCNC5)C4)c4ccccc43)[nH]c2c1

>  <score_type>  (22) 
oracle

>  <origin>  (22) 
autodockgpu

>  <m_score__min__energy>  (22) 
-9.4000000000000004

>  <m_primary>  (22) 
energy

>  <rmsd>  (22) 
7.185068568941343

>  <m_score__min__rmsd>  (22) 
7.185068568941343

>  <meeko>  (22) 
{"free_energy": -9.29, "intermolecular_energy": -10.48, "internal_energy": -1.25, "cluster_size": 35, "cluster_id": 1, "rank_in_cluster": 10}

>  <energy>  (22) 
-9.11

>  <cluster_rmsd>  (22) 
0.55

>  <cluster>  (22) 
1

$$$$

     RDKit          3D

 59 64  0  0  1  0  0  0  0  0999 V2000
  145.8050   72.6340  220.8580 N   0  0  0  0  0  0  0  0  0  0  0  0
  145.5630   73.2390  219.5860 C   0  0  0  0  0  0  0  0  0  0  0  0
  146.2990   73.0320  218.5890 O   0  0  0  0  0  0  0  0  0  0  0  0
  144.4160   74.1410  219.4070 C   0  0  0  0  0  0  0  0  0  0  0  0
  144.0470   74.4830  218.1270 C   0  0  0  0  0  0  0  0  0  0  0  0
  142.9770   75.3270  217.9220 C   0  0  0  0  0  0  0  0  0  0  0  0
  142.2800   75.8250  219.0060 C   0  0  0  0  0  0  0  0  0  0  0  0
  141.1920   76.6690  219.0790 C   0  0  0  0  0  0  0  0  0  0  0  0
  140.8810   76.8540  220.4270 C   0  0  0  0  0  0  0  0  0  0  0  0
  139.8080   77.6640  220.9350 C   0  0  0  0  0  0  0  0  0  0  0  0
  138.7220   77.6660  220.2670 O   0  0  0  0  0  0  0  0  0  0  0  0
  139.8660   78.4450  222.0980 N   0  0  0  0  0  0  0  0  0  0  0  0
  138.8120   78.6200  223.1090 C   0  0  0  0  0  0  0  0  0  0  0  0
  138.9410   80.1110  223.3470 C   0  0  1  0  0  0  0  0  0  0  0  0
  138.2610   80.7960  222.1790 C   0  0  0  0  0  0  0  0  0  0  0  0
  136.8670   81.0020  222.7880 C   0  0  0  0  0  0  0  0  0  0  0  0
  137.2380   81.5060  224.0970 N   0  0  0  0  0  0  0  0  0  0  0  0
  136.0980   81.5870  224.9870 C   0  0  2  0  0  0  0  0  0  0  0  0
  135.4490   82.9410  224.9420 C   0  0  0  0  0  0  0  0  0  0  0  0
  136.2950   83.7320  225.8900 C   0  0  0  0  0  0  0  0  0  0  0  0
  136.7560   82.8280  226.8990 N   0  0  0  0  0  0  0  0  0  0  0  0
  136.6460   81.4800  226.4110 C   0  0  0  0  0  0  0  0  0  0  0  0
  138.2430   80.5870  224.5840 C   0  0  0  0  0  0  0  0  0  0  0  0
  140.4040   80.2900  223.3600 C   0  0  0  0  0  0  0  0  0  0  0  0
  141.2720   81.1890  223.9280 C   0  0  0  0  0  0  0  0  0  0  0  0
  142.6400   81.0630  223.7320 C   0  0  0  0  0  0  0  0  0  0  0  0
  143.1720   80.0410  222.9680 C   0  0  0  0  0  0  0  0  0  0  0  0
  142.3120   79.1330  222.3940 C   0  0  0  0  0  0  0  0  0  0  0  0
  140.9440   79.2660  222.5940 C   0  0  0  0  0  0  0  0  0  0  0  0
  141.7720   76.1290  221.1440 N   0  0  0  0  0  0  0  0  0  0  0  0
  142.6290   75.4960  220.3130 C   0  0  0  0  0  0  0  0  0  0  0  0
  143.7040   74.6520  220.4620 C   0  0  0  0  0  0  0  0  0  0  0  0
  145.7510   73.1450  221.7590 H   0  0  0  0  0  0  0  0  0  0  0  0
  146.0570   71.6070  220.9370 H   0  0  0  0  0  0  0  0  0  0  0  0
  144.6054   74.0833  217.2677 H   0  0  0  0  0  0  0  0  0  0  0  0
  142.6792   75.6030  216.8997 H   0  0  0  0  0  0  0  0  0  0  0  0
  140.6626   77.1174  218.2254 H   0  0  0  0  0  0  0  0  0  0  0  0
  137.8195   78.3509  222.7183 H   0  0  0  0  0  0  0  0  0  0  0  0
  138.9139   77.9916  224.0060 H   0  0  0  0  0  0  0  0  0  0  0  0
  138.7438   81.7512  221.9250 H   0  0  0  0  0  0  0  0  0  0  0  0
  138.2817   80.2387  221.2308 H   0  0  0  0  0  0  0  0  0  0  0  0
  136.2773   81.7363  222.2196 H   0  0  0  0  0  0  0  0  0  0  0  0
  136.2286   80.1063  222.7994 H   0  0  0  0  0  0  0  0  0  0  0  0
  135.3795   80.8058  224.6982 H   0  0  0  0  0  0  0  0  0  0  0  0
  135.4835   83.3658  223.9279 H   0  0  0  0  0  0  0  0  0  0  0  0
  134.3823   82.9272  225.2101 H   0  0  0  0  0  0  0  0  0  0  0  0
  137.1513   84.1696  225.3560 H   0  0  0  0  0  0  0  0  0  0  0  0
  135.7172   84.5547  226.3365 H   0  0  0  0  0  0  0  0  0  0  0  0
  137.7530   83.1050  227.1160 H   0  0  0  0  0  0  0  0  0  0  0  0
  137.6331   80.9947  226.4046 H   0  0  0  0  0  0  0  0  0  0  0  0
  135.9872   80.8740  227.0503 H   0  0  0  0  0  0  0  0  0  0  0  0
  138.9471   81.0999  225.2556 H   0  0  0  0  0  0  0  0  0  0  0  0
  137.8094   79.7604  225.1660 H   0  0  0  0  0  0  0  0  0  0  0  0
  140.8811   82.0138  224.5419 H   0  0  0  0  0  0  0  0  0  0  0  0
  143.3179   81.7945  224.1961 H   0  0  0  0  0  0  0  0  0  0  0  0
  144.2589   79.9555  222.8222 H   0  0  0  0  0  0  0  0  0  0  0  0
  142.7049   78.3082  221.7814 H   0  0  0  0  0  0  0  0  0  0  0  0
  141.8390   76.0320  222.1800 H   0  0  0  0  0  0  0  0  0  0  0  0
  144.0091   74.3718  221.4810 H   0  0  0  0  0  0  0  0  0  0  0  0
  1  2  1  0
  2  3  2  0
  2  4  1  0
  4  5  2  0
  5  6  1  0
  6  7  2  0
  7  8  1  0
  8  9  2  0
  9 10  1  0
 10 11  2  0
 10 12  1  0
 12 13  1  0
 14 13  1  6
 14 15  1  0
 15 16  1  0
 16 17  1  0
 17 18  1  0
 18 19  1  0
 19 20  1  0
 20 21  1  0
 21 22  1  0
 17 23  1  0
 14 24  1  0
 24 25  2  0
 25 26  1  0
 26 27  2  0
 27 28  1  0
 28 29  2  0
  9 30  1  0
 30 31  1  0
 31 32  2  0
 32  4  1  0
 31  7  1  0
 29 12  1  0
 23 14  1  0
 29 24  1  0
 22 18  1  0
  1 33  1  0
  1 34  1  0
  5 35  1  0
  6 36  1  0
  8 37  1  0
 13 38  1  0
 13 39  1  0
 15 40  1  0
 15 41  1  0
 16 42  1  0
 16 43  1  0
 18 44  1  6
 19 45  1  0
 19 46  1  0
 20 47  1  0
 20 48  1  0
 21 49  1  0
 22 50  1  0
 22 51  1  0
 23 52  1  0
 23 53  1  0
 25 54  1  0
 26 55  1  0
 27 56  1  0
 28 57  1  0
 30 58  1  0
 32 59  1  0
M  END
>  <smiles>  (23) 
NC(=O)c1ccc2cc(C(=O)N3C[C@]4(CCN(C5CCNC5)C4)c4ccccc43)[nH]c2c1

>  <score_type>  (23) 
oracle

>  <origin>  (23) 
autodockgpu

>  <m_score__min__energy>  (23) 
-9.4000000000000004

>  <m_primary>  (23) 
energy

>  <rmsd>  (23) 
7.169707005651093

>  <m_score__min__rmsd>  (23) 
7.169707005651093

>  <meeko>  (23) 
{"free_energy": -9.23, "intermolecular_energy": -10.42, "internal_energy": -1.24, "cluster_size": 35, "cluster_id": 1, "rank_in_cluster": 12}

>  <energy>  (23) 
-9.11

>  <cluster_rmsd>  (23) 
0.41

>  <cluster>  (23) 
1

$$$$

     RDKit          3D

 59 64  0  0  1  0  0  0  0  0999 V2000
  146.2440   72.0920  220.4710 N   0  0  0  0  0  0  0  0  0  0  0  0
  145.5430   72.9690  219.5870 C   0  0  0  0  0  0  0  0  0  0  0  0
  145.9920   73.2880  218.4580 O   0  0  0  0  0  0  0  0  0  0  0  0
  144.2470   73.5340  219.9870 C   0  0  0  0  0  0  0  0  0  0  0  0
  143.2520   72.6710  220.3840 C   0  0  0  0  0  0  0  0  0  0  0  0
  142.0240   73.1660  220.7660 C   0  0  0  0  0  0  0  0  0  0  0  0
  141.7980   74.5290  220.7460 C   0  0  0  0  0  0  0  0  0  0  0  0
  140.6830   75.2720  221.0730 C   0  0  0  0  0  0  0  0  0  0  0  0
  140.9910   76.6180  220.8760 C   0  0  0  0  0  0  0  0  0  0  0  0
  140.1010   77.7230  221.1040 C   0  0  0  0  0  0  0  0  0  0  0  0
  139.2360   77.9620  220.1990 O   0  0  0  0  0  0  0  0  0  0  0  0
  140.1120   78.5490  222.2380 N   0  0  0  0  0  0  0  0  0  0  0  0
  139.0220   78.7540  223.2040 C   0  0  0  0  0  0  0  0  0  0  0  0
  139.1300   80.2540  223.3870 C   0  0  1  0  0  0  0  0  0  0  0  0
  138.4850   80.8850  222.1710 C   0  0  0  0  0  0  0  0  0  0  0  0
  137.0690   81.1010  222.7230 C   0  0  0  0  0  0  0  0  0  0  0  0
  137.3910   81.6600  224.0230 N   0  0  0  0  0  0  0  0  0  0  0  0
  136.2200   81.7640  224.8710 C   0  0  2  0  0  0  0  0  0  0  0  0
  135.6760   83.1640  224.9010 C   0  0  0  0  0  0  0  0  0  0  0  0
  136.5340   83.8170  225.9400 C   0  0  0  0  0  0  0  0  0  0  0  0
  136.8800   82.8090  226.8950 N   0  0  0  0  0  0  0  0  0  0  0  0
  136.6930   81.5120  226.3030 C   0  0  0  0  0  0  0  0  0  0  0  0
  138.3860   80.7710  224.5800 C   0  0  0  0  0  0  0  0  0  0  0  0
  140.5910   80.4470  223.4430 C   0  0  0  0  0  0  0  0  0  0  0  0
  141.4310   81.3770  224.0040 C   0  0  0  0  0  0  0  0  0  0  0  0
  142.8060   81.2570  223.8600 C   0  0  0  0  0  0  0  0  0  0  0  0
  143.3720   80.2110  223.1550 C   0  0  0  0  0  0  0  0  0  0  0  0
  142.5400   79.2730  222.5890 C   0  0  0  0  0  0  0  0  0  0  0  0
  141.1650   79.4000  222.7370 C   0  0  0  0  0  0  0  0  0  0  0  0
  142.2710   76.6730  220.4370 N   0  0  0  0  0  0  0  0  0  0  0  0
  142.7850   75.4270  220.3500 C   0  0  0  0  0  0  0  0  0  0  0  0
  143.9920   74.8820  219.9790 C   0  0  0  0  0  0  0  0  0  0  0  0
  146.3540   72.2660  221.4890 H   0  0  0  0  0  0  0  0  0  0  0  0
  146.6950   71.2010  220.1150 H   0  0  0  0  0  0  0  0  0  0  0  0
  143.4365   71.5866  220.3965 H   0  0  0  0  0  0  0  0  0  0  0  0
  141.2268   72.4788  221.0856 H   0  0  0  0  0  0  0  0  0  0  0  0
  139.7207   74.8734  221.4267 H   0  0  0  0  0  0  0  0  0  0  0  0
  138.0461   78.4602  222.7901 H   0  0  0  0  0  0  0  0  0  0  0  0
  139.0978   78.1626  224.1284 H   0  0  0  0  0  0  0  0  0  0  0  0
  138.9679   81.8342  221.8957 H   0  0  0  0  0  0  0  0  0  0  0  0
  138.5432   80.2907  221.2472 H   0  0  0  0  0  0  0  0  0  0  0  0
  136.4930   81.8064  222.1061 H   0  0  0  0  0  0  0  0  0  0  0  0
  136.4379   80.2004  222.7481 H   0  0  0  0  0  0  0  0  0  0  0  0
  135.4591   81.0633  224.4966 H   0  0  0  0  0  0  0  0  0  0  0  0
  135.7891   83.6564  223.9239 H   0  0  0  0  0  0  0  0  0  0  0  0
  134.5998   83.2139  225.1232 H   0  0  0  0  0  0  0  0  0  0  0  0
  137.4439   84.2250  225.4758 H   0  0  0  0  0  0  0  0  0  0  0  0
  135.9988   84.6473  226.4240 H   0  0  0  0  0  0  0  0  0  0  0  0
  137.8830   82.9910  227.1730 H   0  0  0  0  0  0  0  0  0  0  0  0
  137.6408   80.9537  226.2994 H   0  0  0  0  0  0  0  0  0  0  0  0
  135.9631   80.9137  226.8680 H   0  0  0  0  0  0  0  0  0  0  0  0
  139.0622   81.3167  225.2545 H   0  0  0  0  0  0  0  0  0  0  0  0
  137.9398   79.9637  225.1793 H   0  0  0  0  0  0  0  0  0  0  0  0
  141.0119   82.2216  224.5705 H   0  0  0  0  0  0  0  0  0  0  0  0
  143.4615   82.0124  224.3179 H   0  0  0  0  0  0  0  0  0  0  0  0
  144.4639   80.1306  223.0490 H   0  0  0  0  0  0  0  0  0  0  0  0
  142.9607   78.4286  222.0234 H   0  0  0  0  0  0  0  0  0  0  0  0
  142.8320   77.5170  220.1890 H   0  0  0  0  0  0  0  0  0  0  0  0
  144.7949   75.5625  219.6591 H   0  0  0  0  0  0  0  0  0  0  0  0
  1  2  1  0
  2  3  2  0
  2  4  1  0
  4  5  2  0
  5  6  1  0
  6  7  2  0
  7  8  1  0
  8  9  2  0
  9 10  1  0
 10 11  2  0
 10 12  1  0
 12 13  1  0
 14 13  1  6
 14 15  1  0
 15 16  1  0
 16 17  1  0
 17 18  1  0
 18 19  1  0
 19 20  1  0
 20 21  1  0
 21 22  1  0
 17 23  1  0
 14 24  1  0
 24 25  2  0
 25 26  1  0
 26 27  2  0
 27 28  1  0
 28 29  2  0
  9 30  1  0
 30 31  1  0
 31 32  2  0
 32  4  1  0
 31  7  1  0
 29 12  1  0
 23 14  1  0
 29 24  1  0
 22 18  1  0
  1 33  1  0
  1 34  1  0
  5 35  1  0
  6 36  1  0
  8 37  1  0
 13 38  1  0
 13 39  1  0
 15 40  1  0
 15 41  1  0
 16 42  1  0
 16 43  1  0
 18 44  1  6
 19 45  1  0
 19 46  1  0
 20 47  1  0
 20 48  1  0
 21 49  1  0
 22 50  1  0
 22 51  1  0
 23 52  1  0
 23 53  1  0
 25 54  1  0
 26 55  1  0
 27 56  1  0
 28 57  1  0
 30 58  1  0
 32 59  1  0
M  END
>  <smiles>  (24) 
NC(=O)c1ccc2cc(C(=O)N3C[C@]4(CCN(C5CCNC5)C4)c4ccccc43)[nH]c2c1

>  <score_type>  (24) 
oracle

>  <origin>  (24) 
autodockgpu

>  <m_score__min__energy>  (24) 
-9.4000000000000004

>  <m_primary>  (24) 
energy

>  <rmsd>  (24) 
6.770040256225953

>  <m_score__min__rmsd>  (24) 
6.770040256225953

>  <meeko>  (24) 
{"free_energy": -9.38, "intermolecular_energy": -10.57, "internal_energy": -1.22, "cluster_size": 35, "cluster_id": 1, "rank_in_cluster": 3}

>  <energy>  (24) 
-9.06

>  <cluster_rmsd>  (24) 
0.93

>  <cluster>  (24) 
1

$$$$

     RDKit          3D

 59 64  0  0  1  0  0  0  0  0999 V2000
  145.4010   72.2560  220.6280 N   0  0  0  0  0  0  0  0  0  0  0  0
  145.4150   73.1100  219.4820 C   0  0  0  0  0  0  0  0  0  0  0  0
  146.3120   73.0470  218.6040 O   0  0  0  0  0  0  0  0  0  0  0  0
  144.3520   74.1070  219.2960 C   0  0  0  0  0  0  0  0  0  0  0  0
  144.0630   74.5250  218.0180 C   0  0  0  0  0  0  0  0  0  0  0  0
  143.0720   75.4590  217.8060 C   0  0  0  0  0  0  0  0  0  0  0  0
  142.3740   75.9720  218.8820 C   0  0  0  0  0  0  0  0  0  0  0  0
  141.3540   76.8990  218.9480 C   0  0  0  0  0  0  0  0  0  0  0  0
  141.0050   77.0590  220.2890 C   0  0  0  0  0  0  0  0  0  0  0  0
  139.9800   77.9340  220.7880 C   0  0  0  0  0  0  0  0  0  0  0  0
  138.9430   78.0800  220.0610 O   0  0  0  0  0  0  0  0  0  0  0  0
  140.0350   78.6320  222.0030 N   0  0  0  0  0  0  0  0  0  0  0  0
  138.9690   78.7580  223.0090 C   0  0  0  0  0  0  0  0  0  0  0  0
  139.1210   80.2260  223.3510 C   0  0  1  0  0  0  0  0  0  0  0  0
  138.4710   81.0020  222.2230 C   0  0  0  0  0  0  0  0  0  0  0  0
  137.0720   81.1920  222.8260 C   0  0  0  0  0  0  0  0  0  0  0  0
  137.4330   81.5990  224.1710 N   0  0  0  0  0  0  0  0  0  0  0  0
  136.2810   81.6400  225.0500 C   0  0  2  0  0  0  0  0  0  0  0  0
  135.6250   82.9910  225.0460 C   0  0  0  0  0  0  0  0  0  0  0  0
  136.4540   83.7510  226.0340 C   0  0  0  0  0  0  0  0  0  0  0  0
  136.9080   82.8130  227.0140 N   0  0  0  0  0  0  0  0  0  0  0  0
  136.8120   81.4830  226.4750 C   0  0  0  0  0  0  0  0  0  0  0  0
  138.4140   80.6300  224.6080 C   0  0  0  0  0  0  0  0  0  0  0  0
  140.5870   80.3760  223.3960 C   0  0  0  0  0  0  0  0  0  0  0  0
  141.4630   81.2170  224.0360 C   0  0  0  0  0  0  0  0  0  0  0  0
  142.8310   81.0790  223.8500 C   0  0  0  0  0  0  0  0  0  0  0  0
  143.3550   80.1020  223.0250 C   0  0  0  0  0  0  0  0  0  0  0  0
  142.4880   79.2520  222.3780 C   0  0  0  0  0  0  0  0  0  0  0  0
  141.1190   79.3970  222.5690 C   0  0  0  0  0  0  0  0  0  0  0  0
  141.8060   76.2390  221.0090 N   0  0  0  0  0  0  0  0  0  0  0  0
  142.6430   75.5700  220.1870 C   0  0  0  0  0  0  0  0  0  0  0  0
  143.6410   74.6360  220.3430 C   0  0  0  0  0  0  0  0  0  0  0  0
  145.2030   72.5870  221.5910 H   0  0  0  0  0  0  0  0  0  0  0  0
  145.6000   71.2180  220.5400 H   0  0  0  0  0  0  0  0  0  0  0  0
  144.6228   74.1138  217.1650 H   0  0  0  0  0  0  0  0  0  0  0  0
  142.8380   75.7944  216.7848 H   0  0  0  0  0  0  0  0  0  0  0  0
  140.8968   77.4199  218.0938 H   0  0  0  0  0  0  0  0  0  0  0  0
  137.9779   78.5354  222.5869 H   0  0  0  0  0  0  0  0  0  0  0  0
  139.0461   78.0679  223.8621 H   0  0  0  0  0  0  0  0  0  0  0  0
  138.9745   81.9630  222.0416 H   0  0  0  0  0  0  0  0  0  0  0  0
  138.4960   80.5107  221.2391 H   0  0  0  0  0  0  0  0  0  0  0  0
  136.5036   81.9740  222.3012 H   0  0  0  0  0  0  0  0  0  0  0  0
  136.4177   80.3096  222.7679 H   0  0  0  0  0  0  0  0  0  0  0  0
  135.5706   80.8658  224.7245 H   0  0  0  0  0  0  0  0  0  0  0  0
  135.6705   83.4530  224.0488 H   0  0  0  0  0  0  0  0  0  0  0  0
  134.5549   82.9618  225.2989 H   0  0  0  0  0  0  0  0  0  0  0  0
  137.3141   84.2135  225.5278 H   0  0  0  0  0  0  0  0  0  0  0  0
  135.8652   84.5528  226.5036 H   0  0  0  0  0  0  0  0  0  0  0  0
  137.9000   83.0860  227.2540 H   0  0  0  0  0  0  0  0  0  0  0  0
  137.8020   81.0037  226.4628 H   0  0  0  0  0  0  0  0  0  0  0  0
  136.1492   80.8499  227.0832 H   0  0  0  0  0  0  0  0  0  0  0  0
  139.1174   81.0827  225.3224 H   0  0  0  0  0  0  0  0  0  0  0  0
  137.9572   79.7743  225.1267 H   0  0  0  0  0  0  0  0  0  0  0  0
  141.0782   82.0049  224.7002 H   0  0  0  0  0  0  0  0  0  0  0  0
  143.5152   81.7641  224.3720 H   0  0  0  0  0  0  0  0  0  0  0  0
  144.4423   80.0060  222.8885 H   0  0  0  0  0  0  0  0  0  0  0  0
  142.8751   78.4642  221.7151 H   0  0  0  0  0  0  0  0  0  0  0  0
  141.8230   76.0990  222.0430 H   0  0  0  0  0  0  0  0  0  0  0  0
  143.8815   74.2955  221.3610 H   0  0  0  0  0  0  0  0  0  0  0  0
  1  2  1  0
  2  3  2  0
  2  4  1  0
  4  5  2  0
  5  6  1  0
  6  7  2  0
  7  8  1  0
  8  9  2  0
  9 10  1  0
 10 11  2  0
 10 12  1  0
 12 13  1  0
 14 13  1  6
 14 15  1  0
 15 16  1  0
 16 17  1  0
 17 18  1  0
 18 19  1  0
 19 20  1  0
 20 21  1  0
 21 22  1  0
 17 23  1  0
 14 24  1  0
 24 25  2  0
 25 26  1  0
 26 27  2  0
 27 28  1  0
 28 29  2  0
  9 30  1  0
 30 31  1  0
 31 32  2  0
 32  4  1  0
 31  7  1  0
 29 12  1  0
 23 14  1  0
 29 24  1  0
 22 18  1  0
  1 33  1  0
  1 34  1  0
  5 35  1  0
  6 36  1  0
  8 37  1  0
 13 38  1  0
 13 39  1  0
 15 40  1  0
 15 41  1  0
 16 42  1  0
 16 43  1  0
 18 44  1  6
 19 45  1  0
 19 46  1  0
 20 47  1  0
 20 48  1  0
 21 49  1  0
 22 50  1  0
 22 51  1  0
 23 52  1  0
 23 53  1  0
 25 54  1  0
 26 55  1  0
 27 56  1  0
 28 57  1  0
 30 58  1  0
 32 59  1  0
M  END
>  <smiles>  (25) 
NC(=O)c1ccc2cc(C(=O)N3C[C@]4(CCN(C5CCNC5)C4)c4ccccc43)[nH]c2c1

>  <score_type>  (25) 
oracle

>  <origin>  (25) 
autodockgpu

>  <m_score__min__energy>  (25) 
-9.4000000000000004

>  <m_primary>  (25) 
energy

>  <rmsd>  (25) 
7.214347442559311

>  <m_score__min__rmsd>  (25) 
7.214347442559311

>  <meeko>  (25) 
{"free_energy": -9.21, "intermolecular_energy": -10.4, "internal_energy": -1.23, "cluster_size": 35, "cluster_id": 1, "rank_in_cluster": 17}

>  <energy>  (25) 
-9.05

>  <cluster_rmsd>  (25) 
0.94

>  <cluster>  (25) 
1

$$$$

     RDKit          3D

 59 64  0  0  1  0  0  0  0  0999 V2000
  145.5250   71.3000  219.5680 N   0  0  0  0  0  0  0  0  0  0  0  0
  145.4210   72.7120  219.3730 C   0  0  0  0  0  0  0  0  0  0  0  0
  146.3270   73.3860  218.8220 O   0  0  0  0  0  0  0  0  0  0  0  0
  144.2200   73.4300  219.8230 C   0  0  0  0  0  0  0  0  0  0  0  0
  143.1980   72.7040  220.3870 C   0  0  0  0  0  0  0  0  0  0  0  0
  142.0570   73.3440  220.8210 C   0  0  0  0  0  0  0  0  0  0  0  0
  141.9470   74.7150  220.6850 C   0  0  0  0  0  0  0  0  0  0  0  0
  140.9350   75.5860  221.0300 C   0  0  0  0  0  0  0  0  0  0  0  0
  141.3360   76.8730  220.6740 C   0  0  0  0  0  0  0  0  0  0  0  0
  140.5680   78.0730  220.8670 C   0  0  0  0  0  0  0  0  0  0  0  0
  139.9370   78.5210  219.8530 O   0  0  0  0  0  0  0  0  0  0  0  0
  140.4610   78.7800  222.0730 N   0  0  0  0  0  0  0  0  0  0  0  0
  139.2910   78.8590  222.9610 C   0  0  0  0  0  0  0  0  0  0  0  0
  139.3350   80.3350  223.3010 C   0  0  1  0  0  0  0  0  0  0  0  0
  138.7700   81.0710  222.1040 C   0  0  0  0  0  0  0  0  0  0  0  0
  137.3080   81.1950  222.5550 C   0  0  0  0  0  0  0  0  0  0  0  0
  137.5060   81.6270  223.9260 N   0  0  0  0  0  0  0  0  0  0  0  0
  136.2680   81.6160  224.6790 C   0  0  2  0  0  0  0  0  0  0  0  0
  135.6590   82.9850  224.7710 C   0  0  0  0  0  0  0  0  0  0  0  0
  136.4000   83.5880  225.9240 C   0  0  0  0  0  0  0  0  0  0  0  0
  136.7160   82.5230  226.8250 N   0  0  0  0  0  0  0  0  0  0  0  0
  136.6370   81.2700  226.1230 C   0  0  0  0  0  0  0  0  0  0  0  0
  138.4820   80.7100  224.4730 C   0  0  0  0  0  0  0  0  0  0  0  0
  140.7800   80.5570  223.4970 C   0  0  0  0  0  0  0  0  0  0  0  0
  141.5420   81.4440  224.2150 C   0  0  0  0  0  0  0  0  0  0  0  0
  142.9270   81.3730  224.1750 C   0  0  0  0  0  0  0  0  0  0  0  0
  143.5810   80.4180  223.4190 C   0  0  0  0  0  0  0  0  0  0  0  0
  142.8290   79.5230  222.6950 C   0  0  0  0  0  0  0  0  0  0  0  0
  141.4420   79.6010  222.7400 C   0  0  0  0  0  0  0  0  0  0  0  0
  142.5690   76.7690  220.1250 N   0  0  0  0  0  0  0  0  0  0  0  0
  142.9650   75.4770  220.1190 C   0  0  0  0  0  0  0  0  0  0  0  0
  144.0810   74.7890  219.7030 C   0  0  0  0  0  0  0  0  0  0  0  0
  145.2670   70.8200  220.4520 H   0  0  0  0  0  0  0  0  0  0  0  0
  145.8810   70.6660  218.7970 H   0  0  0  0  0  0  0  0  0  0  0  0
  143.2907   71.6129  220.4919 H   0  0  0  0  0  0  0  0  0  0  0  0
  141.2377   72.7662  221.2736 H   0  0  0  0  0  0  0  0  0  0  0  0
  139.9799   75.3134  221.5027 H   0  0  0  0  0  0  0  0  0  0  0  0
  138.3614   78.5853  222.4405 H   0  0  0  0  0  0  0  0  0  0  0  0
  139.3119   78.1785  223.8250 H   0  0  0  0  0  0  0  0  0  0  0  0
  139.2424   82.0548  221.9659 H   0  0  0  0  0  0  0  0  0  0  0  0
  138.9218   80.5758  221.1336 H   0  0  0  0  0  0  0  0  0  0  0  0
  136.7605   81.9449  221.9652 H   0  0  0  0  0  0  0  0  0  0  0  0
  136.7069   80.2812  222.4382 H   0  0  0  0  0  0  0  0  0  0  0  0
  135.5731   80.9175  224.1900 H   0  0  0  0  0  0  0  0  0  0  0  0
  135.8259   83.5580  223.8470 H   0  0  0  0  0  0  0  0  0  0  0  0
  134.5675   82.9729  224.9072 H   0  0  0  0  0  0  0  0  0  0  0  0
  137.3237   84.0683  225.5690 H   0  0  0  0  0  0  0  0  0  0  0  0
  135.7895   84.3547  226.4234 H   0  0  0  0  0  0  0  0  0  0  0  0
  137.6840   82.7230  227.1970 H   0  0  0  0  0  0  0  0  0  0  0  0
  137.6069   80.7521  226.1557 H   0  0  0  0  0  0  0  0  0  0  0  0
  135.8931   80.6000  226.5787 H   0  0  0  0  0  0  0  0  0  0  0  0
  139.0840   81.2007  225.2520 H   0  0  0  0  0  0  0  0  0  0  0  0
  138.0157   79.8355  224.9503 H   0  0  0  0  0  0  0  0  0  0  0  0
  141.0517   82.2161  224.8261 H   0  0  0  0  0  0  0  0  0  0  0  0
  143.5187   82.0936  224.7586 H   0  0  0  0  0  0  0  0  0  0  0  0
  144.6799   80.3750  223.3971 H   0  0  0  0  0  0  0  0  0  0  0  0
  143.3213   78.7513  222.0850 H   0  0  0  0  0  0  0  0  0  0  0  0
  143.1740   77.5300  219.7480 H   0  0  0  0  0  0  0  0  0  0  0  0
  144.9056   75.3590  219.2501 H   0  0  0  0  0  0  0  0  0  0  0  0
  1  2  1  0
  2  3  2  0
  2  4  1  0
  4  5  2  0
  5  6  1  0
  6  7  2  0
  7  8  1  0
  8  9  2  0
  9 10  1  0
 10 11  2  0
 10 12  1  0
 12 13  1  0
 14 13  1  6
 14 15  1  0
 15 16  1  0
 16 17  1  0
 17 18  1  0
 18 19  1  0
 19 20  1  0
 20 21  1  0
 21 22  1  0
 17 23  1  0
 14 24  1  0
 24 25  2  0
 25 26  1  0
 26 27  2  0
 27 28  1  0
 28 29  2  0
  9 30  1  0
 30 31  1  0
 31 32  2  0
 32  4  1  0
 31  7  1  0
 29 12  1  0
 23 14  1  0
 29 24  1  0
 22 18  1  0
  1 33  1  0
  1 34  1  0
  5 35  1  0
  6 36  1  0
  8 37  1  0
 13 38  1  0
 13 39  1  0
 15 40  1  0
 15 41  1  0
 16 42  1  0
 16 43  1  0
 18 44  1  6
 19 45  1  0
 19 46  1  0
 20 47  1  0
 20 48  1  0
 21 49  1  0
 22 50  1  0
 22 51  1  0
 23 52  1  0
 23 53  1  0
 25 54  1  0
 26 55  1  0
 27 56  1  0
 28 57  1  0
 30 58  1  0
 32 59  1  0
M  END
>  <smiles>  (26) 
NC(=O)c1ccc2cc(C(=O)N3C[C@]4(CCN(C5CCNC5)C4)c4ccccc43)[nH]c2c1

>  <score_type>  (26) 
oracle

>  <origin>  (26) 
autodockgpu

>  <m_score__min__energy>  (26) 
-9.4000000000000004

>  <m_primary>  (26) 
energy

>  <rmsd>  (26) 
6.839661840449878

>  <m_score__min__rmsd>  (26) 
6.839661840449878

>  <meeko>  (26) 
{"free_energy": -8.99, "intermolecular_energy": -10.19, "internal_energy": -1.21, "cluster_size": 35, "cluster_id": 1, "rank_in_cluster": 29}

>  <energy>  (26) 
-9.04

>  <cluster_rmsd>  (26) 
0.95

>  <cluster>  (26) 
1

$$$$

     RDKit          3D

 59 64  0  0  1  0  0  0  0  0999 V2000
  145.7100   72.6320  220.8860 N   0  0  0  0  0  0  0  0  0  0  0  0
  145.4970   73.2420  219.6110 C   0  0  0  0  0  0  0  0  0  0  0  0
  146.2420   73.0180  218.6240 O   0  0  0  0  0  0  0  0  0  0  0  0
  144.3730   74.1680  219.4170 C   0  0  0  0  0  0  0  0  0  0  0  0
  144.0050   74.4890  218.1310 C   0  0  0  0  0  0  0  0  0  0  0  0
  142.9550   75.3540  217.9120 C   0  0  0  0  0  0  0  0  0  0  0  0
  142.2780   75.8960  218.9880 C   0  0  0  0  0  0  0  0  0  0  0  0
  141.2120   76.7700  219.0470 C   0  0  0  0  0  0  0  0  0  0  0  0
  140.9150   76.9950  220.3910 C   0  0  0  0  0  0  0  0  0  0  0  0
  139.8660   77.8450  220.8860 C   0  0  0  0  0  0  0  0  0  0  0  0
  138.8100   77.9270  220.1770 O   0  0  0  0  0  0  0  0  0  0  0  0
  139.9190   78.5820  222.0770 N   0  0  0  0  0  0  0  0  0  0  0  0
  138.8540   78.7330  223.0800 C   0  0  0  0  0  0  0  0  0  0  0  0
  138.9960   80.2130  223.3740 C   0  0  1  0  0  0  0  0  0  0  0  0
  138.3380   80.9470  222.2230 C   0  0  0  0  0  0  0  0  0  0  0  0
  136.9390   81.1470  222.8220 C   0  0  0  0  0  0  0  0  0  0  0  0
  137.2990   81.6000  224.1520 N   0  0  0  0  0  0  0  0  0  0  0  0
  136.1490   81.6610  225.0310 C   0  0  2  0  0  0  0  0  0  0  0  0
  135.5650   83.0440  225.0890 C   0  0  0  0  0  0  0  0  0  0  0  0
  136.4300   83.7130  226.1120 C   0  0  0  0  0  0  0  0  0  0  0  0
  136.8310   82.7090  227.0470 N   0  0  0  0  0  0  0  0  0  0  0  0
  136.6670   81.4120  226.4490 C   0  0  0  0  0  0  0  0  0  0  0  0
  138.2880   80.6530  224.6190 C   0  0  0  0  0  0  0  0  0  0  0  0
  140.4610   80.3740  223.4110 C   0  0  0  0  0  0  0  0  0  0  0  0
  141.3320   81.2430  224.0210 C   0  0  0  0  0  0  0  0  0  0  0  0
  142.7010   81.1080  223.8380 C   0  0  0  0  0  0  0  0  0  0  0  0
  143.2300   80.1080  223.0440 C   0  0  0  0  0  0  0  0  0  0  0  0
  142.3680   79.2310  222.4270 C   0  0  0  0  0  0  0  0  0  0  0  0
  140.9990   79.3730  222.6150 C   0  0  0  0  0  0  0  0  0  0  0  0
  141.7920   76.2650  221.1200 N   0  0  0  0  0  0  0  0  0  0  0  0
  142.6270   75.5910  220.3000 C   0  0  0  0  0  0  0  0  0  0  0  0
  143.6810   74.7220  220.4630 C   0  0  0  0  0  0  0  0  0  0  0  0
  145.6560   73.1460  221.7870 H   0  0  0  0  0  0  0  0  0  0  0  0
  145.9390   71.6010  220.9690 H   0  0  0  0  0  0  0  0  0  0  0  0
  144.5484   74.0556  217.2784 H   0  0  0  0  0  0  0  0  0  0  0  0
  142.6569   75.6120  216.8851 H   0  0  0  0  0  0  0  0  0  0  0  0
  140.6887   77.2114  218.1860 H   0  0  0  0  0  0  0  0  0  0  0  0
  137.8639   78.4897  222.6671 H   0  0  0  0  0  0  0  0  0  0  0  0
  138.9374   78.0715  223.9549 H   0  0  0  0  0  0  0  0  0  0  0  0
  138.8343   81.9051  222.0092 H   0  0  0  0  0  0  0  0  0  0  0  0
  138.3644   80.4237  221.2558 H   0  0  0  0  0  0  0  0  0  0  0  0
  136.3644   81.9075  222.2730 H   0  0  0  0  0  0  0  0  0  0  0  0
  136.2908   80.2587  222.7939 H   0  0  0  0  0  0  0  0  0  0  0  0
  135.4004   80.9405  224.6700 H   0  0  0  0  0  0  0  0  0  0  0  0
  135.6380   83.5485  224.1142 H   0  0  0  0  0  0  0  0  0  0  0  0
  134.4940   83.0597  225.3395 H   0  0  0  0  0  0  0  0  0  0  0  0
  137.3147   84.1526  225.6283 H   0  0  0  0  0  0  0  0  0  0  0  0
  135.8826   84.5219  226.6179 H   0  0  0  0  0  0  0  0  0  0  0  0
  137.8360   82.9190  227.3000 H   0  0  0  0  0  0  0  0  0  0  0  0
  137.6305   80.8823  226.4160 H   0  0  0  0  0  0  0  0  0  0  0  0
  135.9701   80.7879  227.0276 H   0  0  0  0  0  0  0  0  0  0  0  0
  138.9892   81.1341  225.3167 H   0  0  0  0  0  0  0  0  0  0  0  0
  137.8385   79.8115  225.1666 H   0  0  0  0  0  0  0  0  0  0  0  0
  140.9424   82.0506  224.6582 H   0  0  0  0  0  0  0  0  0  0  0  0
  143.3814   81.8138  224.3368 H   0  0  0  0  0  0  0  0  0  0  0  0
  144.3176   80.0152  222.9082 H   0  0  0  0  0  0  0  0  0  0  0  0
  142.7596   78.4241  221.7901 H   0  0  0  0  0  0  0  0  0  0  0  0
  141.8640   76.1920  222.1580 H   0  0  0  0  0  0  0  0  0  0  0  0
  143.9846   74.4576  221.4867 H   0  0  0  0  0  0  0  0  0  0  0  0
  1  2  1  0
  2  3  2  0
  2  4  1  0
  4  5  2  0
  5  6  1  0
  6  7  2  0
  7  8  1  0
  8  9  2  0
  9 10  1  0
 10 11  2  0
 10 12  1  0
 12 13  1  0
 14 13  1  6
 14 15  1  0
 15 16  1  0
 16 17  1  0
 17 18  1  0
 18 19  1  0
 19 20  1  0
 20 21  1  0
 21 22  1  0
 17 23  1  0
 14 24  1  0
 24 25  2  0
 25 26  1  0
 26 27  2  0
 27 28  1  0
 28 29  2  0
  9 30  1  0
 30 31  1  0
 31 32  2  0
 32  4  1  0
 31  7  1  0
 29 12  1  0
 23 14  1  0
 29 24  1  0
 22 18  1  0
  1 33  1  0
  1 34  1  0
  5 35  1  0
  6 36  1  0
  8 37  1  0
 13 38  1  0
 13 39  1  0
 15 40  1  0
 15 41  1  0
 16 42  1  0
 16 43  1  0
 18 44  1  6
 19 45  1  0
 19 46  1  0
 20 47  1  0
 20 48  1  0
 21 49  1  0
 22 50  1  0
 22 51  1  0
 23 52  1  0
 23 53  1  0
 25 54  1  0
 26 55  1  0
 27 56  1  0
 28 57  1  0
 30 58  1  0
 32 59  1  0
M  END
>  <smiles>  (27) 
NC(=O)c1ccc2cc(C(=O)N3C[C@]4(CCN(C5CCNC5)C4)c4ccccc43)[nH]c2c1

>  <score_type>  (27) 
oracle

>  <origin>  (27) 
autodockgpu

>  <m_score__min__energy>  (27) 
-9.4000000000000004

>  <m_primary>  (27) 
energy

>  <rmsd>  (27) 
7.2078967111788455

>  <m_score__min__rmsd>  (27) 
7.2078967111788455

>  <meeko>  (27) 
{"free_energy": -9.21, "intermolecular_energy": -10.4, "internal_energy": -1.24, "cluster_size": 35, "cluster_id": 1, "rank_in_cluster": 16}

>  <energy>  (27) 
-9.03

>  <cluster_rmsd>  (27) 
0.76

>  <cluster>  (27) 
1

$$$$

     RDKit          3D

 59 64  0  0  1  0  0  0  0  0999 V2000
  145.9270   72.9030  220.8920 N   0  0  0  0  0  0  0  0  0  0  0  0
  145.4580   73.1850  219.5710 C   0  0  0  0  0  0  0  0  0  0  0  0
  145.9400   72.6310  218.5520 O   0  0  0  0  0  0  0  0  0  0  0  0
  144.3710   74.1530  219.3680 C   0  0  0  0  0  0  0  0  0  0  0  0
  144.0430   74.5050  218.0800 C   0  0  0  0  0  0  0  0  0  0  0  0
  143.0280   75.4100  217.8510 C   0  0  0  0  0  0  0  0  0  0  0  0
  142.3470   75.9600  218.9210 C   0  0  0  0  0  0  0  0  0  0  0  0
  141.3110   76.8690  218.9700 C   0  0  0  0  0  0  0  0  0  0  0  0
  140.9920   77.0840  220.3110 C   0  0  0  0  0  0  0  0  0  0  0  0
  139.9630   77.9620  220.7960 C   0  0  0  0  0  0  0  0  0  0  0  0
  138.9350   78.1090  220.0560 O   0  0  0  0  0  0  0  0  0  0  0  0
  140.0050   78.6640  222.0100 N   0  0  0  0  0  0  0  0  0  0  0  0
  138.9290   78.7900  223.0050 C   0  0  0  0  0  0  0  0  0  0  0  0
  139.0750   80.2590  223.3450 C   0  0  1  0  0  0  0  0  0  0  0  0
  138.4350   81.0310  222.2090 C   0  0  0  0  0  0  0  0  0  0  0  0
  137.0300   81.2200  222.7980 C   0  0  0  0  0  0  0  0  0  0  0  0
  137.3770   81.6310  224.1460 N   0  0  0  0  0  0  0  0  0  0  0  0
  136.2170   81.6720  225.0130 C   0  0  2  0  0  0  0  0  0  0  0  0
  135.5550   83.0200  224.9950 C   0  0  0  0  0  0  0  0  0  0  0  0
  136.3710   83.7890  225.9870 C   0  0  0  0  0  0  0  0  0  0  0  0
  136.8200   82.8580  226.9760 N   0  0  0  0  0  0  0  0  0  0  0  0
  136.7350   81.5250  226.4440 C   0  0  0  0  0  0  0  0  0  0  0  0
  138.3550   80.6650  224.5940 C   0  0  0  0  0  0  0  0  0  0  0  0
  140.5410   80.4110  223.4040 C   0  0  0  0  0  0  0  0  0  0  0  0
  141.4090   81.2560  224.0500 C   0  0  0  0  0  0  0  0  0  0  0  0
  142.7790   81.1200  223.8780 C   0  0  0  0  0  0  0  0  0  0  0  0
  143.3130   80.1410  223.0600 C   0  0  0  0  0  0  0  0  0  0  0  0
  142.4530   79.2890  222.4070 C   0  0  0  0  0  0  0  0  0  0  0  0
  141.0830   79.4310  222.5840 C   0  0  0  0  0  0  0  0  0  0  0  0
  141.8270   76.3130  221.0470 N   0  0  0  0  0  0  0  0  0  0  0  0
  142.6560   75.6220  220.2350 C   0  0  0  0  0  0  0  0  0  0  0  0
  143.6760   74.7150  220.4070 C   0  0  0  0  0  0  0  0  0  0  0  0
  146.1100   73.6340  221.6060 H   0  0  0  0  0  0  0  0  0  0  0  0
  146.1130   71.9080  221.2070 H   0  0  0  0  0  0  0  0  0  0  0  0
  144.5898   74.0651  217.2329 H   0  0  0  0  0  0  0  0  0  0  0  0
  142.7615   75.6929  216.8219 H   0  0  0  0  0  0  0  0  0  0  0  0
  140.8226   77.3410  218.1048 H   0  0  0  0  0  0  0  0  0  0  0  0
  137.9425   78.5645  222.5737 H   0  0  0  0  0  0  0  0  0  0  0  0
  138.9988   78.1019  223.8604 H   0  0  0  0  0  0  0  0  0  0  0  0
  138.9386   81.9924  222.0302 H   0  0  0  0  0  0  0  0  0  0  0  0
  138.4704   80.5375  221.2266 H   0  0  0  0  0  0  0  0  0  0  0  0
  136.4654   81.9997  222.2658 H   0  0  0  0  0  0  0  0  0  0  0  0
  136.3780   80.3362  222.7357 H   0  0  0  0  0  0  0  0  0  0  0  0
  135.5130   80.8930  224.6850 H   0  0  0  0  0  0  0  0  0  0  0  0
  135.6083   83.4768  223.9957 H   0  0  0  0  0  0  0  0  0  0  0  0
  134.4825   82.9875  225.2374 H   0  0  0  0  0  0  0  0  0  0  0  0
  137.2338   84.2530  225.4867 H   0  0  0  0  0  0  0  0  0  0  0  0
  135.7741   84.5904  226.4468 H   0  0  0  0  0  0  0  0  0  0  0  0
  137.8080   83.1380  227.2240 H   0  0  0  0  0  0  0  0  0  0  0  0
  137.7271   81.0499  226.4440 H   0  0  0  0  0  0  0  0  0  0  0  0
  136.0693   80.8923  227.0494 H   0  0  0  0  0  0  0  0  0  0  0  0
  139.0508   81.1205  225.3140 H   0  0  0  0  0  0  0  0  0  0  0  0
  137.8944   79.8096  225.1099 H   0  0  0  0  0  0  0  0  0  0  0  0
  141.0161   82.0453  224.7077 H   0  0  0  0  0  0  0  0  0  0  0  0
  143.4569   81.8075  224.4050 H   0  0  0  0  0  0  0  0  0  0  0  0
  144.4016   80.0458  222.9344 H   0  0  0  0  0  0  0  0  0  0  0  0
  142.8477   78.5007  221.7492 H   0  0  0  0  0  0  0  0  0  0  0  0
  141.8730   76.2220  222.0850 H   0  0  0  0  0  0  0  0  0  0  0  0
  143.9482   74.4255  221.4327 H   0  0  0  0  0  0  0  0  0  0  0  0
  1  2  1  0
  2  3  2  0
  2  4  1  0
  4  5  2  0
  5  6  1  0
  6  7  2  0
  7  8  1  0
  8  9  2  0
  9 10  1  0
 10 11  2  0
 10 12  1  0
 12 13  1  0
 14 13  1  6
 14 15  1  0
 15 16  1  0
 16 17  1  0
 17 18  1  0
 18 19  1  0
 19 20  1  0
 20 21  1  0
 21 22  1  0
 17 23  1  0
 14 24  1  0
 24 25  2  0
 25 26  1  0
 26 27  2  0
 27 28  1  0
 28 29  2  0
  9 30  1  0
 30 31  1  0
 31 32  2  0
 32  4  1  0
 31  7  1  0
 29 12  1  0
 23 14  1  0
 29 24  1  0
 22 18  1  0
  1 33  1  0
  1 34  1  0
  5 35  1  0
  6 36  1  0
  8 37  1  0
 13 38  1  0
 13 39  1  0
 15 40  1  0
 15 41  1  0
 16 42  1  0
 16 43  1  0
 18 44  1  6
 19 45  1  0
 19 46  1  0
 20 47  1  0
 20 48  1  0
 21 49  1  0
 22 50  1  0
 22 51  1  0
 23 52  1  0
 23 53  1  0
 25 54  1  0
 26 55  1  0
 27 56  1  0
 28 57  1  0
 30 58  1  0
 32 59  1  0
M  END
>  <smiles>  (28) 
NC(=O)c1ccc2cc(C(=O)N3C[C@]4(CCN(C5CCNC5)C4)c4ccccc43)[nH]c2c1

>  <score_type>  (28) 
oracle

>  <origin>  (28) 
autodockgpu

>  <m_score__min__energy>  (28) 
-9.4000000000000004

>  <m_primary>  (28) 
energy

>  <rmsd>  (28) 
7.237116741265831

>  <m_score__min__rmsd>  (28) 
7.237116741265831

>  <meeko>  (28) 
{"free_energy": -9.35, "intermolecular_energy": -10.54, "internal_energy": -1.23, "cluster_size": 35, "cluster_id": 1, "rank_in_cluster": 6}

>  <energy>  (28) 
-9.0

>  <cluster_rmsd>  (28) 
0.6

>  <cluster>  (28) 
1

$$$$

     RDKit          3D

 59 64  0  0  1  0  0  0  0  0999 V2000
  146.3640   72.6130  220.8760 N   0  0  0  0  0  0  0  0  0  0  0  0
  145.5260   72.9720  219.7750 C   0  0  0  0  0  0  0  0  0  0  0  0
  145.8610   72.7750  218.5810 O   0  0  0  0  0  0  0  0  0  0  0  0
  144.2190   73.5960  220.0200 C   0  0  0  0  0  0  0  0  0  0  0  0
  143.1240   72.7790  220.1800 C   0  0  0  0  0  0  0  0  0  0  0  0
  141.8820   73.3300  220.4120 C   0  0  0  0  0  0  0  0  0  0  0  0
  141.7440   74.7030  220.4810 C   0  0  0  0  0  0  0  0  0  0  0  0
  140.6370   75.4970  220.6980 C   0  0  0  0  0  0  0  0  0  0  0  0
  141.0520   76.8290  220.6720 C   0  0  0  0  0  0  0  0  0  0  0  0
  140.2040   77.9740  220.8590 C   0  0  0  0  0  0  0  0  0  0  0  0
  139.4500   78.2970  219.8840 O   0  0  0  0  0  0  0  0  0  0  0  0
  140.1440   78.7540  222.0230 N   0  0  0  0  0  0  0  0  0  0  0  0
  138.9720   78.9920  222.8790 C   0  0  0  0  0  0  0  0  0  0  0  0
  139.1510   80.4740  223.1400 C   0  0  1  0  0  0  0  0  0  0  0  0
  138.6790   81.1920  221.8920 C   0  0  0  0  0  0  0  0  0  0  0  0
  137.2280   81.4790  222.3030 C   0  0  0  0  0  0  0  0  0  0  0  0
  137.4420   81.9650  223.6530 N   0  0  0  0  0  0  0  0  0  0  0  0
  136.1960   82.1130  224.3780 C   0  0  2  0  0  0  0  0  0  0  0  0
  136.2300   83.2900  225.3100 C   0  0  0  0  0  0  0  0  0  0  0  0
  136.9090   82.7220  226.5170 C   0  0  0  0  0  0  0  0  0  0  0  0
  136.5480   81.3390  226.5920 N   0  0  0  0  0  0  0  0  0  0  0  0
  136.0820   80.9020  225.3040 C   0  0  0  0  0  0  0  0  0  0  0  0
  138.3160   80.9930  224.2710 C   0  0  0  0  0  0  0  0  0  0  0  0
  140.6060   80.5690  223.3560 C   0  0  0  0  0  0  0  0  0  0  0  0
  141.4360   81.4200  224.0430 C   0  0  0  0  0  0  0  0  0  0  0  0
  142.8090   81.2150  224.0380 C   0  0  0  0  0  0  0  0  0  0  0  0
  143.3820   80.1630  223.3500 C   0  0  0  0  0  0  0  0  0  0  0  0
  142.5600   79.3030  222.6580 C   0  0  0  0  0  0  0  0  0  0  0  0
  141.1870   79.5140  222.6670 C   0  0  0  0  0  0  0  0  0  0  0  0
  142.3870   76.8250  220.4420 N   0  0  0  0  0  0  0  0  0  0  0  0
  142.8330   75.5560  220.3230 C   0  0  0  0  0  0  0  0  0  0  0  0
  144.0490   74.9550  220.0940 C   0  0  0  0  0  0  0  0  0  0  0  0
  146.5340   73.2270  221.6960 H   0  0  0  0  0  0  0  0  0  0  0  0
  146.8640   71.6780  220.9020 H   0  0  0  0  0  0  0  0  0  0  0  0
  143.2394   71.6866  220.1228 H   0  0  0  0  0  0  0  0  0  0  0  0
  141.0045   72.6794  220.5417 H   0  0  0  0  0  0  0  0  0  0  0  0
  139.6087   75.1427  220.8625 H   0  0  0  0  0  0  0  0  0  0  0  0
  138.0296   78.7786  222.3533 H   0  0  0  0  0  0  0  0  0  0  0  0
  138.9129   78.3616  223.7785 H   0  0  0  0  0  0  0  0  0  0  0  0
  139.2456   82.1173  221.7111 H   0  0  0  0  0  0  0  0  0  0  0  0
  138.7991   80.6308  220.9536 H   0  0  0  0  0  0  0  0  0  0  0  0
  136.7655   82.2439  221.6619 H   0  0  0  0  0  0  0  0  0  0  0  0
  136.5443   80.6211  222.2215 H   0  0  0  0  0  0  0  0  0  0  0  0
  135.3821   82.2243  223.6465 H   0  0  0  0  0  0  0  0  0  0  0  0
  136.8093   84.1210  224.8812 H   0  0  0  0  0  0  0  0  0  0  0  0
  135.2368   83.7129  225.5216 H   0  0  0  0  0  0  0  0  0  0  0  0
  138.0000   82.8222  226.4182 H   0  0  0  0  0  0  0  0  0  0  0  0
  136.6005   83.2568  227.4274 H   0  0  0  0  0  0  0  0  0  0  0  0
  137.4110   80.8220  226.9120 H   0  0  0  0  0  0  0  0  0  0  0  0
  136.7069   80.0768  224.9318 H   0  0  0  0  0  0  0  0  0  0  0  0
  135.0474   80.5318  225.3556 H   0  0  0  0  0  0  0  0  0  0  0  0
  138.9479   81.4679  225.0359 H   0  0  0  0  0  0  0  0  0  0  0  0
  137.7602   80.1943  224.7841 H   0  0  0  0  0  0  0  0  0  0  0  0
  141.0111   82.2681  224.5999 H   0  0  0  0  0  0  0  0  0  0  0  0
  143.4567   81.9074  224.5957 H   0  0  0  0  0  0  0  0  0  0  0  0
  144.4721   80.0158  223.3552 H   0  0  0  0  0  0  0  0  0  0  0  0
  142.9869   78.4552  222.1021 H   0  0  0  0  0  0  0  0  0  0  0  0
  143.0290   77.6430  220.3600 H   0  0  0  0  0  0  0  0  0  0  0  0
  144.9317   75.5983  219.9633 H   0  0  0  0  0  0  0  0  0  0  0  0
  1  2  1  0
  2  3  2  0
  2  4  1  0
  4  5  2  0
  5  6  1  0
  6  7  2  0
  7  8  1  0
  8  9  2  0
  9 10  1  0
 10 11  2  0
 10 12  1  0
 12 13  1  0
 14 13  1  6
 14 15  1  0
 15 16  1  0
 16 17  1  0
 17 18  1  0
 18 19  1  0
 19 20  1  0
 20 21  1  0
 21 22  1  0
 17 23  1  0
 14 24  1  0
 24 25  2  0
 25 26  1  0
 26 27  2  0
 27 28  1  0
 28 29  2  0
  9 30  1  0
 30 31  1  0
 31 32  2  0
 32  4  1  0
 31  7  1  0
 29 12  1  0
 23 14  1  0
 29 24  1  0
 22 18  1  0
  1 33  1  0
  1 34  1  0
  5 35  1  0
  6 36  1  0
  8 37  1  0
 13 38  1  0
 13 39  1  0
 15 40  1  0
 15 41  1  0
 16 42  1  0
 16 43  1  0
 18 44  1  6
 19 45  1  0
 19 46  1  0
 20 47  1  0
 20 48  1  0
 21 49  1  0
 22 50  1  0
 22 51  1  0
 23 52  1  0
 23 53  1  0
 25 54  1  0
 26 55  1  0
 27 56  1  0
 28 57  1  0
 30 58  1  0
 32 59  1  0
M  END
>  <smiles>  (29) 
NC(=O)c1ccc2cc(C(=O)N3C[C@]4(CCN(C5CCNC5)C4)c4ccccc43)[nH]c2c1

>  <score_type>  (29) 
oracle

>  <origin>  (29) 
autodockgpu

>  <m_score__min__energy>  (29) 
-9.4000000000000004

>  <m_primary>  (29) 
energy

>  <rmsd>  (29) 
6.838000100935525

>  <m_score__min__rmsd>  (29) 
6.838000100935525

>  <meeko>  (29) 
{"free_energy": -9.0, "intermolecular_energy": -10.2, "internal_energy": -1.15, "cluster_size": 35, "cluster_id": 1, "rank_in_cluster": 28}

>  <energy>  (29) 
-8.99

>  <cluster_rmsd>  (29) 
0.48

>  <cluster>  (29) 
1

$$$$

     RDKit          3D

 59 64  0  0  1  0  0  0  0  0999 V2000
  146.2850   72.0710  220.4560 N   0  0  0  0  0  0  0  0  0  0  0  0
  145.5970   72.9590  219.5720 C   0  0  0  0  0  0  0  0  0  0  0  0
  146.0600   73.2880  218.4510 O   0  0  0  0  0  0  0  0  0  0  0  0
  144.2970   73.5230  219.9610 C   0  0  0  0  0  0  0  0  0  0  0  0
  143.2930   72.6580  220.3300 C   0  0  0  0  0  0  0  0  0  0  0  0
  142.0610   73.1510  220.7020 C   0  0  0  0  0  0  0  0  0  0  0  0
  141.8410   74.5160  220.7000 C   0  0  0  0  0  0  0  0  0  0  0  0
  140.7240   75.2580  221.0230 C   0  0  0  0  0  0  0  0  0  0  0  0
  141.0400   76.6060  220.8500 C   0  0  0  0  0  0  0  0  0  0  0  0
  140.1500   77.7100  221.0830 C   0  0  0  0  0  0  0  0  0  0  0  0
  139.2910   77.9580  220.1750 O   0  0  0  0  0  0  0  0  0  0  0  0
  140.1570   78.5280  222.2220 N   0  0  0  0  0  0  0  0  0  0  0  0
  139.0660   78.7200  223.1900 C   0  0  0  0  0  0  0  0  0  0  0  0
  139.1670   80.2190  223.3850 C   0  0  1  0  0  0  0  0  0  0  0  0
  138.5200   80.8570  222.1730 C   0  0  0  0  0  0  0  0  0  0  0  0
  137.1030   81.0630  222.7260 C   0  0  0  0  0  0  0  0  0  0  0  0
  137.4210   81.6130  224.0300 N   0  0  0  0  0  0  0  0  0  0  0  0
  136.2500   81.7050  224.8780 C   0  0  2  0  0  0  0  0  0  0  0  0
  135.6970   83.1010  224.9150 C   0  0  0  0  0  0  0  0  0  0  0  0
  136.5500   83.7540  225.9580 C   0  0  0  0  0  0  0  0  0  0  0  0
  136.9020   82.7440  226.9080 N   0  0  0  0  0  0  0  0  0  0  0  0
  136.7230   81.4490  226.3090 C   0  0  0  0  0  0  0  0  0  0  0  0
  138.4200   80.7240  224.5810 C   0  0  0  0  0  0  0  0  0  0  0  0
  140.6270   80.4180  223.4430 C   0  0  0  0  0  0  0  0  0  0  0  0
  141.4630   81.3470  224.0120 C   0  0  0  0  0  0  0  0  0  0  0  0
  142.8380   81.2340  223.8680 C   0  0  0  0  0  0  0  0  0  0  0  0
  143.4090   80.1960  223.1560 C   0  0  0  0  0  0  0  0  0  0  0  0
  142.5820   79.2590  222.5810 C   0  0  0  0  0  0  0  0  0  0  0  0
  141.2060   79.3790  222.7290 C   0  0  0  0  0  0  0  0  0  0  0  0
  142.3260   76.6630  220.4310 N   0  0  0  0  0  0  0  0  0  0  0  0
  142.8360   75.4160  220.3320 C   0  0  0  0  0  0  0  0  0  0  0  0
  144.0470   74.8710  219.9700 C   0  0  0  0  0  0  0  0  0  0  0  0
  146.3820   72.2350  221.4760 H   0  0  0  0  0  0  0  0  0  0  0  0
  146.7380   71.1830  220.0960 H   0  0  0  0  0  0  0  0  0  0  0  0
  143.4735   71.5729  220.3281 H   0  0  0  0  0  0  0  0  0  0  0  0
  141.2567   72.4619  220.9990 H   0  0  0  0  0  0  0  0  0  0  0  0
  139.7556   74.8579  221.3577 H   0  0  0  0  0  0  0  0  0  0  0  0
  138.0914   78.4249  222.7740 H   0  0  0  0  0  0  0  0  0  0  0  0
  139.1447   78.1215  224.1096 H   0  0  0  0  0  0  0  0  0  0  0  0
  138.9993   81.8102  221.9053 H   0  0  0  0  0  0  0  0  0  0  0  0
  138.5811   80.2702  221.2446 H   0  0  0  0  0  0  0  0  0  0  0  0
  136.5245   81.7708  222.1141 H   0  0  0  0  0  0  0  0  0  0  0  0
  136.4759   80.1594  222.7439 H   0  0  0  0  0  0  0  0  0  0  0  0
  135.4944   81.0009  224.4996 H   0  0  0  0  0  0  0  0  0  0  0  0
  135.8076   83.5993  223.9406 H   0  0  0  0  0  0  0  0  0  0  0  0
  134.6204   83.1428  225.1367 H   0  0  0  0  0  0  0  0  0  0  0  0
  137.4576   84.1703  225.4965 H   0  0  0  0  0  0  0  0  0  0  0  0
  136.0089   84.5781  226.4459 H   0  0  0  0  0  0  0  0  0  0  0  0
  137.9040   82.9310  227.1870 H   0  0  0  0  0  0  0  0  0  0  0  0
  137.6740   80.8963  226.3035 H   0  0  0  0  0  0  0  0  0  0  0  0
  135.9958   80.8439  226.8702 H   0  0  0  0  0  0  0  0  0  0  0  0
  139.0934   81.2677  225.2599 H   0  0  0  0  0  0  0  0  0  0  0  0
  137.9769   79.9102  225.1739 H   0  0  0  0  0  0  0  0  0  0  0  0
  141.0400   82.1853  224.5850 H   0  0  0  0  0  0  0  0  0  0  0  0
  143.4899   81.9889  224.3318 H   0  0  0  0  0  0  0  0  0  0  0  0
  144.5014   80.1207  223.0514 H   0  0  0  0  0  0  0  0  0  0  0  0
  143.0070   78.4214  222.0085 H   0  0  0  0  0  0  0  0  0  0  0  0
  142.8940   77.5070  220.2040 H   0  0  0  0  0  0  0  0  0  0  0  0
  144.8570   75.5530  219.6722 H   0  0  0  0  0  0  0  0  0  0  0  0
  1  2  1  0
  2  3  2  0
  2  4  1  0
  4  5  2  0
  5  6  1  0
  6  7  2  0
  7  8  1  0
  8  9  2  0
  9 10  1  0
 10 11  2  0
 10 12  1  0
 12 13  1  0
 14 13  1  6
 14 15  1  0
 15 16  1  0
 16 17  1  0
 17 18  1  0
 18 19  1  0
 19 20  1  0
 20 21  1  0
 21 22  1  0
 17 23  1  0
 14 24  1  0
 24 25  2  0
 25 26  1  0
 26 27  2  0
 27 28  1  0
 28 29  2  0
  9 30  1  0
 30 31  1  0
 31 32  2  0
 32  4  1  0
 31  7  1  0
 29 12  1  0
 23 14  1  0
 29 24  1  0
 22 18  1  0
  1 33  1  0
  1 34  1  0
  5 35  1  0
  6 36  1  0
  8 37  1  0
 13 38  1  0
 13 39  1  0
 15 40  1  0
 15 41  1  0
 16 42  1  0
 16 43  1  0
 18 44  1  6
 19 45  1  0
 19 46  1  0
 20 47  1  0
 20 48  1  0
 21 49  1  0
 22 50  1  0
 22 51  1  0
 23 52  1  0
 23 53  1  0
 25 54  1  0
 26 55  1  0
 27 56  1  0
 28 57  1  0
 30 58  1  0
 32 59  1  0
M  END
>  <smiles>  (30) 
NC(=O)c1ccc2cc(C(=O)N3C[C@]4(CCN(C5CCNC5)C4)c4ccccc43)[nH]c2c1

>  <score_type>  (30) 
oracle

>  <origin>  (30) 
autodockgpu

>  <m_score__min__energy>  (30) 
-9.4000000000000004

>  <m_primary>  (30) 
energy

>  <rmsd>  (30) 
6.769632540531483

>  <m_score__min__rmsd>  (30) 
6.769632540531483

>  <meeko>  (30) 
{"free_energy": -9.38, "intermolecular_energy": -10.58, "internal_energy": -1.22, "cluster_size": 35, "cluster_id": 1, "rank_in_cluster": 2}

>  <energy>  (30) 
-8.97

>  <cluster_rmsd>  (30) 
0.47

>  <cluster>  (30) 
1

$$$$

     RDKit          3D

 59 64  0  0  1  0  0  0  0  0999 V2000
  145.9530   72.7160  220.8620 N   0  0  0  0  0  0  0  0  0  0  0  0
  145.6150   73.2560  219.5830 C   0  0  0  0  0  0  0  0  0  0  0  0
  146.2840   73.0090  218.5490 O   0  0  0  0  0  0  0  0  0  0  0  0
  144.4460   74.1360  219.4420 C   0  0  0  0  0  0  0  0  0  0  0  0
  144.0690   74.5250  218.1780 C   0  0  0  0  0  0  0  0  0  0  0  0
  142.9780   75.3490  218.0090 C   0  0  0  0  0  0  0  0  0  0  0  0
  142.2680   75.7810  219.1130 C   0  0  0  0  0  0  0  0  0  0  0  0
  141.1590   76.5940  219.2210 C   0  0  0  0  0  0  0  0  0  0  0  0
  140.8420   76.7100  220.5750 C   0  0  0  0  0  0  0  0  0  0  0  0
  139.7490   77.4700  221.1160 C   0  0  0  0  0  0  0  0  0  0  0  0
  138.6200   77.3480  220.5370 O   0  0  0  0  0  0  0  0  0  0  0  0
  139.8300   78.3270  222.2240 N   0  0  0  0  0  0  0  0  0  0  0  0
  138.7950   78.5740  223.2390 C   0  0  0  0  0  0  0  0  0  0  0  0
  138.9330   80.0770  223.3740 C   0  0  1  0  0  0  0  0  0  0  0  0
  138.2350   80.6850  222.1750 C   0  0  0  0  0  0  0  0  0  0  0  0
  136.8520   80.9380  222.7920 C   0  0  0  0  0  0  0  0  0  0  0  0
  137.2490   81.5270  224.0580 N   0  0  0  0  0  0  0  0  0  0  0  0
  136.1250   81.6720  224.9610 C   0  0  2  0  0  0  0  0  0  0  0  0
  135.6290   83.0890  225.0100 C   0  0  0  0  0  0  0  0  0  0  0  0
  136.5560   83.7180  226.0030 C   0  0  0  0  0  0  0  0  0  0  0  0
  136.9160   82.7030  226.9450 N   0  0  0  0  0  0  0  0  0  0  0  0
  136.6590   81.4110  226.3700 C   0  0  0  0  0  0  0  0  0  0  0  0
  138.2590   80.6380  224.5890 C   0  0  0  0  0  0  0  0  0  0  0  0
  140.3970   80.2500  223.3490 C   0  0  0  0  0  0  0  0  0  0  0  0
  141.2780   81.1810  223.8410 C   0  0  0  0  0  0  0  0  0  0  0  0
  142.6420   81.0350  223.6300 C   0  0  0  0  0  0  0  0  0  0  0  0
  143.1560   79.9620  222.9270 C   0  0  0  0  0  0  0  0  0  0  0  0
  142.2830   79.0220  222.4300 C   0  0  0  0  0  0  0  0  0  0  0  0
  140.9190   79.1740  222.6440 C   0  0  0  0  0  0  0  0  0  0  0  0
  141.7510   75.9780  221.2600 N   0  0  0  0  0  0  0  0  0  0  0  0
  142.6240   75.4040  220.4040 C   0  0  0  0  0  0  0  0  0  0  0  0
  143.7210   74.5810  220.5180 C   0  0  0  0  0  0  0  0  0  0  0  0
  145.9540   73.2700  221.7400 H   0  0  0  0  0  0  0  0  0  0  0  0
  146.2250   71.6970  220.9720 H   0  0  0  0  0  0  0  0  0  0  0  0
  144.6381   74.1785  217.3027 H   0  0  0  0  0  0  0  0  0  0  0  0
  142.6733   75.6618  216.9994 H   0  0  0  0  0  0  0  0  0  0  0  0
  140.6198   77.0673  218.3872 H   0  0  0  0  0  0  0  0  0  0  0  0
  137.7949   78.2837  222.8847 H   0  0  0  0  0  0  0  0  0  0  0  0
  138.9108   78.0067  224.1743 H   0  0  0  0  0  0  0  0  0  0  0  0
  138.7165   81.6188  221.8492 H   0  0  0  0  0  0  0  0  0  0  0  0
  138.2372   80.0649  221.2664 H   0  0  0  0  0  0  0  0  0  0  0  0
  136.2552   81.6354  222.1858 H   0  0  0  0  0  0  0  0  0  0  0  0
  136.2099   80.0486  222.8742 H   0  0  0  0  0  0  0  0  0  0  0  0
  135.3248   80.9947  224.6279 H   0  0  0  0  0  0  0  0  0  0  0  0
  135.7109   83.5739  224.0260 H   0  0  0  0  0  0  0  0  0  0  0  0
  134.5670   83.1744  225.2836 H   0  0  0  0  0  0  0  0  0  0  0  0
  137.4548   84.0956  225.4935 H   0  0  0  0  0  0  0  0  0  0  0  0
  136.0711   84.5664  226.5081 H   0  0  0  0  0  0  0  0  0  0  0  0
  137.9370   82.8540  227.1720 H   0  0  0  0  0  0  0  0  0  0  0  0
  137.5871   80.8225  226.3235 H   0  0  0  0  0  0  0  0  0  0  0  0
  135.9385   80.8391  226.9731 H   0  0  0  0  0  0  0  0  0  0  0  0
  138.9767   81.1915  225.2123 H   0  0  0  0  0  0  0  0  0  0  0  0
  137.8332   79.8546  225.2332 H   0  0  0  0  0  0  0  0  0  0  0  0
  140.9010   82.0468  224.4051 H   0  0  0  0  0  0  0  0  0  0  0  0
  143.3310   81.7922  224.0324 H   0  0  0  0  0  0  0  0  0  0  0  0
  144.2398   79.8616  222.7682 H   0  0  0  0  0  0  0  0  0  0  0  0
  142.6624   78.1564  221.8672 H   0  0  0  0  0  0  0  0  0  0  0  0
  141.8210   75.8370  222.2910 H   0  0  0  0  0  0  0  0  0  0  0  0
  144.0326   74.2636  221.5241 H   0  0  0  0  0  0  0  0  0  0  0  0
  1  2  1  0
  2  3  2  0
  2  4  1  0
  4  5  2  0
  5  6  1  0
  6  7  2  0
  7  8  1  0
  8  9  2  0
  9 10  1  0
 10 11  2  0
 10 12  1  0
 12 13  1  0
 14 13  1  6
 14 15  1  0
 15 16  1  0
 16 17  1  0
 17 18  1  0
 18 19  1  0
 19 20  1  0
 20 21  1  0
 21 22  1  0
 17 23  1  0
 14 24  1  0
 24 25  2  0
 25 26  1  0
 26 27  2  0
 27 28  1  0
 28 29  2  0
  9 30  1  0
 30 31  1  0
 31 32  2  0
 32  4  1  0
 31  7  1  0
 29 12  1  0
 23 14  1  0
 29 24  1  0
 22 18  1  0
  1 33  1  0
  1 34  1  0
  5 35  1  0
  6 36  1  0
  8 37  1  0
 13 38  1  0
 13 39  1  0
 15 40  1  0
 15 41  1  0
 16 42  1  0
 16 43  1  0
 18 44  1  6
 19 45  1  0
 19 46  1  0
 20 47  1  0
 20 48  1  0
 21 49  1  0
 22 50  1  0
 22 51  1  0
 23 52  1  0
 23 53  1  0
 25 54  1  0
 26 55  1  0
 27 56  1  0
 28 57  1  0
 30 58  1  0
 32 59  1  0
M  END
>  <smiles>  (31) 
NC(=O)c1ccc2cc(C(=O)N3C[C@]4(CCN(C5CCNC5)C4)c4ccccc43)[nH]c2c1

>  <score_type>  (31) 
oracle

>  <origin>  (31) 
autodockgpu

>  <m_score__min__energy>  (31) 
-9.4000000000000004

>  <m_primary>  (31) 
energy

>  <rmsd>  (31) 
7.130041514697015

>  <m_score__min__rmsd>  (31) 
7.130041514697015

>  <meeko>  (31) 
{"free_energy": -9.13, "intermolecular_energy": -10.32, "internal_energy": -1.26, "cluster_size": 35, "cluster_id": 1, "rank_in_cluster": 21}

>  <energy>  (31) 
-8.64

>  <cluster_rmsd>  (31) 
1.26

>  <cluster>  (31) 
1

$$$$

     RDKit          3D

 59 64  0  0  1  0  0  0  0  0999 V2000
  146.1090   72.9740  220.9120 N   0  0  0  0  0  0  0  0  0  0  0  0
  145.5170   73.1680  219.6260 C   0  0  0  0  0  0  0  0  0  0  0  0
  145.9330   72.5790  218.5970 O   0  0  0  0  0  0  0  0  0  0  0  0
  144.3780   74.0830  219.4710 C   0  0  0  0  0  0  0  0  0  0  0  0
  144.0460   74.5050  218.2050 C   0  0  0  0  0  0  0  0  0  0  0  0
  142.9830   75.3630  218.0220 C   0  0  0  0  0  0  0  0  0  0  0  0
  142.2580   75.7970  219.1150 C   0  0  0  0  0  0  0  0  0  0  0  0
  141.1700   76.6400  219.2090 C   0  0  0  0  0  0  0  0  0  0  0  0
  140.8220   76.7430  220.5560 C   0  0  0  0  0  0  0  0  0  0  0  0
  139.7370   77.5250  221.0830 C   0  0  0  0  0  0  0  0  0  0  0  0
  138.6160   77.4300  220.4850 O   0  0  0  0  0  0  0  0  0  0  0  0
  139.8200   78.3760  222.1950 N   0  0  0  0  0  0  0  0  0  0  0  0
  138.7820   78.6250  223.2070 C   0  0  0  0  0  0  0  0  0  0  0  0
  138.9290   80.1270  223.3500 C   0  0  1  0  0  0  0  0  0  0  0  0
  138.2400   80.7450  222.1510 C   0  0  0  0  0  0  0  0  0  0  0  0
  136.8570   81.0040  222.7640 C   0  0  0  0  0  0  0  0  0  0  0  0
  137.2520   81.5840  224.0340 N   0  0  0  0  0  0  0  0  0  0  0  0
  136.1260   81.7320  224.9340 C   0  0  2  0  0  0  0  0  0  0  0  0
  135.6290   83.1490  224.9770 C   0  0  0  0  0  0  0  0  0  0  0  0
  136.5540   83.7810  225.9700 C   0  0  0  0  0  0  0  0  0  0  0  0
  136.9110   82.7700  226.9170 N   0  0  0  0  0  0  0  0  0  0  0  0
  136.6550   81.4750  226.3450 C   0  0  0  0  0  0  0  0  0  0  0  0
  138.2540   80.6860  224.5650 C   0  0  0  0  0  0  0  0  0  0  0  0
  140.3950   80.2890  223.3320 C   0  0  0  0  0  0  0  0  0  0  0  0
  141.2800   81.2120  223.8310 C   0  0  0  0  0  0  0  0  0  0  0  0
  142.6440   81.0590  223.6250 C   0  0  0  0  0  0  0  0  0  0  0  0
  143.1540   79.9860  222.9190 C   0  0  0  0  0  0  0  0  0  0  0  0
  142.2760   79.0540  222.4140 C   0  0  0  0  0  0  0  0  0  0  0  0
  140.9130   79.2140  222.6240 C   0  0  0  0  0  0  0  0  0  0  0  0
  141.6910   75.9730  221.2520 N   0  0  0  0  0  0  0  0  0  0  0  0
  142.5700   75.3880  220.4080 C   0  0  0  0  0  0  0  0  0  0  0  0
  143.6380   74.5320  220.5350 C   0  0  0  0  0  0  0  0  0  0  0  0
  146.3240   73.7480  221.5700 H   0  0  0  0  0  0  0  0  0  0  0  0
  146.3630   72.0050  221.2580 H   0  0  0  0  0  0  0  0  0  0  0  0
  144.6285   74.1580  217.3388 H   0  0  0  0  0  0  0  0  0  0  0  0
  142.7132   75.7006  217.0105 H   0  0  0  0  0  0  0  0  0  0  0  0
  140.6660   77.1422  218.3701 H   0  0  0  0  0  0  0  0  0  0  0  0
  137.7816   78.3428  222.8470 H   0  0  0  0  0  0  0  0  0  0  0  0
  138.8902   78.0525  224.1401 H   0  0  0  0  0  0  0  0  0  0  0  0
  138.7289   81.6771  221.8313 H   0  0  0  0  0  0  0  0  0  0  0  0
  138.2418   80.1294  221.2394 H   0  0  0  0  0  0  0  0  0  0  0  0
  136.2671   81.7082  222.1589 H   0  0  0  0  0  0  0  0  0  0  0  0
  136.2092   80.1182  222.8395 H   0  0  0  0  0  0  0  0  0  0  0  0
  135.3271   81.0533  224.6007 H   0  0  0  0  0  0  0  0  0  0  0  0
  135.7128   83.6307  223.9916 H   0  0  0  0  0  0  0  0  0  0  0  0
  134.5663   83.2352  225.2477 H   0  0  0  0  0  0  0  0  0  0  0  0
  137.4543   84.1559  225.4612 H   0  0  0  0  0  0  0  0  0  0  0  0
  136.0682   84.6315  226.4706 H   0  0  0  0  0  0  0  0  0  0  0  0
  137.9320   82.9210  227.1460 H   0  0  0  0  0  0  0  0  0  0  0  0
  137.5830   80.8858  226.3034 H   0  0  0  0  0  0  0  0  0  0  0  0
  135.9323   80.9052  226.9476 H   0  0  0  0  0  0  0  0  0  0  0  0
  138.9727   81.2317  225.1940 H   0  0  0  0  0  0  0  0  0  0  0  0
  137.8207   79.9023  225.2038 H   0  0  0  0  0  0  0  0  0  0  0  0
  140.9061   82.0777  224.3973 H   0  0  0  0  0  0  0  0  0  0  0  0
  143.3360   81.8101  224.0336 H   0  0  0  0  0  0  0  0  0  0  0  0
  144.2378   79.8791  222.7641 H   0  0  0  0  0  0  0  0  0  0  0  0
  142.6515   78.1887  221.8481 H   0  0  0  0  0  0  0  0  0  0  0  0
  141.7300   75.8120  222.2820 H   0  0  0  0  0  0  0  0  0  0  0  0
  143.9137   74.1890  221.5431 H   0  0  0  0  0  0  0  0  0  0  0  0
  1  2  1  0
  2  3  2  0
  2  4  1  0
  4  5  2  0
  5  6  1  0
  6  7  2  0
  7  8  1  0
  8  9  2  0
  9 10  1  0
 10 11  2  0
 10 12  1  0
 12 13  1  0
 14 13  1  6
 14 15  1  0
 15 16  1  0
 16 17  1  0
 17 18  1  0
 18 19  1  0
 19 20  1  0
 20 21  1  0
 21 22  1  0
 17 23  1  0
 14 24  1  0
 24 25  2  0
 25 26  1  0
 26 27  2  0
 27 28  1  0
 28 29  2  0
  9 30  1  0
 30 31  1  0
 31 32  2  0
 32  4  1  0
 31  7  1  0
 29 12  1  0
 23 14  1  0
 29 24  1  0
 22 18  1  0
  1 33  1  0
  1 34  1  0
  5 35  1  0
  6 36  1  0
  8 37  1  0
 13 38  1  0
 13 39  1  0
 15 40  1  0
 15 41  1  0
 16 42  1  0
 16 43  1  0
 18 44  1  6
 19 45  1  0
 19 46  1  0
 20 47  1  0
 20 48  1  0
 21 49  1  0
 22 50  1  0
 22 51  1  0
 23 52  1  0
 23 53  1  0
 25 54  1  0
 26 55  1  0
 27 56  1  0
 28 57  1  0
 30 58  1  0
 32 59  1  0
M  END
>  <smiles>  (32) 
NC(=O)c1ccc2cc(C(=O)N3C[C@]4(CCN(C5CCNC5)C4)c4ccccc43)[nH]c2c1

>  <score_type>  (32) 
oracle

>  <origin>  (32) 
autodockgpu

>  <m_score__min__energy>  (32) 
-9.4000000000000004

>  <m_primary>  (32) 
energy

>  <rmsd>  (32) 
7.122733045118318

>  <m_score__min__rmsd>  (32) 
7.122733045118318

>  <meeko>  (32) 
{"free_energy": -9.15, "intermolecular_energy": -10.35, "internal_energy": -1.25, "cluster_size": 35, "cluster_id": 1, "rank_in_cluster": 19}

>  <energy>  (32) 
-8.59

>  <cluster_rmsd>  (32) 
0.93

>  <cluster>  (32) 
1

$$$$

     RDKit          3D

 59 64  0  0  1  0  0  0  0  0999 V2000
  145.9760   72.9280  220.9090 N   0  0  0  0  0  0  0  0  0  0  0  0
  145.4680   73.1710  219.5960 C   0  0  0  0  0  0  0  0  0  0  0  0
  145.9150   72.5830  218.5800 O   0  0  0  0  0  0  0  0  0  0  0  0
  144.3810   74.1390  219.3960 C   0  0  0  0  0  0  0  0  0  0  0  0
  144.0690   74.5160  218.1100 C   0  0  0  0  0  0  0  0  0  0  0  0
  143.0550   75.4220  217.8850 C   0  0  0  0  0  0  0  0  0  0  0  0
  142.3570   75.9480  218.9560 C   0  0  0  0  0  0  0  0  0  0  0  0
  141.3170   76.8530  219.0080 C   0  0  0  0  0  0  0  0  0  0  0  0
  140.9780   77.0400  220.3480 C   0  0  0  0  0  0  0  0  0  0  0  0
  139.9390   77.9050  220.8360 C   0  0  0  0  0  0  0  0  0  0  0  0
  138.8960   78.0170  220.1120 O   0  0  0  0  0  0  0  0  0  0  0  0
  139.9870   78.6280  222.0370 N   0  0  0  0  0  0  0  0  0  0  0  0
  138.9180   78.7680  223.0370 C   0  0  0  0  0  0  0  0  0  0  0  0
  139.0600   80.2440  223.3500 C   0  0  1  0  0  0  0  0  0  0  0  0
  138.4070   80.9920  222.2050 C   0  0  0  0  0  0  0  0  0  0  0  0
  137.0050   81.1850  222.8010 C   0  0  0  0  0  0  0  0  0  0  0  0
  137.3610   81.6220  224.1380 N   0  0  0  0  0  0  0  0  0  0  0  0
  136.2070   81.6730  225.0130 C   0  0  2  0  0  0  0  0  0  0  0  0
  135.5530   83.0250  224.9950 C   0  0  0  0  0  0  0  0  0  0  0  0
  136.3800   83.7930  225.9770 C   0  0  0  0  0  0  0  0  0  0  0  0
  136.8300   82.8640  226.9670 N   0  0  0  0  0  0  0  0  0  0  0  0
  136.7340   81.5290  226.4420 C   0  0  0  0  0  0  0  0  0  0  0  0
  138.3470   80.6680  224.5970 C   0  0  0  0  0  0  0  0  0  0  0  0
  140.5250   80.4030  223.3950 C   0  0  0  0  0  0  0  0  0  0  0  0
  141.3930   81.2640  224.0200 C   0  0  0  0  0  0  0  0  0  0  0  0
  142.7630   81.1300  223.8400 C   0  0  0  0  0  0  0  0  0  0  0  0
  143.2950   80.1400  223.0360 C   0  0  0  0  0  0  0  0  0  0  0  0
  142.4350   79.2720  222.4050 C   0  0  0  0  0  0  0  0  0  0  0  0
  141.0650   79.4110  222.5890 C   0  0  0  0  0  0  0  0  0  0  0  0
  141.8050   76.2580  221.0810 N   0  0  0  0  0  0  0  0  0  0  0  0
  142.6480   75.5860  220.2680 C   0  0  0  0  0  0  0  0  0  0  0  0
  143.6690   74.6790  220.4370 C   0  0  0  0  0  0  0  0  0  0  0  0
  146.1860   73.6790  221.5940 H   0  0  0  0  0  0  0  0  0  0  0  0
  146.1670   71.9420  221.2490 H   0  0  0  0  0  0  0  0  0  0  0  0
  144.6286   74.0945  217.2619 H   0  0  0  0  0  0  0  0  0  0  0  0
  142.8024   75.7250  216.8582 H   0  0  0  0  0  0  0  0  0  0  0  0
  140.8396   77.3408  218.1453 H   0  0  0  0  0  0  0  0  0  0  0  0
  137.9294   78.5309  222.6168 H   0  0  0  0  0  0  0  0  0  0  0  0
  138.9971   78.0958  223.9041 H   0  0  0  0  0  0  0  0  0  0  0  0
  138.9043   81.9525  222.0048 H   0  0  0  0  0  0  0  0  0  0  0  0
  138.4374   80.4805  221.2316 H   0  0  0  0  0  0  0  0  0  0  0  0
  136.4325   81.9522  222.2591 H   0  0  0  0  0  0  0  0  0  0  0  0
  136.3565   80.2975  222.7596 H   0  0  0  0  0  0  0  0  0  0  0  0
  135.4966   80.8967  224.6925 H   0  0  0  0  0  0  0  0  0  0  0  0
  135.6014   83.4775  223.9936 H   0  0  0  0  0  0  0  0  0  0  0  0
  134.4823   82.9995  225.2460 H   0  0  0  0  0  0  0  0  0  0  0  0
  137.2421   84.2494  225.4686 H   0  0  0  0  0  0  0  0  0  0  0  0
  135.7913   84.6002  226.4372 H   0  0  0  0  0  0  0  0  0  0  0  0
  137.8220   83.1390  227.2070 H   0  0  0  0  0  0  0  0  0  0  0  0
  137.7234   81.0483  226.4376 H   0  0  0  0  0  0  0  0  0  0  0  0
  136.0690   80.9026  227.0548 H   0  0  0  0  0  0  0  0  0  0  0  0
  139.0455   81.1392  225.3042 H   0  0  0  0  0  0  0  0  0  0  0  0
  137.8943   79.8198  225.1314 H   0  0  0  0  0  0  0  0  0  0  0  0
  141.0012   82.0634  224.6661 H   0  0  0  0  0  0  0  0  0  0  0  0
  143.4419   81.8292  224.3500 H   0  0  0  0  0  0  0  0  0  0  0  0
  144.3831   80.0482  222.9035 H   0  0  0  0  0  0  0  0  0  0  0  0
  142.8290   78.4734  221.7592 H   0  0  0  0  0  0  0  0  0  0  0  0
  141.8370   76.1460  222.1170 H   0  0  0  0  0  0  0  0  0  0  0  0
  143.9279   74.3707  221.4607 H   0  0  0  0  0  0  0  0  0  0  0  0
  1  2  1  0
  2  3  2  0
  2  4  1  0
  4  5  2  0
  5  6  1  0
  6  7  2  0
  7  8  1  0
  8  9  2  0
  9 10  1  0
 10 11  2  0
 10 12  1  0
 12 13  1  0
 14 13  1  6
 14 15  1  0
 15 16  1  0
 16 17  1  0
 17 18  1  0
 18 19  1  0
 19 20  1  0
 20 21  1  0
 21 22  1  0
 17 23  1  0
 14 24  1  0
 24 25  2  0
 25 26  1  0
 26 27  2  0
 27 28  1  0
 28 29  2  0
  9 30  1  0
 30 31  1  0
 31 32  2  0
 32  4  1  0
 31  7  1  0
 29 12  1  0
 23 14  1  0
 29 24  1  0
 22 18  1  0
  1 33  1  0
  1 34  1  0
  5 35  1  0
  6 36  1  0
  8 37  1  0
 13 38  1  0
 13 39  1  0
 15 40  1  0
 15 41  1  0
 16 42  1  0
 16 43  1  0
 18 44  1  6
 19 45  1  0
 19 46  1  0
 20 47  1  0
 20 48  1  0
 21 49  1  0
 22 50  1  0
 22 51  1  0
 23 52  1  0
 23 53  1  0
 25 54  1  0
 26 55  1  0
 27 56  1  0
 28 57  1  0
 30 58  1  0
 32 59  1  0
M  END
>  <smiles>  (33) 
NC(=O)c1ccc2cc(C(=O)N3C[C@]4(CCN(C5CCNC5)C4)c4ccccc43)[nH]c2c1

>  <score_type>  (33) 
oracle

>  <origin>  (33) 
autodockgpu

>  <m_score__min__energy>  (33) 
-9.4000000000000004

>  <m_primary>  (33) 
energy

>  <rmsd>  (33) 
7.223281806043357

>  <m_score__min__rmsd>  (33) 
7.223281806043357

>  <meeko>  (33) 
{"free_energy": -9.36, "intermolecular_energy": -10.55, "internal_energy": -1.23, "cluster_size": 35, "cluster_id": 1, "rank_in_cluster": 4}

>  <energy>  (33) 
-8.51

>  <cluster_rmsd>  (33) 
1.24

>  <cluster>  (33) 
1

$$$$

     RDKit          3D

 59 64  0  0  1  0  0  0  0  0999 V2000
  145.9860   72.9140  220.9060 N   0  0  0  0  0  0  0  0  0  0  0  0
  145.4480   73.1240  219.5980 C   0  0  0  0  0  0  0  0  0  0  0  0
  145.8550   72.4930  218.5920 O   0  0  0  0  0  0  0  0  0  0  0  0
  144.3770   74.1100  219.3940 C   0  0  0  0  0  0  0  0  0  0  0  0
  144.0850   74.5010  218.1080 C   0  0  0  0  0  0  0  0  0  0  0  0
  143.0870   75.4230  217.8790 C   0  0  0  0  0  0  0  0  0  0  0  0
  142.3850   75.9510  218.9460 C   0  0  0  0  0  0  0  0  0  0  0  0
  141.3570   76.8710  218.9940 C   0  0  0  0  0  0  0  0  0  0  0  0
  141.0070   77.0530  220.3310 C   0  0  0  0  0  0  0  0  0  0  0  0
  139.9750   77.9300  220.8140 C   0  0  0  0  0  0  0  0  0  0  0  0
  138.9470   78.0720  220.0740 O   0  0  0  0  0  0  0  0  0  0  0  0
  140.0150   78.6340  222.0270 N   0  0  0  0  0  0  0  0  0  0  0  0
  138.9390   78.7590  223.0210 C   0  0  0  0  0  0  0  0  0  0  0  0
  139.0800   80.2300  223.3580 C   0  0  1  0  0  0  0  0  0  0  0  0
  138.4380   80.9970  222.2210 C   0  0  0  0  0  0  0  0  0  0  0  0
  137.0320   81.1830  222.8090 C   0  0  0  0  0  0  0  0  0  0  0  0
  137.3770   81.5980  224.1560 N   0  0  0  0  0  0  0  0  0  0  0  0
  136.2170   81.6370  225.0230 C   0  0  2  0  0  0  0  0  0  0  0  0
  135.6410   83.0200  225.1200 C   0  0  0  0  0  0  0  0  0  0  0  0
  136.4970   83.6490  226.1750 C   0  0  0  0  0  0  0  0  0  0  0  0
  136.8810   82.6110  227.0810 N   0  0  0  0  0  0  0  0  0  0  0  0
  136.7170   81.3360  226.4360 C   0  0  0  0  0  0  0  0  0  0  0  0
  138.3590   80.6350  224.6070 C   0  0  0  0  0  0  0  0  0  0  0  0
  140.5450   80.3860  223.4170 C   0  0  0  0  0  0  0  0  0  0  0  0
  141.4100   81.2350  224.0620 C   0  0  0  0  0  0  0  0  0  0  0  0
  142.7810   81.1020  223.8900 C   0  0  0  0  0  0  0  0  0  0  0  0
  143.3180   80.1240  223.0750 C   0  0  0  0  0  0  0  0  0  0  0  0
  142.4610   79.2670  222.4230 C   0  0  0  0  0  0  0  0  0  0  0  0
  141.0900   79.4060  222.6000 C   0  0  0  0  0  0  0  0  0  0  0  0
  141.8140   76.2540  221.0670 N   0  0  0  0  0  0  0  0  0  0  0  0
  142.6560   75.5750  220.2580 C   0  0  0  0  0  0  0  0  0  0  0  0
  143.6620   74.6520  220.4310 C   0  0  0  0  0  0  0  0  0  0  0  0
  146.2300   73.6820  221.5590 H   0  0  0  0  0  0  0  0  0  0  0  0
  146.1640   71.9360  221.2740 H   0  0  0  0  0  0  0  0  0  0  0  0
  144.6479   74.0779  217.2629 H   0  0  0  0  0  0  0  0  0  0  0  0
  142.8501   75.7373  216.8518 H   0  0  0  0  0  0  0  0  0  0  0  0
  140.8956   77.3719  218.1301 H   0  0  0  0  0  0  0  0  0  0  0  0
  137.9534   78.5293  222.5900 H   0  0  0  0  0  0  0  0  0  0  0  0
  139.0111   78.0732  223.8780 H   0  0  0  0  0  0  0  0  0  0  0  0
  138.9386   81.9596  222.0402 H   0  0  0  0  0  0  0  0  0  0  0  0
  138.4752   80.5013  221.2397 H   0  0  0  0  0  0  0  0  0  0  0  0
  136.4652   81.9598  222.2748 H   0  0  0  0  0  0  0  0  0  0  0  0
  136.3828   80.2971  222.7484 H   0  0  0  0  0  0  0  0  0  0  0  0
  135.4675   80.9345  224.6297 H   0  0  0  0  0  0  0  0  0  0  0  0
  135.7291   83.5562  224.1636 H   0  0  0  0  0  0  0  0  0  0  0  0
  134.5671   83.0341  225.3579 H   0  0  0  0  0  0  0  0  0  0  0  0
  137.3901   84.0993  225.7171 H   0  0  0  0  0  0  0  0  0  0  0  0
  135.9481   84.4439  226.7012 H   0  0  0  0  0  0  0  0  0  0  0  0
  137.8840   82.8060  227.3520 H   0  0  0  0  0  0  0  0  0  0  0  0
  137.6780   80.8023  226.3953 H   0  0  0  0  0  0  0  0  0  0  0  0
  136.0103   80.6960  226.9846 H   0  0  0  0  0  0  0  0  0  0  0  0
  139.0532   81.0939  225.3264 H   0  0  0  0  0  0  0  0  0  0  0  0
  137.9016   79.7791  225.1249 H   0  0  0  0  0  0  0  0  0  0  0  0
  141.0147   82.0244  224.7182 H   0  0  0  0  0  0  0  0  0  0  0  0
  143.4569   81.7925  224.4157 H   0  0  0  0  0  0  0  0  0  0  0  0
  144.4070   80.0324  222.9500 H   0  0  0  0  0  0  0  0  0  0  0  0
  142.8583   78.4784  221.7671 H   0  0  0  0  0  0  0  0  0  0  0  0
  141.8330   76.1330  222.1030 H   0  0  0  0  0  0  0  0  0  0  0  0
  143.9053   74.3322  221.4550 H   0  0  0  0  0  0  0  0  0  0  0  0
  1  2  1  0
  2  3  2  0
  2  4  1  0
  4  5  2  0
  5  6  1  0
  6  7  2  0
  7  8  1  0
  8  9  2  0
  9 10  1  0
 10 11  2  0
 10 12  1  0
 12 13  1  0
 14 13  1  6
 14 15  1  0
 15 16  1  0
 16 17  1  0
 17 18  1  0
 18 19  1  0
 19 20  1  0
 20 21  1  0
 21 22  1  0
 17 23  1  0
 14 24  1  0
 24 25  2  0
 25 26  1  0
 26 27  2  0
 27 28  1  0
 28 29  2  0
  9 30  1  0
 30 31  1  0
 31 32  2  0
 32  4  1  0
 31  7  1  0
 29 12  1  0
 23 14  1  0
 29 24  1  0
 22 18  1  0
  1 33  1  0
  1 34  1  0
  5 35  1  0
  6 36  1  0
  8 37  1  0
 13 38  1  0
 13 39  1  0
 15 40  1  0
 15 41  1  0
 16 42  1  0
 16 43  1  0
 18 44  1  6
 19 45  1  0
 19 46  1  0
 20 47  1  0
 20 48  1  0
 21 49  1  0
 22 50  1  0
 22 51  1  0
 23 52  1  0
 23 53  1  0
 25 54  1  0
 26 55  1  0
 27 56  1  0
 28 57  1  0
 30 58  1  0
 32 59  1  0
M  END
>  <smiles>  (34) 
NC(=O)c1ccc2cc(C(=O)N3C[C@]4(CCN(C5CCNC5)C4)c4ccccc43)[nH]c2c1

>  <score_type>  (34) 
oracle

>  <origin>  (34) 
autodockgpu

>  <m_score__min__energy>  (34) 
-9.4000000000000004

>  <m_primary>  (34) 
energy

>  <rmsd>  (34) 
7.224480043992811

>  <m_score__min__rmsd>  (34) 
7.224480043992811

>  <meeko>  (34) 
{"free_energy": -9.33, "intermolecular_energy": -10.52, "internal_energy": -1.24, "cluster_size": 35, "cluster_id": 1, "rank_in_cluster": 8}

>  <energy>  (34) 
-8.51

>  <cluster_rmsd>  (34) 
1.25

>  <cluster>  (34) 
1

$$$$

     RDKit          3D

 59 64  0  0  1  0  0  0  0  0999 V2000
  145.5560   72.1520  220.5110 N   0  0  0  0  0  0  0  0  0  0  0  0
  145.5840   73.2050  219.5450 C   0  0  0  0  0  0  0  0  0  0  0  0
  146.5730   73.4100  218.7990 O   0  0  0  0  0  0  0  0  0  0  0  0
  144.4250   74.0970  219.3980 C   0  0  0  0  0  0  0  0  0  0  0  0
  144.0430   74.4680  218.1300 C   0  0  0  0  0  0  0  0  0  0  0  0
  142.9610   75.3030  217.9530 C   0  0  0  0  0  0  0  0  0  0  0  0
  142.2650   75.7640  219.0550 C   0  0  0  0  0  0  0  0  0  0  0  0
  141.1670   76.5930  219.1560 C   0  0  0  0  0  0  0  0  0  0  0  0
  140.8630   76.7380  220.5100 C   0  0  0  0  0  0  0  0  0  0  0  0
  139.7830   77.5210  221.0460 C   0  0  0  0  0  0  0  0  0  0  0  0
  138.6630   77.4470  220.4410 O   0  0  0  0  0  0  0  0  0  0  0  0
  139.8690   78.3510  222.1730 N   0  0  0  0  0  0  0  0  0  0  0  0
  138.8360   78.5790  223.1940 C   0  0  0  0  0  0  0  0  0  0  0  0
  138.9800   80.0780  223.3650 C   0  0  1  0  0  0  0  0  0  0  0  0
  138.2830   80.7160  222.1810 C   0  0  0  0  0  0  0  0  0  0  0  0
  136.9020   80.9600  222.8050 C   0  0  0  0  0  0  0  0  0  0  0  0
  137.3010   81.5180  224.0840 N   0  0  0  0  0  0  0  0  0  0  0  0
  136.1790   81.6460  224.9910 C   0  0  2  0  0  0  0  0  0  0  0  0
  135.6400   83.0480  225.0160 C   0  0  0  0  0  0  0  0  0  0  0  0
  136.5530   83.7240  225.9900 C   0  0  0  0  0  0  0  0  0  0  0  0
  136.9500   82.7400  226.9490 N   0  0  0  0  0  0  0  0  0  0  0  0
  136.7290   81.4290  226.4020 C   0  0  0  0  0  0  0  0  0  0  0  0
  138.3090   80.6130  224.5930 C   0  0  0  0  0  0  0  0  0  0  0  0
  140.4440   80.2450  223.3420 C   0  0  0  0  0  0  0  0  0  0  0  0
  141.3290   81.1610  223.8540 C   0  0  0  0  0  0  0  0  0  0  0  0
  142.6930   81.0150  223.6380 C   0  0  0  0  0  0  0  0  0  0  0  0
  143.2020   79.9570  222.9100 C   0  0  0  0  0  0  0  0  0  0  0  0
  142.3250   79.0320  222.3920 C   0  0  0  0  0  0  0  0  0  0  0  0
  140.9620   79.1840  222.6120 C   0  0  0  0  0  0  0  0  0  0  0  0
  141.7680   76.0060  221.2020 N   0  0  0  0  0  0  0  0  0  0  0  0
  142.6270   75.4060  220.3500 C   0  0  0  0  0  0  0  0  0  0  0  0
  143.7140   74.5710  220.4700 C   0  0  0  0  0  0  0  0  0  0  0  0
  145.2100   72.2700  221.4830 H   0  0  0  0  0  0  0  0  0  0  0  0
  145.8990   71.1780  220.2700 H   0  0  0  0  0  0  0  0  0  0  0  0
  144.6011   74.0983  217.2571 H   0  0  0  0  0  0  0  0  0  0  0  0
  142.6527   75.6012  216.9401 H   0  0  0  0  0  0  0  0  0  0  0  0
  140.6269   77.0574  218.3177 H   0  0  0  0  0  0  0  0  0  0  0  0
  137.8345   78.3014  222.8336 H   0  0  0  0  0  0  0  0  0  0  0  0
  138.9504   77.9895  224.1156 H   0  0  0  0  0  0  0  0  0  0  0  0
  138.7678   81.6552  221.8761 H   0  0  0  0  0  0  0  0  0  0  0  0
  138.2819   80.1169  221.2585 H   0  0  0  0  0  0  0  0  0  0  0  0
  136.3075   81.6735  222.2155 H   0  0  0  0  0  0  0  0  0  0  0  0
  136.2571   80.0711  222.8672 H   0  0  0  0  0  0  0  0  0  0  0  0
  135.3982   80.9380  224.6761 H   0  0  0  0  0  0  0  0  0  0  0  0
  135.7009   83.5159  224.0223 H   0  0  0  0  0  0  0  0  0  0  0  0
  134.5776   83.1063  225.2951 H   0  0  0  0  0  0  0  0  0  0  0  0
  137.4365   84.1189  225.4671 H   0  0  0  0  0  0  0  0  0  0  0  0
  136.0451   84.5666  226.4819 H   0  0  0  0  0  0  0  0  0  0  0  0
  137.9670   82.9270  227.1670 H   0  0  0  0  0  0  0  0  0  0  0  0
  137.6742   80.8679  226.3613 H   0  0  0  0  0  0  0  0  0  0  0  0
  136.0300   80.8475  227.0211 H   0  0  0  0  0  0  0  0  0  0  0  0
  139.0292   81.1494  225.2283 H   0  0  0  0  0  0  0  0  0  0  0  0
  137.8810   79.8162  225.2190 H   0  0  0  0  0  0  0  0  0  0  0  0
  140.9558   82.0150  224.4383 H   0  0  0  0  0  0  0  0  0  0  0  0
  143.3852   81.7602  224.0569 H   0  0  0  0  0  0  0  0  0  0  0  0
  144.2853   79.8562  222.7479 H   0  0  0  0  0  0  0  0  0  0  0  0
  142.7004   78.1787  221.8081 H   0  0  0  0  0  0  0  0  0  0  0  0
  141.8430   75.8830  222.2350 H   0  0  0  0  0  0  0  0  0  0  0  0
  144.0291   74.2678  221.4793 H   0  0  0  0  0  0  0  0  0  0  0  0
  1  2  1  0
  2  3  2  0
  2  4  1  0
  4  5  2  0
  5  6  1  0
  6  7  2  0
  7  8  1  0
  8  9  2  0
  9 10  1  0
 10 11  2  0
 10 12  1  0
 12 13  1  0
 14 13  1  6
 14 15  1  0
 15 16  1  0
 16 17  1  0
 17 18  1  0
 18 19  1  0
 19 20  1  0
 20 21  1  0
 21 22  1  0
 17 23  1  0
 14 24  1  0
 24 25  2  0
 25 26  1  0
 26 27  2  0
 27 28  1  0
 28 29  2  0
  9 30  1  0
 30 31  1  0
 31 32  2  0
 32  4  1  0
 31  7  1  0
 29 12  1  0
 23 14  1  0
 29 24  1  0
 22 18  1  0
  1 33  1  0
  1 34  1  0
  5 35  1  0
  6 36  1  0
  8 37  1  0
 13 38  1  0
 13 39  1  0
 15 40  1  0
 15 41  1  0
 16 42  1  0
 16 43  1  0
 18 44  1  6
 19 45  1  0
 19 46  1  0
 20 47  1  0
 20 48  1  0
 21 49  1  0
 22 50  1  0
 22 51  1  0
 23 52  1  0
 23 53  1  0
 25 54  1  0
 26 55  1  0
 27 56  1  0
 28 57  1  0
 30 58  1  0
 32 59  1  0
M  END
>  <smiles>  (35) 
NC(=O)c1ccc2cc(C(=O)N3C[C@]4(CCN(C5CCNC5)C4)c4ccccc43)[nH]c2c1

>  <score_type>  (35) 
oracle

>  <origin>  (35) 
autodockgpu

>  <m_score__min__energy>  (35) 
-9.4000000000000004

>  <m_primary>  (35) 
energy

>  <rmsd>  (35) 
7.116424898236648

>  <m_score__min__rmsd>  (35) 
7.116424898236648

>  <meeko>  (35) 
{"free_energy": -9.04, "intermolecular_energy": -10.23, "internal_energy": -1.25, "cluster_size": 35, "cluster_id": 1, "rank_in_cluster": 26}

>  <energy>  (35) 
-8.49

>  <cluster_rmsd>  (35) 
1.58

>  <cluster>  (35) 
1

$$$$

     RDKit          3D

 59 64  0  0  1  0  0  0  0  0999 V2000
  145.5210   70.4170  219.2830 N   0  0  0  0  0  0  0  0  0  0  0  0
  145.3720   71.8170  219.5330 C   0  0  0  0  0  0  0  0  0  0  0  0
  146.2880   72.6440  219.3020 O   0  0  0  0  0  0  0  0  0  0  0  0
  144.1100   72.3360  220.0790 C   0  0  0  0  0  0  0  0  0  0  0  0
  143.1360   71.4350  220.4430 C   0  0  0  0  0  0  0  0  0  0  0  0
  141.9400   71.8860  220.9600 C   0  0  0  0  0  0  0  0  0  0  0  0
  141.7270   73.2430  221.1080 C   0  0  0  0  0  0  0  0  0  0  0  0
  140.6430   73.9470  221.5900 C   0  0  0  0  0  0  0  0  0  0  0  0
  140.9500   75.3060  221.5240 C   0  0  0  0  0  0  0  0  0  0  0  0
  140.0870   76.3800  221.9340 C   0  0  0  0  0  0  0  0  0  0  0  0
  139.0470   76.0610  222.5990 O   0  0  0  0  0  0  0  0  0  0  0  0
  140.3010   77.7390  221.6600 N   0  0  0  0  0  0  0  0  0  0  0  0
  139.7590   78.5190  220.5380 C   0  0  0  0  0  0  0  0  0  0  0  0
  140.9940   79.3170  220.1690 C   0  0  1  0  0  0  0  0  0  0  0  0
  141.8950   78.3810  219.3900 C   0  0  0  0  0  0  0  0  0  0  0  0
  141.4570   78.7430  217.9640 C   0  0  0  0  0  0  0  0  0  0  0  0
  141.4530   80.1910  218.0640 N   0  0  0  0  0  0  0  0  0  0  0  0
  140.8550   80.8110  216.8990 C   0  0  2  0  0  0  0  0  0  0  0  0
  140.7670   79.8560  215.7430 C   0  0  0  0  0  0  0  0  0  0  0  0
  142.1340   79.9560  215.1410 C   0  0  0  0  0  0  0  0  0  0  0  0
  142.5940   81.2930  215.3600 N   0  0  0  0  0  0  0  0  0  0  0  0
  141.8320   81.8870  216.4250 C   0  0  0  0  0  0  0  0  0  0  0  0
  140.7140   80.4830  219.2730 C   0  0  0  0  0  0  0  0  0  0  0  0
  141.5280   79.6760  221.4960 C   0  0  0  0  0  0  0  0  0  0  0  0
  142.3050   80.6930  221.9910 C   0  0  0  0  0  0  0  0  0  0  0  0
  142.6350   80.7310  223.3390 C   0  0  0  0  0  0  0  0  0  0  0  0
  142.2000   79.7580  224.2190 C   0  0  0  0  0  0  0  0  0  0  0  0
  141.4210   78.7330  223.7340 C   0  0  0  0  0  0  0  0  0  0  0  0
  141.0940   78.7020  222.3840 C   0  0  0  0  0  0  0  0  0  0  0  0
  142.1980   75.4080  221.0090 N   0  0  0  0  0  0  0  0  0  0  0  0
  142.6930   74.1790  220.7490 C   0  0  0  0  0  0  0  0  0  0  0  0
  143.8680   73.6760  220.2390 C   0  0  0  0  0  0  0  0  0  0  0  0
  145.2160   69.6780  219.9440 H   0  0  0  0  0  0  0  0  0  0  0  0
  145.9620   70.0650  218.3860 H   0  0  0  0  0  0  0  0  0  0  0  0
  143.3113   70.3559  220.3217 H   0  0  0  0  0  0  0  0  0  0  0  0
  141.1592   71.1688  221.2532 H   0  0  0  0  0  0  0  0  0  0  0  0
  139.7026   73.5132  221.9609 H   0  0  0  0  0  0  0  0  0  0  0  0
  139.4258   77.8732  219.7122 H   0  0  0  0  0  0  0  0  0  0  0  0
  138.8667   79.1183  220.7719 H   0  0  0  0  0  0  0  0  0  0  0  0
  142.9597   78.5986  219.5607 H   0  0  0  0  0  0  0  0  0  0  0  0
  141.8062   77.3165  219.6527 H   0  0  0  0  0  0  0  0  0  0  0  0
  142.1773   78.3873  217.2126 H   0  0  0  0  0  0  0  0  0  0  0  0
  140.5037   78.2971  217.6439 H   0  0  0  0  0  0  0  0  0  0  0  0
  139.8543   81.1736  217.1767 H   0  0  0  0  0  0  0  0  0  0  0  0
  140.5572   78.8325  216.0871 H   0  0  0  0  0  0  0  0  0  0  0  0
  139.9569   80.0924  215.0374 H   0  0  0  0  0  0  0  0  0  0  0  0
  142.8131   79.2393  215.6259 H   0  0  0  0  0  0  0  0  0  0  0  0
  142.1063   79.7229  214.0664 H   0  0  0  0  0  0  0  0  0  0  0  0
  143.6240   81.2220  215.5830 H   0  0  0  0  0  0  0  0  0  0  0  0
  142.4968   82.1882  217.2480 H   0  0  0  0  0  0  0  0  0  0  0  0
  141.3022   82.7891  216.0852 H   0  0  0  0  0  0  0  0  0  0  0  0
  141.0681   81.4190  219.7296 H   0  0  0  0  0  0  0  0  0  0  0  0
  139.6388   80.6199  219.0854 H   0  0  0  0  0  0  0  0  0  0  0  0
  142.6682   81.4822  221.3163 H   0  0  0  0  0  0  0  0  0  0  0  0
  143.2579   81.5556  223.7159 H   0  0  0  0  0  0  0  0  0  0  0  0
  142.4708   79.8022  225.2842 H   0  0  0  0  0  0  0  0  0  0  0  0
  141.0598   77.9439  224.4099 H   0  0  0  0  0  0  0  0  0  0  0  0
  142.7490   76.2730  220.8200 H   0  0  0  0  0  0  0  0  0  0  0  0
  144.6544   74.3864  219.9442 H   0  0  0  0  0  0  0  0  0  0  0  0
  1  2  1  0
  2  3  2  0
  2  4  1  0
  4  5  2  0
  5  6  1  0
  6  7  2  0
  7  8  1  0
  8  9  2  0
  9 10  1  0
 10 11  2  0
 10 12  1  0
 12 13  1  0
 14 13  1  1
 14 15  1  0
 15 16  1  0
 16 17  1  0
 17 18  1  0
 18 19  1  0
 19 20  1  0
 20 21  1  0
 21 22  1  0
 17 23  1  0
 14 24  1  0
 24 25  2  0
 25 26  1  0
 26 27  2  0
 27 28  1  0
 28 29  2  0
  9 30  1  0
 30 31  1  0
 31 32  2  0
 32  4  1  0
 31  7  1  0
 29 12  1  0
 23 14  1  0
 29 24  1  0
 22 18  1  0
  1 33  1  0
  1 34  1  0
  5 35  1  0
  6 36  1  0
  8 37  1  0
 13 38  1  0
 13 39  1  0
 15 40  1  0
 15 41  1  0
 16 42  1  0
 16 43  1  0
 18 44  1  1
 19 45  1  0
 19 46  1  0
 20 47  1  0
 20 48  1  0
 21 49  1  0
 22 50  1  0
 22 51  1  0
 23 52  1  0
 23 53  1  0
 25 54  1  0
 26 55  1  0
 27 56  1  0
 28 57  1  0
 30 58  1  0
 32 59  1  0
M  END
>  <smiles>  (36) 
NC(=O)c1ccc2cc(C(=O)N3C[C@]4(CCN(C5CCNC5)C4)c4ccccc43)[nH]c2c1

>  <score_type>  (36) 
oracle

>  <origin>  (36) 
autodockgpu

>  <m_score__min__energy>  (36) 
-9.4000000000000004

>  <m_primary>  (36) 
energy

>  <rmsd>  (36) 
5.811453602109171

>  <m_score__min__rmsd>  (36) 
5.811453602109171

>  <meeko>  (36) 
{"free_energy": -8.3, "intermolecular_energy": -9.5, "internal_energy": -1.25, "cluster_size": 8, "cluster_id": 3, "rank_in_cluster": 5}

>  <energy>  (36) 
-8.43

>  <cluster_rmsd>  (36) 
0.0

>  <cluster>  (36) 
2

$$$$

     RDKit          3D

 59 64  0  0  1  0  0  0  0  0999 V2000
  145.9650   72.9110  220.9240 N   0  0  0  0  0  0  0  0  0  0  0  0
  145.4570   73.1490  219.6090 C   0  0  0  0  0  0  0  0  0  0  0  0
  145.8990   72.5520  218.5970 O   0  0  0  0  0  0  0  0  0  0  0  0
  144.3750   74.1230  219.4040 C   0  0  0  0  0  0  0  0  0  0  0  0
  144.0700   74.5000  218.1170 C   0  0  0  0  0  0  0  0  0  0  0  0
  143.0620   75.4110  217.8880 C   0  0  0  0  0  0  0  0  0  0  0  0
  142.3630   75.9420  218.9550 C   0  0  0  0  0  0  0  0  0  0  0  0
  141.3270   76.8520  219.0030 C   0  0  0  0  0  0  0  0  0  0  0  0
  140.9850   77.0430  220.3410 C   0  0  0  0  0  0  0  0  0  0  0  0
  139.9490   77.9150  220.8240 C   0  0  0  0  0  0  0  0  0  0  0  0
  138.9120   78.0360  220.0930 O   0  0  0  0  0  0  0  0  0  0  0  0
  139.9930   78.6330  222.0270 N   0  0  0  0  0  0  0  0  0  0  0  0
  138.9220   78.7670  223.0270 C   0  0  0  0  0  0  0  0  0  0  0  0
  139.0610   80.2420  223.3440 C   0  0  1  0  0  0  0  0  0  0  0  0
  138.4090   80.9940  222.2020 C   0  0  0  0  0  0  0  0  0  0  0  0
  137.0060   81.1820  222.7950 C   0  0  0  0  0  0  0  0  0  0  0  0
  137.3580   81.6140  224.1350 N   0  0  0  0  0  0  0  0  0  0  0  0
  136.2030   81.6600  225.0090 C   0  0  2  0  0  0  0  0  0  0  0  0
  135.5370   83.0060  224.9820 C   0  0  0  0  0  0  0  0  0  0  0  0
  136.3560   83.7870  225.9610 C   0  0  0  0  0  0  0  0  0  0  0  0
  136.8130   82.8670  226.9570 N   0  0  0  0  0  0  0  0  0  0  0  0
  136.7290   81.5290  226.4380 C   0  0  0  0  0  0  0  0  0  0  0  0
  138.3450   80.6610  224.5920 C   0  0  0  0  0  0  0  0  0  0  0  0
  140.5260   80.4050  223.3930 C   0  0  0  0  0  0  0  0  0  0  0  0
  141.3920   81.2640  224.0220 C   0  0  0  0  0  0  0  0  0  0  0  0
  142.7620   81.1340  223.8440 C   0  0  0  0  0  0  0  0  0  0  0  0
  143.2970   80.1480  223.0370 C   0  0  0  0  0  0  0  0  0  0  0  0
  142.4390   79.2800  222.4020 C   0  0  0  0  0  0  0  0  0  0  0  0
  141.0690   79.4160  222.5840 C   0  0  0  0  0  0  0  0  0  0  0  0
  141.8050   76.2580  221.0780 N   0  0  0  0  0  0  0  0  0  0  0  0
  142.6480   75.5800  220.2680 C   0  0  0  0  0  0  0  0  0  0  0  0
  143.6630   74.6680  220.4420 C   0  0  0  0  0  0  0  0  0  0  0  0
  146.1800   73.6650  221.6040 H   0  0  0  0  0  0  0  0  0  0  0  0
  146.1500   71.9260  221.2700 H   0  0  0  0  0  0  0  0  0  0  0  0
  144.6303   74.0747  217.2713 H   0  0  0  0  0  0  0  0  0  0  0  0
  142.8148   75.7143  216.8600 H   0  0  0  0  0  0  0  0  0  0  0  0
  140.8543   77.3406  218.1382 H   0  0  0  0  0  0  0  0  0  0  0  0
  137.9343   78.5290  222.6052 H   0  0  0  0  0  0  0  0  0  0  0  0
  139.0013   78.0921  223.8920 H   0  0  0  0  0  0  0  0  0  0  0  0
  138.9051   81.9563  222.0074 H   0  0  0  0  0  0  0  0  0  0  0  0
  138.4421   80.4868  221.2265 H   0  0  0  0  0  0  0  0  0  0  0  0
  136.4336   81.9505  222.2549 H   0  0  0  0  0  0  0  0  0  0  0  0
  136.3591   80.2936  222.7483 H   0  0  0  0  0  0  0  0  0  0  0  0
  135.4999   80.8754  224.6927 H   0  0  0  0  0  0  0  0  0  0  0  0
  135.5830   83.4531  223.9780 H   0  0  0  0  0  0  0  0  0  0  0  0
  134.4662   82.9726  225.2314 H   0  0  0  0  0  0  0  0  0  0  0  0
  137.2147   84.2482  225.4512 H   0  0  0  0  0  0  0  0  0  0  0  0
  135.7596   84.5916  226.4159 H   0  0  0  0  0  0  0  0  0  0  0  0
  137.8020   83.1520  227.1970 H   0  0  0  0  0  0  0  0  0  0  0  0
  137.7226   81.0569  226.4372 H   0  0  0  0  0  0  0  0  0  0  0  0
  136.0682   80.9005  227.0531 H   0  0  0  0  0  0  0  0  0  0  0  0
  139.0416   81.1314  225.3016 H   0  0  0  0  0  0  0  0  0  0  0  0
  137.8933   79.8102  225.1231 H   0  0  0  0  0  0  0  0  0  0  0  0
  140.9979   82.0600  224.6709 H   0  0  0  0  0  0  0  0  0  0  0  0
  143.4386   81.8328  224.3577 H   0  0  0  0  0  0  0  0  0  0  0  0
  144.3854   80.0591  222.9052 H   0  0  0  0  0  0  0  0  0  0  0  0
  142.8354   78.4839  221.7547 H   0  0  0  0  0  0  0  0  0  0  0  0
  141.8330   76.1470  222.1140 H   0  0  0  0  0  0  0  0  0  0  0  0
  143.9169   74.3597  221.4669 H   0  0  0  0  0  0  0  0  0  0  0  0
  1  2  1  0
  2  3  2  0
  2  4  1  0
  4  5  2  0
  5  6  1  0
  6  7  2  0
  7  8  1  0
  8  9  2  0
  9 10  1  0
 10 11  2  0
 10 12  1  0
 12 13  1  0
 14 13  1  6
 14 15  1  0
 15 16  1  0
 16 17  1  0
 17 18  1  0
 18 19  1  0
 19 20  1  0
 20 21  1  0
 21 22  1  0
 17 23  1  0
 14 24  1  0
 24 25  2  0
 25 26  1  0
 26 27  2  0
 27 28  1  0
 28 29  2  0
  9 30  1  0
 30 31  1  0
 31 32  2  0
 32  4  1  0
 31  7  1  0
 29 12  1  0
 23 14  1  0
 29 24  1  0
 22 18  1  0
  1 33  1  0
  1 34  1  0
  5 35  1  0
  6 36  1  0
  8 37  1  0
 13 38  1  0
 13 39  1  0
 15 40  1  0
 15 41  1  0
 16 42  1  0
 16 43  1  0
 18 44  1  6
 19 45  1  0
 19 46  1  0
 20 47  1  0
 20 48  1  0
 21 49  1  0
 22 50  1  0
 22 51  1  0
 23 52  1  0
 23 53  1  0
 25 54  1  0
 26 55  1  0
 27 56  1  0
 28 57  1  0
 30 58  1  0
 32 59  1  0
M  END
>  <smiles>  (37) 
NC(=O)c1ccc2cc(C(=O)N3C[C@]4(CCN(C5CCNC5)C4)c4ccccc43)[nH]c2c1

>  <score_type>  (37) 
oracle

>  <origin>  (37) 
autodockgpu

>  <m_score__min__energy>  (37) 
-9.4000000000000004

>  <m_primary>  (37) 
energy

>  <rmsd>  (37) 
7.218436064769339

>  <m_score__min__rmsd>  (37) 
7.218436064769339

>  <meeko>  (37) 
{"free_energy": -9.36, "intermolecular_energy": -10.55, "internal_energy": -1.23, "cluster_size": 35, "cluster_id": 1, "rank_in_cluster": 5}

>  <energy>  (37) 
-8.41

>  <cluster_rmsd>  (37) 
0.09

>  <cluster>  (37) 
2

$$$$

     RDKit          3D

 59 64  0  0  1  0  0  0  0  0999 V2000
  145.4150   72.2810  220.6250 N   0  0  0  0  0  0  0  0  0  0  0  0
  145.4210   73.1190  219.4670 C   0  0  0  0  0  0  0  0  0  0  0  0
  146.3120   73.0420  218.5840 O   0  0  0  0  0  0  0  0  0  0  0  0
  144.3590   74.1160  219.2750 C   0  0  0  0  0  0  0  0  0  0  0  0
  144.0700   74.5250  217.9940 C   0  0  0  0  0  0  0  0  0  0  0  0
  143.0800   75.4590  217.7770 C   0  0  0  0  0  0  0  0  0  0  0  0
  142.3820   75.9790  218.8510 C   0  0  0  0  0  0  0  0  0  0  0  0
  141.3620   76.9060  218.9100 C   0  0  0  0  0  0  0  0  0  0  0  0
  141.0130   77.0740  220.2500 C   0  0  0  0  0  0  0  0  0  0  0  0
  139.9890   77.9530  220.7450 C   0  0  0  0  0  0  0  0  0  0  0  0
  138.9620   78.1140  220.0060 O   0  0  0  0  0  0  0  0  0  0  0  0
  140.0340   78.6400  221.9660 N   0  0  0  0  0  0  0  0  0  0  0  0
  138.9640   78.7470  222.9700 C   0  0  0  0  0  0  0  0  0  0  0  0
  139.1010   80.2130  223.3260 C   0  0  1  0  0  0  0  0  0  0  0  0
  138.4480   80.9940  222.2040 C   0  0  0  0  0  0  0  0  0  0  0  0
  137.0450   81.1660  222.8040 C   0  0  0  0  0  0  0  0  0  0  0  0
  137.3980   81.5630  224.1540 N   0  0  0  0  0  0  0  0  0  0  0  0
  136.2440   81.5850  225.0290 C   0  0  2  0  0  0  0  0  0  0  0  0
  135.4940   82.8830  224.9300 C   0  0  0  0  0  0  0  0  0  0  0  0
  136.2640   83.7680  225.8600 C   0  0  0  0  0  0  0  0  0  0  0  0
  136.7800   82.9360  226.9040 N   0  0  0  0  0  0  0  0  0  0  0  0
  136.7800   81.5680  226.4620 C   0  0  0  0  0  0  0  0  0  0  0  0
  138.3870   80.5990  224.5850 C   0  0  0  0  0  0  0  0  0  0  0  0
  140.5660   80.3750  223.3770 C   0  0  0  0  0  0  0  0  0  0  0  0
  141.4320   81.2190  224.0280 C   0  0  0  0  0  0  0  0  0  0  0  0
  142.8020   81.0940  223.8460 C   0  0  0  0  0  0  0  0  0  0  0  0
  143.3380   80.1300  223.0130 C   0  0  0  0  0  0  0  0  0  0  0  0
  142.4800   79.2780  222.3550 C   0  0  0  0  0  0  0  0  0  0  0  0
  141.1090   79.4090  222.5430 C   0  0  0  0  0  0  0  0  0  0  0  0
  141.8140   76.2590  220.9760 N   0  0  0  0  0  0  0  0  0  0  0  0
  142.6500   75.5840  220.1580 C   0  0  0  0  0  0  0  0  0  0  0  0
  143.6480   74.6500  220.3190 C   0  0  0  0  0  0  0  0  0  0  0  0
  145.2240   72.6260  221.5850 H   0  0  0  0  0  0  0  0  0  0  0  0
  145.6110   71.2410  220.5500 H   0  0  0  0  0  0  0  0  0  0  0  0
  144.6285   74.1070  217.1435 H   0  0  0  0  0  0  0  0  0  0  0  0
  142.8464   75.7891  216.7540 H   0  0  0  0  0  0  0  0  0  0  0  0
  140.9050   77.4213  218.0524 H   0  0  0  0  0  0  0  0  0  0  0  0
  137.9763   78.5190  222.5429 H   0  0  0  0  0  0  0  0  0  0  0  0
  139.0453   78.0499  223.8170 H   0  0  0  0  0  0  0  0  0  0  0  0
  138.9436   81.9611  222.0337 H   0  0  0  0  0  0  0  0  0  0  0  0
  138.4805   80.5125  221.2155 H   0  0  0  0  0  0  0  0  0  0  0  0
  136.4716   81.9481  222.2848 H   0  0  0  0  0  0  0  0  0  0  0  0
  136.3986   80.2787  222.7350 H   0  0  0  0  0  0  0  0  0  0  0  0
  135.5914   80.7412  224.7605 H   0  0  0  0  0  0  0  0  0  0  0  0
  135.5101   83.2750  223.9023 H   0  0  0  0  0  0  0  0  0  0  0  0
  134.4278   82.7963  225.1862 H   0  0  0  0  0  0  0  0  0  0  0  0
  137.0911   84.2529  225.3207 H   0  0  0  0  0  0  0  0  0  0  0  0
  135.6186   84.5576  226.2723 H   0  0  0  0  0  0  0  0  0  0  0  0
  137.7490   83.2960  227.1220 H   0  0  0  0  0  0  0  0  0  0  0  0
  137.8014   81.1601  226.4827 H   0  0  0  0  0  0  0  0  0  0  0  0
  136.1614   80.9348  227.1149 H   0  0  0  0  0  0  0  0  0  0  0  0
  139.0843   81.0517  225.3053 H   0  0  0  0  0  0  0  0  0  0  0  0
  137.9368   79.7344  225.0948 H   0  0  0  0  0  0  0  0  0  0  0  0
  141.0377   81.9980  224.6971 H   0  0  0  0  0  0  0  0  0  0  0  0
  143.4784   81.7793  224.3780 H   0  0  0  0  0  0  0  0  0  0  0  0
  144.4265   80.0455  222.8788 H   0  0  0  0  0  0  0  0  0  0  0  0
  142.8761   78.4999  221.6859 H   0  0  0  0  0  0  0  0  0  0  0  0
  141.8320   76.1250  222.0100 H   0  0  0  0  0  0  0  0  0  0  0  0
  143.8879   74.3142  221.3387 H   0  0  0  0  0  0  0  0  0  0  0  0
  1  2  1  0
  2  3  2  0
  2  4  1  0
  4  5  2  0
  5  6  1  0
  6  7  2  0
  7  8  1  0
  8  9  2  0
  9 10  1  0
 10 11  2  0
 10 12  1  0
 12 13  1  0
 14 13  1  6
 14 15  1  0
 15 16  1  0
 16 17  1  0
 17 18  1  0
 18 19  1  0
 19 20  1  0
 20 21  1  0
 21 22  1  0
 17 23  1  0
 14 24  1  0
 24 25  2  0
 25 26  1  0
 26 27  2  0
 27 28  1  0
 28 29  2  0
  9 30  1  0
 30 31  1  0
 31 32  2  0
 32  4  1  0
 31  7  1  0
 29 12  1  0
 23 14  1  0
 29 24  1  0
 22 18  1  0
  1 33  1  0
  1 34  1  0
  5 35  1  0
  6 36  1  0
  8 37  1  0
 13 38  1  0
 13 39  1  0
 15 40  1  0
 15 41  1  0
 16 42  1  0
 16 43  1  0
 18 44  1  6
 19 45  1  0
 19 46  1  0
 20 47  1  0
 20 48  1  0
 21 49  1  0
 22 50  1  0
 22 51  1  0
 23 52  1  0
 23 53  1  0
 25 54  1  0
 26 55  1  0
 27 56  1  0
 28 57  1  0
 30 58  1  0
 32 59  1  0
M  END
>  <smiles>  (38) 
NC(=O)c1ccc2cc(C(=O)N3C[C@]4(CCN(C5CCNC5)C4)c4ccccc43)[nH]c2c1

>  <score_type>  (38) 
oracle

>  <origin>  (38) 
autodockgpu

>  <m_score__min__energy>  (38) 
-9.4000000000000004

>  <m_primary>  (38) 
energy

>  <rmsd>  (38) 
7.225145197386581

>  <m_score__min__rmsd>  (38) 
7.225145197386581

>  <meeko>  (38) 
{"free_energy": -9.21, "intermolecular_energy": -10.41, "internal_energy": -1.23, "cluster_size": 35, "cluster_id": 1, "rank_in_cluster": 15}

>  <energy>  (38) 
-8.37

>  <cluster_rmsd>  (38) 
0.12

>  <cluster>  (38) 
2

$$$$

     RDKit          3D

 59 64  0  0  1  0  0  0  0  0999 V2000
  141.0550   67.8120  228.1980 N   0  0  0  0  0  0  0  0  0  0  0  0
  140.1320   68.8710  227.9350 C   0  0  0  0  0  0  0  0  0  0  0  0
  139.5480   69.5000  228.8530 O   0  0  0  0  0  0  0  0  0  0  0  0
  139.8350   69.2610  226.5500 C   0  0  0  0  0  0  0  0  0  0  0  0
  139.0570   68.4220  225.7870 C   0  0  0  0  0  0  0  0  0  0  0  0
  138.7580   68.7560  224.4840 C   0  0  0  0  0  0  0  0  0  0  0  0
  139.2450   69.9350  223.9500 C   0  0  0  0  0  0  0  0  0  0  0  0
  139.0980   70.4960  222.6990 C   0  0  0  0  0  0  0  0  0  0  0  0
  139.7970   71.7030  222.6860 C   0  0  0  0  0  0  0  0  0  0  0  0
  139.8940   72.6020  221.5680 C   0  0  0  0  0  0  0  0  0  0  0  0
  139.0920   72.4020  220.5970 O   0  0  0  0  0  0  0  0  0  0  0  0
  140.7950   73.6720  221.4670 N   0  0  0  0  0  0  0  0  0  0  0  0
  140.5810   75.0630  221.8960 C   0  0  0  0  0  0  0  0  0  0  0  0
  141.1990   75.7850  220.7160 C   0  0  1  0  0  0  0  0  0  0  0  0
  140.1820   75.7280  219.5940 C   0  0  0  0  0  0  0  0  0  0  0  0
  139.4830   77.0760  219.8230 C   0  0  0  0  0  0  0  0  0  0  0  0
  140.6410   77.9290  220.0100 N   0  0  0  0  0  0  0  0  0  0  0  0
  140.2680   79.2520  220.4680 C   0  0  2  0  0  0  0  0  0  0  0  0
  140.7550   80.3230  219.5340 C   0  0  0  0  0  0  0  0  0  0  0  0
  142.1680   80.5240  219.9860 C   0  0  0  0  0  0  0  0  0  0  0  0
  142.2000   80.2720  221.3930 N   0  0  0  0  0  0  0  0  0  0  0  0
  141.0430   79.5020  221.7630 C   0  0  0  0  0  0  0  0  0  0  0  0
  141.4700   77.2360  220.9720 C   0  0  0  0  0  0  0  0  0  0  0  0
  142.4020   74.9720  220.4600 C   0  0  0  0  0  0  0  0  0  0  0  0
  143.6340   75.2020  219.9000 C   0  0  0  0  0  0  0  0  0  0  0  0
  144.5650   74.1780  219.8100 C   0  0  0  0  0  0  0  0  0  0  0  0
  144.2900   72.9050  220.2740 C   0  0  0  0  0  0  0  0  0  0  0  0
  143.0590   72.6620  220.8370 C   0  0  0  0  0  0  0  0  0  0  0  0
  142.1310   73.6920  220.9240 C   0  0  0  0  0  0  0  0  0  0  0  0
  140.3510   71.8560  223.9110 N   0  0  0  0  0  0  0  0  0  0  0  0
  140.0350   70.8040  224.6970 C   0  0  0  0  0  0  0  0  0  0  0  0
  140.3020   70.4230  225.9910 C   0  0  0  0  0  0  0  0  0  0  0  0
  141.0610   66.9120  227.6820 H   0  0  0  0  0  0  0  0  0  0  0  0
  141.7930   67.9030  228.9540 H   0  0  0  0  0  0  0  0  0  0  0  0
  138.6736   67.4848  226.2167 H   0  0  0  0  0  0  0  0  0  0  0  0
  138.1348   68.0879  223.8714 H   0  0  0  0  0  0  0  0  0  0  0  0
  138.5301   70.0676  221.8600 H   0  0  0  0  0  0  0  0  0  0  0  0
  139.5123   75.2985  222.0075 H   0  0  0  0  0  0  0  0  0  0  0  0
  141.0047   75.3212  222.8777 H   0  0  0  0  0  0  0  0  0  0  0  0
  140.6625   75.6767  218.6058 H   0  0  0  0  0  0  0  0  0  0  0  0
  139.5213   74.8486  219.6029 H   0  0  0  0  0  0  0  0  0  0  0  0
  138.8875   77.3810  218.9499 H   0  0  0  0  0  0  0  0  0  0  0  0
  138.7587   77.0886  220.6507 H   0  0  0  0  0  0  0  0  0  0  0  0
  139.1725   79.2890  220.5599 H   0  0  0  0  0  0  0  0  0  0  0  0
  140.7158   79.9866  218.4874 H   0  0  0  0  0  0  0  0  0  0  0  0
  140.1491   81.2407  219.5628 H   0  0  0  0  0  0  0  0  0  0  0  0
  142.8349   79.8234  219.4621 H   0  0  0  0  0  0  0  0  0  0  0  0
  142.5081   81.5462  219.7638 H   0  0  0  0  0  0  0  0  0  0  0  0
  143.1070   79.7650  221.5860 H   0  0  0  0  0  0  0  0  0  0  0  0
  141.3486   78.5471  222.2154 H   0  0  0  0  0  0  0  0  0  0  0  0
  140.4271   80.0328  222.5039 H   0  0  0  0  0  0  0  0  0  0  0  0
  142.5328   77.4685  220.8098 H   0  0  0  0  0  0  0  0  0  0  0  0
  141.2463   77.5291  222.0083 H   0  0  0  0  0  0  0  0  0  0  0  0
  143.8841   76.2038  219.5206 H   0  0  0  0  0  0  0  0  0  0  0  0
  145.5466   74.3838  219.3582 H   0  0  0  0  0  0  0  0  0  0  0  0
  145.0396   72.1039  220.1946 H   0  0  0  0  0  0  0  0  0  0  0  0
  142.8111   71.6594  221.2156 H   0  0  0  0  0  0  0  0  0  0  0  0
  140.9410   72.6430  224.2590 H   0  0  0  0  0  0  0  0  0  0  0  0
  140.9235   71.0858  226.6110 H   0  0  0  0  0  0  0  0  0  0  0  0
  1  2  1  0
  2  3  2  0
  2  4  1  0
  4  5  2  0
  5  6  1  0
  6  7  2  0
  7  8  1  0
  8  9  2  0
  9 10  1  0
 10 11  2  0
 10 12  1  0
 12 13  1  0
 14 13  1  1
 14 15  1  0
 15 16  1  0
 16 17  1  0
 17 18  1  0
 18 19  1  0
 19 20  1  0
 20 21  1  0
 21 22  1  0
 17 23  1  0
 14 24  1  0
 24 25  2  0
 25 26  1  0
 26 27  2  0
 27 28  1  0
 28 29  2  0
  9 30  1  0
 30 31  1  0
 31 32  2  0
 32  4  1  0
 31  7  1  0
 29 12  1  0
 23 14  1  0
 29 24  1  0
 22 18  1  0
  1 33  1  0
  1 34  1  0
  5 35  1  0
  6 36  1  0
  8 37  1  0
 13 38  1  0
 13 39  1  0
 15 40  1  0
 15 41  1  0
 16 42  1  0
 16 43  1  0
 18 44  1  1
 19 45  1  0
 19 46  1  0
 20 47  1  0
 20 48  1  0
 21 49  1  0
 22 50  1  0
 22 51  1  0
 23 52  1  0
 23 53  1  0
 25 54  1  0
 26 55  1  0
 27 56  1  0
 28 57  1  0
 30 58  1  0
 32 59  1  0
M  END
>  <smiles>  (39) 
NC(=O)c1ccc2cc(C(=O)N3C[C@]4(CCN(C5CCNC5)C4)c4ccccc43)[nH]c2c1

>  <score_type>  (39) 
oracle

>  <origin>  (39) 
autodockgpu

>  <m_score__min__energy>  (39) 
-9.4000000000000004

>  <m_primary>  (39) 
energy

>  <rmsd>  (39) 
2.590434057316854

>  <m_score__min__rmsd>  (39) 
2.590434057316854

>  <meeko>  (39) 
{"free_energy": -8.23, "intermolecular_energy": -9.43, "internal_energy": -1.18, "cluster_size": 3, "cluster_id": 4, "rank_in_cluster": 2}

>  <energy>  (39) 
-8.22

>  <cluster_rmsd>  (39) 
1.79

>  <cluster>  (39) 
2

$$$$

     RDKit          3D

 59 64  0  0  1  0  0  0  0  0999 V2000
  145.5900   71.3080  219.6020 N   0  0  0  0  0  0  0  0  0  0  0  0
  145.4830   72.7210  219.4120 C   0  0  0  0  0  0  0  0  0  0  0  0
  146.3910   73.3990  218.8700 O   0  0  0  0  0  0  0  0  0  0  0  0
  144.2770   73.4330  219.8570 C   0  0  0  0  0  0  0  0  0  0  0  0
  143.2550   72.7020  220.4150 C   0  0  0  0  0  0  0  0  0  0  0  0
  142.1090   73.3380  220.8440 C   0  0  0  0  0  0  0  0  0  0  0  0
  141.9950   74.7080  220.7090 C   0  0  0  0  0  0  0  0  0  0  0  0
  140.9770   75.5750  221.0500 C   0  0  0  0  0  0  0  0  0  0  0  0
  141.3750   76.8640  220.6970 C   0  0  0  0  0  0  0  0  0  0  0  0
  140.6010   78.0600  220.8870 C   0  0  0  0  0  0  0  0  0  0  0  0
  139.9650   78.5010  219.8730 O   0  0  0  0  0  0  0  0  0  0  0  0
  140.4940   78.7710  222.0910 N   0  0  0  0  0  0  0  0  0  0  0  0
  139.3240   78.8510  222.9790 C   0  0  0  0  0  0  0  0  0  0  0  0
  139.3650   80.3280  223.3140 C   0  0  1  0  0  0  0  0  0  0  0  0
  138.7980   81.0590  222.1150 C   0  0  0  0  0  0  0  0  0  0  0  0
  137.3350   81.1820  222.5660 C   0  0  0  0  0  0  0  0  0  0  0  0
  137.5340   81.6190  223.9360 N   0  0  0  0  0  0  0  0  0  0  0  0
  136.2970   81.6080  224.6900 C   0  0  2  0  0  0  0  0  0  0  0  0
  135.6660   82.9700  224.7470 C   0  0  0  0  0  0  0  0  0  0  0  0
  136.3980   83.6130  225.8830 C   0  0  0  0  0  0  0  0  0  0  0  0
  136.7310   82.5760  226.8110 N   0  0  0  0  0  0  0  0  0  0  0  0
  136.6710   81.3050  226.1410 C   0  0  0  0  0  0  0  0  0  0  0  0
  138.5120   80.7060  224.4860 C   0  0  0  0  0  0  0  0  0  0  0  0
  140.8090   80.5540  223.5080 C   0  0  0  0  0  0  0  0  0  0  0  0
  141.5700   81.4450  224.2230 C   0  0  0  0  0  0  0  0  0  0  0  0
  142.9550   81.3760  224.1820 C   0  0  0  0  0  0  0  0  0  0  0  0
  143.6110   80.4200  223.4290 C   0  0  0  0  0  0  0  0  0  0  0  0
  142.8600   79.5210  222.7090 C   0  0  0  0  0  0  0  0  0  0  0  0
  141.4730   79.5960  222.7550 C   0  0  0  0  0  0  0  0  0  0  0  0
  142.6110   76.7650  220.1540 N   0  0  0  0  0  0  0  0  0  0  0  0
  143.0120   75.4750  220.1480 C   0  0  0  0  0  0  0  0  0  0  0  0
  144.1330   74.7920  219.7370 C   0  0  0  0  0  0  0  0  0  0  0  0
  145.3270   70.8240  220.4810 H   0  0  0  0  0  0  0  0  0  0  0  0
  145.9530   70.6780  218.8300 H   0  0  0  0  0  0  0  0  0  0  0  0
  143.3513   71.6112  220.5191 H   0  0  0  0  0  0  0  0  0  0  0  0
  141.2893   72.7569  221.2917 H   0  0  0  0  0  0  0  0  0  0  0  0
  140.0206   75.2982  221.5176 H   0  0  0  0  0  0  0  0  0  0  0  0
  138.3949   78.5737  222.4596 H   0  0  0  0  0  0  0  0  0  0  0  0
  139.3465   78.1736  223.8454 H   0  0  0  0  0  0  0  0  0  0  0  0
  139.2685   82.0432  221.9736 H   0  0  0  0  0  0  0  0  0  0  0  0
  138.9503   80.5607  221.1462 H   0  0  0  0  0  0  0  0  0  0  0  0
  136.7860   81.9291  221.9741 H   0  0  0  0  0  0  0  0  0  0  0  0
  136.7349   80.2672  222.4522 H   0  0  0  0  0  0  0  0  0  0  0  0
  135.6131   80.8862  224.2196 H   0  0  0  0  0  0  0  0  0  0  0  0
  135.8235   83.5216  223.8084 H   0  0  0  0  0  0  0  0  0  0  0  0
  134.5749   82.9447  224.8840 H   0  0  0  0  0  0  0  0  0  0  0  0
  137.3140   84.0982  225.5149 H   0  0  0  0  0  0  0  0  0  0  0  0
  135.7760   84.3827  226.3633 H   0  0  0  0  0  0  0  0  0  0  0  0
  137.6960   82.8010  227.1770 H   0  0  0  0  0  0  0  0  0  0  0  0
  137.6487   80.8030  226.1864 H   0  0  0  0  0  0  0  0  0  0  0  0
  135.9372   80.6357  226.6138 H   0  0  0  0  0  0  0  0  0  0  0  0
  139.1137   81.2009  225.2625 H   0  0  0  0  0  0  0  0  0  0  0  0
  138.0478   79.8326  224.9673 H   0  0  0  0  0  0  0  0  0  0  0  0
  141.0788   82.2182  224.8320 H   0  0  0  0  0  0  0  0  0  0  0  0
  143.5457   82.0997  224.7629 H   0  0  0  0  0  0  0  0  0  0  0  0
  144.7100   80.3794  223.4064 H   0  0  0  0  0  0  0  0  0  0  0  0
  143.3533   78.7482  222.1011 H   0  0  0  0  0  0  0  0  0  0  0  0
  143.2150   77.5290  219.7800 H   0  0  0  0  0  0  0  0  0  0  0  0
  144.9574   75.3657  219.2885 H   0  0  0  0  0  0  0  0  0  0  0  0
  1  2  1  0
  2  3  2  0
  2  4  1  0
  4  5  2  0
  5  6  1  0
  6  7  2  0
  7  8  1  0
  8  9  2  0
  9 10  1  0
 10 11  2  0
 10 12  1  0
 12 13  1  0
 14 13  1  6
 14 15  1  0
 15 16  1  0
 16 17  1  0
 17 18  1  0
 18 19  1  0
 19 20  1  0
 20 21  1  0
 21 22  1  0
 17 23  1  0
 14 24  1  0
 24 25  2  0
 25 26  1  0
 26 27  2  0
 27 28  1  0
 28 29  2  0
  9 30  1  0
 30 31  1  0
 31 32  2  0
 32  4  1  0
 31  7  1  0
 29 12  1  0
 23 14  1  0
 29 24  1  0
 22 18  1  0
  1 33  1  0
  1 34  1  0
  5 35  1  0
  6 36  1  0
  8 37  1  0
 13 38  1  0
 13 39  1  0
 15 40  1  0
 15 41  1  0
 16 42  1  0
 16 43  1  0
 18 44  1  6
 19 45  1  0
 19 46  1  0
 20 47  1  0
 20 48  1  0
 21 49  1  0
 22 50  1  0
 22 51  1  0
 23 52  1  0
 23 53  1  0
 25 54  1  0
 26 55  1  0
 27 56  1  0
 28 57  1  0
 30 58  1  0
 32 59  1  0
M  END
>  <smiles>  (40) 
NC(=O)c1ccc2cc(C(=O)N3C[C@]4(CCN(C5CCNC5)C4)c4ccccc43)[nH]c2c1

>  <score_type>  (40) 
oracle

>  <origin>  (40) 
autodockgpu

>  <m_score__min__energy>  (40) 
-9.4000000000000004

>  <m_primary>  (40) 
energy

>  <rmsd>  (40) 
6.838942304038806

>  <m_score__min__rmsd>  (40) 
6.838942304038806

>  <meeko>  (40) 
{"free_energy": -8.97, "intermolecular_energy": -10.16, "internal_energy": -1.21, "cluster_size": 35, "cluster_id": 1, "rank_in_cluster": 30}

>  <energy>  (40) 
-8.38

>  <cluster_rmsd>  (40) 
0.0

>  <cluster>  (40) 
3

$$$$

     RDKit          3D

 59 64  0  0  1  0  0  0  0  0999 V2000
  146.3050   73.0110  221.4180 N   0  0  0  0  0  0  0  0  0  0  0  0
  145.6230   73.2540  220.1850 C   0  0  0  0  0  0  0  0  0  0  0  0
  146.1220   72.9630  219.0700 O   0  0  0  0  0  0  0  0  0  0  0  0
  144.2870   73.8660  220.1930 C   0  0  0  0  0  0  0  0  0  0  0  0
  143.1910   73.0420  220.2960 C   0  0  0  0  0  0  0  0  0  0  0  0
  141.9230   73.5810  220.3070 C   0  0  0  0  0  0  0  0  0  0  0  0
  141.7600   74.9500  220.2130 C   0  0  0  0  0  0  0  0  0  0  0  0
  140.6240   75.7330  220.2010 C   0  0  0  0  0  0  0  0  0  0  0  0
  141.0220   77.0650  220.0890 C   0  0  0  0  0  0  0  0  0  0  0  0
  140.1420   78.2010  220.0440 C   0  0  0  0  0  0  0  0  0  0  0  0
  139.1830   78.1530  219.2060 O   0  0  0  0  0  0  0  0  0  0  0  0
  140.2600   79.3460  220.8450 N   0  0  0  0  0  0  0  0  0  0  0  0
  139.6090   80.6490  220.6400 C   0  0  0  0  0  0  0  0  0  0  0  0
  140.7720   81.5630  220.9730 C   0  0  1  0  0  0  0  0  0  0  0  0
  141.6820   81.5620  219.7620 C   0  0  0  0  0  0  0  0  0  0  0  0
  141.1430   82.8080  219.0440 C   0  0  0  0  0  0  0  0  0  0  0  0
  141.0580   83.7240  220.1650 N   0  0  0  0  0  0  0  0  0  0  0  0
  140.3590   84.9440  219.8140 C   0  0  2  0  0  0  0  0  0  0  0  0
  138.9920   85.0020  220.4340 C   0  0  0  0  0  0  0  0  0  0  0  0
  138.1690   84.2070  219.4690 C   0  0  0  0  0  0  0  0  0  0  0  0
  138.7360   84.4030  218.1700 N   0  0  0  0  0  0  0  0  0  0  0  0
  140.0870   84.8750  218.3100 C   0  0  0  0  0  0  0  0  0  0  0  0
  140.3720   82.9880  221.2040 C   0  0  0  0  0  0  0  0  0  0  0  0
  141.3580   80.8900  222.1470 C   0  0  0  0  0  0  0  0  0  0  0  0
  142.0990   81.2900  223.2300 C   0  0  0  0  0  0  0  0  0  0  0  0
  142.5020   80.3660  224.1840 C   0  0  0  0  0  0  0  0  0  0  0  0
  142.1760   79.0270  224.0790 C   0  0  0  0  0  0  0  0  0  0  0  0
  141.4330   78.6140  222.9970 C   0  0  0  0  0  0  0  0  0  0  0  0
  141.0340   79.5450  222.0460 C   0  0  0  0  0  0  0  0  0  0  0  0
  142.3750   77.0730  220.0340 N   0  0  0  0  0  0  0  0  0  0  0  0
  142.8490   75.8100  220.1070 C   0  0  0  0  0  0  0  0  0  0  0  0
  144.0920   75.2210  220.1020 C   0  0  0  0  0  0  0  0  0  0  0  0
  146.3520   73.6970  222.1950 H   0  0  0  0  0  0  0  0  0  0  0  0
  146.8070   72.0940  221.5950 H   0  0  0  0  0  0  0  0  0  0  0  0
  143.3265   71.9529  220.3696 H   0  0  0  0  0  0  0  0  0  0  0  0
  141.0444   72.9245  220.3903 H   0  0  0  0  0  0  0  0  0  0  0  0
  139.5875   75.3707  220.2679 H   0  0  0  0  0  0  0  0  0  0  0  0
  139.2685   80.7792  219.6021 H   0  0  0  0  0  0  0  0  0  0  0  0
  138.6971   80.8158  221.2321 H   0  0  0  0  0  0  0  0  0  0  0  0
  142.7397   81.6746  220.0425 H   0  0  0  0  0  0  0  0  0  0  0  0
  141.6721   80.6364  219.1678 H   0  0  0  0  0  0  0  0  0  0  0  0
  141.8398   83.1690  218.2731 H   0  0  0  0  0  0  0  0  0  0  0  0
  140.2017   82.6570  218.4952 H   0  0  0  0  0  0  0  0  0  0  0  0
  140.9685   85.7980  220.1443 H   0  0  0  0  0  0  0  0  0  0  0  0
  138.9882   84.5425  221.4334 H   0  0  0  0  0  0  0  0  0  0  0  0
  138.6219   86.0263  220.5884 H   0  0  0  0  0  0  0  0  0  0  0  0
  138.1993   83.1405  219.7367 H   0  0  0  0  0  0  0  0  0  0  0  0
  137.1184   84.5323  219.4903 H   0  0  0  0  0  0  0  0  0  0  0  0
  138.6780   83.4720  217.6740 H   0  0  0  0  0  0  0  0  0  0  0  0
  140.7870   84.1773  217.8271 H   0  0  0  0  0  0  0  0  0  0  0  0
  140.2212   85.8566  217.8320 H   0  0  0  0  0  0  0  0  0  0  0  0
  140.6945   83.3269  222.1996 H   0  0  0  0  0  0  0  0  0  0  0  0
  139.2817   83.1296  221.1698 H   0  0  0  0  0  0  0  0  0  0  0  0
  142.3752   82.3487  223.3429 H   0  0  0  0  0  0  0  0  0  0  0  0
  143.0954   80.7078  225.0448 H   0  0  0  0  0  0  0  0  0  0  0  0
  142.5033   78.3072  224.8437 H   0  0  0  0  0  0  0  0  0  0  0  0
  141.1571   77.5550  222.8858 H   0  0  0  0  0  0  0  0  0  0  0  0
  143.0120   77.8940  219.9490 H   0  0  0  0  0  0  0  0  0  0  0  0
  144.9761   75.8704  220.0208 H   0  0  0  0  0  0  0  0  0  0  0  0
  1  2  1  0
  2  3  2  0
  2  4  1  0
  4  5  2  0
  5  6  1  0
  6  7  2  0
  7  8  1  0
  8  9  2  0
  9 10  1  0
 10 11  2  0
 10 12  1  0
 12 13  1  0
 14 13  1  6
 14 15  1  0
 15 16  1  0
 16 17  1  0
 17 18  1  0
 18 19  1  0
 19 20  1  0
 20 21  1  0
 21 22  1  0
 17 23  1  0
 14 24  1  0
 24 25  2  0
 25 26  1  0
 26 27  2  0
 27 28  1  0
 28 29  2  0
  9 30  1  0
 30 31  1  0
 31 32  2  0
 32  4  1  0
 31  7  1  0
 29 12  1  0
 23 14  1  0
 29 24  1  0
 22 18  1  0
  1 33  1  0
  1 34  1  0
  5 35  1  0
  6 36  1  0
  8 37  1  0
 13 38  1  0
 13 39  1  0
 15 40  1  0
 15 41  1  0
 16 42  1  0
 16 43  1  0
 18 44  1  6
 19 45  1  0
 19 46  1  0
 20 47  1  0
 20 48  1  0
 21 49  1  0
 22 50  1  0
 22 51  1  0
 23 52  1  0
 23 53  1  0
 25 54  1  0
 26 55  1  0
 27 56  1  0
 28 57  1  0
 30 58  1  0
 32 59  1  0
M  END
>  <smiles>  (41) 
NC(=O)c1ccc2cc(C(=O)N3C[C@]4(CCN(C5CCNC5)C4)c4ccccc43)[nH]c2c1

>  <score_type>  (41) 
oracle

>  <origin>  (41) 
autodockgpu

>  <m_score__min__energy>  (41) 
-9.4000000000000004

>  <m_primary>  (41) 
energy

>  <rmsd>  (41) 
6.71515540605317

>  <m_score__min__rmsd>  (41) 
6.71515540605317

>  <meeko>  (41) 
{"free_energy": -8.37, "intermolecular_energy": -9.56, "internal_energy": -1.27, "cluster_size": 4, "cluster_id": 2, "rank_in_cluster": 3}

>  <energy>  (41) 
-8.37

>  <cluster_rmsd>  (41) 
0.08

>  <cluster>  (41) 
3

$$$$

     RDKit          3D

 59 64  0  0  1  0  0  0  0  0999 V2000
  145.2720   72.0070  220.4110 N   0  0  0  0  0  0  0  0  0  0  0  0
  145.4630   73.1550  219.5810 C   0  0  0  0  0  0  0  0  0  0  0  0
  146.5490   73.3900  218.9940 O   0  0  0  0  0  0  0  0  0  0  0  0
  144.3660   74.1130  219.3880 C   0  0  0  0  0  0  0  0  0  0  0  0
  144.0390   74.4830  218.1040 C   0  0  0  0  0  0  0  0  0  0  0  0
  143.0150   75.3800  217.8860 C   0  0  0  0  0  0  0  0  0  0  0  0
  142.3230   75.9030  218.9610 C   0  0  0  0  0  0  0  0  0  0  0  0
  141.2750   76.7990  219.0200 C   0  0  0  0  0  0  0  0  0  0  0  0
  140.9480   76.9880  220.3630 C   0  0  0  0  0  0  0  0  0  0  0  0
  139.9060   77.8460  220.8570 C   0  0  0  0  0  0  0  0  0  0  0  0
  138.8510   77.9380  220.1480 O   0  0  0  0  0  0  0  0  0  0  0  0
  139.9630   78.5820  222.0500 N   0  0  0  0  0  0  0  0  0  0  0  0
  138.9010   78.7330  223.0570 C   0  0  0  0  0  0  0  0  0  0  0  0
  139.0470   80.2120  223.3520 C   0  0  1  0  0  0  0  0  0  0  0  0
  138.3880   80.9500  222.2040 C   0  0  0  0  0  0  0  0  0  0  0  0
  136.9910   81.1510  222.8070 C   0  0  0  0  0  0  0  0  0  0  0  0
  137.3560   81.6010  224.1380 N   0  0  0  0  0  0  0  0  0  0  0  0
  136.2080   81.6630  225.0200 C   0  0  2  0  0  0  0  0  0  0  0  0
  135.5680   83.0220  225.0080 C   0  0  0  0  0  0  0  0  0  0  0  0
  136.4100   83.7810  225.9860 C   0  0  0  0  0  0  0  0  0  0  0  0
  136.8570   82.8450  226.9720 N   0  0  0  0  0  0  0  0  0  0  0  0
  136.7430   81.5120  226.4450 C   0  0  0  0  0  0  0  0  0  0  0  0
  138.3440   80.6510  224.6000 C   0  0  0  0  0  0  0  0  0  0  0  0
  140.5130   80.3700  223.3850 C   0  0  0  0  0  0  0  0  0  0  0  0
  141.3870   81.2360  223.9950 C   0  0  0  0  0  0  0  0  0  0  0  0
  142.7550   81.0990  223.8070 C   0  0  0  0  0  0  0  0  0  0  0  0
  143.2800   80.0990  223.0100 C   0  0  0  0  0  0  0  0  0  0  0  0
  142.4140   79.2250  222.3940 C   0  0  0  0  0  0  0  0  0  0  0  0
  141.0460   79.3690  222.5860 C   0  0  0  0  0  0  0  0  0  0  0  0
  141.7880   76.2150  221.0900 N   0  0  0  0  0  0  0  0  0  0  0  0
  142.6290   75.5480  220.2710 C   0  0  0  0  0  0  0  0  0  0  0  0
  143.6590   74.6500  220.4330 C   0  0  0  0  0  0  0  0  0  0  0  0
  144.8050   72.0370  221.3370 H   0  0  0  0  0  0  0  0  0  0  0  0
  145.6100   71.0490  220.1070 H   0  0  0  0  0  0  0  0  0  0  0  0
  144.5941   74.0635  217.2520 H   0  0  0  0  0  0  0  0  0  0  0  0
  142.7503   75.6778  216.8607 H   0  0  0  0  0  0  0  0  0  0  0  0
  140.7844   77.2791  218.1604 H   0  0  0  0  0  0  0  0  0  0  0  0
  137.9091   78.4920  222.6470 H   0  0  0  0  0  0  0  0  0  0  0  0
  138.9856   78.0701  223.9307 H   0  0  0  0  0  0  0  0  0  0  0  0
  138.8856   81.9077  221.9913 H   0  0  0  0  0  0  0  0  0  0  0  0
  138.4113   80.4291  221.2354 H   0  0  0  0  0  0  0  0  0  0  0  0
  136.4161   81.9136  222.2611 H   0  0  0  0  0  0  0  0  0  0  0  0
  136.3411   80.2639  222.7788 H   0  0  0  0  0  0  0  0  0  0  0  0
  135.4873   80.8948  224.7030 H   0  0  0  0  0  0  0  0  0  0  0  0
  135.6144   83.4752  224.0068 H   0  0  0  0  0  0  0  0  0  0  0  0
  134.4989   83.0072  225.2663 H   0  0  0  0  0  0  0  0  0  0  0  0
  137.2734   84.2292  225.4724 H   0  0  0  0  0  0  0  0  0  0  0  0
  135.8331   84.5939  226.4511 H   0  0  0  0  0  0  0  0  0  0  0  0
  137.8530   83.1090  227.2060 H   0  0  0  0  0  0  0  0  0  0  0  0
  137.7272   81.0208  226.4331 H   0  0  0  0  0  0  0  0  0  0  0  0
  136.0751   80.8922  227.0612 H   0  0  0  0  0  0  0  0  0  0  0  0
  139.0485   81.1291  225.2965 H   0  0  0  0  0  0  0  0  0  0  0  0
  137.8943   79.8095  225.1473 H   0  0  0  0  0  0  0  0  0  0  0  0
  141.0007   82.0423  224.6358 H   0  0  0  0  0  0  0  0  0  0  0  0
  143.4382   81.8032  224.3043 H   0  0  0  0  0  0  0  0  0  0  0  0
  144.3671   80.0040  222.8712 H   0  0  0  0  0  0  0  0  0  0  0  0
  142.8021   78.4185  221.7545 H   0  0  0  0  0  0  0  0  0  0  0  0
  141.8310   76.1070  222.1270 H   0  0  0  0  0  0  0  0  0  0  0  0
  143.9296   74.3468  221.4552 H   0  0  0  0  0  0  0  0  0  0  0  0
  1  2  1  0
  2  3  2  0
  2  4  1  0
  4  5  2  0
  5  6  1  0
  6  7  2  0
  7  8  1  0
  8  9  2  0
  9 10  1  0
 10 11  2  0
 10 12  1  0
 12 13  1  0
 14 13  1  6
 14 15  1  0
 15 16  1  0
 16 17  1  0
 17 18  1  0
 18 19  1  0
 19 20  1  0
 20 21  1  0
 21 22  1  0
 17 23  1  0
 14 24  1  0
 24 25  2  0
 25 26  1  0
 26 27  2  0
 27 28  1  0
 28 29  2  0
  9 30  1  0
 30 31  1  0
 31 32  2  0
 32  4  1  0
 31  7  1  0
 29 12  1  0
 23 14  1  0
 29 24  1  0
 22 18  1  0
  1 33  1  0
  1 34  1  0
  5 35  1  0
  6 36  1  0
  8 37  1  0
 13 38  1  0
 13 39  1  0
 15 40  1  0
 15 41  1  0
 16 42  1  0
 16 43  1  0
 18 44  1  6
 19 45  1  0
 19 46  1  0
 20 47  1  0
 20 48  1  0
 21 49  1  0
 22 50  1  0
 22 51  1  0
 23 52  1  0
 23 53  1  0
 25 54  1  0
 26 55  1  0
 27 56  1  0
 28 57  1  0
 30 58  1  0
 32 59  1  0
M  END
>  <smiles>  (42) 
NC(=O)c1ccc2cc(C(=O)N3C[C@]4(CCN(C5CCNC5)C4)c4ccccc43)[nH]c2c1

>  <score_type>  (42) 
oracle

>  <origin>  (42) 
autodockgpu

>  <m_score__min__energy>  (42) 
-9.4000000000000004

>  <m_primary>  (42) 
energy

>  <rmsd>  (42) 
7.184992094018496

>  <m_score__min__rmsd>  (42) 
7.184992094018496

>  <meeko>  (42) 
{"free_energy": -9.05, "intermolecular_energy": -10.25, "internal_energy": -1.24, "cluster_size": 35, "cluster_id": 1, "rank_in_cluster": 25}

>  <energy>  (42) 
-8.36

>  <cluster_rmsd>  (42) 
0.12

>  <cluster>  (42) 
3

$$$$

     RDKit          3D

 59 64  0  0  1  0  0  0  0  0999 V2000
  146.6260   73.7900  220.1590 N   0  0  0  0  0  0  0  0  0  0  0  0
  145.4660   73.1450  219.6280 C   0  0  0  0  0  0  0  0  0  0  0  0
  145.5390   72.1750  218.8330 O   0  0  0  0  0  0  0  0  0  0  0  0
  144.1260   73.6110  220.0100 C   0  0  0  0  0  0  0  0  0  0  0  0
  143.1760   72.6730  220.3370 C   0  0  0  0  0  0  0  0  0  0  0  0
  141.9080   73.0750  220.7010 C   0  0  0  0  0  0  0  0  0  0  0  0
  141.6000   74.4210  220.7320 C   0  0  0  0  0  0  0  0  0  0  0  0
  140.4310   75.0800  221.0550 C   0  0  0  0  0  0  0  0  0  0  0  0
  140.6610   76.4500  220.9250 C   0  0  0  0  0  0  0  0  0  0  0  0
  139.6980   77.4870  221.1720 C   0  0  0  0  0  0  0  0  0  0  0  0
  138.7310   77.5840  220.3450 O   0  0  0  0  0  0  0  0  0  0  0  0
  139.7400   78.3920  222.2420 N   0  0  0  0  0  0  0  0  0  0  0  0
  138.6420   78.7480  223.1540 C   0  0  0  0  0  0  0  0  0  0  0  0
  138.8600   80.2460  223.2330 C   0  0  1  0  0  0  0  0  0  0  0  0
  138.3010   80.8320  221.9530 C   0  0  0  0  0  0  0  0  0  0  0  0
  136.8910   81.1940  222.4390 C   0  0  0  0  0  0  0  0  0  0  0  0
  137.2170   81.8220  223.7060 N   0  0  0  0  0  0  0  0  0  0  0  0
  136.0350   82.0760  224.5040 C   0  0  2  0  0  0  0  0  0  0  0  0
  136.2080   83.2730  225.3930 C   0  0  0  0  0  0  0  0  0  0  0  0
  136.9250   82.6940  226.5730 C   0  0  0  0  0  0  0  0  0  0  0  0
  136.4780   81.3420  226.7150 N   0  0  0  0  0  0  0  0  0  0  0  0
  135.9000   80.9020  225.4740 C   0  0  0  0  0  0  0  0  0  0  0  0
  138.1250   80.9040  224.3600 C   0  0  0  0  0  0  0  0  0  0  0  0
  140.3290   80.3330  223.3250 C   0  0  0  0  0  0  0  0  0  0  0  0
  141.2220   81.2350  223.8470 C   0  0  0  0  0  0  0  0  0  0  0  0
  142.5880   81.0020  223.7590 C   0  0  0  0  0  0  0  0  0  0  0  0
  143.0910   79.8670  223.1500 C   0  0  0  0  0  0  0  0  0  0  0  0
  142.2060   78.9550  222.6240 C   0  0  0  0  0  0  0  0  0  0  0  0
  140.8410   79.1960  222.7160 C   0  0  0  0  0  0  0  0  0  0  0  0
  141.9470   76.6020  220.5300 N   0  0  0  0  0  0  0  0  0  0  0  0
  142.5400   75.3950  220.4060 C   0  0  0  0  0  0  0  0  0  0  0  0
  143.7890   74.9400  220.0510 C   0  0  0  0  0  0  0  0  0  0  0  0
  146.7330   74.8200  220.2250 H   0  0  0  0  0  0  0  0  0  0  0  0
  147.4500   73.2270  220.5170 H   0  0  0  0  0  0  0  0  0  0  0  0
  143.4269   71.6024  220.3084 H   0  0  0  0  0  0  0  0  0  0  0  0
  141.1457   72.3273  220.9653 H   0  0  0  0  0  0  0  0  0  0  0  0
  139.4854   74.6085  221.3608 H   0  0  0  0  0  0  0  0  0  0  0  0
  137.6584   78.4981  222.7296 H   0  0  0  0  0  0  0  0  0  0  0  0
  138.6460   78.2222  224.1202 H   0  0  0  0  0  0  0  0  0  0  0  0
  138.8637   81.7192  221.6272 H   0  0  0  0  0  0  0  0  0  0  0  0
  138.3396   80.1682  221.0767 H   0  0  0  0  0  0  0  0  0  0  0  0
  136.3895   81.8930  221.7536 H   0  0  0  0  0  0  0  0  0  0  0  0
  136.1919   80.3475  222.5068 H   0  0  0  0  0  0  0  0  0  0  0  0
  135.1845   82.2231  223.8221 H   0  0  0  0  0  0  0  0  0  0  0  0
  136.8122   84.0499  224.9018 H   0  0  0  0  0  0  0  0  0  0  0  0
  135.2611   83.7687  225.6531 H   0  0  0  0  0  0  0  0  0  0  0  0
  138.0115   82.7163  226.4025 H   0  0  0  0  0  0  0  0  0  0  0  0
  136.7131   83.2741  227.4832 H   0  0  0  0  0  0  0  0  0  0  0  0
  137.3240   80.7750  226.9970 H   0  0  0  0  0  0  0  0  0  0  0  0
  136.4420   80.0252  225.0900 H   0  0  0  0  0  0  0  0  0  0  0  0
  134.8485   80.6059  225.6029 H   0  0  0  0  0  0  0  0  0  0  0  0
  138.8219   81.4461  225.0161 H   0  0  0  0  0  0  0  0  0  0  0  0
  137.6013   80.1792  225.0006 H   0  0  0  0  0  0  0  0  0  0  0  0
  140.8535   82.1478  224.3379 H   0  0  0  0  0  0  0  0  0  0  0  0
  143.2866   81.7378  224.1839 H   0  0  0  0  0  0  0  0  0  0  0  0
  144.1760   79.6971  223.0875 H   0  0  0  0  0  0  0  0  0  0  0  0
  142.5761   78.0421  222.1344 H   0  0  0  0  0  0  0  0  0  0  0  0
  142.4620   77.4880  220.3360 H   0  0  0  0  0  0  0  0  0  0  0  0
  144.5577   75.6809  219.7861 H   0  0  0  0  0  0  0  0  0  0  0  0
  1  2  1  0
  2  3  2  0
  2  4  1  0
  4  5  2  0
  5  6  1  0
  6  7  2  0
  7  8  1  0
  8  9  2  0
  9 10  1  0
 10 11  2  0
 10 12  1  0
 12 13  1  0
 14 13  1  6
 14 15  1  0
 15 16  1  0
 16 17  1  0
 17 18  1  0
 18 19  1  0
 19 20  1  0
 20 21  1  0
 21 22  1  0
 17 23  1  0
 14 24  1  0
 24 25  2  0
 25 26  1  0
 26 27  2  0
 27 28  1  0
 28 29  2  0
  9 30  1  0
 30 31  1  0
 31 32  2  0
 32  4  1  0
 31  7  1  0
 29 12  1  0
 23 14  1  0
 29 24  1  0
 22 18  1  0
  1 33  1  0
  1 34  1  0
  5 35  1  0
  6 36  1  0
  8 37  1  0
 13 38  1  0
 13 39  1  0
 15 40  1  0
 15 41  1  0
 16 42  1  0
 16 43  1  0
 18 44  1  6
 19 45  1  0
 19 46  1  0
 20 47  1  0
 20 48  1  0
 21 49  1  0
 22 50  1  0
 22 51  1  0
 23 52  1  0
 23 53  1  0
 25 54  1  0
 26 55  1  0
 27 56  1  0
 28 57  1  0
 30 58  1  0
 32 59  1  0
M  END
>  <smiles>  (43) 
NC(=O)c1ccc2cc(C(=O)N3C[C@]4(CCN(C5CCNC5)C4)c4ccccc43)[nH]c2c1

>  <score_type>  (43) 
oracle

>  <origin>  (43) 
autodockgpu

>  <m_score__min__energy>  (43) 
-9.4000000000000004

>  <m_primary>  (43) 
energy

>  <rmsd>  (43) 
6.7809482925579605

>  <m_score__min__rmsd>  (43) 
6.7809482925579605

>  <meeko>  (43) 
{"free_energy": -8.59, "intermolecular_energy": -9.79, "internal_energy": -1.12, "cluster_size": 35, "cluster_id": 1, "rank_in_cluster": 32}

>  <energy>  (43) 
-8.36

>  <cluster_rmsd>  (43) 
0.13

>  <cluster>  (43) 
3

$$$$

     RDKit          3D

 59 64  0  0  1  0  0  0  0  0999 V2000
  145.8110   72.9190  220.9470 N   0  0  0  0  0  0  0  0  0  0  0  0
  145.3940   73.1600  219.6010 C   0  0  0  0  0  0  0  0  0  0  0  0
  145.8860   72.5450  218.6220 O   0  0  0  0  0  0  0  0  0  0  0  0
  144.3540   74.1590  219.3220 C   0  0  0  0  0  0  0  0  0  0  0  0
  144.0660   74.4540  218.0100 C   0  0  0  0  0  0  0  0  0  0  0  0
  143.0950   75.3850  217.7100 C   0  0  0  0  0  0  0  0  0  0  0  0
  142.4160   76.0200  218.7340 C   0  0  0  0  0  0  0  0  0  0  0  0
  141.4190   76.9720  218.7110 C   0  0  0  0  0  0  0  0  0  0  0  0
  141.0820   77.2730  220.0310 C   0  0  0  0  0  0  0  0  0  0  0  0
  140.0820   78.2180  220.4450 C   0  0  0  0  0  0  0  0  0  0  0  0
  139.1430   78.4620  219.6180 O   0  0  0  0  0  0  0  0  0  0  0  0
  140.0610   78.8850  221.6790 N   0  0  0  0  0  0  0  0  0  0  0  0
  138.9060   79.0800  222.5680 C   0  0  0  0  0  0  0  0  0  0  0  0
  139.1400   80.5230  222.9670 C   0  0  1  0  0  0  0  0  0  0  0  0
  138.6820   81.3730  221.7990 C   0  0  0  0  0  0  0  0  0  0  0  0
  137.2450   81.6690  222.2540 C   0  0  0  0  0  0  0  0  0  0  0  0
  137.4900   82.0170  223.6420 N   0  0  0  0  0  0  0  0  0  0  0  0
  136.2570   82.1370  224.3930 C   0  0  2  0  0  0  0  0  0  0  0  0
  136.0030   80.9270  225.2460 C   0  0  0  0  0  0  0  0  0  0  0  0
  135.3650   79.9820  224.2760 C   0  0  0  0  0  0  0  0  0  0  0  0
  134.6280   80.7730  223.3390 N   0  0  0  0  0  0  0  0  0  0  0  0
  135.1190   82.1240  223.3720 C   0  0  0  0  0  0  0  0  0  0  0  0
  138.3350   80.9600  224.1530 C   0  0  0  0  0  0  0  0  0  0  0  0
  140.5990   80.5470  223.1720 C   0  0  0  0  0  0  0  0  0  0  0  0
  141.4660   81.2990  223.9260 C   0  0  0  0  0  0  0  0  0  0  0  0
  142.8310   81.0490  223.8830 C   0  0  0  0  0  0  0  0  0  0  0  0
  143.3600   80.0480  223.0910 C   0  0  0  0  0  0  0  0  0  0  0  0
  142.5010   79.2880  222.3310 C   0  0  0  0  0  0  0  0  0  0  0  0
  141.1360   79.5430  222.3790 C   0  0  0  0  0  0  0  0  0  0  0  0
  141.8690   76.5100  220.8260 N   0  0  0  0  0  0  0  0  0  0  0  0
  142.6850   75.7430  220.0710 C   0  0  0  0  0  0  0  0  0  0  0  0
  143.6620   74.8060  220.3140 C   0  0  0  0  0  0  0  0  0  0  0  0
  146.0010   73.6720  221.6350 H   0  0  0  0  0  0  0  0  0  0  0  0
  145.9480   71.9320  221.3090 H   0  0  0  0  0  0  0  0  0  0  0  0
  144.6106   73.9469  217.1999 H   0  0  0  0  0  0  0  0  0  0  0  0
  142.8613   75.6218  216.6615 H   0  0  0  0  0  0  0  0  0  0  0  0
  140.9688   77.4159  217.8109 H   0  0  0  0  0  0  0  0  0  0  0  0
  137.9520   78.9507  222.0359 H   0  0  0  0  0  0  0  0  0  0  0  0
  138.8325   78.3686  223.4038 H   0  0  0  0  0  0  0  0  0  0  0  0
  139.2792   82.2915  221.7000 H   0  0  0  0  0  0  0  0  0  0  0  0
  138.7735   80.9004  220.8099 H   0  0  0  0  0  0  0  0  0  0  0  0
  136.8034   82.5067  221.6944 H   0  0  0  0  0  0  0  0  0  0  0  0
  136.5305   80.8469  222.1004 H   0  0  0  0  0  0  0  0  0  0  0  0
  136.3198   83.0412  225.0163 H   0  0  0  0  0  0  0  0  0  0  0  0
  136.9424   80.5156  225.6439 H   0  0  0  0  0  0  0  0  0  0  0  0
  135.3842   81.1340  226.1315 H   0  0  0  0  0  0  0  0  0  0  0  0
  136.1379   79.4001  223.7526 H   0  0  0  0  0  0  0  0  0  0  0  0
  134.7027   79.2750  224.7970 H   0  0  0  0  0  0  0  0  0  0  0  0
  134.7540   80.3150  222.3960 H   0  0  0  0  0  0  0  0  0  0  0  0
  135.4926   82.4187  222.3802 H   0  0  0  0  0  0  0  0  0  0  0  0
  134.3246   82.8336  223.6467 H   0  0  0  0  0  0  0  0  0  0  0  0
  138.9909   81.3372  224.9515 H   0  0  0  0  0  0  0  0  0  0  0  0
  137.7559   80.1356  224.5946 H   0  0  0  0  0  0  0  0  0  0  0  0
  141.0770   82.1036  224.5673 H   0  0  0  0  0  0  0  0  0  0  0  0
  143.5082   81.6632  224.4947 H   0  0  0  0  0  0  0  0  0  0  0  0
  144.4441   79.8628  223.0686 H   0  0  0  0  0  0  0  0  0  0  0  0
  142.8921   78.4842  221.6899 H   0  0  0  0  0  0  0  0  0  0  0  0
  141.8910   76.4740  221.8680 H   0  0  0  0  0  0  0  0  0  0  0  0
  143.9012   74.5624  221.3597 H   0  0  0  0  0  0  0  0  0  0  0  0
  1  2  1  0
  2  3  2  0
  2  4  1  0
  4  5  2  0
  5  6  1  0
  6  7  2  0
  7  8  1  0
  8  9  2  0
  9 10  1  0
 10 11  2  0
 10 12  1  0
 12 13  1  0
 14 13  1  6
 14 15  1  0
 15 16  1  0
 16 17  1  0
 17 18  1  0
 18 19  1  0
 19 20  1  0
 20 21  1  0
 21 22  1  0
 17 23  1  0
 14 24  1  0
 24 25  2  0
 25 26  1  0
 26 27  2  0
 27 28  1  0
 28 29  2  0
  9 30  1  0
 30 31  1  0
 31 32  2  0
 32  4  1  0
 31  7  1  0
 29 12  1  0
 23 14  1  0
 29 24  1  0
 22 18  1  0
  1 33  1  0
  1 34  1  0
  5 35  1  0
  6 36  1  0
  8 37  1  0
 13 38  1  0
 13 39  1  0
 15 40  1  0
 15 41  1  0
 16 42  1  0
 16 43  1  0
 18 44  1  1
 19 45  1  0
 19 46  1  0
 20 47  1  0
 20 48  1  0
 21 49  1  0
 22 50  1  0
 22 51  1  0
 23 52  1  0
 23 53  1  0
 25 54  1  0
 26 55  1  0
 27 56  1  0
 28 57  1  0
 30 58  1  0
 32 59  1  0
M  END
>  <smiles>  (44) 
NC(=O)c1ccc2cc(C(=O)N3C[C@]4(CCN(C5CCNC5)C4)c4ccccc43)[nH]c2c1

>  <score_type>  (44) 
oracle

>  <origin>  (44) 
autodockgpu

>  <m_score__min__energy>  (44) 
-9.4000000000000004

>  <m_primary>  (44) 
energy

>  <rmsd>  (44) 
7.338790240752573

>  <m_score__min__rmsd>  (44) 
7.338790240752573

>  <meeko>  (44) 
{"free_energy": -8.49, "intermolecular_energy": -9.68, "internal_energy": -1.19, "cluster_size": 35, "cluster_id": 1, "rank_in_cluster": 35}

>  <energy>  (44) 
-8.3

>  <cluster_rmsd>  (44) 
1.58

>  <cluster>  (44) 
3

$$$$

     RDKit          3D

 59 64  0  0  1  0  0  0  0  0999 V2000
  144.4040   68.3890  218.1740 N   0  0  0  0  0  0  0  0  0  0  0  0
  144.9570   69.0570  219.3100 C   0  0  0  0  0  0  0  0  0  0  0  0
  145.7910   68.5100  220.0750 O   0  0  0  0  0  0  0  0  0  0  0  0
  144.5550   70.4360  219.6200 C   0  0  0  0  0  0  0  0  0  0  0  0
  145.4600   71.4470  219.3970 C   0  0  0  0  0  0  0  0  0  0  0  0
  145.1160   72.7520  219.6760 C   0  0  0  0  0  0  0  0  0  0  0  0
  143.8620   73.0380  220.1790 C   0  0  0  0  0  0  0  0  0  0  0  0
  143.2740   74.2340  220.5360 C   0  0  0  0  0  0  0  0  0  0  0  0
  141.9830   73.9600  220.9870 C   0  0  0  0  0  0  0  0  0  0  0  0
  141.0330   74.9350  221.4500 C   0  0  0  0  0  0  0  0  0  0  0  0
  140.1950   74.5490  222.3300 O   0  0  0  0  0  0  0  0  0  0  0  0
  140.9610   76.2650  221.0110 N   0  0  0  0  0  0  0  0  0  0  0  0
  140.6100   76.7430  219.6660 C   0  0  0  0  0  0  0  0  0  0  0  0
  141.6470   77.8370  219.5110 C   0  0  1  0  0  0  0  0  0  0  0  0
  142.9550   77.1500  219.1810 C   0  0  0  0  0  0  0  0  0  0  0  0
  142.9010   77.2340  217.6490 C   0  0  0  0  0  0  0  0  0  0  0  0
  142.4900   78.6170  217.4890 N   0  0  0  0  0  0  0  0  0  0  0  0
  142.1420   78.9220  216.1160 C   0  0  2  0  0  0  0  0  0  0  0  0
  140.6550   78.9930  215.9210 C   0  0  0  0  0  0  0  0  0  0  0  0
  140.2890   77.5530  215.7340 C   0  0  0  0  0  0  0  0  0  0  0  0
  141.3980   76.9160  215.0930 N   0  0  0  0  0  0  0  0  0  0  0  0
  142.5760   77.7190  215.2770 C   0  0  0  0  0  0  0  0  0  0  0  0
  141.3650   78.7810  218.3830 C   0  0  0  0  0  0  0  0  0  0  0  0
  141.6320   78.4580  220.8490 C   0  0  0  0  0  0  0  0  0  0  0  0
  141.9260   79.7010  221.3510 C   0  0  0  0  0  0  0  0  0  0  0  0
  141.8020   79.9570  222.7090 C   0  0  0  0  0  0  0  0  0  0  0  0
  141.3840   78.9810  223.5950 C   0  0  0  0  0  0  0  0  0  0  0  0
  141.0870   77.7310  223.1040 C   0  0  0  0  0  0  0  0  0  0  0  0
  141.2140   77.4820  221.7430 C   0  0  0  0  0  0  0  0  0  0  0  0
  141.8060   72.6200  220.9000 N   0  0  0  0  0  0  0  0  0  0  0  0
  142.9230   72.0370  220.4150 C   0  0  0  0  0  0  0  0  0  0  0  0
  143.3170   70.7520  220.1200 C   0  0  0  0  0  0  0  0  0  0  0  0
  143.3970   68.4140  217.9250 H   0  0  0  0  0  0  0  0  0  0  0  0
  145.0160   67.8230  217.5200 H   0  0  0  0  0  0  0  0  0  0  0  0
  146.4576   71.2143  218.9963 H   0  0  0  0  0  0  0  0  0  0  0  0
  145.8377   73.5630  219.4987 H   0  0  0  0  0  0  0  0  0  0  0  0
  143.7410   75.2281  220.4756 H   0  0  0  0  0  0  0  0  0  0  0  0
  140.7276   75.9556  218.9070 H   0  0  0  0  0  0  0  0  0  0  0  0
  139.5660   77.0664  219.5416 H   0  0  0  0  0  0  0  0  0  0  0  0
  143.8192   77.6923  219.5922 H   0  0  0  0  0  0  0  0  0  0  0  0
  143.0699   76.1362  219.5921 H   0  0  0  0  0  0  0  0  0  0  0  0
  143.8847   77.0449  217.1945 H   0  0  0  0  0  0  0  0  0  0  0  0
  142.2437   76.4956  217.1665 H   0  0  0  0  0  0  0  0  0  0  0  0
  142.6120   79.8788  215.8448 H   0  0  0  0  0  0  0  0  0  0  0  0
  140.1572   79.4191  216.8045 H   0  0  0  0  0  0  0  0  0  0  0  0
  140.3507   79.6374  215.0830 H   0  0  0  0  0  0  0  0  0  0  0  0
  140.0965   77.0830  216.7097 H   0  0  0  0  0  0  0  0  0  0  0  0
  139.3776   77.4569  215.1256 H   0  0  0  0  0  0  0  0  0  0  0  0
  141.4840   75.9570  215.5280 H   0  0  0  0  0  0  0  0  0  0  0  0
  143.3510   77.1445  215.8055 H   0  0  0  0  0  0  0  0  0  0  0  0
  143.0025   78.0339  214.3132 H   0  0  0  0  0  0  0  0  0  0  0  0
  141.3052   79.8170  218.7478 H   0  0  0  0  0  0  0  0  0  0  0  0
  140.4036   78.5721  217.8909 H   0  0  0  0  0  0  0  0  0  0  0  0
  142.2620   80.4991  220.6727 H   0  0  0  0  0  0  0  0  0  0  0  0
  142.0420   80.9606  223.0901 H   0  0  0  0  0  0  0  0  0  0  0  0
  141.2911   79.1996  224.6691 H   0  0  0  0  0  0  0  0  0  0  0  0
  140.7513   76.9341  223.7840 H   0  0  0  0  0  0  0  0  0  0  0  0
  140.9610   72.0630  221.1510 H   0  0  0  0  0  0  0  0  0  0  0  0
  142.6015   69.9348  220.2943 H   0  0  0  0  0  0  0  0  0  0  0  0
  1  2  1  0
  2  3  2  0
  2  4  1  0
  4  5  2  0
  5  6  1  0
  6  7  2  0
  7  8  1  0
  8  9  2  0
  9 10  1  0
 10 11  2  0
 10 12  1  0
 12 13  1  0
 14 13  1  1
 14 15  1  0
 15 16  1  0
 16 17  1  0
 17 18  1  0
 18 19  1  0
 19 20  1  0
 20 21  1  0
 21 22  1  0
 17 23  1  0
 14 24  1  0
 24 25  2  0
 25 26  1  0
 26 27  2  0
 27 28  1  0
 28 29  2  0
  9 30  1  0
 30 31  1  0
 31 32  2  0
 32  4  1  0
 31  7  1  0
 29 12  1  0
 23 14  1  0
 29 24  1  0
 22 18  1  0
  1 33  1  0
  1 34  1  0
  5 35  1  0
  6 36  1  0
  8 37  1  0
 13 38  1  0
 13 39  1  0
 15 40  1  0
 15 41  1  0
 16 42  1  0
 16 43  1  0
 18 44  1  6
 19 45  1  0
 19 46  1  0
 20 47  1  0
 20 48  1  0
 21 49  1  0
 22 50  1  0
 22 51  1  0
 23 52  1  0
 23 53  1  0
 25 54  1  0
 26 55  1  0
 27 56  1  0
 28 57  1  0
 30 58  1  0
 32 59  1  0
M  END
>  <smiles>  (45) 
NC(=O)c1ccc2cc(C(=O)N3C[C@]4(CCN(C5CCNC5)C4)c4ccccc43)[nH]c2c1

>  <score_type>  (45) 
oracle

>  <origin>  (45) 
autodockgpu

>  <m_score__min__energy>  (45) 
-9.4000000000000004

>  <m_primary>  (45) 
energy

>  <rmsd>  (45) 
6.209369086054049

>  <m_score__min__rmsd>  (45) 
6.209369086054049

>  <meeko>  (45) 
{"free_energy": -7.58, "intermolecular_energy": -8.78, "internal_energy": -1.37, "cluster_size": 8, "cluster_id": 3, "rank_in_cluster": 8}

>  <energy>  (45) 
-8.27

>  <cluster_rmsd>  (45) 
0.22

>  <cluster>  (45) 
3

$$$$

     RDKit          3D

 59 64  0  0  1  0  0  0  0  0999 V2000
  146.2330   69.6490  218.0020 N   0  0  0  0  0  0  0  0  0  0  0  0
  145.4450   69.8300  219.1800 C   0  0  0  0  0  0  0  0  0  0  0  0
  145.1860   68.8870  219.9690 O   0  0  0  0  0  0  0  0  0  0  0  0
  144.9040   71.1560  219.5070 C   0  0  0  0  0  0  0  0  0  0  0  0
  145.6800   72.2610  219.2460 C   0  0  0  0  0  0  0  0  0  0  0  0
  145.2040   73.5210  219.5380 C   0  0  0  0  0  0  0  0  0  0  0  0
  143.9470   73.6660  220.0950 C   0  0  0  0  0  0  0  0  0  0  0  0
  143.2450   74.7910  220.4770 C   0  0  0  0  0  0  0  0  0  0  0  0
  142.0130   74.3760  220.9830 C   0  0  0  0  0  0  0  0  0  0  0  0
  140.9810   75.2400  221.4870 C   0  0  0  0  0  0  0  0  0  0  0  0
  140.1480   74.7270  222.3040 O   0  0  0  0  0  0  0  0  0  0  0  0
  140.8240   76.5930  221.1500 N   0  0  0  0  0  0  0  0  0  0  0  0
  140.1750   77.1450  219.9510 C   0  0  0  0  0  0  0  0  0  0  0  0
  141.1600   78.2480  219.6210 C   0  0  1  0  0  0  0  0  0  0  0  0
  142.3480   77.5820  218.9580 C   0  0  0  0  0  0  0  0  0  0  0  0
  141.9410   77.7520  217.4870 C   0  0  0  0  0  0  0  0  0  0  0  0
  141.5200   79.1410  217.5040 N   0  0  0  0  0  0  0  0  0  0  0  0
  140.8670   79.5210  216.2680 C   0  0  2  0  0  0  0  0  0  0  0  0
  141.2300   78.6000  215.1380 C   0  0  0  0  0  0  0  0  0  0  0  0
  142.5330   79.1690  214.6690 C   0  0  0  0  0  0  0  0  0  0  0  0
  142.4800   80.5820  214.8900 N   0  0  0  0  0  0  0  0  0  0  0  0
  141.4570   80.8710  215.8580 C   0  0  0  0  0  0  0  0  0  0  0  0
  140.6340   79.2530  218.6420 C   0  0  0  0  0  0  0  0  0  0  0  0
  141.4630   78.7930  220.9570 C   0  0  0  0  0  0  0  0  0  0  0  0
  141.8790   80.0070  221.4440 C   0  0  0  0  0  0  0  0  0  0  0  0
  142.0760   80.1860  222.8060 C   0  0  0  0  0  0  0  0  0  0  0  0
  141.8650   79.1610  223.7100 C   0  0  0  0  0  0  0  0  0  0  0  0
  141.4480   77.9400  223.2330 C   0  0  0  0  0  0  0  0  0  0  0  0
  141.2530   77.7680  221.8690 C   0  0  0  0  0  0  0  0  0  0  0  0
  141.9850   73.0250  220.9040 N   0  0  0  0  0  0  0  0  0  0  0  0
  143.1390   72.5680  220.3710 C   0  0  0  0  0  0  0  0  0  0  0  0
  143.6610   71.3340  220.0600 C   0  0  0  0  0  0  0  0  0  0  0  0
  145.9870   70.0500  217.0770 H   0  0  0  0  0  0  0  0  0  0  0  0
  147.1290   69.0820  218.0240 H   0  0  0  0  0  0  0  0  0  0  0  0
  146.6801   72.1392  218.8044 H   0  0  0  0  0  0  0  0  0  0  0  0
  145.8213   74.4071  219.3288 H   0  0  0  0  0  0  0  0  0  0  0  0
  143.5949   75.8308  220.3967 H   0  0  0  0  0  0  0  0  0  0  0  0
  140.1049   76.4018  219.1431 H   0  0  0  0  0  0  0  0  0  0  0  0
  139.1340   77.4721  220.0899 H   0  0  0  0  0  0  0  0  0  0  0  0
  143.2905   78.1013  219.1862 H   0  0  0  0  0  0  0  0  0  0  0  0
  142.5430   76.5467  219.2746 H   0  0  0  0  0  0  0  0  0  0  0  0
  142.7902   77.5906  216.8067 H   0  0  0  0  0  0  0  0  0  0  0  0
  141.1815   77.0408  217.1300 H   0  0  0  0  0  0  0  0  0  0  0  0
  139.7800   79.5136  216.4364 H   0  0  0  0  0  0  0  0  0  0  0  0
  141.3511   77.5651  215.4907 H   0  0  0  0  0  0  0  0  0  0  0  0
  140.4640   78.5457  214.3504 H   0  0  0  0  0  0  0  0  0  0  0  0
  143.3640   78.7289  215.2398 H   0  0  0  0  0  0  0  0  0  0  0  0
  142.6969   78.9455  213.6045 H   0  0  0  0  0  0  0  0  0  0  0  0
  143.4430   80.8700  215.2140 H   0  0  0  0  0  0  0  0  0  0  0  0
  141.8909   81.3791  216.7318 H   0  0  0  0  0  0  0  0  0  0  0  0
  140.6864   81.5364  215.4416 H   0  0  0  0  0  0  0  0  0  0  0  0
  140.6713   80.2671  219.0666 H   0  0  0  0  0  0  0  0  0  0  0  0
  139.5826   79.0698  218.3757 H   0  0  0  0  0  0  0  0  0  0  0  0
  142.0572   80.8425  220.7510 H   0  0  0  0  0  0  0  0  0  0  0  0
  142.4082   81.1674  223.1756 H   0  0  0  0  0  0  0  0  0  0  0  0
  142.0270   79.3185  224.7865 H   0  0  0  0  0  0  0  0  0  0  0  0
  141.2702   77.1056  223.9274 H   0  0  0  0  0  0  0  0  0  0  0  0
  141.2190   72.3780  221.1920 H   0  0  0  0  0  0  0  0  0  0  0  0
  143.0497   70.4429  220.2655 H   0  0  0  0  0  0  0  0  0  0  0  0
  1  2  1  0
  2  3  2  0
  2  4  1  0
  4  5  2  0
  5  6  1  0
  6  7  2  0
  7  8  1  0
  8  9  2  0
  9 10  1  0
 10 11  2  0
 10 12  1  0
 12 13  1  0
 14 13  1  1
 14 15  1  0
 15 16  1  0
 16 17  1  0
 17 18  1  0
 18 19  1  0
 19 20  1  0
 20 21  1  0
 21 22  1  0
 17 23  1  0
 14 24  1  0
 24 25  2  0
 25 26  1  0
 26 27  2  0
 27 28  1  0
 28 29  2  0
  9 30  1  0
 30 31  1  0
 31 32  2  0
 32  4  1  0
 31  7  1  0
 29 12  1  0
 23 14  1  0
 29 24  1  0
 22 18  1  0
  1 33  1  0
  1 34  1  0
  5 35  1  0
  6 36  1  0
  8 37  1  0
 13 38  1  0
 13 39  1  0
 15 40  1  0
 15 41  1  0
 16 42  1  0
 16 43  1  0
 18 44  1  1
 19 45  1  0
 19 46  1  0
 20 47  1  0
 20 48  1  0
 21 49  1  0
 22 50  1  0
 22 51  1  0
 23 52  1  0
 23 53  1  0
 25 54  1  0
 26 55  1  0
 27 56  1  0
 28 57  1  0
 30 58  1  0
 32 59  1  0
M  END
>  <smiles>  (46) 
NC(=O)c1ccc2cc(C(=O)N3C[C@]4(CCN(C5CCNC5)C4)c4ccccc43)[nH]c2c1

>  <score_type>  (46) 
oracle

>  <origin>  (46) 
autodockgpu

>  <m_score__min__energy>  (46) 
-9.4000000000000004

>  <m_primary>  (46) 
energy

>  <rmsd>  (46) 
6.339081935939947

>  <m_score__min__rmsd>  (46) 
6.339081935939947

>  <meeko>  (46) 
{"free_energy": -8.36, "intermolecular_energy": -9.55, "internal_energy": -1.37, "cluster_size": 8, "cluster_id": 3, "rank_in_cluster": 4}

>  <energy>  (46) 
-8.04

>  <cluster_rmsd>  (46) 
1.0

>  <cluster>  (46) 
3

$$$$

     RDKit          3D

 59 64  0  0  1  0  0  0  0  0999 V2000
  146.2160   72.0470  220.4230 N   0  0  0  0  0  0  0  0  0  0  0  0
  145.5410   72.9300  219.5230 C   0  0  0  0  0  0  0  0  0  0  0  0
  145.9950   73.2100  218.3860 O   0  0  0  0  0  0  0  0  0  0  0  0
  144.2660   73.5460  219.9160 C   0  0  0  0  0  0  0  0  0  0  0  0
  143.2390   72.7240  220.3180 C   0  0  0  0  0  0  0  0  0  0  0  0
  142.0300   73.2670  220.6950 C   0  0  0  0  0  0  0  0  0  0  0  0
  141.8560   74.6380  220.6650 C   0  0  0  0  0  0  0  0  0  0  0  0
  140.7690   75.4250  220.9840 C   0  0  0  0  0  0  0  0  0  0  0  0
  141.1280   76.7570  220.7770 C   0  0  0  0  0  0  0  0  0  0  0  0
  140.2790   77.8960  220.9960 C   0  0  0  0  0  0  0  0  0  0  0  0
  139.5100   78.2330  220.0370 O   0  0  0  0  0  0  0  0  0  0  0  0
  140.2350   78.6560  222.1740 N   0  0  0  0  0  0  0  0  0  0  0  0
  139.1000   78.8030  223.0980 C   0  0  0  0  0  0  0  0  0  0  0  0
  139.1930   80.2910  223.3720 C   0  0  1  0  0  0  0  0  0  0  0  0
  138.6030   80.9900  222.1650 C   0  0  0  0  0  0  0  0  0  0  0  0
  137.1610   81.1720  222.6620 C   0  0  0  0  0  0  0  0  0  0  0  0
  137.4200   81.6560  224.0050 N   0  0  0  0  0  0  0  0  0  0  0  0
  136.2110   81.7100  224.8010 C   0  0  2  0  0  0  0  0  0  0  0  0
  135.6920   83.1130  224.9330 C   0  0  0  0  0  0  0  0  0  0  0  0
  136.5090   83.6500  226.0670 C   0  0  0  0  0  0  0  0  0  0  0  0
  136.7890   82.5530  226.9420 N   0  0  0  0  0  0  0  0  0  0  0  0
  136.6080   81.3190  226.2260 C   0  0  0  0  0  0  0  0  0  0  0  0
  138.3930   80.7380  224.5560 C   0  0  0  0  0  0  0  0  0  0  0  0
  140.6490   80.4830  223.5070 C   0  0  0  0  0  0  0  0  0  0  0  0
  141.4580   81.3800  224.1580 C   0  0  0  0  0  0  0  0  0  0  0  0
  142.8390   81.2700  224.0720 C   0  0  0  0  0  0  0  0  0  0  0  0
  143.4410   80.2670  223.3360 C   0  0  0  0  0  0  0  0  0  0  0  0
  142.6410   79.3620  222.6780 C   0  0  0  0  0  0  0  0  0  0  0  0
  141.2590   79.4780  222.7690 C   0  0  0  0  0  0  0  0  0  0  0  0
  142.4090   76.7600  220.3400 N   0  0  0  0  0  0  0  0  0  0  0  0
  142.8760   75.4950  220.2630 C   0  0  0  0  0  0  0  0  0  0  0  0
  144.0620   74.9020  219.8980 C   0  0  0  0  0  0  0  0  0  0  0  0
  146.3360   72.2380  221.4360 H   0  0  0  0  0  0  0  0  0  0  0  0
  146.6350   71.1340  220.0830 H   0  0  0  0  0  0  0  0  0  0  0  0
  143.3828   71.6336  220.3385 H   0  0  0  0  0  0  0  0  0  0  0  0
  141.2071   72.6125  221.0184 H   0  0  0  0  0  0  0  0  0  0  0  0
  139.7918   75.0657  221.3389 H   0  0  0  0  0  0  0  0  0  0  0  0
  138.1458   78.5320  222.6226 H   0  0  0  0  0  0  0  0  0  0  0  0
  139.1350   78.1593  223.9893 H   0  0  0  0  0  0  0  0  0  0  0  0
  139.0944   81.9541  221.9675 H   0  0  0  0  0  0  0  0  0  0  0  0
  138.7067   80.4500  221.2123 H   0  0  0  0  0  0  0  0  0  0  0  0
  136.6114   81.9107  222.0602 H   0  0  0  0  0  0  0  0  0  0  0  0
  136.5331   80.2705  222.6061 H   0  0  0  0  0  0  0  0  0  0  0  0
  135.4570   81.0638  224.3278 H   0  0  0  0  0  0  0  0  0  0  0  0
  135.8623   83.6891  224.0115 H   0  0  0  0  0  0  0  0  0  0  0  0
  134.6073   83.1668  225.1074 H   0  0  0  0  0  0  0  0  0  0  0  0
  137.4481   84.0775  225.6858 H   0  0  0  0  0  0  0  0  0  0  0  0
  135.9653   84.4450  226.5984 H   0  0  0  0  0  0  0  0  0  0  0  0
  137.7800   82.6870  227.2820 H   0  0  0  0  0  0  0  0  0  0  0  0
  137.5445   80.7420  226.2168 H   0  0  0  0  0  0  0  0  0  0  0  0
  135.8402   80.6888  226.6987 H   0  0  0  0  0  0  0  0  0  0  0  0
  139.0351   81.2457  225.2908 H   0  0  0  0  0  0  0  0  0  0  0  0
  137.9232   79.8970  225.0871 H   0  0  0  0  0  0  0  0  0  0  0  0
  141.0097   82.1906  224.7512 H   0  0  0  0  0  0  0  0  0  0  0  0
  143.4695   81.9987  224.6025 H   0  0  0  0  0  0  0  0  0  0  0  0
  144.5370   80.1940  223.2776 H   0  0  0  0  0  0  0  0  0  0  0  0
  143.0915   78.5528  222.0844 H   0  0  0  0  0  0  0  0  0  0  0  0
  143.0020   77.5800  220.0870 H   0  0  0  0  0  0  0  0  0  0  0  0
  144.8905   75.5494  219.5746 H   0  0  0  0  0  0  0  0  0  0  0  0
  1  2  1  0
  2  3  2  0
  2  4  1  0
  4  5  2  0
  5  6  1  0
  6  7  2  0
  7  8  1  0
  8  9  2  0
  9 10  1  0
 10 11  2  0
 10 12  1  0
 12 13  1  0
 14 13  1  6
 14 15  1  0
 15 16  1  0
 16 17  1  0
 17 18  1  0
 18 19  1  0
 19 20  1  0
 20 21  1  0
 21 22  1  0
 17 23  1  0
 14 24  1  0
 24 25  2  0
 25 26  1  0
 26 27  2  0
 27 28  1  0
 28 29  2  0
  9 30  1  0
 30 31  1  0
 31 32  2  0
 32  4  1  0
 31  7  1  0
 29 12  1  0
 23 14  1  0
 29 24  1  0
 22 18  1  0
  1 33  1  0
  1 34  1  0
  5 35  1  0
  6 36  1  0
  8 37  1  0
 13 38  1  0
 13 39  1  0
 15 40  1  0
 15 41  1  0
 16 42  1  0
 16 43  1  0
 18 44  1  6
 19 45  1  0
 19 46  1  0
 20 47  1  0
 20 48  1  0
 21 49  1  0
 22 50  1  0
 22 51  1  0
 23 52  1  0
 23 53  1  0
 25 54  1  0
 26 55  1  0
 27 56  1  0
 28 57  1  0
 30 58  1  0
 32 59  1  0
M  END
>  <smiles>  (47) 
NC(=O)c1ccc2cc(C(=O)N3C[C@]4(CCN(C5CCNC5)C4)c4ccccc43)[nH]c2c1

>  <score_type>  (47) 
oracle

>  <origin>  (47) 
autodockgpu

>  <m_score__min__energy>  (47) 
-9.4000000000000004

>  <m_primary>  (47) 
energy

>  <rmsd>  (47) 
6.832893229415055

>  <m_score__min__rmsd>  (47) 
6.832893229415055

>  <meeko>  (47) 
{"free_energy": -9.4, "intermolecular_energy": -10.59, "internal_energy": -1.22, "cluster_size": 35, "cluster_id": 1, "rank_in_cluster": 1}

>  <energy>  (47) 
-7.58

>  <cluster_rmsd>  (47) 
1.5

>  <cluster>  (47) 
3

$$$$

     RDKit          3D

 59 64  0  0  1  0  0  0  0  0999 V2000
  145.7410   73.7290  217.7010 N   0  0  0  0  0  0  0  0  0  0  0  0
  145.4680   73.4010  219.0660 C   0  0  0  0  0  0  0  0  0  0  0  0
  146.2840   72.7710  219.7840 O   0  0  0  0  0  0  0  0  0  0  0  0
  144.1950   73.8040  219.6780 C   0  0  0  0  0  0  0  0  0  0  0  0
  143.4430   72.8450  220.3140 C   0  0  0  0  0  0  0  0  0  0  0  0
  142.2440   73.1870  220.9010 C   0  0  0  0  0  0  0  0  0  0  0  0
  141.8020   74.4950  220.8440 C   0  0  0  0  0  0  0  0  0  0  0  0
  140.6620   75.0940  221.3390 C   0  0  0  0  0  0  0  0  0  0  0  0
  140.7080   76.4470  221.0040 C   0  0  0  0  0  0  0  0  0  0  0  0
  139.7100   77.4260  221.3370 C   0  0  0  0  0  0  0  0  0  0  0  0
  138.6660   77.4550  220.6050 O   0  0  0  0  0  0  0  0  0  0  0  0
  139.7970   78.3430  222.3950 N   0  0  0  0  0  0  0  0  0  0  0  0
  138.7670   78.6480  223.3990 C   0  0  0  0  0  0  0  0  0  0  0  0
  138.9070   80.1560  223.4500 C   0  0  1  0  0  0  0  0  0  0  0  0
  138.2050   80.6980  222.2220 C   0  0  0  0  0  0  0  0  0  0  0  0
  136.8250   80.9860  222.8310 C   0  0  0  0  0  0  0  0  0  0  0  0
  137.2280   81.6440  224.0600 N   0  0  0  0  0  0  0  0  0  0  0  0
  136.1090   81.8400  224.9590 C   0  0  2  0  0  0  0  0  0  0  0  0
  135.6320   83.2650  224.9530 C   0  0  0  0  0  0  0  0  0  0  0  0
  136.5710   83.9190  225.9180 C   0  0  0  0  0  0  0  0  0  0  0  0
  136.9190   82.9380  226.8990 N   0  0  0  0  0  0  0  0  0  0  0  0
  136.6420   81.6280  226.3760 C   0  0  0  0  0  0  0  0  0  0  0  0
  138.2400   80.7840  224.6350 C   0  0  0  0  0  0  0  0  0  0  0  0
  140.3720   80.3240  223.4100 C   0  0  0  0  0  0  0  0  0  0  0  0
  141.2560   81.2790  223.8450 C   0  0  0  0  0  0  0  0  0  0  0  0
  142.6190   81.1200  223.6370 C   0  0  0  0  0  0  0  0  0  0  0  0
  143.1290   80.0090  222.9920 C   0  0  0  0  0  0  0  0  0  0  0  0
  142.2520   79.0440  222.5510 C   0  0  0  0  0  0  0  0  0  0  0  0
  140.8890   79.2100  222.7630 C   0  0  0  0  0  0  0  0  0  0  0  0
  141.8590   76.6490  220.3190 N   0  0  0  0  0  0  0  0  0  0  0  0
  142.5410   75.4890  220.2080 C   0  0  0  0  0  0  0  0  0  0  0  0
  143.7300   75.0940  219.6400 C   0  0  0  0  0  0  0  0  0  0  0  0
  145.0520   73.6180  216.9330 H   0  0  0  0  0  0  0  0  0  0  0  0
  146.6860   74.1100  217.4070 H   0  0  0  0  0  0  0  0  0  0  0  0
  143.7982   71.8047  220.3544 H   0  0  0  0  0  0  0  0  0  0  0  0
  141.6414   72.4221  221.4127 H   0  0  0  0  0  0  0  0  0  0  0  0
  139.8587   74.5929  221.8990 H   0  0  0  0  0  0  0  0  0  0  0  0
  137.7650   78.3399  223.0657 H   0  0  0  0  0  0  0  0  0  0  0  0
  138.8866   78.1336  224.3639 H   0  0  0  0  0  0  0  0  0  0  0  0
  138.6860   81.6119  221.8433 H   0  0  0  0  0  0  0  0  0  0  0  0
  138.2029   80.0294  221.3485 H   0  0  0  0  0  0  0  0  0  0  0  0
  136.2255   81.6491  222.1899 H   0  0  0  0  0  0  0  0  0  0  0  0
  136.1831   80.1029  222.9657 H   0  0  0  0  0  0  0  0  0  0  0  0
  135.2993   81.1606  224.6543 H   0  0  0  0  0  0  0  0  0  0  0  0
  135.7174   83.7096  223.9505 H   0  0  0  0  0  0  0  0  0  0  0  0
  134.5721   83.3761  225.2254 H   0  0  0  0  0  0  0  0  0  0  0  0
  137.4737   84.2626  225.3916 H   0  0  0  0  0  0  0  0  0  0  0  0
  136.0997   84.7937  226.3900 H   0  0  0  0  0  0  0  0  0  0  0  0
  137.9420   83.0830  227.1180 H   0  0  0  0  0  0  0  0  0  0  0  0
  137.5614   81.0246  226.3515 H   0  0  0  0  0  0  0  0  0  0  0  0
  135.9143   81.0913  227.0025 H   0  0  0  0  0  0  0  0  0  0  0  0
  138.9614   81.3701  225.2232 H   0  0  0  0  0  0  0  0  0  0  0  0
  137.8166   80.0382  225.3238 H   0  0  0  0  0  0  0  0  0  0  0  0
  140.8824   82.1755  224.3614 H   0  0  0  0  0  0  0  0  0  0  0  0
  143.3104   81.8974  223.9943 H   0  0  0  0  0  0  0  0  0  0  0  0
  144.2120   79.8984  222.8345 H   0  0  0  0  0  0  0  0  0  0  0  0
  142.6275   78.1482  222.0346 H   0  0  0  0  0  0  0  0  0  0  0  0
  142.2210   77.5400  219.9150 H   0  0  0  0  0  0  0  0  0  0  0  0
  144.3402   75.8528  219.1282 H   0  0  0  0  0  0  0  0  0  0  0  0
  1  2  1  0
  2  3  2  0
  2  4  1  0
  4  5  2  0
  5  6  1  0
  6  7  2  0
  7  8  1  0
  8  9  2  0
  9 10  1  0
 10 11  2  0
 10 12  1  0
 12 13  1  0
 14 13  1  1
 14 15  1  0
 15 16  1  0
 16 17  1  0
 17 18  1  0
 18 19  1  0
 19 20  1  0
 20 21  1  0
 21 22  1  0
 17 23  1  0
 14 24  1  0
 24 25  2  0
 25 26  1  0
 26 27  2  0
 27 28  1  0
 28 29  2  0
  9 30  1  0
 30 31  1  0
 31 32  2  0
 32  4  1  0
 31  7  1  0
 29 12  1  0
 23 14  1  0
 29 24  1  0
 22 18  1  0
  1 33  1  0
  1 34  1  0
  5 35  1  0
  6 36  1  0
  8 37  1  0
 13 38  1  0
 13 39  1  0
 15 40  1  0
 15 41  1  0
 16 42  1  0
 16 43  1  0
 18 44  1  6
 19 45  1  0
 19 46  1  0
 20 47  1  0
 20 48  1  0
 21 49  1  0
 22 50  1  0
 22 51  1  0
 23 52  1  0
 23 53  1  0
 25 54  1  0
 26 55  1  0
 27 56  1  0
 28 57  1  0
 30 58  1  0
 32 59  1  0
M  END
>  <smiles>  (48) 
NC(=O)c1ccc2cc(C(=O)N3C[C@]4(CCN(C5CCNC5)C4)c4ccccc43)[nH]c2c1

>  <score_type>  (48) 
oracle

>  <origin>  (48) 
autodockgpu

>  <m_score__min__energy>  (48) 
-9.4000000000000004

>  <m_primary>  (48) 
energy

>  <rmsd>  (48) 
6.895687800561481

>  <m_score__min__rmsd>  (48) 
6.895687800561481

>  <meeko>  (48) 
{"free_energy": -8.51, "intermolecular_energy": -9.71, "internal_energy": -1.24, "cluster_size": 35, "cluster_id": 1, "rank_in_cluster": 33}

>  <energy>  (48) 
-8.31

>  <cluster_rmsd>  (48) 
0.0

>  <cluster>  (48) 
4

$$$$

     RDKit          3D

 59 64  0  0  1  0  0  0  0  0999 V2000
  145.7930   72.9220  220.8100 N   0  0  0  0  0  0  0  0  0  0  0  0
  145.3430   73.0940  219.4640 C   0  0  0  0  0  0  0  0  0  0  0  0
  145.6970   72.3300  218.5320 O   0  0  0  0  0  0  0  0  0  0  0  0
  144.4310   74.1970  219.1290 C   0  0  0  0  0  0  0  0  0  0  0  0
  144.0700   74.3700  217.8140 C   0  0  0  0  0  0  0  0  0  0  0  0
  143.2160   75.3930  217.4630 C   0  0  0  0  0  0  0  0  0  0  0  0
  142.7270   76.2420  218.4380 C   0  0  0  0  0  0  0  0  0  0  0  0
  141.8740   77.3230  218.3600 C   0  0  0  0  0  0  0  0  0  0  0  0
  141.7030   77.8280  219.6490 C   0  0  0  0  0  0  0  0  0  0  0  0
  140.8850   78.9560  220.0040 C   0  0  0  0  0  0  0  0  0  0  0  0
  140.3380   79.5940  219.0460 O   0  0  0  0  0  0  0  0  0  0  0  0
  140.6470   79.4010  221.3130 N   0  0  0  0  0  0  0  0  0  0  0  0
  139.3680   79.3930  222.0390 C   0  0  0  0  0  0  0  0  0  0  0  0
  139.4460   80.7560  222.6970 C   0  0  1  0  0  0  0  0  0  0  0  0
  139.1010   81.7720  221.6270 C   0  0  0  0  0  0  0  0  0  0  0  0
  137.5980   81.9240  221.9040 C   0  0  0  0  0  0  0  0  0  0  0  0
  137.6220   82.0410  223.3500 N   0  0  0  0  0  0  0  0  0  0  0  0
  136.2900   81.9790  223.9180 C   0  0  2  0  0  0  0  0  0  0  0  0
  135.9990   83.1690  224.7870 C   0  0  0  0  0  0  0  0  0  0  0  0
  136.6150   82.7700  226.0920 C   0  0  0  0  0  0  0  0  0  0  0  0
  136.5010   81.3470  226.1950 N   0  0  0  0  0  0  0  0  0  0  0  0
  136.2810   80.7950  224.8860 C   0  0  0  0  0  0  0  0  0  0  0  0
  138.4560   80.9500  223.8040 C   0  0  0  0  0  0  0  0  0  0  0  0
  140.8580   80.8070  223.1200 C   0  0  0  0  0  0  0  0  0  0  0  0
  141.5570   81.4560  224.1060 C   0  0  0  0  0  0  0  0  0  0  0  0
  142.9280   81.2750  224.2290 C   0  0  0  0  0  0  0  0  0  0  0  0
  143.6290   80.4470  223.3730 C   0  0  0  0  0  0  0  0  0  0  0  0
  142.9390   79.7910  222.3800 C   0  0  0  0  0  0  0  0  0  0  0  0
  141.5670   79.9770  222.2630 C   0  0  0  0  0  0  0  0  0  0  0  0
  142.4440   77.0580  220.4800 N   0  0  0  0  0  0  0  0  0  0  0  0
  143.0730   76.0920  219.7780 C   0  0  0  0  0  0  0  0  0  0  0  0
  143.9280   75.0550  220.0740 C   0  0  0  0  0  0  0  0  0  0  0  0
  146.1170   73.7020  221.4130 H   0  0  0  0  0  0  0  0  0  0  0  0
  145.8160   71.9630  221.2610 H   0  0  0  0  0  0  0  0  0  0  0  0
  144.4628   73.6920  217.0420 H   0  0  0  0  0  0  0  0  0  0  0  0
  142.9248   75.5333  216.4116 H   0  0  0  0  0  0  0  0  0  0  0  0
  141.4106   77.7171  217.4436 H   0  0  0  0  0  0  0  0  0  0  0  0
  138.5090   79.3154  221.3563 H   0  0  0  0  0  0  0  0  0  0  0  0
  139.2259   78.5476  222.7282 H   0  0  0  0  0  0  0  0  0  0  0  0
  139.6430   82.7186  221.7688 H   0  0  0  0  0  0  0  0  0  0  0  0
  139.3623   81.4795  220.5993 H   0  0  0  0  0  0  0  0  0  0  0  0
  137.1837   82.8249  221.4279 H   0  0  0  0  0  0  0  0  0  0  0  0
  136.9692   81.1100  221.5142 H   0  0  0  0  0  0  0  0  0  0  0  0
  135.5655   81.9177  223.0926 H   0  0  0  0  0  0  0  0  0  0  0  0
  136.4692   84.0792  224.3864 H   0  0  0  0  0  0  0  0  0  0  0  0
  134.9280   83.4089  224.8608 H   0  0  0  0  0  0  0  0  0  0  0  0
  137.6741   83.0661  226.1152 H   0  0  0  0  0  0  0  0  0  0  0  0
  136.1059   83.2648  226.9322 H   0  0  0  0  0  0  0  0  0  0  0  0
  137.3970   81.0060  226.6380 H   0  0  0  0  0  0  0  0  0  0  0  0
  137.0834   80.0873  224.6306 H   0  0  0  0  0  0  0  0  0  0  0  0
  135.3302   80.2440  224.8374 H   0  0  0  0  0  0  0  0  0  0  0  0
  138.9667   81.2140  224.7418 H   0  0  0  0  0  0  0  0  0  0  0  0
  137.8776   80.0385  224.0153 H   0  0  0  0  0  0  0  0  0  0  0  0
  141.0285   82.1232  224.8028 H   0  0  0  0  0  0  0  0  0  0  0  0
  143.4695   81.8036  225.0274 H   0  0  0  0  0  0  0  0  0  0  0  0
  144.7155   80.3153  223.4833 H   0  0  0  0  0  0  0  0  0  0  0  0
  143.4693   79.1244  221.6840 H   0  0  0  0  0  0  0  0  0  0  0  0
  142.5540   77.1460  221.5140 H   0  0  0  0  0  0  0  0  0  0  0  0
  144.2235   74.9063  221.1231 H   0  0  0  0  0  0  0  0  0  0  0  0
  1  2  1  0
  2  3  2  0
  2  4  1  0
  4  5  2  0
  5  6  1  0
  6  7  2  0
  7  8  1  0
  8  9  2  0
  9 10  1  0
 10 11  2  0
 10 12  1  0
 12 13  1  0
 14 13  1  6
 14 15  1  0
 15 16  1  0
 16 17  1  0
 17 18  1  0
 18 19  1  0
 19 20  1  0
 20 21  1  0
 21 22  1  0
 17 23  1  0
 14 24  1  0
 24 25  2  0
 25 26  1  0
 26 27  2  0
 27 28  1  0
 28 29  2  0
  9 30  1  0
 30 31  1  0
 31 32  2  0
 32  4  1  0
 31  7  1  0
 29 12  1  0
 23 14  1  0
 29 24  1  0
 22 18  1  0
  1 33  1  0
  1 34  1  0
  5 35  1  0
  6 36  1  0
  8 37  1  0
 13 38  1  0
 13 39  1  0
 15 40  1  0
 15 41  1  0
 16 42  1  0
 16 43  1  0
 18 44  1  6
 19 45  1  0
 19 46  1  0
 20 47  1  0
 20 48  1  0
 21 49  1  0
 22 50  1  0
 22 51  1  0
 23 52  1  0
 23 53  1  0
 25 54  1  0
 26 55  1  0
 27 56  1  0
 28 57  1  0
 30 58  1  0
 32 59  1  0
M  END
>  <smiles>  (49) 
NC(=O)c1ccc2cc(C(=O)N3C[C@]4(CCN(C5CCNC5)C4)c4ccccc43)[nH]c2c1

>  <score_type>  (49) 
oracle

>  <origin>  (49) 
autodockgpu

>  <m_score__min__energy>  (49) 
-9.4000000000000004

>  <m_primary>  (49) 
energy

>  <rmsd>  (49) 
7.451390340440492

>  <m_score__min__rmsd>  (49) 
7.451390340440492

>  <meeko>  (49) 
{"free_energy": -8.64, "intermolecular_energy": -9.83, "internal_energy": -1.21, "cluster_size": 35, "cluster_id": 1, "rank_in_cluster": 31}

>  <energy>  (49) 
-8.23

>  <cluster_rmsd>  (49) 
1.5

>  <cluster>  (49) 
4

$$$$

     RDKit          3D

 59 64  0  0  1  0  0  0  0  0999 V2000
  145.2610   72.3230  220.6630 N   0  0  0  0  0  0  0  0  0  0  0  0
  145.2850   73.1360  219.4880 C   0  0  0  0  0  0  0  0  0  0  0  0
  146.1730   73.0220  218.6070 O   0  0  0  0  0  0  0  0  0  0  0  0
  144.2440   74.1510  219.2760 C   0  0  0  0  0  0  0  0  0  0  0  0
  143.9180   74.4920  217.9840 C   0  0  0  0  0  0  0  0  0  0  0  0
  142.9460   75.4400  217.7470 C   0  0  0  0  0  0  0  0  0  0  0  0
  142.3040   76.0440  218.8120 C   0  0  0  0  0  0  0  0  0  0  0  0
  141.3140   77.0040  218.8530 C   0  0  0  0  0  0  0  0  0  0  0  0
  141.0220   77.2620  220.1930 C   0  0  0  0  0  0  0  0  0  0  0  0
  140.0420   78.1990  220.6700 C   0  0  0  0  0  0  0  0  0  0  0  0
  139.0860   78.4860  219.8770 O   0  0  0  0  0  0  0  0  0  0  0  0
  140.0590   78.8150  221.9300 N   0  0  0  0  0  0  0  0  0  0  0  0
  138.9620   78.8790  222.9070 C   0  0  0  0  0  0  0  0  0  0  0  0
  139.1070   80.3210  223.3500 C   0  0  1  0  0  0  0  0  0  0  0  0
  138.4960   81.1730  222.2560 C   0  0  0  0  0  0  0  0  0  0  0  0
  137.0790   81.3300  222.8240 C   0  0  0  0  0  0  0  0  0  0  0  0
  137.3970   81.6450  224.2050 N   0  0  0  0  0  0  0  0  0  0  0  0
  136.2180   81.6340  225.0460 C   0  0  2  0  0  0  0  0  0  0  0  0
  135.5040   82.9550  225.0240 C   0  0  0  0  0  0  0  0  0  0  0  0
  136.2680   83.7470  226.0390 C   0  0  0  0  0  0  0  0  0  0  0  0
  136.7310   82.8260  227.0310 N   0  0  0  0  0  0  0  0  0  0  0  0
  136.7100   81.4950  226.4880 C   0  0  0  0  0  0  0  0  0  0  0  0
  138.3610   80.6440  224.6080 C   0  0  0  0  0  0  0  0  0  0  0  0
  140.5710   80.4600  223.4520 C   0  0  0  0  0  0  0  0  0  0  0  0
  141.4280   81.2530  224.1740 C   0  0  0  0  0  0  0  0  0  0  0  0
  142.8010   81.1200  224.0240 C   0  0  0  0  0  0  0  0  0  0  0  0
  143.3490   80.1970  223.1530 C   0  0  0  0  0  0  0  0  0  0  0  0
  142.5010   79.3960  222.4240 C   0  0  0  0  0  0  0  0  0  0  0  0
  141.1270   79.5350  222.5800 C   0  0  0  0  0  0  0  0  0  0  0  0
  141.8270   76.4670  220.9360 N   0  0  0  0  0  0  0  0  0  0  0  0
  142.6120   75.7200  220.1300 C   0  0  0  0  0  0  0  0  0  0  0  0
  143.5890   74.7680  220.3110 C   0  0  0  0  0  0  0  0  0  0  0  0
  145.0790   72.6920  221.6160 H   0  0  0  0  0  0  0  0  0  0  0  0
  145.4350   71.2780  220.6100 H   0  0  0  0  0  0  0  0  0  0  0  0
  144.4326   74.0085  217.1405 H   0  0  0  0  0  0  0  0  0  0  0  0
  142.6823   75.7148  216.7150 H   0  0  0  0  0  0  0  0  0  0  0  0
  140.8389   77.4815  217.9834 H   0  0  0  0  0  0  0  0  0  0  0  0
  137.9844   78.6894  222.4396 H   0  0  0  0  0  0  0  0  0  0  0  0
  139.0096   78.1336  223.7145 H   0  0  0  0  0  0  0  0  0  0  0  0
  139.0079   82.1414  222.1551 H   0  0  0  0  0  0  0  0  0  0  0  0
  138.5514   80.7474  221.2432 H   0  0  0  0  0  0  0  0  0  0  0  0
  136.5307   82.1482  222.3341 H   0  0  0  0  0  0  0  0  0  0  0  0
  136.4241   80.4570  222.6859 H   0  0  0  0  0  0  0  0  0  0  0  0
  135.5524   80.8312  224.6960 H   0  0  0  0  0  0  0  0  0  0  0  0
  135.5604   83.4219  224.0296 H   0  0  0  0  0  0  0  0  0  0  0  0
  134.4288   82.8784  225.2432 H   0  0  0  0  0  0  0  0  0  0  0  0
  137.1229   84.2478  225.5610 H   0  0  0  0  0  0  0  0  0  0  0  0
  135.6309   84.5213  226.4912 H   0  0  0  0  0  0  0  0  0  0  0  0
  137.7020   83.1420  227.3030 H   0  0  0  0  0  0  0  0  0  0  0  0
  137.7197   81.0589  226.5067 H   0  0  0  0  0  0  0  0  0  0  0  0
  136.0567   80.8317  227.0739 H   0  0  0  0  0  0  0  0  0  0  0  0
  139.0422   81.0448  225.3730 H   0  0  0  0  0  0  0  0  0  0  0  0
  137.8854   79.7580  225.0538 H   0  0  0  0  0  0  0  0  0  0  0  0
  141.0240   81.9980  224.8753 H   0  0  0  0  0  0  0  0  0  0  0  0
  143.4699   81.7650  224.6127 H   0  0  0  0  0  0  0  0  0  0  0  0
  144.4398   80.1050  223.0452 H   0  0  0  0  0  0  0  0  0  0  0  0
  142.9070   78.6516  221.7233 H   0  0  0  0  0  0  0  0  0  0  0  0
  141.8810   76.3950  221.9750 H   0  0  0  0  0  0  0  0  0  0  0  0
  143.8588   74.4871  221.3398 H   0  0  0  0  0  0  0  0  0  0  0  0
  1  2  1  0
  2  3  2  0
  2  4  1  0
  4  5  2  0
  5  6  1  0
  6  7  2  0
  7  8  1  0
  8  9  2  0
  9 10  1  0
 10 11  2  0
 10 12  1  0
 12 13  1  0
 14 13  1  6
 14 15  1  0
 15 16  1  0
 16 17  1  0
 17 18  1  0
 18 19  1  0
 19 20  1  0
 20 21  1  0
 21 22  1  0
 17 23  1  0
 14 24  1  0
 24 25  2  0
 25 26  1  0
 26 27  2  0
 27 28  1  0
 28 29  2  0
  9 30  1  0
 30 31  1  0
 31 32  2  0
 32  4  1  0
 31  7  1  0
 29 12  1  0
 23 14  1  0
 29 24  1  0
 22 18  1  0
  1 33  1  0
  1 34  1  0
  5 35  1  0
  6 36  1  0
  8 37  1  0
 13 38  1  0
 13 39  1  0
 15 40  1  0
 15 41  1  0
 16 42  1  0
 16 43  1  0
 18 44  1  6
 19 45  1  0
 19 46  1  0
 20 47  1  0
 20 48  1  0
 21 49  1  0
 22 50  1  0
 22 51  1  0
 23 52  1  0
 23 53  1  0
 25 54  1  0
 26 55  1  0
 27 56  1  0
 28 57  1  0
 30 58  1  0
 32 59  1  0
M  END
>  <smiles>  (50) 
NC(=O)c1ccc2cc(C(=O)N3C[C@]4(CCN(C5CCNC5)C4)c4ccccc43)[nH]c2c1

>  <score_type>  (50) 
oracle

>  <origin>  (50) 
autodockgpu

>  <m_score__min__energy>  (50) 
-9.4000000000000004

>  <m_primary>  (50) 
energy

>  <rmsd>  (50) 
7.275059028017744

>  <m_score__min__rmsd>  (50) 
7.275059028017744

>  <meeko>  (50) 
{"free_energy": -9.15, "intermolecular_energy": -10.34, "internal_energy": -1.22, "cluster_size": 35, "cluster_id": 1, "rank_in_cluster": 20}

>  <energy>  (50) 
-8.23

>  <cluster_rmsd>  (50) 
0.62

>  <cluster>  (50) 
4

$$$$

     RDKit          3D

 59 64  0  0  1  0  0  0  0  0999 V2000
  145.8520   73.4810  217.5110 N   0  0  0  0  0  0  0  0  0  0  0  0
  145.5600   72.9990  218.8280 C   0  0  0  0  0  0  0  0  0  0  0  0
  146.3250   72.2050  219.4130 O   0  0  0  0  0  0  0  0  0  0  0  0
  144.3240   73.4580  219.4970 C   0  0  0  0  0  0  0  0  0  0  0  0
  143.5770   72.5570  220.2170 C   0  0  0  0  0  0  0  0  0  0  0  0
  142.4110   73.0150  220.8390 C   0  0  0  0  0  0  0  0  0  0  0  0
  142.0500   74.3420  220.7110 C   0  0  0  0  0  0  0  0  0  0  0  0
  140.9780   75.0240  221.2190 C   0  0  0  0  0  0  0  0  0  0  0  0
  141.0410   76.3760  220.8170 C   0  0  0  0  0  0  0  0  0  0  0  0
  140.0340   77.3100  221.2200 C   0  0  0  0  0  0  0  0  0  0  0  0
  138.9710   77.3250  220.4930 O   0  0  0  0  0  0  0  0  0  0  0  0
  140.0440   78.2110  222.2980 N   0  0  0  0  0  0  0  0  0  0  0  0
  138.9490   78.3580  223.2920 C   0  0  0  0  0  0  0  0  0  0  0  0
  138.9110   79.8750  223.3800 C   0  0  1  0  0  0  0  0  0  0  0  0
  138.1500   80.4660  222.2320 C   0  0  0  0  0  0  0  0  0  0  0  0
  137.7200   81.7980  222.7730 C   0  0  0  0  0  0  0  0  0  0  0  0
  137.8210   81.7510  224.2140 N   0  0  0  0  0  0  0  0  0  0  0  0
  136.6160   82.2020  224.8620 C   0  0  1  0  0  0  0  0  0  0  0  0
  135.7400   81.1610  225.4400 C   0  0  0  0  0  0  0  0  0  0  0  0
  135.9010   81.2890  226.9370 C   0  0  0  0  0  0  0  0  0  0  0  0
  136.7360   82.4380  227.1990 N   0  0  0  0  0  0  0  0  0  0  0  0
  136.9360   83.1450  225.9590 C   0  0  0  0  0  0  0  0  0  0  0  0
  138.1720   80.3950  224.5660 C   0  0  0  0  0  0  0  0  0  0  0  0
  140.3440   80.1790  223.3880 C   0  0  0  0  0  0  0  0  0  0  0  0
  141.0270   81.2470  223.9230 C   0  0  0  0  0  0  0  0  0  0  0  0
  142.4140   81.2540  223.7760 C   0  0  0  0  0  0  0  0  0  0  0  0
  143.0830   80.2260  223.1160 C   0  0  0  0  0  0  0  0  0  0  0  0
  142.3900   79.1540  222.5800 C   0  0  0  0  0  0  0  0  0  0  0  0
  141.0200   79.1510  222.7280 C   0  0  0  0  0  0  0  0  0  0  0  0
  142.1530   76.4420  220.0830 N   0  0  0  0  0  0  0  0  0  0  0  0
  142.7770   75.2650  219.9970 C   0  0  0  0  0  0  0  0  0  0  0  0
  143.9360   74.7820  219.3880 C   0  0  0  0  0  0  0  0  0  0  0  0
  146.1850   72.8850  216.7370 H   0  0  0  0  0  0  0  0  0  0  0  0
  145.7060   74.5100  217.3650 H   0  0  0  0  0  0  0  0  0  0  0  0
  143.8873   71.5051  220.3018 H   0  0  0  0  0  0  0  0  0  0  0  0
  141.7869   72.3243  221.4251 H   0  0  0  0  0  0  0  0  0  0  0  0
  140.1872   74.5855  221.8454 H   0  0  0  0  0  0  0  0  0  0  0  0
  137.9994   77.9421  222.9243 H   0  0  0  0  0  0  0  0  0  0  0  0
  139.1019   77.8322  224.2460 H   0  0  0  0  0  0  0  0  0  0  0  0
  138.7943   80.5858  221.3486 H   0  0  0  0  0  0  0  0  0  0  0  0
  137.3107   79.8396  221.8957 H   0  0  0  0  0  0  0  0  0  0  0  0
  138.3745   82.5894  222.3789 H   0  0  0  0  0  0  0  0  0  0  0  0
  136.6852   82.0163  222.4703 H   0  0  0  0  0  0  0  0  0  0  0  0
  136.0578   82.6643  224.0345 H   0  0  0  0  0  0  0  0  0  0  0  0
  134.6933   81.3334  225.1491 H   0  0  0  0  0  0  0  0  0  0  0  0
  136.0084   80.1555  225.0836 H   0  0  0  0  0  0  0  0  0  0  0  0
  134.9166   81.4276  227.4079 H   0  0  0  0  0  0  0  0  0  0  0  0
  136.3610   80.3797  227.3512 H   0  0  0  0  0  0  0  0  0  0  0  0
  136.2500   83.1200  227.8390 H   0  0  0  0  0  0  0  0  0  0  0  0
  136.2697   84.0189  225.9115 H   0  0  0  0  0  0  0  0  0  0  0  0
  137.9725   83.5038  225.8763 H   0  0  0  0  0  0  0  0  0  0  0  0
  138.8131   80.3798  225.4597 H   0  0  0  0  0  0  0  0  0  0  0  0
  137.2883   79.7854  224.8057 H   0  0  0  0  0  0  0  0  0  0  0  0
  140.5015   82.0606  224.4444 H   0  0  0  0  0  0  0  0  0  0  0  0
  142.9935   82.0916  224.1914 H   0  0  0  0  0  0  0  0  0  0  0  0
  144.1780   80.2665  223.0192 H   0  0  0  0  0  0  0  0  0  0  0  0
  142.9114   78.3384  222.0576 H   0  0  0  0  0  0  0  0  0  0  0  0
  142.4820   77.3390  219.6310 H   0  0  0  0  0  0  0  0  0  0  0  0
  144.5599   75.4744  218.8038 H   0  0  0  0  0  0  0  0  0  0  0  0
  1  2  1  0
  2  3  2  0
  2  4  1  0
  4  5  2  0
  5  6  1  0
  6  7  2  0
  7  8  1  0
  8  9  2  0
  9 10  1  0
 10 11  2  0
 10 12  1  0
 12 13  1  0
 14 13  1  6
 14 15  1  0
 15 16  1  0
 16 17  1  0
 17 18  1  0
 18 19  1  0
 19 20  1  0
 20 21  1  0
 21 22  1  0
 17 23  1  0
 14 24  1  0
 24 25  2  0
 25 26  1  0
 26 27  2  0
 27 28  1  0
 28 29  2  0
  9 30  1  0
 30 31  1  0
 31 32  2  0
 32  4  1  0
 31  7  1  0
 29 12  1  0
 23 14  1  0
 29 24  1  0
 22 18  1  0
  1 33  1  0
  1 34  1  0
  5 35  1  0
  6 36  1  0
  8 37  1  0
 13 38  1  0
 13 39  1  0
 15 40  1  0
 15 41  1  0
 16 42  1  0
 16 43  1  0
 18 44  1  6
 19 45  1  0
 19 46  1  0
 20 47  1  0
 20 48  1  0
 21 49  1  0
 22 50  1  0
 22 51  1  0
 23 52  1  0
 23 53  1  0
 25 54  1  0
 26 55  1  0
 27 56  1  0
 28 57  1  0
 30 58  1  0
 32 59  1  0
M  END
>  <smiles>  (51) 
NC(=O)c1ccc2cc(C(=O)N3C[C@]4(CCN(C5CCNC5)C4)c4ccccc43)[nH]c2c1

>  <score_type>  (51) 
oracle

>  <origin>  (51) 
autodockgpu

>  <m_score__min__energy>  (51) 
-8.9299999999999997

>  <m_primary>  (51) 
energy

>  <rmsd>  (51) 
6.987678204547356

>  <m_score__min__rmsd>  (51) 
6.987678204547356

>  <meeko>  (51) 
{"free_energy": -8.73, "intermolecular_energy": -9.93, "internal_energy": -1.16, "cluster_size": 27, "cluster_id": 1, "rank_in_cluster": 16}

>  <energy>  (51) 
-8.93

>  <cluster_rmsd>  (51) 
0.0

>  <cluster>  (51) 
1

$$$$

     RDKit          3D

 59 64  0  0  1  0  0  0  0  0999 V2000
  145.7140   73.7810  217.1110 N   0  0  0  0  0  0  0  0  0  0  0  0
  145.3470   73.0730  218.3000 C   0  0  0  0  0  0  0  0  0  0  0  0
  145.9500   72.0380  218.6530 O   0  0  0  0  0  0  0  0  0  0  0  0
  144.2270   73.5860  219.1180 C   0  0  0  0  0  0  0  0  0  0  0  0
  143.7120   72.7990  220.1190 C   0  0  0  0  0  0  0  0  0  0  0  0
  142.6510   73.3060  220.8770 C   0  0  0  0  0  0  0  0  0  0  0  0
  142.1600   74.5660  220.5990 C   0  0  0  0  0  0  0  0  0  0  0  0
  141.1510   75.2770  221.1900 C   0  0  0  0  0  0  0  0  0  0  0  0
  141.0190   76.5320  220.5560 C   0  0  0  0  0  0  0  0  0  0  0  0
  140.0320   77.4730  220.9890 C   0  0  0  0  0  0  0  0  0  0  0  0
  138.9900   77.5660  220.2380 O   0  0  0  0  0  0  0  0  0  0  0  0
  140.0420   78.3090  222.1190 N   0  0  0  0  0  0  0  0  0  0  0  0
  138.9460   78.3970  223.1200 C   0  0  0  0  0  0  0  0  0  0  0  0
  138.9080   79.9060  223.2970 C   0  0  1  0  0  0  0  0  0  0  0  0
  138.1480   80.5640  222.1860 C   0  0  0  0  0  0  0  0  0  0  0  0
  137.7180   81.8620  222.8040 C   0  0  0  0  0  0  0  0  0  0  0  0
  137.8170   81.7300  224.2400 N   0  0  0  0  0  0  0  0  0  0  0  0
  136.6120   82.1410  224.9130 C   0  0  1  0  0  0  0  0  0  0  0  0
  135.8120   81.0780  225.5580 C   0  0  0  0  0  0  0  0  0  0  0  0
  136.0150   81.2710  227.0430 C   0  0  0  0  0  0  0  0  0  0  0  0
  136.7960   82.4690  227.2350 N   0  0  0  0  0  0  0  0  0  0  0  0
  136.9180   83.1400  225.9640 C   0  0  0  0  0  0  0  0  0  0  0  0
  138.1690   80.3550  224.5110 C   0  0  0  0  0  0  0  0  0  0  0  0
  140.3410   80.2090  223.3240 C   0  0  0  0  0  0  0  0  0  0  0  0
  141.0240   81.2430  223.9210 C   0  0  0  0  0  0  0  0  0  0  0  0
  142.4110   81.2590  223.7760 C   0  0  0  0  0  0  0  0  0  0  0  0
  143.0800   80.2720  223.0570 C   0  0  0  0  0  0  0  0  0  0  0  0
  142.3880   79.2330  222.4570 C   0  0  0  0  0  0  0  0  0  0  0  0
  141.0180   79.2210  222.6040 C   0  0  0  0  0  0  0  0  0  0  0  0
  141.9600   76.5160  219.6110 N   0  0  0  0  0  0  0  0  0  0  0  0
  142.6550   75.3760  219.6040 C   0  0  0  0  0  0  0  0  0  0  0  0
  143.7140   74.8460  218.8640 C   0  0  0  0  0  0  0  0  0  0  0  0
  145.9200   73.3270  216.2070 H   0  0  0  0  0  0  0  0  0  0  0  0
  145.7670   74.8250  217.2060 H   0  0  0  0  0  0  0  0  0  0  0  0
  144.1223   71.7982  220.3191 H   0  0  0  0  0  0  0  0  0  0  0  0
  142.2118   72.7059  221.6875 H   0  0  0  0  0  0  0  0  0  0  0  0
  140.5361   74.9245  222.0312 H   0  0  0  0  0  0  0  0  0  0  0  0
  137.9965   78.0035  222.7280 H   0  0  0  0  0  0  0  0  0  0  0  0
  139.0984   77.8158  224.0414 H   0  0  0  0  0  0  0  0  0  0  0  0
  138.7928   80.7355  221.3115 H   0  0  0  0  0  0  0  0  0  0  0  0
  137.3085   79.9588  221.8132 H   0  0  0  0  0  0  0  0  0  0  0  0
  138.3735   82.6749  222.4582 H   0  0  0  0  0  0  0  0  0  0  0  0
  136.6838   82.0984  222.5134 H   0  0  0  0  0  0  0  0  0  0  0  0
  136.0024   82.5419  224.0898 H   0  0  0  0  0  0  0  0  0  0  0  0
  134.7486   81.1845  225.2975 H   0  0  0  0  0  0  0  0  0  0  0  0
  136.1217   80.0751  225.2289 H   0  0  0  0  0  0  0  0  0  0  0  0
  135.0405   81.3768  227.5422 H   0  0  0  0  0  0  0  0  0  0  0  0
  136.5356   80.4028  227.4732 H   0  0  0  0  0  0  0  0  0  0  0  0
  136.2960   83.1490  227.8670 H   0  0  0  0  0  0  0  0  0  0  0  0
  136.2054   83.9762  225.9088 H   0  0  0  0  0  0  0  0  0  0  0  0
  137.9307   83.5489  225.8327 H   0  0  0  0  0  0  0  0  0  0  0  0
  138.8101   80.2874  225.4023 H   0  0  0  0  0  0  0  0  0  0  0  0
  137.2855   79.7320  224.7139 H   0  0  0  0  0  0  0  0  0  0  0  0
  140.4982   82.0246  224.4890 H   0  0  0  0  0  0  0  0  0  0  0  0
  142.9901   82.0706  224.2407 H   0  0  0  0  0  0  0  0  0  0  0  0
  144.1751   80.3181  222.9641 H   0  0  0  0  0  0  0  0  0  0  0  0
  142.9101   78.4503  221.8871 H   0  0  0  0  0  0  0  0  0  0  0  0
  142.1190   77.3290  218.9540 H   0  0  0  0  0  0  0  0  0  0  0  0
  144.1536   75.4480  218.0550 H   0  0  0  0  0  0  0  0  0  0  0  0
  1  2  1  0
  2  3  2  0
  2  4  1  0
  4  5  2  0
  5  6  1  0
  6  7  2  0
  7  8  1  0
  8  9  2  0
  9 10  1  0
 10 11  2  0
 10 12  1  0
 12 13  1  0
 14 13  1  6
 14 15  1  0
 15 16  1  0
 16 17  1  0
 17 18  1  0
 18 19  1  0
 19 20  1  0
 20 21  1  0
 21 22  1  0
 17 23  1  0
 14 24  1  0
 24 25  2  0
 25 26  1  0
 26 27  2  0
 27 28  1  0
 28 29  2  0
  9 30  1  0
 30 31  1  0
 31 32  2  0
 32  4  1  0
 31  7  1  0
 29 12  1  0
 23 14  1  0
 29 24  1  0
 22 18  1  0
  1 33  1  0
  1 34  1  0
  5 35  1  0
  6 36  1  0
  8 37  1  0
 13 38  1  0
 13 39  1  0
 15 40  1  0
 15 41  1  0
 16 42  1  0
 16 43  1  0
 18 44  1  6
 19 45  1  0
 19 46  1  0
 20 47  1  0
 20 48  1  0
 21 49  1  0
 22 50  1  0
 22 51  1  0
 23 52  1  0
 23 53  1  0
 25 54  1  0
 26 55  1  0
 27 56  1  0
 28 57  1  0
 30 58  1  0
 32 59  1  0
M  END
>  <smiles>  (52) 
NC(=O)c1ccc2cc(C(=O)N3C[C@]4(CCN(C5CCNC5)C4)c4ccccc43)[nH]c2c1

>  <score_type>  (52) 
oracle

>  <origin>  (52) 
autodockgpu

>  <m_score__min__energy>  (52) 
-8.9299999999999997

>  <m_primary>  (52) 
energy

>  <rmsd>  (52) 
7.123976120155062

>  <m_score__min__rmsd>  (52) 
7.123976120155062

>  <meeko>  (52) 
{"free_energy": -8.63, "intermolecular_energy": -9.83, "internal_energy": -1.18, "cluster_size": 27, "cluster_id": 1, "rank_in_cluster": 19}

>  <energy>  (52) 
-8.82

>  <cluster_rmsd>  (52) 
0.34

>  <cluster>  (52) 
1

$$$$

     RDKit          3D

 59 64  0  0  1  0  0  0  0  0999 V2000
  140.6610   67.7550  227.9680 N   0  0  0  0  0  0  0  0  0  0  0  0
  139.9010   67.9030  226.7630 C   0  0  0  0  0  0  0  0  0  0  0  0
  139.0590   67.0490  226.4170 O   0  0  0  0  0  0  0  0  0  0  0  0
  140.1280   69.0960  225.9190 C   0  0  0  0  0  0  0  0  0  0  0  0
  141.0690   70.0200  226.3020 C   0  0  0  0  0  0  0  0  0  0  0  0
  141.2620   71.1410  225.4880 C   0  0  0  0  0  0  0  0  0  0  0  0
  140.5110   71.2820  224.3380 C   0  0  0  0  0  0  0  0  0  0  0  0
  140.5160   72.2670  223.3880 C   0  0  0  0  0  0  0  0  0  0  0  0
  139.5660   71.9680  222.3880 C   0  0  0  0  0  0  0  0  0  0  0  0
  139.3740   72.8420  221.2710 C   0  0  0  0  0  0  0  0  0  0  0  0
  139.7720   72.3830  220.1350 O   0  0  0  0  0  0  0  0  0  0  0  0
  138.8120   74.1300  221.2420 N   0  0  0  0  0  0  0  0  0  0  0  0
  139.2830   75.2430  220.3770 C   0  0  0  0  0  0  0  0  0  0  0  0
  139.2210   76.3730  221.3910 C   0  0  1  0  0  0  0  0  0  0  0  0
  140.4200   76.3650  222.2890 C   0  0  0  0  0  0  0  0  0  0  0  0
  140.4880   77.7870  222.7630 C   0  0  0  0  0  0  0  0  0  0  0  0
  139.7040   78.5990  221.8600 N   0  0  0  0  0  0  0  0  0  0  0  0
  140.4280   79.7530  221.3930 C   0  0  1  0  0  0  0  0  0  0  0  0
  140.4980   80.9130  222.3070 C   0  0  0  0  0  0  0  0  0  0  0  0
  141.9230   80.9430  222.8060 C   0  0  0  0  0  0  0  0  0  0  0  0
  142.6630   79.9200  222.1070 N   0  0  0  0  0  0  0  0  0  0  0  0
  141.8260   79.3900  221.0590 C   0  0  0  0  0  0  0  0  0  0  0  0
  139.2740   77.7350  220.7850 C   0  0  0  0  0  0  0  0  0  0  0  0
  137.9530   76.0660  222.0580 C   0  0  0  0  0  0  0  0  0  0  0  0
  137.0600   76.8900  222.7010 C   0  0  0  0  0  0  0  0  0  0  0  0
  135.9180   76.2970  223.2390 C   0  0  0  0  0  0  0  0  0  0  0  0
  135.6880   74.9280  223.1310 C   0  0  0  0  0  0  0  0  0  0  0  0
  136.5910   74.1020  222.4830 C   0  0  0  0  0  0  0  0  0  0  0  0
  137.7180   74.6930  221.9530 C   0  0  0  0  0  0  0  0  0  0  0  0
  139.0320   70.8120  222.7860 N   0  0  0  0  0  0  0  0  0  0  0  0
  139.5620   70.3730  223.9300 C   0  0  0  0  0  0  0  0  0  0  0  0
  139.3900   69.2650  224.7600 C   0  0  0  0  0  0  0  0  0  0  0  0
  141.1060   66.8730  228.2670 H   0  0  0  0  0  0  0  0  0  0  0  0
  140.7460   68.6200  228.5560 H   0  0  0  0  0  0  0  0  0  0  0  0
  141.6545   69.8824  227.2230 H   0  0  0  0  0  0  0  0  0  0  0  0
  142.0058   71.9038  225.7617 H   0  0  0  0  0  0  0  0  0  0  0  0
  141.1625   73.1569  223.4017 H   0  0  0  0  0  0  0  0  0  0  0  0
  140.3057   75.0749  220.0085 H   0  0  0  0  0  0  0  0  0  0  0  0
  138.7058   75.4025  219.4543 H   0  0  0  0  0  0  0  0  0  0  0  0
  140.2794   75.6724  223.1319 H   0  0  0  0  0  0  0  0  0  0  0  0
  141.3388   76.0284  221.7866 H   0  0  0  0  0  0  0  0  0  0  0  0
  140.0788   77.8606  223.7814 H   0  0  0  0  0  0  0  0  0  0  0  0
  141.5317   78.1340  222.7791 H   0  0  0  0  0  0  0  0  0  0  0  0
  139.8358   80.0706  220.5221 H   0  0  0  0  0  0  0  0  0  0  0  0
  140.2587   81.8422  221.7691 H   0  0  0  0  0  0  0  0  0  0  0  0
  139.7764   80.8280  223.1329 H   0  0  0  0  0  0  0  0  0  0  0  0
  142.3681   81.9287  222.6049 H   0  0  0  0  0  0  0  0  0  0  0  0
  141.9516   80.7611  223.8905 H   0  0  0  0  0  0  0  0  0  0  0  0
  143.5040   80.3270  221.6200 H   0  0  0  0  0  0  0  0  0  0  0  0
  142.1092   79.8295  220.0912 H   0  0  0  0  0  0  0  0  0  0  0  0
  141.9395   78.2986  220.9812 H   0  0  0  0  0  0  0  0  0  0  0  0
  138.2811   78.0357  220.4194 H   0  0  0  0  0  0  0  0  0  0  0  0
  139.9516   77.7791  219.9196 H   0  0  0  0  0  0  0  0  0  0  0  0
  137.2387   77.9719  222.7876 H   0  0  0  0  0  0  0  0  0  0  0  0
  135.1816   76.9257  223.7610 H   0  0  0  0  0  0  0  0  0  0  0  0
  134.7751   74.4961  223.5670 H   0  0  0  0  0  0  0  0  0  0  0  0
  136.4163   73.0195  222.3949 H   0  0  0  0  0  0  0  0  0  0  0  0
  138.2760   70.3170  222.2370 H   0  0  0  0  0  0  0  0  0  0  0  0
  138.6458   68.5029  224.4854 H   0  0  0  0  0  0  0  0  0  0  0  0
  1  2  1  0
  2  3  2  0
  2  4  1  0
  4  5  2  0
  5  6  1  0
  6  7  2  0
  7  8  1  0
  8  9  2  0
  9 10  1  0
 10 11  2  0
 10 12  1  0
 12 13  1  0
 14 13  1  6
 14 15  1  0
 15 16  1  0
 16 17  1  0
 17 18  1  0
 18 19  1  0
 19 20  1  0
 20 21  1  0
 21 22  1  0
 17 23  1  0
 14 24  1  0
 24 25  2  0
 25 26  1  0
 26 27  2  0
 27 28  1  0
 28 29  2  0
  9 30  1  0
 30 31  1  0
 31 32  2  0
 32  4  1  0
 31  7  1  0
 29 12  1  0
 23 14  1  0
 29 24  1  0
 22 18  1  0
  1 33  1  0
  1 34  1  0
  5 35  1  0
  6 36  1  0
  8 37  1  0
 13 38  1  0
 13 39  1  0
 15 40  1  0
 15 41  1  0
 16 42  1  0
 16 43  1  0
 18 44  1  6
 19 45  1  0
 19 46  1  0
 20 47  1  0
 20 48  1  0
 21 49  1  0
 22 50  1  0
 22 51  1  0
 23 52  1  0
 23 53  1  0
 25 54  1  0
 26 55  1  0
 27 56  1  0
 28 57  1  0
 30 58  1  0
 32 59  1  0
M  END
>  <smiles>  (53) 
NC(=O)c1ccc2cc(C(=O)N3C[C@]4(CCN(C5CCNC5)C4)c4ccccc43)[nH]c2c1

>  <score_type>  (53) 
oracle

>  <origin>  (53) 
autodockgpu

>  <m_score__min__energy>  (53) 
-8.9299999999999997

>  <m_primary>  (53) 
energy

>  <rmsd>  (53) 
3.274502118141187

>  <m_score__min__rmsd>  (53) 
3.274502118141187

>  <meeko>  (53) 
{"free_energy": -8.47, "intermolecular_energy": -9.66, "internal_energy": -1.27, "cluster_size": 10, "cluster_id": 3, "rank_in_cluster": 8}

>  <energy>  (53) 
-8.8

>  <cluster_rmsd>  (53) 
0.9

>  <cluster>  (53) 
1

$$$$

     RDKit          3D

 59 64  0  0  1  0  0  0  0  0999 V2000
  140.8470   67.7610  227.7940 N   0  0  0  0  0  0  0  0  0  0  0  0
  139.9620   67.8910  226.6750 C   0  0  0  0  0  0  0  0  0  0  0  0
  139.1060   67.0190  226.4180 O   0  0  0  0  0  0  0  0  0  0  0  0
  140.0750   69.0870  225.8130 C   0  0  0  0  0  0  0  0  0  0  0  0
  141.0230   70.0370  226.1030 C   0  0  0  0  0  0  0  0  0  0  0  0
  141.1080   71.1600  225.2750 C   0  0  0  0  0  0  0  0  0  0  0  0
  140.2460   71.2780  224.2020 C   0  0  0  0  0  0  0  0  0  0  0  0
  140.1330   72.2610  223.2560 C   0  0  0  0  0  0  0  0  0  0  0  0
  139.0990   71.9340  222.3520 C   0  0  0  0  0  0  0  0  0  0  0  0
  138.7780   72.8000  221.2590 C   0  0  0  0  0  0  0  0  0  0  0  0
  138.8440   72.2620  220.0900 O   0  0  0  0  0  0  0  0  0  0  0  0
  138.4000   74.1530  221.2840 N   0  0  0  0  0  0  0  0  0  0  0  0
  138.9840   75.2150  220.4220 C   0  0  0  0  0  0  0  0  0  0  0  0
  139.1230   76.3130  221.4620 C   0  0  1  0  0  0  0  0  0  0  0  0
  140.3470   76.1140  222.3030 C   0  0  0  0  0  0  0  0  0  0  0  0
  140.6320   77.4990  222.8050 C   0  0  0  0  0  0  0  0  0  0  0  0
  139.9310   78.4370  221.9570 N   0  0  0  0  0  0  0  0  0  0  0  0
  140.7880   79.4920  221.4820 C   0  0  1  0  0  0  0  0  0  0  0  0
  140.7820   80.7550  222.2510 C   0  0  0  0  0  0  0  0  0  0  0  0
  142.1090   80.7910  222.9710 C   0  0  0  0  0  0  0  0  0  0  0  0
  142.8880   79.6580  222.5300 N   0  0  0  0  0  0  0  0  0  0  0  0
  142.1970   79.0350  221.4280 C   0  0  0  0  0  0  0  0  0  0  0  0
  139.3400   77.6710  220.8850 C   0  0  0  0  0  0  0  0  0  0  0  0
  137.8540   76.1650  222.1800 C   0  0  0  0  0  0  0  0  0  0  0  0
  137.1130   77.0870  222.8820 C   0  0  0  0  0  0  0  0  0  0  0  0
  135.9240   76.6430  223.4590 C   0  0  0  0  0  0  0  0  0  0  0  0
  135.5010   75.3220  223.3330 C   0  0  0  0  0  0  0  0  0  0  0  0
  136.2520   74.3980  222.6250 C   0  0  0  0  0  0  0  0  0  0  0  0
  137.4260   74.8420  222.0570 C   0  0  0  0  0  0  0  0  0  0  0  0
  138.6370   70.7650  222.7990 N   0  0  0  0  0  0  0  0  0  0  0  0
  139.2870   70.3440  223.8880 C   0  0  0  0  0  0  0  0  0  0  0  0
  139.2250   69.2330  224.7310 C   0  0  0  0  0  0  0  0  0  0  0  0
  141.3390   66.8880  228.0440 H   0  0  0  0  0  0  0  0  0  0  0  0
  140.9760   68.6280  228.3700 H   0  0  0  0  0  0  0  0  0  0  0  0
  141.6974   69.9176  226.9637 H   0  0  0  0  0  0  0  0  0  0  0  0
  141.8544   71.9426  225.4760 H   0  0  0  0  0  0  0  0  0  0  0  0
  140.7536   73.1679  223.2075 H   0  0  0  0  0  0  0  0  0  0  0  0
  139.9567   74.9179  220.0029 H   0  0  0  0  0  0  0  0  0  0  0  0
  138.3956   75.4785  219.5307 H   0  0  0  0  0  0  0  0  0  0  0  0
  140.1479   75.4235  223.1358 H   0  0  0  0  0  0  0  0  0  0  0  0
  141.1878   75.6685  221.7511 H   0  0  0  0  0  0  0  0  0  0  0  0
  140.2803   77.5993  223.8424 H   0  0  0  0  0  0  0  0  0  0  0  0
  141.7136   77.6981  222.7810 H   0  0  0  0  0  0  0  0  0  0  0  0
  140.3613   79.7190  220.4939 H   0  0  0  0  0  0  0  0  0  0  0  0
  140.6874   81.6173  221.5746 H   0  0  0  0  0  0  0  0  0  0  0  0
  139.9348   80.8043  222.9509 H   0  0  0  0  0  0  0  0  0  0  0  0
  142.6388   81.7245  222.7303 H   0  0  0  0  0  0  0  0  0  0  0  0
  141.9541   80.7474  224.0592 H   0  0  0  0  0  0  0  0  0  0  0  0
  143.8180   79.9670  222.1420 H   0  0  0  0  0  0  0  0  0  0  0  0
  142.6557   79.3383  220.4753 H   0  0  0  0  0  0  0  0  0  0  0  0
  142.2558   77.9389  221.4987 H   0  0  0  0  0  0  0  0  0  0  0  0
  138.3841   78.1162  220.5718 H   0  0  0  0  0  0  0  0  0  0  0  0
  139.9805   77.6449  219.9911 H   0  0  0  0  0  0  0  0  0  0  0  0
  137.4446   78.1309  222.9839 H   0  0  0  0  0  0  0  0  0  0  0  0
  135.3052   77.3530  224.0273 H   0  0  0  0  0  0  0  0  0  0  0  0
  134.5571   75.0079  223.8024 H   0  0  0  0  0  0  0  0  0  0  0  0
  135.9245   73.3531  222.5206 H   0  0  0  0  0  0  0  0  0  0  0  0
  137.8450   70.2490  222.3270 H   0  0  0  0  0  0  0  0  0  0  0  0
  138.4785   68.4507  224.5292 H   0  0  0  0  0  0  0  0  0  0  0  0
  1  2  1  0
  2  3  2  0
  2  4  1  0
  4  5  2  0
  5  6  1  0
  6  7  2  0
  7  8  1  0
  8  9  2  0
  9 10  1  0
 10 11  2  0
 10 12  1  0
 12 13  1  0
 14 13  1  6
 14 15  1  0
 15 16  1  0
 16 17  1  0
 17 18  1  0
 18 19  1  0
 19 20  1  0
 20 21  1  0
 21 22  1  0
 17 23  1  0
 14 24  1  0
 24 25  2  0
 25 26  1  0
 26 27  2  0
 27 28  1  0
 28 29  2  0
  9 30  1  0
 30 31  1  0
 31 32  2  0
 32  4  1  0
 31  7  1  0
 29 12  1  0
 23 14  1  0
 29 24  1  0
 22 18  1  0
  1 33  1  0
  1 34  1  0
  5 35  1  0
  6 36  1  0
  8 37  1  0
 13 38  1  0
 13 39  1  0
 15 40  1  0
 15 41  1  0
 16 42  1  0
 16 43  1  0
 18 44  1  6
 19 45  1  0
 19 46  1  0
 20 47  1  0
 20 48  1  0
 21 49  1  0
 22 50  1  0
 22 51  1  0
 23 52  1  0
 23 53  1  0
 25 54  1  0
 26 55  1  0
 27 56  1  0
 28 57  1  0
 30 58  1  0
 32 59  1  0
M  END
>  <smiles>  (54) 
NC(=O)c1ccc2cc(C(=O)N3C[C@]4(CCN(C5CCNC5)C4)c4ccccc43)[nH]c2c1

>  <score_type>  (54) 
oracle

>  <origin>  (54) 
autodockgpu

>  <m_score__min__energy>  (54) 
-8.9299999999999997

>  <m_primary>  (54) 
energy

>  <rmsd>  (54) 
3.2703805101704764

>  <m_score__min__rmsd>  (54) 
3.2703805101704764

>  <meeko>  (54) 
{"free_energy": -8.43, "intermolecular_energy": -9.63, "internal_energy": -1.28, "cluster_size": 10, "cluster_id": 3, "rank_in_cluster": 9}

>  <energy>  (54) 
-8.79

>  <cluster_rmsd>  (54) 
1.41

>  <cluster>  (54) 
1

$$$$

     RDKit          3D

 59 64  0  0  1  0  0  0  0  0999 V2000
  145.9990   73.3900  217.5760 N   0  0  0  0  0  0  0  0  0  0  0  0
  145.6150   72.9120  218.8700 C   0  0  0  0  0  0  0  0  0  0  0  0
  146.3040   72.0710  219.4840 O   0  0  0  0  0  0  0  0  0  0  0  0
  144.3720   73.4300  219.4810 C   0  0  0  0  0  0  0  0  0  0  0  0
  143.5310   72.5600  220.1320 C   0  0  0  0  0  0  0  0  0  0  0  0
  142.3600   73.0740  220.6990 C   0  0  0  0  0  0  0  0  0  0  0  0
  142.0890   74.4240  220.5890 C   0  0  0  0  0  0  0  0  0  0  0  0
  141.0320   75.1590  221.0540 C   0  0  0  0  0  0  0  0  0  0  0  0
  141.2010   76.5140  220.6930 C   0  0  0  0  0  0  0  0  0  0  0  0
  140.2310   77.4980  221.0640 C   0  0  0  0  0  0  0  0  0  0  0  0
  139.2460   77.6410  220.2460 O   0  0  0  0  0  0  0  0  0  0  0  0
  140.2030   78.3300  222.1970 N   0  0  0  0  0  0  0  0  0  0  0  0
  139.0820   78.4040  223.1690 C   0  0  0  0  0  0  0  0  0  0  0  0
  139.0240   79.9110  223.3510 C   0  0  1  0  0  0  0  0  0  0  0  0
  138.2870   80.5670  222.2230 C   0  0  0  0  0  0  0  0  0  0  0  0
  137.8280   81.8580  222.8340 C   0  0  0  0  0  0  0  0  0  0  0  0
  137.8920   81.7210  224.2720 N   0  0  0  0  0  0  0  0  0  0  0  0
  136.6660   82.1180  224.9150 C   0  0  1  0  0  0  0  0  0  0  0  0
  135.8710   81.0490  225.5540 C   0  0  0  0  0  0  0  0  0  0  0  0
  136.0390   81.2600  227.0410 C   0  0  0  0  0  0  0  0  0  0  0  0
  136.7940   82.4750  227.2370 N   0  0  0  0  0  0  0  0  0  0  0  0
  136.9320   83.1340  225.9610 C   0  0  0  0  0  0  0  0  0  0  0  0
  138.2490   80.3490  224.5470 C   0  0  0  0  0  0  0  0  0  0  0  0
  140.4530   80.2280  223.4160 C   0  0  0  0  0  0  0  0  0  0  0  0
  141.1100   81.2660  224.0340 C   0  0  0  0  0  0  0  0  0  0  0  0
  142.5000   81.2960  223.9250 C   0  0  0  0  0  0  0  0  0  0  0  0
  143.1980   80.3180  223.2210 C   0  0  0  0  0  0  0  0  0  0  0  0
  142.5310   79.2750  222.6000 C   0  0  0  0  0  0  0  0  0  0  0  0
  141.1580   79.2500  222.7100 C   0  0  0  0  0  0  0  0  0  0  0  0
  142.3560   76.5280  220.0260 N   0  0  0  0  0  0  0  0  0  0  0  0
  142.9110   75.3170  219.9420 C   0  0  0  0  0  0  0  0  0  0  0  0
  144.0720   74.7770  219.3870 C   0  0  0  0  0  0  0  0  0  0  0  0
  146.3400   72.7830  216.8130 H   0  0  0  0  0  0  0  0  0  0  0  0
  145.9160   74.4260  217.4360 H   0  0  0  0  0  0  0  0  0  0  0  0
  143.7718   71.4892  220.2053 H   0  0  0  0  0  0  0  0  0  0  0  0
  141.6612   72.4090  221.2277 H   0  0  0  0  0  0  0  0  0  0  0  0
  140.1808   74.7558  221.6222 H   0  0  0  0  0  0  0  0  0  0  0  0
  138.1468   78.0027  222.7513 H   0  0  0  0  0  0  0  0  0  0  0  0
  139.2170   77.8210  224.0920 H   0  0  0  0  0  0  0  0  0  0  0  0
  138.9531   80.7484  221.3666 H   0  0  0  0  0  0  0  0  0  0  0  0
  137.4634   79.9553  221.8261 H   0  0  0  0  0  0  0  0  0  0  0  0
  138.4836   82.6789  222.5079 H   0  0  0  0  0  0  0  0  0  0  0  0
  136.7992   82.0853  222.5178 H   0  0  0  0  0  0  0  0  0  0  0  0
  136.0674   82.4992  224.0746 H   0  0  0  0  0  0  0  0  0  0  0  0
  134.8117   81.1348  225.2701 H   0  0  0  0  0  0  0  0  0  0  0  0
  136.2046   80.0483  225.2420 H   0  0  0  0  0  0  0  0  0  0  0  0
  135.0525   81.3524  227.5187 H   0  0  0  0  0  0  0  0  0  0  0  0
  136.5662   80.4058  227.4909 H   0  0  0  0  0  0  0  0  0  0  0  0
  136.2700   83.1520  227.8500 H   0  0  0  0  0  0  0  0  0  0  0  0
  136.2065   83.9570  225.8809 H   0  0  0  0  0  0  0  0  0  0  0  0
  137.9401   83.5590  225.8467 H   0  0  0  0  0  0  0  0  0  0  0  0
  138.8670   80.2837  225.4546 H   0  0  0  0  0  0  0  0  0  0  0  0
  137.3660   79.7174  224.7242 H   0  0  0  0  0  0  0  0  0  0  0  0
  140.5621   82.0403  224.5910 H   0  0  0  0  0  0  0  0  0  0  0  0
  143.0586   82.1120  224.4068 H   0  0  0  0  0  0  0  0  0  0  0  0
  144.2947   80.3746  223.1572 H   0  0  0  0  0  0  0  0  0  0  0  0
  143.0751   78.4987  222.0420 H   0  0  0  0  0  0  0  0  0  0  0  0
  142.7650   77.4140  219.6180 H   0  0  0  0  0  0  0  0  0  0  0  0
  144.7700   75.4430  218.8585 H   0  0  0  0  0  0  0  0  0  0  0  0
  1  2  1  0
  2  3  2  0
  2  4  1  0
  4  5  2  0
  5  6  1  0
  6  7  2  0
  7  8  1  0
  8  9  2  0
  9 10  1  0
 10 11  2  0
 10 12  1  0
 12 13  1  0
 14 13  1  6
 14 15  1  0
 15 16  1  0
 16 17  1  0
 17 18  1  0
 18 19  1  0
 19 20  1  0
 20 21  1  0
 21 22  1  0
 17 23  1  0
 14 24  1  0
 24 25  2  0
 25 26  1  0
 26 27  2  0
 27 28  1  0
 28 29  2  0
  9 30  1  0
 30 31  1  0
 31 32  2  0
 32  4  1  0
 31  7  1  0
 29 12  1  0
 23 14  1  0
 29 24  1  0
 22 18  1  0
  1 33  1  0
  1 34  1  0
  5 35  1  0
  6 36  1  0
  8 37  1  0
 13 38  1  0
 13 39  1  0
 15 40  1  0
 15 41  1  0
 16 42  1  0
 16 43  1  0
 18 44  1  6
 19 45  1  0
 19 46  1  0
 20 47  1  0
 20 48  1  0
 21 49  1  0
 22 50  1  0
 22 51  1  0
 23 52  1  0
 23 53  1  0
 25 54  1  0
 26 55  1  0
 27 56  1  0
 28 57  1  0
 30 58  1  0
 32 59  1  0
M  END
>  <smiles>  (55) 
NC(=O)c1ccc2cc(C(=O)N3C[C@]4(CCN(C5CCNC5)C4)c4ccccc43)[nH]c2c1

>  <score_type>  (55) 
oracle

>  <origin>  (55) 
autodockgpu

>  <m_score__min__energy>  (55) 
-8.9299999999999997

>  <m_primary>  (55) 
energy

>  <rmsd>  (55) 
7.027949717825702

>  <m_score__min__rmsd>  (55) 
7.027949717825702

>  <meeko>  (55) 
{"free_energy": -8.79, "intermolecular_energy": -9.98, "internal_energy": -1.16, "cluster_size": 27, "cluster_id": 1, "rank_in_cluster": 4}

>  <energy>  (55) 
-8.79

>  <cluster_rmsd>  (55) 
1.4

>  <cluster>  (55) 
1

$$$$

     RDKit          3D

 59 64  0  0  1  0  0  0  0  0999 V2000
  140.7400   67.7810  227.9150 N   0  0  0  0  0  0  0  0  0  0  0  0
  139.9430   67.8970  226.7310 C   0  0  0  0  0  0  0  0  0  0  0  0
  139.1210   67.0130  226.4120 O   0  0  0  0  0  0  0  0  0  0  0  0
  140.1070   69.0920  225.8750 C   0  0  0  0  0  0  0  0  0  0  0  0
  141.0440   70.0370  226.2140 C   0  0  0  0  0  0  0  0  0  0  0  0
  141.1770   71.1590  225.3910 C   0  0  0  0  0  0  0  0  0  0  0  0
  140.3730   71.2820  224.2750 C   0  0  0  0  0  0  0  0  0  0  0  0
  140.3140   72.2640  223.3240 C   0  0  0  0  0  0  0  0  0  0  0  0
  139.3270   71.9420  222.3680 C   0  0  0  0  0  0  0  0  0  0  0  0
  139.0680   72.8090  221.2600 C   0  0  0  0  0  0  0  0  0  0  0  0
  139.2740   72.2960  220.0960 O   0  0  0  0  0  0  0  0  0  0  0  0
  138.6180   74.1410  221.2640 N   0  0  0  0  0  0  0  0  0  0  0  0
  139.1630   75.2250  220.4060 C   0  0  0  0  0  0  0  0  0  0  0  0
  139.2220   76.3380  221.4380 C   0  0  1  0  0  0  0  0  0  0  0  0
  140.4370   76.2110  222.3060 C   0  0  0  0  0  0  0  0  0  0  0  0
  140.6380   77.6130  222.8010 C   0  0  0  0  0  0  0  0  0  0  0  0
  139.9060   78.5050  221.9300 N   0  0  0  0  0  0  0  0  0  0  0  0
  140.7160   79.6010  221.4630 C   0  0  1  0  0  0  0  0  0  0  0  0
  140.7210   80.8270  222.2890 C   0  0  0  0  0  0  0  0  0  0  0  0
  142.0820   80.8610  222.9450 C   0  0  0  0  0  0  0  0  0  0  0  0
  142.8610   79.7680  222.4130 N   0  0  0  0  0  0  0  0  0  0  0  0
  142.1290   79.1790  221.3190 C   0  0  0  0  0  0  0  0  0  0  0  0
  139.3780   77.7000  220.8530 C   0  0  0  0  0  0  0  0  0  0  0  0
  137.9480   76.1290  222.1310 C   0  0  0  0  0  0  0  0  0  0  0  0
  137.1440   77.0150  222.8090 C   0  0  0  0  0  0  0  0  0  0  0  0
  135.9680   76.5130  223.3650 C   0  0  0  0  0  0  0  0  0  0  0  0
  135.6190   75.1700  223.2420 C   0  0  0  0  0  0  0  0  0  0  0  0
  136.4320   74.2820  222.5590 C   0  0  0  0  0  0  0  0  0  0  0  0
  137.5930   74.7830  222.0110 C   0  0  0  0  0  0  0  0  0  0  0  0
  138.8360   70.7760  222.7910 N   0  0  0  0  0  0  0  0  0  0  0  0
  139.4260   70.3520  223.9120 C   0  0  0  0  0  0  0  0  0  0  0  0
  139.3150   69.2420  224.7510 C   0  0  0  0  0  0  0  0  0  0  0  0
  141.2220   66.9160  228.2050 H   0  0  0  0  0  0  0  0  0  0  0  0
  140.8130   68.6510  228.4970 H   0  0  0  0  0  0  0  0  0  0  0  0
  141.6725   69.9144  227.1084 H   0  0  0  0  0  0  0  0  0  0  0  0
  141.9161   71.9377  225.6304 H   0  0  0  0  0  0  0  0  0  0  0  0
  140.9410   73.1677  223.3072 H   0  0  0  0  0  0  0  0  0  0  0  0
  140.1587   74.9764  220.0101 H   0  0  0  0  0  0  0  0  0  0  0  0
  138.5802   75.4498  219.5006 H   0  0  0  0  0  0  0  0  0  0  0  0
  140.2571   75.5177  223.1409 H   0  0  0  0  0  0  0  0  0  0  0  0
  141.3115   75.8062  221.7756 H   0  0  0  0  0  0  0  0  0  0  0  0
  140.2600   77.7031  223.8301 H   0  0  0  0  0  0  0  0  0  0  0  0
  141.7078   77.8691  222.7976 H   0  0  0  0  0  0  0  0  0  0  0  0
  140.2365   79.8637  220.5085 H   0  0  0  0  0  0  0  0  0  0  0  0
  140.5748   81.7167  221.6588 H   0  0  0  0  0  0  0  0  0  0  0  0
  139.9085   80.8249  223.0305 H   0  0  0  0  0  0  0  0  0  0  0  0
  142.5795   81.8167  222.7233 H   0  0  0  0  0  0  0  0  0  0  0  0
  141.9828   80.7640  224.0362 H   0  0  0  0  0  0  0  0  0  0  0  0
  143.7640   80.1150  221.9960 H   0  0  0  0  0  0  0  0  0  0  0  0
  142.5331   79.5347  220.3597 H   0  0  0  0  0  0  0  0  0  0  0  0
  142.2138   78.0824  221.3365 H   0  0  0  0  0  0  0  0  0  0  0  0
  138.4064   78.0912  220.5170 H   0  0  0  0  0  0  0  0  0  0  0  0
  140.0367   77.7009  219.9720 H   0  0  0  0  0  0  0  0  0  0  0  0
  137.4173   78.0758  222.9086 H   0  0  0  0  0  0  0  0  0  0  0  0
  135.3001   77.1934  223.9136 H   0  0  0  0  0  0  0  0  0  0  0  0
  134.6833   74.8098  223.6944 H   0  0  0  0  0  0  0  0  0  0  0  0
  136.1625   73.2203  222.4578 H   0  0  0  0  0  0  0  0  0  0  0  0
  138.0670   70.2640  222.2780 H   0  0  0  0  0  0  0  0  0  0  0  0
  138.5758   68.4635  224.5112 H   0  0  0  0  0  0  0  0  0  0  0  0
  1  2  1  0
  2  3  2  0
  2  4  1  0
  4  5  2  0
  5  6  1  0
  6  7  2  0
  7  8  1  0
  8  9  2  0
  9 10  1  0
 10 11  2  0
 10 12  1  0
 12 13  1  0
 14 13  1  6
 14 15  1  0
 15 16  1  0
 16 17  1  0
 17 18  1  0
 18 19  1  0
 19 20  1  0
 20 21  1  0
 21 22  1  0
 17 23  1  0
 14 24  1  0
 24 25  2  0
 25 26  1  0
 26 27  2  0
 27 28  1  0
 28 29  2  0
  9 30  1  0
 30 31  1  0
 31 32  2  0
 32  4  1  0
 31  7  1  0
 29 12  1  0
 23 14  1  0
 29 24  1  0
 22 18  1  0
  1 33  1  0
  1 34  1  0
  5 35  1  0
  6 36  1  0
  8 37  1  0
 13 38  1  0
 13 39  1  0
 15 40  1  0
 15 41  1  0
 16 42  1  0
 16 43  1  0
 18 44  1  6
 19 45  1  0
 19 46  1  0
 20 47  1  0
 20 48  1  0
 21 49  1  0
 22 50  1  0
 22 51  1  0
 23 52  1  0
 23 53  1  0
 25 54  1  0
 26 55  1  0
 27 56  1  0
 28 57  1  0
 30 58  1  0
 32 59  1  0
M  END
>  <smiles>  (56) 
NC(=O)c1ccc2cc(C(=O)N3C[C@]4(CCN(C5CCNC5)C4)c4ccccc43)[nH]c2c1

>  <score_type>  (56) 
oracle

>  <origin>  (56) 
autodockgpu

>  <m_score__min__energy>  (56) 
-8.9299999999999997

>  <m_primary>  (56) 
energy

>  <rmsd>  (56) 
3.263596359558009

>  <m_score__min__rmsd>  (56) 
3.263596359558009

>  <meeko>  (56) 
{"free_energy": -8.54, "intermolecular_energy": -9.74, "internal_energy": -1.28, "cluster_size": 10, "cluster_id": 3, "rank_in_cluster": 3}

>  <energy>  (56) 
-8.79

>  <cluster_rmsd>  (56) 
1.41

>  <cluster>  (56) 
1

$$$$

     RDKit          3D

 59 64  0  0  1  0  0  0  0  0999 V2000
  135.8560   81.5040  230.4290 N   0  0  0  0  0  0  0  0  0  0  0  0
  134.7400   81.4650  229.5320 C   0  0  0  0  0  0  0  0  0  0  0  0
  133.5660   81.5290  229.9520 O   0  0  0  0  0  0  0  0  0  0  0  0
  134.9950   81.3440  228.0810 C   0  0  0  0  0  0  0  0  0  0  0  0
  134.0100   80.8430  227.2650 C   0  0  0  0  0  0  0  0  0  0  0  0
  134.2770   80.7360  225.8970 C   0  0  0  0  0  0  0  0  0  0  0  0
  135.5080   81.1330  225.4130 C   0  0  0  0  0  0  0  0  0  0  0  0
  136.0040   81.1330  224.1370 C   0  0  0  0  0  0  0  0  0  0  0  0
  137.3220   81.6390  224.1390 C   0  0  0  0  0  0  0  0  0  0  0  0
  138.0680   81.7500  222.9240 C   0  0  0  0  0  0  0  0  0  0  0  0
  137.7330   82.7280  222.1560 O   0  0  0  0  0  0  0  0  0  0  0  0
  139.1160   80.9410  222.4520 N   0  0  0  0  0  0  0  0  0  0  0  0
  139.0220   80.0200  221.2890 C   0  0  0  0  0  0  0  0  0  0  0  0
  139.7550   78.8240  221.8730 C   0  0  1  0  0  0  0  0  0  0  0  0
  138.8600   78.0230  222.7690 C   0  0  0  0  0  0  0  0  0  0  0  0
  139.5040   76.6680  222.7540 C   0  0  0  0  0  0  0  0  0  0  0  0
  140.3790   76.6000  221.6050 N   0  0  0  0  0  0  0  0  0  0  0  0
  140.1530   75.4190  220.8130 C   0  0  1  0  0  0  0  0  0  0  0  0
  141.3510   74.6990  220.3320 C   0  0  0  0  0  0  0  0  0  0  0  0
  141.4120   73.4320  221.1530 C   0  0  0  0  0  0  0  0  0  0  0  0
  140.2280   73.3750  221.9760 N   0  0  0  0  0  0  0  0  0  0  0  0
  139.3400   74.4350  221.5660 C   0  0  0  0  0  0  0  0  0  0  0  0
  140.1840   77.8210  220.8570 C   0  0  0  0  0  0  0  0  0  0  0  0
  140.8640   79.4960  222.5550 C   0  0  0  0  0  0  0  0  0  0  0  0
  142.1290   79.0480  222.8580 C   0  0  0  0  0  0  0  0  0  0  0  0
  142.9790   79.9360  223.5160 C   0  0  0  0  0  0  0  0  0  0  0  0
  142.5690   81.2230  223.8540 C   0  0  0  0  0  0  0  0  0  0  0  0
  141.2940   81.6690  223.5480 C   0  0  0  0  0  0  0  0  0  0  0  0
  140.4580   80.7880  222.8970 C   0  0  0  0  0  0  0  0  0  0  0  0
  137.5570   81.9200  225.4220 N   0  0  0  0  0  0  0  0  0  0  0  0
  136.5130   81.6370  226.2050 C   0  0  0  0  0  0  0  0  0  0  0  0
  136.2190   81.7330  227.5660 C   0  0  0  0  0  0  0  0  0  0  0  0
  135.9080   80.9710  231.3110 H   0  0  0  0  0  0  0  0  0  0  0  0
  136.6490   82.1250  230.1350 H   0  0  0  0  0  0  0  0  0  0  0  0
  133.0378   80.5345  227.6768 H   0  0  0  0  0  0  0  0  0  0  0  0
  133.5133   80.3391  225.2120 H   0  0  0  0  0  0  0  0  0  0  0  0
  135.4583   80.7907  223.2453 H   0  0  0  0  0  0  0  0  0  0  0  0
  137.9787   79.7808  221.0356 H   0  0  0  0  0  0  0  0  0  0  0  0
  139.4287   80.4087  220.3437 H   0  0  0  0  0  0  0  0  0  0  0  0
  138.8401   78.4413  223.7862 H   0  0  0  0  0  0  0  0  0  0  0  0
  137.8106   78.0109  222.4394 H   0  0  0  0  0  0  0  0  0  0  0  0
  140.0865   76.5217  223.6756 H   0  0  0  0  0  0  0  0  0  0  0  0
  138.7369   75.8818  222.6963 H   0  0  0  0  0  0  0  0  0  0  0  0
  139.6448   75.8204  219.9239 H   0  0  0  0  0  0  0  0  0  0  0  0
  141.2536   74.4607  219.2626 H   0  0  0  0  0  0  0  0  0  0  0  0
  142.2638   75.3029  220.4420 H   0  0  0  0  0  0  0  0  0  0  0  0
  141.4459   72.5572  220.4870 H   0  0  0  0  0  0  0  0  0  0  0  0
  142.3145   73.4279  221.7819 H   0  0  0  0  0  0  0  0  0  0  0  0
  139.6960   72.4810  221.8130 H   0  0  0  0  0  0  0  0  0  0  0  0
  138.5439   74.0323  220.9225 H   0  0  0  0  0  0  0  0  0  0  0  0
  138.8646   74.9065  222.4387 H   0  0  0  0  0  0  0  0  0  0  0  0
  141.1217   78.1343  220.3748 H   0  0  0  0  0  0  0  0  0  0  0  0
  139.4438   77.7018  220.0521 H   0  0  0  0  0  0  0  0  0  0  0  0
  142.4561   78.0319  222.5923 H   0  0  0  0  0  0  0  0  0  0  0  0
  143.9980   79.6120  223.7743 H   0  0  0  0  0  0  0  0  0  0  0  0
  143.2684   81.8958  224.3719 H   0  0  0  0  0  0  0  0  0  0  0  0
  140.9627   82.6838  223.8135 H   0  0  0  0  0  0  0  0  0  0  0  0
  138.4760   82.3230  225.7560 H   0  0  0  0  0  0  0  0  0  0  0  0
  136.9835   82.1300  228.2500 H   0  0  0  0  0  0  0  0  0  0  0  0
  1  2  1  0
  2  3  2  0
  2  4  1  0
  4  5  2  0
  5  6  1  0
  6  7  2  0
  7  8  1  0
  8  9  2  0
  9 10  1  0
 10 11  2  0
 10 12  1  0
 12 13  1  0
 14 13  1  6
 14 15  1  0
 15 16  1  0
 16 17  1  0
 17 18  1  0
 18 19  1  0
 19 20  1  0
 20 21  1  0
 21 22  1  0
 17 23  1  0
 14 24  1  0
 24 25  2  0
 25 26  1  0
 26 27  2  0
 27 28  1  0
 28 29  2  0
  9 30  1  0
 30 31  1  0
 31 32  2  0
 32  4  1  0
 31  7  1  0
 29 12  1  0
 23 14  1  0
 29 24  1  0
 22 18  1  0
  1 33  1  0
  1 34  1  0
  5 35  1  0
  6 36  1  0
  8 37  1  0
 13 38  1  0
 13 39  1  0
 15 40  1  0
 15 41  1  0
 16 42  1  0
 16 43  1  0
 18 44  1  6
 19 45  1  0
 19 46  1  0
 20 47  1  0
 20 48  1  0
 21 49  1  0
 22 50  1  0
 22 51  1  0
 23 52  1  0
 23 53  1  0
 25 54  1  0
 26 55  1  0
 27 56  1  0
 28 57  1  0
 30 58  1  0
 32 59  1  0
M  END
>  <smiles>  (57) 
NC(=O)c1ccc2cc(C(=O)N3C[C@]4(CCN(C5CCNC5)C4)c4ccccc43)[nH]c2c1

>  <score_type>  (57) 
oracle

>  <origin>  (57) 
autodockgpu

>  <m_score__min__energy>  (57) 
-8.9299999999999997

>  <m_primary>  (57) 
energy

>  <rmsd>  (57) 
9.3648758248932

>  <m_score__min__rmsd>  (57) 
9.3648758248932

>  <meeko>  (57) 
{"free_energy": -8.59, "intermolecular_energy": -9.78, "internal_energy": -1.17, "cluster_size": 12, "cluster_id": 2, "rank_in_cluster": 10}

>  <energy>  (57) 
-8.79

>  <cluster_rmsd>  (57) 
1.39

>  <cluster>  (57) 
1

$$$$

     RDKit          3D

 59 64  0  0  1  0  0  0  0  0999 V2000
  146.0020   73.3670  217.5710 N   0  0  0  0  0  0  0  0  0  0  0  0
  145.5530   72.8350  218.8230 C   0  0  0  0  0  0  0  0  0  0  0  0
  146.1540   71.8950  219.3830 O   0  0  0  0  0  0  0  0  0  0  0  0
  144.3500   73.4190  219.4550 C   0  0  0  0  0  0  0  0  0  0  0  0
  143.5220   72.6100  220.1950 C   0  0  0  0  0  0  0  0  0  0  0  0
  142.3890   73.1850  220.7800 C   0  0  0  0  0  0  0  0  0  0  0  0
  142.1410   74.5320  220.5990 C   0  0  0  0  0  0  0  0  0  0  0  0
  141.1220   75.3180  221.0640 C   0  0  0  0  0  0  0  0  0  0  0  0
  141.3030   76.6440  220.6130 C   0  0  0  0  0  0  0  0  0  0  0  0
  140.3720   77.6720  220.9650 C   0  0  0  0  0  0  0  0  0  0  0  0
  139.4650   77.9230  220.0850 O   0  0  0  0  0  0  0  0  0  0  0  0
  140.3070   78.4440  222.1380 N   0  0  0  0  0  0  0  0  0  0  0  0
  139.1580   78.4630  223.0810 C   0  0  0  0  0  0  0  0  0  0  0  0
  139.0880   79.9590  223.3380 C   0  0  1  0  0  0  0  0  0  0  0  0
  138.3780   80.6690  222.2250 C   0  0  0  0  0  0  0  0  0  0  0  0
  137.8950   81.9250  222.8890 C   0  0  0  0  0  0  0  0  0  0  0  0
  137.9200   81.7140  224.3190 N   0  0  0  0  0  0  0  0  0  0  0  0
  136.6740   82.0730  224.9460 C   0  0  1  0  0  0  0  0  0  0  0  0
  135.9490   80.9960  225.6540 C   0  0  0  0  0  0  0  0  0  0  0  0
  136.1100   81.3060  227.1240 C   0  0  0  0  0  0  0  0  0  0  0  0
  136.7890   82.5740  227.2420 N   0  0  0  0  0  0  0  0  0  0  0  0
  136.8810   83.1630  225.9290 C   0  0  0  0  0  0  0  0  0  0  0  0
  138.2770   80.3310  224.5330 C   0  0  0  0  0  0  0  0  0  0  0  0
  140.5120   80.2780  223.4600 C   0  0  0  0  0  0  0  0  0  0  0  0
  141.1460   81.2860  224.1490 C   0  0  0  0  0  0  0  0  0  0  0  0
  142.5380   81.3270  224.0810 C   0  0  0  0  0  0  0  0  0  0  0  0
  143.2610   80.3890  223.3460 C   0  0  0  0  0  0  0  0  0  0  0  0
  142.6170   79.3770  222.6540 C   0  0  0  0  0  0  0  0  0  0  0  0
  141.2420   79.3400  222.7250 C   0  0  0  0  0  0  0  0  0  0  0  0
  142.4260   76.5910  219.8960 N   0  0  0  0  0  0  0  0  0  0  0  0
  142.9520   75.3640  219.8630 C   0  0  0  0  0  0  0  0  0  0  0  0
  144.0750   74.7650  219.2910 C   0  0  0  0  0  0  0  0  0  0  0  0
  146.3010   72.7880  216.7710 H   0  0  0  0  0  0  0  0  0  0  0  0
  146.0140   74.4140  217.5050 H   0  0  0  0  0  0  0  0  0  0  0  0
  143.7438   71.5403  220.3238 H   0  0  0  0  0  0  0  0  0  0  0  0
  141.7013   72.5700  221.3790 H   0  0  0  0  0  0  0  0  0  0  0  0
  140.2892   74.9702  221.6929 H   0  0  0  0  0  0  0  0  0  0  0  0
  138.2369   78.0804  222.6170 H   0  0  0  0  0  0  0  0  0  0  0  0
  139.2695   77.8334  223.9761 H   0  0  0  0  0  0  0  0  0  0  0  0
  139.0660   80.8972  221.3977 H   0  0  0  0  0  0  0  0  0  0  0  0
  137.5692   80.0750  221.7746 H   0  0  0  0  0  0  0  0  0  0  0  0
  138.5548   82.7644  222.6242 H   0  0  0  0  0  0  0  0  0  0  0  0
  136.8741   82.1641  222.5564 H   0  0  0  0  0  0  0  0  0  0  0  0
  136.0500   82.3667  224.0890 H   0  0  0  0  0  0  0  0  0  0  0  0
  134.8853   80.9990  225.3739 H   0  0  0  0  0  0  0  0  0  0  0  0
  136.3425   80.0009  225.3994 H   0  0  0  0  0  0  0  0  0  0  0  0
  135.1216   81.3661  227.6030 H   0  0  0  0  0  0  0  0  0  0  0  0
  136.6913   80.5144  227.6194 H   0  0  0  0  0  0  0  0  0  0  0  0
  136.2260   83.2530  227.8180 H   0  0  0  0  0  0  0  0  0  0  0  0
  136.1059   83.9338  225.8062 H   0  0  0  0  0  0  0  0  0  0  0  0
  137.8608   83.6410  225.7825 H   0  0  0  0  0  0  0  0  0  0  0  0
  138.8696   80.2215  225.4532 H   0  0  0  0  0  0  0  0  0  0  0  0
  137.3931   79.6872  224.6525 H   0  0  0  0  0  0  0  0  0  0  0  0
  140.5785   82.0285  224.7292 H   0  0  0  0  0  0  0  0  0  0  0  0
  143.0787   82.1187  224.6204 H   0  0  0  0  0  0  0  0  0  0  0  0
  144.3587   80.4535  223.3152 H   0  0  0  0  0  0  0  0  0  0  0  0
  143.1805   78.6332  222.0715 H   0  0  0  0  0  0  0  0  0  0  0  0
  142.8350   77.4410  219.4170 H   0  0  0  0  0  0  0  0  0  0  0  0
  144.7618   75.3811  218.6921 H   0  0  0  0  0  0  0  0  0  0  0  0
  1  2  1  0
  2  3  2  0
  2  4  1  0
  4  5  2  0
  5  6  1  0
  6  7  2  0
  7  8  1  0
  8  9  2  0
  9 10  1  0
 10 11  2  0
 10 12  1  0
 12 13  1  0
 14 13  1  6
 14 15  1  0
 15 16  1  0
 16 17  1  0
 17 18  1  0
 18 19  1  0
 19 20  1  0
 20 21  1  0
 21 22  1  0
 17 23  1  0
 14 24  1  0
 24 25  2  0
 25 26  1  0
 26 27  2  0
 27 28  1  0
 28 29  2  0
  9 30  1  0
 30 31  1  0
 31 32  2  0
 32  4  1  0
 31  7  1  0
 29 12  1  0
 23 14  1  0
 29 24  1  0
 22 18  1  0
  1 33  1  0
  1 34  1  0
  5 35  1  0
  6 36  1  0
  8 37  1  0
 13 38  1  0
 13 39  1  0
 15 40  1  0
 15 41  1  0
 16 42  1  0
 16 43  1  0
 18 44  1  6
 19 45  1  0
 19 46  1  0
 20 47  1  0
 20 48  1  0
 21 49  1  0
 22 50  1  0
 22 51  1  0
 23 52  1  0
 23 53  1  0
 25 54  1  0
 26 55  1  0
 27 56  1  0
 28 57  1  0
 30 58  1  0
 32 59  1  0
M  END
>  <smiles>  (58) 
NC(=O)c1ccc2cc(C(=O)N3C[C@]4(CCN(C5CCNC5)C4)c4ccccc43)[nH]c2c1

>  <score_type>  (58) 
oracle

>  <origin>  (58) 
autodockgpu

>  <m_score__min__energy>  (58) 
-8.9299999999999997

>  <m_primary>  (58) 
energy

>  <rmsd>  (58) 
7.0758018291905795

>  <m_score__min__rmsd>  (58) 
7.0758018291905795

>  <meeko>  (58) 
{"free_energy": -8.76, "intermolecular_energy": -9.95, "internal_energy": -1.15, "cluster_size": 27, "cluster_id": 1, "rank_in_cluster": 13}

>  <energy>  (58) 
-8.78

>  <cluster_rmsd>  (58) 
1.41

>  <cluster>  (58) 
1

$$$$

     RDKit          3D

 59 64  0  0  1  0  0  0  0  0999 V2000
  135.9400   81.6280  230.4300 N   0  0  0  0  0  0  0  0  0  0  0  0
  135.0140   81.7020  229.3400 C   0  0  0  0  0  0  0  0  0  0  0  0
  133.8160   81.3790  229.4810 O   0  0  0  0  0  0  0  0  0  0  0  0
  135.4990   82.1700  228.0240 C   0  0  0  0  0  0  0  0  0  0  0  0
  135.3060   83.4810  227.6660 C   0  0  0  0  0  0  0  0  0  0  0  0
  135.7710   83.8990  226.4140 C   0  0  0  0  0  0  0  0  0  0  0  0
  136.4020   82.9900  225.5870 C   0  0  0  0  0  0  0  0  0  0  0  0
  136.9420   83.1490  224.3400 C   0  0  0  0  0  0  0  0  0  0  0  0
  137.4840   81.9230  223.8970 C   0  0  0  0  0  0  0  0  0  0  0  0
  138.1150   81.8200  222.6170 C   0  0  0  0  0  0  0  0  0  0  0  0
  137.6720   82.6240  221.7140 O   0  0  0  0  0  0  0  0  0  0  0  0
  139.1530   80.9630  222.2090 N   0  0  0  0  0  0  0  0  0  0  0  0
  139.0670   80.0040  221.0770 C   0  0  0  0  0  0  0  0  0  0  0  0
  139.7450   78.8100  221.7270 C   0  0  1  0  0  0  0  0  0  0  0  0
  138.7990   78.0680  222.6220 C   0  0  0  0  0  0  0  0  0  0  0  0
  139.4020   76.6950  222.6760 C   0  0  0  0  0  0  0  0  0  0  0  0
  140.3100   76.5600  221.5590 N   0  0  0  0  0  0  0  0  0  0  0  0
  140.0730   75.3570  220.8030 C   0  0  1  0  0  0  0  0  0  0  0  0
  141.2640   74.5900  220.3800 C   0  0  0  0  0  0  0  0  0  0  0  0
  141.2700   73.3520  221.2460 C   0  0  0  0  0  0  0  0  0  0  0  0
  140.0630   73.3550  222.0390 N   0  0  0  0  0  0  0  0  0  0  0  0
  139.2150   74.4220  221.5680 C   0  0  0  0  0  0  0  0  0  0  0  0
  140.1760   77.7580  220.7620 C   0  0  0  0  0  0  0  0  0  0  0  0
  140.8520   79.4740  222.4200 C   0  0  0  0  0  0  0  0  0  0  0  0
  142.0920   79.0000  222.7800 C   0  0  0  0  0  0  0  0  0  0  0  0
  142.9480   79.8860  223.4330 C   0  0  0  0  0  0  0  0  0  0  0  0
  142.5670   81.1970  223.7120 C   0  0  0  0  0  0  0  0  0  0  0  0
  141.3160   81.6670  223.3480 C   0  0  0  0  0  0  0  0  0  0  0  0
  140.4740   80.7880  222.7020 C   0  0  0  0  0  0  0  0  0  0  0  0
  137.2430   81.0820  224.9030 N   0  0  0  0  0  0  0  0  0  0  0  0
  136.6080   81.6710  225.9190 C   0  0  0  0  0  0  0  0  0  0  0  0
  136.1350   81.2820  227.1730 C   0  0  0  0  0  0  0  0  0  0  0  0
  136.0010   80.8310  231.0840 H   0  0  0  0  0  0  0  0  0  0  0  0
  136.5770   82.4540  230.5380 H   0  0  0  0  0  0  0  0  0  0  0  0
  134.7999   84.1836  228.3444 H   0  0  0  0  0  0  0  0  0  0  0  0
  135.6353   84.9418  226.0914 H   0  0  0  0  0  0  0  0  0  0  0  0
  136.9523   84.0893  223.7693 H   0  0  0  0  0  0  0  0  0  0  0  0
  138.0253   79.7862  220.7989 H   0  0  0  0  0  0  0  0  0  0  0  0
  139.5139   80.3458  220.1317 H   0  0  0  0  0  0  0  0  0  0  0  0
  138.7602   78.5235  223.6225 H   0  0  0  0  0  0  0  0  0  0  0  0
  137.7605   78.0741  222.2594 H   0  0  0  0  0  0  0  0  0  0  0  0
  139.9507   76.5654  223.6205 H   0  0  0  0  0  0  0  0  0  0  0  0
  138.6137   75.9297  222.6215 H   0  0  0  0  0  0  0  0  0  0  0  0
  139.5985   75.7388  219.8870 H   0  0  0  0  0  0  0  0  0  0  0  0
  141.1885   74.3163  219.3173 H   0  0  0  0  0  0  0  0  0  0  0  0
  142.1892   75.1741  220.4936 H   0  0  0  0  0  0  0  0  0  0  0  0
  141.2978   72.4534  220.6122 H   0  0  0  0  0  0  0  0  0  0  0  0
  142.1555   73.3470  221.8986 H   0  0  0  0  0  0  0  0  0  0  0  0
  139.5120   72.4700  221.8920 H   0  0  0  0  0  0  0  0  0  0  0  0
  138.4254   74.0171  220.9179 H   0  0  0  0  0  0  0  0  0  0  0  0
  138.7301   74.9368  222.4105 H   0  0  0  0  0  0  0  0  0  0  0  0
  141.1377   78.0260  220.3003 H   0  0  0  0  0  0  0  0  0  0  0  0
  139.4586   77.6309  219.9379 H   0  0  0  0  0  0  0  0  0  0  0  0
  142.3956   77.9655  222.5619 H   0  0  0  0  0  0  0  0  0  0  0  0
  143.9481   79.5418  223.7352 H   0  0  0  0  0  0  0  0  0  0  0  0
  143.2694   81.8678  224.2284 H   0  0  0  0  0  0  0  0  0  0  0  0
  141.0071   82.7000  223.5658 H   0  0  0  0  0  0  0  0  0  0  0  0
  137.5340   80.0660  224.8760 H   0  0  0  0  0  0  0  0  0  0  0  0
  136.2715   80.2390  227.4949 H   0  0  0  0  0  0  0  0  0  0  0  0
  1  2  1  0
  2  3  2  0
  2  4  1  0
  4  5  2  0
  5  6  1  0
  6  7  2  0
  7  8  1  0
  8  9  2  0
  9 10  1  0
 10 11  2  0
 10 12  1  0
 12 13  1  0
 14 13  1  6
 14 15  1  0
 15 16  1  0
 16 17  1  0
 17 18  1  0
 18 19  1  0
 19 20  1  0
 20 21  1  0
 21 22  1  0
 17 23  1  0
 14 24  1  0
 24 25  2  0
 25 26  1  0
 26 27  2  0
 27 28  1  0
 28 29  2  0
  9 30  1  0
 30 31  1  0
 31 32  2  0
 32  4  1  0
 31  7  1  0
 29 12  1  0
 23 14  1  0
 29 24  1  0
 22 18  1  0
  1 33  1  0
  1 34  1  0
  5 35  1  0
  6 36  1  0
  8 37  1  0
 13 38  1  0
 13 39  1  0
 15 40  1  0
 15 41  1  0
 16 42  1  0
 16 43  1  0
 18 44  1  6
 19 45  1  0
 19 46  1  0
 20 47  1  0
 20 48  1  0
 21 49  1  0
 22 50  1  0
 22 51  1  0
 23 52  1  0
 23 53  1  0
 25 54  1  0
 26 55  1  0
 27 56  1  0
 28 57  1  0
 30 58  1  0
 32 59  1  0
M  END
>  <smiles>  (59) 
NC(=O)c1ccc2cc(C(=O)N3C[C@]4(CCN(C5CCNC5)C4)c4ccccc43)[nH]c2c1

>  <score_type>  (59) 
oracle

>  <origin>  (59) 
autodockgpu

>  <m_score__min__energy>  (59) 
-8.9299999999999997

>  <m_primary>  (59) 
energy

>  <rmsd>  (59) 
9.821518818868803

>  <m_score__min__rmsd>  (59) 
9.821518818868803

>  <meeko>  (59) 
{"free_energy": -8.8, "intermolecular_energy": -9.99, "internal_energy": -1.17, "cluster_size": 12, "cluster_id": 2, "rank_in_cluster": 2}

>  <energy>  (59) 
-8.78

>  <cluster_rmsd>  (59) 
1.4

>  <cluster>  (59) 
1

$$$$

     RDKit          3D

 59 64  0  0  1  0  0  0  0  0999 V2000
  140.3180   67.8960  227.8540 N   0  0  0  0  0  0  0  0  0  0  0  0
  139.7290   67.9600  226.5500 C   0  0  0  0  0  0  0  0  0  0  0  0
  139.0170   67.0330  226.1120 O   0  0  0  0  0  0  0  0  0  0  0  0
  139.9770   69.1540  225.7140 C   0  0  0  0  0  0  0  0  0  0  0  0
  140.9850   70.0200  226.0620 C   0  0  0  0  0  0  0  0  0  0  0  0
  141.1970   71.1440  225.2570 C   0  0  0  0  0  0  0  0  0  0  0  0
  140.3960   71.3460  224.1500 C   0  0  0  0  0  0  0  0  0  0  0  0
  140.4060   72.3470  223.2170 C   0  0  0  0  0  0  0  0  0  0  0  0
  139.3910   72.1180  222.2630 C   0  0  0  0  0  0  0  0  0  0  0  0
  139.1910   73.0210  221.1720 C   0  0  0  0  0  0  0  0  0  0  0  0
  139.4750   72.5530  220.0060 O   0  0  0  0  0  0  0  0  0  0  0  0
  138.7260   74.3480  221.1950 N   0  0  0  0  0  0  0  0  0  0  0  0
  139.2910   75.4610  220.3890 C   0  0  0  0  0  0  0  0  0  0  0  0
  139.2970   76.5450  221.4530 C   0  0  1  0  0  0  0  0  0  0  0  0
  140.4790   76.4070  222.3630 C   0  0  0  0  0  0  0  0  0  0  0  0
  140.6440   77.7970  222.9040 C   0  0  0  0  0  0  0  0  0  0  0  0
  139.9370   78.7050  222.0300 N   0  0  0  0  0  0  0  0  0  0  0  0
  140.7510   79.8220  221.6250 C   0  0  1  0  0  0  0  0  0  0  0  0
  140.8670   80.9440  222.5800 C   0  0  0  0  0  0  0  0  0  0  0  0
  142.2740   80.8620  223.1240 C   0  0  0  0  0  0  0  0  0  0  0  0
  142.9670   79.8140  222.4140 N   0  0  0  0  0  0  0  0  0  0  0  0
  142.1320   79.3760  221.3230 C   0  0  0  0  0  0  0  0  0  0  0  0
  139.4610   77.9250  220.9110 C   0  0  0  0  0  0  0  0  0  0  0  0
  138.0000   76.3030  222.0890 C   0  0  0  0  0  0  0  0  0  0  0  0
  137.1600   77.1630  222.7600 C   0  0  0  0  0  0  0  0  0  0  0  0
  135.9690   76.6330  223.2560 C   0  0  0  0  0  0  0  0  0  0  0  0
  135.6410   75.2900  223.0820 C   0  0  0  0  0  0  0  0  0  0  0  0
  136.4900   74.4300  222.4070 C   0  0  0  0  0  0  0  0  0  0  0  0
  137.6650   74.9580  221.9190 C   0  0  0  0  0  0  0  0  0  0  0  0
  138.8170   70.9850  222.6700 N   0  0  0  0  0  0  0  0  0  0  0  0
  139.3800   70.4970  223.7780 C   0  0  0  0  0  0  0  0  0  0  0  0
  139.1910   69.3840  224.5990 C   0  0  0  0  0  0  0  0  0  0  0  0
  140.7860   67.0590  228.2360 H   0  0  0  0  0  0  0  0  0  0  0  0
  140.2480   68.7730  228.4240 H   0  0  0  0  0  0  0  0  0  0  0  0
  141.6082   69.8346  226.9493 H   0  0  0  0  0  0  0  0  0  0  0  0
  141.9944   71.8606  225.5033 H   0  0  0  0  0  0  0  0  0  0  0  0
  141.0998   73.2006  223.2113 H   0  0  0  0  0  0  0  0  0  0  0  0
  140.3041   75.2342  220.0255 H   0  0  0  0  0  0  0  0  0  0  0  0
  138.7412   75.7049  219.4680 H   0  0  0  0  0  0  0  0  0  0  0  0
  140.2757   75.6886  223.1709 H   0  0  0  0  0  0  0  0  0  0  0  0
  141.3780   76.0268  221.8557 H   0  0  0  0  0  0  0  0  0  0  0  0
  140.2247   77.8543  223.9193 H   0  0  0  0  0  0  0  0  0  0  0  0
  141.7100   78.0643  222.9500 H   0  0  0  0  0  0  0  0  0  0  0  0
  140.2113   80.2069  220.7472 H   0  0  0  0  0  0  0  0  0  0  0  0
  140.7077   81.9041  222.0674 H   0  0  0  0  0  0  0  0  0  0  0  0
  140.1143   80.8809  223.3796 H   0  0  0  0  0  0  0  0  0  0  0  0
  142.7900   81.8212  222.9703 H   0  0  0  0  0  0  0  0  0  0  0  0
  142.2545   80.6445  224.2021 H   0  0  0  0  0  0  0  0  0  0  0  0
  143.8490   80.1790  221.9670 H   0  0  0  0  0  0  0  0  0  0  0  0
  142.4762   79.8261  220.3801 H   0  0  0  0  0  0  0  0  0  0  0  0
  142.1748   78.2825  221.2117 H   0  0  0  0  0  0  0  0  0  0  0  0
  138.4992   78.3156  220.5472 H   0  0  0  0  0  0  0  0  0  0  0  0
  140.1537   77.9569  220.0571 H   0  0  0  0  0  0  0  0  0  0  0  0
  137.4173   78.2234  222.8991 H   0  0  0  0  0  0  0  0  0  0  0  0
  135.2725   77.2904  223.7970 H   0  0  0  0  0  0  0  0  0  0  0  0
  134.6927   74.9073  223.4873 H   0  0  0  0  0  0  0  0  0  0  0  0
  136.2369   73.3688  222.2661 H   0  0  0  0  0  0  0  0  0  0  0  0
  138.0070   70.5410  222.1540 H   0  0  0  0  0  0  0  0  0  0  0  0
  138.3931   68.6683  224.3520 H   0  0  0  0  0  0  0  0  0  0  0  0
  1  2  1  0
  2  3  2  0
  2  4  1  0
  4  5  2  0
  5  6  1  0
  6  7  2  0
  7  8  1  0
  8  9  2  0
  9 10  1  0
 10 11  2  0
 10 12  1  0
 12 13  1  0
 14 13  1  6
 14 15  1  0
 15 16  1  0
 16 17  1  0
 17 18  1  0
 18 19  1  0
 19 20  1  0
 20 21  1  0
 21 22  1  0
 17 23  1  0
 14 24  1  0
 24 25  2  0
 25 26  1  0
 26 27  2  0
 27 28  1  0
 28 29  2  0
  9 30  1  0
 30 31  1  0
 31 32  2  0
 32  4  1  0
 31  7  1  0
 29 12  1  0
 23 14  1  0
 29 24  1  0
 22 18  1  0
  1 33  1  0
  1 34  1  0
  5 35  1  0
  6 36  1  0
  8 37  1  0
 13 38  1  0
 13 39  1  0
 15 40  1  0
 15 41  1  0
 16 42  1  0
 16 43  1  0
 18 44  1  6
 19 45  1  0
 19 46  1  0
 20 47  1  0
 20 48  1  0
 21 49  1  0
 22 50  1  0
 22 51  1  0
 23 52  1  0
 23 53  1  0
 25 54  1  0
 26 55  1  0
 27 56  1  0
 28 57  1  0
 30 58  1  0
 32 59  1  0
M  END
>  <smiles>  (60) 
NC(=O)c1ccc2cc(C(=O)N3C[C@]4(CCN(C5CCNC5)C4)c4ccccc43)[nH]c2c1

>  <score_type>  (60) 
oracle

>  <origin>  (60) 
autodockgpu

>  <m_score__min__energy>  (60) 
-8.9299999999999997

>  <m_primary>  (60) 
energy

>  <rmsd>  (60) 
3.2203808667483527

>  <m_score__min__rmsd>  (60) 
3.2203808667483527

>  <meeko>  (60) 
{"free_energy": -8.47, "intermolecular_energy": -9.67, "internal_energy": -1.27, "cluster_size": 10, "cluster_id": 3, "rank_in_cluster": 7}

>  <energy>  (60) 
-8.77

>  <cluster_rmsd>  (60) 
1.42

>  <cluster>  (60) 
1

$$$$

     RDKit          3D

 59 64  0  0  1  0  0  0  0  0999 V2000
  135.8320   81.5230  230.2920 N   0  0  0  0  0  0  0  0  0  0  0  0
  134.7100   81.3820  229.4140 C   0  0  0  0  0  0  0  0  0  0  0  0
  133.5510   81.2450  229.8580 O   0  0  0  0  0  0  0  0  0  0  0  0
  134.9400   81.4000  227.9530 C   0  0  0  0  0  0  0  0  0  0  0  0
  133.8680   81.2760  227.1040 C   0  0  0  0  0  0  0  0  0  0  0  0
  134.1120   81.2930  225.7270 C   0  0  0  0  0  0  0  0  0  0  0  0
  135.4070   81.4330  225.2690 C   0  0  0  0  0  0  0  0  0  0  0  0
  135.8980   81.4840  223.9930 C   0  0  0  0  0  0  0  0  0  0  0  0
  137.3010   81.6410  224.0290 C   0  0  0  0  0  0  0  0  0  0  0  0
  138.0620   81.7270  222.8200 C   0  0  0  0  0  0  0  0  0  0  0  0
  137.7290   82.6840  222.0240 O   0  0  0  0  0  0  0  0  0  0  0  0
  139.1210   80.9140  222.3820 N   0  0  0  0  0  0  0  0  0  0  0  0
  139.0580   79.9870  221.2220 C   0  0  0  0  0  0  0  0  0  0  0  0
  139.7730   78.7940  221.8330 C   0  0  1  0  0  0  0  0  0  0  0  0
  138.8530   77.9990  222.7090 C   0  0  0  0  0  0  0  0  0  0  0  0
  139.4960   76.6430  222.7190 C   0  0  0  0  0  0  0  0  0  0  0  0
  140.4020   76.5680  221.5940 N   0  0  0  0  0  0  0  0  0  0  0  0
  140.1960   75.3820  220.8040 C   0  0  1  0  0  0  0  0  0  0  0  0
  141.4060   74.6540  220.3650 C   0  0  0  0  0  0  0  0  0  0  0  0
  141.4370   73.3930  221.1960 C   0  0  0  0  0  0  0  0  0  0  0  0
  140.2270   73.3460  221.9820 N   0  0  0  0  0  0  0  0  0  0  0  0
  139.3560   74.4070  221.5380 C   0  0  0  0  0  0  0  0  0  0  0  0
  140.2290   77.7850  220.8350 C   0  0  0  0  0  0  0  0  0  0  0  0
  140.8640   79.4690  222.5410 C   0  0  0  0  0  0  0  0  0  0  0  0
  142.1190   79.0210  222.8810 C   0  0  0  0  0  0  0  0  0  0  0  0
  142.9530   79.9120  223.5570 C   0  0  0  0  0  0  0  0  0  0  0  0
  142.5340   81.2020  223.8770 C   0  0  0  0  0  0  0  0  0  0  0  0
  141.2690   81.6470  223.5330 C   0  0  0  0  0  0  0  0  0  0  0  0
  140.4500   80.7630  222.8640 C   0  0  0  0  0  0  0  0  0  0  0  0
  137.5870   81.6780  225.3310 N   0  0  0  0  0  0  0  0  0  0  0  0
  136.4990   81.5590  226.0960 C   0  0  0  0  0  0  0  0  0  0  0  0
  136.2270   81.5390  227.4650 C   0  0  0  0  0  0  0  0  0  0  0  0
  135.9850   80.9440  231.1330 H   0  0  0  0  0  0  0  0  0  0  0  0
  136.5180   82.2720  230.0300 H   0  0  0  0  0  0  0  0  0  0  0  0
  132.8460   81.1664  227.4959 H   0  0  0  0  0  0  0  0  0  0  0  0
  133.2793   81.1957  225.0149 H   0  0  0  0  0  0  0  0  0  0  0  0
  135.2918   81.4134  223.0778 H   0  0  0  0  0  0  0  0  0  0  0  0
  138.0218   79.7475  220.9411 H   0  0  0  0  0  0  0  0  0  0  0  0
  139.4909   80.3699  220.2861 H   0  0  0  0  0  0  0  0  0  0  0  0
  138.8060   78.4231  223.7229 H   0  0  0  0  0  0  0  0  0  0  0  0
  137.8129   77.9860  222.3512 H   0  0  0  0  0  0  0  0  0  0  0  0
  140.0532   76.5013  223.6568 H   0  0  0  0  0  0  0  0  0  0  0  0
  138.7300   75.8570  222.6450 H   0  0  0  0  0  0  0  0  0  0  0  0
  139.7172   75.7787  219.8966 H   0  0  0  0  0  0  0  0  0  0  0  0
  141.3407   74.4085  219.2948 H   0  0  0  0  0  0  0  0  0  0  0  0
  142.3172   75.2555  220.4989 H   0  0  0  0  0  0  0  0  0  0  0  0
  141.4887   72.5134  220.5375 H   0  0  0  0  0  0  0  0  0  0  0  0
  142.3193   73.3902  221.8529 H   0  0  0  0  0  0  0  0  0  0  0  0
  139.6970   72.4530  221.8080 H   0  0  0  0  0  0  0  0  0  0  0  0
  138.5782   74.0033  220.8731 H   0  0  0  0  0  0  0  0  0  0  0  0
  138.8559   74.8863  222.3925 H   0  0  0  0  0  0  0  0  0  0  0  0
  141.1801   78.0949  220.3774 H   0  0  0  0  0  0  0  0  0  0  0  0
  139.5110   77.6620  220.0108 H   0  0  0  0  0  0  0  0  0  0  0  0
  142.4513   78.0028  222.6304 H   0  0  0  0  0  0  0  0  0  0  0  0
  143.9645   79.5888  223.8440 H   0  0  0  0  0  0  0  0  0  0  0  0
  143.2189   81.8770  224.4111 H   0  0  0  0  0  0  0  0  0  0  0  0
  140.9316   82.6637  223.7832 H   0  0  0  0  0  0  0  0  0  0  0  0
  138.5750   81.7900  225.6930 H   0  0  0  0  0  0  0  0  0  0  0  0
  137.0602   81.6366  228.1765 H   0  0  0  0  0  0  0  0  0  0  0  0
  1  2  1  0
  2  3  2  0
  2  4  1  0
  4  5  2  0
  5  6  1  0
  6  7  2  0
  7  8  1  0
  8  9  2  0
  9 10  1  0
 10 11  2  0
 10 12  1  0
 12 13  1  0
 14 13  1  6
 14 15  1  0
 15 16  1  0
 16 17  1  0
 17 18  1  0
 18 19  1  0
 19 20  1  0
 20 21  1  0
 21 22  1  0
 17 23  1  0
 14 24  1  0
 24 25  2  0
 25 26  1  0
 26 27  2  0
 27 28  1  0
 28 29  2  0
  9 30  1  0
 30 31  1  0
 31 32  2  0
 32  4  1  0
 31  7  1  0
 29 12  1  0
 23 14  1  0
 29 24  1  0
 22 18  1  0
  1 33  1  0
  1 34  1  0
  5 35  1  0
  6 36  1  0
  8 37  1  0
 13 38  1  0
 13 39  1  0
 15 40  1  0
 15 41  1  0
 16 42  1  0
 16 43  1  0
 18 44  1  6
 19 45  1  0
 19 46  1  0
 20 47  1  0
 20 48  1  0
 21 49  1  0
 22 50  1  0
 22 51  1  0
 23 52  1  0
 23 53  1  0
 25 54  1  0
 26 55  1  0
 27 56  1  0
 28 57  1  0
 30 58  1  0
 32 59  1  0
M  END
>  <smiles>  (61) 
NC(=O)c1ccc2cc(C(=O)N3C[C@]4(CCN(C5CCNC5)C4)c4ccccc43)[nH]c2c1

>  <score_type>  (61) 
oracle

>  <origin>  (61) 
autodockgpu

>  <m_score__min__energy>  (61) 
-8.9299999999999997

>  <m_primary>  (61) 
energy

>  <rmsd>  (61) 
9.414025455739598

>  <m_score__min__rmsd>  (61) 
9.414025455739598

>  <meeko>  (61) 
{"free_energy": -8.62, "intermolecular_energy": -9.81, "internal_energy": -1.16, "cluster_size": 12, "cluster_id": 2, "rank_in_cluster": 9}

>  <energy>  (61) 
-8.77

>  <cluster_rmsd>  (61) 
1.41

>  <cluster>  (61) 
1

$$$$

     RDKit          3D

 59 64  0  0  1  0  0  0  0  0999 V2000
  139.9990   68.1290  227.9990 N   0  0  0  0  0  0  0  0  0  0  0  0
  139.6710   68.0860  226.6060 C   0  0  0  0  0  0  0  0  0  0  0  0
  139.1080   67.0930  226.1000 O   0  0  0  0  0  0  0  0  0  0  0  0
  140.0130   69.2480  225.7570 C   0  0  0  0  0  0  0  0  0  0  0  0
  141.0750   70.0460  226.1070 C   0  0  0  0  0  0  0  0  0  0  0  0
  141.3760   71.1400  225.2900 C   0  0  0  0  0  0  0  0  0  0  0  0
  140.6060   71.3820  224.1690 C   0  0  0  0  0  0  0  0  0  0  0  0
  140.6980   72.3660  223.2230 C   0  0  0  0  0  0  0  0  0  0  0  0
  139.6820   72.1950  222.2590 C   0  0  0  0  0  0  0  0  0  0  0  0
  139.5600   73.0940  221.1530 C   0  0  0  0  0  0  0  0  0  0  0  0
  139.8190   72.5880  219.9960 O   0  0  0  0  0  0  0  0  0  0  0  0
  139.1950   74.4520  221.1520 N   0  0  0  0  0  0  0  0  0  0  0  0
  139.8730   75.5140  220.3640 C   0  0  0  0  0  0  0  0  0  0  0  0
  139.9180   76.6020  221.4230 C   0  0  1  0  0  0  0  0  0  0  0  0
  141.0500   76.3820  222.3800 C   0  0  0  0  0  0  0  0  0  0  0  0
  141.2980   77.7600  222.9210 C   0  0  0  0  0  0  0  0  0  0  0  0
  140.6950   78.7120  222.0160 N   0  0  0  0  0  0  0  0  0  0  0  0
  141.6060   79.7620  221.6390 C   0  0  1  0  0  0  0  0  0  0  0  0
  141.0230   80.9410  220.9640 C   0  0  0  0  0  0  0  0  0  0  0  0
  141.0770   82.0540  221.9840 C   0  0  0  0  0  0  0  0  0  0  0  0
  141.7770   81.5610  223.1460 N   0  0  0  0  0  0  0  0  0  0  0  0
  142.3340   80.2700  222.8260 C   0  0  0  0  0  0  0  0  0  0  0  0
  140.2060   77.9620  220.8830 C   0  0  0  0  0  0  0  0  0  0  0  0
  138.5830   76.4620  222.0090 C   0  0  0  0  0  0  0  0  0  0  0  0
  137.7840   77.3860  222.6420 C   0  0  0  0  0  0  0  0  0  0  0  0
  136.5380   76.9500  223.0930 C   0  0  0  0  0  0  0  0  0  0  0  0
  136.1170   75.6350  222.9110 C   0  0  0  0  0  0  0  0  0  0  0  0
  136.9260   74.7090  222.2740 C   0  0  0  0  0  0  0  0  0  0  0  0
  138.1550   75.1450  221.8300 C   0  0  0  0  0  0  0  0  0  0  0  0
  139.0240   71.1110  222.6720 N   0  0  0  0  0  0  0  0  0  0  0  0
  139.5380   70.6010  223.7950 C   0  0  0  0  0  0  0  0  0  0  0  0
  139.2600   69.5160  224.6280 C   0  0  0  0  0  0  0  0  0  0  0  0
  140.4270   67.3450  228.5170 H   0  0  0  0  0  0  0  0  0  0  0  0
  139.7740   69.0290  228.4880 H   0  0  0  0  0  0  0  0  0  0  0  0
  141.6721   69.8302  227.0053 H   0  0  0  0  0  0  0  0  0  0  0  0
  142.2187   71.8022  225.5378 H   0  0  0  0  0  0  0  0  0  0  0  0
  141.4500   73.1688  223.2151 H   0  0  0  0  0  0  0  0  0  0  0  0
  140.8798   75.2097  220.0420 H   0  0  0  0  0  0  0  0  0  0  0  0
  139.3798   75.7915  219.4207 H   0  0  0  0  0  0  0  0  0  0  0  0
  140.7616   75.6870  223.1823 H   0  0  0  0  0  0  0  0  0  0  0  0
  141.9369   75.9315  221.9105 H   0  0  0  0  0  0  0  0  0  0  0  0
  140.8456   77.8559  223.9191 H   0  0  0  0  0  0  0  0  0  0  0  0
  142.3785   77.9472  223.0072 H   0  0  0  0  0  0  0  0  0  0  0  0
  142.2554   79.2635  220.9044 H   0  0  0  0  0  0  0  0  0  0  0  0
  141.6126   81.2056  220.0739 H   0  0  0  0  0  0  0  0  0  0  0  0
  139.9955   80.7497  220.6209 H   0  0  0  0  0  0  0  0  0  0  0  0
  141.6123   82.9187  221.5648 H   0  0  0  0  0  0  0  0  0  0  0  0
  140.0598   82.3716  222.2570 H   0  0  0  0  0  0  0  0  0  0  0  0
  142.6010   82.1740  223.3810 H   0  0  0  0  0  0  0  0  0  0  0  0
  143.4056   80.3677  222.5979 H   0  0  0  0  0  0  0  0  0  0  0  0
  142.2296   79.5779  223.6746 H   0  0  0  0  0  0  0  0  0  0  0  0
  139.2910   78.4208  220.4801 H   0  0  0  0  0  0  0  0  0  0  0  0
  140.9322   77.9360  220.0572 H   0  0  0  0  0  0  0  0  0  0  0  0
  138.1140   78.4254  222.7865 H   0  0  0  0  0  0  0  0  0  0  0  0
  135.8726   77.6613  223.6042 H   0  0  0  0  0  0  0  0  0  0  0  0
  135.1270   75.3273  223.2787 H   0  0  0  0  0  0  0  0  0  0  0  0
  136.6007   73.6683  222.1286 H   0  0  0  0  0  0  0  0  0  0  0  0
  138.1920   70.7180  222.1510 H   0  0  0  0  0  0  0  0  0  0  0  0
  138.4171   68.8544  224.3793 H   0  0  0  0  0  0  0  0  0  0  0  0
  1  2  1  0
  2  3  2  0
  2  4  1  0
  4  5  2  0
  5  6  1  0
  6  7  2  0
  7  8  1  0
  8  9  2  0
  9 10  1  0
 10 11  2  0
 10 12  1  0
 12 13  1  0
 14 13  1  6
 14 15  1  0
 15 16  1  0
 16 17  1  0
 17 18  1  0
 18 19  1  0
 19 20  1  0
 20 21  1  0
 21 22  1  0
 17 23  1  0
 14 24  1  0
 24 25  2  0
 25 26  1  0
 26 27  2  0
 27 28  1  0
 28 29  2  0
  9 30  1  0
 30 31  1  0
 31 32  2  0
 32  4  1  0
 31  7  1  0
 29 12  1  0
 23 14  1  0
 29 24  1  0
 22 18  1  0
  1 33  1  0
  1 34  1  0
  5 35  1  0
  6 36  1  0
  8 37  1  0
 13 38  1  0
 13 39  1  0
 15 40  1  0
 15 41  1  0
 16 42  1  0
 16 43  1  0
 18 44  1  6
 19 45  1  0
 19 46  1  0
 20 47  1  0
 20 48  1  0
 21 49  1  0
 22 50  1  0
 22 51  1  0
 23 52  1  0
 23 53  1  0
 25 54  1  0
 26 55  1  0
 27 56  1  0
 28 57  1  0
 30 58  1  0
 32 59  1  0
M  END
>  <smiles>  (62) 
NC(=O)c1ccc2cc(C(=O)N3C[C@]4(CCN(C5CCNC5)C4)c4ccccc43)[nH]c2c1

>  <score_type>  (62) 
oracle

>  <origin>  (62) 
autodockgpu

>  <m_score__min__energy>  (62) 
-8.9299999999999997

>  <m_primary>  (62) 
energy

>  <rmsd>  (62) 
3.0294680400210066

>  <m_score__min__rmsd>  (62) 
3.0294680400210066

>  <meeko>  (62) 
{"free_energy": -8.17, "intermolecular_energy": -9.37, "internal_energy": -1.26, "cluster_size": 10, "cluster_id": 3, "rank_in_cluster": 10}

>  <energy>  (62) 
-8.77

>  <cluster_rmsd>  (62) 
0.34

>  <cluster>  (62) 
1

$$$$

     RDKit          3D

 59 64  0  0  1  0  0  0  0  0999 V2000
  145.9990   73.3970  217.5990 N   0  0  0  0  0  0  0  0  0  0  0  0
  145.6160   72.8850  218.8800 C   0  0  0  0  0  0  0  0  0  0  0  0
  146.2990   72.0180  219.4650 O   0  0  0  0  0  0  0  0  0  0  0  0
  144.3830   73.4000  219.5150 C   0  0  0  0  0  0  0  0  0  0  0  0
  143.5800   72.5370  220.2190 C   0  0  0  0  0  0  0  0  0  0  0  0
  142.4180   73.0480  220.8070 C   0  0  0  0  0  0  0  0  0  0  0  0
  142.1180   74.3880  220.6630 C   0  0  0  0  0  0  0  0  0  0  0  0
  141.0630   75.1190  221.1390 C   0  0  0  0  0  0  0  0  0  0  0  0
  141.1950   76.4640  220.7310 C   0  0  0  0  0  0  0  0  0  0  0  0
  140.2190   77.4430  221.1030 C   0  0  0  0  0  0  0  0  0  0  0  0
  139.2190   77.5580  220.3000 O   0  0  0  0  0  0  0  0  0  0  0  0
  140.2000   78.2930  222.2210 N   0  0  0  0  0  0  0  0  0  0  0  0
  139.0900   78.3790  223.2050 C   0  0  0  0  0  0  0  0  0  0  0  0
  139.0270   79.8890  223.3610 C   0  0  1  0  0  0  0  0  0  0  0  0
  138.2740   80.5210  222.2310 C   0  0  0  0  0  0  0  0  0  0  0  0
  137.8160   81.8210  222.8260 C   0  0  0  0  0  0  0  0  0  0  0  0
  137.8960   81.7090  224.2640 N   0  0  0  0  0  0  0  0  0  0  0  0
  136.6760   82.1110  224.9150 C   0  0  1  0  0  0  0  0  0  0  0  0
  135.9010   81.0520  225.5950 C   0  0  0  0  0  0  0  0  0  0  0  0
  136.0890   81.3050  227.0720 C   0  0  0  0  0  0  0  0  0  0  0  0
  136.8350   82.5320  227.2240 N   0  0  0  0  0  0  0  0  0  0  0  0
  136.9470   83.1570  225.9290 C   0  0  0  0  0  0  0  0  0  0  0  0
  138.2640   80.3430  224.5590 C   0  0  0  0  0  0  0  0  0  0  0  0
  140.4550   80.2130  223.4050 C   0  0  0  0  0  0  0  0  0  0  0  0
  141.1140   81.2650  223.9980 C   0  0  0  0  0  0  0  0  0  0  0  0
  142.5030   81.3000  223.8720 C   0  0  0  0  0  0  0  0  0  0  0  0
  143.1970   80.3130  223.1760 C   0  0  0  0  0  0  0  0  0  0  0  0
  142.5280   79.2560  222.5810 C   0  0  0  0  0  0  0  0  0  0  0  0
  141.1560   79.2260  222.7080 C   0  0  0  0  0  0  0  0  0  0  0  0
  142.3280   76.4780  220.0270 N   0  0  0  0  0  0  0  0  0  0  0  0
  142.9030   75.2750  219.9640 C   0  0  0  0  0  0  0  0  0  0  0  0
  144.0560   74.7390  219.3880 C   0  0  0  0  0  0  0  0  0  0  0  0
  146.3270   72.8100  216.8160 H   0  0  0  0  0  0  0  0  0  0  0  0
  145.9280   74.4380  217.4900 H   0  0  0  0  0  0  0  0  0  0  0  0
  143.8430   71.4735  220.3179 H   0  0  0  0  0  0  0  0  0  0  0  0
  141.7492   72.3880  221.3790 H   0  0  0  0  0  0  0  0  0  0  0  0
  140.2380   74.7192  221.7469 H   0  0  0  0  0  0  0  0  0  0  0  0
  138.1519   77.9661  222.8057 H   0  0  0  0  0  0  0  0  0  0  0  0
  139.2387   77.8130  224.1364 H   0  0  0  0  0  0  0  0  0  0  0  0
  138.9289   80.6906  221.3637 H   0  0  0  0  0  0  0  0  0  0  0  0
  137.4490   79.8987  221.8541 H   0  0  0  0  0  0  0  0  0  0  0  0
  138.4645   82.6389  222.4790 H   0  0  0  0  0  0  0  0  0  0  0  0
  136.7828   82.0384  222.5175 H   0  0  0  0  0  0  0  0  0  0  0  0
  136.0613   82.4632  224.0735 H   0  0  0  0  0  0  0  0  0  0  0  0
  134.8368   81.1200  225.3250 H   0  0  0  0  0  0  0  0  0  0  0  0
  136.2398   80.0464  225.3053 H   0  0  0  0  0  0  0  0  0  0  0  0
  135.1088   81.4011  227.5618 H   0  0  0  0  0  0  0  0  0  0  0  0
  136.6314   80.4684  227.5366 H   0  0  0  0  0  0  0  0  0  0  0  0
  136.3120   83.2200  227.8260 H   0  0  0  0  0  0  0  0  0  0  0  0
  136.2120   83.9703  225.8378 H   0  0  0  0  0  0  0  0  0  0  0  0
  137.9490   83.5884  225.7880 H   0  0  0  0  0  0  0  0  0  0  0  0
  138.8933   80.2968  225.4600 H   0  0  0  0  0  0  0  0  0  0  0  0
  137.3870   79.7096  224.7583 H   0  0  0  0  0  0  0  0  0  0  0  0
  140.5686   82.0458  224.5484 H   0  0  0  0  0  0  0  0  0  0  0  0
  143.0634   82.1266  224.3332 H   0  0  0  0  0  0  0  0  0  0  0  0
  144.2925   80.3738  223.0977 H   0  0  0  0  0  0  0  0  0  0  0  0
  143.0694   78.4729  222.0299 H   0  0  0  0  0  0  0  0  0  0  0  0
  142.7070   77.3580  219.5800 H   0  0  0  0  0  0  0  0  0  0  0  0
  144.7242   75.4000  218.8165 H   0  0  0  0  0  0  0  0  0  0  0  0
  1  2  1  0
  2  3  2  0
  2  4  1  0
  4  5  2  0
  5  6  1  0
  6  7  2  0
  7  8  1  0
  8  9  2  0
  9 10  1  0
 10 11  2  0
 10 12  1  0
 12 13  1  0
 14 13  1  6
 14 15  1  0
 15 16  1  0
 16 17  1  0
 17 18  1  0
 18 19  1  0
 19 20  1  0
 20 21  1  0
 21 22  1  0
 17 23  1  0
 14 24  1  0
 24 25  2  0
 25 26  1  0
 26 27  2  0
 27 28  1  0
 28 29  2  0
  9 30  1  0
 30 31  1  0
 31 32  2  0
 32  4  1  0
 31  7  1  0
 29 12  1  0
 23 14  1  0
 29 24  1  0
 22 18  1  0
  1 33  1  0
  1 34  1  0
  5 35  1  0
  6 36  1  0
  8 37  1  0
 13 38  1  0
 13 39  1  0
 15 40  1  0
 15 41  1  0
 16 42  1  0
 16 43  1  0
 18 44  1  6
 19 45  1  0
 19 46  1  0
 20 47  1  0
 20 48  1  0
 21 49  1  0
 22 50  1  0
 22 51  1  0
 23 52  1  0
 23 53  1  0
 25 54  1  0
 26 55  1  0
 27 56  1  0
 28 57  1  0
 30 58  1  0
 32 59  1  0
M  END
>  <smiles>  (63) 
NC(=O)c1ccc2cc(C(=O)N3C[C@]4(CCN(C5CCNC5)C4)c4ccccc43)[nH]c2c1

>  <score_type>  (63) 
oracle

>  <origin>  (63) 
autodockgpu

>  <m_score__min__energy>  (63) 
-8.9299999999999997

>  <m_primary>  (63) 
energy

>  <rmsd>  (63) 
7.006477223855401

>  <m_score__min__rmsd>  (63) 
7.006477223855401

>  <meeko>  (63) 
{"free_energy": -8.78, "intermolecular_energy": -9.97, "internal_energy": -1.16, "cluster_size": 27, "cluster_id": 1, "rank_in_cluster": 9}

>  <energy>  (63) 
-8.76

>  <cluster_rmsd>  (63) 
1.42

>  <cluster>  (63) 
1

$$$$

     RDKit          3D

 59 64  0  0  1  0  0  0  0  0999 V2000
  145.4190   71.9780  220.4360 N   0  0  0  0  0  0  0  0  0  0  0  0
  145.1870   72.6920  219.2170 C   0  0  0  0  0  0  0  0  0  0  0  0
  145.9520   72.5710  218.2370 O   0  0  0  0  0  0  0  0  0  0  0  0
  144.0160   73.5910  219.1280 C   0  0  0  0  0  0  0  0  0  0  0  0
  143.3800   73.7460  217.9210 C   0  0  0  0  0  0  0  0  0  0  0  0
  142.2770   74.6040  217.8620 C   0  0  0  0  0  0  0  0  0  0  0  0
  141.8660   75.2600  219.0060 C   0  0  0  0  0  0  0  0  0  0  0  0
  140.8300   76.1320  219.2070 C   0  0  0  0  0  0  0  0  0  0  0  0
  140.8070   76.5380  220.5590 C   0  0  0  0  0  0  0  0  0  0  0  0
  139.8120   77.4500  221.0340 C   0  0  0  0  0  0  0  0  0  0  0  0
  138.7240   77.4900  220.3460 O   0  0  0  0  0  0  0  0  0  0  0  0
  139.8570   78.3070  222.1480 N   0  0  0  0  0  0  0  0  0  0  0  0
  138.7800   78.4360  223.1640 C   0  0  0  0  0  0  0  0  0  0  0  0
  138.7760   79.9480  223.3130 C   0  0  1  0  0  0  0  0  0  0  0  0
  138.0110   80.6010  222.2020 C   0  0  0  0  0  0  0  0  0  0  0  0
  137.6170   81.9190  222.8020 C   0  0  0  0  0  0  0  0  0  0  0  0
  137.7370   81.8120  224.2380 N   0  0  0  0  0  0  0  0  0  0  0  0
  136.5520   82.2600  224.9220 C   0  0  1  0  0  0  0  0  0  0  0  0
  135.6680   81.2150  225.4810 C   0  0  0  0  0  0  0  0  0  0  0  0
  135.8570   81.2900  226.9780 C   0  0  0  0  0  0  0  0  0  0  0  0
  136.7160   82.4150  227.2640 N   0  0  0  0  0  0  0  0  0  0  0  0
  136.9080   83.1600  226.0450 C   0  0  0  0  0  0  0  0  0  0  0  0
  138.0650   80.4360  224.5300 C   0  0  0  0  0  0  0  0  0  0  0  0
  140.2150   80.2220  223.3110 C   0  0  0  0  0  0  0  0  0  0  0  0
  140.9280   81.2530  223.8780 C   0  0  0  0  0  0  0  0  0  0  0  0
  142.3120   81.2380  223.7100 C   0  0  0  0  0  0  0  0  0  0  0  0
  142.9500   80.2240  223.0000 C   0  0  0  0  0  0  0  0  0  0  0  0
  142.2270   79.1890  222.4310 C   0  0  0  0  0  0  0  0  0  0  0  0
  140.8590   79.2080  222.6000 C   0  0  0  0  0  0  0  0  0  0  0  0
  141.8340   75.8880  221.1080 N   0  0  0  0  0  0  0  0  0  0  0  0
  142.4830   75.1240  220.2270 C   0  0  0  0  0  0  0  0  0  0  0  0
  143.5810   74.2620  220.2570 C   0  0  0  0  0  0  0  0  0  0  0  0
  146.3430   71.8870  220.8870 H   0  0  0  0  0  0  0  0  0  0  0  0
  144.5710   71.5330  220.8650 H   0  0  0  0  0  0  0  0  0  0  0  0
  143.7282   73.2104  217.0255 H   0  0  0  0  0  0  0  0  0  0  0  0
  141.7416   74.7550  216.9130 H   0  0  0  0  0  0  0  0  0  0  0  0
  140.1231   76.4656  218.4330 H   0  0  0  0  0  0  0  0  0  0  0  0
  137.8164   78.0551  222.7947 H   0  0  0  0  0  0  0  0  0  0  0  0
  138.9354   77.8688  224.0936 H   0  0  0  0  0  0  0  0  0  0  0  0
  138.6448   80.7431  221.3142 H   0  0  0  0  0  0  0  0  0  0  0  0
  137.1535   80.0062  221.8544 H   0  0  0  0  0  0  0  0  0  0  0  0
  138.2827   82.7119  222.4302 H   0  0  0  0  0  0  0  0  0  0  0  0
  136.5830   82.1707  222.5236 H   0  0  0  0  0  0  0  0  0  0  0  0
  135.9873   82.7587  224.1204 H   0  0  0  0  0  0  0  0  0  0  0  0
  134.6196   81.4147  225.2148 H   0  0  0  0  0  0  0  0  0  0  0  0
  135.9127   80.2177  225.0868 H   0  0  0  0  0  0  0  0  0  0  0  0
  134.8833   81.4292  227.4706 H   0  0  0  0  0  0  0  0  0  0  0  0
  136.3085   80.3597  227.3530 H   0  0  0  0  0  0  0  0  0  0  0  0
  136.2540   83.0830  227.9350 H   0  0  0  0  0  0  0  0  0  0  0  0
  136.2571   84.0468  226.0385 H   0  0  0  0  0  0  0  0  0  0  0  0
  137.9494   83.5029  225.9562 H   0  0  0  0  0  0  0  0  0  0  0  0
  138.7186   80.3722  225.4125 H   0  0  0  0  0  0  0  0  0  0  0  0
  137.1721   79.8355  224.7584 H   0  0  0  0  0  0  0  0  0  0  0  0
  140.4274   82.0552  224.4401 H   0  0  0  0  0  0  0  0  0  0  0  0
  142.9146   82.0468  224.1490 H   0  0  0  0  0  0  0  0  0  0  0  0
  144.0442   80.2455  222.8895 H   0  0  0  0  0  0  0  0  0  0  0  0
  142.7236   78.3852  221.8677 H   0  0  0  0  0  0  0  0  0  0  0  0
  142.0840   75.9840  222.1310 H   0  0  0  0  0  0  0  0  0  0  0  0
  144.1160   74.1120  221.2064 H   0  0  0  0  0  0  0  0  0  0  0  0
  1  2  1  0
  2  3  2  0
  2  4  1  0
  4  5  2  0
  5  6  1  0
  6  7  2  0
  7  8  1  0
  8  9  2  0
  9 10  1  0
 10 11  2  0
 10 12  1  0
 12 13  1  0
 14 13  1  6
 14 15  1  0
 15 16  1  0
 16 17  1  0
 17 18  1  0
 18 19  1  0
 19 20  1  0
 20 21  1  0
 21 22  1  0
 17 23  1  0
 14 24  1  0
 24 25  2  0
 25 26  1  0
 26 27  2  0
 27 28  1  0
 28 29  2  0
  9 30  1  0
 30 31  1  0
 31 32  2  0
 32  4  1  0
 31  7  1  0
 29 12  1  0
 23 14  1  0
 29 24  1  0
 22 18  1  0
  1 33  1  0
  1 34  1  0
  5 35  1  0
  6 36  1  0
  8 37  1  0
 13 38  1  0
 13 39  1  0
 15 40  1  0
 15 41  1  0
 16 42  1  0
 16 43  1  0
 18 44  1  6
 19 45  1  0
 19 46  1  0
 20 47  1  0
 20 48  1  0
 21 49  1  0
 22 50  1  0
 22 51  1  0
 23 52  1  0
 23 53  1  0
 25 54  1  0
 26 55  1  0
 27 56  1  0
 28 57  1  0
 30 58  1  0
 32 59  1  0
M  END
>  <smiles>  (64) 
NC(=O)c1ccc2cc(C(=O)N3C[C@]4(CCN(C5CCNC5)C4)c4ccccc43)[nH]c2c1

>  <score_type>  (64) 
oracle

>  <origin>  (64) 
autodockgpu

>  <m_score__min__energy>  (64) 
-8.9299999999999997

>  <m_primary>  (64) 
energy

>  <rmsd>  (64) 
7.089814978243573

>  <m_score__min__rmsd>  (64) 
7.089814978243573

>  <meeko>  (64) 
{"free_energy": -8.82, "intermolecular_energy": -10.01, "internal_energy": -1.16, "cluster_size": 27, "cluster_id": 1, "rank_in_cluster": 2}

>  <energy>  (64) 
-8.75

>  <cluster_rmsd>  (64) 
0.32

>  <cluster>  (64) 
1

$$$$

     RDKit          3D

 59 64  0  0  1  0  0  0  0  0999 V2000
  140.6990   67.7710  227.9200 N   0  0  0  0  0  0  0  0  0  0  0  0
  139.9200   67.8940  226.7250 C   0  0  0  0  0  0  0  0  0  0  0  0
  139.0990   67.0150  226.3900 O   0  0  0  0  0  0  0  0  0  0  0  0
  140.1010   69.0920  225.8770 C   0  0  0  0  0  0  0  0  0  0  0  0
  141.0330   70.0340  226.2360 C   0  0  0  0  0  0  0  0  0  0  0  0
  141.1830   71.1590  225.4190 C   0  0  0  0  0  0  0  0  0  0  0  0
  140.3980   71.2870  224.2890 C   0  0  0  0  0  0  0  0  0  0  0  0
  140.3580   72.2730  223.3410 C   0  0  0  0  0  0  0  0  0  0  0  0
  139.3870   71.9560  222.3670 C   0  0  0  0  0  0  0  0  0  0  0  0
  139.1490   72.8280  221.2570 C   0  0  0  0  0  0  0  0  0  0  0  0
  139.3850   72.3220  220.0960 O   0  0  0  0  0  0  0  0  0  0  0  0
  138.6920   74.1570  221.2580 N   0  0  0  0  0  0  0  0  0  0  0  0
  139.2410   75.2450  220.4070 C   0  0  0  0  0  0  0  0  0  0  0  0
  139.2820   76.3570  221.4420 C   0  0  1  0  0  0  0  0  0  0  0  0
  140.4880   76.2350  222.3230 C   0  0  0  0  0  0  0  0  0  0  0  0
  140.6760   77.6380  222.8220 C   0  0  0  0  0  0  0  0  0  0  0  0
  139.9500   78.5270  221.9440 N   0  0  0  0  0  0  0  0  0  0  0  0
  140.7590   79.6280  221.4880 C   0  0  1  0  0  0  0  0  0  0  0  0
  140.7770   80.8390  222.3350 C   0  0  0  0  0  0  0  0  0  0  0  0
  142.1450   80.8570  222.9780 C   0  0  0  0  0  0  0  0  0  0  0  0
  142.9140   79.7710  222.4200 N   0  0  0  0  0  0  0  0  0  0  0  0
  142.1700   79.2030  221.3230 C   0  0  0  0  0  0  0  0  0  0  0  0
  139.4390   77.7210  220.8600 C   0  0  0  0  0  0  0  0  0  0  0  0
  138.0020   76.1400  222.1200 C   0  0  0  0  0  0  0  0  0  0  0  0
  137.1860   77.0220  222.7890 C   0  0  0  0  0  0  0  0  0  0  0  0
  136.0060   76.5130  223.3310 C   0  0  0  0  0  0  0  0  0  0  0  0
  135.6650   75.1680  223.2020 C   0  0  0  0  0  0  0  0  0  0  0  0
  136.4910   74.2850  222.5270 C   0  0  0  0  0  0  0  0  0  0  0  0
  137.6550   74.7930  221.9930 C   0  0  0  0  0  0  0  0  0  0  0  0
  138.8870   70.7900  222.7770 N   0  0  0  0  0  0  0  0  0  0  0  0
  139.4570   70.3600  223.9060 C   0  0  0  0  0  0  0  0  0  0  0  0
  139.3290   69.2480  224.7390 C   0  0  0  0  0  0  0  0  0  0  0  0
  141.1730   66.9020  228.2140 H   0  0  0  0  0  0  0  0  0  0  0  0
  140.7660   68.6390  228.5060 H   0  0  0  0  0  0  0  0  0  0  0  0
  141.6449   69.9073  227.1413 H   0  0  0  0  0  0  0  0  0  0  0  0
  141.9195   71.9353  225.6737 H   0  0  0  0  0  0  0  0  0  0  0  0
  140.9870   73.1754  223.3384 H   0  0  0  0  0  0  0  0  0  0  0  0
  140.2425   75.0024  220.0221 H   0  0  0  0  0  0  0  0  0  0  0  0
  138.6677   75.4679  219.4950 H   0  0  0  0  0  0  0  0  0  0  0  0
  140.3027   75.5397  223.1550 H   0  0  0  0  0  0  0  0  0  0  0  0
  141.3704   75.8354  221.8018 H   0  0  0  0  0  0  0  0  0  0  0  0
  140.2856   77.7249  223.8467 H   0  0  0  0  0  0  0  0  0  0  0  0
  141.7444   77.8996  222.8312 H   0  0  0  0  0  0  0  0  0  0  0  0
  140.2710   79.9091  220.5431 H   0  0  0  0  0  0  0  0  0  0  0  0
  140.6277   81.7400  221.7219 H   0  0  0  0  0  0  0  0  0  0  0  0
  139.9721   80.8266  223.0847 H   0  0  0  0  0  0  0  0  0  0  0  0
  142.6439   81.8145  222.7675 H   0  0  0  0  0  0  0  0  0  0  0  0
  142.0564   80.7419  224.0684 H   0  0  0  0  0  0  0  0  0  0  0  0
  143.8140   80.1210  222.0000 H   0  0  0  0  0  0  0  0  0  0  0  0
  142.5664   79.5735  220.3661 H   0  0  0  0  0  0  0  0  0  0  0  0
  142.2512   78.1060  221.3207 H   0  0  0  0  0  0  0  0  0  0  0  0
  138.4698   78.1081  220.5125 H   0  0  0  0  0  0  0  0  0  0  0  0
  140.1083   77.7259  219.9871 H   0  0  0  0  0  0  0  0  0  0  0  0
  137.4528   78.0842  222.8923 H   0  0  0  0  0  0  0  0  0  0  0  0
  135.3285   77.1892  223.8731 H   0  0  0  0  0  0  0  0  0  0  0  0
  134.7259   74.8023  223.6428 H   0  0  0  0  0  0  0  0  0  0  0  0
  136.2286   73.2220  222.4215 H   0  0  0  0  0  0  0  0  0  0  0  0
  138.1260   70.2810  222.2490 H   0  0  0  0  0  0  0  0  0  0  0  0
  138.5924   68.4720  224.4835 H   0  0  0  0  0  0  0  0  0  0  0  0
  1  2  1  0
  2  3  2  0
  2  4  1  0
  4  5  2  0
  5  6  1  0
  6  7  2  0
  7  8  1  0
  8  9  2  0
  9 10  1  0
 10 11  2  0
 10 12  1  0
 12 13  1  0
 14 13  1  6
 14 15  1  0
 15 16  1  0
 16 17  1  0
 17 18  1  0
 18 19  1  0
 19 20  1  0
 20 21  1  0
 21 22  1  0
 17 23  1  0
 14 24  1  0
 24 25  2  0
 25 26  1  0
 26 27  2  0
 27 28  1  0
 28 29  2  0
  9 30  1  0
 30 31  1  0
 31 32  2  0
 32  4  1  0
 31  7  1  0
 29 12  1  0
 23 14  1  0
 29 24  1  0
 22 18  1  0
  1 33  1  0
  1 34  1  0
  5 35  1  0
  6 36  1  0
  8 37  1  0
 13 38  1  0
 13 39  1  0
 15 40  1  0
 15 41  1  0
 16 42  1  0
 16 43  1  0
 18 44  1  6
 19 45  1  0
 19 46  1  0
 20 47  1  0
 20 48  1  0
 21 49  1  0
 22 50  1  0
 22 51  1  0
 23 52  1  0
 23 53  1  0
 25 54  1  0
 26 55  1  0
 27 56  1  0
 28 57  1  0
 30 58  1  0
 32 59  1  0
M  END
>  <smiles>  (65) 
NC(=O)c1ccc2cc(C(=O)N3C[C@]4(CCN(C5CCNC5)C4)c4ccccc43)[nH]c2c1

>  <score_type>  (65) 
oracle

>  <origin>  (65) 
autodockgpu

>  <m_score__min__energy>  (65) 
-8.9299999999999997

>  <m_primary>  (65) 
energy

>  <rmsd>  (65) 
3.2576931253951082

>  <m_score__min__rmsd>  (65) 
3.2576931253951082

>  <meeko>  (65) 
{"free_energy": -8.56, "intermolecular_energy": -9.75, "internal_energy": -1.28, "cluster_size": 10, "cluster_id": 3, "rank_in_cluster": 1}

>  <energy>  (65) 
-8.74

>  <cluster_rmsd>  (65) 
1.01

>  <cluster>  (65) 
1

$$$$

     RDKit          3D

 59 64  0  0  1  0  0  0  0  0999 V2000
  146.0010   73.3800  217.5430 N   0  0  0  0  0  0  0  0  0  0  0  0
  145.5930   72.8450  218.8060 C   0  0  0  0  0  0  0  0  0  0  0  0
  146.2360   71.9310  219.3630 O   0  0  0  0  0  0  0  0  0  0  0  0
  144.3820   73.3920  219.4550 C   0  0  0  0  0  0  0  0  0  0  0  0
  143.5930   72.5620  220.2140 C   0  0  0  0  0  0  0  0  0  0  0  0
  142.4520   73.1030  220.8140 C   0  0  0  0  0  0  0  0  0  0  0  0
  142.1560   74.4390  220.6280 C   0  0  0  0  0  0  0  0  0  0  0  0
  141.1190   75.1940  221.1050 C   0  0  0  0  0  0  0  0  0  0  0  0
  141.2480   76.5220  220.6440 C   0  0  0  0  0  0  0  0  0  0  0  0
  140.2890   77.5210  221.0050 C   0  0  0  0  0  0  0  0  0  0  0  0
  139.3230   77.6890  220.1680 O   0  0  0  0  0  0  0  0  0  0  0  0
  140.2530   78.3420  222.1450 N   0  0  0  0  0  0  0  0  0  0  0  0
  139.1340   78.3920  223.1220 C   0  0  0  0  0  0  0  0  0  0  0  0
  139.0560   79.8960  223.3170 C   0  0  1  0  0  0  0  0  0  0  0  0
  138.3050   80.5510  222.1970 C   0  0  0  0  0  0  0  0  0  0  0  0
  137.8300   81.8310  222.8210 C   0  0  0  0  0  0  0  0  0  0  0  0
  137.9010   81.6820  224.2570 N   0  0  0  0  0  0  0  0  0  0  0  0
  136.6720   82.0560  224.9080 C   0  0  1  0  0  0  0  0  0  0  0  0
  135.9520   80.9910  225.6390 C   0  0  0  0  0  0  0  0  0  0  0  0
  136.1460   81.3110  227.1030 C   0  0  0  0  0  0  0  0  0  0  0  0
  136.8390   82.5740  227.1970 N   0  0  0  0  0  0  0  0  0  0  0  0
  136.9080   83.1520  225.8770 C   0  0  0  0  0  0  0  0  0  0  0  0
  138.2790   80.3130  224.5190 C   0  0  0  0  0  0  0  0  0  0  0  0
  140.4800   80.2330  223.3800 C   0  0  0  0  0  0  0  0  0  0  0  0
  141.1240   81.2750  224.0050 C   0  0  0  0  0  0  0  0  0  0  0  0
  142.5140   81.3260  223.8910 C   0  0  0  0  0  0  0  0  0  0  0  0
  143.2220   80.3640  223.1750 C   0  0  0  0  0  0  0  0  0  0  0  0
  142.5680   79.3170  222.5480 C   0  0  0  0  0  0  0  0  0  0  0  0
  141.1960   79.2710  222.6630 C   0  0  0  0  0  0  0  0  0  0  0  0
  142.3600   76.5020  219.9080 N   0  0  0  0  0  0  0  0  0  0  0  0
  142.9260   75.2930  219.8740 C   0  0  0  0  0  0  0  0  0  0  0  0
  144.0590   74.7270  219.2870 C   0  0  0  0  0  0  0  0  0  0  0  0
  146.3060   72.8050  216.7420 H   0  0  0  0  0  0  0  0  0  0  0  0
  145.9760   74.4270  217.4670 H   0  0  0  0  0  0  0  0  0  0  0  0
  143.8519   71.5011  220.3460 H   0  0  0  0  0  0  0  0  0  0  0  0
  141.7956   72.4699  221.4290 H   0  0  0  0  0  0  0  0  0  0  0  0
  140.3085   74.8226  221.7494 H   0  0  0  0  0  0  0  0  0  0  0  0
  138.2030   77.9814  222.7041 H   0  0  0  0  0  0  0  0  0  0  0  0
  139.2803   77.8030  224.0394 H   0  0  0  0  0  0  0  0  0  0  0  0
  138.9650   80.7489  221.3395 H   0  0  0  0  0  0  0  0  0  0  0  0
  137.4886   79.9310  221.7982 H   0  0  0  0  0  0  0  0  0  0  0  0
  138.4730   82.6637  222.5000 H   0  0  0  0  0  0  0  0  0  0  0  0
  136.7972   82.0470  222.5102 H   0  0  0  0  0  0  0  0  0  0  0  0
  136.0329   82.3480  224.0617 H   0  0  0  0  0  0  0  0  0  0  0  0
  134.8828   81.0015  225.3807 H   0  0  0  0  0  0  0  0  0  0  0  0
  136.3312   79.9903  225.3842 H   0  0  0  0  0  0  0  0  0  0  0  0
  135.1682   81.3840  227.6016 H   0  0  0  0  0  0  0  0  0  0  0  0
  136.7301   80.5179  227.5927 H   0  0  0  0  0  0  0  0  0  0  0  0
  136.2940   83.2620  227.7790 H   0  0  0  0  0  0  0  0  0  0  0  0
  136.1365   83.9279  225.7642 H   0  0  0  0  0  0  0  0  0  0  0  0
  137.8881   83.6212  225.7060 H   0  0  0  0  0  0  0  0  0  0  0  0
  138.9011   80.2491  225.4239 H   0  0  0  0  0  0  0  0  0  0  0  0
  137.4058   79.6672  224.6937 H   0  0  0  0  0  0  0  0  0  0  0  0
  140.5670   82.0362  224.5709 H   0  0  0  0  0  0  0  0  0  0  0  0
  143.0632   82.1452  224.3781 H   0  0  0  0  0  0  0  0  0  0  0  0
  144.3174   80.4370  223.1065 H   0  0  0  0  0  0  0  0  0  0  0  0
  143.1211   78.5534  221.9814 H   0  0  0  0  0  0  0  0  0  0  0  0
  142.7320   77.3610  219.4170 H   0  0  0  0  0  0  0  0  0  0  0  0
  144.7148   75.3613  218.6724 H   0  0  0  0  0  0  0  0  0  0  0  0
  1  2  1  0
  2  3  2  0
  2  4  1  0
  4  5  2  0
  5  6  1  0
  6  7  2  0
  7  8  1  0
  8  9  2  0
  9 10  1  0
 10 11  2  0
 10 12  1  0
 12 13  1  0
 14 13  1  6
 14 15  1  0
 15 16  1  0
 16 17  1  0
 17 18  1  0
 18 19  1  0
 19 20  1  0
 20 21  1  0
 21 22  1  0
 17 23  1  0
 14 24  1  0
 24 25  2  0
 25 26  1  0
 26 27  2  0
 27 28  1  0
 28 29  2  0
  9 30  1  0
 30 31  1  0
 31 32  2  0
 32  4  1  0
 31  7  1  0
 29 12  1  0
 23 14  1  0
 29 24  1  0
 22 18  1  0
  1 33  1  0
  1 34  1  0
  5 35  1  0
  6 36  1  0
  8 37  1  0
 13 38  1  0
 13 39  1  0
 15 40  1  0
 15 41  1  0
 16 42  1  0
 16 43  1  0
 18 44  1  6
 19 45  1  0
 19 46  1  0
 20 47  1  0
 20 48  1  0
 21 49  1  0
 22 50  1  0
 22 51  1  0
 23 52  1  0
 23 53  1  0
 25 54  1  0
 26 55  1  0
 27 56  1  0
 28 57  1  0
 30 58  1  0
 32 59  1  0
M  END
>  <smiles>  (66) 
NC(=O)c1ccc2cc(C(=O)N3C[C@]4(CCN(C5CCNC5)C4)c4ccccc43)[nH]c2c1

>  <score_type>  (66) 
oracle

>  <origin>  (66) 
autodockgpu

>  <m_score__min__energy>  (66) 
-8.9299999999999997

>  <m_primary>  (66) 
energy

>  <rmsd>  (66) 
7.0324569536767765

>  <m_score__min__rmsd>  (66) 
7.0324569536767765

>  <meeko>  (66) 
{"free_energy": -8.77, "intermolecular_energy": -9.97, "internal_energy": -1.16, "cluster_size": 27, "cluster_id": 1, "rank_in_cluster": 10}

>  <energy>  (66) 
-8.73

>  <cluster_rmsd>  (66) 
1.43

>  <cluster>  (66) 
1

$$$$

     RDKit          3D

 59 64  0  0  1  0  0  0  0  0999 V2000
  140.6050   67.8020  227.6920 N   0  0  0  0  0  0  0  0  0  0  0  0
  139.8660   67.9420  226.4740 C   0  0  0  0  0  0  0  0  0  0  0  0
  139.0800   67.0540  226.0850 O   0  0  0  0  0  0  0  0  0  0  0  0
  140.0460   69.1690  225.6680 C   0  0  0  0  0  0  0  0  0  0  0  0
  140.9390   70.1230  226.0890 C   0  0  0  0  0  0  0  0  0  0  0  0
  141.0890   71.2760  225.3120 C   0  0  0  0  0  0  0  0  0  0  0  0
  140.3430   71.4170  224.1570 C   0  0  0  0  0  0  0  0  0  0  0  0
  140.3130   72.4300  223.2380 C   0  0  0  0  0  0  0  0  0  0  0  0
  139.3870   72.1180  222.2180 C   0  0  0  0  0  0  0  0  0  0  0  0
  139.1670   73.0160  221.1260 C   0  0  0  0  0  0  0  0  0  0  0  0
  139.4300   72.5410  219.9580 O   0  0  0  0  0  0  0  0  0  0  0  0
  138.7020   74.3420  221.1510 N   0  0  0  0  0  0  0  0  0  0  0  0
  139.2700   75.4570  220.3480 C   0  0  0  0  0  0  0  0  0  0  0  0
  139.2740   76.5390  221.4140 C   0  0  1  0  0  0  0  0  0  0  0  0
  140.4540   76.3980  222.3280 C   0  0  0  0  0  0  0  0  0  0  0  0
  140.6180   77.7870  222.8710 C   0  0  0  0  0  0  0  0  0  0  0  0
  139.9140   78.6970  221.9970 N   0  0  0  0  0  0  0  0  0  0  0  0
  140.7300   79.8140  221.5970 C   0  0  1  0  0  0  0  0  0  0  0  0
  140.8290   80.9430  222.5460 C   0  0  0  0  0  0  0  0  0  0  0  0
  142.2290   80.8690  223.1100 C   0  0  0  0  0  0  0  0  0  0  0  0
  142.9350   79.8190  222.4160 N   0  0  0  0  0  0  0  0  0  0  0  0
  142.1160   79.3720  221.3160 C   0  0  0  0  0  0  0  0  0  0  0  0
  139.4400   77.9200  220.8760 C   0  0  0  0  0  0  0  0  0  0  0  0
  137.9750   76.2970  222.0470 C   0  0  0  0  0  0  0  0  0  0  0  0
  137.1340   77.1550  222.7160 C   0  0  0  0  0  0  0  0  0  0  0  0
  135.9420   76.6240  223.2080 C   0  0  0  0  0  0  0  0  0  0  0  0
  135.6130   75.2830  223.0310 C   0  0  0  0  0  0  0  0  0  0  0  0
  136.4640   74.4230  222.3570 C   0  0  0  0  0  0  0  0  0  0  0  0
  137.6400   74.9520  221.8720 C   0  0  0  0  0  0  0  0  0  0  0  0
  138.9040   70.9270  222.5750 N   0  0  0  0  0  0  0  0  0  0  0  0
  139.4420   70.4790  223.7120 C   0  0  0  0  0  0  0  0  0  0  0  0
  139.3130   69.3390  224.5070 C   0  0  0  0  0  0  0  0  0  0  0  0
  141.0910   66.9360  227.9770 H   0  0  0  0  0  0  0  0  0  0  0  0
  140.6300   68.6530  228.3060 H   0  0  0  0  0  0  0  0  0  0  0  0
  141.5206   69.9842  227.0123 H   0  0  0  0  0  0  0  0  0  0  0  0
  141.7940   72.0633  225.6171 H   0  0  0  0  0  0  0  0  0  0  0  0
  140.9178   73.3476  223.2861 H   0  0  0  0  0  0  0  0  0  0  0  0
  140.2839   75.2303  219.9865 H   0  0  0  0  0  0  0  0  0  0  0  0
  138.7226   75.7030  219.4261 H   0  0  0  0  0  0  0  0  0  0  0  0
  140.2476   75.6787  223.1342 H   0  0  0  0  0  0  0  0  0  0  0  0
  141.3542   76.0174  221.8233 H   0  0  0  0  0  0  0  0  0  0  0  0
  140.1961   77.8430  223.8853 H   0  0  0  0  0  0  0  0  0  0  0  0
  141.6841   78.0536  222.9196 H   0  0  0  0  0  0  0  0  0  0  0  0
  140.2004   80.1911  220.7097 H   0  0  0  0  0  0  0  0  0  0  0  0
  140.6738   81.8991  222.0247 H   0  0  0  0  0  0  0  0  0  0  0  0
  140.0654   80.8830  223.3355 H   0  0  0  0  0  0  0  0  0  0  0  0
  142.7440   81.8290  222.9575 H   0  0  0  0  0  0  0  0  0  0  0  0
  142.1954   80.6581  224.1891 H   0  0  0  0  0  0  0  0  0  0  0  0
  143.8210   80.1840  221.9790 H   0  0  0  0  0  0  0  0  0  0  0  0
  142.4710   79.8185  220.3755 H   0  0  0  0  0  0  0  0  0  0  0  0
  142.1644   78.2781  221.2111 H   0  0  0  0  0  0  0  0  0  0  0  0
  138.4792   78.3120  220.5112 H   0  0  0  0  0  0  0  0  0  0  0  0
  140.1347   77.9533  220.0238 H   0  0  0  0  0  0  0  0  0  0  0  0
  137.3906   78.2153  222.8571 H   0  0  0  0  0  0  0  0  0  0  0  0
  135.2449   77.2807  223.7490 H   0  0  0  0  0  0  0  0  0  0  0  0
  134.6629   74.9007  223.4325 H   0  0  0  0  0  0  0  0  0  0  0  0
  136.2115   73.3619  222.2148 H   0  0  0  0  0  0  0  0  0  0  0  0
  138.1760   70.4150  222.0040 H   0  0  0  0  0  0  0  0  0  0  0  0
  138.6075   68.5523  224.2013 H   0  0  0  0  0  0  0  0  0  0  0  0
  1  2  1  0
  2  3  2  0
  2  4  1  0
  4  5  2  0
  5  6  1  0
  6  7  2  0
  7  8  1  0
  8  9  2  0
  9 10  1  0
 10 11  2  0
 10 12  1  0
 12 13  1  0
 14 13  1  6
 14 15  1  0
 15 16  1  0
 16 17  1  0
 17 18  1  0
 18 19  1  0
 19 20  1  0
 20 21  1  0
 21 22  1  0
 17 23  1  0
 14 24  1  0
 24 25  2  0
 25 26  1  0
 26 27  2  0
 27 28  1  0
 28 29  2  0
  9 30  1  0
 30 31  1  0
 31 32  2  0
 32  4  1  0
 31  7  1  0
 29 12  1  0
 23 14  1  0
 29 24  1  0
 22 18  1  0
  1 33  1  0
  1 34  1  0
  5 35  1  0
  6 36  1  0
  8 37  1  0
 13 38  1  0
 13 39  1  0
 15 40  1  0
 15 41  1  0
 16 42  1  0
 16 43  1  0
 18 44  1  6
 19 45  1  0
 19 46  1  0
 20 47  1  0
 20 48  1  0
 21 49  1  0
 22 50  1  0
 22 51  1  0
 23 52  1  0
 23 53  1  0
 25 54  1  0
 26 55  1  0
 27 56  1  0
 28 57  1  0
 30 58  1  0
 32 59  1  0
M  END
>  <smiles>  (67) 
NC(=O)c1ccc2cc(C(=O)N3C[C@]4(CCN(C5CCNC5)C4)c4ccccc43)[nH]c2c1

>  <score_type>  (67) 
oracle

>  <origin>  (67) 
autodockgpu

>  <m_score__min__energy>  (67) 
-8.9299999999999997

>  <m_primary>  (67) 
energy

>  <rmsd>  (67) 
3.2247072120792106

>  <m_score__min__rmsd>  (67) 
3.2247072120792106

>  <meeko>  (67) 
{"free_energy": -8.53, "intermolecular_energy": -9.73, "internal_energy": -1.29, "cluster_size": 10, "cluster_id": 3, "rank_in_cluster": 4}

>  <energy>  (67) 
-8.73

>  <cluster_rmsd>  (67) 
0.37

>  <cluster>  (67) 
1

$$$$

     RDKit          3D

 59 64  0  0  1  0  0  0  0  0999 V2000
  135.8610   81.6390  230.5810 N   0  0  0  0  0  0  0  0  0  0  0  0
  134.9240   81.9150  229.5340 C   0  0  0  0  0  0  0  0  0  0  0  0
  133.6930   81.8610  229.7330 O   0  0  0  0  0  0  0  0  0  0  0  0
  135.4370   82.2690  228.1930 C   0  0  0  0  0  0  0  0  0  0  0  0
  135.4180   83.5820  227.7920 C   0  0  0  0  0  0  0  0  0  0  0  0
  135.9050   83.8910  226.5180 C   0  0  0  0  0  0  0  0  0  0  0  0
  136.3860   82.8780  225.7120 C   0  0  0  0  0  0  0  0  0  0  0  0
  136.9130   82.9210  224.4500 C   0  0  0  0  0  0  0  0  0  0  0  0
  137.2710   81.6180  224.0400 C   0  0  0  0  0  0  0  0  0  0  0  0
  137.8520   81.3870  222.7530 C   0  0  0  0  0  0  0  0  0  0  0  0
  137.0460   80.9310  221.8570 O   0  0  0  0  0  0  0  0  0  0  0  0
  139.1770   81.5900  222.3310 N   0  0  0  0  0  0  0  0  0  0  0  0
  139.6080   82.6220  221.3520 C   0  0  0  0  0  0  0  0  0  0  0  0
  140.5790   81.7840  220.5370 C   0  0  1  0  0  0  0  0  0  0  0  0
  139.8550   80.9280  219.5420 C   0  0  0  0  0  0  0  0  0  0  0  0
  140.9060   80.6700  218.5020 C   0  0  0  0  0  0  0  0  0  0  0  0
  141.9470   81.6600  218.6600 N   0  0  0  0  0  0  0  0  0  0  0  0
  142.2760   82.3120  217.4190 C   0  0  1  0  0  0  0  0  0  0  0  0
  142.1120   83.7800  217.3720 C   0  0  0  0  0  0  0  0  0  0  0  0
  143.5150   84.3400  217.3670 C   0  0  0  0  0  0  0  0  0  0  0  0
  144.4370   83.2320  217.2860 N   0  0  0  0  0  0  0  0  0  0  0  0
  143.6810   82.0290  217.0390 C   0  0  0  0  0  0  0  0  0  0  0  0
  141.4960   82.5840  219.6750 C   0  0  0  0  0  0  0  0  0  0  0  0
  141.2570   81.0440  221.6040 C   0  0  0  0  0  0  0  0  0  0  0  0
  142.5210   80.5040  221.6530 C   0  0  0  0  0  0  0  0  0  0  0  0
  142.8920   79.8530  222.8290 C   0  0  0  0  0  0  0  0  0  0  0  0
  142.0210   79.7520  223.9120 C   0  0  0  0  0  0  0  0  0  0  0  0
  140.7490   80.2970  223.8570 C   0  0  0  0  0  0  0  0  0  0  0  0
  140.3880   80.9390  222.6930 C   0  0  0  0  0  0  0  0  0  0  0  0
  136.9410   80.8510  225.0800 N   0  0  0  0  0  0  0  0  0  0  0  0
  136.4170   81.5550  226.0860 C   0  0  0  0  0  0  0  0  0  0  0  0
  135.9250   81.2750  227.3620 C   0  0  0  0  0  0  0  0  0  0  0  0
  135.7780   80.8460  231.2370 H   0  0  0  0  0  0  0  0  0  0  0  0
  136.6670   82.3060  230.6520 H   0  0  0  0  0  0  0  0  0  0  0  0
  135.0302   84.3695  228.4549 H   0  0  0  0  0  0  0  0  0  0  0  0
  135.9049   84.9315  226.1611 H   0  0  0  0  0  0  0  0  0  0  0  0
  137.0387   83.8321  223.8466 H   0  0  0  0  0  0  0  0  0  0  0  0
  138.7686   82.9896  220.7434 H   0  0  0  0  0  0  0  0  0  0  0  0
  140.0259   83.5420  221.7868 H   0  0  0  0  0  0  0  0  0  0  0  0
  139.5126   79.9890  220.0014 H   0  0  0  0  0  0  0  0  0  0  0  0
  138.9478   81.4008  219.1378 H   0  0  0  0  0  0  0  0  0  0  0  0
  141.3259   79.6625  218.6383 H   0  0  0  0  0  0  0  0  0  0  0  0
  140.4690   80.7342  217.4946 H   0  0  0  0  0  0  0  0  0  0  0  0
  141.5379   81.8876  216.7226 H   0  0  0  0  0  0  0  0  0  0  0  0
  141.5752   84.0783  216.4594 H   0  0  0  0  0  0  0  0  0  0  0  0
  141.5252   84.1537  218.2240 H   0  0  0  0  0  0  0  0  0  0  0  0
  143.6497   85.0020  216.4989 H   0  0  0  0  0  0  0  0  0  0  0  0
  143.6972   84.9228  218.2820 H   0  0  0  0  0  0  0  0  0  0  0  0
  145.0820   83.3350  216.4590 H   0  0  0  0  0  0  0  0  0  0  0  0
  143.7370   81.7600  215.9739 H   0  0  0  0  0  0  0  0  0  0  0  0
  144.0826   81.1872  217.6222 H   0  0  0  0  0  0  0  0  0  0  0  0
  142.3469   82.9622  220.2606 H   0  0  0  0  0  0  0  0  0  0  0  0
  140.9978   83.4646  219.2434 H   0  0  0  0  0  0  0  0  0  0  0  0
  143.2108   80.5824  220.7997 H   0  0  0  0  0  0  0  0  0  0  0  0
  143.8956   79.4088  222.9035 H   0  0  0  0  0  0  0  0  0  0  0  0
  142.3486   79.2317  224.8241 H   0  0  0  0  0  0  0  0  0  0  0  0
  140.0557   80.2204  224.7076 H   0  0  0  0  0  0  0  0  0  0  0  0
  137.0890   79.8040  225.0830 H   0  0  0  0  0  0  0  0  0  0  0  0
  135.9250   80.2341  227.7177 H   0  0  0  0  0  0  0  0  0  0  0  0
  1  2  1  0
  2  3  2  0
  2  4  1  0
  4  5  2  0
  5  6  1  0
  6  7  2  0
  7  8  1  0
  8  9  2  0
  9 10  1  0
 10 11  2  0
 10 12  1  0
 12 13  1  0
 14 13  1  1
 14 15  1  0
 15 16  1  0
 16 17  1  0
 17 18  1  0
 18 19  1  0
 19 20  1  0
 20 21  1  0
 21 22  1  0
 17 23  1  0
 14 24  1  0
 24 25  2  0
 25 26  1  0
 26 27  2  0
 27 28  1  0
 28 29  2  0
  9 30  1  0
 30 31  1  0
 31 32  2  0
 32  4  1  0
 31  7  1  0
 29 12  1  0
 23 14  1  0
 29 24  1  0
 22 18  1  0
  1 33  1  0
  1 34  1  0
  5 35  1  0
  6 36  1  0
  8 37  1  0
 13 38  1  0
 13 39  1  0
 15 40  1  0
 15 41  1  0
 16 42  1  0
 16 43  1  0
 18 44  1  6
 19 45  1  0
 19 46  1  0
 20 47  1  0
 20 48  1  0
 21 49  1  0
 22 50  1  0
 22 51  1  0
 23 52  1  0
 23 53  1  0
 25 54  1  0
 26 55  1  0
 27 56  1  0
 28 57  1  0
 30 58  1  0
 32 59  1  0
M  END
>  <smiles>  (68) 
NC(=O)c1ccc2cc(C(=O)N3C[C@]4(CCN(C5CCNC5)C4)c4ccccc43)[nH]c2c1

>  <score_type>  (68) 
oracle

>  <origin>  (68) 
autodockgpu

>  <m_score__min__energy>  (68) 
-8.9299999999999997

>  <m_primary>  (68) 
energy

>  <rmsd>  (68) 
9.824094922555396

>  <m_score__min__rmsd>  (68) 
9.824094922555396

>  <meeko>  (68) 
{"free_energy": -8.55, "intermolecular_energy": -9.74, "internal_energy": -1.15, "cluster_size": 1, "cluster_id": 4, "rank_in_cluster": 1}

>  <energy>  (68) 
-8.64

>  <cluster_rmsd>  (68) 
0.94

>  <cluster>  (68) 
1

$$$$

     RDKit          3D

 59 64  0  0  1  0  0  0  0  0999 V2000
  136.0040   81.3940  230.4360 N   0  0  0  0  0  0  0  0  0  0  0  0
  134.9230   81.6600  229.5360 C   0  0  0  0  0  0  0  0  0  0  0  0
  133.8160   82.0640  229.9500 O   0  0  0  0  0  0  0  0  0  0  0  0
  135.1320   81.4490  228.0870 C   0  0  0  0  0  0  0  0  0  0  0  0
  134.1380   80.8600  227.3440 C   0  0  0  0  0  0  0  0  0  0  0  0
  134.3620   80.6680  225.9770 C   0  0  0  0  0  0  0  0  0  0  0  0
  135.5610   81.0710  225.4220 C   0  0  0  0  0  0  0  0  0  0  0  0
  136.0110   81.0000  224.1320 C   0  0  0  0  0  0  0  0  0  0  0  0
  137.3100   81.5490  224.0520 C   0  0  0  0  0  0  0  0  0  0  0  0
  138.0090   81.6000  222.8050 C   0  0  0  0  0  0  0  0  0  0  0  0
  137.5860   82.4850  221.9690 O   0  0  0  0  0  0  0  0  0  0  0  0
  139.0950   80.8220  222.3660 N   0  0  0  0  0  0  0  0  0  0  0  0
  139.0610   79.8940  221.2060 C   0  0  0  0  0  0  0  0  0  0  0  0
  139.8140   78.7240  221.8160 C   0  0  1  0  0  0  0  0  0  0  0  0
  138.9210   77.9000  222.6920 C   0  0  0  0  0  0  0  0  0  0  0  0
  139.6070   76.5650  222.7010 C   0  0  0  0  0  0  0  0  0  0  0  0
  140.5140   76.5200  221.5770 N   0  0  0  0  0  0  0  0  0  0  0  0
  140.3470   75.3280  220.7860 C   0  0  1  0  0  0  0  0  0  0  0  0
  141.5790   74.6210  220.3750 C   0  0  0  0  0  0  0  0  0  0  0  0
  141.6140   73.3620  221.2100 C   0  0  0  0  0  0  0  0  0  0  0  0
  140.3900   73.2960  221.9710 N   0  0  0  0  0  0  0  0  0  0  0  0
  139.5090   74.3390  221.5050 C   0  0  0  0  0  0  0  0  0  0  0  0
  140.3020   77.7300  220.8180 C   0  0  0  0  0  0  0  0  0  0  0  0
  140.8830   79.4340  222.5240 C   0  0  0  0  0  0  0  0  0  0  0  0
  142.1520   79.0270  222.8640 C   0  0  0  0  0  0  0  0  0  0  0  0
  142.9560   79.9440  223.5400 C   0  0  0  0  0  0  0  0  0  0  0  0
  142.4970   81.2190  223.8600 C   0  0  0  0  0  0  0  0  0  0  0  0
  141.2180   81.6230  223.5170 C   0  0  0  0  0  0  0  0  0  0  0  0
  140.4270   80.7140  222.8480 C   0  0  0  0  0  0  0  0  0  0  0  0
  137.5780   81.9260  225.3030 N   0  0  0  0  0  0  0  0  0  0  0  0
  136.5730   81.6620  226.1410 C   0  0  0  0  0  0  0  0  0  0  0  0
  136.3230   81.8420  227.5030 C   0  0  0  0  0  0  0  0  0  0  0  0
  135.9010   80.8820  231.3270 H   0  0  0  0  0  0  0  0  0  0  0  0
  136.9410   81.7570  230.1350 H   0  0  0  0  0  0  0  0  0  0  0  0
  133.1923   80.5481  227.8112 H   0  0  0  0  0  0  0  0  0  0  0  0
  133.5897   80.1999  225.3489 H   0  0  0  0  0  0  0  0  0  0  0  0
  135.4473   80.5795  223.2862 H   0  0  0  0  0  0  0  0  0  0  0  0
  138.0328   79.6217  220.9256 H   0  0  0  0  0  0  0  0  0  0  0  0
  139.4811   80.2908  220.2700 H   0  0  0  0  0  0  0  0  0  0  0  0
  138.8613   78.3220  223.7061 H   0  0  0  0  0  0  0  0  0  0  0  0
  137.8816   77.8539  222.3350 H   0  0  0  0  0  0  0  0  0  0  0  0
  140.1685   76.4404  223.6387 H   0  0  0  0  0  0  0  0  0  0  0  0
  138.8665   75.7550  222.6264 H   0  0  0  0  0  0  0  0  0  0  0  0
  139.8809   75.7139  219.8674 H   0  0  0  0  0  0  0  0  0  0  0  0
  141.5414   74.3722  219.3042 H   0  0  0  0  0  0  0  0  0  0  0  0
  142.4763   75.2388  220.5270 H   0  0  0  0  0  0  0  0  0  0  0  0
  141.6939   72.4820  220.5549 H   0  0  0  0  0  0  0  0  0  0  0  0
  142.4826   73.3757  221.8848 H   0  0  0  0  0  0  0  0  0  0  0  0
  139.8790   72.3930  221.7890 H   0  0  0  0  0  0  0  0  0  0  0  0
  138.7535   73.9189  220.8247 H   0  0  0  0  0  0  0  0  0  0  0  0
  138.9813   74.8111  222.3468 H   0  0  0  0  0  0  0  0  0  0  0  0
  141.2425   78.0702  220.3601 H   0  0  0  0  0  0  0  0  0  0  0  0
  139.5883   77.5839  219.9938 H   0  0  0  0  0  0  0  0  0  0  0  0
  142.5174   78.0202  222.6131 H   0  0  0  0  0  0  0  0  0  0  0  0
  143.9772   79.6532  223.8273 H   0  0  0  0  0  0  0  0  0  0  0  0
  143.1605   81.9157  224.3933 H   0  0  0  0  0  0  0  0  0  0  0  0
  140.8483   82.6281  223.7681 H   0  0  0  0  0  0  0  0  0  0  0  0
  138.4930   82.3810  225.5750 H   0  0  0  0  0  0  0  0  0  0  0  0
  137.0960   82.3102  228.1302 H   0  0  0  0  0  0  0  0  0  0  0  0
  1  2  1  0
  2  3  2  0
  2  4  1  0
  4  5  2  0
  5  6  1  0
  6  7  2  0
  7  8  1  0
  8  9  2  0
  9 10  1  0
 10 11  2  0
 10 12  1  0
 12 13  1  0
 14 13  1  6
 14 15  1  0
 15 16  1  0
 16 17  1  0
 17 18  1  0
 18 19  1  0
 19 20  1  0
 20 21  1  0
 21 22  1  0
 17 23  1  0
 14 24  1  0
 24 25  2  0
 25 26  1  0
 26 27  2  0
 27 28  1  0
 28 29  2  0
  9 30  1  0
 30 31  1  0
 31 32  2  0
 32  4  1  0
 31  7  1  0
 29 12  1  0
 23 14  1  0
 29 24  1  0
 22 18  1  0
  1 33  1  0
  1 34  1  0
  5 35  1  0
  6 36  1  0
  8 37  1  0
 13 38  1  0
 13 39  1  0
 15 40  1  0
 15 41  1  0
 16 42  1  0
 16 43  1  0
 18 44  1  6
 19 45  1  0
 19 46  1  0
 20 47  1  0
 20 48  1  0
 21 49  1  0
 22 50  1  0
 22 51  1  0
 23 52  1  0
 23 53  1  0
 25 54  1  0
 26 55  1  0
 27 56  1  0
 28 57  1  0
 30 58  1  0
 32 59  1  0
M  END
>  <smiles>  (69) 
NC(=O)c1ccc2cc(C(=O)N3C[C@]4(CCN(C5CCNC5)C4)c4ccccc43)[nH]c2c1

>  <score_type>  (69) 
oracle

>  <origin>  (69) 
autodockgpu

>  <m_score__min__energy>  (69) 
-8.9299999999999997

>  <m_primary>  (69) 
energy

>  <rmsd>  (69) 
9.348286538837158

>  <m_score__min__rmsd>  (69) 
9.348286538837158

>  <meeko>  (69) 
{"free_energy": -8.66, "intermolecular_energy": -9.85, "internal_energy": -1.18, "cluster_size": 12, "cluster_id": 2, "rank_in_cluster": 5}

>  <energy>  (69) 
-8.63

>  <cluster_rmsd>  (69) 
1.55

>  <cluster>  (69) 
1

$$$$

     RDKit          3D

 59 64  0  0  1  0  0  0  0  0999 V2000
  135.9950   81.3970  230.4010 N   0  0  0  0  0  0  0  0  0  0  0  0
  134.9050   81.6510  229.5090 C   0  0  0  0  0  0  0  0  0  0  0  0
  133.7970   82.0410  229.9320 O   0  0  0  0  0  0  0  0  0  0  0  0
  135.1050   81.4420  228.0590 C   0  0  0  0  0  0  0  0  0  0  0  0
  134.0940   80.8850  227.3150 C   0  0  0  0  0  0  0  0  0  0  0  0
  134.3100   80.6950  225.9460 C   0  0  0  0  0  0  0  0  0  0  0  0
  135.5180   81.0690  225.3910 C   0  0  0  0  0  0  0  0  0  0  0  0
  135.9640   80.9940  224.0990 C   0  0  0  0  0  0  0  0  0  0  0  0
  137.2760   81.5080  224.0200 C   0  0  0  0  0  0  0  0  0  0  0  0
  137.9750   81.5470  222.7710 C   0  0  0  0  0  0  0  0  0  0  0  0
  137.5320   82.4040  221.9170 O   0  0  0  0  0  0  0  0  0  0  0  0
  139.0770   80.7840  222.3490 N   0  0  0  0  0  0  0  0  0  0  0  0
  139.0700   79.8490  221.1940 C   0  0  0  0  0  0  0  0  0  0  0  0
  139.8350   78.6950  221.8180 C   0  0  1  0  0  0  0  0  0  0  0  0
  138.9440   77.8610  222.6890 C   0  0  0  0  0  0  0  0  0  0  0  0
  139.6510   76.5370  222.7130 C   0  0  0  0  0  0  0  0  0  0  0  0
  140.5720   76.5000  221.5990 N   0  0  0  0  0  0  0  0  0  0  0  0
  140.4320   75.3020  220.8130 C   0  0  1  0  0  0  0  0  0  0  0  0
  141.6790   74.6350  220.3830 C   0  0  0  0  0  0  0  0  0  0  0  0
  141.7710   73.3800  221.2200 C   0  0  0  0  0  0  0  0  0  0  0  0
  140.5620   73.2750  222.0010 N   0  0  0  0  0  0  0  0  0  0  0  0
  139.6390   74.2870  221.5470 C   0  0  0  0  0  0  0  0  0  0  0  0
  140.3490   77.7030  220.8310 C   0  0  0  0  0  0  0  0  0  0  0  0
  140.8840   79.4240  222.5340 C   0  0  0  0  0  0  0  0  0  0  0  0
  142.1560   79.0390  222.8900 C   0  0  0  0  0  0  0  0  0  0  0  0
  142.9380   79.9720  223.5700 C   0  0  0  0  0  0  0  0  0  0  0  0
  142.4560   81.2420  223.8780 C   0  0  0  0  0  0  0  0  0  0  0  0
  141.1750   81.6240  223.5180 C   0  0  0  0  0  0  0  0  0  0  0  0
  140.4060   80.6990  222.8460 C   0  0  0  0  0  0  0  0  0  0  0  0
  137.5580   81.8690  225.2720 N   0  0  0  0  0  0  0  0  0  0  0  0
  136.5480   81.6280  226.1110 C   0  0  0  0  0  0  0  0  0  0  0  0
  136.3050   81.8070  227.4740 C   0  0  0  0  0  0  0  0  0  0  0  0
  135.9060   80.8830  231.2920 H   0  0  0  0  0  0  0  0  0  0  0  0
  136.9260   81.7710  230.0930 H   0  0  0  0  0  0  0  0  0  0  0  0
  133.1410   80.5963  227.7825 H   0  0  0  0  0  0  0  0  0  0  0  0
  133.5242   80.2514  225.3169 H   0  0  0  0  0  0  0  0  0  0  0  0
  135.3877   80.5941  223.2516 H   0  0  0  0  0  0  0  0  0  0  0  0
  138.0493   79.5586  220.9046 H   0  0  0  0  0  0  0  0  0  0  0  0
  139.4935   80.2474  220.2602 H   0  0  0  0  0  0  0  0  0  0  0  0
  138.8659   78.2873  223.7000 H   0  0  0  0  0  0  0  0  0  0  0  0
  137.9096   77.7967  222.3205 H   0  0  0  0  0  0  0  0  0  0  0  0
  140.2036   76.4264  223.6576 H   0  0  0  0  0  0  0  0  0  0  0  0
  138.9242   75.7151  222.6344 H   0  0  0  0  0  0  0  0  0  0  0  0
  139.9388   75.6710  219.9017 H   0  0  0  0  0  0  0  0  0  0  0  0
  141.6312   74.3819  219.3136 H   0  0  0  0  0  0  0  0  0  0  0  0
  142.5576   75.2829  220.5185 H   0  0  0  0  0  0  0  0  0  0  0  0
  141.8701   72.5014  220.5657 H   0  0  0  0  0  0  0  0  0  0  0  0
  142.6497   73.4247  221.8803 H   0  0  0  0  0  0  0  0  0  0  0  0
  140.0790   72.3550  221.8280 H   0  0  0  0  0  0  0  0  0  0  0  0
  138.8875   73.8402  220.8795 H   0  0  0  0  0  0  0  0  0  0  0  0
  139.1090   74.7431  222.3962 H   0  0  0  0  0  0  0  0  0  0  0  0
  141.2889   78.0553  220.3811 H   0  0  0  0  0  0  0  0  0  0  0  0
  139.6461   77.5411  220.0005 H   0  0  0  0  0  0  0  0  0  0  0  0
  142.5401   78.0370  222.6483 H   0  0  0  0  0  0  0  0  0  0  0  0
  143.9602   79.6984  223.8704 H   0  0  0  0  0  0  0  0  0  0  0  0
  143.1025   81.9517  224.4150 H   0  0  0  0  0  0  0  0  0  0  0  0
  140.7870   82.6248  223.7585 H   0  0  0  0  0  0  0  0  0  0  0  0
  138.4850   82.2980  225.5450 H   0  0  0  0  0  0  0  0  0  0  0  0
  137.0911   82.2516  228.1020 H   0  0  0  0  0  0  0  0  0  0  0  0
  1  2  1  0
  2  3  2  0
  2  4  1  0
  4  5  2  0
  5  6  1  0
  6  7  2  0
  7  8  1  0
  8  9  2  0
  9 10  1  0
 10 11  2  0
 10 12  1  0
 12 13  1  0
 14 13  1  6
 14 15  1  0
 15 16  1  0
 16 17  1  0
 17 18  1  0
 18 19  1  0
 19 20  1  0
 20 21  1  0
 21 22  1  0
 17 23  1  0
 14 24  1  0
 24 25  2  0
 25 26  1  0
 26 27  2  0
 27 28  1  0
 28 29  2  0
  9 30  1  0
 30 31  1  0
 31 32  2  0
 32  4  1  0
 31  7  1  0
 29 12  1  0
 23 14  1  0
 29 24  1  0
 22 18  1  0
  1 33  1  0
  1 34  1  0
  5 35  1  0
  6 36  1  0
  8 37  1  0
 13 38  1  0
 13 39  1  0
 15 40  1  0
 15 41  1  0
 16 42  1  0
 16 43  1  0
 18 44  1  6
 19 45  1  0
 19 46  1  0
 20 47  1  0
 20 48  1  0
 21 49  1  0
 22 50  1  0
 22 51  1  0
 23 52  1  0
 23 53  1  0
 25 54  1  0
 26 55  1  0
 27 56  1  0
 28 57  1  0
 30 58  1  0
 32 59  1  0
M  END
>  <smiles>  (70) 
NC(=O)c1ccc2cc(C(=O)N3C[C@]4(CCN(C5CCNC5)C4)c4ccccc43)[nH]c2c1

>  <score_type>  (70) 
oracle

>  <origin>  (70) 
autodockgpu

>  <m_score__min__energy>  (70) 
-8.9299999999999997

>  <m_primary>  (70) 
energy

>  <rmsd>  (70) 
9.338194266051346

>  <m_score__min__rmsd>  (70) 
9.338194266051346

>  <meeko>  (70) 
{"free_energy": -8.64, "intermolecular_energy": -9.83, "internal_energy": -1.17, "cluster_size": 12, "cluster_id": 2, "rank_in_cluster": 7}

>  <energy>  (70) 
-8.62

>  <cluster_rmsd>  (70) 
0.98

>  <cluster>  (70) 
1

$$$$

     RDKit          3D

 59 64  0  0  1  0  0  0  0  0999 V2000
  145.9900   73.3680  217.5850 N   0  0  0  0  0  0  0  0  0  0  0  0
  145.5480   72.8380  218.8400 C   0  0  0  0  0  0  0  0  0  0  0  0
  146.1610   71.9080  219.4050 O   0  0  0  0  0  0  0  0  0  0  0  0
  144.3390   73.4110  219.4700 C   0  0  0  0  0  0  0  0  0  0  0  0
  143.5110   72.5930  220.2000 C   0  0  0  0  0  0  0  0  0  0  0  0
  142.3720   73.1580  220.7820 C   0  0  0  0  0  0  0  0  0  0  0  0
  142.1180   74.5040  220.6090 C   0  0  0  0  0  0  0  0  0  0  0  0
  141.0930   75.2820  221.0740 C   0  0  0  0  0  0  0  0  0  0  0  0
  141.2690   76.6120  220.6340 C   0  0  0  0  0  0  0  0  0  0  0  0
  140.3310   77.6330  220.9880 C   0  0  0  0  0  0  0  0  0  0  0  0
  139.4060   77.8600  220.1190 O   0  0  0  0  0  0  0  0  0  0  0  0
  140.2760   78.4200  222.1510 N   0  0  0  0  0  0  0  0  0  0  0  0
  139.1360   78.4490  223.1050 C   0  0  0  0  0  0  0  0  0  0  0  0
  139.0650   79.9480  223.3430 C   0  0  1  0  0  0  0  0  0  0  0  0
  138.3440   80.6420  222.2270 C   0  0  0  0  0  0  0  0  0  0  0  0
  137.8660   81.9060  222.8790 C   0  0  0  0  0  0  0  0  0  0  0  0
  137.9040   81.7140  224.3120 N   0  0  0  0  0  0  0  0  0  0  0  0
  136.6630   82.0790  224.9460 C   0  0  1  0  0  0  0  0  0  0  0  0
  135.9200   80.9990  225.6280 C   0  0  0  0  0  0  0  0  0  0  0  0
  136.0840   81.2710  227.1050 C   0  0  0  0  0  0  0  0  0  0  0  0
  136.7840   82.5250  227.2530 N   0  0  0  0  0  0  0  0  0  0  0  0
  136.8870   83.1430  225.9540 C   0  0  0  0  0  0  0  0  0  0  0  0
  138.2650   80.3350  224.5400 C   0  0  0  0  0  0  0  0  0  0  0  0
  140.4900   80.2710  223.4470 C   0  0  0  0  0  0  0  0  0  0  0  0
  141.1290   81.2890  224.1170 C   0  0  0  0  0  0  0  0  0  0  0  0
  142.5210   81.3310  224.0350 C   0  0  0  0  0  0  0  0  0  0  0  0
  143.2370   80.3850  223.3060 C   0  0  0  0  0  0  0  0  0  0  0  0
  142.5890   79.3630  222.6330 C   0  0  0  0  0  0  0  0  0  0  0  0
  141.2140   79.3250  222.7170 C   0  0  0  0  0  0  0  0  0  0  0  0
  142.3960   76.5700  219.9220 N   0  0  0  0  0  0  0  0  0  0  0  0
  142.9290   75.3460  219.8840 C   0  0  0  0  0  0  0  0  0  0  0  0
  144.0580   74.7560  219.3140 C   0  0  0  0  0  0  0  0  0  0  0  0
  146.2960   72.7880  216.7880 H   0  0  0  0  0  0  0  0  0  0  0  0
  145.9900   74.4140  217.5130 H   0  0  0  0  0  0  0  0  0  0  0  0
  143.7377   71.5237  220.3232 H   0  0  0  0  0  0  0  0  0  0  0  0
  141.6841   72.5353  221.3727 H   0  0  0  0  0  0  0  0  0  0  0  0
  140.2587   74.9255  221.6960 H   0  0  0  0  0  0  0  0  0  0  0  0
  138.2114   78.0583  222.6551 H   0  0  0  0  0  0  0  0  0  0  0  0
  139.2577   77.8315  224.0072 H   0  0  0  0  0  0  0  0  0  0  0  0
  139.0241   80.8599  221.3903 H   0  0  0  0  0  0  0  0  0  0  0  0
  137.5319   80.0412  221.7917 H   0  0  0  0  0  0  0  0  0  0  0  0
  138.5226   82.7423  222.5972 H   0  0  0  0  0  0  0  0  0  0  0  0
  136.8418   82.1397  222.5526 H   0  0  0  0  0  0  0  0  0  0  0  0
  136.0448   82.4023  224.0955 H   0  0  0  0  0  0  0  0  0  0  0  0
  134.8568   81.0264  225.3472 H   0  0  0  0  0  0  0  0  0  0  0  0
  136.2977   80.0038  225.3506 H   0  0  0  0  0  0  0  0  0  0  0  0
  135.0961   81.3361  227.5845 H   0  0  0  0  0  0  0  0  0  0  0  0
  136.6511   80.4583  227.5824 H   0  0  0  0  0  0  0  0  0  0  0  0
  136.2320   83.2000  227.8440 H   0  0  0  0  0  0  0  0  0  0  0  0
  136.1248   83.9291  225.8486 H   0  0  0  0  0  0  0  0  0  0  0  0
  137.8745   83.6085  225.8191 H   0  0  0  0  0  0  0  0  0  0  0  0
  138.8664   80.2382  225.4559 H   0  0  0  0  0  0  0  0  0  0  0  0
  137.3830   79.6918  224.6757 H   0  0  0  0  0  0  0  0  0  0  0  0
  140.5659   82.0381  224.6930 H   0  0  0  0  0  0  0  0  0  0  0  0
  143.0659   82.1303  224.5586 H   0  0  0  0  0  0  0  0  0  0  0  0
  144.3342   80.4506  223.2641 H   0  0  0  0  0  0  0  0  0  0  0  0
  143.1486   78.6126  222.0553 H   0  0  0  0  0  0  0  0  0  0  0  0
  142.8030   77.4250  219.4520 H   0  0  0  0  0  0  0  0  0  0  0  0
  144.7449   75.3795  218.7229 H   0  0  0  0  0  0  0  0  0  0  0  0
  1  2  1  0
  2  3  2  0
  2  4  1  0
  4  5  2  0
  5  6  1  0
  6  7  2  0
  7  8  1  0
  8  9  2  0
  9 10  1  0
 10 11  2  0
 10 12  1  0
 12 13  1  0
 14 13  1  6
 14 15  1  0
 15 16  1  0
 16 17  1  0
 17 18  1  0
 18 19  1  0
 19 20  1  0
 20 21  1  0
 21 22  1  0
 17 23  1  0
 14 24  1  0
 24 25  2  0
 25 26  1  0
 26 27  2  0
 27 28  1  0
 28 29  2  0
  9 30  1  0
 30 31  1  0
 31 32  2  0
 32  4  1  0
 31  7  1  0
 29 12  1  0
 23 14  1  0
 29 24  1  0
 22 18  1  0
  1 33  1  0
  1 34  1  0
  5 35  1  0
  6 36  1  0
  8 37  1  0
 13 38  1  0
 13 39  1  0
 15 40  1  0
 15 41  1  0
 16 42  1  0
 16 43  1  0
 18 44  1  6
 19 45  1  0
 19 46  1  0
 20 47  1  0
 20 48  1  0
 21 49  1  0
 22 50  1  0
 22 51  1  0
 23 52  1  0
 23 53  1  0
 25 54  1  0
 26 55  1  0
 27 56  1  0
 28 57  1  0
 30 58  1  0
 32 59  1  0
M  END
>  <smiles>  (71) 
NC(=O)c1ccc2cc(C(=O)N3C[C@]4(CCN(C5CCNC5)C4)c4ccccc43)[nH]c2c1

>  <score_type>  (71) 
oracle

>  <origin>  (71) 
autodockgpu

>  <m_score__min__energy>  (71) 
-8.9299999999999997

>  <m_primary>  (71) 
energy

>  <rmsd>  (71) 
7.059663275284791

>  <m_score__min__rmsd>  (71) 
7.059663275284791

>  <meeko>  (71) 
{"free_energy": -8.77, "intermolecular_energy": -9.96, "internal_energy": -1.15, "cluster_size": 27, "cluster_id": 1, "rank_in_cluster": 11}

>  <energy>  (71) 
-8.57

>  <cluster_rmsd>  (71) 
1.17

>  <cluster>  (71) 
1

$$$$

     RDKit          3D

 59 64  0  0  1  0  0  0  0  0999 V2000
  140.6270   67.8210  227.6320 N   0  0  0  0  0  0  0  0  0  0  0  0
  139.8300   68.0150  226.4580 C   0  0  0  0  0  0  0  0  0  0  0  0
  138.9810   67.1720  226.1020 O   0  0  0  0  0  0  0  0  0  0  0  0
  140.0250   69.2440  225.6590 C   0  0  0  0  0  0  0  0  0  0  0  0
  140.9340   70.1830  226.0820 C   0  0  0  0  0  0  0  0  0  0  0  0
  141.0980   71.3380  225.3110 C   0  0  0  0  0  0  0  0  0  0  0  0
  140.3510   71.4970  224.1600 C   0  0  0  0  0  0  0  0  0  0  0  0
  140.3320   72.5150  223.2470 C   0  0  0  0  0  0  0  0  0  0  0  0
  139.3980   72.2230  222.2290 C   0  0  0  0  0  0  0  0  0  0  0  0
  139.1870   73.1310  221.1430 C   0  0  0  0  0  0  0  0  0  0  0  0
  139.4720   72.6700  219.9740 O   0  0  0  0  0  0  0  0  0  0  0  0
  138.7120   74.4530  221.1740 N   0  0  0  0  0  0  0  0  0  0  0  0
  139.2920   75.5830  220.4010 C   0  0  0  0  0  0  0  0  0  0  0  0
  139.2610   76.6500  221.4820 C   0  0  1  0  0  0  0  0  0  0  0  0
  140.4180   76.5050  222.4220 C   0  0  0  0  0  0  0  0  0  0  0  0
  140.5590   77.8870  222.9890 C   0  0  0  0  0  0  0  0  0  0  0  0
  139.8690   78.8050  222.1100 N   0  0  0  0  0  0  0  0  0  0  0  0
  140.6860   79.9330  221.7450 C   0  0  1  0  0  0  0  0  0  0  0  0
  140.8850   80.9740  222.7760 C   0  0  0  0  0  0  0  0  0  0  0  0
  142.3190   80.8210  223.2280 C   0  0  0  0  0  0  0  0  0  0  0  0
  142.9440   79.8180  222.3980 N   0  0  0  0  0  0  0  0  0  0  0  0
  142.0360   79.4850  221.3280 C   0  0  0  0  0  0  0  0  0  0  0  0
  139.4290   78.0390  220.9670 C   0  0  0  0  0  0  0  0  0  0  0  0
  137.9490   76.3890  222.0790 C   0  0  0  0  0  0  0  0  0  0  0  0
  137.0850   77.2320  222.7390 C   0  0  0  0  0  0  0  0  0  0  0  0
  135.8850   76.6860  223.1940 C   0  0  0  0  0  0  0  0  0  0  0  0
  135.5700   75.3450  222.9900 C   0  0  0  0  0  0  0  0  0  0  0  0
  136.4440   74.5010  222.3250 C   0  0  0  0  0  0  0  0  0  0  0  0
  137.6280   75.0450  221.8780 C   0  0  0  0  0  0  0  0  0  0  0  0
  138.8980   71.0380  222.5800 N   0  0  0  0  0  0  0  0  0  0  0  0
  139.4340   70.5740  223.7130 C   0  0  0  0  0  0  0  0  0  0  0  0
  139.2910   69.4320  224.5010 C   0  0  0  0  0  0  0  0  0  0  0  0
  141.0860   66.9290  227.8780 H   0  0  0  0  0  0  0  0  0  0  0  0
  140.7280   68.6600  228.2530 H   0  0  0  0  0  0  0  0  0  0  0  0
  141.5171   70.0305  227.0022 H   0  0  0  0  0  0  0  0  0  0  0  0
  141.8155   72.1131  225.6183 H   0  0  0  0  0  0  0  0  0  0  0  0
  140.9504   73.4233  223.2979 H   0  0  0  0  0  0  0  0  0  0  0  0
  140.3163   75.3684  220.0623 H   0  0  0  0  0  0  0  0  0  0  0  0
  138.7665   75.8380  219.4689 H   0  0  0  0  0  0  0  0  0  0  0  0
  140.1971   75.7727  223.2126 H   0  0  0  0  0  0  0  0  0  0  0  0
  141.3331   76.1385  221.9339 H   0  0  0  0  0  0  0  0  0  0  0  0
  140.1123   77.9254  223.9935 H   0  0  0  0  0  0  0  0  0  0  0  0
  141.6216   78.1603  223.0679 H   0  0  0  0  0  0  0  0  0  0  0  0
  140.1062   80.3959  220.9329 H   0  0  0  0  0  0  0  0  0  0  0  0
  140.7204   81.9746  222.3497 H   0  0  0  0  0  0  0  0  0  0  0  0
  140.1783   80.8631  223.6116 H   0  0  0  0  0  0  0  0  0  0  0  0
  142.8489   81.7788  223.1191 H   0  0  0  0  0  0  0  0  0  0  0  0
  142.3563   80.5195  224.2852 H   0  0  0  0  0  0  0  0  0  0  0  0
  143.8070   80.1990  221.9290 H   0  0  0  0  0  0  0  0  0  0  0  0
  142.3361   80.0014  220.4043 H   0  0  0  0  0  0  0  0  0  0  0  0
  142.0451   78.4030  221.1300 H   0  0  0  0  0  0  0  0  0  0  0  0
  138.4743   78.4284  220.5837 H   0  0  0  0  0  0  0  0  0  0  0  0
  140.1444   78.0892  220.1329 H   0  0  0  0  0  0  0  0  0  0  0  0
  137.3303   78.2920  222.9010 H   0  0  0  0  0  0  0  0  0  0  0  0
  135.1701   77.3302  223.7269 H   0  0  0  0  0  0  0  0  0  0  0  0
  134.6132   74.9503  223.3624 H   0  0  0  0  0  0  0  0  0  0  0  0
  136.2027   73.4405  222.1606 H   0  0  0  0  0  0  0  0  0  0  0  0
  138.1610   70.5390  222.0090 H   0  0  0  0  0  0  0  0  0  0  0  0
  138.5732   68.6576  224.1927 H   0  0  0  0  0  0  0  0  0  0  0  0
  1  2  1  0
  2  3  2  0
  2  4  1  0
  4  5  2  0
  5  6  1  0
  6  7  2  0
  7  8  1  0
  8  9  2  0
  9 10  1  0
 10 11  2  0
 10 12  1  0
 12 13  1  0
 14 13  1  6
 14 15  1  0
 15 16  1  0
 16 17  1  0
 17 18  1  0
 18 19  1  0
 19 20  1  0
 20 21  1  0
 21 22  1  0
 17 23  1  0
 14 24  1  0
 24 25  2  0
 25 26  1  0
 26 27  2  0
 27 28  1  0
 28 29  2  0
  9 30  1  0
 30 31  1  0
 31 32  2  0
 32  4  1  0
 31  7  1  0
 29 12  1  0
 23 14  1  0
 29 24  1  0
 22 18  1  0
  1 33  1  0
  1 34  1  0
  5 35  1  0
  6 36  1  0
  8 37  1  0
 13 38  1  0
 13 39  1  0
 15 40  1  0
 15 41  1  0
 16 42  1  0
 16 43  1  0
 18 44  1  6
 19 45  1  0
 19 46  1  0
 20 47  1  0
 20 48  1  0
 21 49  1  0
 22 50  1  0
 22 51  1  0
 23 52  1  0
 23 53  1  0
 25 54  1  0
 26 55  1  0
 27 56  1  0
 28 57  1  0
 30 58  1  0
 32 59  1  0
M  END
>  <smiles>  (72) 
NC(=O)c1ccc2cc(C(=O)N3C[C@]4(CCN(C5CCNC5)C4)c4ccccc43)[nH]c2c1

>  <score_type>  (72) 
oracle

>  <origin>  (72) 
autodockgpu

>  <m_score__min__energy>  (72) 
-8.9299999999999997

>  <m_primary>  (72) 
energy

>  <rmsd>  (72) 
3.243167447069939

>  <m_score__min__rmsd>  (72) 
3.243167447069939

>  <meeko>  (72) 
{"free_energy": -8.48, "intermolecular_energy": -9.68, "internal_energy": -1.29, "cluster_size": 10, "cluster_id": 3, "rank_in_cluster": 6}

>  <energy>  (72) 
-8.53

>  <cluster_rmsd>  (72) 
1.45

>  <cluster>  (72) 
1

$$$$

     RDKit          3D

 59 64  0  0  1  0  0  0  0  0999 V2000
  145.9950   73.3830  217.6300 N   0  0  0  0  0  0  0  0  0  0  0  0
  145.6060   72.9170  218.9270 C   0  0  0  0  0  0  0  0  0  0  0  0
  146.3020   72.0940  219.5580 O   0  0  0  0  0  0  0  0  0  0  0  0
  144.3520   73.4270  219.5230 C   0  0  0  0  0  0  0  0  0  0  0  0
  143.4920   72.5470  220.1310 C   0  0  0  0  0  0  0  0  0  0  0  0
  142.3110   73.0530  220.6840 C   0  0  0  0  0  0  0  0  0  0  0  0
  142.0500   74.4070  220.6020 C   0  0  0  0  0  0  0  0  0  0  0  0
  140.9870   75.1370  221.0610 C   0  0  0  0  0  0  0  0  0  0  0  0
  141.1720   76.4990  220.7390 C   0  0  0  0  0  0  0  0  0  0  0  0
  140.2000   77.4800  221.1130 C   0  0  0  0  0  0  0  0  0  0  0  0
  139.2050   77.6090  220.3040 O   0  0  0  0  0  0  0  0  0  0  0  0
  140.1780   78.3210  222.2390 N   0  0  0  0  0  0  0  0  0  0  0  0
  139.0600   78.4060  223.2150 C   0  0  0  0  0  0  0  0  0  0  0  0
  139.0080   79.9140  223.3850 C   0  0  1  0  0  0  0  0  0  0  0  0
  138.2680   80.5630  222.2540 C   0  0  0  0  0  0  0  0  0  0  0  0
  137.8150   81.8610  222.8570 C   0  0  0  0  0  0  0  0  0  0  0  0
  137.8840   81.7350  224.2950 N   0  0  0  0  0  0  0  0  0  0  0  0
  136.6610   82.1410  224.9400 C   0  0  1  0  0  0  0  0  0  0  0  0
  135.8560   81.0760  225.5740 C   0  0  0  0  0  0  0  0  0  0  0  0
  136.0260   81.2790  227.0620 C   0  0  0  0  0  0  0  0  0  0  0  0
  136.7920   82.4850  227.2630 N   0  0  0  0  0  0  0  0  0  0  0  0
  136.9370   83.1490  225.9910 C   0  0  0  0  0  0  0  0  0  0  0  0
  138.2390   80.3640  224.5800 C   0  0  0  0  0  0  0  0  0  0  0  0
  140.4380   80.2280  223.4420 C   0  0  0  0  0  0  0  0  0  0  0  0
  141.1000   81.2690  224.0490 C   0  0  0  0  0  0  0  0  0  0  0  0
  142.4900   81.2950  223.9350 C   0  0  0  0  0  0  0  0  0  0  0  0
  143.1820   80.3090  223.2350 C   0  0  0  0  0  0  0  0  0  0  0  0
  142.5100   79.2630  222.6250 C   0  0  0  0  0  0  0  0  0  0  0  0
  141.1370   79.2420  222.7410 C   0  0  0  0  0  0  0  0  0  0  0  0
  142.3420   76.5240  220.1000 N   0  0  0  0  0  0  0  0  0  0  0  0
  142.8930   75.3110  219.9980 C   0  0  0  0  0  0  0  0  0  0  0  0
  144.0630   74.7780  219.4560 C   0  0  0  0  0  0  0  0  0  0  0  0
  146.3480   72.7700  216.8780 H   0  0  0  0  0  0  0  0  0  0  0  0
  145.8990   74.4160  217.4750 H   0  0  0  0  0  0  0  0  0  0  0  0
  143.7251   71.4732  220.1820 H   0  0  0  0  0  0  0  0  0  0  0  0
  141.5968   72.3790  221.1796 H   0  0  0  0  0  0  0  0  0  0  0  0
  140.1204   74.7251  221.5989 H   0  0  0  0  0  0  0  0  0  0  0  0
  138.1220   78.0046  222.8038 H   0  0  0  0  0  0  0  0  0  0  0  0
  139.1961   77.8296  224.1420 H   0  0  0  0  0  0  0  0  0  0  0  0
  138.9311   80.7356  221.3935 H   0  0  0  0  0  0  0  0  0  0  0  0
  137.4412   79.9505  221.8651 H   0  0  0  0  0  0  0  0  0  0  0  0
  138.4719   82.6773  222.5221 H   0  0  0  0  0  0  0  0  0  0  0  0
  136.7858   82.0890  222.5429 H   0  0  0  0  0  0  0  0  0  0  0  0
  136.0658   82.5323  224.1017 H   0  0  0  0  0  0  0  0  0  0  0  0
  134.7976   81.1727  225.2905 H   0  0  0  0  0  0  0  0  0  0  0  0
  136.1803   80.0737  225.2574 H   0  0  0  0  0  0  0  0  0  0  0  0
  135.0404   81.3788  227.5401 H   0  0  0  0  0  0  0  0  0  0  0  0
  136.5450   80.4179  227.5082 H   0  0  0  0  0  0  0  0  0  0  0  0
  136.2740   83.1650  227.8790 H   0  0  0  0  0  0  0  0  0  0  0  0
  136.2199   83.9797  225.9149 H   0  0  0  0  0  0  0  0  0  0  0  0
  137.9493   83.5646  225.8791 H   0  0  0  0  0  0  0  0  0  0  0  0
  138.8605   80.3048  225.4857 H   0  0  0  0  0  0  0  0  0  0  0  0
  137.3552   79.7361  224.7659 H   0  0  0  0  0  0  0  0  0  0  0  0
  140.5560   82.0491  224.6017 H   0  0  0  0  0  0  0  0  0  0  0  0
  143.0528   82.1129  224.4087 H   0  0  0  0  0  0  0  0  0  0  0  0
  144.2785   80.3622  223.1658 H   0  0  0  0  0  0  0  0  0  0  0  0
  143.0499   78.4812  222.0707 H   0  0  0  0  0  0  0  0  0  0  0  0
  142.7660   77.4170  219.7250 H   0  0  0  0  0  0  0  0  0  0  0  0
  144.7770   75.4524  218.9606 H   0  0  0  0  0  0  0  0  0  0  0  0
  1  2  1  0
  2  3  2  0
  2  4  1  0
  4  5  2  0
  5  6  1  0
  6  7  2  0
  7  8  1  0
  8  9  2  0
  9 10  1  0
 10 11  2  0
 10 12  1  0
 12 13  1  0
 14 13  1  6
 14 15  1  0
 15 16  1  0
 16 17  1  0
 17 18  1  0
 18 19  1  0
 19 20  1  0
 20 21  1  0
 21 22  1  0
 17 23  1  0
 14 24  1  0
 24 25  2  0
 25 26  1  0
 26 27  2  0
 27 28  1  0
 28 29  2  0
  9 30  1  0
 30 31  1  0
 31 32  2  0
 32  4  1  0
 31  7  1  0
 29 12  1  0
 23 14  1  0
 29 24  1  0
 22 18  1  0
  1 33  1  0
  1 34  1  0
  5 35  1  0
  6 36  1  0
  8 37  1  0
 13 38  1  0
 13 39  1  0
 15 40  1  0
 15 41  1  0
 16 42  1  0
 16 43  1  0
 18 44  1  6
 19 45  1  0
 19 46  1  0
 20 47  1  0
 20 48  1  0
 21 49  1  0
 22 50  1  0
 22 51  1  0
 23 52  1  0
 23 53  1  0
 25 54  1  0
 26 55  1  0
 27 56  1  0
 28 57  1  0
 30 58  1  0
 32 59  1  0
M  END
>  <smiles>  (73) 
NC(=O)c1ccc2cc(C(=O)N3C[C@]4(CCN(C5CCNC5)C4)c4ccccc43)[nH]c2c1

>  <score_type>  (73) 
oracle

>  <origin>  (73) 
autodockgpu

>  <m_score__min__energy>  (73) 
-8.9299999999999997

>  <m_primary>  (73) 
energy

>  <rmsd>  (73) 
7.017266623746705

>  <m_score__min__rmsd>  (73) 
7.017266623746705

>  <meeko>  (73) 
{"free_energy": -8.79, "intermolecular_energy": -9.98, "internal_energy": -1.16, "cluster_size": 27, "cluster_id": 1, "rank_in_cluster": 7}

>  <energy>  (73) 
-8.53

>  <cluster_rmsd>  (73) 
1.45

>  <cluster>  (73) 
1

$$$$

     RDKit          3D

 59 64  0  0  1  0  0  0  0  0999 V2000
  146.8400   73.7670  219.3490 N   0  0  0  0  0  0  0  0  0  0  0  0
  145.7770   72.8210  219.5060 C   0  0  0  0  0  0  0  0  0  0  0  0
  145.9480   71.6060  219.2740 O   0  0  0  0  0  0  0  0  0  0  0  0
  144.4530   73.3050  219.9540 C   0  0  0  0  0  0  0  0  0  0  0  0
  143.5190   72.3970  220.3890 C   0  0  0  0  0  0  0  0  0  0  0  0
  142.2730   72.8790  220.8030 C   0  0  0  0  0  0  0  0  0  0  0  0
  142.0240   74.2370  220.7640 C   0  0  0  0  0  0  0  0  0  0  0  0
  140.9070   74.9460  221.1150 C   0  0  0  0  0  0  0  0  0  0  0  0
  141.1320   76.3230  220.9000 C   0  0  0  0  0  0  0  0  0  0  0  0
  140.1160   77.2870  221.1930 C   0  0  0  0  0  0  0  0  0  0  0  0
  139.1280   77.3190  220.3670 O   0  0  0  0  0  0  0  0  0  0  0  0
  140.0460   78.2020  222.2580 N   0  0  0  0  0  0  0  0  0  0  0  0
  138.8860   78.3520  223.1750 C   0  0  0  0  0  0  0  0  0  0  0  0
  138.8280   79.8690  223.2390 C   0  0  1  0  0  0  0  0  0  0  0  0
  138.1410   80.4380  222.0350 C   0  0  0  0  0  0  0  0  0  0  0  0
  137.6630   81.7720  222.5270 C   0  0  0  0  0  0  0  0  0  0  0  0
  137.6680   81.7450  223.9720 N   0  0  0  0  0  0  0  0  0  0  0  0
  136.4180   82.1920  224.5320 C   0  0  1  0  0  0  0  0  0  0  0  0
  135.7420   81.2740  225.4730 C   0  0  0  0  0  0  0  0  0  0  0  0
  135.9110   81.9030  226.8360 C   0  0  0  0  0  0  0  0  0  0  0  0
  136.5460   83.1870  226.6600 N   0  0  0  0  0  0  0  0  0  0  0  0
  136.5990   83.4770  225.2490 C   0  0  0  0  0  0  0  0  0  0  0  0
  138.0070   80.3970  224.3650 C   0  0  0  0  0  0  0  0  0  0  0  0
  140.2550   80.1870  223.3380 C   0  0  0  0  0  0  0  0  0  0  0  0
  140.8910   81.2690  223.9020 C   0  0  0  0  0  0  0  0  0  0  0  0
  142.2840   81.2880  223.8480 C   0  0  0  0  0  0  0  0  0  0  0  0
  143.0050   80.2580  223.2490 C   0  0  0  0  0  0  0  0  0  0  0  0
  142.3590   79.1720  222.6820 C   0  0  0  0  0  0  0  0  0  0  0  0
  140.9830   79.1570  222.7380 C   0  0  0  0  0  0  0  0  0  0  0  0
  142.3780   76.3760  220.4280 N   0  0  0  0  0  0  0  0  0  0  0  0
  142.9390   75.1680  220.3330 C   0  0  0  0  0  0  0  0  0  0  0  0
  144.1730   74.6600  219.9260 C   0  0  0  0  0  0  0  0  0  0  0  0
  147.4830   73.7850  218.5410 H   0  0  0  0  0  0  0  0  0  0  0  0
  146.9390   74.4680  220.1230 H   0  0  0  0  0  0  0  0  0  0  0  0
  143.7446   71.3206  220.4112 H   0  0  0  0  0  0  0  0  0  0  0  0
  141.4982   72.1827  221.1565 H   0  0  0  0  0  0  0  0  0  0  0  0
  139.9758   74.5093  221.5052 H   0  0  0  0  0  0  0  0  0  0  0  0
  137.9667   77.9216  222.7510 H   0  0  0  0  0  0  0  0  0  0  0  0
  138.9803   77.8409  224.1445 H   0  0  0  0  0  0  0  0  0  0  0  0
  138.8425   80.5531  221.1956 H   0  0  0  0  0  0  0  0  0  0  0  0
  137.3319   79.7989  221.6517 H   0  0  0  0  0  0  0  0  0  0  0  0
  138.3346   82.5650  222.1664 H   0  0  0  0  0  0  0  0  0  0  0  0
  136.6488   81.9754  222.1529 H   0  0  0  0  0  0  0  0  0  0  0  0
  135.7724   82.2703  223.6448 H   0  0  0  0  0  0  0  0  0  0  0  0
  134.6752   81.1813  225.2212 H   0  0  0  0  0  0  0  0  0  0  0  0
  136.1680   80.2606  225.4339 H   0  0  0  0  0  0  0  0  0  0  0  0
  134.9274   82.0351  227.3105 H   0  0  0  0  0  0  0  0  0  0  0  0
  136.5263   81.2580  227.4805 H   0  0  0  0  0  0  0  0  0  0  0  0
  135.9660   83.9570  227.0860 H   0  0  0  0  0  0  0  0  0  0  0  0
  135.7951   84.1770  224.9773 H   0  0  0  0  0  0  0  0  0  0  0  0
  137.5589   83.9426  224.9811 H   0  0  0  0  0  0  0  0  0  0  0  0
  138.5869   80.3998  225.2997 H   0  0  0  0  0  0  0  0  0  0  0  0
  137.1147   79.7819  224.5533 H   0  0  0  0  0  0  0  0  0  0  0  0
  140.3244   82.0844  224.3754 H   0  0  0  0  0  0  0  0  0  0  0  0
  142.8267   82.1370  224.2892 H   0  0  0  0  0  0  0  0  0  0  0  0
  144.1036   80.3077  223.2258 H   0  0  0  0  0  0  0  0  0  0  0  0
  142.9217   78.3551  222.2066 H   0  0  0  0  0  0  0  0  0  0  0  0
  142.8480   77.2870  220.1660 H   0  0  0  0  0  0  0  0  0  0  0  0
  144.9466   75.3574  219.5722 H   0  0  0  0  0  0  0  0  0  0  0  0
  1  2  1  0
  2  3  2  0
  2  4  1  0
  4  5  2  0
  5  6  1  0
  6  7  2  0
  7  8  1  0
  8  9  2  0
  9 10  1  0
 10 11  2  0
 10 12  1  0
 12 13  1  0
 14 13  1  6
 14 15  1  0
 15 16  1  0
 16 17  1  0
 17 18  1  0
 18 19  1  0
 19 20  1  0
 20 21  1  0
 21 22  1  0
 17 23  1  0
 14 24  1  0
 24 25  2  0
 25 26  1  0
 26 27  2  0
 27 28  1  0
 28 29  2  0
  9 30  1  0
 30 31  1  0
 31 32  2  0
 32  4  1  0
 31  7  1  0
 29 12  1  0
 23 14  1  0
 29 24  1  0
 22 18  1  0
  1 33  1  0
  1 34  1  0
  5 35  1  0
  6 36  1  0
  8 37  1  0
 13 38  1  0
 13 39  1  0
 15 40  1  0
 15 41  1  0
 16 42  1  0
 16 43  1  0
 18 44  1  6
 19 45  1  0
 19 46  1  0
 20 47  1  0
 20 48  1  0
 21 49  1  0
 22 50  1  0
 22 51  1  0
 23 52  1  0
 23 53  1  0
 25 54  1  0
 26 55  1  0
 27 56  1  0
 28 57  1  0
 30 58  1  0
 32 59  1  0
M  END
>  <smiles>  (74) 
NC(=O)c1ccc2cc(C(=O)N3C[C@]4(CCN(C5CCNC5)C4)c4ccccc43)[nH]c2c1

>  <score_type>  (74) 
oracle

>  <origin>  (74) 
autodockgpu

>  <m_score__min__energy>  (74) 
-8.9299999999999997

>  <m_primary>  (74) 
energy

>  <rmsd>  (74) 
6.888704155504039

>  <m_score__min__rmsd>  (74) 
6.888704155504039

>  <meeko>  (74) 
{"free_energy": -8.57, "intermolecular_energy": -9.76, "internal_energy": -1.15, "cluster_size": 27, "cluster_id": 1, "rank_in_cluster": 21}

>  <energy>  (74) 
-8.51

>  <cluster_rmsd>  (74) 
1.46

>  <cluster>  (74) 
1

$$$$

     RDKit          3D

 59 64  0  0  1  0  0  0  0  0999 V2000
  146.0720   71.5170  220.0260 N   0  0  0  0  0  0  0  0  0  0  0  0
  145.5750   72.6530  219.3090 C   0  0  0  0  0  0  0  0  0  0  0  0
  146.1990   73.1340  218.3410 O   0  0  0  0  0  0  0  0  0  0  0  0
  144.2960   73.2610  219.7350 C   0  0  0  0  0  0  0  0  0  0  0  0
  143.2490   72.4450  220.0860 C   0  0  0  0  0  0  0  0  0  0  0  0
  142.0490   73.0450  220.4820 C   0  0  0  0  0  0  0  0  0  0  0  0
  141.9550   74.4220  220.5070 C   0  0  0  0  0  0  0  0  0  0  0  0
  140.9110   75.2360  220.8560 C   0  0  0  0  0  0  0  0  0  0  0  0
  141.2970   76.5870  220.7240 C   0  0  0  0  0  0  0  0  0  0  0  0
  140.3850   77.6450  221.0330 C   0  0  0  0  0  0  0  0  0  0  0  0
  139.5070   77.9010  220.1250 O   0  0  0  0  0  0  0  0  0  0  0  0
  140.3120   78.4420  222.1880 N   0  0  0  0  0  0  0  0  0  0  0  0
  139.1530   78.4860  223.1190 C   0  0  0  0  0  0  0  0  0  0  0  0
  139.0860   79.9870  223.3430 C   0  0  1  0  0  0  0  0  0  0  0  0
  138.3920   80.6760  222.2080 C   0  0  0  0  0  0  0  0  0  0  0  0
  137.9080   81.9480  222.8400 C   0  0  0  0  0  0  0  0  0  0  0  0
  137.9160   81.7680  224.2740 N   0  0  0  0  0  0  0  0  0  0  0  0
  136.6660   82.1440  224.8810 C   0  0  1  0  0  0  0  0  0  0  0  0
  135.8720   81.0630  225.5020 C   0  0  0  0  0  0  0  0  0  0  0  0
  135.9950   81.2820  226.9920 C   0  0  0  0  0  0  0  0  0  0  0  0
  136.7230   82.5100  227.2040 N   0  0  0  0  0  0  0  0  0  0  0  0
  136.8840   83.1680  225.9310 C   0  0  0  0  0  0  0  0  0  0  0  0
  138.2650   80.3880  224.5210 C   0  0  0  0  0  0  0  0  0  0  0  0
  140.5110   80.3020  223.4730 C   0  0  0  0  0  0  0  0  0  0  0  0
  141.1420   81.3220  224.1470 C   0  0  0  0  0  0  0  0  0  0  0  0
  142.5350   81.3560  224.0930 C   0  0  0  0  0  0  0  0  0  0  0  0
  143.2610   80.4000  223.3860 C   0  0  0  0  0  0  0  0  0  0  0  0
  142.6200   79.3760  222.7090 C   0  0  0  0  0  0  0  0  0  0  0  0
  141.2440   79.3460  222.7660 C   0  0  0  0  0  0  0  0  0  0  0  0
  142.5600   76.5220  220.3000 N   0  0  0  0  0  0  0  0  0  0  0  0
  142.9860   75.2640  220.1600 C   0  0  0  0  0  0  0  0  0  0  0  0
  144.1710   74.6390  219.7700 C   0  0  0  0  0  0  0  0  0  0  0  0
  147.0550   71.4020  220.3180 H   0  0  0  0  0  0  0  0  0  0  0  0
  145.3610   70.7780  220.2490 H   0  0  0  0  0  0  0  0  0  0  0  0
  143.3510   71.3501  220.0566 H   0  0  0  0  0  0  0  0  0  0  0  0
  141.1877   72.4249  220.7710 H   0  0  0  0  0  0  0  0  0  0  0  0
  139.9214   74.8896  221.1888 H   0  0  0  0  0  0  0  0  0  0  0  0
  138.2352   78.0969  222.6540 H   0  0  0  0  0  0  0  0  0  0  0  0
  139.2531   77.8756  224.0286 H   0  0  0  0  0  0  0  0  0  0  0  0
  139.0901   80.8834  221.3836 H   0  0  0  0  0  0  0  0  0  0  0  0
  137.5853   80.0763  221.7613 H   0  0  0  0  0  0  0  0  0  0  0  0
  138.5748   82.7784  222.5647 H   0  0  0  0  0  0  0  0  0  0  0  0
  136.8919   82.1844  222.4912 H   0  0  0  0  0  0  0  0  0  0  0  0
  136.0849   82.5110  224.0222 H   0  0  0  0  0  0  0  0  0  0  0  0
  134.8197   81.1293  225.1886 H   0  0  0  0  0  0  0  0  0  0  0  0
  136.2314   80.0672  225.2032 H   0  0  0  0  0  0  0  0  0  0  0  0
  134.9941   81.3590  227.4418 H   0  0  0  0  0  0  0  0  0  0  0  0
  136.5241   80.4386  227.4597 H   0  0  0  0  0  0  0  0  0  0  0  0
  136.1690   83.1800  227.8000 H   0  0  0  0  0  0  0  0  0  0  0  0
  136.1458   83.9770  225.8283 H   0  0  0  0  0  0  0  0  0  0  0  0
  137.8867   83.6117  225.8434 H   0  0  0  0  0  0  0  0  0  0  0  0
  138.8479   80.2957  225.4493 H   0  0  0  0  0  0  0  0  0  0  0  0
  137.3771   79.7506  224.6451 H   0  0  0  0  0  0  0  0  0  0  0  0
  140.5715   82.0790  224.7051 H   0  0  0  0  0  0  0  0  0  0  0  0
  143.0734   82.1567  224.6212 H   0  0  0  0  0  0  0  0  0  0  0  0
  144.3592   80.4594  223.3652 H   0  0  0  0  0  0  0  0  0  0  0  0
  143.1865   78.6176  222.1487 H   0  0  0  0  0  0  0  0  0  0  0  0
  143.1390   77.3850  220.1050 H   0  0  0  0  0  0  0  0  0  0  0  0
  145.0318   75.2602  219.4817 H   0  0  0  0  0  0  0  0  0  0  0  0
  1  2  1  0
  2  3  2  0
  2  4  1  0
  4  5  2  0
  5  6  1  0
  6  7  2  0
  7  8  1  0
  8  9  2  0
  9 10  1  0
 10 11  2  0
 10 12  1  0
 12 13  1  0
 14 13  1  6
 14 15  1  0
 15 16  1  0
 16 17  1  0
 17 18  1  0
 18 19  1  0
 19 20  1  0
 20 21  1  0
 21 22  1  0
 17 23  1  0
 14 24  1  0
 24 25  2  0
 25 26  1  0
 26 27  2  0
 27 28  1  0
 28 29  2  0
  9 30  1  0
 30 31  1  0
 31 32  2  0
 32  4  1  0
 31  7  1  0
 29 12  1  0
 23 14  1  0
 29 24  1  0
 22 18  1  0
  1 33  1  0
  1 34  1  0
  5 35  1  0
  6 36  1  0
  8 37  1  0
 13 38  1  0
 13 39  1  0
 15 40  1  0
 15 41  1  0
 16 42  1  0
 16 43  1  0
 18 44  1  6
 19 45  1  0
 19 46  1  0
 20 47  1  0
 20 48  1  0
 21 49  1  0
 22 50  1  0
 22 51  1  0
 23 52  1  0
 23 53  1  0
 25 54  1  0
 26 55  1  0
 27 56  1  0
 28 57  1  0
 30 58  1  0
 32 59  1  0
M  END
>  <smiles>  (75) 
NC(=O)c1ccc2cc(C(=O)N3C[C@]4(CCN(C5CCNC5)C4)c4ccccc43)[nH]c2c1

>  <score_type>  (75) 
oracle

>  <origin>  (75) 
autodockgpu

>  <m_score__min__energy>  (75) 
-8.9299999999999997

>  <m_primary>  (75) 
energy

>  <rmsd>  (75) 
6.905161545795787

>  <m_score__min__rmsd>  (75) 
6.905161545795787

>  <meeko>  (75) 
{"free_energy": -8.8, "intermolecular_energy": -9.99, "internal_energy": -1.15, "cluster_size": 27, "cluster_id": 1, "rank_in_cluster": 3}

>  <energy>  (75) 
-8.49

>  <cluster_rmsd>  (75) 
1.13

>  <cluster>  (75) 
1

$$$$

     RDKit          3D

 59 64  0  0  1  0  0  0  0  0999 V2000
  145.9780   73.3530  217.5860 N   0  0  0  0  0  0  0  0  0  0  0  0
  145.5720   72.8860  218.8780 C   0  0  0  0  0  0  0  0  0  0  0  0
  146.2300   72.0220  219.4930 O   0  0  0  0  0  0  0  0  0  0  0  0
  144.3460   73.4460  219.4850 C   0  0  0  0  0  0  0  0  0  0  0  0
  143.4890   72.6110  220.1600 C   0  0  0  0  0  0  0  0  0  0  0  0
  142.3350   73.1640  220.7230 C   0  0  0  0  0  0  0  0  0  0  0  0
  142.0940   74.5170  220.5850 C   0  0  0  0  0  0  0  0  0  0  0  0
  141.0580   75.2860  221.0410 C   0  0  0  0  0  0  0  0  0  0  0  0
  141.2560   76.6280  220.6510 C   0  0  0  0  0  0  0  0  0  0  0  0
  140.3120   77.6430  221.0070 C   0  0  0  0  0  0  0  0  0  0  0  0
  139.3850   77.8650  220.1410 O   0  0  0  0  0  0  0  0  0  0  0  0
  140.2560   78.4300  222.1710 N   0  0  0  0  0  0  0  0  0  0  0  0
  139.1110   78.4640  223.1190 C   0  0  0  0  0  0  0  0  0  0  0  0
  139.0450   79.9630  223.3570 C   0  0  1  0  0  0  0  0  0  0  0  0
  138.3320   80.6600  222.2380 C   0  0  0  0  0  0  0  0  0  0  0  0
  137.8550   81.9260  222.8880 C   0  0  0  0  0  0  0  0  0  0  0  0
  137.8860   81.7340  224.3210 N   0  0  0  0  0  0  0  0  0  0  0  0
  136.6450   82.1030  224.9500 C   0  0  1  0  0  0  0  0  0  0  0  0
  135.8830   81.0210  225.6090 C   0  0  0  0  0  0  0  0  0  0  0  0
  136.0360   81.2690  227.0910 C   0  0  0  0  0  0  0  0  0  0  0  0
  136.7500   82.5120  227.2640 N   0  0  0  0  0  0  0  0  0  0  0  0
  136.8720   83.1480  225.9760 C   0  0  0  0  0  0  0  0  0  0  0  0
  138.2420   80.3530  224.5510 C   0  0  0  0  0  0  0  0  0  0  0  0
  140.4710   80.2800  223.4670 C   0  0  0  0  0  0  0  0  0  0  0  0
  141.1110   81.2950  224.1400 C   0  0  0  0  0  0  0  0  0  0  0  0
  142.5030   81.3330  224.0650 C   0  0  0  0  0  0  0  0  0  0  0  0
  143.2190   80.3840  223.3390 C   0  0  0  0  0  0  0  0  0  0  0  0
  142.5700   79.3650  222.6630 C   0  0  0  0  0  0  0  0  0  0  0  0
  141.1950   79.3320  222.7410 C   0  0  0  0  0  0  0  0  0  0  0  0
  142.4060   76.6020  219.9770 N   0  0  0  0  0  0  0  0  0  0  0  0
  142.9330   75.3760  219.9150 C   0  0  0  0  0  0  0  0  0  0  0  0
  144.0770   74.7980  219.3640 C   0  0  0  0  0  0  0  0  0  0  0  0
  146.3000   72.7360  216.8230 H   0  0  0  0  0  0  0  0  0  0  0  0
  145.9310   74.3920  217.4470 H   0  0  0  0  0  0  0  0  0  0  0  0
  143.7049   71.5366  220.2549 H   0  0  0  0  0  0  0  0  0  0  0  0
  141.6251   72.5271  221.2711 H   0  0  0  0  0  0  0  0  0  0  0  0
  140.2014   74.9149  221.6228 H   0  0  0  0  0  0  0  0  0  0  0  0
  138.1871   78.0774  222.6641 H   0  0  0  0  0  0  0  0  0  0  0  0
  139.2253   77.8460  224.0217 H   0  0  0  0  0  0  0  0  0  0  0  0
  139.0170   80.8757  221.4048 H   0  0  0  0  0  0  0  0  0  0  0  0
  137.5198   80.0622  221.7987 H   0  0  0  0  0  0  0  0  0  0  0  0
  138.5155   82.7602  222.6091 H   0  0  0  0  0  0  0  0  0  0  0  0
  136.8331   82.1629  222.5571 H   0  0  0  0  0  0  0  0  0  0  0  0
  136.0383   82.4465  224.0992 H   0  0  0  0  0  0  0  0  0  0  0  0
  134.8229   81.0648  225.3187 H   0  0  0  0  0  0  0  0  0  0  0  0
  136.2520   80.0258  225.3202 H   0  0  0  0  0  0  0  0  0  0  0  0
  135.0444   81.3394  227.5620 H   0  0  0  0  0  0  0  0  0  0  0  0
  136.5883   80.4423  227.5618 H   0  0  0  0  0  0  0  0  0  0  0  0
  136.2000   83.1840  227.8610 H   0  0  0  0  0  0  0  0  0  0  0  0
  136.1200   83.9445  225.8759 H   0  0  0  0  0  0  0  0  0  0  0  0
  137.8662   83.6035  225.8572 H   0  0  0  0  0  0  0  0  0  0  0  0
  138.8399   80.2547  225.4691 H   0  0  0  0  0  0  0  0  0  0  0  0
  137.3575   79.7127  224.6838 H   0  0  0  0  0  0  0  0  0  0  0  0
  140.5478   82.0458  224.7137 H   0  0  0  0  0  0  0  0  0  0  0  0
  143.0480   82.1306  224.5912 H   0  0  0  0  0  0  0  0  0  0  0  0
  144.3167   80.4452  223.3023 H   0  0  0  0  0  0  0  0  0  0  0  0
  143.1292   78.6127  222.0873 H   0  0  0  0  0  0  0  0  0  0  0  0
  142.8340   77.4690  219.5480 H   0  0  0  0  0  0  0  0  0  0  0  0
  144.7865   75.4362  218.8169 H   0  0  0  0  0  0  0  0  0  0  0  0
  1  2  1  0
  2  3  2  0
  2  4  1  0
  4  5  2  0
  5  6  1  0
  6  7  2  0
  7  8  1  0
  8  9  2  0
  9 10  1  0
 10 11  2  0
 10 12  1  0
 12 13  1  0
 14 13  1  6
 14 15  1  0
 15 16  1  0
 16 17  1  0
 17 18  1  0
 18 19  1  0
 19 20  1  0
 20 21  1  0
 21 22  1  0
 17 23  1  0
 14 24  1  0
 24 25  2  0
 25 26  1  0
 26 27  2  0
 27 28  1  0
 28 29  2  0
  9 30  1  0
 30 31  1  0
 31 32  2  0
 32  4  1  0
 31  7  1  0
 29 12  1  0
 23 14  1  0
 29 24  1  0
 22 18  1  0
  1 33  1  0
  1 34  1  0
  5 35  1  0
  6 36  1  0
  8 37  1  0
 13 38  1  0
 13 39  1  0
 15 40  1  0
 15 41  1  0
 16 42  1  0
 16 43  1  0
 18 44  1  6
 19 45  1  0
 19 46  1  0
 20 47  1  0
 20 48  1  0
 21 49  1  0
 22 50  1  0
 22 51  1  0
 23 52  1  0
 23 53  1  0
 25 54  1  0
 26 55  1  0
 27 56  1  0
 28 57  1  0
 30 58  1  0
 32 59  1  0
M  END
>  <smiles>  (76) 
NC(=O)c1ccc2cc(C(=O)N3C[C@]4(CCN(C5CCNC5)C4)c4ccccc43)[nH]c2c1

>  <score_type>  (76) 
oracle

>  <origin>  (76) 
autodockgpu

>  <m_score__min__energy>  (76) 
-8.9299999999999997

>  <m_primary>  (76) 
energy

>  <rmsd>  (76) 
7.070997681537653

>  <m_score__min__rmsd>  (76) 
7.070997681537653

>  <meeko>  (76) 
{"free_energy": -8.79, "intermolecular_energy": -9.98, "internal_energy": -1.15, "cluster_size": 27, "cluster_id": 1, "rank_in_cluster": 6}

>  <energy>  (76) 
-8.35

>  <cluster_rmsd>  (76) 
0.71

>  <cluster>  (76) 
1

$$$$

     RDKit          3D

 59 64  0  0  1  0  0  0  0  0999 V2000
  145.4390   71.8910  220.1950 N   0  0  0  0  0  0  0  0  0  0  0  0
  145.3960   72.8970  219.1770 C   0  0  0  0  0  0  0  0  0  0  0  0
  146.3160   73.0150  218.3410 O   0  0  0  0  0  0  0  0  0  0  0  0
  144.2340   73.8110  219.1250 C   0  0  0  0  0  0  0  0  0  0  0  0
  143.7250   74.1800  217.9040 C   0  0  0  0  0  0  0  0  0  0  0  0
  142.6280   75.0470  217.8810 C   0  0  0  0  0  0  0  0  0  0  0  0
  142.0970   75.5000  219.0720 C   0  0  0  0  0  0  0  0  0  0  0  0
  141.0400   76.3350  219.3140 C   0  0  0  0  0  0  0  0  0  0  0  0
  140.8740   76.5020  220.7060 C   0  0  0  0  0  0  0  0  0  0  0  0
  139.8300   77.3290  221.2270 C   0  0  0  0  0  0  0  0  0  0  0  0
  138.6930   77.2270  220.6290 O   0  0  0  0  0  0  0  0  0  0  0  0
  139.8710   78.2360  222.3000 N   0  0  0  0  0  0  0  0  0  0  0  0
  138.7950   78.4050  223.3120 C   0  0  0  0  0  0  0  0  0  0  0  0
  138.7810   79.9220  223.3920 C   0  0  1  0  0  0  0  0  0  0  0  0
  138.0100   80.5190  222.2540 C   0  0  0  0  0  0  0  0  0  0  0  0
  137.6090   81.8600  222.7940 C   0  0  0  0  0  0  0  0  0  0  0  0
  137.7330   81.8190  224.2340 N   0  0  0  0  0  0  0  0  0  0  0  0
  136.5460   82.2910  224.8990 C   0  0  1  0  0  0  0  0  0  0  0  0
  135.6220   81.2630  225.4230 C   0  0  0  0  0  0  0  0  0  0  0  0
  135.7800   81.3110  226.9250 C   0  0  0  0  0  0  0  0  0  0  0  0
  136.6640   82.4070  227.2460 N   0  0  0  0  0  0  0  0  0  0  0  0
  136.9030   83.1640  226.0420 C   0  0  0  0  0  0  0  0  0  0  0  0
  138.0700   80.4600  224.5870 C   0  0  0  0  0  0  0  0  0  0  0  0
  140.2190   80.2050  223.3750 C   0  0  0  0  0  0  0  0  0  0  0  0
  140.9260   81.2650  223.8920 C   0  0  0  0  0  0  0  0  0  0  0  0
  142.3110   81.2510  223.7220 C   0  0  0  0  0  0  0  0  0  0  0  0
  142.9530   80.2090  223.0570 C   0  0  0  0  0  0  0  0  0  0  0  0
  142.2350   79.1450  222.5380 C   0  0  0  0  0  0  0  0  0  0  0  0
  140.8680   79.1630  222.7090 C   0  0  0  0  0  0  0  0  0  0  0  0
  141.8430   75.7560  221.2370 N   0  0  0  0  0  0  0  0  0  0  0  0
  142.5860   75.1480  220.3090 C   0  0  0  0  0  0  0  0  0  0  0  0
  143.6800   74.2810  220.3020 C   0  0  0  0  0  0  0  0  0  0  0  0
  146.2770   71.6720  220.7570 H   0  0  0  0  0  0  0  0  0  0  0  0
  144.5430   71.3680  220.3490 H   0  0  0  0  0  0  0  0  0  0  0  0
  144.1680   73.8040  216.9700 H   0  0  0  0  0  0  0  0  0  0  0  0
  142.1921   75.3652  216.9225 H   0  0  0  0  0  0  0  0  0  0  0  0
  140.4144   76.8049  218.5408 H   0  0  0  0  0  0  0  0  0  0  0  0
  137.8331   78.0014  222.9628 H   0  0  0  0  0  0  0  0  0  0  0  0
  138.9564   77.8822  224.2663 H   0  0  0  0  0  0  0  0  0  0  0  0
  138.6413   80.6244  221.3594 H   0  0  0  0  0  0  0  0  0  0  0  0
  137.1556   79.9037  221.9356 H   0  0  0  0  0  0  0  0  0  0  0  0
  138.2688   82.6393  222.3849 H   0  0  0  0  0  0  0  0  0  0  0  0
  136.5729   82.0924  222.5069 H   0  0  0  0  0  0  0  0  0  0  0  0
  136.0124   82.8173  224.0938 H   0  0  0  0  0  0  0  0  0  0  0  0
  134.5855   81.4954  225.1373 H   0  0  0  0  0  0  0  0  0  0  0  0
  135.8481   80.2651  225.0192 H   0  0  0  0  0  0  0  0  0  0  0  0
  134.8001   81.4708  227.3985 H   0  0  0  0  0  0  0  0  0  0  0  0
  136.1966   80.3629  227.2959 H   0  0  0  0  0  0  0  0  0  0  0  0
  136.2060   83.0780  227.9160 H   0  0  0  0  0  0  0  0  0  0  0  0
  136.2776   84.0689  226.0351 H   0  0  0  0  0  0  0  0  0  0  0  0
  137.9553   83.4784  225.9802 H   0  0  0  0  0  0  0  0  0  0  0  0
  138.7259   80.4401  225.4698 H   0  0  0  0  0  0  0  0  0  0  0  0
  137.1814   79.8650  224.8446 H   0  0  0  0  0  0  0  0  0  0  0  0
  140.4212   82.0891  224.4174 H   0  0  0  0  0  0  0  0  0  0  0  0
  142.9098   82.0823  224.1225 H   0  0  0  0  0  0  0  0  0  0  0  0
  144.0468   80.2318  222.9425 H   0  0  0  0  0  0  0  0  0  0  0  0
  142.7354   78.3193  222.0108 H   0  0  0  0  0  0  0  0  0  0  0  0
  141.9860   75.6700  222.2820 H   0  0  0  0  0  0  0  0  0  0  0  0
  144.1144   73.9621  221.2610 H   0  0  0  0  0  0  0  0  0  0  0  0
  1  2  1  0
  2  3  2  0
  2  4  1  0
  4  5  2  0
  5  6  1  0
  6  7  2  0
  7  8  1  0
  8  9  2  0
  9 10  1  0
 10 11  2  0
 10 12  1  0
 12 13  1  0
 14 13  1  6
 14 15  1  0
 15 16  1  0
 16 17  1  0
 17 18  1  0
 18 19  1  0
 19 20  1  0
 20 21  1  0
 21 22  1  0
 17 23  1  0
 14 24  1  0
 24 25  2  0
 25 26  1  0
 26 27  2  0
 27 28  1  0
 28 29  2  0
  9 30  1  0
 30 31  1  0
 31 32  2  0
 32  4  1  0
 31  7  1  0
 29 12  1  0
 23 14  1  0
 29 24  1  0
 22 18  1  0
  1 33  1  0
  1 34  1  0
  5 35  1  0
  6 36  1  0
  8 37  1  0
 13 38  1  0
 13 39  1  0
 15 40  1  0
 15 41  1  0
 16 42  1  0
 16 43  1  0
 18 44  1  6
 19 45  1  0
 19 46  1  0
 20 47  1  0
 20 48  1  0
 21 49  1  0
 22 50  1  0
 22 51  1  0
 23 52  1  0
 23 53  1  0
 25 54  1  0
 26 55  1  0
 27 56  1  0
 28 57  1  0
 30 58  1  0
 32 59  1  0
M  END
>  <smiles>  (77) 
NC(=O)c1ccc2cc(C(=O)N3C[C@]4(CCN(C5CCNC5)C4)c4ccccc43)[nH]c2c1

>  <score_type>  (77) 
oracle

>  <origin>  (77) 
autodockgpu

>  <m_score__min__energy>  (77) 
-8.9299999999999997

>  <m_primary>  (77) 
energy

>  <rmsd>  (77) 
7.182957633546249

>  <m_score__min__rmsd>  (77) 
7.182957633546249

>  <meeko>  (77) 
{"free_energy": -8.77, "intermolecular_energy": -9.96, "internal_energy": -1.18, "cluster_size": 27, "cluster_id": 1, "rank_in_cluster": 12}

>  <energy>  (77) 
-7.87

>  <cluster_rmsd>  (77) 
1.89

>  <cluster>  (77) 
1

$$$$

     RDKit          3D

 59 64  0  0  1  0  0  0  0  0999 V2000
  145.9730   73.3350  217.6400 N   0  0  0  0  0  0  0  0  0  0  0  0
  145.5850   72.8420  218.9270 C   0  0  0  0  0  0  0  0  0  0  0  0
  146.2660   71.9850  219.5280 O   0  0  0  0  0  0  0  0  0  0  0  0
  144.3490   73.3650  219.5480 C   0  0  0  0  0  0  0  0  0  0  0  0
  143.5330   72.5070  220.2460 C   0  0  0  0  0  0  0  0  0  0  0  0
  142.3690   73.0260  220.8210 C   0  0  0  0  0  0  0  0  0  0  0  0
  142.0780   74.3680  220.6730 C   0  0  0  0  0  0  0  0  0  0  0  0
  141.0230   75.1050  221.1370 C   0  0  0  0  0  0  0  0  0  0  0  0
  141.1670   76.4490  220.7290 C   0  0  0  0  0  0  0  0  0  0  0  0
  140.1930   77.4340  221.0900 C   0  0  0  0  0  0  0  0  0  0  0  0
  139.1870   77.5350  220.2910 O   0  0  0  0  0  0  0  0  0  0  0  0
  140.1810   78.3040  222.1930 N   0  0  0  0  0  0  0  0  0  0  0  0
  139.0460   78.4610  223.1400 C   0  0  0  0  0  0  0  0  0  0  0  0
  139.0520   79.9740  223.2700 C   0  0  1  0  0  0  0  0  0  0  0  0
  138.3650   80.6220  222.1060 C   0  0  0  0  0  0  0  0  0  0  0  0
  137.9530   81.9520  222.6640 C   0  0  0  0  0  0  0  0  0  0  0  0
  137.9840   81.8630  224.1070 N   0  0  0  0  0  0  0  0  0  0  0  0
  136.7660   82.3340  224.7120 C   0  0  1  0  0  0  0  0  0  0  0  0
  135.5400   81.5550  224.4390 C   0  0  0  0  0  0  0  0  0  0  0  0
  135.2220   80.8430  225.7330 C   0  0  0  0  0  0  0  0  0  0  0  0
  136.1570   81.2990  226.7340 N   0  0  0  0  0  0  0  0  0  0  0  0
  136.9080   82.4010  226.1850 C   0  0  0  0  0  0  0  0  0  0  0  0
  138.2760   80.4860  224.4350 C   0  0  0  0  0  0  0  0  0  0  0  0
  140.4930   80.2310  223.3520 C   0  0  0  0  0  0  0  0  0  0  0  0
  141.1830   81.2600  223.9480 C   0  0  0  0  0  0  0  0  0  0  0  0
  142.5750   81.2260  223.8650 C   0  0  0  0  0  0  0  0  0  0  0  0
  143.2410   80.1950  223.2080 C   0  0  0  0  0  0  0  0  0  0  0  0
  142.5400   79.1610  222.6090 C   0  0  0  0  0  0  0  0  0  0  0  0
  141.1660   79.1990  222.6940 C   0  0  0  0  0  0  0  0  0  0  0  0
  142.3070   76.4560  220.0370 N   0  0  0  0  0  0  0  0  0  0  0  0
  142.8750   75.2490  219.9800 C   0  0  0  0  0  0  0  0  0  0  0  0
  144.0310   74.7050  219.4170 C   0  0  0  0  0  0  0  0  0  0  0  0
  146.3050   72.7360  216.8670 H   0  0  0  0  0  0  0  0  0  0  0  0
  145.9010   74.3740  217.5150 H   0  0  0  0  0  0  0  0  0  0  0  0
  143.7885   71.4421  220.3493 H   0  0  0  0  0  0  0  0  0  0  0  0
  141.6904   72.3707  221.3867 H   0  0  0  0  0  0  0  0  0  0  0  0
  140.1894   74.7106  221.7366 H   0  0  0  0  0  0  0  0  0  0  0  0
  138.1017   78.0871  222.7175 H   0  0  0  0  0  0  0  0  0  0  0  0
  139.1379   77.9048  224.0846 H   0  0  0  0  0  0  0  0  0  0  0  0
  139.0537   80.7443  221.2570 H   0  0  0  0  0  0  0  0  0  0  0  0
  137.5224   80.0335  221.7140 H   0  0  0  0  0  0  0  0  0  0  0  0
  138.6505   82.7314  222.3235 H   0  0  0  0  0  0  0  0  0  0  0  0
  136.9412   82.2127  222.3200 H   0  0  0  0  0  0  0  0  0  0  0  0
  136.6291   83.3175  224.2388 H   0  0  0  0  0  0  0  0  0  0  0  0
  134.7143   82.2237  224.1545 H   0  0  0  0  0  0  0  0  0  0  0  0
  135.6800   80.8493  223.6069 H   0  0  0  0  0  0  0  0  0  0  0  0
  134.1945   81.0795  226.0465 H   0  0  0  0  0  0  0  0  0  0  0  0
  135.3045   79.7541  225.6005 H   0  0  0  0  0  0  0  0  0  0  0  0
  135.6530   81.6890  227.5730 H   0  0  0  0  0  0  0  0  0  0  0  0
  136.5074   83.3545  226.5597 H   0  0  0  0  0  0  0  0  0  0  0  0
  137.9660   82.3391  226.4795 H   0  0  0  0  0  0  0  0  0  0  0  0
  138.8743   80.4255  225.3560 H   0  0  0  0  0  0  0  0  0  0  0  0
  137.3632   79.8995  224.6162 H   0  0  0  0  0  0  0  0  0  0  0  0
  140.6595   82.0756  224.4683 H   0  0  0  0  0  0  0  0  0  0  0  0
  143.1604   82.0330  224.3297 H   0  0  0  0  0  0  0  0  0  0  0  0
  144.3401   80.2015  223.1638 H   0  0  0  0  0  0  0  0  0  0  0  0
  143.0593   78.3437  222.0872 H   0  0  0  0  0  0  0  0  0  0  0  0
  142.6960   77.3330  219.5920 H   0  0  0  0  0  0  0  0  0  0  0  0
  144.7093   75.3616  218.8523 H   0  0  0  0  0  0  0  0  0  0  0  0
  1  2  1  0
  2  3  2  0
  2  4  1  0
  4  5  2  0
  5  6  1  0
  6  7  2  0
  7  8  1  0
  8  9  2  0
  9 10  1  0
 10 11  2  0
 10 12  1  0
 12 13  1  0
 14 13  1  6
 14 15  1  0
 15 16  1  0
 16 17  1  0
 17 18  1  0
 18 19  1  0
 19 20  1  0
 20 21  1  0
 21 22  1  0
 17 23  1  0
 14 24  1  0
 24 25  2  0
 25 26  1  0
 26 27  2  0
 27 28  1  0
 28 29  2  0
  9 30  1  0
 30 31  1  0
 31 32  2  0
 32  4  1  0
 31  7  1  0
 29 12  1  0
 23 14  1  0
 29 24  1  0
 22 18  1  0
  1 33  1  0
  1 34  1  0
  5 35  1  0
  6 36  1  0
  8 37  1  0
 13 38  1  0
 13 39  1  0
 15 40  1  0
 15 41  1  0
 16 42  1  0
 16 43  1  0
 18 44  1  6
 19 45  1  0
 19 46  1  0
 20 47  1  0
 20 48  1  0
 21 49  1  0
 22 50  1  0
 22 51  1  0
 23 52  1  0
 23 53  1  0
 25 54  1  0
 26 55  1  0
 27 56  1  0
 28 57  1  0
 30 58  1  0
 32 59  1  0
M  END
>  <smiles>  (78) 
NC(=O)c1ccc2cc(C(=O)N3C[C@]4(CCN(C5CCNC5)C4)c4ccccc43)[nH]c2c1

>  <score_type>  (78) 
oracle

>  <origin>  (78) 
autodockgpu

>  <m_score__min__energy>  (78) 
-8.9299999999999997

>  <m_primary>  (78) 
energy

>  <rmsd>  (78) 
6.914699616304616

>  <m_score__min__rmsd>  (78) 
6.914699616304616

>  <meeko>  (78) 
{"free_energy": -8.51, "intermolecular_energy": -9.71, "internal_energy": -1.19, "cluster_size": 27, "cluster_id": 1, "rank_in_cluster": 24}

>  <energy>  (78) 
-8.82

>  <cluster_rmsd>  (78) 
0.0

>  <cluster>  (78) 
2

$$$$

     RDKit          3D

 59 64  0  0  1  0  0  0  0  0999 V2000
  136.1280   81.3730  230.2730 N   0  0  0  0  0  0  0  0  0  0  0  0
  135.0430   81.6540  229.3830 C   0  0  0  0  0  0  0  0  0  0  0  0
  133.8560   81.6040  229.7680 O   0  0  0  0  0  0  0  0  0  0  0  0
  135.3450   82.0100  227.9790 C   0  0  0  0  0  0  0  0  0  0  0  0
  134.6220   83.0050  227.3690 C   0  0  0  0  0  0  0  0  0  0  0  0
  134.9250   83.3210  226.0400 C   0  0  0  0  0  0  0  0  0  0  0  0
  135.9310   82.6310  225.3910 C   0  0  0  0  0  0  0  0  0  0  0  0
  136.4130   82.7530  224.1170 C   0  0  0  0  0  0  0  0  0  0  0  0
  137.4560   81.8240  223.9120 C   0  0  0  0  0  0  0  0  0  0  0  0
  138.1370   81.7490  222.6560 C   0  0  0  0  0  0  0  0  0  0  0  0
  137.7180   82.5640  221.7500 O   0  0  0  0  0  0  0  0  0  0  0  0
  139.1990   80.9120  222.2730 N   0  0  0  0  0  0  0  0  0  0  0  0
  139.1650   79.9660  221.1270 C   0  0  0  0  0  0  0  0  0  0  0  0
  139.8360   78.7720  221.7850 C   0  0  1  0  0  0  0  0  0  0  0  0
  138.8690   78.0070  222.6380 C   0  0  0  0  0  0  0  0  0  0  0  0
  139.4880   76.6410  222.6950 C   0  0  0  0  0  0  0  0  0  0  0  0
  140.4350   76.5320  221.6090 N   0  0  0  0  0  0  0  0  0  0  0  0
  140.2410   75.3360  220.8310 C   0  0  1  0  0  0  0  0  0  0  0  0
  141.4580   74.6260  220.3830 C   0  0  0  0  0  0  0  0  0  0  0  0
  141.5210   73.3720  221.2230 C   0  0  0  0  0  0  0  0  0  0  0  0
  140.3220   73.3110  222.0250 N   0  0  0  0  0  0  0  0  0  0  0  0
  139.4270   74.3520  221.5830 C   0  0  0  0  0  0  0  0  0  0  0  0
  140.3130   77.7380  220.8230 C   0  0  0  0  0  0  0  0  0  0  0  0
  140.9090   79.4410  222.5240 C   0  0  0  0  0  0  0  0  0  0  0  0
  142.1430   78.9790  222.9200 C   0  0  0  0  0  0  0  0  0  0  0  0
  142.9640   79.8680  223.6140 C   0  0  0  0  0  0  0  0  0  0  0  0
  142.5550   81.1690  223.8950 C   0  0  0  0  0  0  0  0  0  0  0  0
  141.3120   81.6290  223.4940 C   0  0  0  0  0  0  0  0  0  0  0  0
  140.5050   80.7470  222.8090 C   0  0  0  0  0  0  0  0  0  0  0  0
  137.5510   81.1840  225.0780 N   0  0  0  0  0  0  0  0  0  0  0  0
  136.6700   81.6300  225.9770 C   0  0  0  0  0  0  0  0  0  0  0  0
  136.3470   81.3360  227.3030 C   0  0  0  0  0  0  0  0  0  0  0  0
  136.1440   80.5790  230.9330 H   0  0  0  0  0  0  0  0  0  0  0  0
  136.9380   82.0370  230.2210 H   0  0  0  0  0  0  0  0  0  0  0  0
  133.8267   83.5389  227.9099 H   0  0  0  0  0  0  0  0  0  0  0  0
  134.3674   84.1116  225.5166 H   0  0  0  0  0  0  0  0  0  0  0  0
  136.0439   83.4668  223.3659 H   0  0  0  0  0  0  0  0  0  0  0  0
  138.1364   79.7384  220.8103 H   0  0  0  0  0  0  0  0  0  0  0  0
  139.6400   80.3256  220.2023 H   0  0  0  0  0  0  0  0  0  0  0  0
  138.7903   78.4490  223.6422 H   0  0  0  0  0  0  0  0  0  0  0  0
  137.8433   78.0051  222.2406 H   0  0  0  0  0  0  0  0  0  0  0  0
  140.0057   76.5060  223.6562 H   0  0  0  0  0  0  0  0  0  0  0  0
  138.7121   75.8667  222.6034 H   0  0  0  0  0  0  0  0  0  0  0  0
  139.7446   75.7169  219.9263 H   0  0  0  0  0  0  0  0  0  0  0  0
  141.3842   74.3712  219.3155 H   0  0  0  0  0  0  0  0  0  0  0  0
  142.3601   75.2443  220.5014 H   0  0  0  0  0  0  0  0  0  0  0  0
  141.5790   72.4883  220.5706 H   0  0  0  0  0  0  0  0  0  0  0  0
  142.4117   73.3889  221.8683 H   0  0  0  0  0  0  0  0  0  0  0  0
  139.8050   72.4070  221.8650 H   0  0  0  0  0  0  0  0  0  0  0  0
  138.6489   73.9289  220.9307 H   0  0  0  0  0  0  0  0  0  0  0  0
  138.9282   74.8293  222.4394 H   0  0  0  0  0  0  0  0  0  0  0  0
  141.2865   78.0238  220.3979 H   0  0  0  0  0  0  0  0  0  0  0  0
  139.6258   77.6125  219.9733 H   0  0  0  0  0  0  0  0  0  0  0  0
  142.4685   77.9518  222.6987 H   0  0  0  0  0  0  0  0  0  0  0  0
  143.9576   79.5335  223.9470 H   0  0  0  0  0  0  0  0  0  0  0  0
  143.2299   81.8419  224.4442 H   0  0  0  0  0  0  0  0  0  0  0  0
  140.9827   82.6554  223.7131 H   0  0  0  0  0  0  0  0  0  0  0  0
  138.2550   80.4130  225.2480 H   0  0  0  0  0  0  0  0  0  0  0  0
  136.9053   80.5454  227.8258 H   0  0  0  0  0  0  0  0  0  0  0  0
  1  2  1  0
  2  3  2  0
  2  4  1  0
  4  5  2  0
  5  6  1  0
  6  7  2  0
  7  8  1  0
  8  9  2  0
  9 10  1  0
 10 11  2  0
 10 12  1  0
 12 13  1  0
 14 13  1  6
 14 15  1  0
 15 16  1  0
 16 17  1  0
 17 18  1  0
 18 19  1  0
 19 20  1  0
 20 21  1  0
 21 22  1  0
 17 23  1  0
 14 24  1  0
 24 25  2  0
 25 26  1  0
 26 27  2  0
 27 28  1  0
 28 29  2  0
  9 30  1  0
 30 31  1  0
 31 32  2  0
 32  4  1  0
 31  7  1  0
 29 12  1  0
 23 14  1  0
 29 24  1  0
 22 18  1  0
  1 33  1  0
  1 34  1  0
  5 35  1  0
  6 36  1  0
  8 37  1  0
 13 38  1  0
 13 39  1  0
 15 40  1  0
 15 41  1  0
 16 42  1  0
 16 43  1  0
 18 44  1  6
 19 45  1  0
 19 46  1  0
 20 47  1  0
 20 48  1  0
 21 49  1  0
 22 50  1  0
 22 51  1  0
 23 52  1  0
 23 53  1  0
 25 54  1  0
 26 55  1  0
 27 56  1  0
 28 57  1  0
 30 58  1  0
 32 59  1  0
M  END
>  <smiles>  (79) 
NC(=O)c1ccc2cc(C(=O)N3C[C@]4(CCN(C5CCNC5)C4)c4ccccc43)[nH]c2c1

>  <score_type>  (79) 
oracle

>  <origin>  (79) 
autodockgpu

>  <m_score__min__energy>  (79) 
-8.9299999999999997

>  <m_primary>  (79) 
energy

>  <rmsd>  (79) 
9.707460334832563

>  <m_score__min__rmsd>  (79) 
9.707460334832563

>  <meeko>  (79) 
{"free_energy": -8.63, "intermolecular_energy": -9.82, "internal_energy": -1.17, "cluster_size": 12, "cluster_id": 2, "rank_in_cluster": 8}

>  <energy>  (79) 
-8.8

>  <cluster_rmsd>  (79) 
0.19

>  <cluster>  (79) 
2

$$$$

     RDKit          3D

 59 64  0  0  1  0  0  0  0  0999 V2000
  146.1170   71.7180  220.1070 N   0  0  0  0  0  0  0  0  0  0  0  0
  145.5560   72.7110  219.2410 C   0  0  0  0  0  0  0  0  0  0  0  0
  146.1370   73.0630  218.1940 O   0  0  0  0  0  0  0  0  0  0  0  0
  144.2610   73.3250  219.6050 C   0  0  0  0  0  0  0  0  0  0  0  0
  143.1650   72.5190  219.7920 C   0  0  0  0  0  0  0  0  0  0  0  0
  141.9510   73.1250  220.1320 C   0  0  0  0  0  0  0  0  0  0  0  0
  141.8920   74.4980  220.2700 C   0  0  0  0  0  0  0  0  0  0  0  0
  140.8440   75.3140  220.5960 C   0  0  0  0  0  0  0  0  0  0  0  0
  141.2770   76.6580  220.6170 C   0  0  0  0  0  0  0  0  0  0  0  0
  140.3700   77.7170  220.9370 C   0  0  0  0  0  0  0  0  0  0  0  0
  139.5220   78.0170  220.0140 O   0  0  0  0  0  0  0  0  0  0  0  0
  140.2740   78.4740  222.1170 N   0  0  0  0  0  0  0  0  0  0  0  0
  139.0990   78.4820  223.0280 C   0  0  0  0  0  0  0  0  0  0  0  0
  139.0220   79.9740  223.3020 C   0  0  1  0  0  0  0  0  0  0  0  0
  138.3430   80.6980  222.1790 C   0  0  0  0  0  0  0  0  0  0  0  0
  137.8420   81.9460  222.8450 C   0  0  0  0  0  0  0  0  0  0  0  0
  137.8280   81.7170  224.2730 N   0  0  0  0  0  0  0  0  0  0  0  0
  136.5650   82.0680  224.8700 C   0  0  1  0  0  0  0  0  0  0  0  0
  136.1020   81.2270  225.9940 C   0  0  0  0  0  0  0  0  0  0  0  0
  136.2640   82.0840  227.2280 C   0  0  0  0  0  0  0  0  0  0  0  0
  136.6820   83.4000  226.8060 N   0  0  0  0  0  0  0  0  0  0  0  0
  136.5950   83.4640  225.3680 C   0  0  0  0  0  0  0  0  0  0  0  0
  138.1790   80.3320  224.4790 C   0  0  0  0  0  0  0  0  0  0  0  0
  140.4430   80.2910  223.4670 C   0  0  0  0  0  0  0  0  0  0  0  0
  141.0570   81.2890  224.1860 C   0  0  0  0  0  0  0  0  0  0  0  0
  142.4510   81.3310  224.1560 C   0  0  0  0  0  0  0  0  0  0  0  0
  143.1930   80.4020  223.4300 C   0  0  0  0  0  0  0  0  0  0  0  0
  142.5690   79.4000  222.7080 C   0  0  0  0  0  0  0  0  0  0  0  0
  141.1920   79.3620  222.7400 C   0  0  0  0  0  0  0  0  0  0  0  0
  142.5710   76.5840  220.3010 N   0  0  0  0  0  0  0  0  0  0  0  0
  142.9730   75.3290  220.0890 C   0  0  0  0  0  0  0  0  0  0  0  0
  144.1710   74.6980  219.7500 C   0  0  0  0  0  0  0  0  0  0  0  0
  147.1110   71.6890  220.3860 H   0  0  0  0  0  0  0  0  0  0  0  0
  145.4440   70.9940  220.4590 H   0  0  0  0  0  0  0  0  0  0  0  0
  143.2397   71.4275  219.6776 H   0  0  0  0  0  0  0  0  0  0  0  0
  141.0505   72.5129  220.2882 H   0  0  0  0  0  0  0  0  0  0  0  0
  139.8195   74.9750  220.8094 H   0  0  0  0  0  0  0  0  0  0  0  0
  138.1911   78.1059  222.5337 H   0  0  0  0  0  0  0  0  0  0  0  0
  139.1855   77.8411  223.9178 H   0  0  0  0  0  0  0  0  0  0  0  0
  139.0535   80.9362  221.3738 H   0  0  0  0  0  0  0  0  0  0  0  0
  137.5468   80.1099  221.6992 H   0  0  0  0  0  0  0  0  0  0  0  0
  138.5087   82.7884  222.6087 H   0  0  0  0  0  0  0  0  0  0  0  0
  136.8306   82.1897  222.4876 H   0  0  0  0  0  0  0  0  0  0  0  0
  135.8568   81.9115  224.0430 H   0  0  0  0  0  0  0  0  0  0  0  0
  135.0475   80.9462  225.8559 H   0  0  0  0  0  0  0  0  0  0  0  0
  136.6743   80.2905  226.0677 H   0  0  0  0  0  0  0  0  0  0  0  0
  135.3060   82.1508  227.7644 H   0  0  0  0  0  0  0  0  0  0  0  0
  137.0125   81.6437  227.9032 H   0  0  0  0  0  0  0  0  0  0  0  0
  136.0220   84.1390  227.1630 H   0  0  0  0  0  0  0  0  0  0  0  0
  135.6771   83.9911  225.0687 H   0  0  0  0  0  0  0  0  0  0  0  0
  137.4521   84.0109  224.9481 H   0  0  0  0  0  0  0  0  0  0  0  0
  138.7466   80.2109  225.4135 H   0  0  0  0  0  0  0  0  0  0  0  0
  137.2921   79.6872  224.5662 H   0  0  0  0  0  0  0  0  0  0  0  0
  140.4737   82.0234  224.7607 H   0  0  0  0  0  0  0  0  0  0  0  0
  142.9768   82.1163  224.7189 H   0  0  0  0  0  0  0  0  0  0  0  0
  144.2911   80.4659  223.4307 H   0  0  0  0  0  0  0  0  0  0  0  0
  143.1487   78.6637  222.1319 H   0  0  0  0  0  0  0  0  0  0  0  0
  143.1880   77.4400  220.2320 H   0  0  0  0  0  0  0  0  0  0  0  0
  145.0709   75.3109  219.5934 H   0  0  0  0  0  0  0  0  0  0  0  0
  1  2  1  0
  2  3  2  0
  2  4  1  0
  4  5  2  0
  5  6  1  0
  6  7  2  0
  7  8  1  0
  8  9  2  0
  9 10  1  0
 10 11  2  0
 10 12  1  0
 12 13  1  0
 14 13  1  6
 14 15  1  0
 15 16  1  0
 16 17  1  0
 17 18  1  0
 18 19  1  0
 19 20  1  0
 20 21  1  0
 21 22  1  0
 17 23  1  0
 14 24  1  0
 24 25  2  0
 25 26  1  0
 26 27  2  0
 27 28  1  0
 28 29  2  0
  9 30  1  0
 30 31  1  0
 31 32  2  0
 32  4  1  0
 31  7  1  0
 29 12  1  0
 23 14  1  0
 29 24  1  0
 22 18  1  0
  1 33  1  0
  1 34  1  0
  5 35  1  0
  6 36  1  0
  8 37  1  0
 13 38  1  0
 13 39  1  0
 15 40  1  0
 15 41  1  0
 16 42  1  0
 16 43  1  0
 18 44  1  6
 19 45  1  0
 19 46  1  0
 20 47  1  0
 20 48  1  0
 21 49  1  0
 22 50  1  0
 22 51  1  0
 23 52  1  0
 23 53  1  0
 25 54  1  0
 26 55  1  0
 27 56  1  0
 28 57  1  0
 30 58  1  0
 32 59  1  0
M  END
>  <smiles>  (80) 
NC(=O)c1ccc2cc(C(=O)N3C[C@]4(CCN(C5CCNC5)C4)c4ccccc43)[nH]c2c1

>  <score_type>  (80) 
oracle

>  <origin>  (80) 
autodockgpu

>  <m_score__min__energy>  (80) 
-8.9299999999999997

>  <m_primary>  (80) 
energy

>  <rmsd>  (80) 
6.977727972024516

>  <m_score__min__rmsd>  (80) 
6.977727972024516

>  <meeko>  (80) 
{"free_energy": -8.64, "intermolecular_energy": -9.83, "internal_energy": -1.13, "cluster_size": 27, "cluster_id": 1, "rank_in_cluster": 18}

>  <energy>  (80) 
-8.7

>  <cluster_rmsd>  (80) 
0.77

>  <cluster>  (80) 
2

$$$$

     RDKit          3D

 59 64  0  0  1  0  0  0  0  0999 V2000
  136.0420   81.3610  230.3810 N   0  0  0  0  0  0  0  0  0  0  0  0
  135.0500   81.7110  229.4090 C   0  0  0  0  0  0  0  0  0  0  0  0
  133.8310   81.6510  229.6730 O   0  0  0  0  0  0  0  0  0  0  0  0
  135.4910   82.1480  228.0670 C   0  0  0  0  0  0  0  0  0  0  0  0
  135.1900   83.4200  227.6430 C   0  0  0  0  0  0  0  0  0  0  0  0
  135.6140   83.8090  226.3690 C   0  0  0  0  0  0  0  0  0  0  0  0
  136.3160   82.9140  225.5850 C   0  0  0  0  0  0  0  0  0  0  0  0
  136.8370   83.0520  224.3270 C   0  0  0  0  0  0  0  0  0  0  0  0
  137.4770   81.8540  223.9440 C   0  0  0  0  0  0  0  0  0  0  0  0
  138.1110   81.7360  222.6660 C   0  0  0  0  0  0  0  0  0  0  0  0
  137.6460   82.5070  221.7450 O   0  0  0  0  0  0  0  0  0  0  0  0
  139.1710   80.8990  222.2780 N   0  0  0  0  0  0  0  0  0  0  0  0
  139.1280   79.9470  221.1380 C   0  0  0  0  0  0  0  0  0  0  0  0
  139.8080   78.7580  221.7960 C   0  0  1  0  0  0  0  0  0  0  0  0
  138.8510   77.9960  222.6620 C   0  0  0  0  0  0  0  0  0  0  0  0
  139.4730   76.6320  222.7220 C   0  0  0  0  0  0  0  0  0  0  0  0
  140.4100   76.5180  221.6270 N   0  0  0  0  0  0  0  0  0  0  0  0
  140.2110   75.3180  220.8570 C   0  0  1  0  0  0  0  0  0  0  0  0
  141.4240   74.6020  220.4090 C   0  0  0  0  0  0  0  0  0  0  0  0
  141.4880   73.3530  221.2580 C   0  0  0  0  0  0  0  0  0  0  0  0
  140.2920   73.3000  222.0650 N   0  0  0  0  0  0  0  0  0  0  0  0
  139.3980   74.3400  221.6190 C   0  0  0  0  0  0  0  0  0  0  0  0
  140.2770   77.7190  220.8350 C   0  0  0  0  0  0  0  0  0  0  0  0
  140.8870   79.4330  222.5210 C   0  0  0  0  0  0  0  0  0  0  0  0
  142.1250   78.9760  222.9080 C   0  0  0  0  0  0  0  0  0  0  0  0
  142.9510   79.8700  223.5880 C   0  0  0  0  0  0  0  0  0  0  0  0
  142.5430   81.1730  223.8660 C   0  0  0  0  0  0  0  0  0  0  0  0
  141.2950   81.6270  223.4750 C   0  0  0  0  0  0  0  0  0  0  0  0
  140.4830   80.7400  222.8030 C   0  0  0  0  0  0  0  0  0  0  0  0
  137.3100   81.0490  224.9930 N   0  0  0  0  0  0  0  0  0  0  0  0
  136.6310   81.6350  225.9820 C   0  0  0  0  0  0  0  0  0  0  0  0
  136.1950   81.2740  227.2580 C   0  0  0  0  0  0  0  0  0  0  0  0
  135.9880   80.5280  230.9880 H   0  0  0  0  0  0  0  0  0  0  0  0
  136.8570   82.0180  230.4500 H   0  0  0  0  0  0  0  0  0  0  0  0
  134.6307   84.1132  228.2885 H   0  0  0  0  0  0  0  0  0  0  0  0
  135.3907   84.8187  225.9941 H   0  0  0  0  0  0  0  0  0  0  0  0
  136.7675   83.9589  223.7084 H   0  0  0  0  0  0  0  0  0  0  0  0
  138.0969   79.7155  220.8325 H   0  0  0  0  0  0  0  0  0  0  0  0
  139.5932   80.3025  220.2068 H   0  0  0  0  0  0  0  0  0  0  0  0
  138.7803   78.4439  223.6642 H   0  0  0  0  0  0  0  0  0  0  0  0
  137.8219   77.9893  222.2735 H   0  0  0  0  0  0  0  0  0  0  0  0
  140.0003   76.5042  223.6789 H   0  0  0  0  0  0  0  0  0  0  0  0
  138.6979   75.8555  222.6432 H   0  0  0  0  0  0  0  0  0  0  0  0
  139.7126   75.6949  219.9517 H   0  0  0  0  0  0  0  0  0  0  0  0
  141.3450   74.3398  219.3436 H   0  0  0  0  0  0  0  0  0  0  0  0
  142.3280   75.2190  220.5193 H   0  0  0  0  0  0  0  0  0  0  0  0
  141.5417   72.4646  220.6115 H   0  0  0  0  0  0  0  0  0  0  0  0
  142.3813   73.3726  221.8996 H   0  0  0  0  0  0  0  0  0  0  0  0
  139.7730   72.3960  221.9130 H   0  0  0  0  0  0  0  0  0  0  0  0
  138.6167   73.9140  220.9724 H   0  0  0  0  0  0  0  0  0  0  0  0
  138.9038   74.8242  222.4742 H   0  0  0  0  0  0  0  0  0  0  0  0
  141.2452   78.0042  220.3978 H   0  0  0  0  0  0  0  0  0  0  0  0
  139.5810   77.5869  219.9935 H   0  0  0  0  0  0  0  0  0  0  0  0
  142.4500   77.9479  222.6901 H   0  0  0  0  0  0  0  0  0  0  0  0
  143.9484   79.5388  223.9127 H   0  0  0  0  0  0  0  0  0  0  0  0
  143.2223   81.8506  224.4039 H   0  0  0  0  0  0  0  0  0  0  0  0
  140.9653   82.6538  223.6920 H   0  0  0  0  0  0  0  0  0  0  0  0
  137.6830   80.0600  225.0160 H   0  0  0  0  0  0  0  0  0  0  0  0
  136.4180   80.2637  227.6317 H   0  0  0  0  0  0  0  0  0  0  0  0
  1  2  1  0
  2  3  2  0
  2  4  1  0
  4  5  2  0
  5  6  1  0
  6  7  2  0
  7  8  1  0
  8  9  2  0
  9 10  1  0
 10 11  2  0
 10 12  1  0
 12 13  1  0
 14 13  1  6
 14 15  1  0
 15 16  1  0
 16 17  1  0
 17 18  1  0
 18 19  1  0
 19 20  1  0
 20 21  1  0
 21 22  1  0
 17 23  1  0
 14 24  1  0
 24 25  2  0
 25 26  1  0
 26 27  2  0
 27 28  1  0
 28 29  2  0
  9 30  1  0
 30 31  1  0
 31 32  2  0
 32  4  1  0
 31  7  1  0
 29 12  1  0
 23 14  1  0
 29 24  1  0
 22 18  1  0
  1 33  1  0
  1 34  1  0
  5 35  1  0
  6 36  1  0
  8 37  1  0
 13 38  1  0
 13 39  1  0
 15 40  1  0
 15 41  1  0
 16 42  1  0
 16 43  1  0
 18 44  1  6
 19 45  1  0
 19 46  1  0
 20 47  1  0
 20 48  1  0
 21 49  1  0
 22 50  1  0
 22 51  1  0
 23 52  1  0
 23 53  1  0
 25 54  1  0
 26 55  1  0
 27 56  1  0
 28 57  1  0
 30 58  1  0
 32 59  1  0
M  END
>  <smiles>  (81) 
NC(=O)c1ccc2cc(C(=O)N3C[C@]4(CCN(C5CCNC5)C4)c4ccccc43)[nH]c2c1

>  <score_type>  (81) 
oracle

>  <origin>  (81) 
autodockgpu

>  <m_score__min__energy>  (81) 
-8.9299999999999997

>  <m_primary>  (81) 
energy

>  <rmsd>  (81) 
9.789830490387835

>  <m_score__min__rmsd>  (81) 
9.789830490387835

>  <meeko>  (81) 
{"free_energy": -8.82, "intermolecular_energy": -10.01, "internal_energy": -1.17, "cluster_size": 12, "cluster_id": 2, "rank_in_cluster": 1}

>  <energy>  (81) 
-8.68

>  <cluster_rmsd>  (81) 
0.81

>  <cluster>  (81) 
2

$$$$

     RDKit          3D

 59 64  0  0  1  0  0  0  0  0999 V2000
  145.9900   73.3940  217.5800 N   0  0  0  0  0  0  0  0  0  0  0  0
  145.5820   72.9100  218.8650 C   0  0  0  0  0  0  0  0  0  0  0  0
  146.2410   72.0400  219.4710 O   0  0  0  0  0  0  0  0  0  0  0  0
  144.3520   73.4600  219.4760 C   0  0  0  0  0  0  0  0  0  0  0  0
  143.5020   72.6160  220.1470 C   0  0  0  0  0  0  0  0  0  0  0  0
  142.3440   73.1590  220.7130 C   0  0  0  0  0  0  0  0  0  0  0  0
  142.0950   74.5110  220.5820 C   0  0  0  0  0  0  0  0  0  0  0  0
  141.0540   75.2720  221.0420 C   0  0  0  0  0  0  0  0  0  0  0  0
  141.2430   76.6170  220.6580 C   0  0  0  0  0  0  0  0  0  0  0  0
  140.2930   77.6240  221.0190 C   0  0  0  0  0  0  0  0  0  0  0  0
  139.3520   77.8300  220.1640 O   0  0  0  0  0  0  0  0  0  0  0  0
  140.2440   78.4190  222.1780 N   0  0  0  0  0  0  0  0  0  0  0  0
  139.1070   78.4560  223.1340 C   0  0  0  0  0  0  0  0  0  0  0  0
  139.0380   79.9570  223.3630 C   0  0  1  0  0  0  0  0  0  0  0  0
  138.3150   80.6440  222.2450 C   0  0  0  0  0  0  0  0  0  0  0  0
  137.8390   81.9130  222.8900 C   0  0  0  0  0  0  0  0  0  0  0  0
  137.8820   81.7310  224.3240 N   0  0  0  0  0  0  0  0  0  0  0  0
  136.6440   82.1010  224.9600 C   0  0  1  0  0  0  0  0  0  0  0  0
  135.9020   81.0260  225.6520 C   0  0  0  0  0  0  0  0  0  0  0  0
  136.0710   81.3090  227.1260 C   0  0  0  0  0  0  0  0  0  0  0  0
  136.7730   82.5630  227.2630 N   0  0  0  0  0  0  0  0  0  0  0  0
  136.8720   83.1710  225.9590 C   0  0  0  0  0  0  0  0  0  0  0  0
  138.2430   80.3520  224.5600 C   0  0  0  0  0  0  0  0  0  0  0  0
  140.4640   80.2780  223.4600 C   0  0  0  0  0  0  0  0  0  0  0  0
  141.1060   81.3000  224.1220 C   0  0  0  0  0  0  0  0  0  0  0  0
  142.4970   81.3400  224.0350 C   0  0  0  0  0  0  0  0  0  0  0  0
  143.2110   80.3880  223.3100 C   0  0  0  0  0  0  0  0  0  0  0  0
  142.5590   79.3630  222.6460 C   0  0  0  0  0  0  0  0  0  0  0  0
  141.1850   79.3270  222.7350 C   0  0  0  0  0  0  0  0  0  0  0  0
  142.3930   76.6010  219.9830 N   0  0  0  0  0  0  0  0  0  0  0  0
  142.9280   75.3790  219.9160 C   0  0  0  0  0  0  0  0  0  0  0  0
  144.0750   74.8110  219.3610 C   0  0  0  0  0  0  0  0  0  0  0  0
  146.3150   72.7870  216.8100 H   0  0  0  0  0  0  0  0  0  0  0  0
  145.9410   74.4340  217.4530 H   0  0  0  0  0  0  0  0  0  0  0  0
  143.7255   71.5427  220.2369 H   0  0  0  0  0  0  0  0  0  0  0  0
  141.6379   72.5149  221.2576 H   0  0  0  0  0  0  0  0  0  0  0  0
  140.2001   74.8929  221.6226 H   0  0  0  0  0  0  0  0  0  0  0  0
  138.1808   78.0636  222.6888 H   0  0  0  0  0  0  0  0  0  0  0  0
  139.2304   77.8443  224.0399 H   0  0  0  0  0  0  0  0  0  0  0  0
  138.9932   80.8561  221.4053 H   0  0  0  0  0  0  0  0  0  0  0  0
  137.5014   80.0408  221.8157 H   0  0  0  0  0  0  0  0  0  0  0  0
  138.4946   82.7474  222.6001 H   0  0  0  0  0  0  0  0  0  0  0  0
  136.8137   82.1444  222.5655 H   0  0  0  0  0  0  0  0  0  0  0  0
  136.0231   82.4189  224.1094 H   0  0  0  0  0  0  0  0  0  0  0  0
  134.8379   81.0521  225.3743 H   0  0  0  0  0  0  0  0  0  0  0  0
  136.2778   80.0284  225.3805 H   0  0  0  0  0  0  0  0  0  0  0  0
  135.0847   81.3790  227.6080 H   0  0  0  0  0  0  0  0  0  0  0  0
  136.6388   80.4992  227.6075 H   0  0  0  0  0  0  0  0  0  0  0  0
  136.2230   83.2420  227.8510 H   0  0  0  0  0  0  0  0  0  0  0  0
  136.1100   83.9569  225.8505 H   0  0  0  0  0  0  0  0  0  0  0  0
  137.8596   83.6343  225.8174 H   0  0  0  0  0  0  0  0  0  0  0  0
  138.8477   80.2607  225.4743 H   0  0  0  0  0  0  0  0  0  0  0  0
  137.3611   79.7104  224.7032 H   0  0  0  0  0  0  0  0  0  0  0  0
  140.5455   82.0531  224.6952 H   0  0  0  0  0  0  0  0  0  0  0  0
  143.0441   82.1426  224.5513 H   0  0  0  0  0  0  0  0  0  0  0  0
  144.3082   80.4518  223.2646 H   0  0  0  0  0  0  0  0  0  0  0  0
  143.1155   78.6083  222.0709 H   0  0  0  0  0  0  0  0  0  0  0  0
  142.8150   77.4730  219.5580 H   0  0  0  0  0  0  0  0  0  0  0  0
  144.7799   75.4560  218.8159 H   0  0  0  0  0  0  0  0  0  0  0  0
  1  2  1  0
  2  3  2  0
  2  4  1  0
  4  5  2  0
  5  6  1  0
  6  7  2  0
  7  8  1  0
  8  9  2  0
  9 10  1  0
 10 11  2  0
 10 12  1  0
 12 13  1  0
 14 13  1  6
 14 15  1  0
 15 16  1  0
 16 17  1  0
 17 18  1  0
 18 19  1  0
 19 20  1  0
 20 21  1  0
 21 22  1  0
 17 23  1  0
 14 24  1  0
 24 25  2  0
 25 26  1  0
 26 27  2  0
 27 28  1  0
 28 29  2  0
  9 30  1  0
 30 31  1  0
 31 32  2  0
 32  4  1  0
 31  7  1  0
 29 12  1  0
 23 14  1  0
 29 24  1  0
 22 18  1  0
  1 33  1  0
  1 34  1  0
  5 35  1  0
  6 36  1  0
  8 37  1  0
 13 38  1  0
 13 39  1  0
 15 40  1  0
 15 41  1  0
 16 42  1  0
 16 43  1  0
 18 44  1  6
 19 45  1  0
 19 46  1  0
 20 47  1  0
 20 48  1  0
 21 49  1  0
 22 50  1  0
 22 51  1  0
 23 52  1  0
 23 53  1  0
 25 54  1  0
 26 55  1  0
 27 56  1  0
 28 57  1  0
 30 58  1  0
 32 59  1  0
M  END
>  <smiles>  (82) 
NC(=O)c1ccc2cc(C(=O)N3C[C@]4(CCN(C5CCNC5)C4)c4ccccc43)[nH]c2c1

>  <score_type>  (82) 
oracle

>  <origin>  (82) 
autodockgpu

>  <m_score__min__energy>  (82) 
-8.9299999999999997

>  <m_primary>  (82) 
energy

>  <rmsd>  (82) 
7.074697488932453

>  <m_score__min__rmsd>  (82) 
7.074697488932453

>  <meeko>  (82) 
{"free_energy": -8.78, "intermolecular_energy": -9.98, "internal_energy": -1.15, "cluster_size": 27, "cluster_id": 1, "rank_in_cluster": 8}

>  <energy>  (82) 
-8.66

>  <cluster_rmsd>  (82) 
0.81

>  <cluster>  (82) 
2

$$$$

     RDKit          3D

 59 64  0  0  1  0  0  0  0  0999 V2000
  145.2390   71.4800  219.5720 N   0  0  0  0  0  0  0  0  0  0  0  0
  145.4940   72.8760  219.3820 C   0  0  0  0  0  0  0  0  0  0  0  0
  146.6590   73.3210  219.3160 O   0  0  0  0  0  0  0  0  0  0  0  0
  144.3470   73.8010  219.2610 C   0  0  0  0  0  0  0  0  0  0  0  0
  143.9260   74.1900  218.0130 C   0  0  0  0  0  0  0  0  0  0  0  0
  142.8410   75.0670  217.9260 C   0  0  0  0  0  0  0  0  0  0  0  0
  142.2320   75.5100  219.0840 C   0  0  0  0  0  0  0  0  0  0  0  0
  141.1680   76.3530  219.2630 C   0  0  0  0  0  0  0  0  0  0  0  0
  140.9090   76.5030  220.6420 C   0  0  0  0  0  0  0  0  0  0  0  0
  139.8380   77.3340  221.1010 C   0  0  0  0  0  0  0  0  0  0  0  0
  138.7390   77.2380  220.4350 O   0  0  0  0  0  0  0  0  0  0  0  0
  139.8180   78.2380  222.1780 N   0  0  0  0  0  0  0  0  0  0  0  0
  138.6850   78.4050  223.1260 C   0  0  0  0  0  0  0  0  0  0  0  0
  138.6670   79.9220  223.2090 C   0  0  1  0  0  0  0  0  0  0  0  0
  137.9630   80.5220  222.0300 C   0  0  0  0  0  0  0  0  0  0  0  0
  137.5320   81.8620  222.5490 C   0  0  0  0  0  0  0  0  0  0  0  0
  137.5730   81.8170  223.9940 N   0  0  0  0  0  0  0  0  0  0  0  0
  136.3500   82.2880  224.5910 C   0  0  1  0  0  0  0  0  0  0  0  0
  135.6700   81.3720  225.5310 C   0  0  0  0  0  0  0  0  0  0  0  0
  135.8880   81.9710  226.9010 C   0  0  0  0  0  0  0  0  0  0  0  0
  136.5540   83.2400  226.7320 N   0  0  0  0  0  0  0  0  0  0  0  0
  136.5830   83.5540  225.3250 C   0  0  0  0  0  0  0  0  0  0  0  0
  137.8890   80.4570  224.3620 C   0  0  0  0  0  0  0  0  0  0  0  0
  140.1030   80.2040  223.2750 C   0  0  0  0  0  0  0  0  0  0  0  0
  140.7800   81.2620  223.8350 C   0  0  0  0  0  0  0  0  0  0  0  0
  142.1720   81.2480  223.7450 C   0  0  0  0  0  0  0  0  0  0  0  0
  142.8520   80.2080  223.1150 C   0  0  0  0  0  0  0  0  0  0  0  0
  142.1640   79.1450  222.5530 C   0  0  0  0  0  0  0  0  0  0  0  0
  140.7900   79.1640  222.6450 C   0  0  0  0  0  0  0  0  0  0  0  0
  141.8320   75.7410  221.2300 N   0  0  0  0  0  0  0  0  0  0  0  0
  142.6320   75.1380  220.3460 C   0  0  0  0  0  0  0  0  0  0  0  0
  143.7160   74.2620  220.4040 C   0  0  0  0  0  0  0  0  0  0  0  0
  145.7400   70.8880  220.2550 H   0  0  0  0  0  0  0  0  0  0  0  0
  144.4900   71.0710  218.9620 H   0  0  0  0  0  0  0  0  0  0  0  0
  144.4288   73.8215  217.1067 H   0  0  0  0  0  0  0  0  0  0  0  0
  142.4753   75.4015  216.9439 H   0  0  0  0  0  0  0  0  0  0  0  0
  140.6015   76.8392  218.4551 H   0  0  0  0  0  0  0  0  0  0  0  0
  137.7449   78.0028  222.7204 H   0  0  0  0  0  0  0  0  0  0  0  0
  138.7903   77.8796  224.0867 H   0  0  0  0  0  0  0  0  0  0  0  0
  138.6448   80.6291  221.1734 H   0  0  0  0  0  0  0  0  0  0  0  0
  137.1281   79.9078  221.6616 H   0  0  0  0  0  0  0  0  0  0  0  0
  138.2145   82.6420  222.1805 H   0  0  0  0  0  0  0  0  0  0  0  0
  136.5143   82.0960  222.2031 H   0  0  0  0  0  0  0  0  0  0  0  0
  135.6865   82.4002  223.7208 H   0  0  0  0  0  0  0  0  0  0  0  0
  134.5955   81.3138  225.3027 H   0  0  0  0  0  0  0  0  0  0  0  0
  136.0660   80.3480  225.4639 H   0  0  0  0  0  0  0  0  0  0  0  0
  134.9198   82.1212  227.4011 H   0  0  0  0  0  0  0  0  0  0  0  0
  136.4997   81.2978  227.5195 H   0  0  0  0  0  0  0  0  0  0  0  0
  136.0070   84.0180  227.1850 H   0  0  0  0  0  0  0  0  0  0  0  0
  135.7930   84.2806  225.0842 H   0  0  0  0  0  0  0  0  0  0  0  0
  137.5490   83.9980  225.0428 H   0  0  0  0  0  0  0  0  0  0  0  0
  138.4931   80.4346  225.2810 H   0  0  0  0  0  0  0  0  0  0  0  0
  136.9869   79.8617  224.5664 H   0  0  0  0  0  0  0  0  0  0  0  0
  140.2462   82.0848  224.3330 H   0  0  0  0  0  0  0  0  0  0  0  0
  142.7465   82.0781  224.1819 H   0  0  0  0  0  0  0  0  0  0  0  0
  143.9505   80.2312  223.0631 H   0  0  0  0  0  0  0  0  0  0  0  0
  142.6933   78.3199  222.0539 H   0  0  0  0  0  0  0  0  0  0  0  0
  141.9020   75.6420  222.2800 H   0  0  0  0  0  0  0  0  0  0  0  0
  144.0802   73.9276  221.3866 H   0  0  0  0  0  0  0  0  0  0  0  0
  1  2  1  0
  2  3  2  0
  2  4  1  0
  4  5  2  0
  5  6  1  0
  6  7  2  0
  7  8  1  0
  8  9  2  0
  9 10  1  0
 10 11  2  0
 10 12  1  0
 12 13  1  0
 14 13  1  6
 14 15  1  0
 15 16  1  0
 16 17  1  0
 17 18  1  0
 18 19  1  0
 19 20  1  0
 20 21  1  0
 21 22  1  0
 17 23  1  0
 14 24  1  0
 24 25  2  0
 25 26  1  0
 26 27  2  0
 27 28  1  0
 28 29  2  0
  9 30  1  0
 30 31  1  0
 31 32  2  0
 32  4  1  0
 31  7  1  0
 29 12  1  0
 23 14  1  0
 29 24  1  0
 22 18  1  0
  1 33  1  0
  1 34  1  0
  5 35  1  0
  6 36  1  0
  8 37  1  0
 13 38  1  0
 13 39  1  0
 15 40  1  0
 15 41  1  0
 16 42  1  0
 16 43  1  0
 18 44  1  6
 19 45  1  0
 19 46  1  0
 20 47  1  0
 20 48  1  0
 21 49  1  0
 22 50  1  0
 22 51  1  0
 23 52  1  0
 23 53  1  0
 25 54  1  0
 26 55  1  0
 27 56  1  0
 28 57  1  0
 30 58  1  0
 32 59  1  0
M  END
>  <smiles>  (83) 
NC(=O)c1ccc2cc(C(=O)N3C[C@]4(CCN(C5CCNC5)C4)c4ccccc43)[nH]c2c1

>  <score_type>  (83) 
oracle

>  <origin>  (83) 
autodockgpu

>  <m_score__min__energy>  (83) 
-8.9299999999999997

>  <m_primary>  (83) 
energy

>  <rmsd>  (83) 
7.199848664478718

>  <m_score__min__rmsd>  (83) 
7.199848664478718

>  <meeko>  (83) 
{"free_energy": -8.35, "intermolecular_energy": -9.54, "internal_energy": -1.18, "cluster_size": 27, "cluster_id": 1, "rank_in_cluster": 26}

>  <energy>  (83) 
-8.66

>  <cluster_rmsd>  (83) 
0.81

>  <cluster>  (83) 
2

$$$$

     RDKit          3D

 59 64  0  0  1  0  0  0  0  0999 V2000
  144.9040   70.4510  219.1670 N   0  0  0  0  0  0  0  0  0  0  0  0
  145.1600   71.8310  219.4490 C   0  0  0  0  0  0  0  0  0  0  0  0
  146.3090   72.3120  219.3520 O   0  0  0  0  0  0  0  0  0  0  0  0
  144.0350   72.6960  219.8650 C   0  0  0  0  0  0  0  0  0  0  0  0
  142.9130   72.1210  220.4100 C   0  0  0  0  0  0  0  0  0  0  0  0
  141.8610   72.9590  220.7910 C   0  0  0  0  0  0  0  0  0  0  0  0
  141.9810   74.3240  220.6120 C   0  0  0  0  0  0  0  0  0  0  0  0
  141.1110   75.3390  220.9040 C   0  0  0  0  0  0  0  0  0  0  0  0
  141.6850   76.5760  220.5400 C   0  0  0  0  0  0  0  0  0  0  0  0
  140.9770   77.8030  220.7460 C   0  0  0  0  0  0  0  0  0  0  0  0
  140.4600   78.3270  219.6890 O   0  0  0  0  0  0  0  0  0  0  0  0
  140.7670   78.5130  221.9410 N   0  0  0  0  0  0  0  0  0  0  0  0
  139.5380   78.4330  222.7720 C   0  0  0  0  0  0  0  0  0  0  0  0
  139.3680   79.9100  223.0870 C   0  0  1  0  0  0  0  0  0  0  0  0
  138.7280   80.6390  221.9440 C   0  0  0  0  0  0  0  0  0  0  0  0
  138.1230   81.8370  222.6140 C   0  0  0  0  0  0  0  0  0  0  0  0
  138.0280   81.5590  224.0300 N   0  0  0  0  0  0  0  0  0  0  0  0
  136.7130   81.8290  224.5530 C   0  0  1  0  0  0  0  0  0  0  0  0
  136.3930   81.2570  225.8780 C   0  0  0  0  0  0  0  0  0  0  0  0
  136.3770   82.4320  226.8270 C   0  0  0  0  0  0  0  0  0  0  0  0
  136.5570   83.6360  226.0510 N   0  0  0  0  0  0  0  0  0  0  0  0
  136.4820   83.2890  224.6530 C   0  0  0  0  0  0  0  0  0  0  0  0
  138.4340   80.1860  224.2150 C   0  0  0  0  0  0  0  0  0  0  0  0
  140.7580   80.2890  223.3540 C   0  0  0  0  0  0  0  0  0  0  0  0
  141.2740   81.2900  224.1430 C   0  0  0  0  0  0  0  0  0  0  0  0
  142.6620   81.4000  224.2070 C   0  0  0  0  0  0  0  0  0  0  0  0
  143.4950   80.5340  223.5030 C   0  0  0  0  0  0  0  0  0  0  0  0
  142.9700   79.5270  222.7100 C   0  0  0  0  0  0  0  0  0  0  0  0
  141.5980   79.4230  222.6510 C   0  0  0  0  0  0  0  0  0  0  0  0
  142.8780   76.2440  220.0440 N   0  0  0  0  0  0  0  0  0  0  0  0
  143.0910   74.9270  220.0690 C   0  0  0  0  0  0  0  0  0  0  0  0
  144.1260   74.0660  219.6970 C   0  0  0  0  0  0  0  0  0  0  0  0
  145.4970   69.6730  219.4960 H   0  0  0  0  0  0  0  0  0  0  0  0
  144.0510   70.2610  218.5860 H   0  0  0  0  0  0  0  0  0  0  0  0
  142.8441   71.0312  220.5430 H   0  0  0  0  0  0  0  0  0  0  0  0
  140.9454   72.5355  221.2296 H   0  0  0  0  0  0  0  0  0  0  0  0
  140.1155   75.2104  221.3540 H   0  0  0  0  0  0  0  0  0  0  0  0
  138.6839   78.0306  222.2076 H   0  0  0  0  0  0  0  0  0  0  0  0
  139.5997   77.7669  223.6452 H   0  0  0  0  0  0  0  0  0  0  0  0
  139.4766   80.9388  221.1959 H   0  0  0  0  0  0  0  0  0  0  0  0
  137.9954   80.0304  221.3936 H   0  0  0  0  0  0  0  0  0  0  0  0
  138.7604   82.7182  222.4489 H   0  0  0  0  0  0  0  0  0  0  0  0
  137.1258   82.0434  222.1982 H   0  0  0  0  0  0  0  0  0  0  0  0
  136.0574   81.3302  223.8240 H   0  0  0  0  0  0  0  0  0  0  0  0
  135.4094   80.7649  225.8577 H   0  0  0  0  0  0  0  0  0  0  0  0
  137.1247   80.4942  226.1826 H   0  0  0  0  0  0  0  0  0  0  0  0
  135.4140   82.4703  227.3572 H   0  0  0  0  0  0  0  0  0  0  0  0
  137.1817   82.3332  227.5704 H   0  0  0  0  0  0  0  0  0  0  0  0
  135.7680   84.3140  226.2170 H   0  0  0  0  0  0  0  0  0  0  0  0
  135.4885   83.5419  224.2543 H   0  0  0  0  0  0  0  0  0  0  0  0
  137.2321   83.8446  224.0711 H   0  0  0  0  0  0  0  0  0  0  0  0
  138.9450   80.0598  225.1809 H   0  0  0  0  0  0  0  0  0  0  0  0
  137.5767   79.4968  224.2223 H   0  0  0  0  0  0  0  0  0  0  0  0
  140.6187   81.9754  224.7005 H   0  0  0  0  0  0  0  0  0  0  0  0
  143.1100   82.1895  224.8282 H   0  0  0  0  0  0  0  0  0  0  0  0
  144.5861   80.6514  223.5778 H   0  0  0  0  0  0  0  0  0  0  0  0
  143.6215   78.8393  222.1509 H   0  0  0  0  0  0  0  0  0  0  0  0
  143.5610   76.9640  219.6790 H   0  0  0  0  0  0  0  0  0  0  0  0
  145.0408   74.4901  219.2573 H   0  0  0  0  0  0  0  0  0  0  0  0
  1  2  1  0
  2  3  2  0
  2  4  1  0
  4  5  2  0
  5  6  1  0
  6  7  2  0
  7  8  1  0
  8  9  2  0
  9 10  1  0
 10 11  2  0
 10 12  1  0
 12 13  1  0
 14 13  1  6
 14 15  1  0
 15 16  1  0
 16 17  1  0
 17 18  1  0
 18 19  1  0
 19 20  1  0
 20 21  1  0
 21 22  1  0
 17 23  1  0
 14 24  1  0
 24 25  2  0
 25 26  1  0
 26 27  2  0
 27 28  1  0
 28 29  2  0
  9 30  1  0
 30 31  1  0
 31 32  2  0
 32  4  1  0
 31  7  1  0
 29 12  1  0
 23 14  1  0
 29 24  1  0
 22 18  1  0
  1 33  1  0
  1 34  1  0
  5 35  1  0
  6 36  1  0
  8 37  1  0
 13 38  1  0
 13 39  1  0
 15 40  1  0
 15 41  1  0
 16 42  1  0
 16 43  1  0
 18 44  1  6
 19 45  1  0
 19 46  1  0
 20 47  1  0
 20 48  1  0
 21 49  1  0
 22 50  1  0
 22 51  1  0
 23 52  1  0
 23 53  1  0
 25 54  1  0
 26 55  1  0
 27 56  1  0
 28 57  1  0
 30 58  1  0
 32 59  1  0
M  END
>  <smiles>  (84) 
NC(=O)c1ccc2cc(C(=O)N3C[C@]4(CCN(C5CCNC5)C4)c4ccccc43)[nH]c2c1

>  <score_type>  (84) 
oracle

>  <origin>  (84) 
autodockgpu

>  <m_score__min__energy>  (84) 
-8.9299999999999997

>  <m_primary>  (84) 
energy

>  <rmsd>  (84) 
6.727912056874486

>  <m_score__min__rmsd>  (84) 
6.727912056874486

>  <meeko>  (84) 
{"free_energy": -8.53, "intermolecular_energy": -9.72, "internal_energy": -1.12, "cluster_size": 27, "cluster_id": 1, "rank_in_cluster": 23}

>  <energy>  (84) 
-8.64

>  <cluster_rmsd>  (84) 
0.82

>  <cluster>  (84) 
2

$$$$

     RDKit          3D

 59 64  0  0  1  0  0  0  0  0999 V2000
  146.8150   73.7610  219.3080 N   0  0  0  0  0  0  0  0  0  0  0  0
  145.7410   72.8280  219.4720 C   0  0  0  0  0  0  0  0  0  0  0  0
  145.9040   71.6070  219.2680 O   0  0  0  0  0  0  0  0  0  0  0  0
  144.4150   73.3330  219.8910 C   0  0  0  0  0  0  0  0  0  0  0  0
  143.4450   72.4370  220.2680 C   0  0  0  0  0  0  0  0  0  0  0  0
  142.1990   72.9390  220.6560 C   0  0  0  0  0  0  0  0  0  0  0  0
  141.9850   74.3030  220.6500 C   0  0  0  0  0  0  0  0  0  0  0  0
  140.8750   75.0300  220.9860 C   0  0  0  0  0  0  0  0  0  0  0  0
  141.1410   76.4070  220.8190 C   0  0  0  0  0  0  0  0  0  0  0  0
  140.1410   77.3880  221.1090 C   0  0  0  0  0  0  0  0  0  0  0  0
  139.1750   77.4610  220.2590 O   0  0  0  0  0  0  0  0  0  0  0  0
  140.0650   78.2820  222.1910 N   0  0  0  0  0  0  0  0  0  0  0  0
  138.9050   78.4020  223.1140 C   0  0  0  0  0  0  0  0  0  0  0  0
  138.8330   79.9160  223.2080 C   0  0  1  0  0  0  0  0  0  0  0  0
  138.1370   80.5020  222.0170 C   0  0  0  0  0  0  0  0  0  0  0  0
  137.6480   81.8230  222.5360 C   0  0  0  0  0  0  0  0  0  0  0  0
  137.6560   81.7670  223.9810 N   0  0  0  0  0  0  0  0  0  0  0  0
  136.4040   82.1900  224.5520 C   0  0  1  0  0  0  0  0  0  0  0  0
  135.6180   81.1660  225.2710 C   0  0  0  0  0  0  0  0  0  0  0  0
  135.7410   81.5210  226.7350 C   0  0  0  0  0  0  0  0  0  0  0  0
  136.4610   82.7680  226.8320 N   0  0  0  0  0  0  0  0  0  0  0  0
  136.6170   83.3070  225.5040 C   0  0  0  0  0  0  0  0  0  0  0  0
  138.0100   80.4150  224.3460 C   0  0  0  0  0  0  0  0  0  0  0  0
  140.2570   80.2470  223.3100 C   0  0  0  0  0  0  0  0  0  0  0  0
  140.8840   81.3230  223.8940 C   0  0  0  0  0  0  0  0  0  0  0  0
  142.2770   81.3570  223.8370 C   0  0  0  0  0  0  0  0  0  0  0  0
  143.0060   80.3460  223.2160 C   0  0  0  0  0  0  0  0  0  0  0  0
  142.3690   79.2650  222.6290 C   0  0  0  0  0  0  0  0  0  0  0  0
  140.9930   79.2360  222.6880 C   0  0  0  0  0  0  0  0  0  0  0  0
  142.4030   76.4420  220.3900 N   0  0  0  0  0  0  0  0  0  0  0  0
  142.9370   75.2230  220.2770 C   0  0  0  0  0  0  0  0  0  0  0  0
  144.1710   74.6950  219.8940 C   0  0  0  0  0  0  0  0  0  0  0  0
  147.4680   73.7560  218.5090 H   0  0  0  0  0  0  0  0  0  0  0  0
  146.9090   74.4780  220.0680 H   0  0  0  0  0  0  0  0  0  0  0  0
  143.6427   71.3549  220.2648 H   0  0  0  0  0  0  0  0  0  0  0  0
  141.3960   72.2530  220.9635 H   0  0  0  0  0  0  0  0  0  0  0  0
  139.9211   74.6063  221.3332 H   0  0  0  0  0  0  0  0  0  0  0  0
  137.9889   77.9713  222.6835 H   0  0  0  0  0  0  0  0  0  0  0  0
  139.0062   77.8724  224.0728 H   0  0  0  0  0  0  0  0  0  0  0  0
  138.8349   80.6395  221.1779 H   0  0  0  0  0  0  0  0  0  0  0  0
  137.3324   79.8630  221.6241 H   0  0  0  0  0  0  0  0  0  0  0  0
  138.3121   82.6288  222.1901 H   0  0  0  0  0  0  0  0  0  0  0  0
  136.6315   82.0254  222.1674 H   0  0  0  0  0  0  0  0  0  0  0  0
  135.8200   82.4735  223.6640 H   0  0  0  0  0  0  0  0  0  0  0  0
  134.5649   81.1967  224.9546 H   0  0  0  0  0  0  0  0  0  0  0  0
  135.9839   80.1494  225.0642 H   0  0  0  0  0  0  0  0  0  0  0  0
  134.7401   81.6323  227.1776 H   0  0  0  0  0  0  0  0  0  0  0  0
  136.2760   80.7274  227.2772 H   0  0  0  0  0  0  0  0  0  0  0  0
  135.9040   83.4860  227.3650 H   0  0  0  0  0  0  0  0  0  0  0  0
  135.8741   84.0990  225.3286 H   0  0  0  0  0  0  0  0  0  0  0  0
  137.6173   83.7461  225.3748 H   0  0  0  0  0  0  0  0  0  0  0  0
  138.5927   80.4055  225.2789 H   0  0  0  0  0  0  0  0  0  0  0  0
  137.1241   79.7877  224.5239 H   0  0  0  0  0  0  0  0  0  0  0  0
  140.3108   82.1230  224.3853 H   0  0  0  0  0  0  0  0  0  0  0  0
  142.8126   82.2025  224.2934 H   0  0  0  0  0  0  0  0  0  0  0  0
  144.1040   80.4067  223.1912 H   0  0  0  0  0  0  0  0  0  0  0  0
  142.9383   78.4631  222.1362 H   0  0  0  0  0  0  0  0  0  0  0  0
  142.9040   77.3470  220.1700 H   0  0  0  0  0  0  0  0  0  0  0  0
  144.9730   75.3818  219.5855 H   0  0  0  0  0  0  0  0  0  0  0  0
  1  2  1  0
  2  3  2  0
  2  4  1  0
  4  5  2  0
  5  6  1  0
  6  7  2  0
  7  8  1  0
  8  9  2  0
  9 10  1  0
 10 11  2  0
 10 12  1  0
 12 13  1  0
 14 13  1  6
 14 15  1  0
 15 16  1  0
 16 17  1  0
 17 18  1  0
 18 19  1  0
 19 20  1  0
 20 21  1  0
 21 22  1  0
 17 23  1  0
 14 24  1  0
 24 25  2  0
 25 26  1  0
 26 27  2  0
 27 28  1  0
 28 29  2  0
  9 30  1  0
 30 31  1  0
 31 32  2  0
 32  4  1  0
 31  7  1  0
 29 12  1  0
 23 14  1  0
 29 24  1  0
 22 18  1  0
  1 33  1  0
  1 34  1  0
  5 35  1  0
  6 36  1  0
  8 37  1  0
 13 38  1  0
 13 39  1  0
 15 40  1  0
 15 41  1  0
 16 42  1  0
 16 43  1  0
 18 44  1  6
 19 45  1  0
 19 46  1  0
 20 47  1  0
 20 48  1  0
 21 49  1  0
 22 50  1  0
 22 51  1  0
 23 52  1  0
 23 53  1  0
 25 54  1  0
 26 55  1  0
 27 56  1  0
 28 57  1  0
 30 58  1  0
 32 59  1  0
M  END
>  <smiles>  (85) 
NC(=O)c1ccc2cc(C(=O)N3C[C@]4(CCN(C5CCNC5)C4)c4ccccc43)[nH]c2c1

>  <score_type>  (85) 
oracle

>  <origin>  (85) 
autodockgpu

>  <m_score__min__energy>  (85) 
-8.9299999999999997

>  <m_primary>  (85) 
energy

>  <rmsd>  (85) 
6.914185119710837

>  <m_score__min__rmsd>  (85) 
6.914185119710837

>  <meeko>  (85) 
{"free_energy": -8.49, "intermolecular_energy": -9.69, "internal_energy": -1.15, "cluster_size": 27, "cluster_id": 1, "rank_in_cluster": 25}

>  <energy>  (85) 
-8.63

>  <cluster_rmsd>  (85) 
0.28

>  <cluster>  (85) 
2

$$$$

     RDKit          3D

 59 64  0  0  1  0  0  0  0  0999 V2000
  145.9930   73.3870  217.6040 N   0  0  0  0  0  0  0  0  0  0  0  0
  145.5830   72.9310  218.8980 C   0  0  0  0  0  0  0  0  0  0  0  0
  146.2630   72.1070  219.5430 O   0  0  0  0  0  0  0  0  0  0  0  0
  144.3240   73.4540  219.4720 C   0  0  0  0  0  0  0  0  0  0  0  0
  143.4250   72.5770  220.0280 C   0  0  0  0  0  0  0  0  0  0  0  0
  142.2410   73.0950  220.5610 C   0  0  0  0  0  0  0  0  0  0  0  0
  142.0140   74.4570  220.5140 C   0  0  0  0  0  0  0  0  0  0  0  0
  140.9550   75.1980  220.9640 C   0  0  0  0  0  0  0  0  0  0  0  0
  141.1820   76.5640  220.6900 C   0  0  0  0  0  0  0  0  0  0  0  0
  140.2220   77.5570  221.0660 C   0  0  0  0  0  0  0  0  0  0  0  0
  139.2490   77.7270  220.2380 O   0  0  0  0  0  0  0  0  0  0  0  0
  140.1920   78.3700  222.2120 N   0  0  0  0  0  0  0  0  0  0  0  0
  139.0660   78.4330  223.1800 C   0  0  0  0  0  0  0  0  0  0  0  0
  139.0140   79.9370  223.3850 C   0  0  1  0  0  0  0  0  0  0  0  0
  138.2840   80.6140  222.2640 C   0  0  0  0  0  0  0  0  0  0  0  0
  137.8280   81.8970  222.8950 C   0  0  0  0  0  0  0  0  0  0  0  0
  137.8840   81.7370  224.3300 N   0  0  0  0  0  0  0  0  0  0  0  0
  136.6570   82.1290  224.9730 C   0  0  1  0  0  0  0  0  0  0  0  0
  135.8620   81.0550  225.6070 C   0  0  0  0  0  0  0  0  0  0  0  0
  136.0290   81.2590  227.0950 C   0  0  0  0  0  0  0  0  0  0  0  0
  136.7820   82.4740  227.2970 N   0  0  0  0  0  0  0  0  0  0  0  0
  136.9200   83.1390  226.0250 C   0  0  0  0  0  0  0  0  0  0  0  0
  138.2350   80.3590  224.5850 C   0  0  0  0  0  0  0  0  0  0  0  0
  140.4430   80.2470  223.4620 C   0  0  0  0  0  0  0  0  0  0  0  0
  141.1020   81.2730  224.1010 C   0  0  0  0  0  0  0  0  0  0  0  0
  142.4920   81.2990  223.9980 C   0  0  0  0  0  0  0  0  0  0  0  0
  143.1890   80.3290  223.2810 C   0  0  0  0  0  0  0  0  0  0  0  0
  142.5210   79.2990  222.6400 C   0  0  0  0  0  0  0  0  0  0  0  0
  141.1470   79.2780  222.7440 C   0  0  0  0  0  0  0  0  0  0  0  0
  142.3700   76.5790  220.0860 N   0  0  0  0  0  0  0  0  0  0  0  0
  142.8950   75.3580  219.9630 C   0  0  0  0  0  0  0  0  0  0  0  0
  144.0690   74.8130  219.4390 C   0  0  0  0  0  0  0  0  0  0  0  0
  146.3530   72.7690  216.8600 H   0  0  0  0  0  0  0  0  0  0  0  0
  145.9080   74.4200  217.4420 H   0  0  0  0  0  0  0  0  0  0  0  0
  143.6310   71.4968  220.0532 H   0  0  0  0  0  0  0  0  0  0  0  0
  141.4964   72.4239  221.0140 H   0  0  0  0  0  0  0  0  0  0  0  0
  140.0631   74.7912  221.4630 H   0  0  0  0  0  0  0  0  0  0  0  0
  138.1312   78.0424  222.7515 H   0  0  0  0  0  0  0  0  0  0  0  0
  139.1936   77.8347  224.0942 H   0  0  0  0  0  0  0  0  0  0  0  0
  138.9542   80.8066  221.4133 H   0  0  0  0  0  0  0  0  0  0  0  0
  137.4598   80.0123  221.8534 H   0  0  0  0  0  0  0  0  0  0  0  0
  138.4890   82.7200  222.5857 H   0  0  0  0  0  0  0  0  0  0  0  0
  136.8016   82.1335  222.5780 H   0  0  0  0  0  0  0  0  0  0  0  0
  136.0596   82.5136  224.1332 H   0  0  0  0  0  0  0  0  0  0  0  0
  134.8028   81.1411  225.3230 H   0  0  0  0  0  0  0  0  0  0  0  0
  136.1968   80.0562  225.2904 H   0  0  0  0  0  0  0  0  0  0  0  0
  135.0421   81.3477  227.5727 H   0  0  0  0  0  0  0  0  0  0  0  0
  136.5573   80.4034  227.5411 H   0  0  0  0  0  0  0  0  0  0  0  0
  136.2550   83.1470  227.9130 H   0  0  0  0  0  0  0  0  0  0  0  0
  136.1932   83.9612  225.9485 H   0  0  0  0  0  0  0  0  0  0  0  0
  137.9278   83.5656  225.9142 H   0  0  0  0  0  0  0  0  0  0  0  0
  138.8488   80.2771  225.4941 H   0  0  0  0  0  0  0  0  0  0  0  0
  137.3491   79.7278  224.7485 H   0  0  0  0  0  0  0  0  0  0  0  0
  140.5549   82.0399  224.6689 H   0  0  0  0  0  0  0  0  0  0  0  0
  143.0520   82.1049  224.4949 H   0  0  0  0  0  0  0  0  0  0  0  0
  144.2862   80.3820  223.2231 H   0  0  0  0  0  0  0  0  0  0  0  0
  143.0644   78.5298  222.0716 H   0  0  0  0  0  0  0  0  0  0  0  0
  142.8260   77.4730  219.7520 H   0  0  0  0  0  0  0  0  0  0  0  0
  144.8133   75.4846  218.9864 H   0  0  0  0  0  0  0  0  0  0  0  0
  1  2  1  0
  2  3  2  0
  2  4  1  0
  4  5  2  0
  5  6  1  0
  6  7  2  0
  7  8  1  0
  8  9  2  0
  9 10  1  0
 10 11  2  0
 10 12  1  0
 12 13  1  0
 14 13  1  6
 14 15  1  0
 15 16  1  0
 16 17  1  0
 17 18  1  0
 18 19  1  0
 19 20  1  0
 20 21  1  0
 21 22  1  0
 17 23  1  0
 14 24  1  0
 24 25  2  0
 25 26  1  0
 26 27  2  0
 27 28  1  0
 28 29  2  0
  9 30  1  0
 30 31  1  0
 31 32  2  0
 32  4  1  0
 31  7  1  0
 29 12  1  0
 23 14  1  0
 29 24  1  0
 22 18  1  0
  1 33  1  0
  1 34  1  0
  5 35  1  0
  6 36  1  0
  8 37  1  0
 13 38  1  0
 13 39  1  0
 15 40  1  0
 15 41  1  0
 16 42  1  0
 16 43  1  0
 18 44  1  6
 19 45  1  0
 19 46  1  0
 20 47  1  0
 20 48  1  0
 21 49  1  0
 22 50  1  0
 22 51  1  0
 23 52  1  0
 23 53  1  0
 25 54  1  0
 26 55  1  0
 27 56  1  0
 28 57  1  0
 30 58  1  0
 32 59  1  0
M  END
>  <smiles>  (86) 
NC(=O)c1ccc2cc(C(=O)N3C[C@]4(CCN(C5CCNC5)C4)c4ccccc43)[nH]c2c1

>  <score_type>  (86) 
oracle

>  <origin>  (86) 
autodockgpu

>  <m_score__min__energy>  (86) 
-8.9299999999999997

>  <m_primary>  (86) 
energy

>  <rmsd>  (86) 
7.047359849951269

>  <m_score__min__rmsd>  (86) 
7.047359849951269

>  <meeko>  (86) 
{"free_energy": -8.79, "intermolecular_energy": -9.98, "internal_energy": -1.15, "cluster_size": 27, "cluster_id": 1, "rank_in_cluster": 5}

>  <energy>  (86) 
-8.62

>  <cluster_rmsd>  (86) 
0.8

>  <cluster>  (86) 
2

$$$$

     RDKit          3D

 59 64  0  0  1  0  0  0  0  0999 V2000
  135.9490   81.4300  230.3720 N   0  0  0  0  0  0  0  0  0  0  0  0
  134.8240   81.5040  229.4890 C   0  0  0  0  0  0  0  0  0  0  0  0
  133.6650   81.6660  229.9250 O   0  0  0  0  0  0  0  0  0  0  0  0
  135.0510   81.3830  228.0330 C   0  0  0  0  0  0  0  0  0  0  0  0
  134.0280   80.9430  227.2280 C   0  0  0  0  0  0  0  0  0  0  0  0
  134.2690   80.8340  225.8550 C   0  0  0  0  0  0  0  0  0  0  0  0
  135.5130   81.1680  225.3560 C   0  0  0  0  0  0  0  0  0  0  0  0
  135.9890   81.1540  224.0730 C   0  0  0  0  0  0  0  0  0  0  0  0
  137.3320   81.5890  224.0590 C   0  0  0  0  0  0  0  0  0  0  0  0
  138.0650   81.6700  222.8330 C   0  0  0  0  0  0  0  0  0  0  0  0
  137.6900   82.6000  222.0250 O   0  0  0  0  0  0  0  0  0  0  0  0
  139.1380   80.8780  222.3900 N   0  0  0  0  0  0  0  0  0  0  0  0
  139.0880   79.9550  221.2250 C   0  0  0  0  0  0  0  0  0  0  0  0
  139.8250   78.7710  221.8290 C   0  0  1  0  0  0  0  0  0  0  0  0
  138.9200   77.9560  222.7030 C   0  0  0  0  0  0  0  0  0  0  0  0
  139.5870   76.6120  222.7050 C   0  0  0  0  0  0  0  0  0  0  0  0
  140.4920   76.5580  221.5790 N   0  0  0  0  0  0  0  0  0  0  0  0
  140.3050   75.3720  220.7820 C   0  0  1  0  0  0  0  0  0  0  0  0
  141.5250   74.6500  220.3650 C   0  0  0  0  0  0  0  0  0  0  0  0
  141.5450   73.3870  221.1940 C   0  0  0  0  0  0  0  0  0  0  0  0
  140.3210   73.3350  221.9580 N   0  0  0  0  0  0  0  0  0  0  0  0
  139.4550   74.3920  221.4990 C   0  0  0  0  0  0  0  0  0  0  0  0
  140.2970   77.7750  220.8250 C   0  0  0  0  0  0  0  0  0  0  0  0
  140.9050   79.4610  222.5380 C   0  0  0  0  0  0  0  0  0  0  0  0
  142.1690   79.0340  222.8740 C   0  0  0  0  0  0  0  0  0  0  0  0
  142.9880   79.9350  223.5540 C   0  0  0  0  0  0  0  0  0  0  0  0
  142.5480   81.2160  223.8800 C   0  0  0  0  0  0  0  0  0  0  0  0
  141.2750   81.6410  223.5400 C   0  0  0  0  0  0  0  0  0  0  0  0
  140.4700   80.7470  222.8690 C   0  0  0  0  0  0  0  0  0  0  0  0
  137.6000   81.8450  225.3400 N   0  0  0  0  0  0  0  0  0  0  0  0
  136.5550   81.6110  226.1370 C   0  0  0  0  0  0  0  0  0  0  0  0
  136.2870   81.7100  227.5030 C   0  0  0  0  0  0  0  0  0  0  0  0
  135.9630   80.8810  231.2460 H   0  0  0  0  0  0  0  0  0  0  0  0
  136.7910   81.9820  230.0770 H   0  0  0  0  0  0  0  0  0  0  0  0
  133.0467   80.6837  227.6520 H   0  0  0  0  0  0  0  0  0  0  0  0
  133.4750   80.4854  225.1782 H   0  0  0  0  0  0  0  0  0  0  0  0
  135.4125   80.8499  223.1869 H   0  0  0  0  0  0  0  0  0  0  0  0
  138.0554   79.6992  220.9453 H   0  0  0  0  0  0  0  0  0  0  0  0
  139.5121   80.3496  220.2899 H   0  0  0  0  0  0  0  0  0  0  0  0
  138.8673   78.3743  223.7190 H   0  0  0  0  0  0  0  0  0  0  0  0
  137.8795   77.9267  222.3474 H   0  0  0  0  0  0  0  0  0  0  0  0
  140.1482   76.4757  223.6412 H   0  0  0  0  0  0  0  0  0  0  0  0
  138.8347   75.8131  222.6279 H   0  0  0  0  0  0  0  0  0  0  0  0
  139.8416   75.7685  219.8665 H   0  0  0  0  0  0  0  0  0  0  0  0
  141.4810   74.4065  219.2932 H   0  0  0  0  0  0  0  0  0  0  0  0
  142.4312   75.2546  220.5176 H   0  0  0  0  0  0  0  0  0  0  0  0
  141.6111   72.5089  220.5348 H   0  0  0  0  0  0  0  0  0  0  0  0
  142.4155   73.3852  221.8665 H   0  0  0  0  0  0  0  0  0  0  0  0
  139.7980   72.4400  221.7730 H   0  0  0  0  0  0  0  0  0  0  0  0
  138.6918   73.9858  220.8189 H   0  0  0  0  0  0  0  0  0  0  0  0
  138.9367   74.8682  222.3444 H   0  0  0  0  0  0  0  0  0  0  0  0
  141.2419   78.1034  220.3674 H   0  0  0  0  0  0  0  0  0  0  0  0
  139.5805   77.6435  220.0007 H   0  0  0  0  0  0  0  0  0  0  0  0
  142.5192   78.0234  222.6168 H   0  0  0  0  0  0  0  0  0  0  0  0
  144.0047   79.6271  223.8395 H   0  0  0  0  0  0  0  0  0  0  0  0
  143.2223   81.9003  224.4158 H   0  0  0  0  0  0  0  0  0  0  0  0
  140.9210   82.6508  223.7951 H   0  0  0  0  0  0  0  0  0  0  0  0
  138.5450   82.1950  225.6640 H   0  0  0  0  0  0  0  0  0  0  0  0
  137.0820   82.0584  228.1788 H   0  0  0  0  0  0  0  0  0  0  0  0
  1  2  1  0
  2  3  2  0
  2  4  1  0
  4  5  2  0
  5  6  1  0
  6  7  2  0
  7  8  1  0
  8  9  2  0
  9 10  1  0
 10 11  2  0
 10 12  1  0
 12 13  1  0
 14 13  1  6
 14 15  1  0
 15 16  1  0
 16 17  1  0
 17 18  1  0
 18 19  1  0
 19 20  1  0
 20 21  1  0
 21 22  1  0
 17 23  1  0
 14 24  1  0
 24 25  2  0
 25 26  1  0
 26 27  2  0
 27 28  1  0
 28 29  2  0
  9 30  1  0
 30 31  1  0
 31 32  2  0
 32  4  1  0
 31  7  1  0
 29 12  1  0
 23 14  1  0
 29 24  1  0
 22 18  1  0
  1 33  1  0
  1 34  1  0
  5 35  1  0
  6 36  1  0
  8 37  1  0
 13 38  1  0
 13 39  1  0
 15 40  1  0
 15 41  1  0
 16 42  1  0
 16 43  1  0
 18 44  1  6
 19 45  1  0
 19 46  1  0
 20 47  1  0
 20 48  1  0
 21 49  1  0
 22 50  1  0
 22 51  1  0
 23 52  1  0
 23 53  1  0
 25 54  1  0
 26 55  1  0
 27 56  1  0
 28 57  1  0
 30 58  1  0
 32 59  1  0
M  END
>  <smiles>  (87) 
NC(=O)c1ccc2cc(C(=O)N3C[C@]4(CCN(C5CCNC5)C4)c4ccccc43)[nH]c2c1

>  <score_type>  (87) 
oracle

>  <origin>  (87) 
autodockgpu

>  <m_score__min__energy>  (87) 
-8.9299999999999997

>  <m_primary>  (87) 
energy

>  <rmsd>  (87) 
9.352521858799957

>  <m_score__min__rmsd>  (87) 
9.352521858799957

>  <meeko>  (87) 
{"free_energy": -8.68, "intermolecular_energy": -9.88, "internal_energy": -1.17, "cluster_size": 12, "cluster_id": 2, "rank_in_cluster": 4}

>  <energy>  (87) 
-8.59

>  <cluster_rmsd>  (87) 
0.83

>  <cluster>  (87) 
2

$$$$

     RDKit          3D

 59 64  0  0  1  0  0  0  0  0999 V2000
  140.5510   67.7640  227.7180 N   0  0  0  0  0  0  0  0  0  0  0  0
  139.8100   67.9240  226.5030 C   0  0  0  0  0  0  0  0  0  0  0  0
  139.0080   67.0520  226.1110 O   0  0  0  0  0  0  0  0  0  0  0  0
  140.0090   69.1520  225.7030 C   0  0  0  0  0  0  0  0  0  0  0  0
  140.9200   70.0880  226.1260 C   0  0  0  0  0  0  0  0  0  0  0  0
  141.0870   71.2430  225.3550 C   0  0  0  0  0  0  0  0  0  0  0  0
  140.3400   71.4040  224.2040 C   0  0  0  0  0  0  0  0  0  0  0  0
  140.3230   72.4230  223.2910 C   0  0  0  0  0  0  0  0  0  0  0  0
  139.3880   72.1330  222.2740 C   0  0  0  0  0  0  0  0  0  0  0  0
  139.1790   73.0410  221.1880 C   0  0  0  0  0  0  0  0  0  0  0  0
  139.4850   72.5880  220.0210 O   0  0  0  0  0  0  0  0  0  0  0  0
  138.6870   74.3570  221.2170 N   0  0  0  0  0  0  0  0  0  0  0  0
  139.2360   75.4880  220.4240 C   0  0  0  0  0  0  0  0  0  0  0  0
  139.2100   76.5640  221.4970 C   0  0  1  0  0  0  0  0  0  0  0  0
  140.3860   76.4420  222.4180 C   0  0  0  0  0  0  0  0  0  0  0  0
  140.5170   77.8310  222.9710 C   0  0  0  0  0  0  0  0  0  0  0  0
  139.7990   78.7320  222.0970 N   0  0  0  0  0  0  0  0  0  0  0  0
  140.5940   79.8680  221.7090 C   0  0  1  0  0  0  0  0  0  0  0  0
  140.7290   80.9580  222.6990 C   0  0  0  0  0  0  0  0  0  0  0  0
  142.1520   80.8680  223.2000 C   0  0  0  0  0  0  0  0  0  0  0  0
  142.8310   79.8500  222.4340 N   0  0  0  0  0  0  0  0  0  0  0  0
  141.9690   79.4450  221.3530 C   0  0  0  0  0  0  0  0  0  0  0  0
  139.3500   77.9510  220.9680 C   0  0  0  0  0  0  0  0  0  0  0  0
  137.9120   76.2900  222.1190 C   0  0  0  0  0  0  0  0  0  0  0  0
  137.0480   77.1260  222.7880 C   0  0  0  0  0  0  0  0  0  0  0  0
  135.8640   76.5680  223.2680 C   0  0  0  0  0  0  0  0  0  0  0  0
  135.5650   75.2200  223.0810 C   0  0  0  0  0  0  0  0  0  0  0  0
  136.4390   74.3830  222.4070 C   0  0  0  0  0  0  0  0  0  0  0  0
  137.6070   74.9400  221.9340 C   0  0  0  0  0  0  0  0  0  0  0  0
  138.8850   70.9490  222.6250 N   0  0  0  0  0  0  0  0  0  0  0  0
  139.4200   70.4840  223.7570 C   0  0  0  0  0  0  0  0  0  0  0  0
  139.2740   69.3420  224.5460 C   0  0  0  0  0  0  0  0  0  0  0  0
  141.0230   66.8890  227.9960 H   0  0  0  0  0  0  0  0  0  0  0  0
  140.5920   68.6110  228.3360 H   0  0  0  0  0  0  0  0  0  0  0  0
  141.5027   69.9338  227.0462 H   0  0  0  0  0  0  0  0  0  0  0  0
  141.8066   72.0161  225.6623 H   0  0  0  0  0  0  0  0  0  0  0  0
  140.9434   73.3299  223.3418 H   0  0  0  0  0  0  0  0  0  0  0  0
  140.2567   75.2851  220.0678 H   0  0  0  0  0  0  0  0  0  0  0  0
  138.6895   75.7276  219.4999 H   0  0  0  0  0  0  0  0  0  0  0  0
  140.1893   75.7133  223.2182 H   0  0  0  0  0  0  0  0  0  0  0  0
  141.2975   76.0836  221.9172 H   0  0  0  0  0  0  0  0  0  0  0  0
  140.0873   77.8716  223.9828 H   0  0  0  0  0  0  0  0  0  0  0  0
  141.5768   78.1199  223.0287 H   0  0  0  0  0  0  0  0  0  0  0  0
  140.0268   80.2777  220.8602 H   0  0  0  0  0  0  0  0  0  0  0  0
  140.5486   81.9339  222.2246 H   0  0  0  0  0  0  0  0  0  0  0  0
  139.9996   80.8618  223.5167 H   0  0  0  0  0  0  0  0  0  0  0  0
  142.6572   81.8358  223.0652 H   0  0  0  0  0  0  0  0  0  0  0  0
  142.1650   80.6135  224.2701 H   0  0  0  0  0  0  0  0  0  0  0  0
  143.6970   80.2380  221.9760 H   0  0  0  0  0  0  0  0  0  0  0  0
  142.2830   79.9315  220.4177 H   0  0  0  0  0  0  0  0  0  0  0  0
  142.0165   78.3565  221.2016 H   0  0  0  0  0  0  0  0  0  0  0  0
  138.3836   78.3242  220.5982 H   0  0  0  0  0  0  0  0  0  0  0  0
  140.0501   78.0041  220.1212 H   0  0  0  0  0  0  0  0  0  0  0  0
  137.2817   78.1904  222.9379 H   0  0  0  0  0  0  0  0  0  0  0  0
  135.1490   77.2069  223.8071 H   0  0  0  0  0  0  0  0  0  0  0  0
  134.6211   74.8146  223.4743 H   0  0  0  0  0  0  0  0  0  0  0  0
  136.2100   73.3178  222.2557 H   0  0  0  0  0  0  0  0  0  0  0  0
  138.1460   70.4530  222.0540 H   0  0  0  0  0  0  0  0  0  0  0  0
  138.5532   68.5699  224.2390 H   0  0  0  0  0  0  0  0  0  0  0  0
  1  2  1  0
  2  3  2  0
  2  4  1  0
  4  5  2  0
  5  6  1  0
  6  7  2  0
  7  8  1  0
  8  9  2  0
  9 10  1  0
 10 11  2  0
 10 12  1  0
 12 13  1  0
 14 13  1  6
 14 15  1  0
 15 16  1  0
 16 17  1  0
 17 18  1  0
 18 19  1  0
 19 20  1  0
 20 21  1  0
 21 22  1  0
 17 23  1  0
 14 24  1  0
 24 25  2  0
 25 26  1  0
 26 27  2  0
 27 28  1  0
 28 29  2  0
  9 30  1  0
 30 31  1  0
 31 32  2  0
 32  4  1  0
 31  7  1  0
 29 12  1  0
 23 14  1  0
 29 24  1  0
 22 18  1  0
  1 33  1  0
  1 34  1  0
  5 35  1  0
  6 36  1  0
  8 37  1  0
 13 38  1  0
 13 39  1  0
 15 40  1  0
 15 41  1  0
 16 42  1  0
 16 43  1  0
 18 44  1  6
 19 45  1  0
 19 46  1  0
 20 47  1  0
 20 48  1  0
 21 49  1  0
 22 50  1  0
 22 51  1  0
 23 52  1  0
 23 53  1  0
 25 54  1  0
 26 55  1  0
 27 56  1  0
 28 57  1  0
 30 58  1  0
 32 59  1  0
M  END
>  <smiles>  (88) 
NC(=O)c1ccc2cc(C(=O)N3C[C@]4(CCN(C5CCNC5)C4)c4ccccc43)[nH]c2c1

>  <score_type>  (88) 
oracle

>  <origin>  (88) 
autodockgpu

>  <m_score__min__energy>  (88) 
-8.9299999999999997

>  <m_primary>  (88) 
energy

>  <rmsd>  (88) 
3.2516802917931575

>  <m_score__min__rmsd>  (88) 
3.2516802917931575

>  <meeko>  (88) 
{"free_energy": -8.5, "intermolecular_energy": -9.7, "internal_energy": -1.28, "cluster_size": 10, "cluster_id": 3, "rank_in_cluster": 5}

>  <energy>  (88) 
-8.53

>  <cluster_rmsd>  (88) 
0.81

>  <cluster>  (88) 
2

$$$$

     RDKit          3D

 59 64  0  0  1  0  0  0  0  0999 V2000
  135.6690   80.8900  230.6090 N   0  0  0  0  0  0  0  0  0  0  0  0
  135.2350   81.9200  229.7140 C   0  0  0  0  0  0  0  0  0  0  0  0
  134.7740   82.9990  230.1400 O   0  0  0  0  0  0  0  0  0  0  0  0
  135.3380   81.6880  228.2570 C   0  0  0  0  0  0  0  0  0  0  0  0
  134.2430   81.2210  227.5730 C   0  0  0  0  0  0  0  0  0  0  0  0
  134.3660   81.0080  226.1960 C   0  0  0  0  0  0  0  0  0  0  0  0
  135.5710   81.2700  225.5750 C   0  0  0  0  0  0  0  0  0  0  0  0
  135.9390   81.1510  224.2620 C   0  0  0  0  0  0  0  0  0  0  0  0
  137.2860   81.5450  224.1080 C   0  0  0  0  0  0  0  0  0  0  0  0
  137.9170   81.5180  222.8240 C   0  0  0  0  0  0  0  0  0  0  0  0
  137.4140   82.3130  221.9440 O   0  0  0  0  0  0  0  0  0  0  0  0
  139.0080   80.7460  222.3900 N   0  0  0  0  0  0  0  0  0  0  0  0
  138.9860   79.8200  221.2280 C   0  0  0  0  0  0  0  0  0  0  0  0
  139.7410   78.6520  221.8400 C   0  0  1  0  0  0  0  0  0  0  0  0
  138.8460   77.8220  222.7090 C   0  0  0  0  0  0  0  0  0  0  0  0
  139.5380   76.4900  222.7200 C   0  0  0  0  0  0  0  0  0  0  0  0
  140.4530   76.4520  221.6010 N   0  0  0  0  0  0  0  0  0  0  0  0
  140.2960   75.2610  220.8060 C   0  0  1  0  0  0  0  0  0  0  0  0
  141.5330   74.5610  220.4010 C   0  0  0  0  0  0  0  0  0  0  0  0
  141.5710   73.3010  221.2330 C   0  0  0  0  0  0  0  0  0  0  0  0
  140.3420   73.2270  221.9870 N   0  0  0  0  0  0  0  0  0  0  0  0
  139.4590   74.2660  221.5190 C   0  0  0  0  0  0  0  0  0  0  0  0
  140.2390   77.6630  220.8430 C   0  0  0  0  0  0  0  0  0  0  0  0
  140.8020   79.3650  222.5560 C   0  0  0  0  0  0  0  0  0  0  0  0
  142.0710   78.9630  222.9030 C   0  0  0  0  0  0  0  0  0  0  0  0
  142.8670   79.8820  223.5860 C   0  0  0  0  0  0  0  0  0  0  0  0
  142.3990   81.1550  223.9060 C   0  0  0  0  0  0  0  0  0  0  0  0
  141.1210   81.5540  223.5550 C   0  0  0  0  0  0  0  0  0  0  0  0
  140.3380   80.6420  222.8800 C   0  0  0  0  0  0  0  0  0  0  0  0
  137.6650   81.8850  225.3400 N   0  0  0  0  0  0  0  0  0  0  0  0
  136.6840   81.7380  226.2340 C   0  0  0  0  0  0  0  0  0  0  0  0
  136.5320   81.9420  227.6070 C   0  0  0  0  0  0  0  0  0  0  0  0
  135.1430   80.5900  231.4460 H   0  0  0  0  0  0  0  0  0  0  0  0
  136.5840   80.4360  230.3650 H   0  0  0  0  0  0  0  0  0  0  0  0
  133.2950   81.0199  228.0935 H   0  0  0  0  0  0  0  0  0  0  0  0
  133.5107   80.6353  225.6133 H   0  0  0  0  0  0  0  0  0  0  0  0
  135.2845   80.8014  223.4499 H   0  0  0  0  0  0  0  0  0  0  0  0
  137.9609   79.5433  220.9406 H   0  0  0  0  0  0  0  0  0  0  0  0
  139.4102   80.2210  220.2957 H   0  0  0  0  0  0  0  0  0  0  0  0
  138.7779   78.2418  223.7235 H   0  0  0  0  0  0  0  0  0  0  0  0
  137.8091   77.7718  222.3452 H   0  0  0  0  0  0  0  0  0  0  0  0
  140.0939   76.3660  223.6610 H   0  0  0  0  0  0  0  0  0  0  0  0
  138.8019   75.6766  222.6392 H   0  0  0  0  0  0  0  0  0  0  0  0
  139.8331   75.6466  219.8856 H   0  0  0  0  0  0  0  0  0  0  0  0
  141.5023   74.3140  219.3295 H   0  0  0  0  0  0  0  0  0  0  0  0
  142.4261   75.1833  220.5597 H   0  0  0  0  0  0  0  0  0  0  0  0
  141.6597   72.4228  220.5766 H   0  0  0  0  0  0  0  0  0  0  0  0
  142.4358   73.3178  221.9126 H   0  0  0  0  0  0  0  0  0  0  0  0
  139.8380   72.3210  221.8000 H   0  0  0  0  0  0  0  0  0  0  0  0
  138.7090   73.8437  220.8340 H   0  0  0  0  0  0  0  0  0  0  0  0
  138.9249   74.7338  222.3592 H   0  0  0  0  0  0  0  0  0  0  0  0
  141.1803   78.0088  220.3908 H   0  0  0  0  0  0  0  0  0  0  0  0
  139.5304   77.5151  220.0147 H   0  0  0  0  0  0  0  0  0  0  0  0
  142.4424   77.9584  222.6522 H   0  0  0  0  0  0  0  0  0  0  0  0
  143.8878   79.5955  223.8789 H   0  0  0  0  0  0  0  0  0  0  0  0
  143.0553   81.8534  224.4458 H   0  0  0  0  0  0  0  0  0  0  0  0
  140.7456   82.5574  223.8043 H   0  0  0  0  0  0  0  0  0  0  0  0
  138.6400   82.2300  225.5600 H   0  0  0  0  0  0  0  0  0  0  0  0
  137.3874   82.3158  228.1889 H   0  0  0  0  0  0  0  0  0  0  0  0
  1  2  1  0
  2  3  2  0
  2  4  1  0
  4  5  2  0
  5  6  1  0
  6  7  2  0
  7  8  1  0
  8  9  2  0
  9 10  1  0
 10 11  2  0
 10 12  1  0
 12 13  1  0
 14 13  1  6
 14 15  1  0
 15 16  1  0
 16 17  1  0
 17 18  1  0
 18 19  1  0
 19 20  1  0
 20 21  1  0
 21 22  1  0
 17 23  1  0
 14 24  1  0
 24 25  2  0
 25 26  1  0
 26 27  2  0
 27 28  1  0
 28 29  2  0
  9 30  1  0
 30 31  1  0
 31 32  2  0
 32  4  1  0
 31  7  1  0
 29 12  1  0
 23 14  1  0
 29 24  1  0
 22 18  1  0
  1 33  1  0
  1 34  1  0
  5 35  1  0
  6 36  1  0
  8 37  1  0
 13 38  1  0
 13 39  1  0
 15 40  1  0
 15 41  1  0
 16 42  1  0
 16 43  1  0
 18 44  1  6
 19 45  1  0
 19 46  1  0
 20 47  1  0
 20 48  1  0
 21 49  1  0
 22 50  1  0
 22 51  1  0
 23 52  1  0
 23 53  1  0
 25 54  1  0
 26 55  1  0
 27 56  1  0
 28 57  1  0
 30 58  1  0
 32 59  1  0
M  END
>  <smiles>  (89) 
NC(=O)c1ccc2cc(C(=O)N3C[C@]4(CCN(C5CCNC5)C4)c4ccccc43)[nH]c2c1

>  <score_type>  (89) 
oracle

>  <origin>  (89) 
autodockgpu

>  <m_score__min__energy>  (89) 
-8.9299999999999997

>  <m_primary>  (89) 
energy

>  <rmsd>  (89) 
9.438922579798469

>  <m_score__min__rmsd>  (89) 
9.438922579798469

>  <meeko>  (89) 
{"free_energy": -8.48, "intermolecular_energy": -9.67, "internal_energy": -1.17, "cluster_size": 12, "cluster_id": 2, "rank_in_cluster": 12}

>  <energy>  (89) 
-8.48

>  <cluster_rmsd>  (89) 
0.84

>  <cluster>  (89) 
2

$$$$

     RDKit          3D

 59 64  0  0  1  0  0  0  0  0999 V2000
  145.7270   72.2260  220.5430 N   0  0  0  0  0  0  0  0  0  0  0  0
  145.3730   72.7220  219.2480 C   0  0  0  0  0  0  0  0  0  0  0  0
  145.9380   72.3040  218.2150 O   0  0  0  0  0  0  0  0  0  0  0  0
  144.3160   73.7500  219.1420 C   0  0  0  0  0  0  0  0  0  0  0  0
  144.0030   74.2670  217.9080 C   0  0  0  0  0  0  0  0  0  0  0  0
  143.0020   75.2410  217.8350 C   0  0  0  0  0  0  0  0  0  0  0  0
  142.3650   75.6470  218.9910 C   0  0  0  0  0  0  0  0  0  0  0  0
  141.3670   76.5640  219.1800 C   0  0  0  0  0  0  0  0  0  0  0  0
  141.0400   76.6330  220.5520 C   0  0  0  0  0  0  0  0  0  0  0  0
  140.0170   77.5180  221.0190 C   0  0  0  0  0  0  0  0  0  0  0  0
  138.9470   77.5530  220.3020 O   0  0  0  0  0  0  0  0  0  0  0  0
  140.0160   78.3510  222.1510 N   0  0  0  0  0  0  0  0  0  0  0  0
  138.9040   78.4510  223.1320 C   0  0  0  0  0  0  0  0  0  0  0  0
  138.8810   79.9590  223.3120 C   0  0  1  0  0  0  0  0  0  0  0  0
  138.1490   80.6290  222.1890 C   0  0  0  0  0  0  0  0  0  0  0  0
  137.7240   81.9310  222.8020 C   0  0  0  0  0  0  0  0  0  0  0  0
  137.7960   81.7950  224.2390 N   0  0  0  0  0  0  0  0  0  0  0  0
  136.5850   82.2190  224.8920 C   0  0  1  0  0  0  0  0  0  0  0  0
  135.7260   81.1590  225.4610 C   0  0  0  0  0  0  0  0  0  0  0  0
  135.8860   81.2770  226.9590 C   0  0  0  0  0  0  0  0  0  0  0  0
  136.7020   82.4370  227.2310 N   0  0  0  0  0  0  0  0  0  0  0  0
  136.8900   83.1580  225.9970 C   0  0  0  0  0  0  0  0  0  0  0  0
  138.1260   80.4160  224.5140 C   0  0  0  0  0  0  0  0  0  0  0  0
  140.3170   80.2450  223.3650 C   0  0  0  0  0  0  0  0  0  0  0  0
  141.0020   81.2690  223.9760 C   0  0  0  0  0  0  0  0  0  0  0  0
  142.3910   81.2690  223.8550 C   0  0  0  0  0  0  0  0  0  0  0  0
  143.0610   80.2750  223.1460 C   0  0  0  0  0  0  0  0  0  0  0  0
  142.3670   79.2460  222.5320 C   0  0  0  0  0  0  0  0  0  0  0  0
  140.9940   79.2510  222.6550 C   0  0  0  0  0  0  0  0  0  0  0  0
  141.8600   75.7510  221.1240 N   0  0  0  0  0  0  0  0  0  0  0  0
  142.6570   75.1480  220.2390 C   0  0  0  0  0  0  0  0  0  0  0  0
  143.6600   74.1780  220.2830 C   0  0  0  0  0  0  0  0  0  0  0  0
  146.6980   72.0870  220.8640 H   0  0  0  0  0  0  0  0  0  0  0  0
  144.9210   72.0010  221.1760 H   0  0  0  0  0  0  0  0  0  0  0  0
  144.5253   73.9243  217.0026 H   0  0  0  0  0  0  0  0  0  0  0  0
  142.7245   75.6798  216.8652 H   0  0  0  0  0  0  0  0  0  0  0  0
  140.8920   77.1569  218.3845 H   0  0  0  0  0  0  0  0  0  0  0  0
  137.9569   78.0700  222.7222 H   0  0  0  0  0  0  0  0  0  0  0  0
  139.0331   77.8663  224.0548 H   0  0  0  0  0  0  0  0  0  0  0  0
  138.8115   80.7943  221.3266 H   0  0  0  0  0  0  0  0  0  0  0  0
  137.3088   80.0350  221.8000 H   0  0  0  0  0  0  0  0  0  0  0  0
  138.3954   82.7364  222.4695 H   0  0  0  0  0  0  0  0  0  0  0  0
  136.6980   82.1807  222.4936 H   0  0  0  0  0  0  0  0  0  0  0  0
  136.0185   82.6785  224.0687 H   0  0  0  0  0  0  0  0  0  0  0  0
  134.6765   81.3171  225.1720 H   0  0  0  0  0  0  0  0  0  0  0  0
  136.0099   80.1610  225.0957 H   0  0  0  0  0  0  0  0  0  0  0  0
  134.8997   81.3954  227.4315 H   0  0  0  0  0  0  0  0  0  0  0  0
  136.3614   80.3719  227.3648 H   0  0  0  0  0  0  0  0  0  0  0  0
  136.2060   83.1050  227.8770 H   0  0  0  0  0  0  0  0  0  0  0  0
  136.2094   84.0212  225.9571 H   0  0  0  0  0  0  0  0  0  0  0  0
  137.9204   83.5347  225.9171 H   0  0  0  0  0  0  0  0  0  0  0  0
  138.7505   80.3393  225.4163 H   0  0  0  0  0  0  0  0  0  0  0  0
  137.2313   79.8038  224.7004 H   0  0  0  0  0  0  0  0  0  0  0  0
  140.4759   82.0555  224.5369 H   0  0  0  0  0  0  0  0  0  0  0  0
  142.9714   82.0732  224.3308 H   0  0  0  0  0  0  0  0  0  0  0  0
  144.1581   80.3078  223.0726 H   0  0  0  0  0  0  0  0  0  0  0  0
  142.8893   78.4578  221.9698 H   0  0  0  0  0  0  0  0  0  0  0  0
  141.8590   75.5670  222.1650 H   0  0  0  0  0  0  0  0  0  0  0  0
  143.9372   73.7408  221.2536 H   0  0  0  0  0  0  0  0  0  0  0  0
  1  2  1  0
  2  3  2  0
  2  4  1  0
  4  5  2  0
  5  6  1  0
  6  7  2  0
  7  8  1  0
  8  9  2  0
  9 10  1  0
 10 11  2  0
 10 12  1  0
 12 13  1  0
 14 13  1  6
 14 15  1  0
 15 16  1  0
 16 17  1  0
 17 18  1  0
 18 19  1  0
 19 20  1  0
 20 21  1  0
 21 22  1  0
 17 23  1  0
 14 24  1  0
 24 25  2  0
 25 26  1  0
 26 27  2  0
 27 28  1  0
 28 29  2  0
  9 30  1  0
 30 31  1  0
 31 32  2  0
 32  4  1  0
 31  7  1  0
 29 12  1  0
 23 14  1  0
 29 24  1  0
 22 18  1  0
  1 33  1  0
  1 34  1  0
  5 35  1  0
  6 36  1  0
  8 37  1  0
 13 38  1  0
 13 39  1  0
 15 40  1  0
 15 41  1  0
 16 42  1  0
 16 43  1  0
 18 44  1  6
 19 45  1  0
 19 46  1  0
 20 47  1  0
 20 48  1  0
 21 49  1  0
 22 50  1  0
 22 51  1  0
 23 52  1  0
 23 53  1  0
 25 54  1  0
 26 55  1  0
 27 56  1  0
 28 57  1  0
 30 58  1  0
 32 59  1  0
M  END
>  <smiles>  (90) 
NC(=O)c1ccc2cc(C(=O)N3C[C@]4(CCN(C5CCNC5)C4)c4ccccc43)[nH]c2c1

>  <score_type>  (90) 
oracle

>  <origin>  (90) 
autodockgpu

>  <m_score__min__energy>  (90) 
-8.9299999999999997

>  <m_primary>  (90) 
energy

>  <rmsd>  (90) 
7.230535963833314

>  <m_score__min__rmsd>  (90) 
7.230535963833314

>  <meeko>  (90) 
{"free_energy": -8.93, "intermolecular_energy": -10.12, "internal_energy": -1.16, "cluster_size": 27, "cluster_id": 1, "rank_in_cluster": 1}

>  <energy>  (90) 
-8.56

>  <cluster_rmsd>  (90) 
0.0

>  <cluster>  (90) 
3

$$$$

     RDKit          3D

 59 64  0  0  1  0  0  0  0  0999 V2000
  136.0620   81.4580  230.3340 N   0  0  0  0  0  0  0  0  0  0  0  0
  134.9220   81.6100  229.4810 C   0  0  0  0  0  0  0  0  0  0  0  0
  133.7830   81.8160  229.9490 O   0  0  0  0  0  0  0  0  0  0  0  0
  135.1100   81.5190  228.0170 C   0  0  0  0  0  0  0  0  0  0  0  0
  134.0290   81.2340  227.2180 C   0  0  0  0  0  0  0  0  0  0  0  0
  134.2340   81.1500  225.8370 C   0  0  0  0  0  0  0  0  0  0  0  0
  135.5000   81.3550  225.3250 C   0  0  0  0  0  0  0  0  0  0  0  0
  135.9500   81.3340  224.0330 C   0  0  0  0  0  0  0  0  0  0  0  0
  137.3350   81.6080  224.0080 C   0  0  0  0  0  0  0  0  0  0  0  0
  138.0530   81.6490  222.7710 C   0  0  0  0  0  0  0  0  0  0  0  0
  137.6570   82.5430  221.9310 O   0  0  0  0  0  0  0  0  0  0  0  0
  139.1300   80.8530  222.3460 N   0  0  0  0  0  0  0  0  0  0  0  0
  139.0910   79.9150  221.1930 C   0  0  0  0  0  0  0  0  0  0  0  0
  139.8240   78.7410  221.8180 C   0  0  1  0  0  0  0  0  0  0  0  0
  138.9140   77.9360  222.6960 C   0  0  0  0  0  0  0  0  0  0  0  0
  139.5820   76.5920  222.7200 C   0  0  0  0  0  0  0  0  0  0  0  0
  140.4960   76.5250  221.6020 N   0  0  0  0  0  0  0  0  0  0  0  0
  140.3170   75.3290  220.8200 C   0  0  1  0  0  0  0  0  0  0  0  0
  141.5420   74.6130  220.4060 C   0  0  0  0  0  0  0  0  0  0  0  0
  141.5770   73.3590  221.2500 C   0  0  0  0  0  0  0  0  0  0  0  0
  140.3570   73.3050  222.0190 N   0  0  0  0  0  0  0  0  0  0  0  0
  139.4790   74.3490  221.5520 C   0  0  0  0  0  0  0  0  0  0  0  0
  140.3050   77.7310  220.8310 C   0  0  0  0  0  0  0  0  0  0  0  0
  140.8980   79.4420  222.5260 C   0  0  0  0  0  0  0  0  0  0  0  0
  142.1600   79.0200  222.8770 C   0  0  0  0  0  0  0  0  0  0  0  0
  142.9720   79.9320  223.5510 C   0  0  0  0  0  0  0  0  0  0  0  0
  142.5280   81.2160  223.8570 C   0  0  0  0  0  0  0  0  0  0  0  0
  141.2570   81.6350  223.5020 C   0  0  0  0  0  0  0  0  0  0  0  0
  140.4580   80.7300  222.8360 C   0  0  0  0  0  0  0  0  0  0  0  0
  137.6520   81.7820  225.2910 N   0  0  0  0  0  0  0  0  0  0  0  0
  136.5990   81.6420  226.1000 C   0  0  0  0  0  0  0  0  0  0  0  0
  136.3670   81.7200  227.4740 C   0  0  0  0  0  0  0  0  0  0  0  0
  136.0690   80.8840  231.1930 H   0  0  0  0  0  0  0  0  0  0  0  0
  136.9220   81.9770  230.0340 H   0  0  0  0  0  0  0  0  0  0  0  0
  133.0307   81.0764  227.6522 H   0  0  0  0  0  0  0  0  0  0  0  0
  133.3938   80.9226  225.1644 H   0  0  0  0  0  0  0  0  0  0  0  0
  135.3275   81.1341  223.1484 H   0  0  0  0  0  0  0  0  0  0  0  0
  138.0611   79.6540  220.9081 H   0  0  0  0  0  0  0  0  0  0  0  0
  139.5223   80.2980  220.2564 H   0  0  0  0  0  0  0  0  0  0  0  0
  138.8540   78.3671  223.7062 H   0  0  0  0  0  0  0  0  0  0  0  0
  137.8761   77.9010  222.3333 H   0  0  0  0  0  0  0  0  0  0  0  0
  140.1357   76.4676  223.6623 H   0  0  0  0  0  0  0  0  0  0  0  0
  138.8309   75.7917  222.6468 H   0  0  0  0  0  0  0  0  0  0  0  0
  139.8464   75.7110  219.9021 H   0  0  0  0  0  0  0  0  0  0  0  0
  141.4957   74.3567  219.3373 H   0  0  0  0  0  0  0  0  0  0  0  0
  142.4433   75.2275  220.5477 H   0  0  0  0  0  0  0  0  0  0  0  0
  141.6485   72.4739  220.6008 H   0  0  0  0  0  0  0  0  0  0  0  0
  142.4501   73.3728  221.9189 H   0  0  0  0  0  0  0  0  0  0  0  0
  139.8410   72.4030  221.8460 H   0  0  0  0  0  0  0  0  0  0  0  0
  138.7166   73.9282  220.8800 H   0  0  0  0  0  0  0  0  0  0  0  0
  138.9601   74.8298  222.3943 H   0  0  0  0  0  0  0  0  0  0  0  0
  141.2528   78.0544  220.3760 H   0  0  0  0  0  0  0  0  0  0  0  0
  139.5944   77.5872  220.0037 H   0  0  0  0  0  0  0  0  0  0  0  0
  142.5133   78.0065  222.6362 H   0  0  0  0  0  0  0  0  0  0  0  0
  143.9872   79.6299  223.8479 H   0  0  0  0  0  0  0  0  0  0  0  0
  143.1974   81.9080  224.3890 H   0  0  0  0  0  0  0  0  0  0  0  0
  140.8997   82.6475  223.7413 H   0  0  0  0  0  0  0  0  0  0  0  0
  138.6360   82.0050  225.6080 H   0  0  0  0  0  0  0  0  0  0  0  0
  137.2081   81.9480  228.1452 H   0  0  0  0  0  0  0  0  0  0  0  0
  1  2  1  0
  2  3  2  0
  2  4  1  0
  4  5  2  0
  5  6  1  0
  6  7  2  0
  7  8  1  0
  8  9  2  0
  9 10  1  0
 10 11  2  0
 10 12  1  0
 12 13  1  0
 14 13  1  6
 14 15  1  0
 15 16  1  0
 16 17  1  0
 17 18  1  0
 18 19  1  0
 19 20  1  0
 20 21  1  0
 21 22  1  0
 17 23  1  0
 14 24  1  0
 24 25  2  0
 25 26  1  0
 26 27  2  0
 27 28  1  0
 28 29  2  0
  9 30  1  0
 30 31  1  0
 31 32  2  0
 32  4  1  0
 31  7  1  0
 29 12  1  0
 23 14  1  0
 29 24  1  0
 22 18  1  0
  1 33  1  0
  1 34  1  0
  5 35  1  0
  6 36  1  0
  8 37  1  0
 13 38  1  0
 13 39  1  0
 15 40  1  0
 15 41  1  0
 16 42  1  0
 16 43  1  0
 18 44  1  6
 19 45  1  0
 19 46  1  0
 20 47  1  0
 20 48  1  0
 21 49  1  0
 22 50  1  0
 22 51  1  0
 23 52  1  0
 23 53  1  0
 25 54  1  0
 26 55  1  0
 27 56  1  0
 28 57  1  0
 30 58  1  0
 32 59  1  0
M  END
>  <smiles>  (91) 
NC(=O)c1ccc2cc(C(=O)N3C[C@]4(CCN(C5CCNC5)C4)c4ccccc43)[nH]c2c1

>  <score_type>  (91) 
oracle

>  <origin>  (91) 
autodockgpu

>  <m_score__min__energy>  (91) 
-8.9299999999999997

>  <m_primary>  (91) 
energy

>  <rmsd>  (91) 
9.407745348742223

>  <m_score__min__rmsd>  (91) 
9.407745348742223

>  <meeko>  (91) 
{"free_energy": -8.7, "intermolecular_energy": -9.89, "internal_energy": -1.17, "cluster_size": 12, "cluster_id": 2, "rank_in_cluster": 3}

>  <energy>  (91) 
-8.55

>  <cluster_rmsd>  (91) 
0.21

>  <cluster>  (91) 
3

$$$$

     RDKit          3D

 59 64  0  0  1  0  0  0  0  0999 V2000
  136.0060   81.3970  230.4270 N   0  0  0  0  0  0  0  0  0  0  0  0
  134.9300   81.6800  229.5260 C   0  0  0  0  0  0  0  0  0  0  0  0
  133.8290   82.1000  229.9400 O   0  0  0  0  0  0  0  0  0  0  0  0
  135.1370   81.4650  228.0780 C   0  0  0  0  0  0  0  0  0  0  0  0
  134.1400   80.8790  227.3370 C   0  0  0  0  0  0  0  0  0  0  0  0
  134.3620   80.6830  225.9700 C   0  0  0  0  0  0  0  0  0  0  0  0
  135.5610   81.0820  225.4130 C   0  0  0  0  0  0  0  0  0  0  0  0
  136.0100   81.0070  224.1230 C   0  0  0  0  0  0  0  0  0  0  0  0
  137.3110   81.5510  224.0400 C   0  0  0  0  0  0  0  0  0  0  0  0
  138.0090   81.5980  222.7920 C   0  0  0  0  0  0  0  0  0  0  0  0
  137.5800   82.4740  221.9510 O   0  0  0  0  0  0  0  0  0  0  0  0
  139.0980   80.8220  222.3580 N   0  0  0  0  0  0  0  0  0  0  0  0
  139.0690   79.8890  221.2020 C   0  0  0  0  0  0  0  0  0  0  0  0
  139.8270   78.7250  221.8180 C   0  0  1  0  0  0  0  0  0  0  0  0
  138.9360   77.9010  222.6970 C   0  0  0  0  0  0  0  0  0  0  0  0
  139.6280   76.5690  222.7130 C   0  0  0  0  0  0  0  0  0  0  0  0
  140.5370   76.5230  221.5890 N   0  0  0  0  0  0  0  0  0  0  0  0
  140.3750   75.3270  220.8030 C   0  0  1  0  0  0  0  0  0  0  0  0
  141.6090   74.6130  220.4120 C   0  0  0  0  0  0  0  0  0  0  0  0
  141.6300   73.3590  221.2550 C   0  0  0  0  0  0  0  0  0  0  0  0
  140.3960   73.3020  222.0010 N   0  0  0  0  0  0  0  0  0  0  0  0
  139.5250   74.3450  221.5180 C   0  0  0  0  0  0  0  0  0  0  0  0
  140.3200   77.7290  220.8250 C   0  0  0  0  0  0  0  0  0  0  0  0
  140.8920   79.4420  222.5240 C   0  0  0  0  0  0  0  0  0  0  0  0
  142.1630   79.0420  222.8660 C   0  0  0  0  0  0  0  0  0  0  0  0
  142.9630   79.9650  223.5390 C   0  0  0  0  0  0  0  0  0  0  0  0
  142.4980   81.2400  223.8540 C   0  0  0  0  0  0  0  0  0  0  0  0
  141.2170   81.6370  223.5070 C   0  0  0  0  0  0  0  0  0  0  0  0
  140.4310   80.7210  222.8420 C   0  0  0  0  0  0  0  0  0  0  0  0
  137.5820   81.9290  225.2900 N   0  0  0  0  0  0  0  0  0  0  0  0
  136.5770   81.6700  226.1300 C   0  0  0  0  0  0  0  0  0  0  0  0
  136.3290   81.8530  227.4920 C   0  0  0  0  0  0  0  0  0  0  0  0
  135.8960   80.8870  231.3180 H   0  0  0  0  0  0  0  0  0  0  0  0
  136.9490   81.7470  230.1270 H   0  0  0  0  0  0  0  0  0  0  0  0
  133.1932   80.5723  227.8056 H   0  0  0  0  0  0  0  0  0  0  0  0
  133.5881   80.2150  225.3439 H   0  0  0  0  0  0  0  0  0  0  0  0
  135.4439   80.5869  223.2786 H   0  0  0  0  0  0  0  0  0  0  0  0
  138.0423   79.6108  220.9220 H   0  0  0  0  0  0  0  0  0  0  0  0
  139.4879   80.2836  220.2645 H   0  0  0  0  0  0  0  0  0  0  0  0
  138.8731   78.3274  223.7090 H   0  0  0  0  0  0  0  0  0  0  0  0
  137.8972   77.8488  222.3390 H   0  0  0  0  0  0  0  0  0  0  0  0
  140.1892   76.4513  223.6517 H   0  0  0  0  0  0  0  0  0  0  0  0
  138.8913   75.7552  222.6417 H   0  0  0  0  0  0  0  0  0  0  0  0
  139.9214   75.7091  219.8766 H   0  0  0  0  0  0  0  0  0  0  0  0
  141.5835   74.3575  219.3424 H   0  0  0  0  0  0  0  0  0  0  0  0
  142.5064   75.2288  220.5716 H   0  0  0  0  0  0  0  0  0  0  0  0
  141.7152   72.4747  220.6064 H   0  0  0  0  0  0  0  0  0  0  0  0
  142.4903   73.3738  221.9403 H   0  0  0  0  0  0  0  0  0  0  0  0
  139.8850   72.3990  221.8180 H   0  0  0  0  0  0  0  0  0  0  0  0
  138.7763   73.9234  220.8312 H   0  0  0  0  0  0  0  0  0  0  0  0
  138.9891   74.8242  222.3506 H   0  0  0  0  0  0  0  0  0  0  0  0
  141.2593   78.0714  220.3663 H   0  0  0  0  0  0  0  0  0  0  0  0
  139.6073   77.5761  220.0012 H   0  0  0  0  0  0  0  0  0  0  0  0
  142.5329   78.0360  222.6189 H   0  0  0  0  0  0  0  0  0  0  0  0
  143.9853   79.6796  223.8280 H   0  0  0  0  0  0  0  0  0  0  0  0
  143.1575   81.9415  224.3859 H   0  0  0  0  0  0  0  0  0  0  0  0
  140.8427   82.6419  223.7522 H   0  0  0  0  0  0  0  0  0  0  0  0
  138.4990   82.3810  225.5610 H   0  0  0  0  0  0  0  0  0  0  0  0
  137.1042   82.3194  228.1176 H   0  0  0  0  0  0  0  0  0  0  0  0
  1  2  1  0
  2  3  2  0
  2  4  1  0
  4  5  2  0
  5  6  1  0
  6  7  2  0
  7  8  1  0
  8  9  2  0
  9 10  1  0
 10 11  2  0
 10 12  1  0
 12 13  1  0
 14 13  1  6
 14 15  1  0
 15 16  1  0
 16 17  1  0
 17 18  1  0
 18 19  1  0
 19 20  1  0
 20 21  1  0
 21 22  1  0
 17 23  1  0
 14 24  1  0
 24 25  2  0
 25 26  1  0
 26 27  2  0
 27 28  1  0
 28 29  2  0
  9 30  1  0
 30 31  1  0
 31 32  2  0
 32  4  1  0
 31  7  1  0
 29 12  1  0
 23 14  1  0
 29 24  1  0
 22 18  1  0
  1 33  1  0
  1 34  1  0
  5 35  1  0
  6 36  1  0
  8 37  1  0
 13 38  1  0
 13 39  1  0
 15 40  1  0
 15 41  1  0
 16 42  1  0
 16 43  1  0
 18 44  1  6
 19 45  1  0
 19 46  1  0
 20 47  1  0
 20 48  1  0
 21 49  1  0
 22 50  1  0
 22 51  1  0
 23 52  1  0
 23 53  1  0
 25 54  1  0
 26 55  1  0
 27 56  1  0
 28 57  1  0
 30 58  1  0
 32 59  1  0
M  END
>  <smiles>  (92) 
NC(=O)c1ccc2cc(C(=O)N3C[C@]4(CCN(C5CCNC5)C4)c4ccccc43)[nH]c2c1

>  <score_type>  (92) 
oracle

>  <origin>  (92) 
autodockgpu

>  <m_score__min__energy>  (92) 
-8.9299999999999997

>  <m_primary>  (92) 
energy

>  <rmsd>  (92) 
9.351774436999762

>  <m_score__min__rmsd>  (92) 
9.351774436999762

>  <meeko>  (92) 
{"free_energy": -8.66, "intermolecular_energy": -9.85, "internal_energy": -1.18, "cluster_size": 12, "cluster_id": 2, "rank_in_cluster": 6}

>  <energy>  (92) 
-8.54

>  <cluster_rmsd>  (92) 
0.06

>  <cluster>  (92) 
3

$$$$

     RDKit          3D

 59 64  0  0  1  0  0  0  0  0999 V2000
  145.5680   72.0500  220.2740 N   0  0  0  0  0  0  0  0  0  0  0  0
  145.4440   72.9700  219.1840 C   0  0  0  0  0  0  0  0  0  0  0  0
  146.2940   73.0140  218.2710 O   0  0  0  0  0  0  0  0  0  0  0  0
  144.2820   73.8840  219.1500 C   0  0  0  0  0  0  0  0  0  0  0  0
  143.8060   74.3200  217.9380 C   0  0  0  0  0  0  0  0  0  0  0  0
  142.7080   75.1860  217.9330 C   0  0  0  0  0  0  0  0  0  0  0  0
  142.1410   75.5700  219.1320 C   0  0  0  0  0  0  0  0  0  0  0  0
  141.0760   76.3890  219.3900 C   0  0  0  0  0  0  0  0  0  0  0  0
  140.8700   76.4770  220.7840 C   0  0  0  0  0  0  0  0  0  0  0  0
  139.8090   77.2720  221.3210 C   0  0  0  0  0  0  0  0  0  0  0  0
  138.6580   77.1080  220.7650 O   0  0  0  0  0  0  0  0  0  0  0  0
  139.8470   78.2060  222.3710 N   0  0  0  0  0  0  0  0  0  0  0  0
  138.7730   78.3930  223.3810 C   0  0  0  0  0  0  0  0  0  0  0  0
  138.7480   79.9110  223.4230 C   0  0  1  0  0  0  0  0  0  0  0  0
  137.9690   80.4740  222.2720 C   0  0  0  0  0  0  0  0  0  0  0  0
  137.5600   81.8260  222.7800 C   0  0  0  0  0  0  0  0  0  0  0  0
  137.6880   81.8220  224.2200 N   0  0  0  0  0  0  0  0  0  0  0  0
  136.5000   82.3020  224.8770 C   0  0  1  0  0  0  0  0  0  0  0  0
  135.6060   81.2830  225.4670 C   0  0  0  0  0  0  0  0  0  0  0  0
  135.7840   81.4130  226.9620 C   0  0  0  0  0  0  0  0  0  0  0  0
  136.6460   82.5430  227.2120 N   0  0  0  0  0  0  0  0  0  0  0  0
  136.8520   83.2420  225.9670 C   0  0  0  0  0  0  0  0  0  0  0  0
  138.0370   80.4740  224.6060 C   0  0  0  0  0  0  0  0  0  0  0  0
  140.1830   80.2040  223.3940 C   0  0  0  0  0  0  0  0  0  0  0  0
  140.8850   81.2820  223.8820 C   0  0  0  0  0  0  0  0  0  0  0  0
  142.2680   81.2740  223.7080 C   0  0  0  0  0  0  0  0  0  0  0  0
  142.9170   80.2200  223.0680 C   0  0  0  0  0  0  0  0  0  0  0  0
  142.2050   79.1380  222.5780 C   0  0  0  0  0  0  0  0  0  0  0  0
  140.8380   79.1500  222.7520 C   0  0  0  0  0  0  0  0  0  0  0  0
  141.8260   75.7030  221.3000 N   0  0  0  0  0  0  0  0  0  0  0  0
  142.5960   75.1500  220.3600 C   0  0  0  0  0  0  0  0  0  0  0  0
  143.6930   74.2860  220.3360 C   0  0  0  0  0  0  0  0  0  0  0  0
  146.4480   71.8710  220.7830 H   0  0  0  0  0  0  0  0  0  0  0  0
  144.6870   71.5460  220.5410 H   0  0  0  0  0  0  0  0  0  0  0  0
  144.2754   73.9970  216.9971 H   0  0  0  0  0  0  0  0  0  0  0  0
  142.2994   75.5581  216.9819 H   0  0  0  0  0  0  0  0  0  0  0  0
  140.4717   76.9014  218.6269 H   0  0  0  0  0  0  0  0  0  0  0  0
  137.8132   77.9738  223.0448 H   0  0  0  0  0  0  0  0  0  0  0  0
  138.9409   77.8957  224.3477 H   0  0  0  0  0  0  0  0  0  0  0  0
  138.5969   80.5614  221.3730 H   0  0  0  0  0  0  0  0  0  0  0  0
  137.1181   79.8449  221.9716 H   0  0  0  0  0  0  0  0  0  0  0  0
  138.2133   82.5993  222.3497 H   0  0  0  0  0  0  0  0  0  0  0  0
  136.5215   82.0440  222.4902 H   0  0  0  0  0  0  0  0  0  0  0  0
  135.9440   82.7734  224.0532 H   0  0  0  0  0  0  0  0  0  0  0  0
  134.5608   81.4780  225.1851 H   0  0  0  0  0  0  0  0  0  0  0  0
  135.8481   80.2704  225.1119 H   0  0  0  0  0  0  0  0  0  0  0  0
  134.8074   81.5752  227.4415 H   0  0  0  0  0  0  0  0  0  0  0  0
  136.2277   80.4952  227.3752 H   0  0  0  0  0  0  0  0  0  0  0  0
  136.1820   83.2390  227.8530 H   0  0  0  0  0  0  0  0  0  0  0  0
  136.2060   84.1311  225.9219 H   0  0  0  0  0  0  0  0  0  0  0  0
  137.8956   83.5770  225.8737 H   0  0  0  0  0  0  0  0  0  0  0  0
  138.6960   80.4815  225.4867 H   0  0  0  0  0  0  0  0  0  0  0  0
  137.1536   79.8791  224.8813 H   0  0  0  0  0  0  0  0  0  0  0  0
  140.3761   82.1154  224.3884 H   0  0  0  0  0  0  0  0  0  0  0  0
  142.8613   82.1201  224.0850 H   0  0  0  0  0  0  0  0  0  0  0  0
  144.0103   80.2478  222.9503 H   0  0  0  0  0  0  0  0  0  0  0  0
  142.7101   78.3029  222.0705 H   0  0  0  0  0  0  0  0  0  0  0  0
  141.9400   75.5590  222.3420 H   0  0  0  0  0  0  0  0  0  0  0  0
  144.1007   73.9142  221.2876 H   0  0  0  0  0  0  0  0  0  0  0  0
  1  2  1  0
  2  3  2  0
  2  4  1  0
  4  5  2  0
  5  6  1  0
  6  7  2  0
  7  8  1  0
  8  9  2  0
  9 10  1  0
 10 11  2  0
 10 12  1  0
 12 13  1  0
 14 13  1  1
 14 15  1  0
 15 16  1  0
 16 17  1  0
 17 18  1  0
 18 19  1  0
 19 20  1  0
 20 21  1  0
 21 22  1  0
 17 23  1  0
 14 24  1  0
 24 25  2  0
 25 26  1  0
 26 27  2  0
 27 28  1  0
 28 29  2  0
  9 30  1  0
 30 31  1  0
 31 32  2  0
 32  4  1  0
 31  7  1  0
 29 12  1  0
 23 14  1  0
 29 24  1  0
 22 18  1  0
  1 33  1  0
  1 34  1  0
  5 35  1  0
  6 36  1  0
  8 37  1  0
 13 38  1  0
 13 39  1  0
 15 40  1  0
 15 41  1  0
 16 42  1  0
 16 43  1  0
 18 44  1  6
 19 45  1  0
 19 46  1  0
 20 47  1  0
 20 48  1  0
 21 49  1  0
 22 50  1  0
 22 51  1  0
 23 52  1  0
 23 53  1  0
 25 54  1  0
 26 55  1  0
 27 56  1  0
 28 57  1  0
 30 58  1  0
 32 59  1  0
M  END
>  <smiles>  (93) 
NC(=O)c1ccc2cc(C(=O)N3C[C@]4(CCN(C5CCNC5)C4)c4ccccc43)[nH]c2c1

>  <score_type>  (93) 
oracle

>  <origin>  (93) 
autodockgpu

>  <m_score__min__energy>  (93) 
-8.9299999999999997

>  <m_primary>  (93) 
energy

>  <rmsd>  (93) 
7.212436266311229

>  <m_score__min__rmsd>  (93) 
7.212436266311229

>  <meeko>  (93) 
{"free_energy": -8.75, "intermolecular_energy": -9.94, "internal_energy": -1.18, "cluster_size": 27, "cluster_id": 1, "rank_in_cluster": 14}

>  <energy>  (93) 
-8.53

>  <cluster_rmsd>  (93) 
0.21

>  <cluster>  (93) 
3

$$$$

     RDKit          3D

 59 64  0  0  1  0  0  0  0  0999 V2000
  140.6180   67.7530  227.6920 N   0  0  0  0  0  0  0  0  0  0  0  0
  139.8670   67.9130  226.4830 C   0  0  0  0  0  0  0  0  0  0  0  0
  139.0680   67.0360  226.0930 O   0  0  0  0  0  0  0  0  0  0  0  0
  140.0500   69.1460  225.6880 C   0  0  0  0  0  0  0  0  0  0  0  0
  140.9310   70.1030  226.1270 C   0  0  0  0  0  0  0  0  0  0  0  0
  141.0840   71.2620  225.3590 C   0  0  0  0  0  0  0  0  0  0  0  0
  140.3530   71.4060  224.1960 C   0  0  0  0  0  0  0  0  0  0  0  0
  140.3280   72.4250  223.2820 C   0  0  0  0  0  0  0  0  0  0  0  0
  139.4180   72.1130  222.2490 C   0  0  0  0  0  0  0  0  0  0  0  0
  139.2070   73.0170  221.1600 C   0  0  0  0  0  0  0  0  0  0  0  0
  139.4910   72.5520  219.9920 O   0  0  0  0  0  0  0  0  0  0  0  0
  138.7320   74.3400  221.1870 N   0  0  0  0  0  0  0  0  0  0  0  0
  139.2910   75.4600  220.3850 C   0  0  0  0  0  0  0  0  0  0  0  0
  139.2870   76.5410  221.4530 C   0  0  1  0  0  0  0  0  0  0  0  0
  140.4670   76.4070  222.3670 C   0  0  0  0  0  0  0  0  0  0  0  0
  140.6210   77.7970  222.9130 C   0  0  0  0  0  0  0  0  0  0  0  0
  139.9090   78.7030  222.0400 N   0  0  0  0  0  0  0  0  0  0  0  0
  140.7160   79.8270  221.6410 C   0  0  1  0  0  0  0  0  0  0  0  0
  140.8320   80.9410  222.6060 C   0  0  0  0  0  0  0  0  0  0  0  0
  142.2430   80.8600  223.1420 C   0  0  0  0  0  0  0  0  0  0  0  0
  142.9370   79.8220  222.4190 N   0  0  0  0  0  0  0  0  0  0  0  0
  142.0980   79.3910  221.3280 C   0  0  0  0  0  0  0  0  0  0  0  0
  139.4410   77.9230  220.9170 C   0  0  0  0  0  0  0  0  0  0  0  0
  137.9900   76.2870  222.0860 C   0  0  0  0  0  0  0  0  0  0  0  0
  137.1420   77.1370  222.7570 C   0  0  0  0  0  0  0  0  0  0  0  0
  135.9540   76.5970  223.2480 C   0  0  0  0  0  0  0  0  0  0  0  0
  135.6350   75.2530  223.0690 C   0  0  0  0  0  0  0  0  0  0  0  0
  136.4930   74.4010  222.3930 C   0  0  0  0  0  0  0  0  0  0  0  0
  137.6650   74.9400  221.9090 C   0  0  0  0  0  0  0  0  0  0  0  0
  138.9380   70.9180  222.5910 N   0  0  0  0  0  0  0  0  0  0  0  0
  139.4640   70.4650  223.7320 C   0  0  0  0  0  0  0  0  0  0  0  0
  139.3310   69.3190  224.5180 C   0  0  0  0  0  0  0  0  0  0  0  0
  141.0990   66.8800  227.9630 H   0  0  0  0  0  0  0  0  0  0  0  0
  140.6570   68.5970  228.3130 H   0  0  0  0  0  0  0  0  0  0  0  0
  141.5010   69.9622  227.0572 H   0  0  0  0  0  0  0  0  0  0  0  0
  141.7801   72.0516  225.6783 H   0  0  0  0  0  0  0  0  0  0  0  0
  140.9259   73.3463  223.3433 H   0  0  0  0  0  0  0  0  0  0  0  0
  140.3064   75.2415  220.0228 H   0  0  0  0  0  0  0  0  0  0  0  0
  138.7415   75.7028  219.4635 H   0  0  0  0  0  0  0  0  0  0  0  0
  140.2653   75.6848  223.1718 H   0  0  0  0  0  0  0  0  0  0  0  0
  141.3702   76.0338  221.8620 H   0  0  0  0  0  0  0  0  0  0  0  0
  140.1992   77.8480  223.9276 H   0  0  0  0  0  0  0  0  0  0  0  0
  141.6850   78.0718  222.9621 H   0  0  0  0  0  0  0  0  0  0  0  0
  140.1698   80.2165  220.7692 H   0  0  0  0  0  0  0  0  0  0  0  0
  140.6657   81.9051  222.1031 H   0  0  0  0  0  0  0  0  0  0  0  0
  140.0837   80.8673  223.4089 H   0  0  0  0  0  0  0  0  0  0  0  0
  142.7539   81.8229  222.9945 H   0  0  0  0  0  0  0  0  0  0  0  0
  142.2299   80.6322  224.2181 H   0  0  0  0  0  0  0  0  0  0  0  0
  143.8140   80.1950  221.9710 H   0  0  0  0  0  0  0  0  0  0  0  0
  142.4352   79.8522  220.3880 H   0  0  0  0  0  0  0  0  0  0  0  0
  142.1454   78.2988  221.2060 H   0  0  0  0  0  0  0  0  0  0  0  0
  138.4768   78.3073  220.5529 H   0  0  0  0  0  0  0  0  0  0  0  0
  140.1351   77.9634  220.0646 H   0  0  0  0  0  0  0  0  0  0  0  0
  137.3908   78.1989  222.9003 H   0  0  0  0  0  0  0  0  0  0  0  0
  135.2519   77.2479  223.7897 H   0  0  0  0  0  0  0  0  0  0  0  0
  134.6881   74.8625  223.4702 H   0  0  0  0  0  0  0  0  0  0  0  0
  136.2487   73.3382  222.2486 H   0  0  0  0  0  0  0  0  0  0  0  0
  138.2210   70.4040  222.0070 H   0  0  0  0  0  0  0  0  0  0  0  0
  138.6342   68.5302  224.1981 H   0  0  0  0  0  0  0  0  0  0  0  0
  1  2  1  0
  2  3  2  0
  2  4  1  0
  4  5  2  0
  5  6  1  0
  6  7  2  0
  7  8  1  0
  8  9  2  0
  9 10  1  0
 10 11  2  0
 10 12  1  0
 12 13  1  0
 14 13  1  6
 14 15  1  0
 15 16  1  0
 16 17  1  0
 17 18  1  0
 18 19  1  0
 19 20  1  0
 20 21  1  0
 21 22  1  0
 17 23  1  0
 14 24  1  0
 24 25  2  0
 25 26  1  0
 26 27  2  0
 27 28  1  0
 28 29  2  0
  9 30  1  0
 30 31  1  0
 31 32  2  0
 32  4  1  0
 31  7  1  0
 29 12  1  0
 23 14  1  0
 29 24  1  0
 22 18  1  0
  1 33  1  0
  1 34  1  0
  5 35  1  0
  6 36  1  0
  8 37  1  0
 13 38  1  0
 13 39  1  0
 15 40  1  0
 15 41  1  0
 16 42  1  0
 16 43  1  0
 18 44  1  6
 19 45  1  0
 19 46  1  0
 20 47  1  0
 20 48  1  0
 21 49  1  0
 22 50  1  0
 22 51  1  0
 23 52  1  0
 23 53  1  0
 25 54  1  0
 26 55  1  0
 27 56  1  0
 28 57  1  0
 30 58  1  0
 32 59  1  0
M  END
>  <smiles>  (94) 
NC(=O)c1ccc2cc(C(=O)N3C[C@]4(CCN(C5CCNC5)C4)c4ccccc43)[nH]c2c1

>  <score_type>  (94) 
oracle

>  <origin>  (94) 
autodockgpu

>  <m_score__min__energy>  (94) 
-8.9299999999999997

>  <m_primary>  (94) 
energy

>  <rmsd>  (94) 
3.2366148238177277

>  <m_score__min__rmsd>  (94) 
3.2366148238177277

>  <meeko>  (94) 
{"free_energy": -8.55, "intermolecular_energy": -9.74, "internal_energy": -1.29, "cluster_size": 10, "cluster_id": 3, "rank_in_cluster": 2}

>  <energy>  (94) 
-8.5

>  <cluster_rmsd>  (94) 
0.23

>  <cluster>  (94) 
3

$$$$

     RDKit          3D

 59 64  0  0  1  0  0  0  0  0999 V2000
  145.3480   71.8260  220.0780 N   0  0  0  0  0  0  0  0  0  0  0  0
  145.3610   72.8880  219.1170 C   0  0  0  0  0  0  0  0  0  0  0  0
  146.3230   73.0480  218.3380 O   0  0  0  0  0  0  0  0  0  0  0  0
  144.2050   73.8090  219.0570 C   0  0  0  0  0  0  0  0  0  0  0  0
  143.6890   74.1590  217.8330 C   0  0  0  0  0  0  0  0  0  0  0  0
  142.5990   75.0340  217.8030 C   0  0  0  0  0  0  0  0  0  0  0  0
  142.0800   75.5130  218.9890 C   0  0  0  0  0  0  0  0  0  0  0  0
  141.0310   76.3610  219.2230 C   0  0  0  0  0  0  0  0  0  0  0  0
  140.8780   76.5550  220.6130 C   0  0  0  0  0  0  0  0  0  0  0  0
  139.8440   77.4000  221.1270 C   0  0  0  0  0  0  0  0  0  0  0  0
  138.7210   77.3450  220.4970 O   0  0  0  0  0  0  0  0  0  0  0  0
  139.8820   78.2790  222.2220 N   0  0  0  0  0  0  0  0  0  0  0  0
  138.7980   78.4310  223.2280 C   0  0  0  0  0  0  0  0  0  0  0  0
  138.7950   79.9460  223.3450 C   0  0  1  0  0  0  0  0  0  0  0  0
  138.0390   80.5770  222.2150 C   0  0  0  0  0  0  0  0  0  0  0  0
  137.6430   81.9080  222.7850 C   0  0  0  0  0  0  0  0  0  0  0  0
  137.7530   81.8300  224.2240 N   0  0  0  0  0  0  0  0  0  0  0  0
  136.5640   82.2940  224.8910 C   0  0  1  0  0  0  0  0  0  0  0  0
  135.6310   81.2610  225.3880 C   0  0  0  0  0  0  0  0  0  0  0  0
  135.7790   81.2790  226.8920 C   0  0  0  0  0  0  0  0  0  0  0  0
  136.6660   82.3640  227.2400 N   0  0  0  0  0  0  0  0  0  0  0  0
  136.9160   83.1440  226.0530 C   0  0  0  0  0  0  0  0  0  0  0  0
  138.0770   80.4600  224.5470 C   0  0  0  0  0  0  0  0  0  0  0  0
  140.2340   80.2180  223.3480 C   0  0  0  0  0  0  0  0  0  0  0  0
  140.9450   81.2600  223.8970 C   0  0  0  0  0  0  0  0  0  0  0  0
  142.3310   81.2400  223.7390 C   0  0  0  0  0  0  0  0  0  0  0  0
  142.9720   80.2100  223.0550 C   0  0  0  0  0  0  0  0  0  0  0  0
  142.2510   79.1640  222.5030 C   0  0  0  0  0  0  0  0  0  0  0  0
  140.8820   79.1880  222.6620 C   0  0  0  0  0  0  0  0  0  0  0  0
  141.8450   75.8110  221.1510 N   0  0  0  0  0  0  0  0  0  0  0  0
  142.5760   75.1800  220.2280 C   0  0  0  0  0  0  0  0  0  0  0  0
  143.6640   74.3060  220.2290 C   0  0  0  0  0  0  0  0  0  0  0  0
  146.1550   71.5700  220.6680 H   0  0  0  0  0  0  0  0  0  0  0  0
  144.4440   71.2990  220.1550 H   0  0  0  0  0  0  0  0  0  0  0  0
  144.1212   73.7620  216.9026 H   0  0  0  0  0  0  0  0  0  0  0  0
  142.1585   75.3383  216.8420 H   0  0  0  0  0  0  0  0  0  0  0  0
  140.4028   76.8212  218.4461 H   0  0  0  0  0  0  0  0  0  0  0  0
  137.8364   78.0436  222.8603 H   0  0  0  0  0  0  0  0  0  0  0  0
  138.9463   77.8835  224.1705 H   0  0  0  0  0  0  0  0  0  0  0  0
  138.6793   80.6997  221.3290 H   0  0  0  0  0  0  0  0  0  0  0  0
  137.1830   79.9764  221.8735 H   0  0  0  0  0  0  0  0  0  0  0  0
  138.3126   82.6920  222.4017 H   0  0  0  0  0  0  0  0  0  0  0  0
  136.6115   82.1558  222.4942 H   0  0  0  0  0  0  0  0  0  0  0  0
  136.0389   82.8381  224.0921 H   0  0  0  0  0  0  0  0  0  0  0  0
  134.5977   81.5045  225.0997 H   0  0  0  0  0  0  0  0  0  0  0  0
  135.8544   80.2700  224.9661 H   0  0  0  0  0  0  0  0  0  0  0  0
  134.7967   81.4345  227.3620 H   0  0  0  0  0  0  0  0  0  0  0  0
  136.1884   80.3218  227.2472 H   0  0  0  0  0  0  0  0  0  0  0  0
  136.2060   83.0240  227.9200 H   0  0  0  0  0  0  0  0  0  0  0  0
  136.2936   84.0509  226.0594 H   0  0  0  0  0  0  0  0  0  0  0  0
  137.9695   83.4567  226.0046 H   0  0  0  0  0  0  0  0  0  0  0  0
  138.7248   80.4138  225.4348 H   0  0  0  0  0  0  0  0  0  0  0  0
  137.1819   79.8655  224.7823 H   0  0  0  0  0  0  0  0  0  0  0  0
  140.4417   82.0749  224.4380 H   0  0  0  0  0  0  0  0  0  0  0  0
  142.9318   82.0572  224.1648 H   0  0  0  0  0  0  0  0  0  0  0  0
  144.0670   80.2274  222.9516 H   0  0  0  0  0  0  0  0  0  0  0  0
  142.7503   78.3479  221.9602 H   0  0  0  0  0  0  0  0  0  0  0  0
  141.9960   75.7440  222.1960 H   0  0  0  0  0  0  0  0  0  0  0  0
  144.1045   74.0033  221.1905 H   0  0  0  0  0  0  0  0  0  0  0  0
  1  2  1  0
  2  3  2  0
  2  4  1  0
  4  5  2  0
  5  6  1  0
  6  7  2  0
  7  8  1  0
  8  9  2  0
  9 10  1  0
 10 11  2  0
 10 12  1  0
 12 13  1  0
 14 13  1  6
 14 15  1  0
 15 16  1  0
 16 17  1  0
 17 18  1  0
 18 19  1  0
 19 20  1  0
 20 21  1  0
 21 22  1  0
 17 23  1  0
 14 24  1  0
 24 25  2  0
 25 26  1  0
 26 27  2  0
 27 28  1  0
 28 29  2  0
  9 30  1  0
 30 31  1  0
 31 32  2  0
 32  4  1  0
 31  7  1  0
 29 12  1  0
 23 14  1  0
 29 24  1  0
 22 18  1  0
  1 33  1  0
  1 34  1  0
  5 35  1  0
  6 36  1  0
  8 37  1  0
 13 38  1  0
 13 39  1  0
 15 40  1  0
 15 41  1  0
 16 42  1  0
 16 43  1  0
 18 44  1  6
 19 45  1  0
 19 46  1  0
 20 47  1  0
 20 48  1  0
 21 49  1  0
 22 50  1  0
 22 51  1  0
 23 52  1  0
 23 53  1  0
 25 54  1  0
 26 55  1  0
 27 56  1  0
 28 57  1  0
 30 58  1  0
 32 59  1  0
M  END
>  <smiles>  (95) 
NC(=O)c1ccc2cc(C(=O)N3C[C@]4(CCN(C5CCNC5)C4)c4ccccc43)[nH]c2c1

>  <score_type>  (95) 
oracle

>  <origin>  (95) 
autodockgpu

>  <m_score__min__energy>  (95) 
-8.9299999999999997

>  <m_primary>  (95) 
energy

>  <rmsd>  (95) 
7.19498530322706

>  <m_score__min__rmsd>  (95) 
7.19498530322706

>  <meeko>  (95) 
{"free_energy": -8.73, "intermolecular_energy": -9.92, "internal_energy": -1.18, "cluster_size": 27, "cluster_id": 1, "rank_in_cluster": 17}

>  <energy>  (95) 
-8.48

>  <cluster_rmsd>  (95) 
0.3

>  <cluster>  (95) 
3

$$$$

     RDKit          3D

 59 64  0  0  1  0  0  0  0  0999 V2000
  146.6140   73.8490  220.1340 N   0  0  0  0  0  0  0  0  0  0  0  0
  145.4870   73.2910  219.4490 C   0  0  0  0  0  0  0  0  0  0  0  0
  145.6270   72.6290  218.4000 O   0  0  0  0  0  0  0  0  0  0  0  0
  144.1340   73.5110  220.0040 C   0  0  0  0  0  0  0  0  0  0  0  0
  143.3150   72.4310  220.2240 C   0  0  0  0  0  0  0  0  0  0  0  0
  142.0390   72.6650  220.7470 C   0  0  0  0  0  0  0  0  0  0  0  0
  141.6470   73.9610  221.0230 C   0  0  0  0  0  0  0  0  0  0  0  0
  140.4730   74.4440  221.5350 C   0  0  0  0  0  0  0  0  0  0  0  0
  140.5450   75.8500  221.6410 C   0  0  0  0  0  0  0  0  0  0  0  0
  139.4420   76.6040  222.1550 C   0  0  0  0  0  0  0  0  0  0  0  0
  138.3040   76.0010  222.1370 O   0  0  0  0  0  0  0  0  0  0  0  0
  139.4300   77.9090  222.6770 N   0  0  0  0  0  0  0  0  0  0  0  0
  138.2060   78.6550  223.0720 C   0  0  0  0  0  0  0  0  0  0  0  0
  138.5560   80.0120  222.4850 C   0  0  1  0  0  0  0  0  0  0  0  0
  138.2860   80.0530  221.0110 C   0  0  0  0  0  0  0  0  0  0  0  0
  138.1110   81.5200  220.7490 C   0  0  0  0  0  0  0  0  0  0  0  0
  137.8400   82.1720  222.0100 N   0  0  0  0  0  0  0  0  0  0  0  0
  136.6800   83.0230  221.9480 C   0  0  1  0  0  0  0  0  0  0  0  0
  135.7380   82.7880  220.8330 C   0  0  0  0  0  0  0  0  0  0  0  0
  134.5200   82.1540  221.4660 C   0  0  0  0  0  0  0  0  0  0  0  0
  134.7130   82.1470  222.8960 N   0  0  0  0  0  0  0  0  0  0  0  0
  135.8920   82.9210  223.1990 C   0  0  0  0  0  0  0  0  0  0  0  0
  137.7180   81.1300  223.0030 C   0  0  0  0  0  0  0  0  0  0  0  0
  139.9710   80.1060  222.8530 C   0  0  0  0  0  0  0  0  0  0  0  0
  140.7640   81.2080  223.0780 C   0  0  0  0  0  0  0  0  0  0  0  0
  142.0940   80.9750  223.4270 C   0  0  0  0  0  0  0  0  0  0  0  0
  142.6030   79.6840  223.5420 C   0  0  0  0  0  0  0  0  0  0  0  0
  141.8000   78.5790  223.3130 C   0  0  0  0  0  0  0  0  0  0  0  0
  140.4870   78.8130  222.9700 C   0  0  0  0  0  0  0  0  0  0  0  0
  141.7620   76.1460  221.1860 N   0  0  0  0  0  0  0  0  0  0  0  0
  142.4450   75.0610  220.8120 C   0  0  0  0  0  0  0  0  0  0  0  0
  143.7120   74.7980  220.2900 C   0  0  0  0  0  0  0  0  0  0  0  0
  147.3910   74.3410  219.6640 H   0  0  0  0  0  0  0  0  0  0  0  0
  146.6120   73.7300  221.1760 H   0  0  0  0  0  0  0  0  0  0  0  0
  143.6532   71.4096  219.9952 H   0  0  0  0  0  0  0  0  0  0  0  0
  141.3541   71.8254  220.9368 H   0  0  0  0  0  0  0  0  0  0  0  0
  139.6058   73.8303  221.8203 H   0  0  0  0  0  0  0  0  0  0  0  0
  137.2990   78.2302  222.6171 H   0  0  0  0  0  0  0  0  0  0  0  0
  137.9748   78.6498  224.1474 H   0  0  0  0  0  0  0  0  0  0  0  0
  139.1343   79.6466  220.4408 H   0  0  0  0  0  0  0  0  0  0  0  0
  137.4178   79.4488  220.7091 H   0  0  0  0  0  0  0  0  0  0  0  0
  139.0298   81.9319  220.3061 H   0  0  0  0  0  0  0  0  0  0  0  0
  137.2796   81.6854  220.0480 H   0  0  0  0  0  0  0  0  0  0  0  0
  137.1213   84.0176  221.7864 H   0  0  0  0  0  0  0  0  0  0  0  0
  135.4697   83.7384  220.3486 H   0  0  0  0  0  0  0  0  0  0  0  0
  136.1763   82.1463  220.0544 H   0  0  0  0  0  0  0  0  0  0  0  0
  133.6220   82.7369  221.2134 H   0  0  0  0  0  0  0  0  0  0  0  0
  134.3864   81.1276  221.0935 H   0  0  0  0  0  0  0  0  0  0  0  0
  133.9200   82.6350  223.3880 H   0  0  0  0  0  0  0  0  0  0  0  0
  135.6055   83.9243  223.5473 H   0  0  0  0  0  0  0  0  0  0  0  0
  136.4811   82.4416  223.9947 H   0  0  0  0  0  0  0  0  0  0  0  0
  138.0934   81.4768  223.9770 H   0  0  0  0  0  0  0  0  0  0  0  0
  136.6725   80.8270  223.1613 H   0  0  0  0  0  0  0  0  0  0  0  0
  140.3657   82.2293  222.9865 H   0  0  0  0  0  0  0  0  0  0  0  0
  142.7571   81.8320  223.6160 H   0  0  0  0  0  0  0  0  0  0  0  0
  143.6578   79.5397  223.8187 H   0  0  0  0  0  0  0  0  0  0  0  0
  142.1950   77.5562  223.4015 H   0  0  0  0  0  0  0  0  0  0  0  0
  142.1250   77.1380  221.1370 H   0  0  0  0  0  0  0  0  0  0  0  0
  144.3959   75.6384  220.1001 H   0  0  0  0  0  0  0  0  0  0  0  0
  1  2  1  0
  2  3  2  0
  2  4  1  0
  4  5  2  0
  5  6  1  0
  6  7  2  0
  7  8  1  0
  8  9  2  0
  9 10  1  0
 10 11  2  0
 10 12  1  0
 12 13  1  0
 14 13  1  1
 14 15  1  0
 15 16  1  0
 16 17  1  0
 17 18  1  0
 18 19  1  0
 19 20  1  0
 20 21  1  0
 21 22  1  0
 17 23  1  0
 14 24  1  0
 24 25  2  0
 25 26  1  0
 26 27  2  0
 27 28  1  0
 28 29  2  0
  9 30  1  0
 30 31  1  0
 31 32  2  0
 32  4  1  0
 31  7  1  0
 29 12  1  0
 23 14  1  0
 29 24  1  0
 22 18  1  0
  1 33  1  0
  1 34  1  0
  5 35  1  0
  6 36  1  0
  8 37  1  0
 13 38  1  0
 13 39  1  0
 15 40  1  0
 15 41  1  0
 16 42  1  0
 16 43  1  0
 18 44  1  6
 19 45  1  0
 19 46  1  0
 20 47  1  0
 20 48  1  0
 21 49  1  0
 22 50  1  0
 22 51  1  0
 23 52  1  0
 23 53  1  0
 25 54  1  0
 26 55  1  0
 27 56  1  0
 28 57  1  0
 30 58  1  0
 32 59  1  0
M  END
>  <smiles>  (96) 
NC(=O)c1ccc2cc(C(=O)N3C[C@]4(CCN(C5CCNC5)C4)c4ccccc43)[nH]c2c1

>  <score_type>  (96) 
oracle

>  <origin>  (96) 
autodockgpu

>  <m_score__min__energy>  (96) 
-8.9299999999999997

>  <m_primary>  (96) 
energy

>  <rmsd>  (96) 
6.472750975369971

>  <m_score__min__rmsd>  (96) 
6.472750975369971

>  <meeko>  (96) 
{"free_energy": -7.87, "intermolecular_energy": -9.06, "internal_energy": -1.27, "cluster_size": 27, "cluster_id": 1, "rank_in_cluster": 27}

>  <energy>  (96) 
-8.47

>  <cluster_rmsd>  (96) 
0.24

>  <cluster>  (96) 
3

$$$$

     RDKit          3D

 59 64  0  0  1  0  0  0  0  0999 V2000
  145.8190   71.1860  219.6830 N   0  0  0  0  0  0  0  0  0  0  0  0
  145.5300   72.5550  219.3780 C   0  0  0  0  0  0  0  0  0  0  0  0
  146.3260   73.2570  218.7200 O   0  0  0  0  0  0  0  0  0  0  0  0
  144.2600   73.1400  219.8590 C   0  0  0  0  0  0  0  0  0  0  0  0
  143.2810   72.3100  220.3470 C   0  0  0  0  0  0  0  0  0  0  0  0
  142.0880   72.8870  220.7920 C   0  0  0  0  0  0  0  0  0  0  0  0
  141.9320   74.2580  220.7280 C   0  0  0  0  0  0  0  0  0  0  0  0
  140.8800   75.0510  221.1000 C   0  0  0  0  0  0  0  0  0  0  0  0
  141.1920   76.4040  220.8440 C   0  0  0  0  0  0  0  0  0  0  0  0
  140.2570   77.4430  221.1480 C   0  0  0  0  0  0  0  0  0  0  0  0
  139.3130   77.6070  220.2870 O   0  0  0  0  0  0  0  0  0  0  0  0
  140.2250   78.3080  222.2560 N   0  0  0  0  0  0  0  0  0  0  0  0
  139.1010   78.4100  223.2220 C   0  0  0  0  0  0  0  0  0  0  0  0
  139.0400   79.9220  223.3590 C   0  0  1  0  0  0  0  0  0  0  0  0
  138.3050   80.5420  222.2090 C   0  0  0  0  0  0  0  0  0  0  0  0
  137.8420   81.8500  222.7810 C   0  0  0  0  0  0  0  0  0  0  0  0
  137.9020   81.7560  224.2220 N   0  0  0  0  0  0  0  0  0  0  0  0
  136.6740   82.1700  224.8500 C   0  0  1  0  0  0  0  0  0  0  0  0
  135.8300   81.1060  225.4310 C   0  0  0  0  0  0  0  0  0  0  0  0
  135.9680   81.2590  226.9280 C   0  0  0  0  0  0  0  0  0  0  0  0
  136.7560   82.4400  227.1850 N   0  0  0  0  0  0  0  0  0  0  0  0
  136.9460   83.1390  225.9380 C   0  0  0  0  0  0  0  0  0  0  0  0
  138.2620   80.3940  224.5390 C   0  0  0  0  0  0  0  0  0  0  0  0
  140.4690   80.2430  223.4180 C   0  0  0  0  0  0  0  0  0  0  0  0
  141.1220   81.3000  224.0060 C   0  0  0  0  0  0  0  0  0  0  0  0
  142.5130   81.3300  223.9000 C   0  0  0  0  0  0  0  0  0  0  0  0
  143.2130   80.3320  223.2260 C   0  0  0  0  0  0  0  0  0  0  0  0
  142.5500   79.2700  222.6350 C   0  0  0  0  0  0  0  0  0  0  0  0
  141.1760   79.2450  222.7440 C   0  0  0  0  0  0  0  0  0  0  0  0
  142.4210   76.3590  220.3280 N   0  0  0  0  0  0  0  0  0  0  0  0
  142.8940   75.1130  220.2440 C   0  0  0  0  0  0  0  0  0  0  0  0
  144.0740   74.5100  219.8070 C   0  0  0  0  0  0  0  0  0  0  0  0
  146.7370   70.8490  220.0150 H   0  0  0  0  0  0  0  0  0  0  0  0
  145.0230   70.5160  219.5470 H   0  0  0  0  0  0  0  0  0  0  0  0
  143.4314   71.2210  220.3867 H   0  0  0  0  0  0  0  0  0  0  0  0
  141.2805   72.2547  221.1897 H   0  0  0  0  0  0  0  0  0  0  0  0
  139.9355   74.6892  221.5325 H   0  0  0  0  0  0  0  0  0  0  0  0
  138.1676   77.9951  222.8137 H   0  0  0  0  0  0  0  0  0  0  0  0
  139.2344   77.8553  224.1625 H   0  0  0  0  0  0  0  0  0  0  0  0
  138.9732   80.6991  221.3495 H   0  0  0  0  0  0  0  0  0  0  0  0
  137.4841   79.9171  221.8274 H   0  0  0  0  0  0  0  0  0  0  0  0
  138.4971   82.6621  222.4327 H   0  0  0  0  0  0  0  0  0  0  0  0
  136.8136   82.0657  222.4556 H   0  0  0  0  0  0  0  0  0  0  0  0
  136.1090   82.6002  224.0099 H   0  0  0  0  0  0  0  0  0  0  0  0
  134.7813   81.2364  225.1256 H   0  0  0  0  0  0  0  0  0  0  0  0
  136.1390   80.1065  225.0911 H   0  0  0  0  0  0  0  0  0  0  0  0
  134.9735   81.3671  227.3854 H   0  0  0  0  0  0  0  0  0  0  0  0
  136.4563   80.3727  227.3592 H   0  0  0  0  0  0  0  0  0  0  0  0
  136.2390   83.1120  227.8100 H   0  0  0  0  0  0  0  0  0  0  0  0
  136.2490   83.9873  225.8709 H   0  0  0  0  0  0  0  0  0  0  0  0
  137.9694   83.5351  225.8630 H   0  0  0  0  0  0  0  0  0  0  0  0
  138.8784   80.3579  225.4493 H   0  0  0  0  0  0  0  0  0  0  0  0
  137.3802   79.7658  224.7336 H   0  0  0  0  0  0  0  0  0  0  0  0
  140.5709   82.0894  224.5380 H   0  0  0  0  0  0  0  0  0  0  0  0
  143.0693   82.1605  224.3590 H   0  0  0  0  0  0  0  0  0  0  0  0
  144.3097   80.3886  223.1623 H   0  0  0  0  0  0  0  0  0  0  0  0
  143.0968   78.4791  222.1007 H   0  0  0  0  0  0  0  0  0  0  0  0
  142.9440   77.2290  220.0280 H   0  0  0  0  0  0  0  0  0  0  0  0
  144.8808   75.1430  219.4091 H   0  0  0  0  0  0  0  0  0  0  0  0
  1  2  1  0
  2  3  2  0
  2  4  1  0
  4  5  2  0
  5  6  1  0
  6  7  2  0
  7  8  1  0
  8  9  2  0
  9 10  1  0
 10 11  2  0
 10 12  1  0
 12 13  1  0
 14 13  1  6
 14 15  1  0
 15 16  1  0
 16 17  1  0
 17 18  1  0
 18 19  1  0
 19 20  1  0
 20 21  1  0
 21 22  1  0
 17 23  1  0
 14 24  1  0
 24 25  2  0
 25 26  1  0
 26 27  2  0
 27 28  1  0
 28 29  2  0
  9 30  1  0
 30 31  1  0
 31 32  2  0
 32  4  1  0
 31  7  1  0
 29 12  1  0
 23 14  1  0
 29 24  1  0
 22 18  1  0
  1 33  1  0
  1 34  1  0
  5 35  1  0
  6 36  1  0
  8 37  1  0
 13 38  1  0
 13 39  1  0
 15 40  1  0
 15 41  1  0
 16 42  1  0
 16 43  1  0
 18 44  1  6
 19 45  1  0
 19 46  1  0
 20 47  1  0
 20 48  1  0
 21 49  1  0
 22 50  1  0
 22 51  1  0
 23 52  1  0
 23 53  1  0
 25 54  1  0
 26 55  1  0
 27 56  1  0
 28 57  1  0
 30 58  1  0
 32 59  1  0
M  END
>  <smiles>  (97) 
NC(=O)c1ccc2cc(C(=O)N3C[C@]4(CCN(C5CCNC5)C4)c4ccccc43)[nH]c2c1

>  <score_type>  (97) 
oracle

>  <origin>  (97) 
autodockgpu

>  <m_score__min__energy>  (97) 
-8.9299999999999997

>  <m_primary>  (97) 
energy

>  <rmsd>  (97) 
6.800601535624439

>  <m_score__min__rmsd>  (97) 
6.800601535624439

>  <meeko>  (97) 
{"free_energy": -8.62, "intermolecular_energy": -9.81, "internal_energy": -1.16, "cluster_size": 27, "cluster_id": 1, "rank_in_cluster": 20}

>  <energy>  (97) 
-8.47

>  <cluster_rmsd>  (97) 
0.23

>  <cluster>  (97) 
3

$$$$

     RDKit          3D

 59 64  0  0  1  0  0  0  0  0999 V2000
  145.9830   71.3060  219.7940 N   0  0  0  0  0  0  0  0  0  0  0  0
  145.5830   72.5410  219.1900 C   0  0  0  0  0  0  0  0  0  0  0  0
  146.2390   73.0520  218.2590 O   0  0  0  0  0  0  0  0  0  0  0  0
  144.3670   73.2180  219.6890 C   0  0  0  0  0  0  0  0  0  0  0  0
  143.3710   72.4690  220.2670 C   0  0  0  0  0  0  0  0  0  0  0  0
  142.2290   73.1320  220.7290 C   0  0  0  0  0  0  0  0  0  0  0  0
  142.1390   74.5030  220.5910 C   0  0  0  0  0  0  0  0  0  0  0  0
  141.1470   75.3700  220.9600 C   0  0  0  0  0  0  0  0  0  0  0  0
  141.5130   76.6880  220.6120 C   0  0  0  0  0  0  0  0  0  0  0  0
  140.6460   77.7900  220.8940 C   0  0  0  0  0  0  0  0  0  0  0  0
  139.8820   78.1560  219.9230 O   0  0  0  0  0  0  0  0  0  0  0  0
  140.5100   78.5270  222.0830 N   0  0  0  0  0  0  0  0  0  0  0  0
  139.3200   78.4950  222.9720 C   0  0  0  0  0  0  0  0  0  0  0  0
  139.2020   79.9810  223.2660 C   0  0  1  0  0  0  0  0  0  0  0  0
  138.5280   80.7050  222.1400 C   0  0  0  0  0  0  0  0  0  0  0  0
  137.9860   81.9320  222.8150 C   0  0  0  0  0  0  0  0  0  0  0  0
  137.9500   81.6820  224.2380 N   0  0  0  0  0  0  0  0  0  0  0  0
  136.6690   81.9950  224.8170 C   0  0  1  0  0  0  0  0  0  0  0  0
  135.9750   80.9030  225.5340 C   0  0  0  0  0  0  0  0  0  0  0  0
  136.0740   81.2610  226.9980 C   0  0  0  0  0  0  0  0  0  0  0  0
  136.6860   82.5640  227.1000 N   0  0  0  0  0  0  0  0  0  0  0  0
  136.7910   83.1200  225.7730 C   0  0  0  0  0  0  0  0  0  0  0  0
  138.3290   80.3020  224.4310 C   0  0  0  0  0  0  0  0  0  0  0  0
  140.6120   80.3280  223.4620 C   0  0  0  0  0  0  0  0  0  0  0  0
  141.1890   81.3300  224.2060 C   0  0  0  0  0  0  0  0  0  0  0  0
  142.5820   81.4040  224.2030 C   0  0  0  0  0  0  0  0  0  0  0  0
  143.3590   80.5040  223.4780 C   0  0  0  0  0  0  0  0  0  0  0  0
  142.7720   79.4970  222.7300 C   0  0  0  0  0  0  0  0  0  0  0  0
  141.3960   79.4280  222.7360 C   0  0  0  0  0  0  0  0  0  0  0  0
  142.7140   76.5500  220.0480 N   0  0  0  0  0  0  0  0  0  0  0  0
  143.1190   75.2780  220.0160 C   0  0  0  0  0  0  0  0  0  0  0  0
  144.2470   74.5910  219.5650 C   0  0  0  0  0  0  0  0  0  0  0  0
  146.9550   71.0790  220.0580 H   0  0  0  0  0  0  0  0  0  0  0  0
  145.2110   70.6150  219.9610 H   0  0  0  0  0  0  0  0  0  0  0  0
  143.4687   71.3776  220.3639 H   0  0  0  0  0  0  0  0  0  0  0  0
  141.4103   72.5664  221.1979 H   0  0  0  0  0  0  0  0  0  0  0  0
  140.2065   75.0833  221.4533 H   0  0  0  0  0  0  0  0  0  0  0  0
  138.4303   78.1048  222.4561 H   0  0  0  0  0  0  0  0  0  0  0  0
  139.4064   77.8439  223.8544 H   0  0  0  0  0  0  0  0  0  0  0  0
  139.2479   80.9709  221.3519 H   0  0  0  0  0  0  0  0  0  0  0  0
  137.7550   80.1061  221.6362 H   0  0  0  0  0  0  0  0  0  0  0  0
  138.6378   82.7925  222.6039 H   0  0  0  0  0  0  0  0  0  0  0  0
  136.9762   82.1579  222.4418 H   0  0  0  0  0  0  0  0  0  0  0  0
  136.0588   82.2331  223.9333 H   0  0  0  0  0  0  0  0  0  0  0  0
  134.9218   80.8455  225.2218 H   0  0  0  0  0  0  0  0  0  0  0  0
  136.4244   79.9219  225.3206 H   0  0  0  0  0  0  0  0  0  0  0  0
  135.0691   81.2849  227.4449 H   0  0  0  0  0  0  0  0  0  0  0  0
  136.6775   80.5133  227.5334 H   0  0  0  0  0  0  0  0  0  0  0  0
  136.0730   83.2300  227.6380 H   0  0  0  0  0  0  0  0  0  0  0  0
  135.9835   83.8476  225.6041 H   0  0  0  0  0  0  0  0  0  0  0  0
  137.7506   83.6416  225.6425 H   0  0  0  0  0  0  0  0  0  0  0  0
  138.8813   80.1800  225.3745 H   0  0  0  0  0  0  0  0  0  0  0  0
  137.4557   79.6359  224.4918 H   0  0  0  0  0  0  0  0  0  0  0  0
  140.5781   82.0430  224.7792 H   0  0  0  0  0  0  0  0  0  0  0  0
  143.0788   82.1924  224.7875 H   0  0  0  0  0  0  0  0  0  0  0  0
  144.4551   80.5942  223.4997 H   0  0  0  0  0  0  0  0  0  0  0  0
  143.3790   78.7821  222.1551 H   0  0  0  0  0  0  0  0  0  0  0  0
  143.2640   77.3730  219.6750 H   0  0  0  0  0  0  0  0  0  0  0  0
  145.0652   75.1579  219.0969 H   0  0  0  0  0  0  0  0  0  0  0  0
  1  2  1  0
  2  3  2  0
  2  4  1  0
  4  5  2  0
  5  6  1  0
  6  7  2  0
  7  8  1  0
  8  9  2  0
  9 10  1  0
 10 11  2  0
 10 12  1  0
 12 13  1  0
 14 13  1  6
 14 15  1  0
 15 16  1  0
 16 17  1  0
 17 18  1  0
 18 19  1  0
 19 20  1  0
 20 21  1  0
 21 22  1  0
 17 23  1  0
 14 24  1  0
 24 25  2  0
 25 26  1  0
 26 27  2  0
 27 28  1  0
 28 29  2  0
  9 30  1  0
 30 31  1  0
 31 32  2  0
 32  4  1  0
 31  7  1  0
 29 12  1  0
 23 14  1  0
 29 24  1  0
 22 18  1  0
  1 33  1  0
  1 34  1  0
  5 35  1  0
  6 36  1  0
  8 37  1  0
 13 38  1  0
 13 39  1  0
 15 40  1  0
 15 41  1  0
 16 42  1  0
 16 43  1  0
 18 44  1  6
 19 45  1  0
 19 46  1  0
 20 47  1  0
 20 48  1  0
 21 49  1  0
 22 50  1  0
 22 51  1  0
 23 52  1  0
 23 53  1  0
 25 54  1  0
 26 55  1  0
 27 56  1  0
 28 57  1  0
 30 58  1  0
 32 59  1  0
M  END
>  <smiles>  (98) 
NC(=O)c1ccc2cc(C(=O)N3C[C@]4(CCN(C5CCNC5)C4)c4ccccc43)[nH]c2c1

>  <score_type>  (98) 
oracle

>  <origin>  (98) 
autodockgpu

>  <m_score__min__energy>  (98) 
-8.9299999999999997

>  <m_primary>  (98) 
energy

>  <rmsd>  (98) 
6.946638765323522

>  <m_score__min__rmsd>  (98) 
6.946638765323522

>  <meeko>  (98) 
{"free_energy": -8.74, "intermolecular_energy": -9.93, "internal_energy": -1.15, "cluster_size": 27, "cluster_id": 1, "rank_in_cluster": 15}

>  <energy>  (98) 
-8.43

>  <cluster_rmsd>  (98) 
0.22

>  <cluster>  (98) 
3

$$$$

     RDKit          3D

 59 64  0  0  1  0  0  0  0  0999 V2000
  145.9630   73.3900  217.6620 N   0  0  0  0  0  0  0  0  0  0  0  0
  145.5860   72.8980  218.9530 C   0  0  0  0  0  0  0  0  0  0  0  0
  146.2870   72.0620  219.5600 O   0  0  0  0  0  0  0  0  0  0  0  0
  144.3380   73.3960  219.5690 C   0  0  0  0  0  0  0  0  0  0  0  0
  143.5260   72.5180  220.2450 C   0  0  0  0  0  0  0  0  0  0  0  0
  142.3490   73.0130  220.8160 C   0  0  0  0  0  0  0  0  0  0  0  0
  142.0430   74.3540  220.6850 C   0  0  0  0  0  0  0  0  0  0  0  0
  140.9740   75.0710  221.1490 C   0  0  0  0  0  0  0  0  0  0  0  0
  141.1050   76.4220  220.7620 C   0  0  0  0  0  0  0  0  0  0  0  0
  140.1150   77.3890  221.1270 C   0  0  0  0  0  0  0  0  0  0  0  0
  139.0900   77.4520  220.3490 O   0  0  0  0  0  0  0  0  0  0  0  0
  140.1060   78.2780  222.2160 N   0  0  0  0  0  0  0  0  0  0  0  0
  138.9730   78.4490  223.1640 C   0  0  0  0  0  0  0  0  0  0  0  0
  138.9780   79.9640  223.2680 C   0  0  1  0  0  0  0  0  0  0  0  0
  138.2870   80.5920  222.0960 C   0  0  0  0  0  0  0  0  0  0  0  0
  137.8750   81.9310  222.6330 C   0  0  0  0  0  0  0  0  0  0  0  0
  137.9100   81.8650  224.0770 N   0  0  0  0  0  0  0  0  0  0  0  0
  136.6920   82.3460  224.6770 C   0  0  1  0  0  0  0  0  0  0  0  0
  135.4690   81.5520  224.4340 C   0  0  0  0  0  0  0  0  0  0  0  0
  135.1650   80.8730  225.7490 C   0  0  0  0  0  0  0  0  0  0  0  0
  136.1040   81.3610  226.7310 N   0  0  0  0  0  0  0  0  0  0  0  0
  136.8440   82.4530  226.1470 C   0  0  0  0  0  0  0  0  0  0  0  0
  138.2040   80.4950  224.4270 C   0  0  0  0  0  0  0  0  0  0  0  0
  140.4180   80.2230  223.3430 C   0  0  0  0  0  0  0  0  0  0  0  0
  141.1090   81.2630  223.9200 C   0  0  0  0  0  0  0  0  0  0  0  0
  142.5010   81.2290  223.8340 C   0  0  0  0  0  0  0  0  0  0  0  0
  143.1660   80.1880  223.1920 C   0  0  0  0  0  0  0  0  0  0  0  0
  142.4650   79.1440  222.6120 C   0  0  0  0  0  0  0  0  0  0  0  0
  141.0900   79.1820  222.7000 C   0  0  0  0  0  0  0  0  0  0  0  0
  142.2510   76.4540  220.0820 N   0  0  0  0  0  0  0  0  0  0  0  0
  142.8360   75.2550  220.0140 C   0  0  0  0  0  0  0  0  0  0  0  0
  144.0040   74.7340  219.4540 C   0  0  0  0  0  0  0  0  0  0  0  0
  146.3100   72.7930  216.8940 H   0  0  0  0  0  0  0  0  0  0  0  0
  145.8670   74.4260  217.5280 H   0  0  0  0  0  0  0  0  0  0  0  0
  143.7941   71.4549  220.3348 H   0  0  0  0  0  0  0  0  0  0  0  0
  141.6729   72.3406  221.3645 H   0  0  0  0  0  0  0  0  0  0  0  0
  140.1396   74.6575  221.7345 H   0  0  0  0  0  0  0  0  0  0  0  0
  138.0279   78.0669  222.7507 H   0  0  0  0  0  0  0  0  0  0  0  0
  139.0679   77.9087  224.1175 H   0  0  0  0  0  0  0  0  0  0  0  0
  138.9730   80.7010  221.2431 H   0  0  0  0  0  0  0  0  0  0  0  0
  137.4438   79.9962  221.7165 H   0  0  0  0  0  0  0  0  0  0  0  0
  138.5709   82.7054  222.2780 H   0  0  0  0  0  0  0  0  0  0  0  0
  136.8623   82.1855  222.2872 H   0  0  0  0  0  0  0  0  0  0  0  0
  136.5454   83.3153  224.1781 H   0  0  0  0  0  0  0  0  0  0  0  0
  134.6368   82.2076  224.1377 H   0  0  0  0  0  0  0  0  0  0  0  0
  135.6076   80.8251  223.6202 H   0  0  0  0  0  0  0  0  0  0  0  0
  134.1383   81.1114  226.0636 H   0  0  0  0  0  0  0  0  0  0  0  0
  135.2539   79.7816  225.6448 H   0  0  0  0  0  0  0  0  0  0  0  0
  135.6020   81.7720  227.5620 H   0  0  0  0  0  0  0  0  0  0  0  0
  136.4398   83.4136  226.4991 H   0  0  0  0  0  0  0  0  0  0  0  0
  137.9045   82.4055  226.4353 H   0  0  0  0  0  0  0  0  0  0  0  0
  138.8048   80.4505  225.3474 H   0  0  0  0  0  0  0  0  0  0  0  0
  137.2922   79.9108  224.6204 H   0  0  0  0  0  0  0  0  0  0  0  0
  140.5860   82.0868  224.4278 H   0  0  0  0  0  0  0  0  0  0  0  0
  143.0869   82.0439  224.2841 H   0  0  0  0  0  0  0  0  0  0  0  0
  144.2650   80.1948  223.1447 H   0  0  0  0  0  0  0  0  0  0  0  0
  142.9839   78.3188  222.1023 H   0  0  0  0  0  0  0  0  0  0  0  0
  142.6340   77.3420  219.6540 H   0  0  0  0  0  0  0  0  0  0  0  0
  144.6789   75.4072  218.9050 H   0  0  0  0  0  0  0  0  0  0  0  0
  1  2  1  0
  2  3  2  0
  2  4  1  0
  4  5  2  0
  5  6  1  0
  6  7  2  0
  7  8  1  0
  8  9  2  0
  9 10  1  0
 10 11  2  0
 10 12  1  0
 12 13  1  0
 14 13  1  6
 14 15  1  0
 15 16  1  0
 16 17  1  0
 17 18  1  0
 18 19  1  0
 19 20  1  0
 20 21  1  0
 21 22  1  0
 17 23  1  0
 14 24  1  0
 24 25  2  0
 25 26  1  0
 26 27  2  0
 27 28  1  0
 28 29  2  0
  9 30  1  0
 30 31  1  0
 31 32  2  0
 32  4  1  0
 31  7  1  0
 29 12  1  0
 23 14  1  0
 29 24  1  0
 22 18  1  0
  1 33  1  0
  1 34  1  0
  5 35  1  0
  6 36  1  0
  8 37  1  0
 13 38  1  0
 13 39  1  0
 15 40  1  0
 15 41  1  0
 16 42  1  0
 16 43  1  0
 18 44  1  6
 19 45  1  0
 19 46  1  0
 20 47  1  0
 20 48  1  0
 21 49  1  0
 22 50  1  0
 22 51  1  0
 23 52  1  0
 23 53  1  0
 25 54  1  0
 26 55  1  0
 27 56  1  0
 28 57  1  0
 30 58  1  0
 32 59  1  0
M  END
>  <smiles>  (99) 
NC(=O)c1ccc2cc(C(=O)N3C[C@]4(CCN(C5CCNC5)C4)c4ccccc43)[nH]c2c1

>  <score_type>  (99) 
oracle

>  <origin>  (99) 
autodockgpu

>  <m_score__min__energy>  (99) 
-8.9299999999999997

>  <m_primary>  (99) 
energy

>  <rmsd>  (99) 
6.9167228086926675

>  <m_score__min__rmsd>  (99) 
6.9167228086926675

>  <meeko>  (99) 
{"free_energy": -8.53, "intermolecular_energy": -9.73, "internal_energy": -1.19, "cluster_size": 27, "cluster_id": 1, "rank_in_cluster": 22}

>  <energy>  (99) 
-8.17

>  <cluster_rmsd>  (99) 
0.88

>  <cluster>  (99) 
3

$$$$

     RDKit          3D

 59 64  0  0  1  0  0  0  0  0999 V2000
  135.8870   81.4380  230.3470 N   0  0  0  0  0  0  0  0  0  0  0  0
  134.7630   81.3100  229.4690 C   0  0  0  0  0  0  0  0  0  0  0  0
  133.6040   81.1740  229.9130 O   0  0  0  0  0  0  0  0  0  0  0  0
  134.9920   81.3400  228.0080 C   0  0  0  0  0  0  0  0  0  0  0  0
  133.9240   81.1840  227.1590 C   0  0  0  0  0  0  0  0  0  0  0  0
  134.1670   81.2130  225.7820 C   0  0  0  0  0  0  0  0  0  0  0  0
  135.4570   81.3950  225.3240 C   0  0  0  0  0  0  0  0  0  0  0  0
  135.9460   81.4650  224.0480 C   0  0  0  0  0  0  0  0  0  0  0  0
  137.3430   81.6670  224.0840 C   0  0  0  0  0  0  0  0  0  0  0  0
  138.1010   81.7800  222.8760 C   0  0  0  0  0  0  0  0  0  0  0  0
  137.8030   82.7870  222.1290 O   0  0  0  0  0  0  0  0  0  0  0  0
  139.1240   80.9470  222.3920 N   0  0  0  0  0  0  0  0  0  0  0  0
  138.9940   80.0280  221.2310 C   0  0  0  0  0  0  0  0  0  0  0  0
  139.7080   78.8170  221.8070 C   0  0  1  0  0  0  0  0  0  0  0  0
  138.8070   78.0370  222.7160 C   0  0  0  0  0  0  0  0  0  0  0  0
  139.4210   76.6670  222.6940 C   0  0  0  0  0  0  0  0  0  0  0  0
  140.2790   76.5790  221.5340 N   0  0  0  0  0  0  0  0  0  0  0  0
  140.0170   75.4020  220.7470 C   0  0  1  0  0  0  0  0  0  0  0  0
  141.1910   74.6340  220.2830 C   0  0  0  0  0  0  0  0  0  0  0  0
  141.1950   73.3700  221.1120 C   0  0  0  0  0  0  0  0  0  0  0  0
  140.0010   73.3650  221.9230 N   0  0  0  0  0  0  0  0  0  0  0  0
  139.1580   74.4550  221.4970 C   0  0  0  0  0  0  0  0  0  0  0  0
  140.1010   77.8030  220.7870 C   0  0  0  0  0  0  0  0  0  0  0  0
  140.8400   79.4650  222.4730 C   0  0  0  0  0  0  0  0  0  0  0  0
  142.0990   78.9890  222.7600 C   0  0  0  0  0  0  0  0  0  0  0  0
  142.9770   79.8580  223.4060 C   0  0  0  0  0  0  0  0  0  0  0  0
  142.6000   81.1550  223.7480 C   0  0  0  0  0  0  0  0  0  0  0  0
  141.3320   81.6280  223.4570 C   0  0  0  0  0  0  0  0  0  0  0  0
  140.4680   80.7650  222.8190 C   0  0  0  0  0  0  0  0  0  0  0  0
  137.6290   81.7090  225.3860 N   0  0  0  0  0  0  0  0  0  0  0  0
  136.5450   81.5530  226.1510 C   0  0  0  0  0  0  0  0  0  0  0  0
  136.2740   81.5210  227.5200 C   0  0  0  0  0  0  0  0  0  0  0  0
  136.0380   80.8510  231.1830 H   0  0  0  0  0  0  0  0  0  0  0  0
  136.5770   82.1860  230.0910 H   0  0  0  0  0  0  0  0  0  0  0  0
  132.9062   81.0403  227.5508 H   0  0  0  0  0  0  0  0  0  0  0  0
  133.3375   81.0918  225.0698 H   0  0  0  0  0  0  0  0  0  0  0  0
  135.3422   81.3772  223.1327 H   0  0  0  0  0  0  0  0  0  0  0  0
  137.9424   79.8118  220.9916 H   0  0  0  0  0  0  0  0  0  0  0  0
  139.3962   80.4068  220.2798 H   0  0  0  0  0  0  0  0  0  0  0  0
  138.8099   78.4566  223.7328 H   0  0  0  0  0  0  0  0  0  0  0  0
  137.7533   78.0480  222.4005 H   0  0  0  0  0  0  0  0  0  0  0  0
  140.0121   76.5084  223.6080 H   0  0  0  0  0  0  0  0  0  0  0  0
  138.6360   75.8978  222.6471 H   0  0  0  0  0  0  0  0  0  0  0  0
  139.5346   75.8166  219.8496 H   0  0  0  0  0  0  0  0  0  0  0  0
  141.0956   74.3931  219.2139 H   0  0  0  0  0  0  0  0  0  0  0  0
  142.1250   75.2032  220.3994 H   0  0  0  0  0  0  0  0  0  0  0  0
  141.2014   72.4904  220.4515 H   0  0  0  0  0  0  0  0  0  0  0  0
  142.0905   73.3341  221.7498 H   0  0  0  0  0  0  0  0  0  0  0  0
  139.4370   72.4900  221.7590 H   0  0  0  0  0  0  0  0  0  0  0  0
  138.3541   74.0788  220.8472 H   0  0  0  0  0  0  0  0  0  0  0  0
  138.6908   74.9499  222.3612 H   0  0  0  0  0  0  0  0  0  0  0  0
  141.0389   78.0947  220.2917 H   0  0  0  0  0  0  0  0  0  0  0  0
  139.3474   77.6991  219.9925 H   0  0  0  0  0  0  0  0  0  0  0  0
  142.3999   77.9657  222.4909 H   0  0  0  0  0  0  0  0  0  0  0  0
  143.9917   79.5115  223.6516 H   0  0  0  0  0  0  0  0  0  0  0  0
  143.3204   81.8126  224.2566 H   0  0  0  0  0  0  0  0  0  0  0  0
  141.0268   82.6505  223.7241 H   0  0  0  0  0  0  0  0  0  0  0  0
  138.6120   81.8510  225.7480 H   0  0  0  0  0  0  0  0  0  0  0  0
  137.1039   81.6433  228.2316 H   0  0  0  0  0  0  0  0  0  0  0  0
  1  2  1  0
  2  3  2  0
  2  4  1  0
  4  5  2  0
  5  6  1  0
  6  7  2  0
  7  8  1  0
  8  9  2  0
  9 10  1  0
 10 11  2  0
 10 12  1  0
 12 13  1  0
 14 13  1  6
 14 15  1  0
 15 16  1  0
 16 17  1  0
 17 18  1  0
 18 19  1  0
 19 20  1  0
 20 21  1  0
 21 22  1  0
 17 23  1  0
 14 24  1  0
 24 25  2  0
 25 26  1  0
 26 27  2  0
 27 28  1  0
 28 29  2  0
  9 30  1  0
 30 31  1  0
 31 32  2  0
 32  4  1  0
 31  7  1  0
 29 12  1  0
 23 14  1  0
 29 24  1  0
 22 18  1  0
  1 33  1  0
  1 34  1  0
  5 35  1  0
  6 36  1  0
  8 37  1  0
 13 38  1  0
 13 39  1  0
 15 40  1  0
 15 41  1  0
 16 42  1  0
 16 43  1  0
 18 44  1  6
 19 45  1  0
 19 46  1  0
 20 47  1  0
 20 48  1  0
 21 49  1  0
 22 50  1  0
 22 51  1  0
 23 52  1  0
 23 53  1  0
 25 54  1  0
 26 55  1  0
 27 56  1  0
 28 57  1  0
 30 58  1  0
 32 59  1  0
M  END
>  <smiles>  (100) 
NC(=O)c1ccc2cc(C(=O)N3C[C@]4(CCN(C5CCNC5)C4)c4ccccc43)[nH]c2c1

>  <score_type>  (100) 
oracle

>  <origin>  (100) 
autodockgpu

>  <m_score__min__energy>  (100) 
-8.9299999999999997

>  <m_primary>  (100) 
energy

>  <rmsd>  (100) 
9.39743265505725

>  <m_score__min__rmsd>  (100) 
9.39743265505725

>  <meeko>  (100) 
{"free_energy": -8.53, "intermolecular_energy": -9.73, "internal_energy": -1.17, "cluster_size": 12, "cluster_id": 2, "rank_in_cluster": 11}

>  <energy>  (100) 
-8.55

>  <cluster_rmsd>  (100) 
0.0

>  <cluster>  (100) 
4

$$$$
