@<TRIPOS>MOLECULE
*****
 76 82 0 0 0
SMALL
GASTEIGER

@<TRIPOS>ATOM
      1 O         136.7270   69.8390  224.5900 O.2     1  UNL1       -0.2752
      2 C         137.9240   69.7950  224.2330 C.2     1  UNL1        0.2200
      3 C         138.7420   68.6320  224.6580 C.3     1  UNL1        0.0507
      4 C         139.5330   68.8980  225.8640 C.ar    1  UNL1       -0.0205
      5 C         139.9600   67.8490  226.6750 C.ar    1  UNL1       -0.0552
      6 C         140.6990   68.1520  227.7930 C.ar    1  UNL1       -0.0433
      7 C         141.0330   69.4520  228.1440 C.ar    1  UNL1        0.0276
      8 N         140.6040   70.4410  227.3380 N.ar    1  UNL1       -0.2630
      9 C         139.8830   70.1790  226.2420 C.ar    1  UNL1        0.0312
     10 N         138.5580   70.7900  223.4430 N.am    1  UNL1       -0.2982
     11 C         139.9490   70.7210  223.0390 C.3     1  UNL1        0.0305
     12 C         140.5680   72.1030  223.1900 C.3     1  UNL1        0.0293
     13 N         139.8390   73.0020  222.3240 N.pl3   1  UNL1       -0.3120
     14 C         140.3950   74.2410  221.9130 C.ar    1  UNL1        0.1282
     15 C         141.4120   74.3320  220.9680 C.ar    1  UNL1        0.0184
     16 C         141.9490   75.5340  220.5710 C.ar    1  UNL1        0.1285
     17 N         142.9880   75.6600  219.6120 N.pl3   1  UNL1       -0.3104
     18 C         143.0480   76.6430  218.5780 C.3     1  UNL1        0.0178
     19 C         143.2440   76.0220  217.1950 C.3     1  UNL1       -0.0115
     20 C         144.0310   74.7780  217.2380 C.ar    1  UNL1       -0.0412
     21 C         144.3750   74.2080  216.0200 C.ar    1  UNL1       -0.0582
     22 C         145.1120   73.0430  215.9860 C.ar    1  UNL1       -0.0615
     23 C         145.5230   72.4170  217.1340 C.ar    1  UNL1       -0.0614
     24 C         145.1910   72.9670  218.3530 C.ar    1  UNL1       -0.0568
     25 C         144.4480   74.1430  218.3670 C.ar    1  UNL1       -0.0269
     26 C         144.1090   74.7080  219.6780 C.3     1  UNL1        0.0388
     27 N         141.4340   76.6410  221.1510 N.ar    1  UNL1       -0.1993
     28 C         140.4510   76.6060  222.0690 C.ar    1  UNL1        0.2215
     29 N         139.9470   77.8020  222.6460 N.pl3   1  UNL1       -0.2949
     30 C         138.5950   78.2440  222.4540 C.3     1  UNL1        0.0192
     31 C         138.3470   79.6370  222.9410 C.3     1  UNL1       -0.0115
     32 C         139.5120   80.4780  222.5510 C.ar    1  UNL1       -0.0412
     33 C         139.3840   81.7080  221.9520 C.ar    1  UNL1       -0.0582
     34 C         140.5460   82.4050  221.6320 C.ar    1  UNL1       -0.0615
     35 C         141.7950   81.9070  221.8940 C.ar    1  UNL1       -0.0614
     36 C         141.9340   80.6720  222.4960 C.ar    1  UNL1       -0.0568
     37 C         140.7820   79.9850  222.8110 C.ar    1  UNL1       -0.0269
     38 C         140.8180   78.6290  223.4670 C.3     1  UNL1        0.0402
     39 N         139.9590   75.4060  222.4250 N.ar    1  UNL1       -0.1993
     40 C         138.5150   72.6540  221.8550 C.3     1  UNL1        0.0293
     41 C         137.7810   71.9510  223.0030 C.3     1  UNL1        0.0305
     42 H         138.0694   67.7853  224.8596 H       1  UNL1        0.0407
     43 H         139.4477   68.4109  223.8437 H       1  UNL1        0.0407
     44 H         139.7123   66.8063  226.4271 H       1  UNL1        0.0621
     45 H         141.0405   67.3285  228.4374 H       1  UNL1        0.0633
     46 H         141.6253   69.6662  229.0458 H       1  UNL1        0.0829
     47 H         139.5547   71.0208  225.6147 H       1  UNL1        0.0832
     48 H         140.4850   70.0032  223.6773 H       1  UNL1        0.0480
     49 H         140.0202   70.3898  221.9925 H       1  UNL1        0.0480
     50 H         140.4867   72.4390  224.2343 H       1  UNL1        0.0480
     51 H         141.6337   72.0822  222.9184 H       1  UNL1        0.0480
     52 H         141.8019   73.4058  220.5207 H       1  UNL1        0.0686
     53 H         142.1081   77.2145  218.5788 H       1  UNL1        0.0467
     54 H         143.9135   77.2909  218.7807 H       1  UNL1        0.0467
     55 H         142.2560   75.7989  216.7660 H       1  UNL1        0.0328
     56 H         143.7995   76.7461  216.5809 H       1  UNL1        0.0328
     57 H         144.0594   74.6861  215.0810 H       1  UNL1        0.0620
     58 H         145.3769   72.6048  215.0125 H       1  UNL1        0.0618
     59 H         146.1099   71.4881  217.0829 H       1  UNL1        0.0618
     60 H         145.5057   72.4880  219.2919 H       1  UNL1        0.0621
     61 H         143.8336   73.8861  220.3552 H       1  UNL1        0.0513
     62 H         144.9903   75.2562  220.0423 H       1  UNL1        0.0513
     63 H         138.3654   78.2051  221.3789 H       1  UNL1        0.0468
     64 H         137.9497   77.5758  223.0432 H       1  UNL1        0.0468
     65 H         137.4299   80.0347  222.4819 H       1  UNL1        0.0328
     66 H         138.2225   79.6419  224.0339 H       1  UNL1        0.0328
     67 H         138.3922   82.1298  221.7317 H       1  UNL1        0.0620
     68 H         140.4580   83.3907  221.1517 H       1  UNL1        0.0618
     69 H         142.6874   82.4910  221.6248 H       1  UNL1        0.0618
     70 H         142.9269   80.2526  222.7157 H       1  UNL1        0.0621
     71 H         141.8421   78.2276  223.4733 H       1  UNL1        0.0514
     72 H         140.4921   78.6643  224.5170 H       1  UNL1        0.0514
     73 H         137.9699   73.5640  221.5640 H       1  UNL1        0.0480
     74 H         138.5794   71.9930  220.9781 H       1  UNL1        0.0480
     75 H         137.6598   72.6505  223.8432 H       1  UNL1        0.0480
     76 H         136.7915   71.6189  222.6558 H       1  UNL1        0.0480
@<TRIPOS>BOND
     1     1     2    2
     2     2     3    1
     3     3     4    1
     4     4     5   ar
     5     5     6   ar
     6     6     7   ar
     7     7     8   ar
     8     8     9   ar
     9     2    10   am
    10    10    11    1
    11    11    12    1
    12    12    13    1
    13    13    14    1
    14    14    15   ar
    15    15    16   ar
    16    16    17    1
    17    17    18    1
    18    18    19    1
    19    19    20    1
    20    20    21   ar
    21    21    22   ar
    22    22    23   ar
    23    23    24   ar
    24    24    25   ar
    25    25    26    1
    26    16    27   ar
    27    27    28   ar
    28    28    29    1
    29    29    30    1
    30    30    31    1
    31    31    32    1
    32    32    33   ar
    33    33    34   ar
    34    34    35   ar
    35    35    36   ar
    36    36    37   ar
    37    37    38    1
    38    28    39   ar
    39    13    40    1
    40    40    41    1
    41     9     4   ar
    42    41    10    1
    43    39    14   ar
    44    26    17    1
    45    38    29    1
    46    25    20   ar
    47    37    32   ar
    48     3    42    1
    49     3    43    1
    50     5    44    1
    51     6    45    1
    52     7    46    1
    53     9    47    1
    54    11    48    1
    55    11    49    1
    56    12    50    1
    57    12    51    1
    58    15    52    1
    59    18    53    1
    60    18    54    1
    61    19    55    1
    62    19    56    1
    63    21    57    1
    64    22    58    1
    65    23    59    1
    66    24    60    1
    67    26    61    1
    68    26    62    1
    69    30    63    1
    70    30    64    1
    71    31    65    1
    72    31    66    1
    73    33    67    1
    74    34    68    1
    75    35    69    1
    76    36    70    1
    77    38    71    1
    78    38    72    1
    79    40    73    1
    80    40    74    1
    81    41    75    1
    82    41    76    1
