
 62 65  0  0  0  0  0  0  0  0999 V2000
  141.1260   82.5450  221.7160 C   0  0  0  0  0  0  0  0  0  0  0  0
  141.3920   81.2230  221.0670 C   0  0  0  0  0  0  0  0  0  0  0  0
  141.6760   81.1630  219.7080 C   0  0  0  0  0  0  0  0  0  0  0  0
  141.9210   79.9460  219.1060 C   0  0  0  0  0  0  0  0  0  0  0  0
  141.8920   78.7460  219.8260 C   0  0  0  0  0  0  0  0  0  0  0  0
  142.1590   77.4630  219.1450 C   0  0  2  0  0  0  0  0  0  0  0  0
  140.9150   77.0390  218.4040 C   0  0  0  0  0  0  0  0  0  0  0  0
  142.6700   76.4320  220.0080 N   0  0  0  0  0  0  0  0  0  0  0  0
  143.6190   75.4970  219.5190 C   0  0  0  0  0  0  0  0  0  0  0  0
  144.0210   75.5620  218.3310 O   0  0  0  0  0  0  0  0  0  0  0  0
  144.1160   74.4400  220.4740 C   0  0  2  0  0  0  0  0  0  0  0  0
  145.3770   73.8280  219.9220 C   0  0  0  0  0  0  0  0  0  0  0  0
  145.3670   72.4370  220.4630 C   0  0  2  0  0  0  0  0  0  0  0  0
  146.1230   71.5910  219.6550 O   0  0  0  0  0  0  0  0  0  0  0  0
  143.8900   72.0580  220.4580 C   0  0  0  0  0  0  0  0  0  0  0  0
  143.2120   73.3530  220.6230 N   0  0  0  0  0  0  0  0  0  0  0  0
  141.8280   73.4690  220.8990 C   0  0  0  0  0  0  0  0  0  0  0  0
  141.3170   74.4830  221.4680 O   0  0  0  0  0  0  0  0  0  0  0  0
  140.8600   72.3890  220.5350 C   0  0  0  0  0  0  0  0  0  0  0  0
  140.7110   71.4320  221.5980 N   0  0  0  0  0  0  0  0  0  0  0  0
  140.1950   71.8680  222.8510 C   0  0  0  0  0  0  0  0  0  0  0  0
  139.8580   73.0670  223.0710 O   0  0  0  0  0  0  0  0  0  0  0  0
  140.0490   70.8830  223.9220 C   0  0  0  0  0  0  0  0  0  0  0  0
  139.3600   69.7090  223.7070 C   0  0  0  0  0  0  0  0  0  0  0  0
  139.1870   68.7410  224.6750 C   0  0  0  0  0  0  0  0  0  0  0  0
  139.7480   68.9840  225.9240 C   0  0  0  0  0  0  0  0  0  0  0  0
  139.5720   68.0160  226.8840 C   0  0  0  0  0  0  0  0  0  0  0  0
  140.1200   68.2380  228.1290 C   0  0  0  0  0  0  0  0  0  0  0  0
  140.8190   69.4070  228.3780 C   0  0  0  0  0  0  0  0  0  0  0  0
  140.9740   70.3550  227.3920 C   0  0  0  0  0  0  0  0  0  0  0  0
  140.4360   70.1590  226.1350 C   0  0  0  0  0  0  0  0  0  0  0  0
  140.5700   71.0630  225.1530 N   0  0  0  0  0  0  0  0  0  0  0  0
  141.6080   78.8110  221.1840 C   0  0  0  0  0  0  0  0  0  0  0  0
  141.3580   80.0430  221.8020 C   0  0  0  0  0  0  0  0  0  0  0  0
  141.1496   82.4280  222.8095 H   0  0  0  0  0  0  0  0  0  0  0  0
  141.8970   83.2665  221.4078 H   0  0  0  0  0  0  0  0  0  0  0  0
  140.1360   82.9122  221.4078 H   0  0  0  0  0  0  0  0  0  0  0  0
  141.7055   82.0868  219.1116 H   0  0  0  0  0  0  0  0  0  0  0  0
  142.1455   79.9179  218.0295 H   0  0  0  0  0  0  0  0  0  0  0  0
  142.9770   77.6254  218.4277 H   0  0  0  0  0  0  0  0  0  0  0  0
  140.1306   76.7716  219.1273 H   0  0  0  0  0  0  0  0  0  0  0  0
  140.5640   77.8682  217.7722 H   0  0  0  0  0  0  0  0  0  0  0  0
  141.1435   76.1680  217.7722 H   0  0  0  0  0  0  0  0  0  0  0  0
  142.3420   76.3600  221.0180 H   0  0  0  0  0  0  0  0  0  0  0  0
  144.2545   74.9478  221.4399 H   0  0  0  0  0  0  0  0  0  0  0  0
  145.3595   73.8204  218.8222 H   0  0  0  0  0  0  0  0  0  0  0  0
  146.2802   74.3876  220.2067 H   0  0  0  0  0  0  0  0  0  0  0  0
  145.8115   72.3563  221.4660 H   0  0  0  0  0  0  0  0  0  0  0  0
  146.3540   70.7850  220.1940 H   0  0  0  0  0  0  0  0  0  0  0  0
  143.6076   71.5829  219.5069 H   0  0  0  0  0  0  0  0  0  0  0  0
  143.6280   71.3303  221.2402 H   0  0  0  0  0  0  0  0  0  0  0  0
  139.8808   72.8435  220.3238 H   0  0  0  0  0  0  0  0  0  0  0  0
  141.2477   71.8631  219.6501 H   0  0  0  0  0  0  0  0  0  0  0  0
  140.9820   70.4170  221.4530 H   0  0  0  0  0  0  0  0  0  0  0  0
  138.9253   69.5345  222.7117 H   0  0  0  0  0  0  0  0  0  0  0  0
  138.6289   67.8161  224.4675 H   0  0  0  0  0  0  0  0  0  0  0  0
  139.0123   67.0946  226.6658 H   0  0  0  0  0  0  0  0  0  0  0  0
  140.0021   67.4871  228.9242 H   0  0  0  0  0  0  0  0  0  0  0  0
  141.2546   69.5798  229.3732 H   0  0  0  0  0  0  0  0  0  0  0  0
  141.5321   71.2782  227.6073 H   0  0  0  0  0  0  0  0  0  0  0  0
  141.5791   77.8867  221.7796 H   0  0  0  0  0  0  0  0  0  0  0  0
  141.1328   80.0773  222.8782 H   0  0  0  0  0  0  0  0  0  0  0  0
  1  2  1  0
  2  3  2  0
  3  4  1  0
  4  5  2  0
  5  6  1  0
  6  7  1  0
  6  8  1  0
  8  9  1  0
  9 10  2  0
  9 11  1  0
 11 12  1  0
 12 13  1  0
 13 14  1  0
 13 15  1  0
 15 16  1  0
 16 17  1  0
 17 18  2  0
 17 19  1  0
 19 20  1  0
 20 21  1  0
 21 22  2  0
 21 23  1  0
 23 24  2  0
 24 25  1  0
 25 26  2  0
 26 27  1  0
 27 28  2  0
 28 29  1  0
 29 30  2  0
 30 31  1  0
 31 32  2  0
  5 33  1  0
 33 34  2  0
 34  2  1  0
 16 11  1  0
 32 23  1  0
 31 26  1  0
  1 35  1  0
  1 36  1  0
  1 37  1  0
  3 38  1  0
  4 39  1  0
  6 40  1  6
  7 41  1  0
  7 42  1  0
  7 43  1  0
  8 44  1  0
 11 45  1  1
 12 46  1  0
 12 47  1  0
 13 48  1  1
 14 49  1  0
 15 50  1  0
 15 51  1  0
 19 52  1  0
 19 53  1  0
 20 54  1  0
 24 55  1  0
 25 56  1  0
 27 57  1  0
 28 58  1  0
 29 59  1  0
 30 60  1  0
 33 61  1  0
 34 62  1  0
M  END
