
     RDKit          3D

 59 62  0  0  0  0  0  0  0  0999 V2000
  142.3980   79.2410  223.1230 C   0  0  0  0  0  0  0  0  0  0  0  0
  141.3170   78.1950  223.0350 C   0  0  2  0  0  0  0  0  0  0  0  0
  141.4450   77.5040  221.7780 N   0  0  0  0  0  0  0  0  0  0  0  0
  140.8990   76.2130  221.5500 C   0  0  0  0  0  0  0  0  0  0  0  0
  140.2750   75.6460  222.4850 O   0  0  0  0  0  0  0  0  0  0  0  0
  141.0180   75.4840  220.2660 C   0  0  1  0  0  0  0  0  0  0  0  0
  142.4750   75.3350  219.8460 C   0  0  0  0  0  0  0  0  0  0  0  0
  142.9130   74.1350  220.6200 C   0  0  0  0  0  0  0  0  0  0  0  0
  141.6960   73.2590  220.8170 C   0  0  0  0  0  0  0  0  0  0  0  0
  140.6100   74.0960  220.3520 N   0  0  0  0  0  0  0  0  0  0  0  0
  139.2900   73.6370  220.0120 C   0  0  0  0  0  0  0  0  0  0  0  0
  139.0080   73.2240  218.8510 O   0  0  0  0  0  0  0  0  0  0  0  0
  138.2160   73.6430  221.0530 C   0  0  0  0  0  0  0  0  0  0  0  0
  138.7780   73.1090  222.2790 N   0  0  0  0  0  0  0  0  0  0  0  0
  138.7900   71.7280  222.5290 C   0  0  0  0  0  0  0  0  0  0  0  0
  138.3130   70.8770  221.7030 O   0  0  0  0  0  0  0  0  0  0  0  0
  139.3520   71.1650  223.7590 C   0  0  0  0  0  0  0  0  0  0  0  0
  140.3360   71.8740  224.4280 C   0  0  0  0  0  0  0  0  0  0  0  0
  140.9120   71.3950  225.6050 C   0  0  0  0  0  0  0  0  0  0  0  0
  140.4920   70.1790  226.1210 C   0  0  0  0  0  0  0  0  0  0  0  0
  141.0840   69.7290  227.2940 C   0  0  0  0  0  0  0  0  0  0  0  0
  140.6750   68.5180  227.8190 C   0  0  0  0  0  0  0  0  0  0  0  0
  141.2710   68.1050  228.9630 F   0  0  0  0  0  0  0  0  0  0  0  0
  139.6920   67.7810  227.1780 C   0  0  0  0  0  0  0  0  0  0  0  0
  139.1080   68.2520  225.9980 C   0  0  0  0  0  0  0  0  0  0  0  0
  139.5150   69.4690  225.4640 C   0  0  0  0  0  0  0  0  0  0  0  0
  138.9570   69.9720  224.2890 C   0  0  0  0  0  0  0  0  0  0  0  0
  140.0040   78.8850  223.1720 C   0  0  0  0  0  0  0  0  0  0  0  0
  139.9090   80.1710  223.7160 C   0  0  0  0  0  0  0  0  0  0  0  0
  138.6920   80.8100  223.8440 C   0  0  0  0  0  0  0  0  0  0  0  0
  137.5260   80.2080  223.4410 C   0  0  0  0  0  0  0  0  0  0  0  0
  137.5960   78.9300  222.8970 C   0  0  0  0  0  0  0  0  0  0  0  0
  138.8130   78.3120  222.7780 C   0  0  0  0  0  0  0  0  0  0  0  0
  142.6175   79.4534  224.1797 H   0  0  0  0  0  0  0  0  0  0  0  0
  143.3074   78.8711  222.6268 H   0  0  0  0  0  0  0  0  0  0  0  0
  142.0583   80.1620  222.6268 H   0  0  0  0  0  0  0  0  0  0  0  0
  141.4002   77.4447  223.8351 H   0  0  0  0  0  0  0  0  0  0  0  0
  141.9640   77.9860  221.0140 H   0  0  0  0  0  0  0  0  0  0  0  0
  140.3928   76.0765  219.5819 H   0  0  0  0  0  0  0  0  0  0  0  0
  142.5610   75.1627  218.7630 H   0  0  0  0  0  0  0  0  0  0  0  0
  143.0824   76.2305  220.0440 H   0  0  0  0  0  0  0  0  0  0  0  0
  143.6849   73.5868  220.0599 H   0  0  0  0  0  0  0  0  0  0  0  0
  143.3410   74.4312  221.5891 H   0  0  0  0  0  0  0  0  0  0  0  0
  141.7702   72.3395  220.2179 H   0  0  0  0  0  0  0  0  0  0  0  0
  141.5686   72.9235  221.8568 H   0  0  0  0  0  0  0  0  0  0  0  0
  137.8641   74.6716  221.2205 H   0  0  0  0  0  0  0  0  0  0  0  0
  137.3625   73.0313  220.7254 H   0  0  0  0  0  0  0  0  0  0  0  0
  139.1700   73.7980  222.9590 H   0  0  0  0  0  0  0  0  0  0  0  0
  140.6718   72.8392  224.0210 H   0  0  0  0  0  0  0  0  0  0  0  0
  141.6918   71.9766  226.1184 H   0  0  0  0  0  0  0  0  0  0  0  0
  141.8620   70.3240  227.7946 H   0  0  0  0  0  0  0  0  0  0  0  0
  139.3687   66.8182  227.6006 H   0  0  0  0  0  0  0  0  0  0  0  0
  138.3289   67.6612  225.4939 H   0  0  0  0  0  0  0  0  0  0  0  0
  138.1770   69.3906  223.7756 H   0  0  0  0  0  0  0  0  0  0  0  0
  140.8236   80.6836  224.0487 H   0  0  0  0  0  0  0  0  0  0  0  0
  138.6560   81.8205  224.2770 H   0  0  0  0  0  0  0  0  0  0  0  0
  136.5601   80.7238  223.5458 H   0  0  0  0  0  0  0  0  0  0  0  0
  136.6805   78.4188  222.5645 H   0  0  0  0  0  0  0  0  0  0  0  0
  138.8418   77.3018  222.3437 H   0  0  0  0  0  0  0  0  0  0  0  0
  1  2  1  0
  2  3  1  0
  3  4  1  0
  4  5  2  0
  4  6  1  0
  6  7  1  0
  7  8  1  0
  8  9  1  0
  9 10  1  0
 10 11  1  0
 11 12  2  0
 11 13  1  0
 13 14  1  0
 14 15  1  0
 15 16  2  0
 15 17  1  0
 17 18  2  0
 18 19  1  0
 19 20  2  0
 20 21  1  0
 21 22  2  0
 22 23  1  0
 22 24  1  0
 24 25  2  0
 25 26  1  0
 26 27  2  0
  2 28  1  0
 28 29  2  0
 29 30  1  0
 30 31  2  0
 31 32  1  0
 32 33  2  0
 10  6  1  0
 27 17  1  0
 33 28  1  0
 26 20  1  0
  1 34  1  0
  1 35  1  0
  1 36  1  0
  2 37  1  1
  3 38  1  0
  6 39  1  6
  7 40  1  0
  7 41  1  0
  8 42  1  0
  8 43  1  0
  9 44  1  0
  9 45  1  0
 13 46  1  0
 13 47  1  0
 14 48  1  0
 18 49  1  0
 19 50  1  0
 21 51  1  0
 24 52  1  0
 25 53  1  0
 27 54  1  0
 29 55  1  0
 30 56  1  0
 31 57  1  0
 32 58  1  0
 33 59  1  0
M  END
>  <smiles>  (1) 
C[C@H](NC(=O)[C@H]1CCCN1C(=O)CNC(=O)c1ccc2cc(F)ccc2c1)c1ccccc1

>  <score_type>  (1) 
oracle

>  <origin>  (1) 
autodockgpu

>  <m_score__min__energy>  (1) 
-9.5099999999999998

>  <m_primary>  (1) 
energy

>  <rmsd>  (1) 
3.079088119501447

>  <m_score__min__rmsd>  (1) 
3.079088119501447

>  <meeko>  (1) 
{"free_energy": -8.71, "intermolecular_energy": -10.79, "internal_energy": -2.59, "cluster_size": 35, "cluster_id": 1, "rank_in_cluster": 24}

>  <energy>  (1) 
-9.51

>  <cluster_rmsd>  (1) 
0.0

>  <cluster>  (1) 
1

$$$$

     RDKit          3D

 59 62  0  0  0  0  0  0  0  0999 V2000
  139.3770   76.5360  222.2930 C   0  0  0  0  0  0  0  0  0  0  0  0
  139.9670   77.5120  221.3080 C   0  0  2  0  0  0  0  0  0  0  0  0
  140.6250   76.7710  220.2630 N   0  0  0  0  0  0  0  0  0  0  0  0
  141.5180   75.6970  220.5240 C   0  0  0  0  0  0  0  0  0  0  0  0
  141.7460   75.3780  221.7200 O   0  0  0  0  0  0  0  0  0  0  0  0
  142.2040   74.9220  219.4640 C   0  0  1  0  0  0  0  0  0  0  0  0
  143.6920   75.2480  219.4140 C   0  0  0  0  0  0  0  0  0  0  0  0
  144.2510   74.3690  220.4840 C   0  0  0  0  0  0  0  0  0  0  0  0
  143.3620   73.1490  220.5730 C   0  0  0  0  0  0  0  0  0  0  0  0
  142.2400   73.4970  219.7260 N   0  0  0  0  0  0  0  0  0  0  0  0
  141.2750   72.5710  219.1990 C   0  0  0  0  0  0  0  0  0  0  0  0
  141.5590   71.7780  218.2560 O   0  0  0  0  0  0  0  0  0  0  0  0
  139.8940   72.5370  219.7750 C   0  0  0  0  0  0  0  0  0  0  0  0
  139.9250   71.7020  220.9600 N   0  0  0  0  0  0  0  0  0  0  0  0
  139.9580   72.2680  222.2450 C   0  0  0  0  0  0  0  0  0  0  0  0
  139.9620   73.5310  222.4370 O   0  0  0  0  0  0  0  0  0  0  0  0
  139.9890   71.4450  223.4560 C   0  0  0  0  0  0  0  0  0  0  0  0
  139.4790   70.1580  223.4020 C   0  0  0  0  0  0  0  0  0  0  0  0
  139.4790   69.3220  224.5190 C   0  0  0  0  0  0  0  0  0  0  0  0
  140.0010   69.7880  225.7150 C   0  0  0  0  0  0  0  0  0  0  0  0
  139.9880   68.9330  226.8100 C   0  0  0  0  0  0  0  0  0  0  0  0
  140.5050   69.3840  228.0090 C   0  0  0  0  0  0  0  0  0  0  0  0
  140.4770   68.5270  229.0580 F   0  0  0  0  0  0  0  0  0  0  0  0
  141.0240   70.6650  228.1010 C   0  0  0  0  0  0  0  0  0  0  0  0
  141.0300   71.5110  226.9880 C   0  0  0  0  0  0  0  0  0  0  0  0
  140.5100   71.0640  225.7790 C   0  0  0  0  0  0  0  0  0  0  0  0
  140.4970   71.8770  224.6460 C   0  0  0  0  0  0  0  0  0  0  0  0
  140.9040   78.3980  222.0510 C   0  0  0  0  0  0  0  0  0  0  0  0
  141.7040   79.3350  221.3880 C   0  0  0  0  0  0  0  0  0  0  0  0
  142.5730   80.1570  222.0770 C   0  0  0  0  0  0  0  0  0  0  0  0
  142.6870   80.0860  223.4440 C   0  0  0  0  0  0  0  0  0  0  0  0
  141.9020   79.1620  224.1250 C   0  0  0  0  0  0  0  0  0  0  0  0
  141.0450   78.3550  223.4230 C   0  0  0  0  0  0  0  0  0  0  0  0
  139.5841   76.8787  223.3175 H   0  0  0  0  0  0  0  0  0  0  0  0
  138.2895   76.4731  222.1402 H   0  0  0  0  0  0  0  0  0  0  0  0
  139.8267   75.5438  222.1402 H   0  0  0  0  0  0  0  0  0  0  0  0
  139.1975   78.1397  220.8349 H   0  0  0  0  0  0  0  0  0  0  0  0
  140.4260   77.0480  219.2780 H   0  0  0  0  0  0  0  0  0  0  0  0
  141.6385   75.1807  218.5566 H   0  0  0  0  0  0  0  0  0  0  0  0
  144.1205   75.0002  218.4317 H   0  0  0  0  0  0  0  0  0  0  0  0
  143.9126   76.3153  219.5632 H   0  0  0  0  0  0  0  0  0  0  0  0
  145.2775   74.0689  220.2267 H   0  0  0  0  0  0  0  0  0  0  0  0
  144.2824   74.8994  221.4472 H   0  0  0  0  0  0  0  0  0  0  0  0
  143.8796   72.2550  220.1951 H   0  0  0  0  0  0  0  0  0  0  0  0
  143.0658   72.9044  221.6037 H   0  0  0  0  0  0  0  0  0  0  0  0
  139.5761   73.5552  220.0436 H   0  0  0  0  0  0  0  0  0  0  0  0
  139.1825   72.1324  219.0401 H   0  0  0  0  0  0  0  0  0  0  0  0
  139.9210   70.6690  220.8110 H   0  0  0  0  0  0  0  0  0  0  0  0
  139.0634   69.7857  222.4540 H   0  0  0  0  0  0  0  0  0  0  0  0
  139.0689   68.3036  224.4509 H   0  0  0  0  0  0  0  0  0  0  0  0
  139.5744   67.9174  226.7239 H   0  0  0  0  0  0  0  0  0  0  0  0
  141.4349   71.0196  229.0578 H   0  0  0  0  0  0  0  0  0  0  0  0
  141.4447   72.5266  227.0688 H   0  0  0  0  0  0  0  0  0  0  0  0
  140.9079   72.8951  224.7138 H   0  0  0  0  0  0  0  0  0  0  0  0
  141.6390   79.4185  220.2931 H   0  0  0  0  0  0  0  0  0  0  0  0
  143.1854   80.8822  221.5211 H   0  0  0  0  0  0  0  0  0  0  0  0
  143.3820   80.7437  223.9866 H   0  0  0  0  0  0  0  0  0  0  0  0
  141.9684   79.0793  225.2199 H   0  0  0  0  0  0  0  0  0  0  0  0
  140.4352   77.6323  223.9850 H   0  0  0  0  0  0  0  0  0  0  0  0
  1  2  1  0
  2  3  1  0
  3  4  1  0
  4  5  2  0
  4  6  1  0
  6  7  1  0
  7  8  1  0
  8  9  1  0
  9 10  1  0
 10 11  1  0
 11 12  2  0
 11 13  1  0
 13 14  1  0
 14 15  1  0
 15 16  2  0
 15 17  1  0
 17 18  2  0
 18 19  1  0
 19 20  2  0
 20 21  1  0
 21 22  2  0
 22 23  1  0
 22 24  1  0
 24 25  2  0
 25 26  1  0
 26 27  2  0
  2 28  1  0
 28 29  2  0
 29 30  1  0
 30 31  2  0
 31 32  1  0
 32 33  2  0
 10  6  1  0
 27 17  1  0
 33 28  1  0
 26 20  1  0
  1 34  1  0
  1 35  1  0
  1 36  1  0
  2 37  1  6
  3 38  1  0
  6 39  1  6
  7 40  1  0
  7 41  1  0
  8 42  1  0
  8 43  1  0
  9 44  1  0
  9 45  1  0
 13 46  1  0
 13 47  1  0
 14 48  1  0
 18 49  1  0
 19 50  1  0
 21 51  1  0
 24 52  1  0
 25 53  1  0
 27 54  1  0
 29 55  1  0
 30 56  1  0
 31 57  1  0
 32 58  1  0
 33 59  1  0
M  END
>  <smiles>  (2) 
C[C@H](NC(=O)[C@H]1CCCN1C(=O)CNC(=O)c1ccc2cc(F)ccc2c1)c1ccccc1

>  <score_type>  (2) 
oracle

>  <origin>  (2) 
autodockgpu

>  <m_score__min__energy>  (2) 
-9.5099999999999998

>  <m_primary>  (2) 
energy

>  <rmsd>  (2) 
3.586462068193382

>  <m_score__min__rmsd>  (2) 
3.586462068193382

>  <meeko>  (2) 
{"free_energy": -9.11, "intermolecular_energy": -11.2, "internal_energy": -2.05, "cluster_size": 35, "cluster_id": 1, "rank_in_cluster": 5}

>  <energy>  (2) 
-9.5

>  <cluster_rmsd>  (2) 
0.13

>  <cluster>  (2) 
1

$$$$

     RDKit          3D

 59 62  0  0  0  0  0  0  0  0999 V2000
  142.2390   79.1600  223.2690 C   0  0  0  0  0  0  0  0  0  0  0  0
  141.1980   78.0890  223.0710 C   0  0  2  0  0  0  0  0  0  0  0  0
  141.4340   77.4440  221.8060 N   0  0  0  0  0  0  0  0  0  0  0  0
  140.9330   76.1510  221.4940 C   0  0  0  0  0  0  0  0  0  0  0  0
  140.2530   75.5420  222.3600 O   0  0  0  0  0  0  0  0  0  0  0  0
  141.1640   75.4690  220.2000 C   0  0  1  0  0  0  0  0  0  0  0  0
  142.6470   75.4280  219.8510 C   0  0  0  0  0  0  0  0  0  0  0  0
  143.1240   74.2370  220.6150 C   0  0  0  0  0  0  0  0  0  0  0  0
  141.9600   73.2790  220.7270 C   0  0  0  0  0  0  0  0  0  0  0  0
  140.8450   74.0560  220.2290 N   0  0  0  0  0  0  0  0  0  0  0  0
  139.5770   73.5220  219.8110 C   0  0  0  0  0  0  0  0  0  0  0  0
  139.4010   73.0590  218.6470 O   0  0  0  0  0  0  0  0  0  0  0  0
  138.4290   73.5100  220.7700 C   0  0  0  0  0  0  0  0  0  0  0  0
  138.9150   73.0110  222.0420 N   0  0  0  0  0  0  0  0  0  0  0  0
  139.0730   71.6350  222.2700 C   0  0  0  0  0  0  0  0  0  0  0  0
  138.8010   70.7580  221.3810 O   0  0  0  0  0  0  0  0  0  0  0  0
  139.5610   71.1090  223.5470 C   0  0  0  0  0  0  0  0  0  0  0  0
  140.4350   71.8800  224.2960 C   0  0  0  0  0  0  0  0  0  0  0  0
  140.9370   71.4390  225.5200 C   0  0  0  0  0  0  0  0  0  0  0  0
  140.5550   70.1970  226.0020 C   0  0  0  0  0  0  0  0  0  0  0  0
  141.0710   69.7850  227.2240 C   0  0  0  0  0  0  0  0  0  0  0  0
  140.6990   68.5490  227.7170 C   0  0  0  0  0  0  0  0  0  0  0  0
  141.2190   68.1750  228.9100 F   0  0  0  0  0  0  0  0  0  0  0  0
  139.8270   67.7500  226.9950 C   0  0  0  0  0  0  0  0  0  0  0  0
  139.3170   68.1820  225.7670 C   0  0  0  0  0  0  0  0  0  0  0  0
  139.6880   69.4250  225.2660 C   0  0  0  0  0  0  0  0  0  0  0  0
  139.2020   69.8910  224.0450 C   0  0  0  0  0  0  0  0  0  0  0  0
  139.8590   78.7390  223.1350 C   0  0  0  0  0  0  0  0  0  0  0  0
  139.6840   79.9930  223.7310 C   0  0  0  0  0  0  0  0  0  0  0  0
  138.4440   80.5950  223.7920 C   0  0  0  0  0  0  0  0  0  0  0  0
  137.3310   79.9850  223.2670 C   0  0  0  0  0  0  0  0  0  0  0  0
  137.4790   78.7380  222.6700 C   0  0  0  0  0  0  0  0  0  0  0  0
  138.7200   78.1570  222.6200 C   0  0  0  0  0  0  0  0  0  0  0  0
  142.3973   79.3229  224.3453 H   0  0  0  0  0  0  0  0  0  0  0  0
  143.1839   78.8435  222.8031 H   0  0  0  0  0  0  0  0  0  0  0  0
  141.8958   80.0955  222.8031 H   0  0  0  0  0  0  0  0  0  0  0  0
  141.2466   77.3149  223.8510 H   0  0  0  0  0  0  0  0  0  0  0  0
  141.9990   77.9610  221.0990 H   0  0  0  0  0  0  0  0  0  0  0  0
  140.5356   76.0392  219.5000 H   0  0  0  0  0  0  0  0  0  0  0  0
  142.7977   75.2935  218.7697 H   0  0  0  0  0  0  0  0  0  0  0  0
  143.1833   76.3549  220.1026 H   0  0  0  0  0  0  0  0  0  0  0  0
  143.9571   73.7563  220.0813 H   0  0  0  0  0  0  0  0  0  0  0  0
  143.4828   74.5321  221.6121 H   0  0  0  0  0  0  0  0  0  0  0  0
  142.1246   72.3839  220.1091 H   0  0  0  0  0  0  0  0  0  0  0  0
  141.8041   72.9064  221.7502 H   0  0  0  0  0  0  0  0  0  0  0  0
  138.0354   74.5296  220.8944 H   0  0  0  0  0  0  0  0  0  0  0  0
  137.6201   72.8682  220.3908 H   0  0  0  0  0  0  0  0  0  0  0  0
  139.1400   73.7230  222.7730 H   0  0  0  0  0  0  0  0  0  0  0  0
  140.7409   72.8656  223.9153 H   0  0  0  0  0  0  0  0  0  0  0  0
  141.6289   72.0703  226.0969 H   0  0  0  0  0  0  0  0  0  0  0  0
  141.7616   70.4295  227.7877 H   0  0  0  0  0  0  0  0  0  0  0  0
  139.5333   66.7669  227.3916 H   0  0  0  0  0  0  0  0  0  0  0  0
  138.6255   67.5416  225.1998 H   0  0  0  0  0  0  0  0  0  0  0  0
  138.5105   69.2594  223.4679 H   0  0  0  0  0  0  0  0  0  0  0  0
  140.5546   80.5104  224.1605 H   0  0  0  0  0  0  0  0  0  0  0  0
  138.3450   81.5810  224.2696 H   0  0  0  0  0  0  0  0  0  0  0  0
  136.3457   80.4715  223.3176 H   0  0  0  0  0  0  0  0  0  0  0  0
  136.6075   78.2217  222.2412 H   0  0  0  0  0  0  0  0  0  0  0  0
  138.8122   77.1706  222.1419 H   0  0  0  0  0  0  0  0  0  0  0  0
  1  2  1  0
  2  3  1  0
  3  4  1  0
  4  5  2  0
  4  6  1  0
  6  7  1  0
  7  8  1  0
  8  9  1  0
  9 10  1  0
 10 11  1  0
 11 12  2  0
 11 13  1  0
 13 14  1  0
 14 15  1  0
 15 16  2  0
 15 17  1  0
 17 18  2  0
 18 19  1  0
 19 20  2  0
 20 21  1  0
 21 22  2  0
 22 23  1  0
 22 24  1  0
 24 25  2  0
 25 26  1  0
 26 27  2  0
  2 28  1  0
 28 29  2  0
 29 30  1  0
 30 31  2  0
 31 32  1  0
 32 33  2  0
 10  6  1  0
 27 17  1  0
 33 28  1  0
 26 20  1  0
  1 34  1  0
  1 35  1  0
  1 36  1  0
  2 37  1  1
  3 38  1  0
  6 39  1  6
  7 40  1  0
  7 41  1  0
  8 42  1  0
  8 43  1  0
  9 44  1  0
  9 45  1  0
 13 46  1  0
 13 47  1  0
 14 48  1  0
 18 49  1  0
 19 50  1  0
 21 51  1  0
 24 52  1  0
 25 53  1  0
 27 54  1  0
 29 55  1  0
 30 56  1  0
 31 57  1  0
 32 58  1  0
 33 59  1  0
M  END
>  <smiles>  (3) 
C[C@H](NC(=O)[C@H]1CCCN1C(=O)CNC(=O)c1ccc2cc(F)ccc2c1)c1ccccc1

>  <score_type>  (3) 
oracle

>  <origin>  (3) 
autodockgpu

>  <m_score__min__energy>  (3) 
-9.5099999999999998

>  <m_primary>  (3) 
energy

>  <rmsd>  (3) 
3.119826161086535

>  <m_score__min__rmsd>  (3) 
3.119826161086535

>  <meeko>  (3) 
{"free_energy": -8.75, "intermolecular_energy": -10.84, "internal_energy": -2.63, "cluster_size": 35, "cluster_id": 1, "rank_in_cluster": 23}

>  <energy>  (3) 
-9.44

>  <cluster_rmsd>  (3) 
1.95

>  <cluster>  (3) 
1

$$$$

     RDKit          3D

 59 62  0  0  0  0  0  0  0  0999 V2000
  138.6880   79.7830  223.7950 C   0  0  0  0  0  0  0  0  0  0  0  0
  139.5710   79.8580  222.5770 C   0  0  2  0  0  0  0  0  0  0  0  0
  139.5280   78.5890  221.8980 N   0  0  0  0  0  0  0  0  0  0  0  0
  139.7630   78.4530  220.5030 C   0  0  0  0  0  0  0  0  0  0  0  0
  140.0210   79.4850  219.8300 O   0  0  0  0  0  0  0  0  0  0  0  0
  139.7240   77.1580  219.7850 C   0  0  1  0  0  0  0  0  0  0  0  0
  140.4700   77.2380  218.4580 C   0  0  0  0  0  0  0  0  0  0  0  0
  141.8880   77.0180  218.8710 C   0  0  0  0  0  0  0  0  0  0  0  0
  141.8660   76.1470  220.1070 C   0  0  0  0  0  0  0  0  0  0  0  0
  140.4610   76.1050  220.4550 N   0  0  0  0  0  0  0  0  0  0  0  0
  139.8500   75.1560  221.3450 C   0  0  0  0  0  0  0  0  0  0  0  0
  139.2210   75.5230  222.3790 O   0  0  0  0  0  0  0  0  0  0  0  0
  139.9560   73.6930  221.0490 C   0  0  0  0  0  0  0  0  0  0  0  0
  139.8670   72.9750  222.3070 N   0  0  0  0  0  0  0  0  0  0  0  0
  140.1720   71.6070  222.3840 C   0  0  0  0  0  0  0  0  0  0  0  0
  140.5400   70.9290  221.3650 O   0  0  0  0  0  0  0  0  0  0  0  0
  140.0900   70.8620  223.6420 C   0  0  0  0  0  0  0  0  0  0  0  0
  139.4250   69.6460  223.6540 C   0  0  0  0  0  0  0  0  0  0  0  0
  139.3110   68.8850  224.8180 C   0  0  0  0  0  0  0  0  0  0  0  0
  139.8750   69.3550  225.9940 C   0  0  0  0  0  0  0  0  0  0  0  0
  139.7450   68.5760  227.1360 C   0  0  0  0  0  0  0  0  0  0  0  0
  140.3020   69.0320  228.3160 C   0  0  0  0  0  0  0  0  0  0  0  0
  140.1590   68.2490  229.4120 F   0  0  0  0  0  0  0  0  0  0  0  0
  140.9750   70.2430  228.3410 C   0  0  0  0  0  0  0  0  0  0  0  0
  141.0960   71.0130  227.1800 C   0  0  0  0  0  0  0  0  0  0  0  0
  140.5370   70.5600  225.9910 C   0  0  0  0  0  0  0  0  0  0  0  0
  140.6360   71.2990  224.8130 C   0  0  0  0  0  0  0  0  0  0  0  0
  140.9440   80.2130  223.0310 C   0  0  0  0  0  0  0  0  0  0  0  0
  142.0620   79.4790  222.6180 C   0  0  0  0  0  0  0  0  0  0  0  0
  143.3350   79.8070  223.0390 C   0  0  0  0  0  0  0  0  0  0  0  0
  143.5540   80.8700  223.8800 C   0  0  0  0  0  0  0  0  0  0  0  0
  142.4580   81.6140  224.3050 C   0  0  0  0  0  0  0  0  0  0  0  0
  141.2030   81.2720  223.8750 C   0  0  0  0  0  0  0  0  0  0  0  0
  139.3087   79.8357  224.7016 H   0  0  0  0  0  0  0  0  0  0  0  0
  137.9792   80.6242  223.7864 H   0  0  0  0  0  0  0  0  0  0  0  0
  138.1313   78.8343  223.7864 H   0  0  0  0  0  0  0  0  0  0  0  0
  139.2320   80.6255  221.8657 H   0  0  0  0  0  0  0  0  0  0  0  0
  139.3130   77.7440  222.4680 H   0  0  0  0  0  0  0  0  0  0  0  0
  138.6473   76.9475  219.7046 H   0  0  0  0  0  0  0  0  0  0  0  0
  140.1319   76.4544  217.7640 H   0  0  0  0  0  0  0  0  0  0  0  0
  140.3112   78.1853  217.9219 H   0  0  0  0  0  0  0  0  0  0  0  0
  142.4410   76.5137  218.0649 H   0  0  0  0  0  0  0  0  0  0  0  0
  142.3865   77.9763  219.0785 H   0  0  0  0  0  0  0  0  0  0  0  0
  142.2484   75.1394  219.8867 H   0  0  0  0  0  0  0  0  0  0  0  0
  142.5008   76.5323  220.9185 H   0  0  0  0  0  0  0  0  0  0  0  0
  139.1349   73.3858  220.3846 H   0  0  0  0  0  0  0  0  0  0  0  0
  140.9103   73.4718  220.5486 H   0  0  0  0  0  0  0  0  0  0  0  0
  139.5680   73.5240  223.1440 H   0  0  0  0  0  0  0  0  0  0  0  0
  138.9758   69.2714  222.7224 H   0  0  0  0  0  0  0  0  0  0  0  0
  138.7792   67.9222  224.8027 H   0  0  0  0  0  0  0  0  0  0  0  0
  139.2097   67.6156  227.1024 H   0  0  0  0  0  0  0  0  0  0  0  0
  141.4178   70.6016  229.2819 H   0  0  0  0  0  0  0  0  0  0  0  0
  141.6315   71.9735  227.2077 H   0  0  0  0  0  0  0  0  0  0  0  0
  141.1691   72.2610  224.8284 H   0  0  0  0  0  0  0  0  0  0  0  0
  141.9230   78.6217  221.9429 H   0  0  0  0  0  0  0  0  0  0  0  0
  144.1894   79.2059  222.6945 H   0  0  0  0  0  0  0  0  0  0  0  0
  144.5714   81.1271  224.2098 H   0  0  0  0  0  0  0  0  0  0  0  0
  142.5980   82.4703  224.9811 H   0  0  0  0  0  0  0  0  0  0  0  0
  140.3530   81.8772  224.2232 H   0  0  0  0  0  0  0  0  0  0  0  0
  1  2  1  0
  2  3  1  0
  3  4  1  0
  4  5  2  0
  4  6  1  0
  6  7  1  0
  7  8  1  0
  8  9  1  0
  9 10  1  0
 10 11  1  0
 11 12  2  0
 11 13  1  0
 13 14  1  0
 14 15  1  0
 15 16  2  0
 15 17  1  0
 17 18  2  0
 18 19  1  0
 19 20  2  0
 20 21  1  0
 21 22  2  0
 22 23  1  0
 22 24  1  0
 24 25  2  0
 25 26  1  0
 26 27  2  0
  2 28  1  0
 28 29  2  0
 29 30  1  0
 30 31  2  0
 31 32  1  0
 32 33  2  0
 10  6  1  0
 27 17  1  0
 33 28  1  0
 26 20  1  0
  1 34  1  0
  1 35  1  0
  1 36  1  0
  2 37  1  6
  3 38  1  0
  6 39  1  6
  7 40  1  0
  7 41  1  0
  8 42  1  0
  8 43  1  0
  9 44  1  0
  9 45  1  0
 13 46  1  0
 13 47  1  0
 14 48  1  0
 18 49  1  0
 19 50  1  0
 21 51  1  0
 24 52  1  0
 25 53  1  0
 27 54  1  0
 29 55  1  0
 30 56  1  0
 31 57  1  0
 32 58  1  0
 33 59  1  0
M  END
>  <smiles>  (4) 
C[C@H](NC(=O)[C@H]1CCCN1C(=O)CNC(=O)c1ccc2cc(F)ccc2c1)c1ccccc1

>  <score_type>  (4) 
oracle

>  <origin>  (4) 
autodockgpu

>  <m_score__min__energy>  (4) 
-9.5099999999999998

>  <m_primary>  (4) 
energy

>  <rmsd>  (4) 
2.9039355720550417

>  <m_score__min__rmsd>  (4) 
2.9039355720550417

>  <meeko>  (4) 
{"free_energy": -8.86, "intermolecular_energy": -10.95, "internal_energy": -2.91, "cluster_size": 35, "cluster_id": 1, "rank_in_cluster": 16}

>  <energy>  (4) 
-9.12

>  <cluster_rmsd>  (4) 
1.65

>  <cluster>  (4) 
1

$$$$

     RDKit          3D

 59 62  0  0  0  0  0  0  0  0999 V2000
  139.1920   68.3390  224.4190 C   0  0  0  0  0  0  0  0  0  0  0  0
  138.3850   69.2280  225.3290 C   0  0  2  0  0  0  0  0  0  0  0  0
  137.5730   70.1000  224.5200 N   0  0  0  0  0  0  0  0  0  0  0  0
  136.1890   69.8740  224.2930 C   0  0  0  0  0  0  0  0  0  0  0  0
  135.6460   68.8690  224.8220 O   0  0  0  0  0  0  0  0  0  0  0  0
  135.3350   70.7580  223.4660 C   0  0  1  0  0  0  0  0  0  0  0  0
  133.8630   70.6090  223.8310 C   0  0  0  0  0  0  0  0  0  0  0  0
  133.7320   71.5120  225.0130 C   0  0  0  0  0  0  0  0  0  0  0  0
  134.7520   72.6160  224.8500 C   0  0  0  0  0  0  0  0  0  0  0  0
  135.5450   72.1680  223.7250 N   0  0  0  0  0  0  0  0  0  0  0  0
  136.4320   72.9920  222.9490 C   0  0  0  0  0  0  0  0  0  0  0  0
  137.6160   72.6320  222.6870 O   0  0  0  0  0  0  0  0  0  0  0  0
  135.9510   74.3110  222.4330 C   0  0  0  0  0  0  0  0  0  0  0  0
  136.9790   75.2980  222.7040 N   0  0  0  0  0  0  0  0  0  0  0  0
  136.7600   76.6620  222.4520 C   0  0  0  0  0  0  0  0  0  0  0  0
  135.6580   77.1020  221.9760 O   0  0  0  0  0  0  0  0  0  0  0  0
  137.7820   77.6760  222.7170 C   0  0  0  0  0  0  0  0  0  0  0  0
  137.3780   78.9630  223.0340 C   0  0  0  0  0  0  0  0  0  0  0  0
  138.3000   79.9760  223.2990 C   0  0  0  0  0  0  0  0  0  0  0  0
  139.6550   79.6920  223.2440 C   0  0  0  0  0  0  0  0  0  0  0  0
  140.5490   80.7200  223.5120 C   0  0  0  0  0  0  0  0  0  0  0  0
  141.9040   80.4510  223.4610 C   0  0  0  0  0  0  0  0  0  0  0  0
  142.7500   81.4750  223.7280 F   0  0  0  0  0  0  0  0  0  0  0  0
  142.3440   79.1750  223.1480 C   0  0  0  0  0  0  0  0  0  0  0  0
  141.4290   78.1520  222.8820 C   0  0  0  0  0  0  0  0  0  0  0  0
  140.0660   78.4170  222.9310 C   0  0  0  0  0  0  0  0  0  0  0  0
  139.1220   77.4240  222.6710 C   0  0  0  0  0  0  0  0  0  0  0  0
  139.3360   69.9790  226.1930 C   0  0  0  0  0  0  0  0  0  0  0  0
  140.0540   71.0770  225.7070 C   0  0  0  0  0  0  0  0  0  0  0  0
  140.9360   71.7740  226.5080 C   0  0  0  0  0  0  0  0  0  0  0  0
  141.1450   71.4140  227.8170 C   0  0  0  0  0  0  0  0  0  0  0  0
  140.4430   70.3250  228.3230 C   0  0  0  0  0  0  0  0  0  0  0  0
  139.5710   69.6470  227.5110 C   0  0  0  0  0  0  0  0  0  0  0  0
  139.8095   67.6588  225.0241 H   0  0  0  0  0  0  0  0  0  0  0  0
  138.5129   67.7509  223.7843 H   0  0  0  0  0  0  0  0  0  0  0  0
  139.8429   68.9582  223.7843 H   0  0  0  0  0  0  0  0  0  0  0  0
  137.7083   68.6520  225.9773 H   0  0  0  0  0  0  0  0  0  0  0  0
  138.0370   70.9270  224.0880 H   0  0  0  0  0  0  0  0  0  0  0  0
  135.5926   70.4645  222.4376 H   0  0  0  0  0  0  0  0  0  0  0  0
  133.2134   70.9368  223.0060 H   0  0  0  0  0  0  0  0  0  0  0  0
  133.5644   69.5704  224.0364 H   0  0  0  0  0  0  0  0  0  0  0  0
  132.7186   71.9382  225.0507 H   0  0  0  0  0  0  0  0  0  0  0  0
  133.9036   70.9578  225.9476 H   0  0  0  0  0  0  0  0  0  0  0  0
  134.2626   73.5763  224.6305 H   0  0  0  0  0  0  0  0  0  0  0  0
  135.3490   72.7900  225.7574 H   0  0  0  0  0  0  0  0  0  0  0  0
  135.7720   74.2457  221.3496 H   0  0  0  0  0  0  0  0  0  0  0  0
  135.0089   74.5943  222.9251 H   0  0  0  0  0  0  0  0  0  0  0  0
  137.8810   74.9460  223.0940 H   0  0  0  0  0  0  0  0  0  0  0  0
  136.3030   79.1918  223.0778 H   0  0  0  0  0  0  0  0  0  0  0  0
  137.9546   80.9900  223.5491 H   0  0  0  0  0  0  0  0  0  0  0  0
  140.1863   81.7284  223.7600 H   0  0  0  0  0  0  0  0  0  0  0  0
  143.4230   78.9650  223.1084 H   0  0  0  0  0  0  0  0  0  0  0  0
  141.7867   77.1415  222.6350 H   0  0  0  0  0  0  0  0  0  0  0  0
  139.4673   76.4097  222.4220 H   0  0  0  0  0  0  0  0  0  0  0  0
  139.9124   71.3921  224.6626 H   0  0  0  0  0  0  0  0  0  0  0  0
  141.4814   72.6332  226.0905 H   0  0  0  0  0  0  0  0  0  0  0  0
  141.8502   71.9731  228.4495 H   0  0  0  0  0  0  0  0  0  0  0  0
  140.5865   70.0101  229.3671 H   0  0  0  0  0  0  0  0  0  0  0  0
  139.0278   68.7894  227.9347 H   0  0  0  0  0  0  0  0  0  0  0  0
  1  2  1  0
  2  3  1  0
  3  4  1  0
  4  5  2  0
  4  6  1  0
  6  7  1  0
  7  8  1  0
  8  9  1  0
  9 10  1  0
 10 11  1  0
 11 12  2  0
 11 13  1  0
 13 14  1  0
 14 15  1  0
 15 16  2  0
 15 17  1  0
 17 18  2  0
 18 19  1  0
 19 20  2  0
 20 21  1  0
 21 22  2  0
 22 23  1  0
 22 24  1  0
 24 25  2  0
 25 26  1  0
 26 27  2  0
  2 28  1  0
 28 29  2  0
 29 30  1  0
 30 31  2  0
 31 32  1  0
 32 33  2  0
 10  6  1  0
 27 17  1  0
 33 28  1  0
 26 20  1  0
  1 34  1  0
  1 35  1  0
  1 36  1  0
  2 37  1  1
  3 38  1  0
  6 39  1  6
  7 40  1  0
  7 41  1  0
  8 42  1  0
  8 43  1  0
  9 44  1  0
  9 45  1  0
 13 46  1  0
 13 47  1  0
 14 48  1  0
 18 49  1  0
 19 50  1  0
 21 51  1  0
 24 52  1  0
 25 53  1  0
 27 54  1  0
 29 55  1  0
 30 56  1  0
 31 57  1  0
 32 58  1  0
 33 59  1  0
M  END
>  <smiles>  (5) 
C[C@H](NC(=O)[C@H]1CCCN1C(=O)CNC(=O)c1ccc2cc(F)ccc2c1)c1ccccc1

>  <score_type>  (5) 
oracle

>  <origin>  (5) 
autodockgpu

>  <m_score__min__energy>  (5) 
-9.5099999999999998

>  <m_primary>  (5) 
energy

>  <rmsd>  (5) 
10.366543490436202

>  <m_score__min__rmsd>  (5) 
10.366543490436202

>  <meeko>  (5) 
{"free_energy": -8.4, "intermolecular_energy": -10.48, "internal_energy": -2.58, "cluster_size": 2, "cluster_id": 3, "rank_in_cluster": 2}

>  <energy>  (5) 
-9.11

>  <cluster_rmsd>  (5) 
1.67

>  <cluster>  (5) 
1

$$$$

     RDKit          3D

 59 62  0  0  0  0  0  0  0  0999 V2000
  137.8070   79.6180  223.1530 C   0  0  0  0  0  0  0  0  0  0  0  0
  138.8740   79.4500  222.1030 C   0  0  2  0  0  0  0  0  0  0  0  0
  138.8470   78.0900  221.6310 N   0  0  0  0  0  0  0  0  0  0  0  0
  139.7010   77.6140  220.6000 C   0  0  0  0  0  0  0  0  0  0  0  0
  140.5180   78.4140  220.0750 O   0  0  0  0  0  0  0  0  0  0  0  0
  139.6900   76.2200  220.1010 C   0  0  1  0  0  0  0  0  0  0  0  0
  141.0680   75.7970  219.6050 C   0  0  0  0  0  0  0  0  0  0  0  0
  141.7530   75.3880  220.8670 C   0  0  0  0  0  0  0  0  0  0  0  0
  140.6870   74.8850  221.8140 C   0  0  0  0  0  0  0  0  0  0  0  0
  139.4550   75.2370  221.1410 N   0  0  0  0  0  0  0  0  0  0  0  0
  138.1560   74.7000  221.4420 C   0  0  0  0  0  0  0  0  0  0  0  0
  137.1970   75.4400  221.8030 O   0  0  0  0  0  0  0  0  0  0  0  0
  137.9230   73.2260  221.3290 C   0  0  0  0  0  0  0  0  0  0  0  0
  138.2930   72.6160  222.5910 N   0  0  0  0  0  0  0  0  0  0  0  0
  139.4470   71.8260  222.7050 C   0  0  0  0  0  0  0  0  0  0  0  0
  140.2240   71.6020  221.7150 O   0  0  0  0  0  0  0  0  0  0  0  0
  139.8400   71.2000  223.9690 C   0  0  0  0  0  0  0  0  0  0  0  0
  140.7100   71.8790  224.8070 C   0  0  0  0  0  0  0  0  0  0  0  0
  141.1230   71.3400  226.0260 C   0  0  0  0  0  0  0  0  0  0  0  0
  140.6550   70.0940  226.4110 C   0  0  0  0  0  0  0  0  0  0  0  0
  141.0850   69.5840  227.6290 C   0  0  0  0  0  0  0  0  0  0  0  0
  140.6260   68.3420  228.0250 C   0  0  0  0  0  0  0  0  0  0  0  0
  141.0630   67.8710  229.2180 F   0  0  0  0  0  0  0  0  0  0  0  0
  139.7550   67.6340  227.2130 C   0  0  0  0  0  0  0  0  0  0  0  0
  139.3340   68.1640  225.9900 C   0  0  0  0  0  0  0  0  0  0  0  0
  139.7920   69.4130  225.5860 C   0  0  0  0  0  0  0  0  0  0  0  0
  139.3950   69.9760  224.3730 C   0  0  0  0  0  0  0  0  0  0  0  0
  140.1800   79.8110  222.7200 C   0  0  0  0  0  0  0  0  0  0  0  0
  140.6470   81.1300  222.7220 C   0  0  0  0  0  0  0  0  0  0  0  0
  141.8580   81.4640  223.2940 C   0  0  0  0  0  0  0  0  0  0  0  0
  142.6530   80.5130  223.8840 C   0  0  0  0  0  0  0  0  0  0  0  0
  142.2110   79.1950  223.8940 C   0  0  0  0  0  0  0  0  0  0  0  0
  141.0050   78.8830  223.3210 C   0  0  0  0  0  0  0  0  0  0  0  0
  138.2614   79.5465  224.1522 H   0  0  0  0  0  0  0  0  0  0  0  0
  137.3299   80.6023  223.0368 H   0  0  0  0  0  0  0  0  0  0  0  0
  137.0506   78.8279  223.0368 H   0  0  0  0  0  0  0  0  0  0  0  0
  138.7076   80.1044  221.2346 H   0  0  0  0  0  0  0  0  0  0  0  0
  138.1650   77.4390  222.0760 H   0  0  0  0  0  0  0  0  0  0  0  0
  138.9015   76.2346  219.3341 H   0  0  0  0  0  0  0  0  0  0  0  0
  140.9960   74.9551  218.9007 H   0  0  0  0  0  0  0  0  0  0  0  0
  141.5981   76.5880  219.0543 H   0  0  0  0  0  0  0  0  0  0  0  0
  142.4795   74.5886  220.6591 H   0  0  0  0  0  0  0  0  0  0  0  0
  142.2968   76.2365  221.3078 H   0  0  0  0  0  0  0  0  0  0  0  0
  140.7639   73.7965  221.9524 H   0  0  0  0  0  0  0  0  0  0  0  0
  140.7667   75.3171  222.8224 H   0  0  0  0  0  0  0  0  0  0  0  0
  136.8613   73.0310  221.1172 H   0  0  0  0  0  0  0  0  0  0  0  0
  138.5253   72.8055  220.5102 H   0  0  0  0  0  0  0  0  0  0  0  0
  137.6630   72.7950  223.4050 H   0  0  0  0  0  0  0  0  0  0  0  0
  141.0845   72.8678  224.5036 H   0  0  0  0  0  0  0  0  0  0  0  0
  141.8134   71.8988  226.6750 H   0  0  0  0  0  0  0  0  0  0  0  0
  141.7762   70.1564  228.2651 H   0  0  0  0  0  0  0  0  0  0  0  0
  139.3917   66.6464  227.5334 H   0  0  0  0  0  0  0  0  0  0  0  0
  138.6433   67.5954  225.3500 H   0  0  0  0  0  0  0  0  0  0  0  0
  138.7040   69.4173  223.7246 H   0  0  0  0  0  0  0  0  0  0  0  0
  140.0358   81.9179  222.2576 H   0  0  0  0  0  0  0  0  0  0  0  0
  142.1923   82.5118  223.2768 H   0  0  0  0  0  0  0  0  0  0  0  0
  143.6167   80.7873  224.3380 H   0  0  0  0  0  0  0  0  0  0  0  0
  142.8241   78.4084  224.3581 H   0  0  0  0  0  0  0  0  0  0  0  0
  140.6768   77.8333  223.3417 H   0  0  0  0  0  0  0  0  0  0  0  0
  1  2  1  0
  2  3  1  0
  3  4  1  0
  4  5  2  0
  4  6  1  0
  6  7  1  0
  7  8  1  0
  8  9  1  0
  9 10  1  0
 10 11  1  0
 11 12  2  0
 11 13  1  0
 13 14  1  0
 14 15  1  0
 15 16  2  0
 15 17  1  0
 17 18  2  0
 18 19  1  0
 19 20  2  0
 20 21  1  0
 21 22  2  0
 22 23  1  0
 22 24  1  0
 24 25  2  0
 25 26  1  0
 26 27  2  0
  2 28  1  0
 28 29  2  0
 29 30  1  0
 30 31  2  0
 31 32  1  0
 32 33  2  0
 10  6  1  0
 27 17  1  0
 33 28  1  0
 26 20  1  0
  1 34  1  0
  1 35  1  0
  1 36  1  0
  2 37  1  6
  3 38  1  0
  6 39  1  6
  7 40  1  0
  7 41  1  0
  8 42  1  0
  8 43  1  0
  9 44  1  0
  9 45  1  0
 13 46  1  0
 13 47  1  0
 14 48  1  0
 18 49  1  0
 19 50  1  0
 21 51  1  0
 24 52  1  0
 25 53  1  0
 27 54  1  0
 29 55  1  0
 30 56  1  0
 31 57  1  0
 32 58  1  0
 33 59  1  0
M  END
>  <smiles>  (6) 
C[C@H](NC(=O)[C@H]1CCCN1C(=O)CNC(=O)c1ccc2cc(F)ccc2c1)c1ccccc1

>  <score_type>  (6) 
oracle

>  <origin>  (6) 
autodockgpu

>  <m_score__min__energy>  (6) 
-9.5099999999999998

>  <m_primary>  (6) 
energy

>  <rmsd>  (6) 
3.5139975064528466

>  <m_score__min__rmsd>  (6) 
3.5139975064528466

>  <meeko>  (6) 
{"free_energy": -8.48, "intermolecular_energy": -10.57, "internal_energy": -2.66, "cluster_size": 35, "cluster_id": 1, "rank_in_cluster": 29}

>  <energy>  (6) 
-9.1

>  <cluster_rmsd>  (6) 
0.82

>  <cluster>  (6) 
1

$$$$

     RDKit          3D

 59 62  0  0  0  0  0  0  0  0999 V2000
  142.1410   74.1280  217.7810 C   0  0  0  0  0  0  0  0  0  0  0  0
  142.1880   73.3960  219.0970 C   0  0  2  0  0  0  0  0  0  0  0  0
  141.3650   74.0990  220.0460 N   0  0  0  0  0  0  0  0  0  0  0  0
  141.6910   75.3900  220.5420 C   0  0  0  0  0  0  0  0  0  0  0  0
  142.7450   75.9450  220.1350 O   0  0  0  0  0  0  0  0  0  0  0  0
  140.8590   76.1320  221.5170 C   0  0  1  0  0  0  0  0  0  0  0  0
  141.2120   77.6140  221.5340 C   0  0  0  0  0  0  0  0  0  0  0  0
  140.4210   78.1470  220.3850 C   0  0  0  0  0  0  0  0  0  0  0  0
  139.1930   77.2780  220.2440 C   0  0  0  0  0  0  0  0  0  0  0  0
  139.4570   76.1840  221.1550 N   0  0  0  0  0  0  0  0  0  0  0  0
  138.4760   75.2570  221.6520 C   0  0  0  0  0  0  0  0  0  0  0  0
  137.5860   75.6090  222.4780 O   0  0  0  0  0  0  0  0  0  0  0  0
  138.5010   73.8360  221.1860 C   0  0  0  0  0  0  0  0  0  0  0  0
  138.6030   72.9830  222.3550 N   0  0  0  0  0  0  0  0  0  0  0  0
  139.6650   72.0770  222.5010 C   0  0  0  0  0  0  0  0  0  0  0  0
  140.5870   71.9540  221.6250 O   0  0  0  0  0  0  0  0  0  0  0  0
  139.7880   71.2060  223.6730 C   0  0  0  0  0  0  0  0  0  0  0  0
  139.3350   69.9010  223.5840 C   0  0  0  0  0  0  0  0  0  0  0  0
  139.4240   69.0190  224.6620 C   0  0  0  0  0  0  0  0  0  0  0  0
  139.9780   69.4580  225.8540 C   0  0  0  0  0  0  0  0  0  0  0  0
  140.0530   68.5580  226.9090 C   0  0  0  0  0  0  0  0  0  0  0  0
  140.6040   68.9830  228.1030 C   0  0  0  0  0  0  0  0  0  0  0  0
  140.6630   68.0820  229.1140 F   0  0  0  0  0  0  0  0  0  0  0  0
  141.0680   70.2820  228.2290 C   0  0  0  0  0  0  0  0  0  0  0  0
  140.9850   71.1730  227.1550 C   0  0  0  0  0  0  0  0  0  0  0  0
  140.4320   70.7530  225.9510 C   0  0  0  0  0  0  0  0  0  0  0  0
  140.3300   71.6120  224.8570 C   0  0  0  0  0  0  0  0  0  0  0  0
  143.6120   73.3230  219.5260 C   0  0  0  0  0  0  0  0  0  0  0  0
  144.6590   73.4170  218.6020 C   0  0  0  0  0  0  0  0  0  0  0  0
  145.9790   73.3490  218.9990 C   0  0  0  0  0  0  0  0  0  0  0  0
  146.3170   73.1850  220.3190 C   0  0  0  0  0  0  0  0  0  0  0  0
  145.2940   73.0880  221.2570 C   0  0  0  0  0  0  0  0  0  0  0  0
  143.9900   73.1590  220.8420 C   0  0  0  0  0  0  0  0  0  0  0  0
  142.0715   75.2102  217.9656 H   0  0  0  0  0  0  0  0  0  0  0  0
  143.0549   73.9117  217.2083 H   0  0  0  0  0  0  0  0  0  0  0  0
  141.2623   73.7966  217.2083 H   0  0  0  0  0  0  0  0  0  0  0  0
  141.7966   72.3713  219.0152 H   0  0  0  0  0  0  0  0  0  0  0  0
  140.4960   73.6260  220.3740 H   0  0  0  0  0  0  0  0  0  0  0  0
  141.0422   75.5978  222.4610 H   0  0  0  0  0  0  0  0  0  0  0  0
  140.9060   78.0848  222.4799 H   0  0  0  0  0  0  0  0  0  0  0  0
  142.2915   77.8090  221.4517 H   0  0  0  0  0  0  0  0  0  0  0  0
  140.1250   79.1879  220.5823 H   0  0  0  0  0  0  0  0  0  0  0  0
  141.0174   78.1316  219.4609 H   0  0  0  0  0  0  0  0  0  0  0  0
  138.2857   77.8262  220.5379 H   0  0  0  0  0  0  0  0  0  0  0  0
  139.0152   76.9460  219.2105 H   0  0  0  0  0  0  0  0  0  0  0  0
  137.5762   73.6070  220.6363 H   0  0  0  0  0  0  0  0  0  0  0  0
  139.3564   73.6687  220.5149 H   0  0  0  0  0  0  0  0  0  0  0  0
  137.8540   73.0790  223.0760 H   0  0  0  0  0  0  0  0  0  0  0  0
  138.8936   69.5502  222.6395 H   0  0  0  0  0  0  0  0  0  0  0  0
  139.0582   67.9860  224.5665 H   0  0  0  0  0  0  0  0  0  0  0  0
  139.6817   67.5287  226.7966 H   0  0  0  0  0  0  0  0  0  0  0  0
  141.5053   70.6152  229.1818 H   0  0  0  0  0  0  0  0  0  0  0  0
  141.3561   72.2029  227.2624 H   0  0  0  0  0  0  0  0  0  0  0  0
  140.6966   72.6448  224.9515 H   0  0  0  0  0  0  0  0  0  0  0  0
  144.4245   73.5480  217.5353 H   0  0  0  0  0  0  0  0  0  0  0  0
  146.7748   73.4277  218.2436 H   0  0  0  0  0  0  0  0  0  0  0  0
  147.3714   73.1315  220.6280 H   0  0  0  0  0  0  0  0  0  0  0  0
  145.5301   72.9554  222.3232 H   0  0  0  0  0  0  0  0  0  0  0  0
  143.1991   73.0806  221.6025 H   0  0  0  0  0  0  0  0  0  0  0  0
  1  2  1  0
  2  3  1  0
  3  4  1  0
  4  5  2  0
  4  6  1  0
  6  7  1  0
  7  8  1  0
  8  9  1  0
  9 10  1  0
 10 11  1  0
 11 12  2  0
 11 13  1  0
 13 14  1  0
 14 15  1  0
 15 16  2  0
 15 17  1  0
 17 18  2  0
 18 19  1  0
 19 20  2  0
 20 21  1  0
 21 22  2  0
 22 23  1  0
 22 24  1  0
 24 25  2  0
 25 26  1  0
 26 27  2  0
  2 28  1  0
 28 29  2  0
 29 30  1  0
 30 31  2  0
 31 32  1  0
 32 33  2  0
 10  6  1  0
 27 17  1  0
 33 28  1  0
 26 20  1  0
  1 34  1  0
  1 35  1  0
  1 36  1  0
  2 37  1  6
  3 38  1  0
  6 39  1  1
  7 40  1  0
  7 41  1  0
  8 42  1  0
  8 43  1  0
  9 44  1  0
  9 45  1  0
 13 46  1  0
 13 47  1  0
 14 48  1  0
 18 49  1  0
 19 50  1  0
 21 51  1  0
 24 52  1  0
 25 53  1  0
 27 54  1  0
 29 55  1  0
 30 56  1  0
 31 57  1  0
 32 58  1  0
 33 59  1  0
M  END
>  <smiles>  (7) 
C[C@H](NC(=O)[C@H]1CCCN1C(=O)CNC(=O)c1ccc2cc(F)ccc2c1)c1ccccc1

>  <score_type>  (7) 
oracle

>  <origin>  (7) 
autodockgpu

>  <m_score__min__energy>  (7) 
-9.5099999999999998

>  <m_primary>  (7) 
energy

>  <rmsd>  (7) 
5.469652568681472

>  <m_score__min__rmsd>  (7) 
5.469652568681472

>  <meeko>  (7) 
{"free_energy": -8.03, "intermolecular_energy": -10.12, "internal_energy": -2.83, "cluster_size": 2, "cluster_id": 4, "rank_in_cluster": 1}

>  <energy>  (7) 
-9.04

>  <cluster_rmsd>  (7) 
1.51

>  <cluster>  (7) 
1

$$$$

     RDKit          3D

 59 62  0  0  0  0  0  0  0  0999 V2000
  141.3640   76.7070  220.9080 C   0  0  0  0  0  0  0  0  0  0  0  0
  140.9010   77.1180  222.2820 C   0  0  2  0  0  0  0  0  0  0  0  0
  139.4620   77.1170  222.3030 N   0  0  0  0  0  0  0  0  0  0  0  0
  138.6930   75.9230  222.3360 C   0  0  0  0  0  0  0  0  0  0  0  0
  139.2930   74.8170  222.3470 O   0  0  0  0  0  0  0  0  0  0  0  0
  137.2110   75.8990  222.3590 C   0  0  1  0  0  0  0  0  0  0  0  0
  136.6290   77.2780  222.0740 C   0  0  0  0  0  0  0  0  0  0  0  0
  136.6510   77.3350  220.5820 C   0  0  0  0  0  0  0  0  0  0  0  0
  136.5040   75.9180  220.0760 C   0  0  0  0  0  0  0  0  0  0  0  0
  136.6320   75.1240  221.2800 N   0  0  0  0  0  0  0  0  0  0  0  0
  136.2420   73.7460  221.4160 C   0  0  0  0  0  0  0  0  0  0  0  0
  135.0810   73.4170  221.7920 O   0  0  0  0  0  0  0  0  0  0  0  0
  137.2300   72.6660  221.1060 C   0  0  0  0  0  0  0  0  0  0  0  0
  137.9410   72.3470  222.3300 N   0  0  0  0  0  0  0  0  0  0  0  0
  138.4060   71.0460  222.5800 C   0  0  0  0  0  0  0  0  0  0  0  0
  138.2300   70.0850  221.7560 O   0  0  0  0  0  0  0  0  0  0  0  0
  139.1250   70.7000  223.8080 C   0  0  0  0  0  0  0  0  0  0  0  0
  140.0510   71.5970  224.3140 C   0  0  0  0  0  0  0  0  0  0  0  0
  140.7700   71.3300  225.4790 C   0  0  0  0  0  0  0  0  0  0  0  0
  140.5550   70.1370  226.1500 C   0  0  0  0  0  0  0  0  0  0  0  0
  141.2850   69.8980  227.3080 C   0  0  0  0  0  0  0  0  0  0  0  0
  141.0810   68.7120  227.9870 C   0  0  0  0  0  0  0  0  0  0  0  0
  141.8080   68.5090  229.1120 F   0  0  0  0  0  0  0  0  0  0  0  0
  140.1620   67.7910  227.5110 C   0  0  0  0  0  0  0  0  0  0  0  0
  139.4360   68.0490  226.3450 C   0  0  0  0  0  0  0  0  0  0  0  0
  139.6370   69.2400  225.6560 C   0  0  0  0  0  0  0  0  0  0  0  0
  138.9330   69.5340  224.4890 C   0  0  0  0  0  0  0  0  0  0  0  0
  141.4720   78.4620  222.5710 C   0  0  0  0  0  0  0  0  0  0  0  0
  141.8320   78.8390  223.8690 C   0  0  0  0  0  0  0  0  0  0  0  0
  142.3610   80.0860  224.1370 C   0  0  0  0  0  0  0  0  0  0  0  0
  142.5560   81.0060  223.1370 C   0  0  0  0  0  0  0  0  0  0  0  0
  142.2060   80.6550  221.8380 C   0  0  0  0  0  0  0  0  0  0  0  0
  141.6820   79.4120  221.5920 C   0  0  0  0  0  0  0  0  0  0  0  0
  142.1838   75.9793  220.9998 H   0  0  0  0  0  0  0  0  0  0  0  0
  140.5268   76.2492  220.3607 H   0  0  0  0  0  0  0  0  0  0  0  0
  141.7193   77.5925  220.3607 H   0  0  0  0  0  0  0  0  0  0  0  0
  141.2434   76.4207  223.0608 H   0  0  0  0  0  0  0  0  0  0  0  0
  138.9790   78.0400  222.2930 H   0  0  0  0  0  0  0  0  0  0  0  0
  136.9815   75.4926  223.3551 H   0  0  0  0  0  0  0  0  0  0  0  0
  135.6026   77.3640  222.4602 H   0  0  0  0  0  0  0  0  0  0  0  0
  137.1859   78.0969  222.5527 H   0  0  0  0  0  0  0  0  0  0  0  0
  135.8180   77.9536  220.2166 H   0  0  0  0  0  0  0  0  0  0  0  0
  137.5901   77.7814  220.2230 H   0  0  0  0  0  0  0  0  0  0  0  0
  135.5211   75.7666  219.6059 H   0  0  0  0  0  0  0  0  0  0  0  0
  137.2430   75.6556  219.3046 H   0  0  0  0  0  0  0  0  0  0  0  0
  136.7042   71.7735  220.7358 H   0  0  0  0  0  0  0  0  0  0  0  0
  137.9340   73.0019  220.3304 H   0  0  0  0  0  0  0  0  0  0  0  0
  138.0890   73.1270  223.0080 H   0  0  0  0  0  0  0  0  0  0  0  0
  140.2240   72.5448  223.7832 H   0  0  0  0  0  0  0  0  0  0  0  0
  141.5000   72.0588  225.8610 H   0  0  0  0  0  0  0  0  0  0  0  0
  142.0106   70.6380  227.6767 H   0  0  0  0  0  0  0  0  0  0  0  0
  140.0024   66.8486  228.0555 H   0  0  0  0  0  0  0  0  0  0  0  0
  138.7082   67.3125  225.9736 H   0  0  0  0  0  0  0  0  0  0  0  0
  138.2026   68.8055  224.1070 H   0  0  0  0  0  0  0  0  0  0  0  0
  141.6905   78.1261  224.6947 H   0  0  0  0  0  0  0  0  0  0  0  0
  142.6311   80.3470  225.1709 H   0  0  0  0  0  0  0  0  0  0  0  0
  142.9790   81.9971  223.3581 H   0  0  0  0  0  0  0  0  0  0  0  0
  142.3484   81.3693  221.0136 H   0  0  0  0  0  0  0  0  0  0  0  0
  141.4139   79.1576  220.5560 H   0  0  0  0  0  0  0  0  0  0  0  0
  1  2  1  0
  2  3  1  0
  3  4  1  0
  4  5  2  0
  4  6  1  0
  6  7  1  0
  7  8  1  0
  8  9  1  0
  9 10  1  0
 10 11  1  0
 11 12  2  0
 11 13  1  0
 13 14  1  0
 14 15  1  0
 15 16  2  0
 15 17  1  0
 17 18  2  0
 18 19  1  0
 19 20  2  0
 20 21  1  0
 21 22  2  0
 22 23  1  0
 22 24  1  0
 24 25  2  0
 25 26  1  0
 26 27  2  0
  2 28  1  0
 28 29  2  0
 29 30  1  0
 30 31  2  0
 31 32  1  0
 32 33  2  0
 10  6  1  0
 27 17  1  0
 33 28  1  0
 26 20  1  0
  1 34  1  0
  1 35  1  0
  1 36  1  0
  2 37  1  1
  3 38  1  0
  6 39  1  1
  7 40  1  0
  7 41  1  0
  8 42  1  0
  8 43  1  0
  9 44  1  0
  9 45  1  0
 13 46  1  0
 13 47  1  0
 14 48  1  0
 18 49  1  0
 19 50  1  0
 21 51  1  0
 24 52  1  0
 25 53  1  0
 27 54  1  0
 29 55  1  0
 30 56  1  0
 31 57  1  0
 32 58  1  0
 33 59  1  0
M  END
>  <smiles>  (8) 
C[C@H](NC(=O)[C@H]1CCCN1C(=O)CNC(=O)c1ccc2cc(F)ccc2c1)c1ccccc1

>  <score_type>  (8) 
oracle

>  <origin>  (8) 
autodockgpu

>  <m_score__min__energy>  (8) 
-9.5099999999999998

>  <m_primary>  (8) 
energy

>  <rmsd>  (8) 
3.7259513850092536

>  <m_score__min__rmsd>  (8) 
3.7259513850092536

>  <meeko>  (8) 
{"free_energy": -8.69, "intermolecular_energy": -10.78, "internal_energy": -2.36, "cluster_size": 11, "cluster_id": 2, "rank_in_cluster": 6}

>  <energy>  (8) 
-9.02

>  <cluster_rmsd>  (8) 
1.69

>  <cluster>  (8) 
1

$$$$

     RDKit          3D

 59 62  0  0  0  0  0  0  0  0999 V2000
  138.6520   79.8180  223.8090 C   0  0  0  0  0  0  0  0  0  0  0  0
  139.5160   79.8630  222.5760 C   0  0  2  0  0  0  0  0  0  0  0  0
  139.4400   78.5870  221.9130 N   0  0  0  0  0  0  0  0  0  0  0  0
  139.3190   78.4570  220.5040 C   0  0  0  0  0  0  0  0  0  0  0  0
  139.2770   79.5010  219.8020 O   0  0  0  0  0  0  0  0  0  0  0  0
  139.2400   77.1560  219.8010 C   0  0  1  0  0  0  0  0  0  0  0  0
  139.7020   77.2780  218.3530 C   0  0  0  0  0  0  0  0  0  0  0  0
  141.1870   77.1710  218.4790 C   0  0  0  0  0  0  0  0  0  0  0  0
  141.4750   76.3150  219.6910 C   0  0  0  0  0  0  0  0  0  0  0  0
  140.1740   76.1700  220.3090 N   0  0  0  0  0  0  0  0  0  0  0  0
  139.8240   75.1860  221.2970 C   0  0  0  0  0  0  0  0  0  0  0  0
  139.2960   75.5090  222.4000 O   0  0  0  0  0  0  0  0  0  0  0  0
  140.0880   73.7390  221.0230 C   0  0  0  0  0  0  0  0  0  0  0  0
  139.9480   73.0150  222.2720 N   0  0  0  0  0  0  0  0  0  0  0  0
  140.3040   71.6610  222.3700 C   0  0  0  0  0  0  0  0  0  0  0  0
  140.7650   71.0000  221.3770 O   0  0  0  0  0  0  0  0  0  0  0  0
  140.1710   70.9090  223.6200 C   0  0  0  0  0  0  0  0  0  0  0  0
  139.4560   69.7230  223.6130 C   0  0  0  0  0  0  0  0  0  0  0  0
  139.2920   68.9590  224.7680 C   0  0  0  0  0  0  0  0  0  0  0  0
  139.8570   69.3950  225.9560 C   0  0  0  0  0  0  0  0  0  0  0  0
  139.6770   68.6120  227.0890 C   0  0  0  0  0  0  0  0  0  0  0  0
  140.2350   69.0350  228.2810 C   0  0  0  0  0  0  0  0  0  0  0  0
  140.0410   68.2510  229.3690 F   0  0  0  0  0  0  0  0  0  0  0  0
  140.9570   70.2160  228.3270 C   0  0  0  0  0  0  0  0  0  0  0  0
  141.1280   70.9900  227.1740 C   0  0  0  0  0  0  0  0  0  0  0  0
  140.5690   70.5710  225.9730 C   0  0  0  0  0  0  0  0  0  0  0  0
  140.7170   71.3140  224.8030 C   0  0  0  0  0  0  0  0  0  0  0  0
  140.9020   80.1980  223.0040 C   0  0  0  0  0  0  0  0  0  0  0  0
  141.1620   81.2760  223.8580 C   0  0  0  0  0  0  0  0  0  0  0  0
  142.4470   81.5870  224.2550 C   0  0  0  0  0  0  0  0  0  0  0  0
  143.5230   80.8490  223.8260 C   0  0  0  0  0  0  0  0  0  0  0  0
  143.2900   79.7730  222.9770 C   0  0  0  0  0  0  0  0  0  0  0  0
  142.0060   79.4800  222.5950 C   0  0  0  0  0  0  0  0  0  0  0  0
  139.2895   79.8512  224.7048 H   0  0  0  0  0  0  0  0  0  0  0  0
  137.9711   80.6819  223.8113 H   0  0  0  0  0  0  0  0  0  0  0  0
  138.0645   78.8880  223.8113 H   0  0  0  0  0  0  0  0  0  0  0  0
  139.1788   80.6280  221.8612 H   0  0  0  0  0  0  0  0  0  0  0  0
  139.4760   77.7320  222.5080 H   0  0  0  0  0  0  0  0  0  0  0  0
  138.1879   76.8630  219.9320 H   0  0  0  0  0  0  0  0  0  0  0  0
  139.2954   76.4633  217.7357 H   0  0  0  0  0  0  0  0  0  0  0  0
  139.3685   78.2042  217.8622 H   0  0  0  0  0  0  0  0  0  0  0  0
  141.6083   76.7015  217.5779 H   0  0  0  0  0  0  0  0  0  0  0  0
  141.6412   78.1668  218.5889 H   0  0  0  0  0  0  0  0  0  0  0  0
  141.8827   75.3370  219.3955 H   0  0  0  0  0  0  0  0  0  0  0  0
  142.2255   76.7567  220.3631 H   0  0  0  0  0  0  0  0  0  0  0  0
  139.3629   73.3596  220.2880 H   0  0  0  0  0  0  0  0  0  0  0  0
  141.1006   73.6053  220.6145 H   0  0  0  0  0  0  0  0  0  0  0  0
  139.5730   73.5490  223.0880 H   0  0  0  0  0  0  0  0  0  0  0  0
  139.0057   69.3745  222.6718 H   0  0  0  0  0  0  0  0  0  0  0  0
  138.7201   68.0199  224.7365 H   0  0  0  0  0  0  0  0  0  0  0  0
  139.1026   67.6752  227.0389 H   0  0  0  0  0  0  0  0  0  0  0  0
  141.3996   70.5482  229.2777 H   0  0  0  0  0  0  0  0  0  0  0  0
  141.7029   71.9268  227.2182 H   0  0  0  0  0  0  0  0  0  0  0  0
  141.2897   72.2526  224.8343 H   0  0  0  0  0  0  0  0  0  0  0  0
  140.3238   81.8890  224.2209 H   0  0  0  0  0  0  0  0  0  0  0  0
  142.6123   82.4417  224.9274 H   0  0  0  0  0  0  0  0  0  0  0  0
  144.5442   81.1031  224.1463 H   0  0  0  0  0  0  0  0  0  0  0  0
  144.1293   79.1613  222.6144 H   0  0  0  0  0  0  0  0  0  0  0  0
  141.8476   78.6230  221.9238 H   0  0  0  0  0  0  0  0  0  0  0  0
  1  2  1  0
  2  3  1  0
  3  4  1  0
  4  5  2  0
  4  6  1  0
  6  7  1  0
  7  8  1  0
  8  9  1  0
  9 10  1  0
 10 11  1  0
 11 12  2  0
 11 13  1  0
 13 14  1  0
 14 15  1  0
 15 16  2  0
 15 17  1  0
 17 18  2  0
 18 19  1  0
 19 20  2  0
 20 21  1  0
 21 22  2  0
 22 23  1  0
 22 24  1  0
 24 25  2  0
 25 26  1  0
 26 27  2  0
  2 28  1  0
 28 29  2  0
 29 30  1  0
 30 31  2  0
 31 32  1  0
 32 33  2  0
 10  6  1  0
 27 17  1  0
 33 28  1  0
 26 20  1  0
  1 34  1  0
  1 35  1  0
  1 36  1  0
  2 37  1  6
  3 38  1  0
  6 39  1  6
  7 40  1  0
  7 41  1  0
  8 42  1  0
  8 43  1  0
  9 44  1  0
  9 45  1  0
 13 46  1  0
 13 47  1  0
 14 48  1  0
 18 49  1  0
 19 50  1  0
 21 51  1  0
 24 52  1  0
 25 53  1  0
 27 54  1  0
 29 55  1  0
 30 56  1  0
 31 57  1  0
 32 58  1  0
 33 59  1  0
M  END
>  <smiles>  (9) 
C[C@H](NC(=O)[C@H]1CCCN1C(=O)CNC(=O)c1ccc2cc(F)ccc2c1)c1ccccc1

>  <score_type>  (9) 
oracle

>  <origin>  (9) 
autodockgpu

>  <m_score__min__energy>  (9) 
-9.5099999999999998

>  <m_primary>  (9) 
energy

>  <rmsd>  (9) 
2.730591917188225

>  <m_score__min__rmsd>  (9) 
2.730591917188225

>  <meeko>  (9) 
{"free_energy": -8.61, "intermolecular_energy": -10.7, "internal_energy": -2.89, "cluster_size": 35, "cluster_id": 1, "rank_in_cluster": 27}

>  <energy>  (9) 
-9.02

>  <cluster_rmsd>  (9) 
1.68

>  <cluster>  (9) 
1

$$$$

     RDKit          3D

 59 62  0  0  0  0  0  0  0  0999 V2000
  137.8480   79.6100  223.3980 C   0  0  0  0  0  0  0  0  0  0  0  0
  138.8460   79.5910  222.2700 C   0  0  2  0  0  0  0  0  0  0  0  0
  138.8780   78.2670  221.7050 N   0  0  0  0  0  0  0  0  0  0  0  0
  139.6670   77.9320  220.5720 C   0  0  0  0  0  0  0  0  0  0  0  0
  140.3690   78.8290  220.0360 O   0  0  0  0  0  0  0  0  0  0  0  0
  139.7150   76.5770  219.9750 C   0  0  1  0  0  0  0  0  0  0  0  0
  140.9680   76.3890  219.1260 C   0  0  0  0  0  0  0  0  0  0  0  0
  141.9960   76.0260  220.1460 C   0  0  0  0  0  0  0  0  0  0  0  0
  141.2800   75.3250  221.2780 C   0  0  0  0  0  0  0  0  0  0  0  0
  139.8820   75.5220  220.9550 N   0  0  0  0  0  0  0  0  0  0  0  0
  138.7840   74.7830  221.5160 C   0  0  0  0  0  0  0  0  0  0  0  0
  137.9410   75.3260  222.2860 O   0  0  0  0  0  0  0  0  0  0  0  0
  138.6260   73.3320  221.1860 C   0  0  0  0  0  0  0  0  0  0  0  0
  138.7290   72.5790  222.4210 N   0  0  0  0  0  0  0  0  0  0  0  0
  139.6020   71.4850  222.5330 C   0  0  0  0  0  0  0  0  0  0  0  0
  140.3440   71.0990  221.5670 O   0  0  0  0  0  0  0  0  0  0  0  0
  139.7230   70.7100  223.7700 C   0  0  0  0  0  0  0  0  0  0  0  0
  139.2090   69.4250  223.8050 C   0  0  0  0  0  0  0  0  0  0  0  0
  139.2920   68.6320  224.9500 C   0  0  0  0  0  0  0  0  0  0  0  0
  139.9030   69.1420  226.0850 C   0  0  0  0  0  0  0  0  0  0  0  0
  139.9700   68.3300  227.2090 C   0  0  0  0  0  0  0  0  0  0  0  0
  140.5760   68.8250  228.3480 C   0  0  0  0  0  0  0  0  0  0  0  0
  140.6260   68.0100  229.4290 F   0  0  0  0  0  0  0  0  0  0  0  0
  141.1030   70.1070  228.3510 C   0  0  0  0  0  0  0  0  0  0  0  0
  141.0260   70.9090  227.2080 C   0  0  0  0  0  0  0  0  0  0  0  0
  140.4170   70.4170  226.0600 C   0  0  0  0  0  0  0  0  0  0  0  0
  140.3200   71.1860  224.9010 C   0  0  0  0  0  0  0  0  0  0  0  0
  140.1650   80.0050  222.8220 C   0  0  0  0  0  0  0  0  0  0  0  0
  140.6610   81.2990  222.6360 C   0  0  0  0  0  0  0  0  0  0  0  0
  141.8850   81.6830  223.1470 C   0  0  0  0  0  0  0  0  0  0  0  0
  142.6630   80.8070  223.8620 C   0  0  0  0  0  0  0  0  0  0  0  0
  142.1910   79.5130  224.0600 C   0  0  0  0  0  0  0  0  0  0  0  0
  140.9740   79.1520  223.5440 C   0  0  0  0  0  0  0  0  0  0  0  0
  138.3816   79.5998  224.3599 H   0  0  0  0  0  0  0  0  0  0  0  0
  137.2339   80.5200  223.3290 H   0  0  0  0  0  0  0  0  0  0  0  0
  137.1997   78.7240  223.3290 H   0  0  0  0  0  0  0  0  0  0  0  0
  138.5736   80.2880  221.4638 H   0  0  0  0  0  0  0  0  0  0  0  0
  138.2910   77.5350  222.1590 H   0  0  0  0  0  0  0  0  0  0  0  0
  138.7642   76.5102  219.4258 H   0  0  0  0  0  0  0  0  0  0  0  0
  140.8335   75.5810  218.3918 H   0  0  0  0  0  0  0  0  0  0  0  0
  141.2330   77.2760  218.5318 H   0  0  0  0  0  0  0  0  0  0  0  0
  142.7458   75.3546  219.7021 H   0  0  0  0  0  0  0  0  0  0  0  0
  142.5155   76.9242  220.5114 H   0  0  0  0  0  0  0  0  0  0  0  0
  141.5326   74.2547  221.3022 H   0  0  0  0  0  0  0  0  0  0  0  0
  141.5536   75.7147  222.2696 H   0  0  0  0  0  0  0  0  0  0  0  0
  137.6429   73.1589  220.7239 H   0  0  0  0  0  0  0  0  0  0  0  0
  139.4050   73.0137  220.4776 H   0  0  0  0  0  0  0  0  0  0  0  0
  138.1270   72.8890  223.2150 H   0  0  0  0  0  0  0  0  0  0  0  0
  138.7222   69.0184  222.9062 H   0  0  0  0  0  0  0  0  0  0  0  0
  138.8771   67.6132  224.9520 H   0  0  0  0  0  0  0  0  0  0  0  0
  139.5494   67.3137  227.1933 H   0  0  0  0  0  0  0  0  0  0  0  0
  141.5855   70.4966  229.2595 H   0  0  0  0  0  0  0  0  0  0  0  0
  141.4460   71.9256  227.2177 H   0  0  0  0  0  0  0  0  0  0  0  0
  140.7361   72.2043  224.8982 H   0  0  0  0  0  0  0  0  0  0  0  0
  140.0625   82.0277  222.0697 H   0  0  0  0  0  0  0  0  0  0  0  0
  142.2429   82.7093  222.9780 H   0  0  0  0  0  0  0  0  0  0  0  0
  143.6359   81.1202  224.2686 H   0  0  0  0  0  0  0  0  0  0  0  0
  142.7905   78.7852  224.6266 H   0  0  0  0  0  0  0  0  0  0  0  0
  140.6222   78.1239  223.7151 H   0  0  0  0  0  0  0  0  0  0  0  0
  1  2  1  0
  2  3  1  0
  3  4  1  0
  4  5  2  0
  4  6  1  0
  6  7  1  0
  7  8  1  0
  8  9  1  0
  9 10  1  0
 10 11  1  0
 11 12  2  0
 11 13  1  0
 13 14  1  0
 14 15  1  0
 15 16  2  0
 15 17  1  0
 17 18  2  0
 18 19  1  0
 19 20  2  0
 20 21  1  0
 21 22  2  0
 22 23  1  0
 22 24  1  0
 24 25  2  0
 25 26  1  0
 26 27  2  0
  2 28  1  0
 28 29  2  0
 29 30  1  0
 30 31  2  0
 31 32  1  0
 32 33  2  0
 10  6  1  0
 27 17  1  0
 33 28  1  0
 26 20  1  0
  1 34  1  0
  1 35  1  0
  1 36  1  0
  2 37  1  6
  3 38  1  0
  6 39  1  6
  7 40  1  0
  7 41  1  0
  8 42  1  0
  8 43  1  0
  9 44  1  0
  9 45  1  0
 13 46  1  0
 13 47  1  0
 14 48  1  0
 18 49  1  0
 19 50  1  0
 21 51  1  0
 24 52  1  0
 25 53  1  0
 27 54  1  0
 29 55  1  0
 30 56  1  0
 31 57  1  0
 32 58  1  0
 33 59  1  0
M  END
>  <smiles>  (10) 
C[C@H](NC(=O)[C@H]1CCCN1C(=O)CNC(=O)c1ccc2cc(F)ccc2c1)c1ccccc1

>  <score_type>  (10) 
oracle

>  <origin>  (10) 
autodockgpu

>  <m_score__min__energy>  (10) 
-9.5099999999999998

>  <m_primary>  (10) 
energy

>  <rmsd>  (10) 
2.9143886235350047

>  <m_score__min__rmsd>  (10) 
2.9143886235350047

>  <meeko>  (10) 
{"free_energy": -8.65, "intermolecular_energy": -10.74, "internal_energy": -2.63, "cluster_size": 35, "cluster_id": 1, "rank_in_cluster": 26}

>  <energy>  (10) 
-8.98

>  <cluster_rmsd>  (10) 
1.98

>  <cluster>  (10) 
1

$$$$

     RDKit          3D

 59 62  0  0  0  0  0  0  0  0999 V2000
  142.8990   79.6120  222.9500 C   0  0  0  0  0  0  0  0  0  0  0  0
  141.4000   79.5160  223.0660 C   0  0  2  0  0  0  0  0  0  0  0  0
  140.9530   78.3660  222.3240 N   0  0  0  0  0  0  0  0  0  0  0  0
  141.1190   78.2440  220.9180 C   0  0  0  0  0  0  0  0  0  0  0  0
  141.6830   79.1800  220.2920 O   0  0  0  0  0  0  0  0  0  0  0  0
  140.6670   77.0700  220.1350 C   0  0  1  0  0  0  0  0  0  0  0  0
  141.5320   76.8640  218.8970 C   0  0  0  0  0  0  0  0  0  0  0  0
  142.6990   76.1080  219.4420 C   0  0  0  0  0  0  0  0  0  0  0  0
  142.2030   75.3060  220.6230 C   0  0  0  0  0  0  0  0  0  0  0  0
  140.8610   75.8100  220.8240 N   0  0  0  0  0  0  0  0  0  0  0  0
  139.8350   75.1650  221.5970 C   0  0  0  0  0  0  0  0  0  0  0  0
  139.3950   75.6700  222.6710 O   0  0  0  0  0  0  0  0  0  0  0  0
  139.2650   73.8640  221.1290 C   0  0  0  0  0  0  0  0  0  0  0  0
  139.1760   72.9770  222.2730 N   0  0  0  0  0  0  0  0  0  0  0  0
  140.2370   72.1220  222.6130 C   0  0  0  0  0  0  0  0  0  0  0  0
  141.3230   72.0790  221.9410 O   0  0  0  0  0  0  0  0  0  0  0  0
  140.1700   71.2180  223.7630 C   0  0  0  0  0  0  0  0  0  0  0  0
  139.5550   69.9870  223.6090 C   0  0  0  0  0  0  0  0  0  0  0  0
  139.4580   69.0790  224.6640 C   0  0  0  0  0  0  0  0  0  0  0  0
  139.9890   69.4150  225.8990 C   0  0  0  0  0  0  0  0  0  0  0  0
  139.8780   68.4900  226.9300 C   0  0  0  0  0  0  0  0  0  0  0  0
  140.4030   68.8120  228.1670 C   0  0  0  0  0  0  0  0  0  0  0  0
  140.2780   67.8900  229.1520 F   0  0  0  0  0  0  0  0  0  0  0  0
  141.0250   70.0340  228.3580 C   0  0  0  0  0  0  0  0  0  0  0  0
  141.1290   70.9520  227.3080 C   0  0  0  0  0  0  0  0  0  0  0  0
  140.6020   70.6350  226.0610 C   0  0  0  0  0  0  0  0  0  0  0  0
  140.6840   71.5220  224.9890 C   0  0  0  0  0  0  0  0  0  0  0  0
  140.8210   80.7860  222.5490 C   0  0  0  0  0  0  0  0  0  0  0  0
  141.6320   81.7950  222.0170 C   0  0  0  0  0  0  0  0  0  0  0  0
  141.0960   82.9730  221.5380 C   0  0  0  0  0  0  0  0  0  0  0  0
  139.7420   83.2010  221.5640 C   0  0  0  0  0  0  0  0  0  0  0  0
  138.9150   82.2120  222.0880 C   0  0  0  0  0  0  0  0  0  0  0  0
  139.4670   81.0500  222.5590 C   0  0  0  0  0  0  0  0  0  0  0  0
  143.3435   79.6405  223.9558 H   0  0  0  0  0  0  0  0  0  0  0  0
  143.2814   78.7365  222.4048 H   0  0  0  0  0  0  0  0  0  0  0  0
  143.1666   80.5291  222.4048 H   0  0  0  0  0  0  0  0  0  0  0  0
  141.0723   79.3849  224.1078 H   0  0  0  0  0  0  0  0  0  0  0  0
  140.4880   77.6000  222.8560 H   0  0  0  0  0  0  0  0  0  0  0  0
  139.6089   77.2933  219.9335 H   0  0  0  0  0  0  0  0  0  0  0  0
  141.0000   76.2779  218.1331 H   0  0  0  0  0  0  0  0  0  0  0  0
  141.8120   77.8023  218.3959 H   0  0  0  0  0  0  0  0  0  0  0  0
  143.1035   75.4340  218.6725 H   0  0  0  0  0  0  0  0  0  0  0  0
  143.5006   76.7965  219.7478 H   0  0  0  0  0  0  0  0  0  0  0  0
  142.1901   74.2306  220.3922 H   0  0  0  0  0  0  0  0  0  0  0  0
  142.8407   75.4092  221.5133 H   0  0  0  0  0  0  0  0  0  0  0  0
  138.2636   74.0265  220.7037 H   0  0  0  0  0  0  0  0  0  0  0  0
  139.9066   73.4228  220.3521 H   0  0  0  0  0  0  0  0  0  0  0  0
  138.2920   73.0080  222.8280 H   0  0  0  0  0  0  0  0  0  0  0  0
  139.1321   69.7180  222.6298 H   0  0  0  0  0  0  0  0  0  0  0  0
  138.9652   68.1067  224.5169 H   0  0  0  0  0  0  0  0  0  0  0  0
  139.3827   67.5218  226.7649 H   0  0  0  0  0  0  0  0  0  0  0  0
  141.4413   70.2852  229.3447 H   0  0  0  0  0  0  0  0  0  0  0  0
  141.6255   71.9205  227.4680 H   0  0  0  0  0  0  0  0  0  0  0  0
  141.1770   72.4943  225.1360 H   0  0  0  0  0  0  0  0  0  0  0  0
  142.7212   81.6457  221.9798 H   0  0  0  0  0  0  0  0  0  0  0  0
  141.7655   83.7434  221.1279 H   0  0  0  0  0  0  0  0  0  0  0  0
  139.3215   84.1422  221.1801 H   0  0  0  0  0  0  0  0  0  0  0  0
  137.8259   82.3622  222.1237 H   0  0  0  0  0  0  0  0  0  0  0  0
  138.7922   80.2839  222.9685 H   0  0  0  0  0  0  0  0  0  0  0  0
  1  2  1  0
  2  3  1  0
  3  4  1  0
  4  5  2  0
  4  6  1  0
  6  7  1  0
  7  8  1  0
  8  9  1  0
  9 10  1  0
 10 11  1  0
 11 12  2  0
 11 13  1  0
 13 14  1  0
 14 15  1  0
 15 16  2  0
 15 17  1  0
 17 18  2  0
 18 19  1  0
 19 20  2  0
 20 21  1  0
 21 22  2  0
 22 23  1  0
 22 24  1  0
 24 25  2  0
 25 26  1  0
 26 27  2  0
  2 28  1  0
 28 29  2  0
 29 30  1  0
 30 31  2  0
 31 32  1  0
 32 33  2  0
 10  6  1  0
 27 17  1  0
 33 28  1  0
 26 20  1  0
  1 34  1  0
  1 35  1  0
  1 36  1  0
  2 37  1  1
  3 38  1  0
  6 39  1  6
  7 40  1  0
  7 41  1  0
  8 42  1  0
  8 43  1  0
  9 44  1  0
  9 45  1  0
 13 46  1  0
 13 47  1  0
 14 48  1  0
 18 49  1  0
 19 50  1  0
 21 51  1  0
 24 52  1  0
 25 53  1  0
 27 54  1  0
 29 55  1  0
 30 56  1  0
 31 57  1  0
 32 58  1  0
 33 59  1  0
M  END
>  <smiles>  (11) 
C[C@H](NC(=O)[C@H]1CCCN1C(=O)CNC(=O)c1ccc2cc(F)ccc2c1)c1ccccc1

>  <score_type>  (11) 
oracle

>  <origin>  (11) 
autodockgpu

>  <m_score__min__energy>  (11) 
-9.5099999999999998

>  <m_primary>  (11) 
energy

>  <rmsd>  (11) 
2.0582368801964117

>  <m_score__min__rmsd>  (11) 
2.0582368801964117

>  <meeko>  (11) 
{"free_energy": -8.89, "intermolecular_energy": -10.98, "internal_energy": -2.44, "cluster_size": 35, "cluster_id": 1, "rank_in_cluster": 13}

>  <energy>  (11) 
-8.94

>  <cluster_rmsd>  (11) 
1.74

>  <cluster>  (11) 
1

$$$$

     RDKit          3D

 59 62  0  0  0  0  0  0  0  0999 V2000
  140.7110   71.7720  223.0830 C   0  0  0  0  0  0  0  0  0  0  0  0
  139.6610   70.9250  223.7530 C   0  0  2  0  0  0  0  0  0  0  0  0
  138.3650   71.4810  223.4630 N   0  0  0  0  0  0  0  0  0  0  0  0
  137.2380   70.6800  223.1360 C   0  0  0  0  0  0  0  0  0  0  0  0
  137.3750   69.4290  223.0990 O   0  0  0  0  0  0  0  0  0  0  0  0
  135.8960   71.2310  222.8340 C   0  0  1  0  0  0  0  0  0  0  0  0
  134.8550   70.7310  223.8290 C   0  0  0  0  0  0  0  0  0  0  0  0
  135.0310   71.6690  224.9780 C   0  0  0  0  0  0  0  0  0  0  0  0
  135.5190   72.9840  224.4140 C   0  0  0  0  0  0  0  0  0  0  0  0
  135.8050   72.6640  223.0310 N   0  0  0  0  0  0  0  0  0  0  0  0
  135.9790   73.6210  221.9720 C   0  0  0  0  0  0  0  0  0  0  0  0
  135.0040   74.2680  221.4940 O   0  0  0  0  0  0  0  0  0  0  0  0
  137.3460   73.8640  221.4150 C   0  0  0  0  0  0  0  0  0  0  0  0
  137.7560   75.1990  221.8040 N   0  0  0  0  0  0  0  0  0  0  0  0
  139.1030   75.4960  222.0690 C   0  0  0  0  0  0  0  0  0  0  0  0
  140.0270   74.6180  221.9830 O   0  0  0  0  0  0  0  0  0  0  0  0
  139.5410   76.8360  222.4640 C   0  0  0  0  0  0  0  0  0  0  0  0
  138.5920   77.7480  222.8960 C   0  0  0  0  0  0  0  0  0  0  0  0
  138.9410   79.0410  223.2870 C   0  0  0  0  0  0  0  0  0  0  0  0
  140.2720   79.4260  223.2420 C   0  0  0  0  0  0  0  0  0  0  0  0
  140.5900   80.7190  223.6380 C   0  0  0  0  0  0  0  0  0  0  0  0
  141.9120   81.1170  223.5990 C   0  0  0  0  0  0  0  0  0  0  0  0
  142.1910   82.3840  223.9900 F   0  0  0  0  0  0  0  0  0  0  0  0
  142.8890   80.2320  223.1730 C   0  0  0  0  0  0  0  0  0  0  0  0
  142.5500   78.9340  222.7790 C   0  0  0  0  0  0  0  0  0  0  0  0
  141.2210   78.5280  222.8160 C   0  0  0  0  0  0  0  0  0  0  0  0
  140.8420   77.2420  222.4310 C   0  0  0  0  0  0  0  0  0  0  0  0
  139.9550   70.9050  225.2130 C   0  0  0  0  0  0  0  0  0  0  0  0
  139.4440   69.9050  226.0470 C   0  0  0  0  0  0  0  0  0  0  0  0
  139.7160   69.8860  227.4000 C   0  0  0  0  0  0  0  0  0  0  0  0
  140.5020   70.8500  227.9810 C   0  0  0  0  0  0  0  0  0  0  0  0
  141.0230   71.8550  227.1720 C   0  0  0  0  0  0  0  0  0  0  0  0
  140.7410   71.8560  225.8310 C   0  0  0  0  0  0  0  0  0  0  0  0
  141.3257   72.2678  223.8487 H   0  0  0  0  0  0  0  0  0  0  0  0
  141.3510   71.1343  222.4555 H   0  0  0  0  0  0  0  0  0  0  0  0
  140.2232   72.5324  222.4555 H   0  0  0  0  0  0  0  0  0  0  0  0
  139.6673   69.8891  223.3830 H   0  0  0  0  0  0  0  0  0  0  0  0
  138.2670   72.5180  223.4970 H   0  0  0  0  0  0  0  0  0  0  0  0
  135.7278   70.9272  221.7903 H   0  0  0  0  0  0  0  0  0  0  0  0
  133.8399   70.8002  223.4110 H   0  0  0  0  0  0  0  0  0  0  0  0
  134.9818   69.6731  224.1025 H   0  0  0  0  0  0  0  0  0  0  0  0
  134.0714   71.8144  225.4957 H   0  0  0  0  0  0  0  0  0  0  0  0
  135.7521   71.2649  225.7037 H   0  0  0  0  0  0  0  0  0  0  0  0
  134.7407   73.7579  224.4872 H   0  0  0  0  0  0  0  0  0  0  0  0
  136.3888   73.3885  224.9524 H   0  0  0  0  0  0  0  0  0  0  0  0
  138.0515   73.1236  221.8201 H   0  0  0  0  0  0  0  0  0  0  0  0
  137.3347   73.7713  220.3190 H   0  0  0  0  0  0  0  0  0  0  0  0
  137.0060   75.9220  221.8750 H   0  0  0  0  0  0  0  0  0  0  0  0
  137.5352   77.4447  222.9317 H   0  0  0  0  0  0  0  0  0  0  0  0
  138.1689   79.7468  223.6271 H   0  0  0  0  0  0  0  0  0  0  0  0
  139.8050   81.4117  223.9757 H   0  0  0  0  0  0  0  0  0  0  0  0
  143.9407   80.5533  223.1445 H   0  0  0  0  0  0  0  0  0  0  0  0
  143.3314   78.2373  222.4413 H   0  0  0  0  0  0  0  0  0  0  0  0
  141.6141   76.5360  222.0914 H   0  0  0  0  0  0  0  0  0  0  0  0
  138.8111   69.1159  225.6148 H   0  0  0  0  0  0  0  0  0  0  0  0
  139.2953   69.0838  228.0241 H   0  0  0  0  0  0  0  0  0  0  0  0
  140.7148   70.8284  229.0600 H   0  0  0  0  0  0  0  0  0  0  0  0
  141.6565   72.6428  227.6056 H   0  0  0  0  0  0  0  0  0  0  0  0
  141.1652   72.6604  225.2122 H   0  0  0  0  0  0  0  0  0  0  0  0
  1  2  1  0
  2  3  1  0
  3  4  1  0
  4  5  2  0
  4  6  1  0
  6  7  1  0
  7  8  1  0
  8  9  1  0
  9 10  1  0
 10 11  1  0
 11 12  2  0
 11 13  1  0
 13 14  1  0
 14 15  1  0
 15 16  2  0
 15 17  1  0
 17 18  2  0
 18 19  1  0
 19 20  2  0
 20 21  1  0
 21 22  2  0
 22 23  1  0
 22 24  1  0
 24 25  2  0
 25 26  1  0
 26 27  2  0
  2 28  1  0
 28 29  2  0
 29 30  1  0
 30 31  2  0
 31 32  1  0
 32 33  2  0
 10  6  1  0
 27 17  1  0
 33 28  1  0
 26 20  1  0
  1 34  1  0
  1 35  1  0
  1 36  1  0
  2 37  1  6
  3 38  1  0
  6 39  1  6
  7 40  1  0
  7 41  1  0
  8 42  1  0
  8 43  1  0
  9 44  1  0
  9 45  1  0
 13 46  1  0
 13 47  1  0
 14 48  1  0
 18 49  1  0
 19 50  1  0
 21 51  1  0
 24 52  1  0
 25 53  1  0
 27 54  1  0
 29 55  1  0
 30 56  1  0
 31 57  1  0
 32 58  1  0
 33 59  1  0
M  END
>  <smiles>  (12) 
C[C@H](NC(=O)[C@H]1CCCN1C(=O)CNC(=O)c1ccc2cc(F)ccc2c1)c1ccccc1

>  <score_type>  (12) 
oracle

>  <origin>  (12) 
autodockgpu

>  <m_score__min__energy>  (12) 
-9.5099999999999998

>  <m_primary>  (12) 
energy

>  <rmsd>  (12) 
9.498445851528512

>  <m_score__min__rmsd>  (12) 
9.498445851528512

>  <meeko>  (12) 
{"free_energy": -8.68, "intermolecular_energy": -10.77, "internal_energy": -2.29, "cluster_size": 2, "cluster_id": 3, "rank_in_cluster": 1}

>  <energy>  (12) 
-8.94

>  <cluster_rmsd>  (12) 
1.7

>  <cluster>  (12) 
1

$$$$

     RDKit          3D

 59 62  0  0  0  0  0  0  0  0999 V2000
  138.3840   75.7120  222.3560 C   0  0  0  0  0  0  0  0  0  0  0  0
  139.2240   76.5590  221.4370 C   0  0  2  0  0  0  0  0  0  0  0  0
  140.1930   75.7140  220.7890 N   0  0  0  0  0  0  0  0  0  0  0  0
  140.6380   75.9320  219.4570 C   0  0  0  0  0  0  0  0  0  0  0  0
  140.1650   76.9050  218.8130 O   0  0  0  0  0  0  0  0  0  0  0  0
  141.6340   75.0760  218.7720 C   0  0  1  0  0  0  0  0  0  0  0  0
  142.8940   75.8610  218.4240 C   0  0  0  0  0  0  0  0  0  0  0  0
  143.6650   75.8150  219.7010 C   0  0  0  0  0  0  0  0  0  0  0  0
  143.2900   74.5320  220.4070 C   0  0  0  0  0  0  0  0  0  0  0  0
  142.1800   74.0360  219.6210 N   0  0  0  0  0  0  0  0  0  0  0  0
  141.6670   72.6930  219.6560 C   0  0  0  0  0  0  0  0  0  0  0  0
  142.4140   71.6900  219.4670 O   0  0  0  0  0  0  0  0  0  0  0  0
  140.2130   72.4660  219.9230 C   0  0  0  0  0  0  0  0  0  0  0  0
  140.1000   71.6240  221.0990 N   0  0  0  0  0  0  0  0  0  0  0  0
  140.3200   72.1410  222.3850 C   0  0  0  0  0  0  0  0  0  0  0  0
  140.6280   73.3650  222.5880 O   0  0  0  0  0  0  0  0  0  0  0  0
  140.2120   71.3110  223.5870 C   0  0  0  0  0  0  0  0  0  0  0  0
  139.5880   70.0780  223.4910 C   0  0  0  0  0  0  0  0  0  0  0  0
  139.4530   69.2370  224.5960 C   0  0  0  0  0  0  0  0  0  0  0  0
  139.9540   69.6440  225.8230 C   0  0  0  0  0  0  0  0  0  0  0  0
  139.8040   68.7860  226.9050 C   0  0  0  0  0  0  0  0  0  0  0  0
  140.2990   69.1780  228.1340 C   0  0  0  0  0  0  0  0  0  0  0  0
  140.1370   68.3200  229.1700 F   0  0  0  0  0  0  0  0  0  0  0  0
  140.9290   70.4040  228.2680 C   0  0  0  0  0  0  0  0  0  0  0  0
  141.0710   71.2540  227.1670 C   0  0  0  0  0  0  0  0  0  0  0  0
  140.5750   70.8660  225.9280 C   0  0  0  0  0  0  0  0  0  0  0  0
  140.6960   71.6850  224.8060 C   0  0  0  0  0  0  0  0  0  0  0  0
  139.8590   77.6280  222.2560 C   0  0  0  0  0  0  0  0  0  0  0  0
  139.0940   78.6010  222.9070 C   0  0  0  0  0  0  0  0  0  0  0  0
  139.6830   79.5920  223.6660 C   0  0  0  0  0  0  0  0  0  0  0  0
  141.0460   79.6610  223.8130 C   0  0  0  0  0  0  0  0  0  0  0  0
  141.8290   78.7040  223.1740 C   0  0  0  0  0  0  0  0  0  0  0  0
  141.2250   77.7280  222.4250 C   0  0  0  0  0  0  0  0  0  0  0  0
  138.6252   75.9552  223.4013 H   0  0  0  0  0  0  0  0  0  0  0  0
  137.3189   75.9135  222.1690 H   0  0  0  0  0  0  0  0  0  0  0  0
  138.5943   74.6486  222.1690 H   0  0  0  0  0  0  0  0  0  0  0  0
  138.6233   77.0374  220.6494 H   0  0  0  0  0  0  0  0  0  0  0  0
  140.5750   74.9130  221.3350 H   0  0  0  0  0  0  0  0  0  0  0  0
  141.0761   74.6816  217.9099 H   0  0  0  0  0  0  0  0  0  0  0  0
  143.4498   75.3789  217.6063 H   0  0  0  0  0  0  0  0  0  0  0  0
  142.6910   76.8826  218.0704 H   0  0  0  0  0  0  0  0  0  0  0  0
  144.7444   75.8266  219.4896 H   0  0  0  0  0  0  0  0  0  0  0  0
  143.4309   76.6875  220.3287 H   0  0  0  0  0  0  0  0  0  0  0  0
  144.1275   73.8189  220.4012 H   0  0  0  0  0  0  0  0  0  0  0  0
  143.0365   74.6804  221.4671 H   0  0  0  0  0  0  0  0  0  0  0  0
  139.7117   73.4284  220.1032 H   0  0  0  0  0  0  0  0  0  0  0  0
  139.7365   71.9811  219.0582 H   0  0  0  0  0  0  0  0  0  0  0  0
  139.8480   70.6230  220.9410 H   0  0  0  0  0  0  0  0  0  0  0  0
  139.1887   69.7537  222.5187 H   0  0  0  0  0  0  0  0  0  0  0  0
  138.9545   68.2617  224.4948 H   0  0  0  0  0  0  0  0  0  0  0  0
  139.3016   67.8147  226.7859 H   0  0  0  0  0  0  0  0  0  0  0  0
  141.3209   70.7116  229.2487 H   0  0  0  0  0  0  0  0  0  0  0  0
  141.5733   72.2260  227.2810 H   0  0  0  0  0  0  0  0  0  0  0  0
  141.1957   72.6598  224.9068 H   0  0  0  0  0  0  0  0  0  0  0  0
  137.9984   78.5760  222.8120 H   0  0  0  0  0  0  0  0  0  0  0  0
  139.0481   80.3406  224.1625 H   0  0  0  0  0  0  0  0  0  0  0  0
  141.5080   80.4530  224.4207 H   0  0  0  0  0  0  0  0  0  0  0  0
  142.9245   78.7308  223.2694 H   0  0  0  0  0  0  0  0  0  0  0  0
  141.8651   76.9824  221.9307 H   0  0  0  0  0  0  0  0  0  0  0  0
  1  2  1  0
  2  3  1  0
  3  4  1  0
  4  5  2  0
  4  6  1  0
  6  7  1  0
  7  8  1  0
  8  9  1  0
  9 10  1  0
 10 11  1  0
 11 12  2  0
 11 13  1  0
 13 14  1  0
 14 15  1  0
 15 16  2  0
 15 17  1  0
 17 18  2  0
 18 19  1  0
 19 20  2  0
 20 21  1  0
 21 22  2  0
 22 23  1  0
 22 24  1  0
 24 25  2  0
 25 26  1  0
 26 27  2  0
  2 28  1  0
 28 29  2  0
 29 30  1  0
 30 31  2  0
 31 32  1  0
 32 33  2  0
 10  6  1  0
 27 17  1  0
 33 28  1  0
 26 20  1  0
  1 34  1  0
  1 35  1  0
  1 36  1  0
  2 37  1  6
  3 38  1  0
  6 39  1  6
  7 40  1  0
  7 41  1  0
  8 42  1  0
  8 43  1  0
  9 44  1  0
  9 45  1  0
 13 46  1  0
 13 47  1  0
 14 48  1  0
 18 49  1  0
 19 50  1  0
 21 51  1  0
 24 52  1  0
 25 53  1  0
 27 54  1  0
 29 55  1  0
 30 56  1  0
 31 57  1  0
 32 58  1  0
 33 59  1  0
M  END
>  <smiles>  (13) 
C[C@H](NC(=O)[C@H]1CCCN1C(=O)CNC(=O)c1ccc2cc(F)ccc2c1)c1ccccc1

>  <score_type>  (13) 
oracle

>  <origin>  (13) 
autodockgpu

>  <m_score__min__energy>  (13) 
-9.5099999999999998

>  <m_primary>  (13) 
energy

>  <rmsd>  (13) 
3.4830129418235134

>  <m_score__min__rmsd>  (13) 
3.4830129418235134

>  <meeko>  (13) 
{"free_energy": -8.25, "intermolecular_energy": -10.34, "internal_energy": -3.04, "cluster_size": 35, "cluster_id": 1, "rank_in_cluster": 34}

>  <energy>  (13) 
-8.89

>  <cluster_rmsd>  (13) 
1.25

>  <cluster>  (13) 
1

$$$$

     RDKit          3D

 59 62  0  0  0  0  0  0  0  0999 V2000
  138.0840   80.6630  224.5810 C   0  0  0  0  0  0  0  0  0  0  0  0
  138.5230   80.1480  223.2350 C   0  0  2  0  0  0  0  0  0  0  0  0
  137.8600   78.8960  222.9820 N   0  0  0  0  0  0  0  0  0  0  0  0
  138.0810   78.1310  221.8050 C   0  0  0  0  0  0  0  0  0  0  0  0
  138.8910   78.5650  220.9450 O   0  0  0  0  0  0  0  0  0  0  0  0
  137.4100   76.8400  221.5250 C   0  0  1  0  0  0  0  0  0  0  0  0
  136.2960   77.0060  220.4980 C   0  0  0  0  0  0  0  0  0  0  0  0
  137.0400   76.9520  219.2040 C   0  0  0  0  0  0  0  0  0  0  0  0
  138.2600   76.0850  219.4220 C   0  0  0  0  0  0  0  0  0  0  0  0
  138.2660   75.8810  220.8560 N   0  0  0  0  0  0  0  0  0  0  0  0
  139.0120   74.8670  221.5500 C   0  0  0  0  0  0  0  0  0  0  0  0
  139.9590   75.1590  222.3360 O   0  0  0  0  0  0  0  0  0  0  0  0
  138.6660   73.4260  221.3450 C   0  0  0  0  0  0  0  0  0  0  0  0
  139.0570   72.6980  222.5380 N   0  0  0  0  0  0  0  0  0  0  0  0
  138.8270   71.3190  222.6540 C   0  0  0  0  0  0  0  0  0  0  0  0
  138.2680   70.6370  221.7290 O   0  0  0  0  0  0  0  0  0  0  0  0
  139.2130   70.5630  223.8480 C   0  0  0  0  0  0  0  0  0  0  0  0
  138.9900   69.1970  223.8740 C   0  0  0  0  0  0  0  0  0  0  0  0
  139.3350   68.4180  224.9790 C   0  0  0  0  0  0  0  0  0  0  0  0
  139.9140   69.0250  226.0820 C   0  0  0  0  0  0  0  0  0  0  0  0
  140.2470   68.2250  227.1670 C   0  0  0  0  0  0  0  0  0  0  0  0
  140.8250   68.8160  228.2740 C   0  0  0  0  0  0  0  0  0  0  0  0
  141.1370   68.0100  229.3160 F   0  0  0  0  0  0  0  0  0  0  0  0
  141.0630   70.1810  228.2840 C   0  0  0  0  0  0  0  0  0  0  0  0
  140.7230   70.9700  227.1820 C   0  0  0  0  0  0  0  0  0  0  0  0
  140.1400   70.3810  226.0660 C   0  0  0  0  0  0  0  0  0  0  0  0
  139.7850   71.1340  224.9470 C   0  0  0  0  0  0  0  0  0  0  0  0
  140.0060   80.0110  223.2620 C   0  0  0  0  0  0  0  0  0  0  0  0
  140.8450   81.1140  223.0780 C   0  0  0  0  0  0  0  0  0  0  0  0
  142.2190   80.9870  223.1020 C   0  0  0  0  0  0  0  0  0  0  0  0
  142.8170   79.7680  223.3100 C   0  0  0  0  0  0  0  0  0  0  0  0
  142.0030   78.6560  223.4960 C   0  0  0  0  0  0  0  0  0  0  0  0
  140.6410   78.8030  223.4690 C   0  0  0  0  0  0  0  0  0  0  0  0
  138.5782   80.0832  225.3744 H   0  0  0  0  0  0  0  0  0  0  0  0
  138.3601   81.7236  224.6757 H   0  0  0  0  0  0  0  0  0  0  0  0
  136.9931   80.5583  224.6757 H   0  0  0  0  0  0  0  0  0  0  0  0
  138.2531   80.8352  222.4196 H   0  0  0  0  0  0  0  0  0  0  0  0
  137.1920   78.5500  223.7030 H   0  0  0  0  0  0  0  0  0  0  0  0
  137.0813   76.5052  222.5199 H   0  0  0  0  0  0  0  0  0  0  0  0
  135.5636   76.1884  220.5701 H   0  0  0  0  0  0  0  0  0  0  0  0
  135.7113   77.9283  220.6299 H   0  0  0  0  0  0  0  0  0  0  0  0
  136.4026   76.5148  218.4213 H   0  0  0  0  0  0  0  0  0  0  0  0
  137.3328   77.9619  218.8809 H   0  0  0  0  0  0  0  0  0  0  0  0
  138.1652   75.1283  218.8874 H   0  0  0  0  0  0  0  0  0  0  0  0
  139.1876   76.5415  219.0463 H   0  0  0  0  0  0  0  0  0  0  0  0
  137.5832   73.3214  221.1817 H   0  0  0  0  0  0  0  0  0  0  0  0
  139.1914   73.0279  220.4644 H   0  0  0  0  0  0  0  0  0  0  0  0
  139.5150   73.2490  223.2980 H   0  0  0  0  0  0  0  0  0  0  0  0
  138.5287   68.7130  223.0005 H   0  0  0  0  0  0  0  0  0  0  0  0
  139.1494   67.3338  224.9746 H   0  0  0  0  0  0  0  0  0  0  0  0
  140.0544   67.1422  227.1456 H   0  0  0  0  0  0  0  0  0  0  0  0
  141.5237   70.6476  229.1672 H   0  0  0  0  0  0  0  0  0  0  0  0
  140.9159   72.0528  227.1976 H   0  0  0  0  0  0  0  0  0  0  0  0
  139.9714   72.2181  224.9507 H   0  0  0  0  0  0  0  0  0  0  0  0
  140.3998   82.1058  222.9103 H   0  0  0  0  0  0  0  0  0  0  0  0
  142.8465   81.8779  222.9519 H   0  0  0  0  0  0  0  0  0  0  0  0
  143.9128   79.6738  223.3290 H   0  0  0  0  0  0  0  0  0  0  0  0
  142.4496   77.6648  223.6637 H   0  0  0  0  0  0  0  0  0  0  0  0
  140.0190   77.9085  223.6207 H   0  0  0  0  0  0  0  0  0  0  0  0
  1  2  1  0
  2  3  1  0
  3  4  1  0
  4  5  2  0
  4  6  1  0
  6  7  1  0
  7  8  1  0
  8  9  1  0
  9 10  1  0
 10 11  1  0
 11 12  2  0
 11 13  1  0
 13 14  1  0
 14 15  1  0
 15 16  2  0
 15 17  1  0
 17 18  2  0
 18 19  1  0
 19 20  2  0
 20 21  1  0
 21 22  2  0
 22 23  1  0
 22 24  1  0
 24 25  2  0
 25 26  1  0
 26 27  2  0
  2 28  1  0
 28 29  2  0
 29 30  1  0
 30 31  2  0
 31 32  1  0
 32 33  2  0
 10  6  1  0
 27 17  1  0
 33 28  1  0
 26 20  1  0
  1 34  1  0
  1 35  1  0
  1 36  1  0
  2 37  1  6
  3 38  1  0
  6 39  1  1
  7 40  1  0
  7 41  1  0
  8 42  1  0
  8 43  1  0
  9 44  1  0
  9 45  1  0
 13 46  1  0
 13 47  1  0
 14 48  1  0
 18 49  1  0
 19 50  1  0
 21 51  1  0
 24 52  1  0
 25 53  1  0
 27 54  1  0
 29 55  1  0
 30 56  1  0
 31 57  1  0
 32 58  1  0
 33 59  1  0
M  END
>  <smiles>  (14) 
C[C@H](NC(=O)[C@H]1CCCN1C(=O)CNC(=O)c1ccc2cc(F)ccc2c1)c1ccccc1

>  <score_type>  (14) 
oracle

>  <origin>  (14) 
autodockgpu

>  <m_score__min__energy>  (14) 
-9.5099999999999998

>  <m_primary>  (14) 
energy

>  <rmsd>  (14) 
3.2968568963876312

>  <m_score__min__rmsd>  (14) 
3.2968568963876312

>  <meeko>  (14) 
{"free_energy": -8.77, "intermolecular_energy": -10.86, "internal_energy": -2.14, "cluster_size": 11, "cluster_id": 2, "rank_in_cluster": 5}

>  <energy>  (14) 
-8.87

>  <cluster_rmsd>  (14) 
1.67

>  <cluster>  (14) 
1

$$$$

     RDKit          3D

 59 62  0  0  0  0  0  0  0  0999 V2000
  138.4240   80.2870  224.2370 C   0  0  0  0  0  0  0  0  0  0  0  0
  139.1110   79.8010  222.9870 C   0  0  2  0  0  0  0  0  0  0  0  0
  138.8120   78.4040  222.8110 N   0  0  0  0  0  0  0  0  0  0  0  0
  137.4890   77.9130  222.6460 C   0  0  0  0  0  0  0  0  0  0  0  0
  136.5350   78.7330  222.6550 O   0  0  0  0  0  0  0  0  0  0  0  0
  137.1600   76.4800  222.4630 C   0  0  1  0  0  0  0  0  0  0  0  0
  135.7800   76.3040  221.8390 C   0  0  0  0  0  0  0  0  0  0  0  0
  136.0610   76.4730  220.3820 C   0  0  0  0  0  0  0  0  0  0  0  0
  137.4800   76.0100  220.1420 C   0  0  0  0  0  0  0  0  0  0  0  0
  137.9960   75.8190  221.4810 N   0  0  0  0  0  0  0  0  0  0  0  0
  139.1780   75.0750  221.8210 C   0  0  0  0  0  0  0  0  0  0  0  0
  140.1420   75.6060  222.4440 O   0  0  0  0  0  0  0  0  0  0  0  0
  139.2810   73.6340  221.4320 C   0  0  0  0  0  0  0  0  0  0  0  0
  139.5290   72.8630  222.6350 N   0  0  0  0  0  0  0  0  0  0  0  0
  139.3410   71.4720  222.6570 C   0  0  0  0  0  0  0  0  0  0  0  0
  138.9470   70.8180  221.6320 O   0  0  0  0  0  0  0  0  0  0  0  0
  139.5850   70.6730  223.8600 C   0  0  0  0  0  0  0  0  0  0  0  0
  139.2030   69.3410  223.8650 C   0  0  0  0  0  0  0  0  0  0  0  0
  139.4070   68.5240  224.9770 C   0  0  0  0  0  0  0  0  0  0  0  0
  140.0060   69.0550  226.1080 C   0  0  0  0  0  0  0  0  0  0  0  0
  140.1960   68.2180  227.2000 C   0  0  0  0  0  0  0  0  0  0  0  0
  140.7910   68.7340  228.3350 C   0  0  0  0  0  0  0  0  0  0  0  0
  140.9630   67.8930  229.3830 F   0  0  0  0  0  0  0  0  0  0  0  0
  141.1870   70.0610  228.3670 C   0  0  0  0  0  0  0  0  0  0  0  0
  140.9880   70.8890  227.2570 C   0  0  0  0  0  0  0  0  0  0  0  0
  140.3890   70.3760  226.1130 C   0  0  0  0  0  0  0  0  0  0  0  0
  140.1720   71.1690  224.9870 C   0  0  0  0  0  0  0  0  0  0  0  0
  140.5700   80.0550  223.1410 C   0  0  0  0  0  0  0  0  0  0  0  0
  141.5230   79.1610  222.6420 C   0  0  0  0  0  0  0  0  0  0  0  0
  142.8760   79.3960  222.7850 C   0  0  0  0  0  0  0  0  0  0  0  0
  143.3390   80.5190  223.4240 C   0  0  0  0  0  0  0  0  0  0  0  0
  142.4100   81.4230  223.9300 C   0  0  0  0  0  0  0  0  0  0  0  0
  141.0720   81.1720  223.7770 C   0  0  0  0  0  0  0  0  0  0  0  0
  138.9592   79.9084  225.1203 H   0  0  0  0  0  0  0  0  0  0  0  0
  138.4244   81.3869  224.2516 H   0  0  0  0  0  0  0  0  0  0  0  0
  137.3870   79.9205  224.2516 H   0  0  0  0  0  0  0  0  0  0  0  0
  138.7605   80.3301  222.0885 H   0  0  0  0  0  0  0  0  0  0  0  0
  139.6130   77.7370  222.8060 H   0  0  0  0  0  0  0  0  0  0  0  0
  137.2716   76.0643  223.4753 H   0  0  0  0  0  0  0  0  0  0  0  0
  135.3717   75.3050  222.0520 H   0  0  0  0  0  0  0  0  0  0  0  0
  135.0302   77.0097  222.2260 H   0  0  0  0  0  0  0  0  0  0  0  0
  135.3612   75.8644  219.7905 H   0  0  0  0  0  0  0  0  0  0  0  0
  135.9376   77.5237  220.0805 H   0  0  0  0  0  0  0  0  0  0  0  0
  137.4969   75.0678  219.5745 H   0  0  0  0  0  0  0  0  0  0  0  0
  138.0720   76.7226  219.5489 H   0  0  0  0  0  0  0  0  0  0  0  0
  138.3411   73.3051  220.9647 H   0  0  0  0  0  0  0  0  0  0  0  0
  140.0983   73.4900  220.7099 H   0  0  0  0  0  0  0  0  0  0  0  0
  139.8520   73.3910  223.4770 H   0  0  0  0  0  0  0  0  0  0  0  0
  138.7265   68.9169  222.9688 H   0  0  0  0  0  0  0  0  0  0  0  0
  139.0956   67.4692  224.9563 H   0  0  0  0  0  0  0  0  0  0  0  0
  139.8791   67.1653  227.1619 H   0  0  0  0  0  0  0  0  0  0  0  0
  141.6617   70.4670  229.2724 H   0  0  0  0  0  0  0  0  0  0  0  0
  141.3045   71.9420  227.2898 H   0  0  0  0  0  0  0  0  0  0  0  0
  140.4828   72.2240  225.0080 H   0  0  0  0  0  0  0  0  0  0  0  0
  141.1871   78.2505  222.1241 H   0  0  0  0  0  0  0  0  0  0  0  0
  143.5960   78.6700  222.3794 H   0  0  0  0  0  0  0  0  0  0  0  0
  144.4185   80.7000  223.5335 H   0  0  0  0  0  0  0  0  0  0  0  0
  142.7474   82.3323  224.4489 H   0  0  0  0  0  0  0  0  0  0  0  0
  140.3573   81.9023  224.1842 H   0  0  0  0  0  0  0  0  0  0  0  0
  1  2  1  0
  2  3  1  0
  3  4  1  0
  4  5  2  0
  4  6  1  0
  6  7  1  0
  7  8  1  0
  8  9  1  0
  9 10  1  0
 10 11  1  0
 11 12  2  0
 11 13  1  0
 13 14  1  0
 14 15  1  0
 15 16  2  0
 15 17  1  0
 17 18  2  0
 18 19  1  0
 19 20  2  0
 20 21  1  0
 21 22  2  0
 22 23  1  0
 22 24  1  0
 24 25  2  0
 25 26  1  0
 26 27  2  0
  2 28  1  0
 28 29  2  0
 29 30  1  0
 30 31  2  0
 31 32  1  0
 32 33  2  0
 10  6  1  0
 27 17  1  0
 33 28  1  0
 26 20  1  0
  1 34  1  0
  1 35  1  0
  1 36  1  0
  2 37  1  6
  3 38  1  0
  6 39  1  1
  7 40  1  0
  7 41  1  0
  8 42  1  0
  8 43  1  0
  9 44  1  0
  9 45  1  0
 13 46  1  0
 13 47  1  0
 14 48  1  0
 18 49  1  0
 19 50  1  0
 21 51  1  0
 24 52  1  0
 25 53  1  0
 27 54  1  0
 29 55  1  0
 30 56  1  0
 31 57  1  0
 32 58  1  0
 33 59  1  0
M  END
>  <smiles>  (15) 
C[C@H](NC(=O)[C@H]1CCCN1C(=O)CNC(=O)c1ccc2cc(F)ccc2c1)c1ccccc1

>  <score_type>  (15) 
oracle

>  <origin>  (15) 
autodockgpu

>  <m_score__min__energy>  (15) 
-9.5099999999999998

>  <m_primary>  (15) 
energy

>  <rmsd>  (15) 
3.480694779894105

>  <m_score__min__rmsd>  (15) 
3.480694779894105

>  <meeko>  (15) 
{"free_energy": -9.1, "intermolecular_energy": -11.19, "internal_energy": -2.43, "cluster_size": 11, "cluster_id": 2, "rank_in_cluster": 3}

>  <energy>  (15) 
-8.86

>  <cluster_rmsd>  (15) 
1.2

>  <cluster>  (15) 
1

$$$$

     RDKit          3D

 59 62  0  0  0  0  0  0  0  0999 V2000
  142.9530   79.9720  223.0550 C   0  0  0  0  0  0  0  0  0  0  0  0
  141.8050   79.0010  222.9620 C   0  0  2  0  0  0  0  0  0  0  0  0
  141.8950   78.2970  221.7100 N   0  0  0  0  0  0  0  0  0  0  0  0
  141.0680   77.1880  221.3870 C   0  0  0  0  0  0  0  0  0  0  0  0
  140.2180   76.8010  222.2320 O   0  0  0  0  0  0  0  0  0  0  0  0
  141.1440   76.4500  220.1050 C   0  0  1  0  0  0  0  0  0  0  0  0
  142.2390   77.0120  219.2050 C   0  0  0  0  0  0  0  0  0  0  0  0
  143.4620   76.3300  219.7230 C   0  0  0  0  0  0  0  0  0  0  0  0
  143.0300   74.9930  220.2800 C   0  0  0  0  0  0  0  0  0  0  0  0
  141.5850   75.0770  220.2560 N   0  0  0  0  0  0  0  0  0  0  0  0
  140.6820   73.9640  220.3650 C   0  0  0  0  0  0  0  0  0  0  0  0
  140.9350   72.8470  219.8290 O   0  0  0  0  0  0  0  0  0  0  0  0
  139.4070   74.1210  221.1310 C   0  0  0  0  0  0  0  0  0  0  0  0
  139.5180   73.3420  222.3490 N   0  0  0  0  0  0  0  0  0  0  0  0
  139.5410   71.9390  222.3140 C   0  0  0  0  0  0  0  0  0  0  0  0
  139.4660   71.2800  221.2210 O   0  0  0  0  0  0  0  0  0  0  0  0
  139.6530   71.1310  223.5310 C   0  0  0  0  0  0  0  0  0  0  0  0
  139.1300   69.8480  223.5300 C   0  0  0  0  0  0  0  0  0  0  0  0
  139.2040   69.0270  224.6550 C   0  0  0  0  0  0  0  0  0  0  0  0
  139.8140   69.5030  225.8040 C   0  0  0  0  0  0  0  0  0  0  0  0
  139.8730   68.6620  226.9080 C   0  0  0  0  0  0  0  0  0  0  0  0
  140.4780   69.1240  228.0610 C   0  0  0  0  0  0  0  0  0  0  0  0
  140.5190   68.2800  229.1210 F   0  0  0  0  0  0  0  0  0  0  0  0
  141.0130   70.4010  228.0990 C   0  0  0  0  0  0  0  0  0  0  0  0
  140.9450   71.2330  226.9770 C   0  0  0  0  0  0  0  0  0  0  0  0
  140.3370   70.7750  225.8140 C   0  0  0  0  0  0  0  0  0  0  0  0
  140.2480   71.5740  224.6750 C   0  0  0  0  0  0  0  0  0  0  0  0
  140.5410   79.7780  223.0870 C   0  0  0  0  0  0  0  0  0  0  0  0
  140.3200   80.9370  222.3350 C   0  0  0  0  0  0  0  0  0  0  0  0
  139.1480   81.6590  222.4510 C   0  0  0  0  0  0  0  0  0  0  0  0
  138.1520   81.2650  223.3090 C   0  0  0  0  0  0  0  0  0  0  0  0
  138.3490   80.1150  224.0680 C   0  0  0  0  0  0  0  0  0  0  0  0
  139.5190   79.4130  223.9380 C   0  0  0  0  0  0  0  0  0  0  0  0
  143.1835   80.1670  224.1127 H   0  0  0  0  0  0  0  0  0  0  0  0
  143.8369   79.5433  222.5601 H   0  0  0  0  0  0  0  0  0  0  0  0
  142.6769   80.9148  222.5601 H   0  0  0  0  0  0  0  0  0  0  0  0
  141.8319   78.2499  223.7652 H   0  0  0  0  0  0  0  0  0  0  0  0
  142.6040   78.6290  221.0210 H   0  0  0  0  0  0  0  0  0  0  0  0
  140.1224   76.5342  219.7058 H   0  0  0  0  0  0  0  0  0  0  0  0
  142.0575   76.7566  218.1506 H   0  0  0  0  0  0  0  0  0  0  0  0
  142.3055   78.1098  219.2272 H   0  0  0  0  0  0  0  0  0  0  0  0
  144.1845   76.1820  218.9069 H   0  0  0  0  0  0  0  0  0  0  0  0
  143.9463   76.9378  220.5015 H   0  0  0  0  0  0  0  0  0  0  0  0
  143.3879   74.1676  219.6470 H   0  0  0  0  0  0  0  0  0  0  0  0
  143.4342   74.7922  221.2831 H   0  0  0  0  0  0  0  0  0  0  0  0
  139.2483   75.1809  221.3788 H   0  0  0  0  0  0  0  0  0  0  0  0
  138.5544   73.7718  220.5301 H   0  0  0  0  0  0  0  0  0  0  0  0
  139.5800   73.8730  223.2460 H   0  0  0  0  0  0  0  0  0  0  0  0
  138.6444   69.4675  222.6193 H   0  0  0  0  0  0  0  0  0  0  0  0
  138.7821   68.0114  224.6301 H   0  0  0  0  0  0  0  0  0  0  0  0
  139.4467   67.6489  226.8651 H   0  0  0  0  0  0  0  0  0  0  0  0
  141.4951   70.7636  229.0188 H   0  0  0  0  0  0  0  0  0  0  0  0
  141.3712   72.2464  227.0147 H   0  0  0  0  0  0  0  0  0  0  0  0
  140.6694   72.5898  224.7000 H   0  0  0  0  0  0  0  0  0  0  0  0
  141.0966   81.2809  221.6360 H   0  0  0  0  0  0  0  0  0  0  0  0
  139.0106   82.5664  221.8445 H   0  0  0  0  0  0  0  0  0  0  0  0
  137.2206   81.8440  223.3948 H   0  0  0  0  0  0  0  0  0  0  0  0
  137.5717   79.7722  224.7668 H   0  0  0  0  0  0  0  0  0  0  0  0
  139.6503   78.5066  224.5473 H   0  0  0  0  0  0  0  0  0  0  0  0
  1  2  1  0
  2  3  1  0
  3  4  1  0
  4  5  2  0
  4  6  1  0
  6  7  1  0
  7  8  1  0
  8  9  1  0
  9 10  1  0
 10 11  1  0
 11 12  2  0
 11 13  1  0
 13 14  1  0
 14 15  1  0
 15 16  2  0
 15 17  1  0
 17 18  2  0
 18 19  1  0
 19 20  2  0
 20 21  1  0
 21 22  2  0
 22 23  1  0
 22 24  1  0
 24 25  2  0
 25 26  1  0
 26 27  2  0
  2 28  1  0
 28 29  2  0
 29 30  1  0
 30 31  2  0
 31 32  1  0
 32 33  2  0
 10  6  1  0
 27 17  1  0
 33 28  1  0
 26 20  1  0
  1 34  1  0
  1 35  1  0
  1 36  1  0
  2 37  1  1
  3 38  1  0
  6 39  1  6
  7 40  1  0
  7 41  1  0
  8 42  1  0
  8 43  1  0
  9 44  1  0
  9 45  1  0
 13 46  1  0
 13 47  1  0
 14 48  1  0
 18 49  1  0
 19 50  1  0
 21 51  1  0
 24 52  1  0
 25 53  1  0
 27 54  1  0
 29 55  1  0
 30 56  1  0
 31 57  1  0
 32 58  1  0
 33 59  1  0
M  END
>  <smiles>  (16) 
C[C@H](NC(=O)[C@H]1CCCN1C(=O)CNC(=O)c1ccc2cc(F)ccc2c1)c1ccccc1

>  <score_type>  (16) 
oracle

>  <origin>  (16) 
autodockgpu

>  <m_score__min__energy>  (16) 
-9.5099999999999998

>  <m_primary>  (16) 
energy

>  <rmsd>  (16) 
2.374483238300916

>  <m_score__min__rmsd>  (16) 
2.374483238300916

>  <meeko>  (16) 
{"free_energy": -9.5, "intermolecular_energy": -11.58, "internal_energy": -1.65, "cluster_size": 35, "cluster_id": 1, "rank_in_cluster": 2}

>  <energy>  (16) 
-8.86

>  <cluster_rmsd>  (16) 
1.73

>  <cluster>  (16) 
1

$$$$

     RDKit          3D

 59 62  0  0  0  0  0  0  0  0999 V2000
  141.8940   78.7800  223.8310 C   0  0  0  0  0  0  0  0  0  0  0  0
  140.5870   79.1960  223.2070 C   0  0  2  0  0  0  0  0  0  0  0  0
  139.9040   78.0180  222.7380 N   0  0  0  0  0  0  0  0  0  0  0  0
  138.5340   78.0200  222.3620 C   0  0  0  0  0  0  0  0  0  0  0  0
  137.8870   79.0960  222.4410 O   0  0  0  0  0  0  0  0  0  0  0  0
  137.8130   76.8210  221.8760 C   0  0  1  0  0  0  0  0  0  0  0  0
  136.7430   77.1920  220.8560 C   0  0  0  0  0  0  0  0  0  0  0  0
  137.5260   77.2910  219.5890 C   0  0  0  0  0  0  0  0  0  0  0  0
  138.6950   76.3390  219.7080 C   0  0  0  0  0  0  0  0  0  0  0  0
  138.6440   75.9270  221.0940 N   0  0  0  0  0  0  0  0  0  0  0  0
  139.3170   74.7850  221.6500 C   0  0  0  0  0  0  0  0  0  0  0  0
  140.4350   74.8900  222.2320 O   0  0  0  0  0  0  0  0  0  0  0  0
  138.6880   73.4320  221.5430 C   0  0  0  0  0  0  0  0  0  0  0  0
  139.1090   72.6500  222.6890 N   0  0  0  0  0  0  0  0  0  0  0  0
  138.6890   71.3210  222.8560 C   0  0  0  0  0  0  0  0  0  0  0  0
  137.9220   70.7350  222.0180 O   0  0  0  0  0  0  0  0  0  0  0  0
  139.1020   70.5120  224.0050 C   0  0  0  0  0  0  0  0  0  0  0  0
  138.8300   69.1550  223.9970 C   0  0  0  0  0  0  0  0  0  0  0  0
  139.1970   68.3270  225.0590 C   0  0  0  0  0  0  0  0  0  0  0  0
  139.8500   68.8750  226.1510 C   0  0  0  0  0  0  0  0  0  0  0  0
  140.2030   68.0270  227.1930 C   0  0  0  0  0  0  0  0  0  0  0  0
  140.8550   68.5600  228.2890 C   0  0  0  0  0  0  0  0  0  0  0  0
  141.1850   67.7070  229.2890 F   0  0  0  0  0  0  0  0  0  0  0  0
  141.1450   69.9140  228.3310 C   0  0  0  0  0  0  0  0  0  0  0  0
  140.7820   70.7520  227.2730 C   0  0  0  0  0  0  0  0  0  0  0  0
  140.1260   70.2220  226.1680 C   0  0  0  0  0  0  0  0  0  0  0  0
  139.7470   71.0250  225.0920 C   0  0  0  0  0  0  0  0  0  0  0  0
  140.8910   80.1520  222.1070 C   0  0  0  0  0  0  0  0  0  0  0  0
  140.7120   81.5300  222.2670 C   0  0  0  0  0  0  0  0  0  0  0  0
  140.9930   82.4170  221.2470 C   0  0  0  0  0  0  0  0  0  0  0  0
  141.4620   81.9790  220.0330 C   0  0  0  0  0  0  0  0  0  0  0  0
  141.6480   80.6130  219.8500 C   0  0  0  0  0  0  0  0  0  0  0  0
  141.3630   79.7490  220.8750 C   0  0  0  0  0  0  0  0  0  0  0  0
  141.8028   78.8090  224.9268 H   0  0  0  0  0  0  0  0  0  0  0  0
  142.1442   77.7578  223.5108 H   0  0  0  0  0  0  0  0  0  0  0  0
  142.6890   79.4695  223.5108 H   0  0  0  0  0  0  0  0  0  0  0  0
  139.9247   79.6971  223.9283 H   0  0  0  0  0  0  0  0  0  0  0  0
  140.4540   77.1350  222.6780 H   0  0  0  0  0  0  0  0  0  0  0  0
  137.4365   76.3622  222.8021 H   0  0  0  0  0  0  0  0  0  0  0  0
  135.9717   76.4108  220.7868 H   0  0  0  0  0  0  0  0  0  0  0  0
  136.1974   78.1134  221.1078 H   0  0  0  0  0  0  0  0  0  0  0  0
  136.8953   77.0077  218.7335 H   0  0  0  0  0  0  0  0  0  0  0  0
  137.8770   78.3209  219.4273 H   0  0  0  0  0  0  0  0  0  0  0  0
  138.5724   75.4773  219.0353 H   0  0  0  0  0  0  0  0  0  0  0  0
  139.6553   76.7969  219.4284 H   0  0  0  0  0  0  0  0  0  0  0  0
  137.5923   73.5290  221.5395 H   0  0  0  0  0  0  0  0  0  0  0  0
  138.9980   72.9393  220.6096 H   0  0  0  0  0  0  0  0  0  0  0  0
  139.7370   73.1220  223.3780 H   0  0  0  0  0  0  0  0  0  0  0  0
  138.3111   68.7177  223.1312 H   0  0  0  0  0  0  0  0  0  0  0  0
  138.9702   67.2510  225.0292 H   0  0  0  0  0  0  0  0  0  0  0  0
  139.9685   66.9533  227.1468 H   0  0  0  0  0  0  0  0  0  0  0  0
  141.6655   70.3332  229.2047 H   0  0  0  0  0  0  0  0  0  0  0  0
  141.0144   71.8264  227.3146 H   0  0  0  0  0  0  0  0  0  0  0  0
  139.9744   72.1009  225.1209 H   0  0  0  0  0  0  0  0  0  0  0  0
  140.3389   81.9157  223.2272 H   0  0  0  0  0  0  0  0  0  0  0  0
  140.8384   83.4939  221.4097 H   0  0  0  0  0  0  0  0  0  0  0  0
  141.6852   82.6912  219.2250 H   0  0  0  0  0  0  0  0  0  0  0  0
  142.0212   80.2287  218.8893 H   0  0  0  0  0  0  0  0  0  0  0  0
  141.5195   78.6734  220.7057 H   0  0  0  0  0  0  0  0  0  0  0  0
  1  2  1  0
  2  3  1  0
  3  4  1  0
  4  5  2  0
  4  6  1  0
  6  7  1  0
  7  8  1  0
  8  9  1  0
  9 10  1  0
 10 11  1  0
 11 12  2  0
 11 13  1  0
 13 14  1  0
 14 15  1  0
 15 16  2  0
 15 17  1  0
 17 18  2  0
 18 19  1  0
 19 20  2  0
 20 21  1  0
 21 22  2  0
 22 23  1  0
 22 24  1  0
 24 25  2  0
 25 26  1  0
 26 27  2  0
  2 28  1  0
 28 29  2  0
 29 30  1  0
 30 31  2  0
 31 32  1  0
 32 33  2  0
 10  6  1  0
 27 17  1  0
 33 28  1  0
 26 20  1  0
  1 34  1  0
  1 35  1  0
  1 36  1  0
  2 37  1  1
  3 38  1  0
  6 39  1  1
  7 40  1  0
  7 41  1  0
  8 42  1  0
  8 43  1  0
  9 44  1  0
  9 45  1  0
 13 46  1  0
 13 47  1  0
 14 48  1  0
 18 49  1  0
 19 50  1  0
 21 51  1  0
 24 52  1  0
 25 53  1  0
 27 54  1  0
 29 55  1  0
 30 56  1  0
 31 57  1  0
 32 58  1  0
 33 59  1  0
M  END
>  <smiles>  (17) 
C[C@H](NC(=O)[C@H]1CCCN1C(=O)CNC(=O)c1ccc2cc(F)ccc2c1)c1ccccc1

>  <score_type>  (17) 
oracle

>  <origin>  (17) 
autodockgpu

>  <m_score__min__energy>  (17) 
-9.5099999999999998

>  <m_primary>  (17) 
energy

>  <rmsd>  (17) 
2.277862335610504

>  <m_score__min__rmsd>  (17) 
2.277862335610504

>  <meeko>  (17) 
{"free_energy": -8.3, "intermolecular_energy": -10.39, "internal_energy": -2.86, "cluster_size": 35, "cluster_id": 1, "rank_in_cluster": 33}

>  <energy>  (17) 
-8.84

>  <cluster_rmsd>  (17) 
1.2

>  <cluster>  (17) 
1

$$$$

     RDKit          3D

 59 62  0  0  0  0  0  0  0  0999 V2000
  138.5570   79.9740  222.7280 C   0  0  0  0  0  0  0  0  0  0  0  0
  139.7320   79.7860  221.8040 C   0  0  2  0  0  0  0  0  0  0  0  0
  139.7570   78.4160  221.3620 N   0  0  0  0  0  0  0  0  0  0  0  0
  139.7810   78.0490  219.9900 C   0  0  0  0  0  0  0  0  0  0  0  0
  139.7810   78.9590  219.1200 O   0  0  0  0  0  0  0  0  0  0  0  0
  139.8070   76.6460  219.5140 C   0  0  1  0  0  0  0  0  0  0  0  0
  140.5930   76.5160  218.2140 C   0  0  0  0  0  0  0  0  0  0  0  0
  142.0030   76.4260  218.6990 C   0  0  0  0  0  0  0  0  0  0  0  0
  141.9680   75.7890  220.0690 C   0  0  0  0  0  0  0  0  0  0  0  0
  140.5540   75.7580  220.3810 N   0  0  0  0  0  0  0  0  0  0  0  0
  139.9450   74.9600  221.4100 C   0  0  0  0  0  0  0  0  0  0  0  0
  139.6930   75.4310  222.5570 O   0  0  0  0  0  0  0  0  0  0  0  0
  139.5940   73.5330  221.1270 C   0  0  0  0  0  0  0  0  0  0  0  0
  139.6100   72.8110  222.3840 N   0  0  0  0  0  0  0  0  0  0  0  0
  139.8890   71.4350  222.4280 C   0  0  0  0  0  0  0  0  0  0  0  0
  140.1390   70.7540  221.3760 O   0  0  0  0  0  0  0  0  0  0  0  0
  139.9110   70.6850  223.6850 C   0  0  0  0  0  0  0  0  0  0  0  0
  139.3210   69.4320  223.7250 C   0  0  0  0  0  0  0  0  0  0  0  0
  139.3080   68.6650  224.8900 C   0  0  0  0  0  0  0  0  0  0  0  0
  139.8980   69.1660  226.0390 C   0  0  0  0  0  0  0  0  0  0  0  0
  139.8690   68.3790  227.1830 C   0  0  0  0  0  0  0  0  0  0  0  0
  140.4530   68.8670  228.3370 C   0  0  0  0  0  0  0  0  0  0  0  0
  140.4080   68.0770  229.4360 F   0  0  0  0  0  0  0  0  0  0  0  0
  141.0520   70.1160  228.3350 C   0  0  0  0  0  0  0  0  0  0  0  0
  141.0720   70.8930  227.1730 C   0  0  0  0  0  0  0  0  0  0  0  0
  140.4860   70.4090  226.0100 C   0  0  0  0  0  0  0  0  0  0  0  0
  140.4840   71.1540  224.8310 C   0  0  0  0  0  0  0  0  0  0  0  0
  140.9630   80.1640  222.5500 C   0  0  0  0  0  0  0  0  0  0  0  0
  140.9600   81.2040  223.4860 C   0  0  0  0  0  0  0  0  0  0  0  0
  142.1010   81.5550  224.1780 C   0  0  0  0  0  0  0  0  0  0  0  0
  143.2880   80.8950  223.9750 C   0  0  0  0  0  0  0  0  0  0  0  0
  143.3170   79.8570  223.0490 C   0  0  0  0  0  0  0  0  0  0  0  0
  142.1720   79.5240  222.3720 C   0  0  0  0  0  0  0  0  0  0  0  0
  138.8991   79.9193  223.7720 H   0  0  0  0  0  0  0  0  0  0  0  0
  138.0989   80.9569  222.5433 H   0  0  0  0  0  0  0  0  0  0  0  0
  137.8151   79.1831  222.5433 H   0  0  0  0  0  0  0  0  0  0  0  0
  139.6603   80.4210  220.9087 H   0  0  0  0  0  0  0  0  0  0  0  0
  139.7560   77.6740  222.0940 H   0  0  0  0  0  0  0  0  0  0  0  0
  138.7409   76.3846  219.4434 H   0  0  0  0  0  0  0  0  0  0  0  0
  140.3032   75.6093  217.6628 H   0  0  0  0  0  0  0  0  0  0  0  0
  140.4218   77.3456  217.5122 H   0  0  0  0  0  0  0  0  0  0  0  0
  142.5987   75.8075  218.0115 H   0  0  0  0  0  0  0  0  0  0  0  0
  142.4629   77.4241  218.7456 H   0  0  0  0  0  0  0  0  0  0  0  0
  142.3890   74.7731  220.0429 H   0  0  0  0  0  0  0  0  0  0  0  0
  142.5635   76.3355  220.8152 H   0  0  0  0  0  0  0  0  0  0  0  0
  138.5918   73.4771  220.6769 H   0  0  0  0  0  0  0  0  0  0  0  0
  140.3169   73.0934  220.4241 H   0  0  0  0  0  0  0  0  0  0  0  0
  139.4070   73.3610  223.2480 H   0  0  0  0  0  0  0  0  0  0  0  0
  138.8508   69.0318  222.8147 H   0  0  0  0  0  0  0  0  0  0  0  0
  138.8341   67.6724  224.8963 H   0  0  0  0  0  0  0  0  0  0  0  0
  139.3914   67.3882  227.1710 H   0  0  0  0  0  0  0  0  0  0  0  0
  141.5159   70.4997  229.2556 H   0  0  0  0  0  0  0  0  0  0  0  0
  141.5499   71.8838  227.1795 H   0  0  0  0  0  0  0  0  0  0  0  0
  140.9573   72.1469  224.8248 H   0  0  0  0  0  0  0  0  0  0  0  0
  140.0265   81.7545  223.6745 H   0  0  0  0  0  0  0  0  0  0  0  0
  142.0590   82.3788  224.9058 H   0  0  0  0  0  0  0  0  0  0  0  0
  144.1935   81.1799  224.5308 H   0  0  0  0  0  0  0  0  0  0  0  0
  144.2514   79.3077  222.8614 H   0  0  0  0  0  0  0  0  0  0  0  0
  142.2203   78.6995  221.6455 H   0  0  0  0  0  0  0  0  0  0  0  0
  1  2  1  0
  2  3  1  0
  3  4  1  0
  4  5  2  0
  4  6  1  0
  6  7  1  0
  7  8  1  0
  8  9  1  0
  9 10  1  0
 10 11  1  0
 11 12  2  0
 11 13  1  0
 13 14  1  0
 14 15  1  0
 15 16  2  0
 15 17  1  0
 17 18  2  0
 18 19  1  0
 19 20  2  0
 20 21  1  0
 21 22  2  0
 22 23  1  0
 22 24  1  0
 24 25  2  0
 25 26  1  0
 26 27  2  0
  2 28  1  0
 28 29  2  0
 29 30  1  0
 30 31  2  0
 31 32  1  0
 32 33  2  0
 10  6  1  0
 27 17  1  0
 33 28  1  0
 26 20  1  0
  1 34  1  0
  1 35  1  0
  1 36  1  0
  2 37  1  6
  3 38  1  0
  6 39  1  6
  7 40  1  0
  7 41  1  0
  8 42  1  0
  8 43  1  0
  9 44  1  0
  9 45  1  0
 13 46  1  0
 13 47  1  0
 14 48  1  0
 18 49  1  0
 19 50  1  0
 21 51  1  0
 24 52  1  0
 25 53  1  0
 27 54  1  0
 29 55  1  0
 30 56  1  0
 31 57  1  0
 32 58  1  0
 33 59  1  0
M  END
>  <smiles>  (18) 
C[C@H](NC(=O)[C@H]1CCCN1C(=O)CNC(=O)c1ccc2cc(F)ccc2c1)c1ccccc1

>  <score_type>  (18) 
oracle

>  <origin>  (18) 
autodockgpu

>  <m_score__min__energy>  (18) 
-9.5099999999999998

>  <m_primary>  (18) 
energy

>  <rmsd>  (18) 
2.666017359884766

>  <m_score__min__rmsd>  (18) 
2.666017359884766

>  <meeko>  (18) 
{"free_energy": -8.87, "intermolecular_energy": -10.96, "internal_energy": -2.8, "cluster_size": 35, "cluster_id": 1, "rank_in_cluster": 14}

>  <energy>  (18) 
-8.83

>  <cluster_rmsd>  (18) 
1.87

>  <cluster>  (18) 
1

$$$$

     RDKit          3D

 59 62  0  0  0  0  0  0  0  0999 V2000
  137.8660   79.4940  223.1070 C   0  0  0  0  0  0  0  0  0  0  0  0
  138.9010   79.4170  222.0150 C   0  0  2  0  0  0  0  0  0  0  0  0
  138.8820   78.0910  221.4550 N   0  0  0  0  0  0  0  0  0  0  0  0
  139.8620   77.6290  220.5350 C   0  0  0  0  0  0  0  0  0  0  0  0
  140.7870   78.4110  220.1940 O   0  0  0  0  0  0  0  0  0  0  0  0
  139.8620   76.2690  219.9480 C   0  0  1  0  0  0  0  0  0  0  0  0
  141.2550   75.8680  219.4770 C   0  0  0  0  0  0  0  0  0  0  0  0
  141.8900   75.3740  220.7350 C   0  0  0  0  0  0  0  0  0  0  0  0
  140.7870   74.8200  221.6080 C   0  0  0  0  0  0  0  0  0  0  0  0
  139.5830   75.2240  220.9130 N   0  0  0  0  0  0  0  0  0  0  0  0
  138.2710   74.6790  221.1310 C   0  0  0  0  0  0  0  0  0  0  0  0
  137.2750   75.4180  221.3770 O   0  0  0  0  0  0  0  0  0  0  0  0
  138.0680   73.1980  221.0660 C   0  0  0  0  0  0  0  0  0  0  0  0
  138.4210   72.6410  222.3580 N   0  0  0  0  0  0  0  0  0  0  0  0
  139.4850   71.7340  222.4910 C   0  0  0  0  0  0  0  0  0  0  0  0
  140.1900   71.3550  221.4950 O   0  0  0  0  0  0  0  0  0  0  0  0
  139.8600   71.1590  223.7850 C   0  0  0  0  0  0  0  0  0  0  0  0
  140.7000   71.8810  224.6160 C   0  0  0  0  0  0  0  0  0  0  0  0
  141.0960   71.3920  225.8620 C   0  0  0  0  0  0  0  0  0  0  0  0
  140.6390   70.1520  226.2800 C   0  0  0  0  0  0  0  0  0  0  0  0
  141.0490   69.6920  227.5240 C   0  0  0  0  0  0  0  0  0  0  0  0
  140.6010   68.4570  227.9540 C   0  0  0  0  0  0  0  0  0  0  0  0
  141.0190   68.0350  229.1720 F   0  0  0  0  0  0  0  0  0  0  0  0
  139.7590   67.7070  227.1490 C   0  0  0  0  0  0  0  0  0  0  0  0
  139.3560   68.1880  225.9000 C   0  0  0  0  0  0  0  0  0  0  0  0
  139.8040   69.4290  225.4610 C   0  0  0  0  0  0  0  0  0  0  0  0
  139.4250   69.9430  224.2220 C   0  0  0  0  0  0  0  0  0  0  0  0
  140.2200   79.7620  222.6130 C   0  0  0  0  0  0  0  0  0  0  0  0
  140.7740   81.0390  222.4720 C   0  0  0  0  0  0  0  0  0  0  0  0
  141.9970   81.3590  223.0260 C   0  0  0  0  0  0  0  0  0  0  0  0
  142.7190   80.4340  223.7400 C   0  0  0  0  0  0  0  0  0  0  0  0
  142.1880   79.1570  223.8930 C   0  0  0  0  0  0  0  0  0  0  0  0
  140.9730   78.8600  223.3360 C   0  0  0  0  0  0  0  0  0  0  0  0
  138.3638   79.4570  224.0872 H   0  0  0  0  0  0  0  0  0  0  0  0
  137.3059   80.4363  223.0155 H   0  0  0  0  0  0  0  0  0  0  0  0
  137.1726   78.6450  223.0155 H   0  0  0  0  0  0  0  0  0  0  0  0
  138.6952   80.1241  221.1979 H   0  0  0  0  0  0  0  0  0  0  0  0
  138.1090   77.4550  221.7470 H   0  0  0  0  0  0  0  0  0  0  0  0
  139.1025   76.3384  219.1553 H   0  0  0  0  0  0  0  0  0  0  0  0
  141.2049   75.0733  218.7181 H   0  0  0  0  0  0  0  0  0  0  0  0
  141.8096   76.6883  218.9979 H   0  0  0  0  0  0  0  0  0  0  0  0
  142.6194   74.5839  220.5033 H   0  0  0  0  0  0  0  0  0  0  0  0
  142.4213   76.1886  221.2489 H   0  0  0  0  0  0  0  0  0  0  0  0
  140.8528   73.7243  221.6794 H   0  0  0  0  0  0  0  0  0  0  0  0
  140.8312   75.1861  222.6444 H   0  0  0  0  0  0  0  0  0  0  0  0
  137.0152   72.9750  220.8382 H   0  0  0  0  0  0  0  0  0  0  0  0
  138.6960   72.7601  220.2761 H   0  0  0  0  0  0  0  0  0  0  0  0
  137.8500   72.9480  223.1770 H   0  0  0  0  0  0  0  0  0  0  0  0
  141.0645   72.8649  224.2858 H   0  0  0  0  0  0  0  0  0  0  0  0
  141.7635   71.9843  226.5052 H   0  0  0  0  0  0  0  0  0  0  0  0
  141.7165   70.2977  228.1545 H   0  0  0  0  0  0  0  0  0  0  0  0
  139.4047   66.7250  227.4956 H   0  0  0  0  0  0  0  0  0  0  0  0
  138.6869   67.5870  225.2667 H   0  0  0  0  0  0  0  0  0  0  0  0
  138.7566   69.3513  223.5792 H   0  0  0  0  0  0  0  0  0  0  0  0
  140.2226   81.8050  221.9070 H   0  0  0  0  0  0  0  0  0  0  0  0
  142.4009   82.3735  222.8933 H   0  0  0  0  0  0  0  0  0  0  0  0
  143.6926   80.6962  224.1798 H   0  0  0  0  0  0  0  0  0  0  0  0
  142.7405   78.3914  224.4575 H   0  0  0  0  0  0  0  0  0  0  0  0
  140.5744   77.8439  223.4728 H   0  0  0  0  0  0  0  0  0  0  0  0
  1  2  1  0
  2  3  1  0
  3  4  1  0
  4  5  2  0
  4  6  1  0
  6  7  1  0
  7  8  1  0
  8  9  1  0
  9 10  1  0
 10 11  1  0
 11 12  2  0
 11 13  1  0
 13 14  1  0
 14 15  1  0
 15 16  2  0
 15 17  1  0
 17 18  2  0
 18 19  1  0
 19 20  2  0
 20 21  1  0
 21 22  2  0
 22 23  1  0
 22 24  1  0
 24 25  2  0
 25 26  1  0
 26 27  2  0
  2 28  1  0
 28 29  2  0
 29 30  1  0
 30 31  2  0
 31 32  1  0
 32 33  2  0
 10  6  1  0
 27 17  1  0
 33 28  1  0
 26 20  1  0
  1 34  1  0
  1 35  1  0
  1 36  1  0
  2 37  1  6
  3 38  1  0
  6 39  1  6
  7 40  1  0
  7 41  1  0
  8 42  1  0
  8 43  1  0
  9 44  1  0
  9 45  1  0
 13 46  1  0
 13 47  1  0
 14 48  1  0
 18 49  1  0
 19 50  1  0
 21 51  1  0
 24 52  1  0
 25 53  1  0
 27 54  1  0
 29 55  1  0
 30 56  1  0
 31 57  1  0
 32 58  1  0
 33 59  1  0
M  END
>  <smiles>  (19) 
C[C@H](NC(=O)[C@H]1CCCN1C(=O)CNC(=O)c1ccc2cc(F)ccc2c1)c1ccccc1

>  <score_type>  (19) 
oracle

>  <origin>  (19) 
autodockgpu

>  <m_score__min__energy>  (19) 
-9.5099999999999998

>  <m_primary>  (19) 
energy

>  <rmsd>  (19) 
3.4826695383320847

>  <m_score__min__rmsd>  (19) 
3.4826695383320847

>  <meeko>  (19) 
{"free_energy": -8.52, "intermolecular_energy": -10.61, "internal_energy": -2.61, "cluster_size": 35, "cluster_id": 1, "rank_in_cluster": 28}

>  <energy>  (19) 
-8.81

>  <cluster_rmsd>  (19) 
1.71

>  <cluster>  (19) 
1

$$$$

     RDKit          3D

 59 62  0  0  0  0  0  0  0  0999 V2000
  141.4280   78.9290  219.7560 C   0  0  0  0  0  0  0  0  0  0  0  0
  141.8850   78.3710  221.0790 C   0  0  2  0  0  0  0  0  0  0  0  0
  140.9490   77.3620  221.5010 N   0  0  0  0  0  0  0  0  0  0  0  0
  139.6250   77.6660  221.9190 C   0  0  0  0  0  0  0  0  0  0  0  0
  139.2520   78.8680  221.9190 O   0  0  0  0  0  0  0  0  0  0  0  0
  138.6460   76.6440  222.3570 C   0  0  1  0  0  0  0  0  0  0  0  0
  137.2150   77.1510  222.2160 C   0  0  0  0  0  0  0  0  0  0  0  0
  136.9190   76.8830  220.7770 C   0  0  0  0  0  0  0  0  0  0  0  0
  137.7410   75.6830  220.3650 C   0  0  0  0  0  0  0  0  0  0  0  0
  138.6120   75.4750  221.5020 N   0  0  0  0  0  0  0  0  0  0  0  0
  139.3580   74.2760  221.7730 C   0  0  0  0  0  0  0  0  0  0  0  0
  140.6020   74.3020  222.0010 O   0  0  0  0  0  0  0  0  0  0  0  0
  138.6530   72.9560  221.7880 C   0  0  0  0  0  0  0  0  0  0  0  0
  139.2270   72.1550  222.8530 N   0  0  0  0  0  0  0  0  0  0  0  0
  138.4900   71.1310  223.4680 C   0  0  0  0  0  0  0  0  0  0  0  0
  137.2900   70.8530  223.1300 O   0  0  0  0  0  0  0  0  0  0  0  0
  139.0480   70.3100  224.5450 C   0  0  0  0  0  0  0  0  0  0  0  0
  138.8790   68.9360  224.4920 C   0  0  0  0  0  0  0  0  0  0  0  0
  139.3860   68.0960  225.4840 C   0  0  0  0  0  0  0  0  0  0  0  0
  140.0770   68.6470  226.5510 C   0  0  0  0  0  0  0  0  0  0  0  0
  140.5700   67.7860  227.5230 C   0  0  0  0  0  0  0  0  0  0  0  0
  141.2610   68.3220  228.5930 C   0  0  0  0  0  0  0  0  0  0  0  0
  141.7300   67.4560  229.5240 F   0  0  0  0  0  0  0  0  0  0  0  0
  141.4510   69.6910  228.6790 C   0  0  0  0  0  0  0  0  0  0  0  0
  140.9480   70.5420  227.6900 C   0  0  0  0  0  0  0  0  0  0  0  0
  140.2510   70.0100  226.6120 C   0  0  0  0  0  0  0  0  0  0  0  0
  139.7330   70.8250  225.6060 C   0  0  0  0  0  0  0  0  0  0  0  0
  141.9750   79.5020  222.0430 C   0  0  0  0  0  0  0  0  0  0  0  0
  142.5170   79.3310  223.3210 C   0  0  0  0  0  0  0  0  0  0  0  0
  142.6000   80.3790  224.2150 C   0  0  0  0  0  0  0  0  0  0  0  0
  142.1530   81.6340  223.8840 C   0  0  0  0  0  0  0  0  0  0  0  0
  141.6090   81.8290  222.6190 C   0  0  0  0  0  0  0  0  0  0  0  0
  141.5360   80.7760  221.7450 C   0  0  0  0  0  0  0  0  0  0  0  0
  140.7398   79.7692  219.9305 H   0  0  0  0  0  0  0  0  0  0  0  0
  142.3001   79.2816  219.1859 H   0  0  0  0  0  0  0  0  0  0  0  0
  140.9104   78.1435  219.1859 H   0  0  0  0  0  0  0  0  0  0  0  0
  142.8745   77.8956  221.0096 H   0  0  0  0  0  0  0  0  0  0  0  0
  141.2720   76.3720  221.4960 H   0  0  0  0  0  0  0  0  0  0  0  0
  138.9627   76.4174  223.3858 H   0  0  0  0  0  0  0  0  0  0  0  0
  136.5297   76.5956  222.8732 H   0  0  0  0  0  0  0  0  0  0  0  0
  137.0932   78.2067  222.5001 H   0  0  0  0  0  0  0  0  0  0  0  0
  135.8480   76.6684  220.6466 H   0  0  0  0  0  0  0  0  0  0  0  0
  137.1693   77.7575  220.1584 H   0  0  0  0  0  0  0  0  0  0  0  0
  137.1001   74.8057  220.1930 H   0  0  0  0  0  0  0  0  0  0  0  0
  138.2887   75.8370  219.4235 H   0  0  0  0  0  0  0  0  0  0  0  0
  137.5792   73.1080  221.9721 H   0  0  0  0  0  0  0  0  0  0  0  0
  138.7719   72.4475  220.8199 H   0  0  0  0  0  0  0  0  0  0  0  0
  140.2080   72.3760  223.1340 H   0  0  0  0  0  0  0  0  0  0  0  0
  138.3309   68.4959  223.6459 H   0  0  0  0  0  0  0  0  0  0  0  0
  139.2387   67.0078  225.4196 H   0  0  0  0  0  0  0  0  0  0  0  0
  140.4137   66.7001  227.4427 H   0  0  0  0  0  0  0  0  0  0  0  0
  142.0022   70.1126  229.5325 H   0  0  0  0  0  0  0  0  0  0  0  0
  141.1035   71.6284  227.7651 H   0  0  0  0  0  0  0  0  0  0  0  0
  139.8809   71.9131  225.6699 H   0  0  0  0  0  0  0  0  0  0  0  0
  142.8854   78.3387  223.6203 H   0  0  0  0  0  0  0  0  0  0  0  0
  143.0324   80.2055  225.2114 H   0  0  0  0  0  0  0  0  0  0  0  0
  142.2233   82.4648  224.6015 H   0  0  0  0  0  0  0  0  0  0  0  0
  141.2398   82.8217  222.3220 H   0  0  0  0  0  0  0  0  0  0  0  0
  141.1031   80.9564  220.7500 H   0  0  0  0  0  0  0  0  0  0  0  0
  1  2  1  0
  2  3  1  0
  3  4  1  0
  4  5  2  0
  4  6  1  0
  6  7  1  0
  7  8  1  0
  8  9  1  0
  9 10  1  0
 10 11  1  0
 11 12  2  0
 11 13  1  0
 13 14  1  0
 14 15  1  0
 15 16  2  0
 15 17  1  0
 17 18  2  0
 18 19  1  0
 19 20  2  0
 20 21  1  0
 21 22  2  0
 22 23  1  0
 22 24  1  0
 24 25  2  0
 25 26  1  0
 26 27  2  0
  2 28  1  0
 28 29  2  0
 29 30  1  0
 30 31  2  0
 31 32  1  0
 32 33  2  0
 10  6  1  0
 27 17  1  0
 33 28  1  0
 26 20  1  0
  1 34  1  0
  1 35  1  0
  1 36  1  0
  2 37  1  6
  3 38  1  0
  6 39  1  1
  7 40  1  0
  7 41  1  0
  8 42  1  0
  8 43  1  0
  9 44  1  0
  9 45  1  0
 13 46  1  0
 13 47  1  0
 14 48  1  0
 18 49  1  0
 19 50  1  0
 21 51  1  0
 24 52  1  0
 25 53  1  0
 27 54  1  0
 29 55  1  0
 30 56  1  0
 31 57  1  0
 32 58  1  0
 33 59  1  0
M  END
>  <smiles>  (20) 
C[C@H](NC(=O)[C@H]1CCCN1C(=O)CNC(=O)c1ccc2cc(F)ccc2c1)c1ccccc1

>  <score_type>  (20) 
oracle

>  <origin>  (20) 
autodockgpu

>  <m_score__min__energy>  (20) 
-9.5099999999999998

>  <m_primary>  (20) 
energy

>  <rmsd>  (20) 
3.001758711369065

>  <m_score__min__rmsd>  (20) 
3.001758711369065

>  <meeko>  (20) 
{"free_energy": -8.98, "intermolecular_energy": -11.06, "internal_energy": -2.72, "cluster_size": 35, "cluster_id": 1, "rank_in_cluster": 10}

>  <energy>  (20) 
-8.8

>  <cluster_rmsd>  (20) 
1.92

>  <cluster>  (20) 
1

$$$$

     RDKit          3D

 59 62  0  0  0  0  0  0  0  0999 V2000
  142.3650   79.4890  223.1530 C   0  0  0  0  0  0  0  0  0  0  0  0
  141.3200   78.4160  222.9930 C   0  0  2  0  0  0  0  0  0  0  0  0
  141.4850   77.8010  221.7010 N   0  0  0  0  0  0  0  0  0  0  0  0
  141.0630   76.4730  221.4210 C   0  0  0  0  0  0  0  0  0  0  0  0
  140.5210   75.8040  222.3390 O   0  0  0  0  0  0  0  0  0  0  0  0
  141.2230   75.8210  220.1000 C   0  0  1  0  0  0  0  0  0  0  0  0
  142.4470   76.3510  219.3640 C   0  0  0  0  0  0  0  0  0  0  0  0
  143.5530   75.5360  219.9510 C   0  0  0  0  0  0  0  0  0  0  0  0
  142.9640   74.2040  220.3560 C   0  0  0  0  0  0  0  0  0  0  0  0
  141.5410   74.4090  220.1900 N   0  0  0  0  0  0  0  0  0  0  0  0
  140.5510   73.3700  220.1200 C   0  0  0  0  0  0  0  0  0  0  0  0
  140.7140   72.3430  219.4010 O   0  0  0  0  0  0  0  0  0  0  0  0
  139.2900   73.4960  220.9160 C   0  0  0  0  0  0  0  0  0  0  0  0
  139.5520   72.9940  222.2510 N   0  0  0  0  0  0  0  0  0  0  0  0
  139.7210   71.6210  222.4900 C   0  0  0  0  0  0  0  0  0  0  0  0
  139.6550   70.7500  221.5560 O   0  0  0  0  0  0  0  0  0  0  0  0
  139.9860   71.0900  223.8290 C   0  0  0  0  0  0  0  0  0  0  0  0
  140.6940   71.8710  224.7270 C   0  0  0  0  0  0  0  0  0  0  0  0
  140.9800   71.4270  226.0180 C   0  0  0  0  0  0  0  0  0  0  0  0
  140.5470   70.1720  226.4150 C   0  0  0  0  0  0  0  0  0  0  0  0
  140.8460   69.7570  227.7070 C   0  0  0  0  0  0  0  0  0  0  0  0
  140.4200   68.5080  228.1160 C   0  0  0  0  0  0  0  0  0  0  0  0
  140.7270   68.1320  229.3810 F   0  0  0  0  0  0  0  0  0  0  0  0
  139.7090   67.6990  227.2450 C   0  0  0  0  0  0  0  0  0  0  0  0
  139.4160   68.1350  225.9490 C   0  0  0  0  0  0  0  0  0  0  0  0
  139.8420   69.3900  225.5310 C   0  0  0  0  0  0  0  0  0  0  0  0
  139.5710   69.8600  224.2460 C   0  0  0  0  0  0  0  0  0  0  0  0
  139.9840   79.0540  223.1510 C   0  0  0  0  0  0  0  0  0  0  0  0
  138.8200   78.4370  222.6810 C   0  0  0  0  0  0  0  0  0  0  0  0
  137.5810   79.0290  222.8270 C   0  0  0  0  0  0  0  0  0  0  0  0
  137.4430   80.2490  223.4410 C   0  0  0  0  0  0  0  0  0  0  0  0
  138.5870   80.8820  223.9160 C   0  0  0  0  0  0  0  0  0  0  0  0
  139.8070   80.2780  223.7620 C   0  0  0  0  0  0  0  0  0  0  0  0
  142.5425   79.6713  224.2232 H   0  0  0  0  0  0  0  0  0  0  0  0
  143.3012   79.1630  222.6763 H   0  0  0  0  0  0  0  0  0  0  0  0
  142.0144   80.4163  222.6763 H   0  0  0  0  0  0  0  0  0  0  0  0
  141.4186   77.6253  223.7513 H   0  0  0  0  0  0  0  0  0  0  0  0
  141.9350   78.3670  220.9520 H   0  0  0  0  0  0  0  0  0  0  0  0
  140.2603   76.0165  219.6050 H   0  0  0  0  0  0  0  0  0  0  0  0
  142.3624   76.1846  218.2800 H   0  0  0  0  0  0  0  0  0  0  0  0
  142.5925   77.4354  219.4776 H   0  0  0  0  0  0  0  0  0  0  0  0
  144.3466   75.3852  219.2044 H   0  0  0  0  0  0  0  0  0  0  0  0
  143.9944   76.0468  220.8195 H   0  0  0  0  0  0  0  0  0  0  0  0
  143.3255   73.3972  219.7015 H   0  0  0  0  0  0  0  0  0  0  0  0
  143.2407   73.9019  221.3769 H   0  0  0  0  0  0  0  0  0  0  0  0
  138.9845   74.5515  220.9671 H   0  0  0  0  0  0  0  0  0  0  0  0
  138.4801   72.9211  220.4432 H   0  0  0  0  0  0  0  0  0  0  0  0
  139.6090   73.7000  223.0190 H   0  0  0  0  0  0  0  0  0  0  0  0
  141.0398   72.8673  224.4141 H   0  0  0  0  0  0  0  0  0  0  0  0
  141.5433   72.0664  226.7136 H   0  0  0  0  0  0  0  0  0  0  0  0
  141.4101   70.4093  228.3899 H   0  0  0  0  0  0  0  0  0  0  0  0
  139.3721   66.7054  227.5755 H   0  0  0  0  0  0  0  0  0  0  0  0
  138.8505   67.4871  225.2631 H   0  0  0  0  0  0  0  0  0  0  0  0
  139.0073   69.2211  223.5503 H   0  0  0  0  0  0  0  0  0  0  0  0
  138.8932   77.4584  222.1840 H   0  0  0  0  0  0  0  0  0  0  0  0
  136.6879   78.5133  222.4441 H   0  0  0  0  0  0  0  0  0  0  0  0
  136.4527   80.7143  223.5545 H   0  0  0  0  0  0  0  0  0  0  0  0
  138.5126   81.8610  224.4120 H   0  0  0  0  0  0  0  0  0  0  0  0
  140.6960   80.7987  224.1475 H   0  0  0  0  0  0  0  0  0  0  0  0
  1  2  1  0
  2  3  1  0
  3  4  1  0
  4  5  2  0
  4  6  1  0
  6  7  1  0
  7  8  1  0
  8  9  1  0
  9 10  1  0
 10 11  1  0
 11 12  2  0
 11 13  1  0
 13 14  1  0
 14 15  1  0
 15 16  2  0
 15 17  1  0
 17 18  2  0
 18 19  1  0
 19 20  2  0
 20 21  1  0
 21 22  2  0
 22 23  1  0
 22 24  1  0
 24 25  2  0
 25 26  1  0
 26 27  2  0
  2 28  1  0
 28 29  2  0
 29 30  1  0
 30 31  2  0
 31 32  1  0
 32 33  2  0
 10  6  1  0
 27 17  1  0
 33 28  1  0
 26 20  1  0
  1 34  1  0
  1 35  1  0
  1 36  1  0
  2 37  1  1
  3 38  1  0
  6 39  1  6
  7 40  1  0
  7 41  1  0
  8 42  1  0
  8 43  1  0
  9 44  1  0
  9 45  1  0
 13 46  1  0
 13 47  1  0
 14 48  1  0
 18 49  1  0
 19 50  1  0
 21 51  1  0
 24 52  1  0
 25 53  1  0
 27 54  1  0
 29 55  1  0
 30 56  1  0
 31 57  1  0
 32 58  1  0
 33 59  1  0
M  END
>  <smiles>  (21) 
C[C@H](NC(=O)[C@H]1CCCN1C(=O)CNC(=O)c1ccc2cc(F)ccc2c1)c1ccccc1

>  <score_type>  (21) 
oracle

>  <origin>  (21) 
autodockgpu

>  <m_score__min__energy>  (21) 
-9.5099999999999998

>  <m_primary>  (21) 
energy

>  <rmsd>  (21) 
3.0625476010438595

>  <m_score__min__rmsd>  (21) 
3.0625476010438595

>  <meeko>  (21) 
{"free_energy": -9.1, "intermolecular_energy": -11.18, "internal_energy": -2.14, "cluster_size": 35, "cluster_id": 1, "rank_in_cluster": 6}

>  <energy>  (21) 
-8.8

>  <cluster_rmsd>  (21) 
1.9

>  <cluster>  (21) 
1

$$$$

     RDKit          3D

 59 62  0  0  0  0  0  0  0  0999 V2000
  138.5290   79.7810  223.4700 C   0  0  0  0  0  0  0  0  0  0  0  0
  139.5230   79.7300  222.3390 C   0  0  2  0  0  0  0  0  0  0  0  0
  139.5300   78.3980  221.7910 N   0  0  0  0  0  0  0  0  0  0  0  0
  140.0300   78.1000  220.4950 C   0  0  0  0  0  0  0  0  0  0  0  0
  140.4880   79.0390  219.7930 O   0  0  0  0  0  0  0  0  0  0  0  0
  140.0470   76.7380  219.9130 C   0  0  1  0  0  0  0  0  0  0  0  0
  141.1780   76.5810  218.9030 C   0  0  0  0  0  0  0  0  0  0  0  0
  142.3490   76.2710  219.7770 C   0  0  0  0  0  0  0  0  0  0  0  0
  141.8200   75.5640  221.0040 C   0  0  0  0  0  0  0  0  0  0  0  0
  140.3850   75.7060  220.8730 N   0  0  0  0  0  0  0  0  0  0  0  0
  139.4020   74.9380  221.5870 C   0  0  0  0  0  0  0  0  0  0  0  0
  138.6650   75.4590  222.4730 O   0  0  0  0  0  0  0  0  0  0  0  0
  139.2390   73.4820  221.2820 C   0  0  0  0  0  0  0  0  0  0  0  0
  139.4000   72.7450  222.5210 N   0  0  0  0  0  0  0  0  0  0  0  0
  139.4800   71.3440  222.5270 C   0  0  0  0  0  0  0  0  0  0  0  0
  139.4150   70.6500  221.4550 O   0  0  0  0  0  0  0  0  0  0  0  0
  139.6420   70.5780  223.7650 C   0  0  0  0  0  0  0  0  0  0  0  0
  139.1990   69.2670  223.8010 C   0  0  0  0  0  0  0  0  0  0  0  0
  139.3240   68.4820  224.9480 C   0  0  0  0  0  0  0  0  0  0  0  0
  139.9060   69.0260  226.0820 C   0  0  0  0  0  0  0  0  0  0  0  0
  140.0170   68.2210  227.2080 C   0  0  0  0  0  0  0  0  0  0  0  0
  140.5950   68.7510  228.3460 C   0  0  0  0  0  0  0  0  0  0  0  0
  140.6890   67.9410  229.4280 F   0  0  0  0  0  0  0  0  0  0  0  0
  141.0510   70.0590  228.3470 C   0  0  0  0  0  0  0  0  0  0  0  0
  140.9310   70.8540  227.2030 C   0  0  0  0  0  0  0  0  0  0  0  0
  140.3500   70.3270  226.0550 C   0  0  0  0  0  0  0  0  0  0  0  0
  140.2110   71.0880  224.8950 C   0  0  0  0  0  0  0  0  0  0  0  0
  140.8510   80.1270  222.8810 C   0  0  0  0  0  0  0  0  0  0  0  0
  142.0090   79.4020  222.5810 C   0  0  0  0  0  0  0  0  0  0  0  0
  143.2410   79.7690  223.0840 C   0  0  0  0  0  0  0  0  0  0  0  0
  143.3780   80.8650  223.9000 C   0  0  0  0  0  0  0  0  0  0  0  0
  142.2400   81.6020  224.2140 C   0  0  0  0  0  0  0  0  0  0  0  0
  141.0270   81.2210  223.7040 C   0  0  0  0  0  0  0  0  0  0  0  0
  139.0646   79.7535  224.4304 H   0  0  0  0  0  0  0  0  0  0  0  0
  137.9443   80.7103  223.4027 H   0  0  0  0  0  0  0  0  0  0  0  0
  137.8523   78.9164  223.4027 H   0  0  0  0  0  0  0  0  0  0  0  0
  139.2599   80.4217  221.5252 H   0  0  0  0  0  0  0  0  0  0  0  0
  139.1460   77.6310  222.3840 H   0  0  0  0  0  0  0  0  0  0  0  0
  139.0334   76.6281  219.4999 H   0  0  0  0  0  0  0  0  0  0  0  0
  140.9748   75.7570  218.2031 H   0  0  0  0  0  0  0  0  0  0  0  0
  141.3261   77.4671  218.2683 H   0  0  0  0  0  0  0  0  0  0  0  0
  143.0556   75.6191  219.2423 H   0  0  0  0  0  0  0  0  0  0  0  0
  142.8802   77.1925  220.0574 H   0  0  0  0  0  0  0  0  0  0  0  0
  142.1132   74.5038  221.0058 H   0  0  0  0  0  0  0  0  0  0  0  0
  142.2112   75.9797  221.9443 H   0  0  0  0  0  0  0  0  0  0  0  0
  138.2380   73.2975  220.8650 H   0  0  0  0  0  0  0  0  0  0  0  0
  139.9887   73.1592  220.5446 H   0  0  0  0  0  0  0  0  0  0  0  0
  139.4540   73.3060  223.4010 H   0  0  0  0  0  0  0  0  0  0  0  0
  138.7365   68.8328  222.9023 H   0  0  0  0  0  0  0  0  0  0  0  0
  138.9644   67.4425  224.9520 H   0  0  0  0  0  0  0  0  0  0  0  0
  139.6525   67.1832  227.1945 H   0  0  0  0  0  0  0  0  0  0  0  0
  141.5112   70.4756  229.2551 H   0  0  0  0  0  0  0  0  0  0  0  0
  141.2948   71.8921  227.2112 H   0  0  0  0  0  0  0  0  0  0  0  0
  140.5699   72.1278  224.8910 H   0  0  0  0  0  0  0  0  0  0  0  0
  141.9362   78.5189  221.9291 H   0  0  0  0  0  0  0  0  0  0  0  0
  144.1289   79.1729  222.8266 H   0  0  0  0  0  0  0  0  0  0  0  0
  144.3630   81.1533  224.2957 H   0  0  0  0  0  0  0  0  0  0  0  0
  142.3140   82.4841  224.8670 H   0  0  0  0  0  0  0  0  0  0  0  0
  140.1429   81.8211  223.9652 H   0  0  0  0  0  0  0  0  0  0  0  0
  1  2  1  0
  2  3  1  0
  3  4  1  0
  4  5  2  0
  4  6  1  0
  6  7  1  0
  7  8  1  0
  8  9  1  0
  9 10  1  0
 10 11  1  0
 11 12  2  0
 11 13  1  0
 13 14  1  0
 14 15  1  0
 15 16  2  0
 15 17  1  0
 17 18  2  0
 18 19  1  0
 19 20  2  0
 20 21  1  0
 21 22  2  0
 22 23  1  0
 22 24  1  0
 24 25  2  0
 25 26  1  0
 26 27  2  0
  2 28  1  0
 28 29  2  0
 29 30  1  0
 30 31  2  0
 31 32  1  0
 32 33  2  0
 10  6  1  0
 27 17  1  0
 33 28  1  0
 26 20  1  0
  1 34  1  0
  1 35  1  0
  1 36  1  0
  2 37  1  6
  3 38  1  0
  6 39  1  6
  7 40  1  0
  7 41  1  0
  8 42  1  0
  8 43  1  0
  9 44  1  0
  9 45  1  0
 13 46  1  0
 13 47  1  0
 14 48  1  0
 18 49  1  0
 19 50  1  0
 21 51  1  0
 24 52  1  0
 25 53  1  0
 27 54  1  0
 29 55  1  0
 30 56  1  0
 31 57  1  0
 32 58  1  0
 33 59  1  0
M  END
>  <smiles>  (22) 
C[C@H](NC(=O)[C@H]1CCCN1C(=O)CNC(=O)c1ccc2cc(F)ccc2c1)c1ccccc1

>  <score_type>  (22) 
oracle

>  <origin>  (22) 
autodockgpu

>  <m_score__min__energy>  (22) 
-9.5099999999999998

>  <m_primary>  (22) 
energy

>  <rmsd>  (22) 
2.9078314452650535

>  <m_score__min__rmsd>  (22) 
2.9078314452650535

>  <meeko>  (22) 
{"free_energy": -8.94, "intermolecular_energy": -11.03, "internal_energy": -2.61, "cluster_size": 35, "cluster_id": 1, "rank_in_cluster": 12}

>  <energy>  (22) 
-8.8

>  <cluster_rmsd>  (22) 
1.82

>  <cluster>  (22) 
1

$$$$

     RDKit          3D

 59 62  0  0  0  0  0  0  0  0999 V2000
  138.5800   79.8310  223.4250 C   0  0  0  0  0  0  0  0  0  0  0  0
  139.5460   79.8200  222.2690 C   0  0  2  0  0  0  0  0  0  0  0  0
  139.5370   78.5100  221.6720 N   0  0  0  0  0  0  0  0  0  0  0  0
  139.9450   78.2700  220.3330 C   0  0  0  0  0  0  0  0  0  0  0  0
  140.3320   79.2430  219.6350 O   0  0  0  0  0  0  0  0  0  0  0  0
  139.9440   76.9310  219.6990 C   0  0  1  0  0  0  0  0  0  0  0  0
  140.8350   76.9010  218.4630 C   0  0  0  0  0  0  0  0  0  0  0  0
  142.1900   76.6740  219.0480 C   0  0  0  0  0  0  0  0  0  0  0  0
  142.0020   75.8900  220.3260 C   0  0  0  0  0  0  0  0  0  0  0  0
  140.5670   75.9070  220.5160 N   0  0  0  0  0  0  0  0  0  0  0  0
  139.8300   75.0360  221.3900 C   0  0  0  0  0  0  0  0  0  0  0  0
  139.2380   75.4720  222.4190 O   0  0  0  0  0  0  0  0  0  0  0  0
  139.7550   73.5740  221.0840 C   0  0  0  0  0  0  0  0  0  0  0  0
  139.7270   72.8540  222.3420 N   0  0  0  0  0  0  0  0  0  0  0  0
  140.0210   71.4830  222.4010 C   0  0  0  0  0  0  0  0  0  0  0  0
  140.3250   70.8030  221.3630 O   0  0  0  0  0  0  0  0  0  0  0  0
  139.9980   70.7350  223.6600 C   0  0  0  0  0  0  0  0  0  0  0  0
  139.3760   69.4980  223.6900 C   0  0  0  0  0  0  0  0  0  0  0  0
  139.3200   68.7340  224.8560 C   0  0  0  0  0  0  0  0  0  0  0  0
  139.8990   69.2230  226.0160 C   0  0  0  0  0  0  0  0  0  0  0  0
  139.8270   68.4400  227.1610 C   0  0  0  0  0  0  0  0  0  0  0  0
  140.4010   68.9150  228.3260 C   0  0  0  0  0  0  0  0  0  0  0  0
  140.3140   68.1290  229.4250 F   0  0  0  0  0  0  0  0  0  0  0  0
  141.0320   70.1480  228.3330 C   0  0  0  0  0  0  0  0  0  0  0  0
  141.0950   70.9220  227.1700 C   0  0  0  0  0  0  0  0  0  0  0  0
  140.5190   70.4500  225.9960 C   0  0  0  0  0  0  0  0  0  0  0  0
  140.5600   71.1920  224.8160 C   0  0  0  0  0  0  0  0  0  0  0  0
  140.8880   80.1950  222.7940 C   0  0  0  0  0  0  0  0  0  0  0  0
  142.0370   79.4820  222.4370 C   0  0  0  0  0  0  0  0  0  0  0  0
  143.2810   79.8290  222.9240 C   0  0  0  0  0  0  0  0  0  0  0  0
  143.4390   80.8910  223.7800 C   0  0  0  0  0  0  0  0  0  0  0  0
  142.3110   81.6150  224.1510 C   0  0  0  0  0  0  0  0  0  0  0  0
  141.0850   81.2540  223.6560 C   0  0  0  0  0  0  0  0  0  0  0  0
  139.1406   79.8246  224.3714 H   0  0  0  0  0  0  0  0  0  0  0  0
  137.9572   80.7363  223.3738 H   0  0  0  0  0  0  0  0  0  0  0  0
  137.9368   78.9401  223.3738 H   0  0  0  0  0  0  0  0  0  0  0  0
  139.2648   80.5412  221.4875 H   0  0  0  0  0  0  0  0  0  0  0  0
  139.2130   77.7140  222.2620 H   0  0  0  0  0  0  0  0  0  0  0  0
  138.8768   76.7436  219.5096 H   0  0  0  0  0  0  0  0  0  0  0  0
  140.5508   76.0805  217.7877 H   0  0  0  0  0  0  0  0  0  0  0  0
  140.7681   77.8129  217.8515 H   0  0  0  0  0  0  0  0  0  0  0  0
  142.8130   76.1027  218.3441 H   0  0  0  0  0  0  0  0  0  0  0  0
  142.6929   77.6315  219.2489 H   0  0  0  0  0  0  0  0  0  0  0  0
  142.3731   74.8604  220.2154 H   0  0  0  0  0  0  0  0  0  0  0  0
  142.5551   76.3135  221.1774 H   0  0  0  0  0  0  0  0  0  0  0  0
  138.8413   73.3590  220.5104 H   0  0  0  0  0  0  0  0  0  0  0  0
  140.6241   73.2638  220.4853 H   0  0  0  0  0  0  0  0  0  0  0  0
  139.4800   73.4040  223.1950 H   0  0  0  0  0  0  0  0  0  0  0  0
  138.9143   69.1079  222.7710 H   0  0  0  0  0  0  0  0  0  0  0  0
  138.8213   67.7535  224.8545 H   0  0  0  0  0  0  0  0  0  0  0  0
  139.3237   67.4621  227.1415 H   0  0  0  0  0  0  0  0  0  0  0  0
  141.4877   70.5218  229.2618 H   0  0  0  0  0  0  0  0  0  0  0  0
  141.5981   71.9001  227.1840 H   0  0  0  0  0  0  0  0  0  0  0  0
  141.0590   72.1723  224.8174 H   0  0  0  0  0  0  0  0  0  0  0  0
  141.9473   78.6254  221.7527 H   0  0  0  0  0  0  0  0  0  0  0  0
  144.1619   79.2441  222.6209 H   0  0  0  0  0  0  0  0  0  0  0  0
  144.4337   81.1626  224.1630 H   0  0  0  0  0  0  0  0  0  0  0  0
  142.4021   82.4706  224.8363 H   0  0  0  0  0  0  0  0  0  0  0  0
  140.2079   81.8423  223.9636 H   0  0  0  0  0  0  0  0  0  0  0  0
  1  2  1  0
  2  3  1  0
  3  4  1  0
  4  5  2  0
  4  6  1  0
  6  7  1  0
  7  8  1  0
  8  9  1  0
  9 10  1  0
 10 11  1  0
 11 12  2  0
 11 13  1  0
 13 14  1  0
 14 15  1  0
 15 16  2  0
 15 17  1  0
 17 18  2  0
 18 19  1  0
 19 20  2  0
 20 21  1  0
 21 22  2  0
 22 23  1  0
 22 24  1  0
 24 25  2  0
 25 26  1  0
 26 27  2  0
  2 28  1  0
 28 29  2  0
 29 30  1  0
 30 31  2  0
 31 32  1  0
 32 33  2  0
 10  6  1  0
 27 17  1  0
 33 28  1  0
 26 20  1  0
  1 34  1  0
  1 35  1  0
  1 36  1  0
  2 37  1  6
  3 38  1  0
  6 39  1  6
  7 40  1  0
  7 41  1  0
  8 42  1  0
  8 43  1  0
  9 44  1  0
  9 45  1  0
 13 46  1  0
 13 47  1  0
 14 48  1  0
 18 49  1  0
 19 50  1  0
 21 51  1  0
 24 52  1  0
 25 53  1  0
 27 54  1  0
 29 55  1  0
 30 56  1  0
 31 57  1  0
 32 58  1  0
 33 59  1  0
M  END
>  <smiles>  (23) 
C[C@H](NC(=O)[C@H]1CCCN1C(=O)CNC(=O)c1ccc2cc(F)ccc2c1)c1ccccc1

>  <score_type>  (23) 
oracle

>  <origin>  (23) 
autodockgpu

>  <m_score__min__energy>  (23) 
-9.5099999999999998

>  <m_primary>  (23) 
energy

>  <rmsd>  (23) 
2.8732172730675583

>  <m_score__min__rmsd>  (23) 
2.8732172730675583

>  <meeko>  (23) 
{"free_energy": -9.02, "intermolecular_energy": -11.1, "internal_energy": -2.85, "cluster_size": 35, "cluster_id": 1, "rank_in_cluster": 9}

>  <energy>  (23) 
-8.75

>  <cluster_rmsd>  (23) 
1.07

>  <cluster>  (23) 
1

$$$$

     RDKit          3D

 59 62  0  0  0  0  0  0  0  0999 V2000
  141.3840   77.7080  220.5120 C   0  0  0  0  0  0  0  0  0  0  0  0
  141.0570   77.6000  221.9780 C   0  0  2  0  0  0  0  0  0  0  0  0
  139.6550   77.3040  222.1180 N   0  0  0  0  0  0  0  0  0  0  0  0
  139.1600   75.9840  222.2980 C   0  0  0  0  0  0  0  0  0  0  0  0
  139.9810   75.0300  222.3370 O   0  0  0  0  0  0  0  0  0  0  0  0
  137.7230   75.6570  222.4440 C   0  0  1  0  0  0  0  0  0  0  0  0
  136.9050   76.8950  222.7920 C   0  0  0  0  0  0  0  0  0  0  0  0
  136.6740   77.5150  221.4540 C   0  0  0  0  0  0  0  0  0  0  0  0
  136.6580   76.3970  220.4370 C   0  0  0  0  0  0  0  0  0  0  0  0
  137.0960   75.2490  221.2020 N   0  0  0  0  0  0  0  0  0  0  0  0
  136.9420   73.8750  220.8080 C   0  0  0  0  0  0  0  0  0  0  0  0
  135.8030   73.3640  220.6090 O   0  0  0  0  0  0  0  0  0  0  0  0
  138.1560   73.0190  220.6260 C   0  0  0  0  0  0  0  0  0  0  0  0
  138.6350   72.6380  221.9410 N   0  0  0  0  0  0  0  0  0  0  0  0
  139.1040   71.3390  222.1940 C   0  0  0  0  0  0  0  0  0  0  0  0
  139.1340   70.4340  221.2920 O   0  0  0  0  0  0  0  0  0  0  0  0
  139.5930   70.9320  223.5130 C   0  0  0  0  0  0  0  0  0  0  0  0
  140.3750   71.8160  224.2370 C   0  0  0  0  0  0  0  0  0  0  0  0
  140.8720   71.4920  225.5000 C   0  0  0  0  0  0  0  0  0  0  0  0
  140.5780   70.2520  226.0460 C   0  0  0  0  0  0  0  0  0  0  0  0
  141.0860   69.9580  227.3050 C   0  0  0  0  0  0  0  0  0  0  0  0
  140.8010   68.7250  227.8620 C   0  0  0  0  0  0  0  0  0  0  0  0
  141.3110   68.4670  229.0900 F   0  0  0  0  0  0  0  0  0  0  0  0
  140.0210   67.8150  227.1670 C   0  0  0  0  0  0  0  0  0  0  0  0
  139.5180   68.1310  225.9010 C   0  0  0  0  0  0  0  0  0  0  0  0
  139.8010   69.3680  225.3350 C   0  0  0  0  0  0  0  0  0  0  0  0
  139.3190   69.7200  224.0750 C   0  0  0  0  0  0  0  0  0  0  0  0
  141.4330   78.8880  222.6240 C   0  0  0  0  0  0  0  0  0  0  0  0
  140.4660   79.7430  223.1630 C   0  0  0  0  0  0  0  0  0  0  0  0
  140.8130   80.9380  223.7610 C   0  0  0  0  0  0  0  0  0  0  0  0
  142.1250   81.3330  223.8520 C   0  0  0  0  0  0  0  0  0  0  0  0
  143.1050   80.4990  223.3230 C   0  0  0  0  0  0  0  0  0  0  0  0
  142.7390   79.3170  222.7330 C   0  0  0  0  0  0  0  0  0  0  0  0
  142.4223   78.0509  220.3922 H   0  0  0  0  0  0  0  0  0  0  0  0
  141.2660   76.7231  220.0365 H   0  0  0  0  0  0  0  0  0  0  0  0
  140.7026   78.4288  220.0365 H   0  0  0  0  0  0  0  0  0  0  0  0
  141.6160   76.7895  222.4686 H   0  0  0  0  0  0  0  0  0  0  0  0
  138.9880   78.1030  222.0830 H   0  0  0  0  0  0  0  0  0  0  0  0
  137.7218   74.8662  223.2087 H   0  0  0  0  0  0  0  0  0  0  0  0
  135.9543   76.6212  223.2729 H   0  0  0  0  0  0  0  0  0  0  0  0
  137.4058   77.5655  223.5059 H   0  0  0  0  0  0  0  0  0  0  0  0
  135.7100   78.0448  221.4461 H   0  0  0  0  0  0  0  0  0  0  0  0
  137.4651   78.2426  221.2203 H   0  0  0  0  0  0  0  0  0  0  0  0
  135.6451   76.2417  220.0372 H   0  0  0  0  0  0  0  0  0  0  0  0
  137.2926   76.6003  219.5618 H   0  0  0  0  0  0  0  0  0  0  0  0
  137.8959   72.1199  220.0481 H   0  0  0  0  0  0  0  0  0  0  0  0
  138.9352   73.5709  220.0798 H   0  0  0  0  0  0  0  0  0  0  0  0
  138.6140   73.3730  222.6830 H   0  0  0  0  0  0  0  0  0  0  0  0
  140.6107   72.7998  223.8051 H   0  0  0  0  0  0  0  0  0  0  0  0
  141.4900   72.2123  226.0561 H   0  0  0  0  0  0  0  0  0  0  0  0
  141.7019   70.6905  227.8473 H   0  0  0  0  0  0  0  0  0  0  0  0
  139.7955   66.8359  227.6147 H   0  0  0  0  0  0  0  0  0  0  0  0
  138.9004   67.4027  225.3551 H   0  0  0  0  0  0  0  0  0  0  0  0
  138.7006   69.0002  223.5188 H   0  0  0  0  0  0  0  0  0  0  0  0
  139.4053   79.4568  223.1092 H   0  0  0  0  0  0  0  0  0  0  0  0
  140.0243   81.5854  224.1720 H   0  0  0  0  0  0  0  0  0  0  0  0
  142.3946   82.2856  224.3315 H   0  0  0  0  0  0  0  0  0  0  0  0
  144.1655   80.7859  223.3778 H   0  0  0  0  0  0  0  0  0  0  0  0
  143.5321   78.6743  222.3233 H   0  0  0  0  0  0  0  0  0  0  0  0
  1  2  1  0
  2  3  1  0
  3  4  1  0
  4  5  2  0
  4  6  1  0
  6  7  1  0
  7  8  1  0
  8  9  1  0
  9 10  1  0
 10 11  1  0
 11 12  2  0
 11 13  1  0
 13 14  1  0
 14 15  1  0
 15 16  2  0
 15 17  1  0
 17 18  2  0
 18 19  1  0
 19 20  2  0
 20 21  1  0
 21 22  2  0
 22 23  1  0
 22 24  1  0
 24 25  2  0
 25 26  1  0
 26 27  2  0
  2 28  1  0
 28 29  2  0
 29 30  1  0
 30 31  2  0
 31 32  1  0
 32 33  2  0
 10  6  1  0
 27 17  1  0
 33 28  1  0
 26 20  1  0
  1 34  1  0
  1 35  1  0
  1 36  1  0
  2 37  1  1
  3 38  1  0
  6 39  1  1
  7 40  1  0
  7 41  1  0
  8 42  1  0
  8 43  1  0
  9 44  1  0
  9 45  1  0
 13 46  1  0
 13 47  1  0
 14 48  1  0
 18 49  1  0
 19 50  1  0
 21 51  1  0
 24 52  1  0
 25 53  1  0
 27 54  1  0
 29 55  1  0
 30 56  1  0
 31 57  1  0
 32 58  1  0
 33 59  1  0
M  END
>  <smiles>  (24) 
C[C@H](NC(=O)[C@H]1CCCN1C(=O)CNC(=O)c1ccc2cc(F)ccc2c1)c1ccccc1

>  <score_type>  (24) 
oracle

>  <origin>  (24) 
autodockgpu

>  <m_score__min__energy>  (24) 
-9.5099999999999998

>  <m_primary>  (24) 
energy

>  <rmsd>  (24) 
3.7119721061579325

>  <m_score__min__rmsd>  (24) 
3.7119721061579325

>  <meeko>  (24) 
{"free_energy": -9.2, "intermolecular_energy": -11.29, "internal_energy": -2.38, "cluster_size": 11, "cluster_id": 2, "rank_in_cluster": 2}

>  <energy>  (24) 
-8.71

>  <cluster_rmsd>  (24) 
1.07

>  <cluster>  (24) 
1

$$$$

     RDKit          3D

 59 62  0  0  0  0  0  0  0  0999 V2000
  141.3670   78.6030  219.8100 C   0  0  0  0  0  0  0  0  0  0  0  0
  141.7680   78.0920  221.1690 C   0  0  2  0  0  0  0  0  0  0  0  0
  140.7560   77.1800  221.6360 N   0  0  0  0  0  0  0  0  0  0  0  0
  139.5080   77.6140  222.1560 C   0  0  0  0  0  0  0  0  0  0  0  0
  139.2730   78.8500  222.2120 O   0  0  0  0  0  0  0  0  0  0  0  0
  138.4530   76.6940  222.6410 C   0  0  1  0  0  0  0  0  0  0  0  0
  137.0930   77.3820  222.6840 C   0  0  0  0  0  0  0  0  0  0  0  0
  136.6220   77.2520  221.2730 C   0  0  0  0  0  0  0  0  0  0  0  0
  137.2350   75.9900  220.7090 C   0  0  0  0  0  0  0  0  0  0  0  0
  138.1820   75.5980  221.7310 N   0  0  0  0  0  0  0  0  0  0  0  0
  138.7890   74.3010  221.8540 C   0  0  0  0  0  0  0  0  0  0  0  0
  140.0360   74.1610  222.0090 O   0  0  0  0  0  0  0  0  0  0  0  0
  137.9310   73.0770  221.7970 C   0  0  0  0  0  0  0  0  0  0  0  0
  138.2340   72.2640  222.9600 N   0  0  0  0  0  0  0  0  0  0  0  0
  139.2720   71.3200  222.9350 C   0  0  0  0  0  0  0  0  0  0  0  0
  139.9970   71.1270  221.9000 O   0  0  0  0  0  0  0  0  0  0  0  0
  139.5960   70.4890  224.0970 C   0  0  0  0  0  0  0  0  0  0  0  0
  139.2520   69.1480  224.0740 C   0  0  0  0  0  0  0  0  0  0  0  0
  139.5320   68.3010  225.1460 C   0  0  0  0  0  0  0  0  0  0  0  0
  140.1710   68.8110  226.2650 C   0  0  0  0  0  0  0  0  0  0  0  0
  140.4370   67.9440  227.3170 C   0  0  0  0  0  0  0  0  0  0  0  0
  141.0740   68.4400  228.4390 C   0  0  0  0  0  0  0  0  0  0  0  0
  141.3190   67.5690  229.4480 F   0  0  0  0  0  0  0  0  0  0  0  0
  141.4340   69.7760  228.4970 C   0  0  0  0  0  0  0  0  0  0  0  0
  141.1580   70.6340  227.4280 C   0  0  0  0  0  0  0  0  0  0  0  0
  140.5180   70.1410  226.2970 C   0  0  0  0  0  0  0  0  0  0  0  0
  140.2250   70.9650  225.2100 C   0  0  0  0  0  0  0  0  0  0  0  0
  141.9300   79.2680  222.0680 C   0  0  0  0  0  0  0  0  0  0  0  0
  141.6260   80.5630  221.6360 C   0  0  0  0  0  0  0  0  0  0  0  0
  141.7770   81.6540  222.4690 C   0  0  0  0  0  0  0  0  0  0  0  0
  142.2320   81.5090  223.7560 C   0  0  0  0  0  0  0  0  0  0  0  0
  142.5410   80.2300  224.2080 C   0  0  0  0  0  0  0  0  0  0  0  0
  142.3840   79.1600  223.3660 C   0  0  0  0  0  0  0  0  0  0  0  0
  140.6917   79.4635  219.9264 H   0  0  0  0  0  0  0  0  0  0  0  0
  142.2648   78.9138  219.2556 H   0  0  0  0  0  0  0  0  0  0  0  0
  140.8517   77.8049  219.2556 H   0  0  0  0  0  0  0  0  0  0  0  0
  142.7207   77.5429  221.1405 H   0  0  0  0  0  0  0  0  0  0  0  0
  140.9650   76.1600  221.5840 H   0  0  0  0  0  0  0  0  0  0  0  0
  138.8388   76.3611  223.6159 H   0  0  0  0  0  0  0  0  0  0  0  0
  136.4108   76.8715  223.3797 H   0  0  0  0  0  0  0  0  0  0  0  0
  137.1383   78.4226  223.0377 H   0  0  0  0  0  0  0  0  0  0  0  0
  135.5246   77.1814  221.2474 H   0  0  0  0  0  0  0  0  0  0  0  0
  136.9211   78.1290  220.6801 H   0  0  0  0  0  0  0  0  0  0  0  0
  136.4710   75.2127  220.5599 H   0  0  0  0  0  0  0  0  0  0  0  0
  137.7004   76.1392  219.7235 H   0  0  0  0  0  0  0  0  0  0  0  0
  136.8692   73.3643  221.8084 H   0  0  0  0  0  0  0  0  0  0  0  0
  138.1296   72.5131  220.8736 H   0  0  0  0  0  0  0  0  0  0  0  0
  137.6460   72.4180  223.8100 H   0  0  0  0  0  0  0  0  0  0  0  0
  138.7447   68.7402  223.1872 H   0  0  0  0  0  0  0  0  0  0  0  0
  139.2485   67.2390  225.1038 H   0  0  0  0  0  0  0  0  0  0  0  0
  140.1467   66.8846  227.2585 H   0  0  0  0  0  0  0  0  0  0  0  0
  141.9415   70.1656  229.3918 H   0  0  0  0  0  0  0  0  0  0  0  0
  141.4461   71.6943  227.4819 H   0  0  0  0  0  0  0  0  0  0  0  0
  140.5088   72.0269  225.2515 H   0  0  0  0  0  0  0  0  0  0  0  0
  141.2587   80.7158  220.6105 H   0  0  0  0  0  0  0  0  0  0  0  0
  141.5281   82.6578  222.0943 H   0  0  0  0  0  0  0  0  0  0  0  0
  142.3494   82.3827  224.4139 H   0  0  0  0  0  0  0  0  0  0  0  0
  142.9086   80.0786  225.2336 H   0  0  0  0  0  0  0  0  0  0  0  0
  142.6341   78.1588  223.7468 H   0  0  0  0  0  0  0  0  0  0  0  0
  1  2  1  0
  2  3  1  0
  3  4  1  0
  4  5  2  0
  4  6  1  0
  6  7  1  0
  7  8  1  0
  8  9  1  0
  9 10  1  0
 10 11  1  0
 11 12  2  0
 11 13  1  0
 13 14  1  0
 14 15  1  0
 15 16  2  0
 15 17  1  0
 17 18  2  0
 18 19  1  0
 19 20  2  0
 20 21  1  0
 21 22  2  0
 22 23  1  0
 22 24  1  0
 24 25  2  0
 25 26  1  0
 26 27  2  0
  2 28  1  0
 28 29  2  0
 29 30  1  0
 30 31  2  0
 31 32  1  0
 32 33  2  0
 10  6  1  0
 27 17  1  0
 33 28  1  0
 26 20  1  0
  1 34  1  0
  1 35  1  0
  1 36  1  0
  2 37  1  6
  3 38  1  0
  6 39  1  1
  7 40  1  0
  7 41  1  0
  8 42  1  0
  8 43  1  0
  9 44  1  0
  9 45  1  0
 13 46  1  0
 13 47  1  0
 14 48  1  0
 18 49  1  0
 19 50  1  0
 21 51  1  0
 24 52  1  0
 25 53  1  0
 27 54  1  0
 29 55  1  0
 30 56  1  0
 31 57  1  0
 32 58  1  0
 33 59  1  0
M  END
>  <smiles>  (25) 
C[C@H](NC(=O)[C@H]1CCCN1C(=O)CNC(=O)c1ccc2cc(F)ccc2c1)c1ccccc1

>  <score_type>  (25) 
oracle

>  <origin>  (25) 
autodockgpu

>  <m_score__min__energy>  (25) 
-9.5099999999999998

>  <m_primary>  (25) 
energy

>  <rmsd>  (25) 
3.219718103163002

>  <m_score__min__rmsd>  (25) 
3.219718103163002

>  <meeko>  (25) 
{"free_energy": -9.38, "intermolecular_energy": -11.47, "internal_energy": -2.17, "cluster_size": 11, "cluster_id": 2, "rank_in_cluster": 1}

>  <energy>  (25) 
-8.65

>  <cluster_rmsd>  (25) 
1.99

>  <cluster>  (25) 
1

$$$$

     RDKit          3D

 59 62  0  0  0  0  0  0  0  0999 V2000
  142.9580   79.9390  222.9630 C   0  0  0  0  0  0  0  0  0  0  0  0
  141.8040   78.9730  222.8860 C   0  0  2  0  0  0  0  0  0  0  0  0
  141.8810   78.2600  221.6380 N   0  0  0  0  0  0  0  0  0  0  0  0
  141.0900   77.1150  221.3550 C   0  0  0  0  0  0  0  0  0  0  0  0
  140.2860   76.7030  222.2320 O   0  0  0  0  0  0  0  0  0  0  0  0
  141.1530   76.3660  220.0780 C   0  0  1  0  0  0  0  0  0  0  0  0
  142.1720   76.9790  219.1250 C   0  0  0  0  0  0  0  0  0  0  0  0
  143.4550   76.3750  219.5950 C   0  0  0  0  0  0  0  0  0  0  0  0
  143.1260   75.0220  220.1840 C   0  0  0  0  0  0  0  0  0  0  0  0
  141.6790   75.0240  220.2230 N   0  0  0  0  0  0  0  0  0  0  0  0
  140.8480   73.8610  220.3830 C   0  0  0  0  0  0  0  0  0  0  0  0
  141.2090   72.7230  219.9670 O   0  0  0  0  0  0  0  0  0  0  0  0
  139.5190   73.9920  221.0580 C   0  0  0  0  0  0  0  0  0  0  0  0
  139.5700   73.2350  222.2950 N   0  0  0  0  0  0  0  0  0  0  0  0
  139.6280   71.8330  222.2860 C   0  0  0  0  0  0  0  0  0  0  0  0
  139.6370   71.1550  221.2020 O   0  0  0  0  0  0  0  0  0  0  0  0
  139.6800   71.0480  223.5210 C   0  0  0  0  0  0  0  0  0  0  0  0
  139.0720   69.8040  223.5480 C   0  0  0  0  0  0  0  0  0  0  0  0
  139.0850   69.0050  224.6910 C   0  0  0  0  0  0  0  0  0  0  0  0
  139.7220   69.4660  225.8330 C   0  0  0  0  0  0  0  0  0  0  0  0
  139.7190   68.6490  226.9560 C   0  0  0  0  0  0  0  0  0  0  0  0
  140.3500   69.0960  228.1020 C   0  0  0  0  0  0  0  0  0  0  0  0
  140.3290   68.2760  229.1800 F   0  0  0  0  0  0  0  0  0  0  0  0
  140.9690   70.3350  228.1120 C   0  0  0  0  0  0  0  0  0  0  0  0
  140.9620   71.1430  226.9710 C   0  0  0  0  0  0  0  0  0  0  0  0
  140.3290   70.7000  225.8160 C   0  0  0  0  0  0  0  0  0  0  0  0
  140.2990   71.4760  224.6590 C   0  0  0  0  0  0  0  0  0  0  0  0
  140.5450   79.7580  223.0150 C   0  0  0  0  0  0  0  0  0  0  0  0
  140.3340   80.9260  222.2760 C   0  0  0  0  0  0  0  0  0  0  0  0
  139.1670   81.6540  222.3950 C   0  0  0  0  0  0  0  0  0  0  0  0
  138.1660   81.2580  223.2460 C   0  0  0  0  0  0  0  0  0  0  0  0
  138.3520   80.0990  223.9930 C   0  0  0  0  0  0  0  0  0  0  0  0
  139.5180   79.3910  223.8590 C   0  0  0  0  0  0  0  0  0  0  0  0
  143.1981   80.1400  224.0175 H   0  0  0  0  0  0  0  0  0  0  0  0
  143.8356   79.5024  222.4639 H   0  0  0  0  0  0  0  0  0  0  0  0
  142.6826   80.8798  222.4639 H   0  0  0  0  0  0  0  0  0  0  0  0
  141.8329   78.2274  223.6942 H   0  0  0  0  0  0  0  0  0  0  0  0
  142.5520   78.6120  220.9220 H   0  0  0  0  0  0  0  0  0  0  0  0
  140.1118   76.3856  219.7238 H   0  0  0  0  0  0  0  0  0  0  0  0
  141.9595   76.7004  218.0823 H   0  0  0  0  0  0  0  0  0  0  0  0
  142.1752   78.0790  219.1332 H   0  0  0  0  0  0  0  0  0  0  0  0
  144.1484   76.2587  218.7490 H   0  0  0  0  0  0  0  0  0  0  0  0
  143.9370   77.0194  220.3450 H   0  0  0  0  0  0  0  0  0  0  0  0
  143.5027   74.2105  219.5440 H   0  0  0  0  0  0  0  0  0  0  0  0
  143.5849   74.8565  221.1699 H   0  0  0  0  0  0  0  0  0  0  0  0
  139.3132   75.0504  221.2758 H   0  0  0  0  0  0  0  0  0  0  0  0
  138.7194   73.6087  220.4071 H   0  0  0  0  0  0  0  0  0  0  0  0
  139.5640   73.7830  223.1840 H   0  0  0  0  0  0  0  0  0  0  0  0
  138.5652   69.4362  222.6436 H   0  0  0  0  0  0  0  0  0  0  0  0
  138.5953   68.0200  224.6866 H   0  0  0  0  0  0  0  0  0  0  0  0
  139.2248   67.6665  226.9341 H   0  0  0  0  0  0  0  0  0  0  0  0
  141.4705   70.6864  229.0258 H   0  0  0  0  0  0  0  0  0  0  0  0
  141.4558   72.1258  226.9875 H   0  0  0  0  0  0  0  0  0  0  0  0
  140.7881   72.4613  224.6633 H   0  0  0  0  0  0  0  0  0  0  0  0
  141.1156   81.2728  221.5840 H   0  0  0  0  0  0  0  0  0  0  0  0
  139.0373   82.5680  221.7968 H   0  0  0  0  0  0  0  0  0  0  0  0
  137.2387   81.8429  223.3355 H   0  0  0  0  0  0  0  0  0  0  0  0
  137.5699   79.7538  224.6852 H   0  0  0  0  0  0  0  0  0  0  0  0
  139.6417   78.4775  224.4592 H   0  0  0  0  0  0  0  0  0  0  0  0
  1  2  1  0
  2  3  1  0
  3  4  1  0
  4  5  2  0
  4  6  1  0
  6  7  1  0
  7  8  1  0
  8  9  1  0
  9 10  1  0
 10 11  1  0
 11 12  2  0
 11 13  1  0
 13 14  1  0
 14 15  1  0
 15 16  2  0
 15 17  1  0
 17 18  2  0
 18 19  1  0
 19 20  2  0
 20 21  1  0
 21 22  2  0
 22 23  1  0
 22 24  1  0
 24 25  2  0
 25 26  1  0
 26 27  2  0
  2 28  1  0
 28 29  2  0
 29 30  1  0
 30 31  2  0
 31 32  1  0
 32 33  2  0
 10  6  1  0
 27 17  1  0
 33 28  1  0
 26 20  1  0
  1 34  1  0
  1 35  1  0
  1 36  1  0
  2 37  1  1
  3 38  1  0
  6 39  1  6
  7 40  1  0
  7 41  1  0
  8 42  1  0
  8 43  1  0
  9 44  1  0
  9 45  1  0
 13 46  1  0
 13 47  1  0
 14 48  1  0
 18 49  1  0
 19 50  1  0
 21 51  1  0
 24 52  1  0
 25 53  1  0
 27 54  1  0
 29 55  1  0
 30 56  1  0
 31 57  1  0
 32 58  1  0
 33 59  1  0
M  END
>  <smiles>  (26) 
C[C@H](NC(=O)[C@H]1CCCN1C(=O)CNC(=O)c1ccc2cc(F)ccc2c1)c1ccccc1

>  <score_type>  (26) 
oracle

>  <origin>  (26) 
autodockgpu

>  <m_score__min__energy>  (26) 
-9.5099999999999998

>  <m_primary>  (26) 
energy

>  <rmsd>  (26) 
2.3690461039493105

>  <m_score__min__rmsd>  (26) 
2.3690461039493105

>  <meeko>  (26) 
{"free_energy": -9.51, "intermolecular_energy": -11.6, "internal_energy": -1.62, "cluster_size": 35, "cluster_id": 1, "rank_in_cluster": 1}

>  <energy>  (26) 
-8.65

>  <cluster_rmsd>  (26) 
1.75

>  <cluster>  (26) 
1

$$$$

     RDKit          3D

 59 62  0  0  0  0  0  0  0  0999 V2000
  138.4910   79.7580  223.5980 C   0  0  0  0  0  0  0  0  0  0  0  0
  139.4250   79.7650  222.4160 C   0  0  2  0  0  0  0  0  0  0  0  0
  139.4060   78.4610  221.8050 N   0  0  0  0  0  0  0  0  0  0  0  0
  139.8810   78.2200  220.4880 C   0  0  0  0  0  0  0  0  0  0  0  0
  140.3380   79.1870  219.8240 O   0  0  0  0  0  0  0  0  0  0  0  0
  139.8720   76.8880  219.8410 C   0  0  1  0  0  0  0  0  0  0  0  0
  141.0060   76.7540  218.8310 C   0  0  0  0  0  0  0  0  0  0  0  0
  142.1640   76.3770  219.6960 C   0  0  0  0  0  0  0  0  0  0  0  0
  141.6110   75.6230  220.8840 C   0  0  0  0  0  0  0  0  0  0  0  0
  140.1810   75.8040  220.7520 N   0  0  0  0  0  0  0  0  0  0  0  0
  139.1760   75.0240  221.4230 C   0  0  0  0  0  0  0  0  0  0  0  0
  138.6010   75.4390  222.4700 O   0  0  0  0  0  0  0  0  0  0  0  0
  138.7930   73.6850  220.8760 C   0  0  0  0  0  0  0  0  0  0  0  0
  138.7820   72.7400  221.9760 N   0  0  0  0  0  0  0  0  0  0  0  0
  139.9380   72.4960  222.7350 C   0  0  0  0  0  0  0  0  0  0  0  0
  141.0470   73.0850  222.5010 O   0  0  0  0  0  0  0  0  0  0  0  0
  139.9500   71.5460  223.8490 C   0  0  0  0  0  0  0  0  0  0  0  0
  139.3680   70.3010  223.6720 C   0  0  0  0  0  0  0  0  0  0  0  0
  139.3460   69.3500  224.6920 C   0  0  0  0  0  0  0  0  0  0  0  0
  139.9200   69.6550  225.9160 C   0  0  0  0  0  0  0  0  0  0  0  0
  139.8840   68.6870  226.9120 C   0  0  0  0  0  0  0  0  0  0  0  0
  140.4520   68.9780  228.1380 C   0  0  0  0  0  0  0  0  0  0  0  0
  140.4000   68.0140  229.0890 F   0  0  0  0  0  0  0  0  0  0  0  0
  141.0440   70.2120  228.3520 C   0  0  0  0  0  0  0  0  0  0  0  0
  141.0710   71.1720  227.3360 C   0  0  0  0  0  0  0  0  0  0  0  0
  140.5010   70.8870  226.1020 C   0  0  0  0  0  0  0  0  0  0  0  0
  140.5080   71.8180  225.0640 C   0  0  0  0  0  0  0  0  0  0  0  0
  140.7790   80.1420  222.9080 C   0  0  0  0  0  0  0  0  0  0  0  0
  140.9730   81.2640  223.7210 C   0  0  0  0  0  0  0  0  0  0  0  0
  142.2280   81.6140  224.1780 C   0  0  0  0  0  0  0  0  0  0  0  0
  143.3370   80.8730  223.8500 C   0  0  0  0  0  0  0  0  0  0  0  0
  143.1680   79.7530  223.0420 C   0  0  0  0  0  0  0  0  0  0  0  0
  141.9140   79.4220  222.6000 C   0  0  0  0  0  0  0  0  0  0  0  0
  139.0774   79.7624  224.5287 H   0  0  0  0  0  0  0  0  0  0  0  0
  137.8501   80.6514  223.5642 H   0  0  0  0  0  0  0  0  0  0  0  0
  137.8636   78.8551  223.5642 H   0  0  0  0  0  0  0  0  0  0  0  0
  139.1190   80.4931  221.6504 H   0  0  0  0  0  0  0  0  0  0  0  0
  139.0240   77.6710  222.3670 H   0  0  0  0  0  0  0  0  0  0  0  0
  138.8591   76.8211  219.4172 H   0  0  0  0  0  0  0  0  0  0  0  0
  140.7895   75.9689  218.0916 H   0  0  0  0  0  0  0  0  0  0  0  0
  141.1777   77.6656  218.2399 H   0  0  0  0  0  0  0  0  0  0  0  0
  142.8604   75.7367  219.1347 H   0  0  0  0  0  0  0  0  0  0  0  0
  142.7128   77.2721  220.0240 H   0  0  0  0  0  0  0  0  0  0  0  0
  141.8802   74.5576  220.8354 H   0  0  0  0  0  0  0  0  0  0  0  0
  142.0051   75.9830  221.8458 H   0  0  0  0  0  0  0  0  0  0  0  0
  137.7933   73.7396  220.4203 H   0  0  0  0  0  0  0  0  0  0  0  0
  139.5103   73.3669  220.1051 H   0  0  0  0  0  0  0  0  0  0  0  0
  137.8780   72.2550  222.1730 H   0  0  0  0  0  0  0  0  0  0  0  0
  138.9114   70.0563  222.7016 H   0  0  0  0  0  0  0  0  0  0  0  0
  138.8780   68.3683  224.5267 H   0  0  0  0  0  0  0  0  0  0  0  0
  139.4135   67.7098  226.7287 H   0  0  0  0  0  0  0  0  0  0  0  0
  141.4963   70.4383  229.3288 H   0  0  0  0  0  0  0  0  0  0  0  0
  141.5422   72.1500  227.5134 H   0  0  0  0  0  0  0  0  0  0  0  0
  140.9766   72.7994  225.2293 H   0  0  0  0  0  0  0  0  0  0  0  0
  140.1067   81.8808  224.0022 H   0  0  0  0  0  0  0  0  0  0  0  0
  142.3418   82.5025  224.8164 H   0  0  0  0  0  0  0  0  0  0  0  0
  144.3340   81.1580  224.2170 H   0  0  0  0  0  0  0  0  0  0  0  0
  144.0350   79.1376  222.7600 H   0  0  0  0  0  0  0  0  0  0  0  0
  141.8066   78.5314  221.9634 H   0  0  0  0  0  0  0  0  0  0  0  0
  1  2  1  0
  2  3  1  0
  3  4  1  0
  4  5  2  0
  4  6  1  0
  6  7  1  0
  7  8  1  0
  8  9  1  0
  9 10  1  0
 10 11  1  0
 11 12  2  0
 11 13  1  0
 13 14  1  0
 14 15  1  0
 15 16  2  0
 15 17  1  0
 17 18  2  0
 18 19  1  0
 19 20  2  0
 20 21  1  0
 21 22  2  0
 22 23  1  0
 22 24  1  0
 24 25  2  0
 25 26  1  0
 26 27  2  0
  2 28  1  0
 28 29  2  0
 29 30  1  0
 30 31  2  0
 31 32  1  0
 32 33  2  0
 10  6  1  0
 27 17  1  0
 33 28  1  0
 26 20  1  0
  1 34  1  0
  1 35  1  0
  1 36  1  0
  2 37  1  6
  3 38  1  0
  6 39  1  6
  7 40  1  0
  7 41  1  0
  8 42  1  0
  8 43  1  0
  9 44  1  0
  9 45  1  0
 13 46  1  0
 13 47  1  0
 14 48  1  0
 18 49  1  0
 19 50  1  0
 21 51  1  0
 24 52  1  0
 25 53  1  0
 27 54  1  0
 29 55  1  0
 30 56  1  0
 31 57  1  0
 32 58  1  0
 33 59  1  0
M  END
>  <smiles>  (27) 
C[C@H](NC(=O)[C@H]1CCCN1C(=O)CNC(=O)c1ccc2cc(F)ccc2c1)c1ccccc1

>  <score_type>  (27) 
oracle

>  <origin>  (27) 
autodockgpu

>  <m_score__min__energy>  (27) 
-9.5099999999999998

>  <m_primary>  (27) 
energy

>  <rmsd>  (27) 
2.7881932061940407

>  <m_score__min__rmsd>  (27) 
2.7881932061940407

>  <meeko>  (27) 
{"free_energy": -8.8, "intermolecular_energy": -10.88, "internal_energy": -2.48, "cluster_size": 35, "cluster_id": 1, "rank_in_cluster": 22}

>  <energy>  (27) 
-8.61

>  <cluster_rmsd>  (27) 
1.8

>  <cluster>  (27) 
1

$$$$

     RDKit          3D

 59 62  0  0  0  0  0  0  0  0999 V2000
  138.4730   80.0390  224.1000 C   0  0  0  0  0  0  0  0  0  0  0  0
  139.1980   79.9320  222.7830 C   0  0  2  0  0  0  0  0  0  0  0  0
  138.9250   78.6400  222.2100 N   0  0  0  0  0  0  0  0  0  0  0  0
  138.0430   78.4550  221.1120 C   0  0  0  0  0  0  0  0  0  0  0  0
  137.4740   79.4620  220.6160 O   0  0  0  0  0  0  0  0  0  0  0  0
  137.7490   77.1350  220.5060 C   0  0  1  0  0  0  0  0  0  0  0  0
  137.4110   77.2670  219.0260 C   0  0  0  0  0  0  0  0  0  0  0  0
  138.7610   77.3090  218.3890 C   0  0  0  0  0  0  0  0  0  0  0  0
  139.6980   76.5140  219.2700 C   0  0  0  0  0  0  0  0  0  0  0  0
  138.9010   76.2570  220.4510 N   0  0  0  0  0  0  0  0  0  0  0  0
  139.1900   75.2680  221.4530 C   0  0  0  0  0  0  0  0  0  0  0  0
  139.6600   75.5840  222.5840 O   0  0  0  0  0  0  0  0  0  0  0  0
  138.9300   73.8240  221.1610 C   0  0  0  0  0  0  0  0  0  0  0  0
  139.2580   73.0610  222.3510 N   0  0  0  0  0  0  0  0  0  0  0  0
  139.0600   71.6720  222.3990 C   0  0  0  0  0  0  0  0  0  0  0  0
  138.5860   71.0130  221.4130 O   0  0  0  0  0  0  0  0  0  0  0  0
  139.3850   70.8810  223.5890 C   0  0  0  0  0  0  0  0  0  0  0  0
  139.1160   69.5230  223.5800 C   0  0  0  0  0  0  0  0  0  0  0  0
  139.4010   68.7120  224.6790 C   0  0  0  0  0  0  0  0  0  0  0  0
  139.9670   69.2770  225.8100 C   0  0  0  0  0  0  0  0  0  0  0  0
  140.2390   68.4450  226.8890 C   0  0  0  0  0  0  0  0  0  0  0  0
  140.8030   68.9960  228.0240 C   0  0  0  0  0  0  0  0  0  0  0  0
  141.0570   68.1590  229.0580 F   0  0  0  0  0  0  0  0  0  0  0  0
  141.0860   70.3510  228.0690 C   0  0  0  0  0  0  0  0  0  0  0  0
  140.8050   71.1730  226.9730 C   0  0  0  0  0  0  0  0  0  0  0  0
  140.2370   70.6250  225.8290 C   0  0  0  0  0  0  0  0  0  0  0  0
  139.9420   71.4110  224.7150 C   0  0  0  0  0  0  0  0  0  0  0  0
  140.6490   80.1430  223.0440 C   0  0  0  0  0  0  0  0  0  0  0  0
  141.6160   79.2700  222.5340 C   0  0  0  0  0  0  0  0  0  0  0  0
  142.9610   79.4650  222.7760 C   0  0  0  0  0  0  0  0  0  0  0  0
  143.4020   80.5260  223.5280 C   0  0  0  0  0  0  0  0  0  0  0  0
  142.4590   81.4070  224.0460 C   0  0  0  0  0  0  0  0  0  0  0  0
  141.1290   81.1960  223.7940 C   0  0  0  0  0  0  0  0  0  0  0  0
  139.1932   79.9327  224.9247 H   0  0  0  0  0  0  0  0  0  0  0  0
  137.9795   81.0197  224.1683 H   0  0  0  0  0  0  0  0  0  0  0  0
  137.7172   79.2427  224.1683 H   0  0  0  0  0  0  0  0  0  0  0  0
  138.8615   80.6911  222.0615 H   0  0  0  0  0  0  0  0  0  0  0  0
  139.4030   77.8150  222.6310 H   0  0  0  0  0  0  0  0  0  0  0  0
  136.9375   76.7441  221.1374 H   0  0  0  0  0  0  0  0  0  0  0  0
  136.8311   76.4019  218.6719 H   0  0  0  0  0  0  0  0  0  0  0  0
  136.7893   78.1445  218.7946 H   0  0  0  0  0  0  0  0  0  0  0  0
  138.7177   76.8616  217.3850 H   0  0  0  0  0  0  0  0  0  0  0  0
  139.1106   78.3467  218.2847 H   0  0  0  0  0  0  0  0  0  0  0  0
  139.9957   75.5739  218.7825 H   0  0  0  0  0  0  0  0  0  0  0  0
  140.6373   77.0427  219.4894 H   0  0  0  0  0  0  0  0  0  0  0  0
  137.8700   73.6796  220.9051 H   0  0  0  0  0  0  0  0  0  0  0  0
  139.5425   73.4892  220.3109 H   0  0  0  0  0  0  0  0  0  0  0  0
  139.6470   73.5930  223.1610 H   0  0  0  0  0  0  0  0  0  0  0  0
  138.6660   69.0718  222.6834 H   0  0  0  0  0  0  0  0  0  0  0  0
  139.1785   67.6352  224.6476 H   0  0  0  0  0  0  0  0  0  0  0  0
  140.0102   67.3701  226.8409 H   0  0  0  0  0  0  0  0  0  0  0  0
  141.5356   70.7844  228.9745 H   0  0  0  0  0  0  0  0  0  0  0  0
  141.0325   72.2484  227.0162 H   0  0  0  0  0  0  0  0  0  0  0  0
  140.1648   72.4878  224.7458 H   0  0  0  0  0  0  0  0  0  0  0  0
  141.2977   78.4096  221.9270 H   0  0  0  0  0  0  0  0  0  0  0  0
  143.6928   78.7576  222.3589 H   0  0  0  0  0  0  0  0  0  0  0  0
  144.4754   80.6754  223.7161 H   0  0  0  0  0  0  0  0  0  0  0  0
  142.7785   82.2667  224.6534 H   0  0  0  0  0  0  0  0  0  0  0  0
  140.4025   81.9072  224.2139 H   0  0  0  0  0  0  0  0  0  0  0  0
  1  2  1  0
  2  3  1  0
  3  4  1  0
  4  5  2  0
  4  6  1  0
  6  7  1  0
  7  8  1  0
  8  9  1  0
  9 10  1  0
 10 11  1  0
 11 12  2  0
 11 13  1  0
 13 14  1  0
 14 15  1  0
 15 16  2  0
 15 17  1  0
 17 18  2  0
 18 19  1  0
 19 20  2  0
 20 21  1  0
 21 22  2  0
 22 23  1  0
 22 24  1  0
 24 25  2  0
 25 26  1  0
 26 27  2  0
  2 28  1  0
 28 29  2  0
 29 30  1  0
 30 31  2  0
 31 32  1  0
 32 33  2  0
 10  6  1  0
 27 17  1  0
 33 28  1  0
 26 20  1  0
  1 34  1  0
  1 35  1  0
  1 36  1  0
  2 37  1  6
  3 38  1  0
  6 39  1  1
  7 40  1  0
  7 41  1  0
  8 42  1  0
  8 43  1  0
  9 44  1  0
  9 45  1  0
 13 46  1  0
 13 47  1  0
 14 48  1  0
 18 49  1  0
 19 50  1  0
 21 51  1  0
 24 52  1  0
 25 53  1  0
 27 54  1  0
 29 55  1  0
 30 56  1  0
 31 57  1  0
 32 58  1  0
 33 59  1  0
M  END
>  <smiles>  (28) 
C[C@H](NC(=O)[C@H]1CCCN1C(=O)CNC(=O)c1ccc2cc(F)ccc2c1)c1ccccc1

>  <score_type>  (28) 
oracle

>  <origin>  (28) 
autodockgpu

>  <m_score__min__energy>  (28) 
-9.5099999999999998

>  <m_primary>  (28) 
energy

>  <rmsd>  (28) 
2.9630339107057444

>  <m_score__min__rmsd>  (28) 
2.9630339107057444

>  <meeko>  (28) 
{"free_energy": -8.42, "intermolecular_energy": -10.51, "internal_energy": -2.82, "cluster_size": 11, "cluster_id": 2, "rank_in_cluster": 10}

>  <energy>  (28) 
-8.52

>  <cluster_rmsd>  (28) 
1.83

>  <cluster>  (28) 
1

$$$$

     RDKit          3D

 59 62  0  0  0  0  0  0  0  0999 V2000
  138.5700   79.8890  223.2780 C   0  0  0  0  0  0  0  0  0  0  0  0
  139.5930   79.7760  222.1780 C   0  0  2  0  0  0  0  0  0  0  0  0
  139.5750   78.4300  221.6680 N   0  0  0  0  0  0  0  0  0  0  0  0
  139.9880   78.1000  220.3500 C   0  0  0  0  0  0  0  0  0  0  0  0
  140.3880   79.0220  219.5920 O   0  0  0  0  0  0  0  0  0  0  0  0
  139.9790   76.7220  219.8050 C   0  0  1  0  0  0  0  0  0  0  0  0
  140.9390   76.5840  218.6290 C   0  0  0  0  0  0  0  0  0  0  0  0
  142.2490   76.3550  219.3090 C   0  0  0  0  0  0  0  0  0  0  0  0
  141.9600   75.6630  220.6220 C   0  0  0  0  0  0  0  0  0  0  0  0
  140.5170   75.7370  220.7210 N   0  0  0  0  0  0  0  0  0  0  0  0
  139.7010   74.9480  221.6040 C   0  0  0  0  0  0  0  0  0  0  0  0
  139.1920   75.4360  222.6540 O   0  0  0  0  0  0  0  0  0  0  0  0
  139.4390   73.5110  221.2790 C   0  0  0  0  0  0  0  0  0  0  0  0
  139.5280   72.7520  222.5120 N   0  0  0  0  0  0  0  0  0  0  0  0
  139.7100   71.3600  222.4950 C   0  0  0  0  0  0  0  0  0  0  0  0
  139.8060   70.6950  221.4080 O   0  0  0  0  0  0  0  0  0  0  0  0
  139.8020   70.5720  223.7260 C   0  0  0  0  0  0  0  0  0  0  0  0
  139.2580   69.2990  223.7450 C   0  0  0  0  0  0  0  0  0  0  0  0
  139.3120   68.4950  224.8850 C   0  0  0  0  0  0  0  0  0  0  0  0
  139.9240   68.9820  226.0290 C   0  0  0  0  0  0  0  0  0  0  0  0
  139.9630   68.1590  227.1480 C   0  0  0  0  0  0  0  0  0  0  0  0
  140.5700   68.6320  228.2960 C   0  0  0  0  0  0  0  0  0  0  0  0
  140.5910   67.8060  229.3700 F   0  0  0  0  0  0  0  0  0  0  0  0
  141.1250   69.9010  228.3140 C   0  0  0  0  0  0  0  0  0  0  0  0
  141.0770   70.7140  227.1770 C   0  0  0  0  0  0  0  0  0  0  0  0
  140.4670   70.2450  226.0200 C   0  0  0  0  0  0  0  0  0  0  0  0
  140.3980   71.0250  224.8660 C   0  0  0  0  0  0  0  0  0  0  0  0
  140.9170   80.1500  222.7480 C   0  0  0  0  0  0  0  0  0  0  0  0
  141.0520   81.2190  223.6400 C   0  0  0  0  0  0  0  0  0  0  0  0
  142.2790   81.5660  224.1680 C   0  0  0  0  0  0  0  0  0  0  0  0
  143.4180   80.8720  223.8390 C   0  0  0  0  0  0  0  0  0  0  0  0
  143.3080   79.8050  222.9540 C   0  0  0  0  0  0  0  0  0  0  0  0
  142.0810   79.4760  222.4400 C   0  0  0  0  0  0  0  0  0  0  0  0
  139.0737   79.8334  224.2543 H   0  0  0  0  0  0  0  0  0  0  0  0
  138.0433   80.8508  223.1915 H   0  0  0  0  0  0  0  0  0  0  0  0
  137.8460   79.0654  223.1915 H   0  0  0  0  0  0  0  0  0  0  0  0
  139.3742   80.4508  221.3373 H   0  0  0  0  0  0  0  0  0  0  0  0
  139.2410   77.6770  222.3070 H   0  0  0  0  0  0  0  0  0  0  0  0
  138.9188   76.5542  219.5644 H   0  0  0  0  0  0  0  0  0  0  0  0
  140.6670   75.7299  217.9914 H   0  0  0  0  0  0  0  0  0  0  0  0
  140.9390   77.4551  217.9573 H   0  0  0  0  0  0  0  0  0  0  0  0
  142.8922   75.7197  218.6824 H   0  0  0  0  0  0  0  0  0  0  0  0
  142.7714   77.3081  219.4782 H   0  0  0  0  0  0  0  0  0  0  0  0
  142.3014   74.6175  220.6010 H   0  0  0  0  0  0  0  0  0  0  0  0
  142.4765   76.1240  221.4768 H   0  0  0  0  0  0  0  0  0  0  0  0
  138.4339   73.4031  220.8453 H   0  0  0  0  0  0  0  0  0  0  0  0
  140.1744   73.1430  220.5484 H   0  0  0  0  0  0  0  0  0  0  0  0
  139.4510   73.2890  223.4040 H   0  0  0  0  0  0  0  0  0  0  0  0
  138.7706   68.9111  222.8384 H   0  0  0  0  0  0  0  0  0  0  0  0
  138.8736   67.4862  224.8753 H   0  0  0  0  0  0  0  0  0  0  0  0
  139.5202   67.1524  227.1207 H   0  0  0  0  0  0  0  0  0  0  0  0
  141.6075   70.2724  229.2301 H   0  0  0  0  0  0  0  0  0  0  0  0
  141.5203   71.7205  227.1986 H   0  0  0  0  0  0  0  0  0  0  0  0
  140.8365   72.0338  224.8755 H   0  0  0  0  0  0  0  0  0  0  0  0
  140.1604   81.7959  223.9270 H   0  0  0  0  0  0  0  0  0  0  0  0
  142.3462   82.4141  224.8653 H   0  0  0  0  0  0  0  0  0  0  0  0
  144.3925   81.1532  224.2649 H   0  0  0  0  0  0  0  0  0  0  0  0
  144.2003   79.2287  222.6683 H   0  0  0  0  0  0  0  0  0  0  0  0
  142.0206   78.6272  221.7430 H   0  0  0  0  0  0  0  0  0  0  0  0
  1  2  1  0
  2  3  1  0
  3  4  1  0
  4  5  2  0
  4  6  1  0
  6  7  1  0
  7  8  1  0
  8  9  1  0
  9 10  1  0
 10 11  1  0
 11 12  2  0
 11 13  1  0
 13 14  1  0
 14 15  1  0
 15 16  2  0
 15 17  1  0
 17 18  2  0
 18 19  1  0
 19 20  2  0
 20 21  1  0
 21 22  2  0
 22 23  1  0
 22 24  1  0
 24 25  2  0
 25 26  1  0
 26 27  2  0
  2 28  1  0
 28 29  2  0
 29 30  1  0
 30 31  2  0
 31 32  1  0
 32 33  2  0
 10  6  1  0
 27 17  1  0
 33 28  1  0
 26 20  1  0
  1 34  1  0
  1 35  1  0
  1 36  1  0
  2 37  1  6
  3 38  1  0
  6 39  1  6
  7 40  1  0
  7 41  1  0
  8 42  1  0
  8 43  1  0
  9 44  1  0
  9 45  1  0
 13 46  1  0
 13 47  1  0
 14 48  1  0
 18 49  1  0
 19 50  1  0
 21 51  1  0
 24 52  1  0
 25 53  1  0
 27 54  1  0
 29 55  1  0
 30 56  1  0
 31 57  1  0
 32 58  1  0
 33 59  1  0
M  END
>  <smiles>  (29) 
C[C@H](NC(=O)[C@H]1CCCN1C(=O)CNC(=O)c1ccc2cc(F)ccc2c1)c1ccccc1

>  <score_type>  (29) 
oracle

>  <origin>  (29) 
autodockgpu

>  <m_score__min__energy>  (29) 
-9.5099999999999998

>  <m_primary>  (29) 
energy

>  <rmsd>  (29) 
2.716817877068391

>  <m_score__min__rmsd>  (29) 
2.716817877068391

>  <meeko>  (29) 
{"free_energy": -9.02, "intermolecular_energy": -11.1, "internal_energy": -2.76, "cluster_size": 35, "cluster_id": 1, "rank_in_cluster": 8}

>  <energy>  (29) 
-8.48

>  <cluster_rmsd>  (29) 
1.87

>  <cluster>  (29) 
1

$$$$

     RDKit          3D

 59 62  0  0  0  0  0  0  0  0999 V2000
  144.8230   74.2140  220.4630 C   0  0  0  0  0  0  0  0  0  0  0  0
  143.4870   74.0610  219.7840 C   0  0  2  0  0  0  0  0  0  0  0  0
  142.4910   74.7450  220.5690 N   0  0  0  0  0  0  0  0  0  0  0  0
  142.2570   76.1420  220.4690 C   0  0  0  0  0  0  0  0  0  0  0  0
  142.9490   76.8150  219.6610 O   0  0  0  0  0  0  0  0  0  0  0  0
  141.2390   76.8650  221.2660 C   0  0  1  0  0  0  0  0  0  0  0  0
  141.2600   78.3600  220.9680 C   0  0  0  0  0  0  0  0  0  0  0  0
  140.4280   78.4550  219.7320 C   0  0  0  0  0  0  0  0  0  0  0  0
  139.4250   77.3240  219.7780 C   0  0  0  0  0  0  0  0  0  0  0  0
  139.8770   76.5280  220.9000 N   0  0  0  0  0  0  0  0  0  0  0  0
  139.0990   75.5300  221.5810 C   0  0  0  0  0  0  0  0  0  0  0  0
  138.3750   75.8160  222.5780 O   0  0  0  0  0  0  0  0  0  0  0  0
  139.1410   74.1110  221.1070 C   0  0  0  0  0  0  0  0  0  0  0  0
  139.1040   73.2490  222.2730 N   0  0  0  0  0  0  0  0  0  0  0  0
  140.1410   72.3410  222.5370 C   0  0  0  0  0  0  0  0  0  0  0  0
  141.1610   72.2260  221.7750 O   0  0  0  0  0  0  0  0  0  0  0  0
  140.1260   71.4610  223.7070 C   0  0  0  0  0  0  0  0  0  0  0  0
  139.5920   70.1890  223.5780 C   0  0  0  0  0  0  0  0  0  0  0  0
  139.5470   69.3010  224.6520 C   0  0  0  0  0  0  0  0  0  0  0  0
  140.0490   69.6970  225.8820 C   0  0  0  0  0  0  0  0  0  0  0  0
  139.9910   68.7900  226.9330 C   0  0  0  0  0  0  0  0  0  0  0  0
  140.4870   69.1720  228.1650 C   0  0  0  0  0  0  0  0  0  0  0  0
  140.4160   68.2660  229.1690 F   0  0  0  0  0  0  0  0  0  0  0  0
  141.0300   70.4360  228.3310 C   0  0  0  0  0  0  0  0  0  0  0  0
  141.0800   71.3340  227.2610 C   0  0  0  0  0  0  0  0  0  0  0  0
  140.5820   70.9570  226.0190 C   0  0  0  0  0  0  0  0  0  0  0  0
  140.6130   71.8240  224.9280 C   0  0  0  0  0  0  0  0  0  0  0  0
  143.2060   72.6050  219.6540 C   0  0  0  0  0  0  0  0  0  0  0  0
  142.0730   72.1370  218.9790 C   0  0  0  0  0  0  0  0  0  0  0  0
  141.8120   70.7870  218.8590 C   0  0  0  0  0  0  0  0  0  0  0  0
  142.6570   69.8490  219.3980 C   0  0  0  0  0  0  0  0  0  0  0  0
  143.7900   70.2890  220.0740 C   0  0  0  0  0  0  0  0  0  0  0  0
  144.0310   71.6340  220.1820 C   0  0  0  0  0  0  0  0  0  0  0  0
  144.6838   74.1981  221.5540 H   0  0  0  0  0  0  0  0  0  0  0  0
  145.4826   73.3855  220.1654 H   0  0  0  0  0  0  0  0  0  0  0  0
  145.2782   75.1701  220.1654 H   0  0  0  0  0  0  0  0  0  0  0  0
  143.4794   74.5061  218.7781 H   0  0  0  0  0  0  0  0  0  0  0  0
  141.9260   74.1740  221.2340 H   0  0  0  0  0  0  0  0  0  0  0  0
  141.4893   76.5917  222.3017 H   0  0  0  0  0  0  0  0  0  0  0  0
  140.8143   78.9359  221.7924 H   0  0  0  0  0  0  0  0  0  0  0  0
  142.2740   78.7686  220.8464 H   0  0  0  0  0  0  0  0  0  0  0  0
  139.9042   79.4219  219.7040 H   0  0  0  0  0  0  0  0  0  0  0  0
  141.0567   78.3821  218.8323 H   0  0  0  0  0  0  0  0  0  0  0  0
  138.4076   77.7055  219.9492 H   0  0  0  0  0  0  0  0  0  0  0  0
  139.3724   76.7549  218.8381 H   0  0  0  0  0  0  0  0  0  0  0  0
  138.2727   73.9063  220.4634 H   0  0  0  0  0  0  0  0  0  0  0  0
  140.0567   73.9288  220.5253 H   0  0  0  0  0  0  0  0  0  0  0  0
  138.2740   73.3380  222.9000 H   0  0  0  0  0  0  0  0  0  0  0  0
  139.1933   69.8716  222.6032 H   0  0  0  0  0  0  0  0  0  0  0  0
  139.1175   68.2964  224.5246 H   0  0  0  0  0  0  0  0  0  0  0  0
  139.5593   67.7888  226.7874 H   0  0  0  0  0  0  0  0  0  0  0  0
  141.4250   70.7352  229.3130 H   0  0  0  0  0  0  0  0  0  0  0  0
  141.5120   72.3358  227.4012 H   0  0  0  0  0  0  0  0  0  0  0  0
  141.0422   72.8288  225.0554 H   0  0  0  0  0  0  0  0  0  0  0  0
  141.3748   72.8613  218.5341 H   0  0  0  0  0  0  0  0  0  0  0  0
  140.9107   70.4568  218.3218 H   0  0  0  0  0  0  0  0  0  0  0  0
  142.4430   68.7747  219.2976 H   0  0  0  0  0  0  0  0  0  0  0  0
  144.4871   69.5634  220.5185 H   0  0  0  0  0  0  0  0  0  0  0  0
  144.9340   71.9574  220.7205 H   0  0  0  0  0  0  0  0  0  0  0  0
  1  2  1  0
  2  3  1  0
  3  4  1  0
  4  5  2  0
  4  6  1  0
  6  7  1  0
  7  8  1  0
  8  9  1  0
  9 10  1  0
 10 11  1  0
 11 12  2  0
 11 13  1  0
 13 14  1  0
 14 15  1  0
 15 16  2  0
 15 17  1  0
 17 18  2  0
 18 19  1  0
 19 20  2  0
 20 21  1  0
 21 22  2  0
 22 23  1  0
 22 24  1  0
 24 25  2  0
 25 26  1  0
 26 27  2  0
  2 28  1  0
 28 29  2  0
 29 30  1  0
 30 31  2  0
 31 32  1  0
 32 33  2  0
 10  6  1  0
 27 17  1  0
 33 28  1  0
 26 20  1  0
  1 34  1  0
  1 35  1  0
  1 36  1  0
  2 37  1  6
  3 38  1  0
  6 39  1  1
  7 40  1  0
  7 41  1  0
  8 42  1  0
  8 43  1  0
  9 44  1  0
  9 45  1  0
 13 46  1  0
 13 47  1  0
 14 48  1  0
 18 49  1  0
 19 50  1  0
 21 51  1  0
 24 52  1  0
 25 53  1  0
 27 54  1  0
 29 55  1  0
 30 56  1  0
 31 57  1  0
 32 58  1  0
 33 59  1  0
M  END
>  <smiles>  (30) 
C[C@H](NC(=O)[C@H]1CCCN1C(=O)CNC(=O)c1ccc2cc(F)ccc2c1)c1ccccc1

>  <score_type>  (30) 
oracle

>  <origin>  (30) 
autodockgpu

>  <m_score__min__energy>  (30) 
-9.5099999999999998

>  <m_primary>  (30) 
energy

>  <rmsd>  (30) 
5.587700137839382

>  <m_score__min__rmsd>  (30) 
5.587700137839382

>  <meeko>  (30) 
{"free_energy": -7.47, "intermolecular_energy": -9.56, "internal_energy": -3.19, "cluster_size": 2, "cluster_id": 4, "rank_in_cluster": 2}

>  <energy>  (30) 
-8.47

>  <cluster_rmsd>  (30) 
1.66

>  <cluster>  (30) 
1

$$$$

     RDKit          3D

 59 62  0  0  0  0  0  0  0  0999 V2000
  141.3350   78.8760  219.7720 C   0  0  0  0  0  0  0  0  0  0  0  0
  141.8040   78.3410  221.1000 C   0  0  2  0  0  0  0  0  0  0  0  0
  140.8540   77.3630  221.5640 N   0  0  0  0  0  0  0  0  0  0  0  0
  139.5930   77.7160  222.1160 C   0  0  0  0  0  0  0  0  0  0  0  0
  139.2900   78.9340  222.2030 O   0  0  0  0  0  0  0  0  0  0  0  0
  138.6010   76.7270  222.5990 C   0  0  1  0  0  0  0  0  0  0  0  0
  137.2100   77.3420  222.7000 C   0  0  0  0  0  0  0  0  0  0  0  0
  136.7050   77.2310  221.2990 C   0  0  0  0  0  0  0  0  0  0  0  0
  137.3660   76.0220  220.6780 C   0  0  0  0  0  0  0  0  0  0  0  0
  138.3600   75.6480  221.6610 N   0  0  0  0  0  0  0  0  0  0  0  0
  139.0360   74.3800  221.7250 C   0  0  0  0  0  0  0  0  0  0  0  0
  140.2830   74.3000  221.9200 O   0  0  0  0  0  0  0  0  0  0  0  0
  138.2520   73.1170  221.5570 C   0  0  0  0  0  0  0  0  0  0  0  0
  138.4340   72.3160  222.7520 N   0  0  0  0  0  0  0  0  0  0  0  0
  139.4800   71.3840  222.8480 C   0  0  0  0  0  0  0  0  0  0  0  0
  140.3170   71.1940  221.9020 O   0  0  0  0  0  0  0  0  0  0  0  0
  139.6830   70.5640  224.0450 C   0  0  0  0  0  0  0  0  0  0  0  0
  139.2330   69.2550  224.0400 C   0  0  0  0  0  0  0  0  0  0  0  0
  139.3960   68.4190  225.1460 C   0  0  0  0  0  0  0  0  0  0  0  0
  140.0230   68.9100  226.2800 C   0  0  0  0  0  0  0  0  0  0  0  0
  140.1710   68.0550  227.3650 C   0  0  0  0  0  0  0  0  0  0  0  0
  140.7940   68.5310  228.5030 C   0  0  0  0  0  0  0  0  0  0  0  0
  140.9230   67.6740  229.5440 F   0  0  0  0  0  0  0  0  0  0  0  0
  141.2580   69.8360  228.5440 C   0  0  0  0  0  0  0  0  0  0  0  0
  141.1010   70.6810  227.4410 C   0  0  0  0  0  0  0  0  0  0  0  0
  140.4740   70.2090  226.2940 C   0  0  0  0  0  0  0  0  0  0  0  0
  140.2970   71.0210  225.1740 C   0  0  0  0  0  0  0  0  0  0  0  0
  141.9360   79.4920  222.0350 C   0  0  0  0  0  0  0  0  0  0  0  0
  142.4820   79.3360  223.3130 C   0  0  0  0  0  0  0  0  0  0  0  0
  142.6040   80.4040  224.1800 C   0  0  0  0  0  0  0  0  0  0  0  0
  142.1940   81.6630  223.8190 C   0  0  0  0  0  0  0  0  0  0  0  0
  141.6480   81.8440  222.5530 C   0  0  0  0  0  0  0  0  0  0  0  0
  141.5350   80.7710  221.7070 C   0  0  0  0  0  0  0  0  0  0  0  0
  140.6182   79.6936  219.9386 H   0  0  0  0  0  0  0  0  0  0  0  0
  142.1975   79.2546  219.2039 H   0  0  0  0  0  0  0  0  0  0  0  0
  140.8468   78.0704  219.2039 H   0  0  0  0  0  0  0  0  0  0  0  0
  142.7819   77.8431  221.0238 H   0  0  0  0  0  0  0  0  0  0  0  0
  141.1190   76.3580  221.4860 H   0  0  0  0  0  0  0  0  0  0  0  0
  139.0310   76.3837  223.5515 H   0  0  0  0  0  0  0  0  0  0  0  0
  136.5749   76.7762  223.3975 H   0  0  0  0  0  0  0  0  0  0  0  0
  137.2131   78.3726  223.0846 H   0  0  0  0  0  0  0  0  0  0  0  0
  135.6125   77.1030  221.3016 H   0  0  0  0  0  0  0  0  0  0  0  0
  136.9402   78.1406  220.7268 H   0  0  0  0  0  0  0  0  0  0  0  0
  136.6393   75.2109  220.5234 H   0  0  0  0  0  0  0  0  0  0  0  0
  137.7954   76.2266  219.6862 H   0  0  0  0  0  0  0  0  0  0  0  0
  137.1860   73.3538  221.4248 H   0  0  0  0  0  0  0  0  0  0  0  0
  138.5991   72.5661  220.6704 H   0  0  0  0  0  0  0  0  0  0  0  0
  137.7540   72.4670  223.5300 H   0  0  0  0  0  0  0  0  0  0  0  0
  138.7341   68.8634  223.1413 H   0  0  0  0  0  0  0  0  0  0  0  0
  139.0307   67.3818  225.1176 H   0  0  0  0  0  0  0  0  0  0  0  0
  139.7999   67.0205  227.3192 H   0  0  0  0  0  0  0  0  0  0  0  0
  141.7539   70.2103  229.4517 H   0  0  0  0  0  0  0  0  0  0  0  0
  141.4724   71.7156  227.4810 H   0  0  0  0  0  0  0  0  0  0  0  0
  140.6625   72.0581  225.2019 H   0  0  0  0  0  0  0  0  0  0  0  0
  142.8218   78.3405  223.6348 H   0  0  0  0  0  0  0  0  0  0  0  0
  143.0377   80.2427  225.1780 H   0  0  0  0  0  0  0  0  0  0  0  0
  142.2949   82.5090  224.5148 H   0  0  0  0  0  0  0  0  0  0  0  0
  141.3093   82.8404  222.2327 H   0  0  0  0  0  0  0  0  0  0  0  0
  141.1002   80.9391  220.7107 H   0  0  0  0  0  0  0  0  0  0  0  0
  1  2  1  0
  2  3  1  0
  3  4  1  0
  4  5  2  0
  4  6  1  0
  6  7  1  0
  7  8  1  0
  8  9  1  0
  9 10  1  0
 10 11  1  0
 11 12  2  0
 11 13  1  0
 13 14  1  0
 14 15  1  0
 15 16  2  0
 15 17  1  0
 17 18  2  0
 18 19  1  0
 19 20  2  0
 20 21  1  0
 21 22  2  0
 22 23  1  0
 22 24  1  0
 24 25  2  0
 25 26  1  0
 26 27  2  0
  2 28  1  0
 28 29  2  0
 29 30  1  0
 30 31  2  0
 31 32  1  0
 32 33  2  0
 10  6  1  0
 27 17  1  0
 33 28  1  0
 26 20  1  0
  1 34  1  0
  1 35  1  0
  1 36  1  0
  2 37  1  6
  3 38  1  0
  6 39  1  1
  7 40  1  0
  7 41  1  0
  8 42  1  0
  8 43  1  0
  9 44  1  0
  9 45  1  0
 13 46  1  0
 13 47  1  0
 14 48  1  0
 18 49  1  0
 19 50  1  0
 21 51  1  0
 24 52  1  0
 25 53  1  0
 27 54  1  0
 29 55  1  0
 30 56  1  0
 31 57  1  0
 32 58  1  0
 33 59  1  0
M  END
>  <smiles>  (31) 
C[C@H](NC(=O)[C@H]1CCCN1C(=O)CNC(=O)c1ccc2cc(F)ccc2c1)c1ccccc1

>  <score_type>  (31) 
oracle

>  <origin>  (31) 
autodockgpu

>  <m_score__min__energy>  (31) 
-9.5099999999999998

>  <m_primary>  (31) 
energy

>  <rmsd>  (31) 
3.0512721992283405

>  <m_score__min__rmsd>  (31) 
3.0512721992283405

>  <meeko>  (31) 
{"free_energy": -9.44, "intermolecular_energy": -11.53, "internal_energy": -2.16, "cluster_size": 35, "cluster_id": 1, "rank_in_cluster": 3}

>  <energy>  (31) 
-8.47

>  <cluster_rmsd>  (31) 
1.65

>  <cluster>  (31) 
1

$$$$

     RDKit          3D

 59 62  0  0  0  0  0  0  0  0999 V2000
  141.4950   77.5210  220.7180 C   0  0  0  0  0  0  0  0  0  0  0  0
  141.0620   77.5080  222.1610 C   0  0  2  0  0  0  0  0  0  0  0  0
  139.6720   77.1390  222.2210 N   0  0  0  0  0  0  0  0  0  0  0  0
  139.2340   75.7890  222.2690 C   0  0  0  0  0  0  0  0  0  0  0  0
  140.0970   74.8720  222.2580 O   0  0  0  0  0  0  0  0  0  0  0  0
  137.8100   75.3870  222.3330 C   0  0  1  0  0  0  0  0  0  0  0  0
  136.9120   76.5750  222.6600 C   0  0  0  0  0  0  0  0  0  0  0  0
  136.7200   77.2120  221.3230 C   0  0  0  0  0  0  0  0  0  0  0  0
  136.8150   76.1160  220.2860 C   0  0  0  0  0  0  0  0  0  0  0  0
  137.2700   74.9760  221.0520 N   0  0  0  0  0  0  0  0  0  0  0  0
  137.2070   73.6040  220.6240 C   0  0  0  0  0  0  0  0  0  0  0  0
  136.1040   73.0260  220.4050 O   0  0  0  0  0  0  0  0  0  0  0  0
  138.4740   72.8330  220.4290 C   0  0  0  0  0  0  0  0  0  0  0  0
  138.9990   72.4970  221.7390 N   0  0  0  0  0  0  0  0  0  0  0  0
  138.9360   71.1840  222.2310 C   0  0  0  0  0  0  0  0  0  0  0  0
  138.4200   70.2260  221.5610 O   0  0  0  0  0  0  0  0  0  0  0  0
  139.4590   70.8220  223.5510 C   0  0  0  0  0  0  0  0  0  0  0  0
  140.1450   71.7780  224.2820 C   0  0  0  0  0  0  0  0  0  0  0  0
  140.6670   71.4990  225.5450 C   0  0  0  0  0  0  0  0  0  0  0  0
  140.4990   70.2330  226.0840 C   0  0  0  0  0  0  0  0  0  0  0  0
  141.0300   69.9850  227.3440 C   0  0  0  0  0  0  0  0  0  0  0  0
  140.8690   68.7280  227.8940 C   0  0  0  0  0  0  0  0  0  0  0  0
  141.3990   68.5170  229.1230 F   0  0  0  0  0  0  0  0  0  0  0  0
  140.1880   67.7470  227.1920 C   0  0  0  0  0  0  0  0  0  0  0  0
  139.6600   68.0160  225.9260 C   0  0  0  0  0  0  0  0  0  0  0  0
  139.8180   69.2780  225.3660 C   0  0  0  0  0  0  0  0  0  0  0  0
  139.3070   69.5850  224.1060 C   0  0  0  0  0  0  0  0  0  0  0  0
  141.3160   78.8630  222.7240 C   0  0  0  0  0  0  0  0  0  0  0  0
  140.2680   79.6760  223.1680 C   0  0  0  0  0  0  0  0  0  0  0  0
  140.5020   80.9330  223.6900 C   0  0  0  0  0  0  0  0  0  0  0  0
  141.7760   81.4330  223.7940 C   0  0  0  0  0  0  0  0  0  0  0  0
  142.8350   80.6430  223.3580 C   0  0  0  0  0  0  0  0  0  0  0  0
  142.5810   79.3980  222.8440 C   0  0  0  0  0  0  0  0  0  0  0  0
  142.5932   77.5540  220.6650 H   0  0  0  0  0  0  0  0  0  0  0  0
  141.1309   76.6115  220.2177 H   0  0  0  0  0  0  0  0  0  0  0  0
  141.0770   78.4070  220.2177 H   0  0  0  0  0  0  0  0  0  0  0  0
  141.6245   76.7743  222.7571 H   0  0  0  0  0  0  0  0  0  0  0  0
  138.9690   77.9090  222.2290 H   0  0  0  0  0  0  0  0  0  0  0  0
  137.8100   74.5810  223.0815 H   0  0  0  0  0  0  0  0  0  0  0  0
  135.9526   76.2434  223.0839 H   0  0  0  0  0  0  0  0  0  0  0  0
  137.3396   77.2542  223.4122 H   0  0  0  0  0  0  0  0  0  0  0  0
  135.7319   77.6928  221.2733 H   0  0  0  0  0  0  0  0  0  0  0  0
  137.4836   77.9837  221.1456 H   0  0  0  0  0  0  0  0  0  0  0  0
  135.8339   75.9185  219.8295 H   0  0  0  0  0  0  0  0  0  0  0  0
  137.4837   76.3692  219.4501 H   0  0  0  0  0  0  0  0  0  0  0  0
  138.2680   71.9132  219.8620 H   0  0  0  0  0  0  0  0  0  0  0  0
  139.2044   73.4331  219.8664 H   0  0  0  0  0  0  0  0  0  0  0  0
  139.4220   73.2760  222.2920 H   0  0  0  0  0  0  0  0  0  0  0  0
  140.2816   72.7827  223.8556 H   0  0  0  0  0  0  0  0  0  0  0  0
  141.2063   72.2754  226.1074 H   0  0  0  0  0  0  0  0  0  0  0  0
  141.5673   70.7731  227.8920 H   0  0  0  0  0  0  0  0  0  0  0  0
  140.0617   66.7479  227.6346 H   0  0  0  0  0  0  0  0  0  0  0  0
  139.1212   67.2313  225.3748 H   0  0  0  0  0  0  0  0  0  0  0  0
  138.7666   68.8090  223.5440 H   0  0  0  0  0  0  0  0  0  0  0  0
  139.2344   79.3059  223.0999 H   0  0  0  0  0  0  0  0  0  0  0  0
  139.6524   81.5443  224.0284 H   0  0  0  0  0  0  0  0  0  0  0  0
  141.9555   82.4345  224.2121 H   0  0  0  0  0  0  0  0  0  0  0  0
  143.8681   81.0147  223.4253 H   0  0  0  0  0  0  0  0  0  0  0  0
  143.4349   78.7913  222.5082 H   0  0  0  0  0  0  0  0  0  0  0  0
  1  2  1  0
  2  3  1  0
  3  4  1  0
  4  5  2  0
  4  6  1  0
  6  7  1  0
  7  8  1  0
  8  9  1  0
  9 10  1  0
 10 11  1  0
 11 12  2  0
 11 13  1  0
 13 14  1  0
 14 15  1  0
 15 16  2  0
 15 17  1  0
 17 18  2  0
 18 19  1  0
 19 20  2  0
 20 21  1  0
 21 22  2  0
 22 23  1  0
 22 24  1  0
 24 25  2  0
 25 26  1  0
 26 27  2  0
  2 28  1  0
 28 29  2  0
 29 30  1  0
 30 31  2  0
 31 32  1  0
 32 33  2  0
 10  6  1  0
 27 17  1  0
 33 28  1  0
 26 20  1  0
  1 34  1  0
  1 35  1  0
  1 36  1  0
  2 37  1  1
  3 38  1  0
  6 39  1  1
  7 40  1  0
  7 41  1  0
  8 42  1  0
  8 43  1  0
  9 44  1  0
  9 45  1  0
 13 46  1  0
 13 47  1  0
 14 48  1  0
 18 49  1  0
 19 50  1  0
 21 51  1  0
 24 52  1  0
 25 53  1  0
 27 54  1  0
 29 55  1  0
 30 56  1  0
 31 57  1  0
 32 58  1  0
 33 59  1  0
M  END
>  <smiles>  (32) 
C[C@H](NC(=O)[C@H]1CCCN1C(=O)CNC(=O)c1ccc2cc(F)ccc2c1)c1ccccc1

>  <score_type>  (32) 
oracle

>  <origin>  (32) 
autodockgpu

>  <m_score__min__energy>  (32) 
-9.5099999999999998

>  <m_primary>  (32) 
energy

>  <rmsd>  (32) 
3.647821800338769

>  <m_score__min__rmsd>  (32) 
3.647821800338769

>  <meeko>  (32) 
{"free_energy": -8.68, "intermolecular_energy": -10.77, "internal_energy": -2.47, "cluster_size": 11, "cluster_id": 2, "rank_in_cluster": 7}

>  <energy>  (32) 
-8.35

>  <cluster_rmsd>  (32) 
1.17

>  <cluster>  (32) 
1

$$$$

     RDKit          3D

 59 62  0  0  0  0  0  0  0  0999 V2000
  139.0460   79.8850  220.3830 C   0  0  0  0  0  0  0  0  0  0  0  0
  140.3810   79.1920  220.2920 C   0  0  2  0  0  0  0  0  0  0  0  0
  140.1570   77.7830  220.0950 N   0  0  0  0  0  0  0  0  0  0  0  0
  141.1460   76.9130  219.5630 C   0  0  0  0  0  0  0  0  0  0  0  0
  142.2670   77.3910  219.2500 O   0  0  0  0  0  0  0  0  0  0  0  0
  140.9370   75.4620  219.3510 C   0  0  1  0  0  0  0  0  0  0  0  0
  142.2600   74.7050  219.3540 C   0  0  0  0  0  0  0  0  0  0  0  0
  142.5130   74.5030  220.8120 C   0  0  0  0  0  0  0  0  0  0  0  0
  141.1660   74.4310  221.4960 C   0  0  0  0  0  0  0  0  0  0  0  0
  140.2440   74.8140  220.4480 N   0  0  0  0  0  0  0  0  0  0  0  0
  138.8240   74.5930  220.4650 C   0  0  0  0  0  0  0  0  0  0  0  0
  138.0010   75.5390  220.2950 O   0  0  0  0  0  0  0  0  0  0  0  0
  138.2940   73.2120  220.6880 C   0  0  0  0  0  0  0  0  0  0  0  0
  138.7160   72.7800  222.0070 N   0  0  0  0  0  0  0  0  0  0  0  0
  139.2580   71.5010  222.2130 C   0  0  0  0  0  0  0  0  0  0  0  0
  139.4070   70.6600  221.2630 O   0  0  0  0  0  0  0  0  0  0  0  0
  139.6900   71.0430  223.5350 C   0  0  0  0  0  0  0  0  0  0  0  0
  140.4650   71.8870  224.3130 C   0  0  0  0  0  0  0  0  0  0  0  0
  140.9100   71.5130  225.5810 C   0  0  0  0  0  0  0  0  0  0  0  0
  140.5690   70.2660  226.0790 C   0  0  0  0  0  0  0  0  0  0  0  0
  141.0260   69.9210  227.3450 C   0  0  0  0  0  0  0  0  0  0  0  0
  140.6940   68.6800  227.8530 C   0  0  0  0  0  0  0  0  0  0  0  0
  141.1540   68.3730  229.0900 F   0  0  0  0  0  0  0  0  0  0  0  0
  139.9200   67.8090  227.1040 C   0  0  0  0  0  0  0  0  0  0  0  0
  139.4690   68.1740  225.8320 C   0  0  0  0  0  0  0  0  0  0  0  0
  139.7990   69.4210  225.3140 C   0  0  0  0  0  0  0  0  0  0  0  0
  139.3690   69.8210  224.0500 C   0  0  0  0  0  0  0  0  0  0  0  0
  141.1270   79.4770  221.5490 C   0  0  0  0  0  0  0  0  0  0  0  0
  141.1200   78.5790  222.6220 C   0  0  0  0  0  0  0  0  0  0  0  0
  141.8120   78.8440  223.7870 C   0  0  0  0  0  0  0  0  0  0  0  0
  142.5360   80.0010  223.9380 C   0  0  0  0  0  0  0  0  0  0  0  0
  142.5580   80.9090  222.8850 C   0  0  0  0  0  0  0  0  0  0  0  0
  141.8650   80.6280  221.7360 C   0  0  0  0  0  0  0  0  0  0  0  0
  138.7767   80.0248  221.4403 H   0  0  0  0  0  0  0  0  0  0  0  0
  139.1072   80.8652  219.8875 H   0  0  0  0  0  0  0  0  0  0  0  0
  138.2796   79.2709  219.8875 H   0  0  0  0  0  0  0  0  0  0  0  0
  140.9790   79.5539  219.4427 H   0  0  0  0  0  0  0  0  0  0  0  0
  139.2230   77.4020  220.3580 H   0  0  0  0  0  0  0  0  0  0  0  0
  140.3788   75.4240  218.4039 H   0  0  0  0  0  0  0  0  0  0  0  0
  142.1686   73.7426  218.8292 H   0  0  0  0  0  0  0  0  0  0  0  0
  143.0718   75.2383  218.8377 H   0  0  0  0  0  0  0  0  0  0  0  0
  143.0670   73.5662  220.9718 H   0  0  0  0  0  0  0  0  0  0  0  0
  143.1141   75.3284  221.2212 H   0  0  0  0  0  0  0  0  0  0  0  0
  140.9578   73.4111  221.8516 H   0  0  0  0  0  0  0  0  0  0  0  0
  141.0988   75.0731  222.3866 H   0  0  0  0  0  0  0  0  0  0  0  0
  137.1955   73.2195  220.6309 H   0  0  0  0  0  0  0  0  0  0  0  0
  138.6778   72.5255  219.9190 H   0  0  0  0  0  0  0  0  0  0  0  0
  138.5970   73.4630  222.7880 H   0  0  0  0  0  0  0  0  0  0  0  0
  140.7367   72.8781  223.9207 H   0  0  0  0  0  0  0  0  0  0  0  0
  141.5253   72.2011  226.1793 H   0  0  0  0  0  0  0  0  0  0  0  0
  141.6394   70.6215  227.9306 H   0  0  0  0  0  0  0  0  0  0  0  0
  139.6581   66.8222  227.5133 H   0  0  0  0  0  0  0  0  0  0  0  0
  138.8550   67.4767  225.2431 H   0  0  0  0  0  0  0  0  0  0  0  0
  138.7542   69.1328  223.4514 H   0  0  0  0  0  0  0  0  0  0  0  0
  140.5509   77.6417  222.5355 H   0  0  0  0  0  0  0  0  0  0  0  0
  141.7828   78.1145  224.6098 H   0  0  0  0  0  0  0  0  0  0  0  0
  143.0851   80.2046  224.8691 H   0  0  0  0  0  0  0  0  0  0  0  0
  143.1274   81.8460  222.9733 H   0  0  0  0  0  0  0  0  0  0  0  0
  141.8991   81.3614  220.9169 H   0  0  0  0  0  0  0  0  0  0  0  0
  1  2  1  0
  2  3  1  0
  3  4  1  0
  4  5  2  0
  4  6  1  0
  6  7  1  0
  7  8  1  0
  8  9  1  0
  9 10  1  0
 10 11  1  0
 11 12  2  0
 11 13  1  0
 13 14  1  0
 14 15  1  0
 15 16  2  0
 15 17  1  0
 17 18  2  0
 18 19  1  0
 19 20  2  0
 20 21  1  0
 21 22  2  0
 22 23  1  0
 22 24  1  0
 24 25  2  0
 25 26  1  0
 26 27  2  0
  2 28  1  0
 28 29  2  0
 29 30  1  0
 30 31  2  0
 31 32  1  0
 32 33  2  0
 10  6  1  0
 27 17  1  0
 33 28  1  0
 26 20  1  0
  1 34  1  0
  1 35  1  0
  1 36  1  0
  2 37  1  6
  3 38  1  0
  6 39  1  6
  7 40  1  0
  7 41  1  0
  8 42  1  0
  8 43  1  0
  9 44  1  0
  9 45  1  0
 13 46  1  0
 13 47  1  0
 14 48  1  0
 18 49  1  0
 19 50  1  0
 21 51  1  0
 24 52  1  0
 25 53  1  0
 27 54  1  0
 29 55  1  0
 30 56  1  0
 31 57  1  0
 32 58  1  0
 33 59  1  0
M  END
>  <smiles>  (33) 
C[C@H](NC(=O)[C@H]1CCCN1C(=O)CNC(=O)c1ccc2cc(F)ccc2c1)c1ccccc1

>  <score_type>  (33) 
oracle

>  <origin>  (33) 
autodockgpu

>  <m_score__min__energy>  (33) 
-9.5099999999999998

>  <m_primary>  (33) 
energy

>  <rmsd>  (33) 
3.441324176449924

>  <m_score__min__rmsd>  (33) 
3.441324176449924

>  <meeko>  (33) 
{"free_energy": -8.2, "intermolecular_energy": -10.28, "internal_energy": -2.62, "cluster_size": 35, "cluster_id": 1, "rank_in_cluster": 35}

>  <energy>  (33) 
-8.3

>  <cluster_rmsd>  (33) 
2.0

>  <cluster>  (33) 
1

$$$$

     RDKit          3D

 59 62  0  0  0  0  0  0  0  0999 V2000
  141.4170   77.1630  220.5100 C   0  0  0  0  0  0  0  0  0  0  0  0
  141.0230   77.2940  221.9590 C   0  0  2  0  0  0  0  0  0  0  0  0
  139.5950   77.1440  222.0630 N   0  0  0  0  0  0  0  0  0  0  0  0
  138.9700   75.9050  222.3640 C   0  0  0  0  0  0  0  0  0  0  0  0
  139.6930   74.8910  222.5470 O   0  0  0  0  0  0  0  0  0  0  0  0
  137.5030   75.7290  222.4760 C   0  0  1  0  0  0  0  0  0  0  0  0
  136.8010   77.0610  222.7090 C   0  0  0  0  0  0  0  0  0  0  0  0
  136.6750   77.6050  221.3240 C   0  0  0  0  0  0  0  0  0  0  0  0
  136.5810   76.4240  220.3840 C   0  0  0  0  0  0  0  0  0  0  0  0
  136.8790   75.2970  221.2420 N   0  0  0  0  0  0  0  0  0  0  0  0
  136.6020   73.9190  220.9350 C   0  0  0  0  0  0  0  0  0  0  0  0
  135.4190   73.4820  220.8480 O   0  0  0  0  0  0  0  0  0  0  0  0
  137.7370   72.9710  220.7120 C   0  0  0  0  0  0  0  0  0  0  0  0
  138.2750   72.6040  222.0080 N   0  0  0  0  0  0  0  0  0  0  0  0
  138.8540   71.3440  222.2230 C   0  0  0  0  0  0  0  0  0  0  0  0
  138.9380   70.4620  221.3010 O   0  0  0  0  0  0  0  0  0  0  0  0
  139.4040   70.9510  223.5220 C   0  0  0  0  0  0  0  0  0  0  0  0
  140.2400   71.8340  224.1860 C   0  0  0  0  0  0  0  0  0  0  0  0
  140.7970   71.5230  225.4270 C   0  0  0  0  0  0  0  0  0  0  0  0
  140.5080   70.3000  226.0130 C   0  0  0  0  0  0  0  0  0  0  0  0
  141.0760   70.0190  227.2490 C   0  0  0  0  0  0  0  0  0  0  0  0
  140.7980   68.8040  227.8450 C   0  0  0  0  0  0  0  0  0  0  0  0
  141.3670   68.5590  229.0490 F   0  0  0  0  0  0  0  0  0  0  0  0
  139.9650   67.8960  227.2100 C   0  0  0  0  0  0  0  0  0  0  0  0
  139.4020   68.1980  225.9670 C   0  0  0  0  0  0  0  0  0  0  0  0
  139.6790   69.4180  225.3620 C   0  0  0  0  0  0  0  0  0  0  0  0
  139.1370   69.7560  224.1220 C   0  0  0  0  0  0  0  0  0  0  0  0
  141.4920   78.6230  222.4400 C   0  0  0  0  0  0  0  0  0  0  0  0
  141.8640   78.8270  223.7730 C   0  0  0  0  0  0  0  0  0  0  0  0
  142.2980   80.0590  224.2190 C   0  0  0  0  0  0  0  0  0  0  0  0
  142.3820   81.1340  223.3690 C   0  0  0  0  0  0  0  0  0  0  0  0
  142.0180   80.9560  222.0390 C   0  0  0  0  0  0  0  0  0  0  0  0
  141.5900   79.7240  221.6150 C   0  0  0  0  0  0  0  0  0  0  0  0
  142.4589   76.8166  220.4432 H   0  0  0  0  0  0  0  0  0  0  0  0
  140.7565   76.4361  220.0147 H   0  0  0  0  0  0  0  0  0  0  0  0
  141.3232   78.1407  220.0147 H   0  0  0  0  0  0  0  0  0  0  0  0
  141.4836   76.5167  222.5864 H   0  0  0  0  0  0  0  0  0  0  0  0
  139.0090   77.9920  221.9080 H   0  0  0  0  0  0  0  0  0  0  0  0
  137.3993   74.9977  223.2911 H   0  0  0  0  0  0  0  0  0  0  0  0
  135.8131   76.9146  223.1702 H   0  0  0  0  0  0  0  0  0  0  0  0
  137.3426   77.7286  223.3953 H   0  0  0  0  0  0  0  0  0  0  0  0
  135.7688   78.2234  221.2434 H   0  0  0  0  0  0  0  0  0  0  0  0
  137.5410   78.2349  221.0727 H   0  0  0  0  0  0  0  0  0  0  0  0
  135.5710   76.3388  219.9567 H   0  0  0  0  0  0  0  0  0  0  0  0
  137.2597   76.5025  219.5219 H   0  0  0  0  0  0  0  0  0  0  0  0
  137.3761   72.0728  220.1896 H   0  0  0  0  0  0  0  0  0  0  0  0
  138.5151   73.4444  220.0952 H   0  0  0  0  0  0  0  0  0  0  0  0
  138.2120   73.3200  222.7650 H   0  0  0  0  0  0  0  0  0  0  0  0
  140.4705   72.8049  223.7231 H   0  0  0  0  0  0  0  0  0  0  0  0
  141.4583   72.2404  225.9350 H   0  0  0  0  0  0  0  0  0  0  0  0
  141.7338   70.7490  227.7433 H   0  0  0  0  0  0  0  0  0  0  0  0
  139.7453   66.9301  227.6883 H   0  0  0  0  0  0  0  0  0  0  0  0
  138.7418   67.4724  225.4692 H   0  0  0  0  0  0  0  0  0  0  0  0
  138.4758   69.0386  223.6140 H   0  0  0  0  0  0  0  0  0  0  0  0
  141.8094   77.9871  224.4813 H   0  0  0  0  0  0  0  0  0  0  0  0
  142.5818   80.1818  225.2746 H   0  0  0  0  0  0  0  0  0  0  0  0
  142.7290   82.1128  223.7317 H   0  0  0  0  0  0  0  0  0  0  0  0
  142.0729   81.7970  221.3321 H   0  0  0  0  0  0  0  0  0  0  0  0
  141.3091   79.6074  220.5579 H   0  0  0  0  0  0  0  0  0  0  0  0
  1  2  1  0
  2  3  1  0
  3  4  1  0
  4  5  2  0
  4  6  1  0
  6  7  1  0
  7  8  1  0
  8  9  1  0
  9 10  1  0
 10 11  1  0
 11 12  2  0
 11 13  1  0
 13 14  1  0
 14 15  1  0
 15 16  2  0
 15 17  1  0
 17 18  2  0
 18 19  1  0
 19 20  2  0
 20 21  1  0
 21 22  2  0
 22 23  1  0
 22 24  1  0
 24 25  2  0
 25 26  1  0
 26 27  2  0
  2 28  1  0
 28 29  2  0
 29 30  1  0
 30 31  2  0
 31 32  1  0
 32 33  2  0
 10  6  1  0
 27 17  1  0
 33 28  1  0
 26 20  1  0
  1 34  1  0
  1 35  1  0
  1 36  1  0
  2 37  1  1
  3 38  1  0
  6 39  1  1
  7 40  1  0
  7 41  1  0
  8 42  1  0
  8 43  1  0
  9 44  1  0
  9 45  1  0
 13 46  1  0
 13 47  1  0
 14 48  1  0
 18 49  1  0
 19 50  1  0
 21 51  1  0
 24 52  1  0
 25 53  1  0
 27 54  1  0
 29 55  1  0
 30 56  1  0
 31 57  1  0
 32 58  1  0
 33 59  1  0
M  END
>  <smiles>  (34) 
C[C@H](NC(=O)[C@H]1CCCN1C(=O)CNC(=O)c1ccc2cc(F)ccc2c1)c1ccccc1

>  <score_type>  (34) 
oracle

>  <origin>  (34) 
autodockgpu

>  <m_score__min__energy>  (34) 
-9.5099999999999998

>  <m_primary>  (34) 
energy

>  <rmsd>  (34) 
3.753773275613194

>  <m_score__min__rmsd>  (34) 
3.753773275613194

>  <meeko>  (34) 
{"free_energy": -8.87, "intermolecular_energy": -10.96, "internal_energy": -2.41, "cluster_size": 11, "cluster_id": 2, "rank_in_cluster": 4}

>  <energy>  (34) 
-8.25

>  <cluster_rmsd>  (34) 
1.62

>  <cluster>  (34) 
1

$$$$

     RDKit          3D

 59 62  0  0  0  0  0  0  0  0999 V2000
  141.6440   79.2880  219.4480 C   0  0  0  0  0  0  0  0  0  0  0  0
  141.7340   78.5820  220.7750 C   0  0  2  0  0  0  0  0  0  0  0  0
  140.5460   77.7900  220.9580 N   0  0  0  0  0  0  0  0  0  0  0  0
  140.2750   77.0710  222.1530 C   0  0  0  0  0  0  0  0  0  0  0  0
  141.1090   77.1260  223.0940 O   0  0  0  0  0  0  0  0  0  0  0  0
  139.0600   76.2500  222.3630 C   0  0  1  0  0  0  0  0  0  0  0  0
  137.9500   77.0610  223.0220 C   0  0  0  0  0  0  0  0  0  0  0  0
  137.3310   77.7650  221.8600 C   0  0  0  0  0  0  0  0  0  0  0  0
  137.5200   76.8820  220.6470 C   0  0  0  0  0  0  0  0  0  0  0  0
  138.4150   75.8500  221.1270 N   0  0  0  0  0  0  0  0  0  0  0  0
  138.6520   74.5860  220.4850 C   0  0  0  0  0  0  0  0  0  0  0  0
  137.8180   74.0820  219.6800 O   0  0  0  0  0  0  0  0  0  0  0  0
  139.9170   73.8400  220.7700 C   0  0  0  0  0  0  0  0  0  0  0  0
  139.7500   73.1400  222.0290 N   0  0  0  0  0  0  0  0  0  0  0  0
  140.3550   71.8940  222.2520 C   0  0  0  0  0  0  0  0  0  0  0  0
  141.0770   71.3150  221.3710 O   0  0  0  0  0  0  0  0  0  0  0  0
  140.2000   71.1680  223.5150 C   0  0  0  0  0  0  0  0  0  0  0  0
  139.5270   69.9580  223.5110 C   0  0  0  0  0  0  0  0  0  0  0  0
  139.3450   69.2170  224.6790 C   0  0  0  0  0  0  0  0  0  0  0  0
  139.8490   69.7010  225.8750 C   0  0  0  0  0  0  0  0  0  0  0  0
  139.6520   68.9400  227.0210 C   0  0  0  0  0  0  0  0  0  0  0  0
  140.1500   69.4110  228.2220 C   0  0  0  0  0  0  0  0  0  0  0  0
  139.9420   68.6470  229.3210 F   0  0  0  0  0  0  0  0  0  0  0  0
  140.8290   70.6170  228.2640 C   0  0  0  0  0  0  0  0  0  0  0  0
  141.0180   71.3680  227.1000 C   0  0  0  0  0  0  0  0  0  0  0  0
  140.5200   70.9010  225.8890 C   0  0  0  0  0  0  0  0  0  0  0  0
  140.6870   71.6210  224.7070 C   0  0  0  0  0  0  0  0  0  0  0  0
  141.8940   79.6190  221.8320 C   0  0  0  0  0  0  0  0  0  0  0  0
  141.0320   80.7180  221.9130 C   0  0  0  0  0  0  0  0  0  0  0  0
  141.1800   81.6790  222.8920 C   0  0  0  0  0  0  0  0  0  0  0  0
  142.1810   81.5930  223.8280 C   0  0  0  0  0  0  0  0  0  0  0  0
  143.0500   80.5090  223.7680 C   0  0  0  0  0  0  0  0  0  0  0  0
  142.8870   79.5650  222.7880 C   0  0  0  0  0  0  0  0  0  0  0  0
  141.5065   80.3665  219.6151 H   0  0  0  0  0  0  0  0  0  0  0  0
  142.5708   79.1202  218.8798 H   0  0  0  0  0  0  0  0  0  0  0  0
  140.7889   78.8930  218.8798 H   0  0  0  0  0  0  0  0  0  0  0  0
  142.5960   77.9004  220.8242 H   0  0  0  0  0  0  0  0  0  0  0  0
  139.8650   77.7530  220.1700 H   0  0  0  0  0  0  0  0  0  0  0  0
  139.4304   75.3987  222.9530 H   0  0  0  0  0  0  0  0  0  0  0  0
  137.2226   76.4055  223.5232 H   0  0  0  0  0  0  0  0  0  0  0  0
  138.3112   77.7427  223.8061 H   0  0  0  0  0  0  0  0  0  0  0  0
  136.2587   77.9260  222.0450 H   0  0  0  0  0  0  0  0  0  0  0  0
  137.8012   78.7471  221.7040 H   0  0  0  0  0  0  0  0  0  0  0  0
  136.5622   76.4523  220.3185 H   0  0  0  0  0  0  0  0  0  0  0  0
  137.9143   77.4245  219.7751 H   0  0  0  0  0  0  0  0  0  0  0  0
  140.1140   73.1174  219.9643 H   0  0  0  0  0  0  0  0  0  0  0  0
  140.7664   74.5364  220.8295 H   0  0  0  0  0  0  0  0  0  0  0  0
  139.1620   73.6080  222.7550 H   0  0  0  0  0  0  0  0  0  0  0  0
  139.1256   69.5711  222.5628 H   0  0  0  0  0  0  0  0  0  0  0  0
  138.8067   68.2581  224.6504 H   0  0  0  0  0  0  0  0  0  0  0  0
  139.1113   67.9832  226.9737 H   0  0  0  0  0  0  0  0  0  0  0  0
  141.2232   70.9875  229.2218 H   0  0  0  0  0  0  0  0  0  0  0  0
  141.5588   72.3249  227.1422 H   0  0  0  0  0  0  0  0  0  0  0  0
  141.2256   72.5797  224.7357 H   0  0  0  0  0  0  0  0  0  0  0  0
  140.2181   80.8182  221.1798 H   0  0  0  0  0  0  0  0  0  0  0  0
  140.4833   82.5297  222.9232 H   0  0  0  0  0  0  0  0  0  0  0  0
  142.2927   82.3625  224.6060 H   0  0  0  0  0  0  0  0  0  0  0  0
  143.8629   80.4099  224.5024 H   0  0  0  0  0  0  0  0  0  0  0  0
  143.5870   78.7169  222.7623 H   0  0  0  0  0  0  0  0  0  0  0  0
  1  2  1  0
  2  3  1  0
  3  4  1  0
  4  5  2  0
  4  6  1  0
  6  7  1  0
  7  8  1  0
  8  9  1  0
  9 10  1  0
 10 11  1  0
 11 12  2  0
 11 13  1  0
 13 14  1  0
 14 15  1  0
 15 16  2  0
 15 17  1  0
 17 18  2  0
 18 19  1  0
 19 20  2  0
 20 21  1  0
 21 22  2  0
 22 23  1  0
 22 24  1  0
 24 25  2  0
 25 26  1  0
 26 27  2  0
  2 28  1  0
 28 29  2  0
 29 30  1  0
 30 31  2  0
 31 32  1  0
 32 33  2  0
 10  6  1  0
 27 17  1  0
 33 28  1  0
 26 20  1  0
  1 34  1  0
  1 35  1  0
  1 36  1  0
  2 37  1  6
  3 38  1  0
  6 39  1  1
  7 40  1  0
  7 41  1  0
  8 42  1  0
  8 43  1  0
  9 44  1  0
  9 45  1  0
 13 46  1  0
 13 47  1  0
 14 48  1  0
 18 49  1  0
 19 50  1  0
 21 51  1  0
 24 52  1  0
 25 53  1  0
 27 54  1  0
 29 55  1  0
 30 56  1  0
 31 57  1  0
 32 58  1  0
 33 59  1  0
M  END
>  <smiles>  (35) 
C[C@H](NC(=O)[C@H]1CCCN1C(=O)CNC(=O)c1ccc2cc(F)ccc2c1)c1ccccc1

>  <score_type>  (35) 
oracle

>  <origin>  (35) 
autodockgpu

>  <m_score__min__energy>  (35) 
-9.5099999999999998

>  <m_primary>  (35) 
energy

>  <rmsd>  (35) 
3.179385648987005

>  <m_score__min__rmsd>  (35) 
3.179385648987005

>  <meeko>  (35) 
{"free_energy": -8.83, "intermolecular_energy": -10.92, "internal_energy": -1.85, "cluster_size": 35, "cluster_id": 1, "rank_in_cluster": 18}

>  <energy>  (35) 
-8.2

>  <cluster_rmsd>  (35) 
1.71

>  <cluster>  (35) 
1

$$$$

     RDKit          3D

 59 62  0  0  0  0  0  0  0  0999 V2000
  140.1560   81.0200  219.7670 C   0  0  0  0  0  0  0  0  0  0  0  0
  141.5050   80.3840  219.9830 C   0  0  2  0  0  0  0  0  0  0  0  0
  141.4640   79.0360  219.4780 N   0  0  0  0  0  0  0  0  0  0  0  0
  140.5980   78.0420  220.0060 C   0  0  0  0  0  0  0  0  0  0  0  0
  139.8310   78.3500  220.9560 O   0  0  0  0  0  0  0  0  0  0  0  0
  140.5390   76.6500  219.5030 C   0  0  1  0  0  0  0  0  0  0  0  0
  141.5480   76.4220  218.3830 C   0  0  0  0  0  0  0  0  0  0  0  0
  142.8080   76.1450  219.1350 C   0  0  0  0  0  0  0  0  0  0  0  0
  142.4150   75.5130  220.4510 C   0  0  0  0  0  0  0  0  0  0  0  0
  140.9760   75.6670  220.4750 N   0  0  0  0  0  0  0  0  0  0  0  0
  140.0750   74.9530  221.3370 C   0  0  0  0  0  0  0  0  0  0  0  0
  139.5320   75.5050  222.3370 O   0  0  0  0  0  0  0  0  0  0  0  0
  139.7630   73.5170  221.0520 C   0  0  0  0  0  0  0  0  0  0  0  0
  139.7290   72.8080  222.3170 N   0  0  0  0  0  0  0  0  0  0  0  0
  139.9860   71.4290  222.3820 C   0  0  0  0  0  0  0  0  0  0  0  0
  140.2600   70.7340  221.3460 O   0  0  0  0  0  0  0  0  0  0  0  0
  139.9580   70.6920  223.6480 C   0  0  0  0  0  0  0  0  0  0  0  0
  139.3190   69.4640  223.6890 C   0  0  0  0  0  0  0  0  0  0  0  0
  139.2560   68.7100  224.8610 C   0  0  0  0  0  0  0  0  0  0  0  0
  139.8460   69.1990  226.0160 C   0  0  0  0  0  0  0  0  0  0  0  0
  139.7680   68.4260  227.1670 C   0  0  0  0  0  0  0  0  0  0  0  0
  140.3520   68.9020  228.3250 C   0  0  0  0  0  0  0  0  0  0  0  0
  140.2580   68.1260  229.4310 F   0  0  0  0  0  0  0  0  0  0  0  0
  141.0010   70.1270  228.3210 C   0  0  0  0  0  0  0  0  0  0  0  0
  141.0700   70.8900  227.1520 C   0  0  0  0  0  0  0  0  0  0  0  0
  140.4840   70.4170  225.9840 C   0  0  0  0  0  0  0  0  0  0  0  0
  140.5310   71.1490  224.7980 C   0  0  0  0  0  0  0  0  0  0  0  0
  141.8050   80.4360  221.4400 C   0  0  0  0  0  0  0  0  0  0  0  0
  141.6010   81.6020  222.1860 C   0  0  0  0  0  0  0  0  0  0  0  0
  141.8790   81.6510  223.5370 C   0  0  0  0  0  0  0  0  0  0  0  0
  142.3690   80.5540  224.2030 C   0  0  0  0  0  0  0  0  0  0  0  0
  142.5810   79.3830  223.4820 C   0  0  0  0  0  0  0  0  0  0  0  0
  142.2980   79.3550  222.1410 C   0  0  0  0  0  0  0  0  0  0  0  0
  139.6933   81.2381  220.7408 H   0  0  0  0  0  0  0  0  0  0  0  0
  140.2780   81.9554  219.2013 H   0  0  0  0  0  0  0  0  0  0  0  0
  139.5120   80.3307  219.2013 H   0  0  0  0  0  0  0  0  0  0  0  0
  142.3049   80.9147  219.4459 H   0  0  0  0  0  0  0  0  0  0  0  0
  142.1050   78.7960  218.6930 H   0  0  0  0  0  0  0  0  0  0  0  0
  139.4844   76.5320  219.2135 H   0  0  0  0  0  0  0  0  0  0  0  0
  141.2611   75.5634  217.7581 H   0  0  0  0  0  0  0  0  0  0  0  0
  141.6299   77.2699  217.6871 H   0  0  0  0  0  0  0  0  0  0  0  0
  143.4451   75.4556  218.5615 H   0  0  0  0  0  0  0  0  0  0  0  0
  143.3745   77.0730  219.3019 H   0  0  0  0  0  0  0  0  0  0  0  0
  142.6985   74.4505  220.4786 H   0  0  0  0  0  0  0  0  0  0  0  0
  142.9127   75.9742  221.3168 H   0  0  0  0  0  0  0  0  0  0  0  0
  138.7856   73.4388  220.5535 H   0  0  0  0  0  0  0  0  0  0  0  0
  140.5271   73.0831  220.3903 H   0  0  0  0  0  0  0  0  0  0  0  0
  139.5070   73.3700  223.1680 H   0  0  0  0  0  0  0  0  0  0  0  0
  138.8493   69.0733  222.7743 H   0  0  0  0  0  0  0  0  0  0  0  0
  138.7431   67.7369  224.8685 H   0  0  0  0  0  0  0  0  0  0  0  0
  139.2518   67.4547  227.1569 H   0  0  0  0  0  0  0  0  0  0  0  0
  141.4654   70.5015  229.2452 H   0  0  0  0  0  0  0  0  0  0  0  0
  141.5863   71.8613  227.1564 H   0  0  0  0  0  0  0  0  0  0  0  0
  141.0444   72.1218  224.7899 H   0  0  0  0  0  0  0  0  0  0  0  0
  141.2103   82.4997  221.6845 H   0  0  0  0  0  0  0  0  0  0  0  0
  141.7050   82.5855  224.0905 H   0  0  0  0  0  0  0  0  0  0  0  0
  142.5884   80.6002  225.2799 H   0  0  0  0  0  0  0  0  0  0  0  0
  142.9728   78.4863  223.9844 H   0  0  0  0  0  0  0  0  0  0  0  0
  142.4740   78.4176  221.5930 H   0  0  0  0  0  0  0  0  0  0  0  0
  1  2  1  0
  2  3  1  0
  3  4  1  0
  4  5  2  0
  4  6  1  0
  6  7  1  0
  7  8  1  0
  8  9  1  0
  9 10  1  0
 10 11  1  0
 11 12  2  0
 11 13  1  0
 13 14  1  0
 14 15  1  0
 15 16  2  0
 15 17  1  0
 17 18  2  0
 18 19  1  0
 19 20  2  0
 20 21  1  0
 21 22  2  0
 22 23  1  0
 22 24  1  0
 24 25  2  0
 25 26  1  0
 26 27  2  0
  2 28  1  0
 28 29  2  0
 29 30  1  0
 30 31  2  0
 31 32  1  0
 32 33  2  0
 10  6  1  0
 27 17  1  0
 33 28  1  0
 26 20  1  0
  1 34  1  0
  1 35  1  0
  1 36  1  0
  2 37  1  6
  3 38  1  0
  6 39  1  6
  7 40  1  0
  7 41  1  0
  8 42  1  0
  8 43  1  0
  9 44  1  0
  9 45  1  0
 13 46  1  0
 13 47  1  0
 14 48  1  0
 18 49  1  0
 19 50  1  0
 21 51  1  0
 24 52  1  0
 25 53  1  0
 27 54  1  0
 29 55  1  0
 30 56  1  0
 31 57  1  0
 32 58  1  0
 33 59  1  0
M  END
>  <smiles>  (36) 
C[C@H](NC(=O)[C@H]1CCCN1C(=O)CNC(=O)c1ccc2cc(F)ccc2c1)c1ccccc1

>  <score_type>  (36) 
oracle

>  <origin>  (36) 
autodockgpu

>  <m_score__min__energy>  (36) 
-9.5099999999999998

>  <m_primary>  (36) 
energy

>  <rmsd>  (36) 
2.780915461986658

>  <m_score__min__rmsd>  (36) 
2.780915461986658

>  <meeko>  (36) 
{"free_energy": -9.04, "intermolecular_energy": -11.12, "internal_energy": -2.06, "cluster_size": 35, "cluster_id": 1, "rank_in_cluster": 7}

>  <energy>  (36) 
-9.38

>  <cluster_rmsd>  (36) 
0.0

>  <cluster>  (36) 
2

$$$$

     RDKit          3D

 59 62  0  0  0  0  0  0  0  0999 V2000
  139.4860   76.3380  222.6530 C   0  0  0  0  0  0  0  0  0  0  0  0
  140.0800   77.2740  221.6320 C   0  0  2  0  0  0  0  0  0  0  0  0
  141.0610   76.5540  220.8620 N   0  0  0  0  0  0  0  0  0  0  0  0
  140.7360   75.8330  219.6820 C   0  0  0  0  0  0  0  0  0  0  0  0
  139.5400   75.8220  219.2900 O   0  0  0  0  0  0  0  0  0  0  0  0
  141.7290   75.0870  218.8750 C   0  0  1  0  0  0  0  0  0  0  0  0
  142.6380   76.0330  218.0990 C   0  0  0  0  0  0  0  0  0  0  0  0
  143.6700   76.3950  219.1170 C   0  0  0  0  0  0  0  0  0  0  0  0
  143.7990   75.2220  220.0620 C   0  0  0  0  0  0  0  0  0  0  0  0
  142.6970   74.3650  219.6760 N   0  0  0  0  0  0  0  0  0  0  0  0
  142.5570   72.9780  220.0270 C   0  0  0  0  0  0  0  0  0  0  0  0
  143.5330   72.2980  220.4570 O   0  0  0  0  0  0  0  0  0  0  0  0
  141.2250   72.3110  219.8820 C   0  0  0  0  0  0  0  0  0  0  0  0
  140.9710   71.5530  221.0920 N   0  0  0  0  0  0  0  0  0  0  0  0
  140.5620   72.1890  222.2740 C   0  0  0  0  0  0  0  0  0  0  0  0
  140.3940   73.4540  222.3490 O   0  0  0  0  0  0  0  0  0  0  0  0
  140.3000   71.4450  223.5080 C   0  0  0  0  0  0  0  0  0  0  0  0
  139.5930   70.2560  223.4320 C   0  0  0  0  0  0  0  0  0  0  0  0
  139.3100   69.4970  224.5680 C   0  0  0  0  0  0  0  0  0  0  0  0
  139.7450   69.9420  225.8060 C   0  0  0  0  0  0  0  0  0  0  0  0
  139.4480   69.1660  226.9190 C   0  0  0  0  0  0  0  0  0  0  0  0
  139.8750   69.5970  228.1610 C   0  0  0  0  0  0  0  0  0  0  0  0
  139.5700   68.8190  229.2260 F   0  0  0  0  0  0  0  0  0  0  0  0
  140.5850   70.7820  228.2750 C   0  0  0  0  0  0  0  0  0  0  0  0
  140.8740   71.5490  227.1430 C   0  0  0  0  0  0  0  0  0  0  0  0
  140.4470   71.1210  225.8920 C   0  0  0  0  0  0  0  0  0  0  0  0
  140.7160   71.8580  224.7390 C   0  0  0  0  0  0  0  0  0  0  0  0
  140.6690   78.4300  222.3630 C   0  0  0  0  0  0  0  0  0  0  0  0
  142.0370   78.7140  222.2990 C   0  0  0  0  0  0  0  0  0  0  0  0
  142.5830   79.7860  222.9770 C   0  0  0  0  0  0  0  0  0  0  0  0
  141.8020   80.6170  223.7410 C   0  0  0  0  0  0  0  0  0  0  0  0
  140.4380   80.3550  223.8200 C   0  0  0  0  0  0  0  0  0  0  0  0
  139.9150   79.2860  223.1400 C   0  0  0  0  0  0  0  0  0  0  0  0
  139.7179   76.7035  223.6642 H   0  0  0  0  0  0  0  0  0  0  0  0
  138.3949   76.2949  222.5200 H   0  0  0  0  0  0  0  0  0  0  0  0
  139.9116   75.3324  222.5200 H   0  0  0  0  0  0  0  0  0  0  0  0
  139.3239   77.6559  220.9302 H   0  0  0  0  0  0  0  0  0  0  0  0
  142.0470   76.5730  221.2000 H   0  0  0  0  0  0  0  0  0  0  0  0
  141.1035   74.4277  218.2552 H   0  0  0  0  0  0  0  0  0  0  0  0
  143.0925   75.5277  217.2341 H   0  0  0  0  0  0  0  0  0  0  0  0
  142.1111   76.9027  217.6794 H   0  0  0  0  0  0  0  0  0  0  0  0
  144.6339   76.5889  218.6237 H   0  0  0  0  0  0  0  0  0  0  0  0
  143.3774   77.3044  219.6623 H   0  0  0  0  0  0  0  0  0  0  0  0
  144.7632   74.7102  219.9265 H   0  0  0  0  0  0  0  0  0  0  0  0
  143.7673   75.5155  221.1216 H   0  0  0  0  0  0  0  0  0  0  0  0
  140.4403   73.0696  219.7447 H   0  0  0  0  0  0  0  0  0  0  0  0
  141.2234   71.6456  219.0061 H   0  0  0  0  0  0  0  0  0  0  0  0
  141.1060   70.5190  221.0380 H   0  0  0  0  0  0  0  0  0  0  0  0
  139.2457   69.9011  222.4505 H   0  0  0  0  0  0  0  0  0  0  0  0
  138.7476   68.5556  224.4817 H   0  0  0  0  0  0  0  0  0  0  0  0
  138.8843   68.2273  226.8142 H   0  0  0  0  0  0  0  0  0  0  0  0
  140.9239   71.1216  229.2649 H   0  0  0  0  0  0  0  0  0  0  0  0
  141.4376   72.4884  227.2421 H   0  0  0  0  0  0  0  0  0  0  0  0
  141.2795   72.7988  224.8251 H   0  0  0  0  0  0  0  0  0  0  0  0
  142.6925   78.0692  221.6952 H   0  0  0  0  0  0  0  0  0  0  0  0
  143.6637   79.9775  222.9035 H   0  0  0  0  0  0  0  0  0  0  0  0
  142.2439   81.4694  224.2777 H   0  0  0  0  0  0  0  0  0  0  0  0
  139.7839   81.0011  224.4239 H   0  0  0  0  0  0  0  0  0  0  0  0
  138.8337   79.0999  223.2179 H   0  0  0  0  0  0  0  0  0  0  0  0
  1  2  1  0
  2  3  1  0
  3  4  1  0
  4  5  2  0
  4  6  1  0
  6  7  1  0
  7  8  1  0
  8  9  1  0
  9 10  1  0
 10 11  1  0
 11 12  2  0
 11 13  1  0
 13 14  1  0
 14 15  1  0
 15 16  2  0
 15 17  1  0
 17 18  2  0
 18 19  1  0
 19 20  2  0
 20 21  1  0
 21 22  2  0
 22 23  1  0
 22 24  1  0
 24 25  2  0
 25 26  1  0
 26 27  2  0
  2 28  1  0
 28 29  2  0
 29 30  1  0
 30 31  2  0
 31 32  1  0
 32 33  2  0
 10  6  1  0
 27 17  1  0
 33 28  1  0
 26 20  1  0
  1 34  1  0
  1 35  1  0
  1 36  1  0
  2 37  1  6
  3 38  1  0
  6 39  1  6
  7 40  1  0
  7 41  1  0
  8 42  1  0
  8 43  1  0
  9 44  1  0
  9 45  1  0
 13 46  1  0
 13 47  1  0
 14 48  1  0
 18 49  1  0
 19 50  1  0
 21 51  1  0
 24 52  1  0
 25 53  1  0
 27 54  1  0
 29 55  1  0
 30 56  1  0
 31 57  1  0
 32 58  1  0
 33 59  1  0
M  END
>  <smiles>  (37) 
C[C@H](NC(=O)[C@H]1CCCN1C(=O)CNC(=O)c1ccc2cc(F)ccc2c1)c1ccccc1

>  <score_type>  (37) 
oracle

>  <origin>  (37) 
autodockgpu

>  <m_score__min__energy>  (37) 
-9.5099999999999998

>  <m_primary>  (37) 
energy

>  <rmsd>  (37) 
3.4320414065164018

>  <m_score__min__rmsd>  (37) 
3.4320414065164018

>  <meeko>  (37) 
{"free_energy": -9.12, "intermolecular_energy": -11.2, "internal_energy": -2.12, "cluster_size": 35, "cluster_id": 1, "rank_in_cluster": 4}

>  <energy>  (37) 
-9.2

>  <cluster_rmsd>  (37) 
1.36

>  <cluster>  (37) 
2

$$$$

     RDKit          3D

 59 62  0  0  0  0  0  0  0  0999 V2000
  142.9800   79.8410  222.8920 C   0  0  0  0  0  0  0  0  0  0  0  0
  141.4840   79.6930  222.9900 C   0  0  2  0  0  0  0  0  0  0  0  0
  141.0840   78.5390  222.2290 N   0  0  0  0  0  0  0  0  0  0  0  0
  141.2450   78.4500  220.8210 C   0  0  0  0  0  0  0  0  0  0  0  0
  141.7620   79.4220  220.2090 O   0  0  0  0  0  0  0  0  0  0  0  0
  140.8410   77.2720  220.0180 C   0  0  1  0  0  0  0  0  0  0  0  0
  141.6260   77.1940  218.7140 C   0  0  0  0  0  0  0  0  0  0  0  0
  142.8920   76.5260  219.1390 C   0  0  0  0  0  0  0  0  0  0  0  0
  142.5580   75.6370  220.3150 C   0  0  0  0  0  0  0  0  0  0  0  0
  141.1950   76.0080  220.6330 N   0  0  0  0  0  0  0  0  0  0  0  0
  140.2900   75.2440  221.4470 C   0  0  0  0  0  0  0  0  0  0  0  0
  139.7200   75.7450  222.4580 O   0  0  0  0  0  0  0  0  0  0  0  0
  140.0090   73.8170  221.0960 C   0  0  0  0  0  0  0  0  0  0  0  0
  139.8860   73.0690  222.3330 N   0  0  0  0  0  0  0  0  0  0  0  0
  140.2610   71.7180  222.4040 C   0  0  0  0  0  0  0  0  0  0  0  0
  140.7250   71.0820  221.3970 O   0  0  0  0  0  0  0  0  0  0  0  0
  140.1460   70.9430  223.6410 C   0  0  0  0  0  0  0  0  0  0  0  0
  139.4800   69.7290  223.6080 C   0  0  0  0  0  0  0  0  0  0  0  0
  139.3350   68.9400  224.7500 C   0  0  0  0  0  0  0  0  0  0  0  0
  139.8700   69.3810  225.9500 C   0  0  0  0  0  0  0  0  0  0  0  0
  139.7100   68.5740  227.0700 C   0  0  0  0  0  0  0  0  0  0  0  0
  140.2380   69.0010  228.2740 C   0  0  0  0  0  0  0  0  0  0  0  0
  140.0660   68.1930  229.3480 F   0  0  0  0  0  0  0  0  0  0  0  0
  140.9110   70.2100  228.3450 C   0  0  0  0  0  0  0  0  0  0  0  0
  141.0620   71.0070  227.2070 C   0  0  0  0  0  0  0  0  0  0  0  0
  140.5330   70.5840  225.9930 C   0  0  0  0  0  0  0  0  0  0  0  0
  140.6630   71.3510  224.8360 C   0  0  0  0  0  0  0  0  0  0  0  0
  140.8690   80.9500  222.4820 C   0  0  0  0  0  0  0  0  0  0  0  0
  141.6490   81.9840  221.9540 C   0  0  0  0  0  0  0  0  0  0  0  0
  141.0790   83.1490  221.4830 C   0  0  0  0  0  0  0  0  0  0  0  0
  139.7190   83.3390  221.5140 C   0  0  0  0  0  0  0  0  0  0  0  0
  138.9220   82.3250  222.0340 C   0  0  0  0  0  0  0  0  0  0  0  0
  139.5080   81.1760  222.4970 C   0  0  0  0  0  0  0  0  0  0  0  0
  143.4112   79.8837  223.9030 H   0  0  0  0  0  0  0  0  0  0  0  0
  143.3990   78.9799  222.3507 H   0  0  0  0  0  0  0  0  0  0  0  0
  143.2221   80.7675  222.3507 H   0  0  0  0  0  0  0  0  0  0  0  0
  141.1494   79.5371  224.0262 H   0  0  0  0  0  0  0  0  0  0  0  0
  140.6570   77.7430  222.7500 H   0  0  0  0  0  0  0  0  0  0  0  0
  139.7555   77.4068  219.9017 H   0  0  0  0  0  0  0  0  0  0  0  0
  141.0917   76.5928  217.9636 H   0  0  0  0  0  0  0  0  0  0  0  0
  141.7848   78.1730  218.2383 H   0  0  0  0  0  0  0  0  0  0  0  0
  143.2946   75.9218  218.3127 H   0  0  0  0  0  0  0  0  0  0  0  0
  143.6513   77.2716  219.4176 H   0  0  0  0  0  0  0  0  0  0  0  0
  142.6232   74.5746  220.0375 H   0  0  0  0  0  0  0  0  0  0  0  0
  143.2486   75.7639  221.1618 H   0  0  0  0  0  0  0  0  0  0  0  0
  139.0716   73.7504  220.5243 H   0  0  0  0  0  0  0  0  0  0  0  0
  140.8226   73.4068  220.4797 H   0  0  0  0  0  0  0  0  0  0  0  0
  139.5080   73.5820  223.1600 H   0  0  0  0  0  0  0  0  0  0  0  0
  139.0541   69.3775  222.6566 H   0  0  0  0  0  0  0  0  0  0  0  0
  138.8022   67.9791  224.6982 H   0  0  0  0  0  0  0  0  0  0  0  0
  139.1745   67.6157  226.9999 H   0  0  0  0  0  0  0  0  0  0  0  0
  141.3300   70.5454  229.3052 H   0  0  0  0  0  0  0  0  0  0  0  0
  141.5975   71.9657  227.2716 H   0  0  0  0  0  0  0  0  0  0  0  0
  141.1969   72.3113  224.8880 H   0  0  0  0  0  0  0  0  0  0  0  0
  142.7419   81.8658  221.9133 H   0  0  0  0  0  0  0  0  0  0  0  0
  141.7255   83.9400  221.0753 H   0  0  0  0  0  0  0  0  0  0  0  0
  139.2713   84.2703  221.1368 H   0  0  0  0  0  0  0  0  0  0  0  0
  137.8292   82.4443  222.0734 H   0  0  0  0  0  0  0  0  0  0  0  0
  138.8561   80.3889  222.9038 H   0  0  0  0  0  0  0  0  0  0  0  0
  1  2  1  0
  2  3  1  0
  3  4  1  0
  4  5  2  0
  4  6  1  0
  6  7  1  0
  7  8  1  0
  8  9  1  0
  9 10  1  0
 10 11  1  0
 11 12  2  0
 11 13  1  0
 13 14  1  0
 14 15  1  0
 15 16  2  0
 15 17  1  0
 17 18  2  0
 18 19  1  0
 19 20  2  0
 20 21  1  0
 21 22  2  0
 22 23  1  0
 22 24  1  0
 24 25  2  0
 25 26  1  0
 26 27  2  0
  2 28  1  0
 28 29  2  0
 29 30  1  0
 30 31  2  0
 31 32  1  0
 32 33  2  0
 10  6  1  0
 27 17  1  0
 33 28  1  0
 26 20  1  0
  1 34  1  0
  1 35  1  0
  1 36  1  0
  2 37  1  1
  3 38  1  0
  6 39  1  6
  7 40  1  0
  7 41  1  0
  8 42  1  0
  8 43  1  0
  9 44  1  0
  9 45  1  0
 13 46  1  0
 13 47  1  0
 14 48  1  0
 18 49  1  0
 19 50  1  0
 21 51  1  0
 24 52  1  0
 25 53  1  0
 27 54  1  0
 29 55  1  0
 30 56  1  0
 31 57  1  0
 32 58  1  0
 33 59  1  0
M  END
>  <smiles>  (38) 
C[C@H](NC(=O)[C@H]1CCCN1C(=O)CNC(=O)c1ccc2cc(F)ccc2c1)c1ccccc1

>  <score_type>  (38) 
oracle

>  <origin>  (38) 
autodockgpu

>  <m_score__min__energy>  (38) 
-9.5099999999999998

>  <m_primary>  (38) 
energy

>  <rmsd>  (38) 
2.0847625841583364

>  <m_score__min__rmsd>  (38) 
2.0847625841583364

>  <meeko>  (38) 
{"free_energy": -8.86, "intermolecular_energy": -10.95, "internal_energy": -2.74, "cluster_size": 35, "cluster_id": 1, "rank_in_cluster": 15}

>  <energy>  (38) 
-9.1

>  <cluster_rmsd>  (38) 
1.38

>  <cluster>  (38) 
2

$$$$

     RDKit          3D

 59 62  0  0  0  0  0  0  0  0999 V2000
  137.8010   80.1440  223.8960 C   0  0  0  0  0  0  0  0  0  0  0  0
  138.6590   79.8520  222.6920 C   0  0  2  0  0  0  0  0  0  0  0  0
  138.4270   78.4930  222.2790 N   0  0  0  0  0  0  0  0  0  0  0  0
  137.6910   78.1570  221.1110 C   0  0  0  0  0  0  0  0  0  0  0  0
  137.2210   79.0870  220.4040 O   0  0  0  0  0  0  0  0  0  0  0  0
  137.4410   76.7660  220.6670 C   0  0  1  0  0  0  0  0  0  0  0  0
  136.8750   76.7280  219.2520 C   0  0  0  0  0  0  0  0  0  0  0  0
  138.1050   76.8240  218.4110 C   0  0  0  0  0  0  0  0  0  0  0  0
  139.2360   76.1980  219.1940 C   0  0  0  0  0  0  0  0  0  0  0  0
  138.6530   75.9880  220.5030 N   0  0  0  0  0  0  0  0  0  0  0  0
  139.1840   75.1260  221.5240 C   0  0  0  0  0  0  0  0  0  0  0  0
  139.3930   75.5380  222.7010 O   0  0  0  0  0  0  0  0  0  0  0  0
  139.5000   73.7010  221.1950 C   0  0  0  0  0  0  0  0  0  0  0  0
  139.5140   72.9490  222.4350 N   0  0  0  0  0  0  0  0  0  0  0  0
  139.8920   71.5970  222.4600 C   0  0  0  0  0  0  0  0  0  0  0  0
  140.2390   70.9640  221.4050 O   0  0  0  0  0  0  0  0  0  0  0  0
  139.9140   70.8180  223.7000 C   0  0  0  0  0  0  0  0  0  0  0  0
  139.3440   69.5550  223.7040 C   0  0  0  0  0  0  0  0  0  0  0  0
  139.3310   68.7610  224.8510 C   0  0  0  0  0  0  0  0  0  0  0  0
  139.9030   69.2440  226.0170 C   0  0  0  0  0  0  0  0  0  0  0  0
  139.8760   68.4300  227.1420 C   0  0  0  0  0  0  0  0  0  0  0  0
  140.4420   68.8990  228.3130 C   0  0  0  0  0  0  0  0  0  0  0  0
  140.3990   68.0820  229.3930 F   0  0  0  0  0  0  0  0  0  0  0  0
  141.0210   70.1570  228.3460 C   0  0  0  0  0  0  0  0  0  0  0  0
  141.0400   70.9610  227.2020 C   0  0  0  0  0  0  0  0  0  0  0  0
  140.4720   70.4960  226.0220 C   0  0  0  0  0  0  0  0  0  0  0  0
  140.4690   71.2680  224.8610 C   0  0  0  0  0  0  0  0  0  0  0  0
  140.0770   80.0950  223.0740 C   0  0  0  0  0  0  0  0  0  0  0  0
  140.9060   79.0540  223.5060 C   0  0  0  0  0  0  0  0  0  0  0  0
  142.2210   79.2790  223.8610 C   0  0  0  0  0  0  0  0  0  0  0  0
  142.7680   80.5370  223.8030 C   0  0  0  0  0  0  0  0  0  0  0  0
  141.9640   81.5890  223.3760 C   0  0  0  0  0  0  0  0  0  0  0  0
  140.6610   81.3450  223.0280 C   0  0  0  0  0  0  0  0  0  0  0  0
  138.3766   79.9481  224.8127 H   0  0  0  0  0  0  0  0  0  0  0  0
  137.4894   81.1988  223.8771 H   0  0  0  0  0  0  0  0  0  0  0  0
  136.9107   79.4983  223.8771 H   0  0  0  0  0  0  0  0  0  0  0  0
  138.4129   80.5029  221.8401 H   0  0  0  0  0  0  0  0  0  0  0  0
  138.8220   77.7340  222.8740 H   0  0  0  0  0  0  0  0  0  0  0  0
  136.7746   76.3691  221.4470 H   0  0  0  0  0  0  0  0  0  0  0  0
  136.3369   75.7872  219.0639 H   0  0  0  0  0  0  0  0  0  0  0  0
  136.1422   77.5233  219.0507 H   0  0  0  0  0  0  0  0  0  0  0  0
  137.9573   76.2823  217.4651 H   0  0  0  0  0  0  0  0  0  0  0  0
  138.3317   77.8734  218.1717 H   0  0  0  0  0  0  0  0  0  0  0  0
  139.5479   75.2444  218.7431 H   0  0  0  0  0  0  0  0  0  0  0  0
  140.1415   76.8220  219.2192 H   0  0  0  0  0  0  0  0  0  0  0  0
  138.7325   73.2943  220.5201 H   0  0  0  0  0  0  0  0  0  0  0  0
  140.4768   73.6313  220.6939 H   0  0  0  0  0  0  0  0  0  0  0  0
  139.2320   73.4600  223.3010 H   0  0  0  0  0  0  0  0  0  0  0  0
  138.8903   69.1687  222.7794 H   0  0  0  0  0  0  0  0  0  0  0  0
  138.8714   67.7618  224.8300 H   0  0  0  0  0  0  0  0  0  0  0  0
  139.4138   67.4326  227.1022 H   0  0  0  0  0  0  0  0  0  0  0  0
  141.4696   70.5266  229.2799 H   0  0  0  0  0  0  0  0  0  0  0  0
  141.5030   71.9582  227.2360 H   0  0  0  0  0  0  0  0  0  0  0  0
  140.9271   72.2678  224.8824 H   0  0  0  0  0  0  0  0  0  0  0  0
  140.5008   78.0330  223.5641 H   0  0  0  0  0  0  0  0  0  0  0  0
  142.8418   78.4351  224.1964 H   0  0  0  0  0  0  0  0  0  0  0  0
  143.8166   80.7089  224.0873 H   0  0  0  0  0  0  0  0  0  0  0  0
  142.3711   82.6092  223.3181 H   0  0  0  0  0  0  0  0  0  0  0  0
  140.0458   82.1932  222.6931 H   0  0  0  0  0  0  0  0  0  0  0  0
  1  2  1  0
  2  3  1  0
  3  4  1  0
  4  5  2  0
  4  6  1  0
  6  7  1  0
  7  8  1  0
  8  9  1  0
  9 10  1  0
 10 11  1  0
 11 12  2  0
 11 13  1  0
 13 14  1  0
 14 15  1  0
 15 16  2  0
 15 17  1  0
 17 18  2  0
 18 19  1  0
 19 20  2  0
 20 21  1  0
 21 22  2  0
 22 23  1  0
 22 24  1  0
 24 25  2  0
 25 26  1  0
 26 27  2  0
  2 28  1  0
 28 29  2  0
 29 30  1  0
 30 31  2  0
 31 32  1  0
 32 33  2  0
 10  6  1  0
 27 17  1  0
 33 28  1  0
 26 20  1  0
  1 34  1  0
  1 35  1  0
  1 36  1  0
  2 37  1  6
  3 38  1  0
  6 39  1  1
  7 40  1  0
  7 41  1  0
  8 42  1  0
  8 43  1  0
  9 44  1  0
  9 45  1  0
 13 46  1  0
 13 47  1  0
 14 48  1  0
 18 49  1  0
 19 50  1  0
 21 51  1  0
 24 52  1  0
 25 53  1  0
 27 54  1  0
 29 55  1  0
 30 56  1  0
 31 57  1  0
 32 58  1  0
 33 59  1  0
M  END
>  <smiles>  (39) 
C[C@H](NC(=O)[C@H]1CCCN1C(=O)CNC(=O)c1ccc2cc(F)ccc2c1)c1ccccc1

>  <score_type>  (39) 
oracle

>  <origin>  (39) 
autodockgpu

>  <m_score__min__energy>  (39) 
-9.5099999999999998

>  <m_primary>  (39) 
energy

>  <rmsd>  (39) 
3.0319237830386814

>  <m_score__min__rmsd>  (39) 
3.0319237830386814

>  <meeko>  (39) 
{"free_energy": -8.49, "intermolecular_energy": -10.58, "internal_energy": -2.72, "cluster_size": 11, "cluster_id": 2, "rank_in_cluster": 9}

>  <energy>  (39) 
-8.87

>  <cluster_rmsd>  (39) 
1.34

>  <cluster>  (39) 
2

$$$$

     RDKit          3D

 59 62  0  0  0  0  0  0  0  0999 V2000
  142.1720   79.1240  223.3090 C   0  0  0  0  0  0  0  0  0  0  0  0
  140.9440   79.2760  222.4500 C   0  0  2  0  0  0  0  0  0  0  0  0
  140.2370   78.0220  222.4300 N   0  0  0  0  0  0  0  0  0  0  0  0
  138.8590   77.9090  222.7560 C   0  0  0  0  0  0  0  0  0  0  0  0
  138.2260   78.9490  223.0760 O   0  0  0  0  0  0  0  0  0  0  0  0
  138.1120   76.6300  222.7410 C   0  0  1  0  0  0  0  0  0  0  0  0
  136.6180   76.8620  222.5400 C   0  0  0  0  0  0  0  0  0  0  0  0
  136.5100   76.9950  221.0570 C   0  0  0  0  0  0  0  0  0  0  0  0
  137.6190   76.1670  220.4490 C   0  0  0  0  0  0  0  0  0  0  0  0
  138.4200   75.7960  221.5960 N   0  0  0  0  0  0  0  0  0  0  0  0
  139.4000   74.7440  221.6250 C   0  0  0  0  0  0  0  0  0  0  0  0
  140.6280   74.9830  221.8090 O   0  0  0  0  0  0  0  0  0  0  0  0
  138.9650   73.3260  221.4340 C   0  0  0  0  0  0  0  0  0  0  0  0
  139.1000   72.6410  222.7050 N   0  0  0  0  0  0  0  0  0  0  0  0
  140.2800   71.9580  223.0400 C   0  0  0  0  0  0  0  0  0  0  0  0
  141.2860   71.9020  222.2530 O   0  0  0  0  0  0  0  0  0  0  0  0
  140.4390   71.2600  224.3170 C   0  0  0  0  0  0  0  0  0  0  0  0
  141.0370   71.9290  225.3730 C   0  0  0  0  0  0  0  0  0  0  0  0
  141.2180   71.3230  226.6160 C   0  0  0  0  0  0  0  0  0  0  0  0
  140.7920   70.0180  226.8030 C   0  0  0  0  0  0  0  0  0  0  0  0
  140.9860   69.4410  228.0520 C   0  0  0  0  0  0  0  0  0  0  0  0
  140.5650   68.1400  228.2530 C   0  0  0  0  0  0  0  0  0  0  0  0
  140.7690   67.6060  229.4810 F   0  0  0  0  0  0  0  0  0  0  0  0
  139.9630   67.4400  227.2210 C   0  0  0  0  0  0  0  0  0  0  0  0
  139.7760   68.0380  225.9710 C   0  0  0  0  0  0  0  0  0  0  0  0
  140.1970   69.3460  225.7620 C   0  0  0  0  0  0  0  0  0  0  0  0
  140.0280   69.9770  224.5300 C   0  0  0  0  0  0  0  0  0  0  0  0
  141.3870   79.7000  221.0930 C   0  0  0  0  0  0  0  0  0  0  0  0
  141.7810   78.7650  220.1290 C   0  0  0  0  0  0  0  0  0  0  0  0
  142.1920   79.1580  218.8710 C   0  0  0  0  0  0  0  0  0  0  0  0
  142.2310   80.4840  218.5160 C   0  0  0  0  0  0  0  0  0  0  0  0
  141.8440   81.4310  219.4580 C   0  0  0  0  0  0  0  0  0  0  0  0
  141.4390   81.0210  220.7010 C   0  0  0  0  0  0  0  0  0  0  0  0
  141.8840   79.1597  224.3700 H   0  0  0  0  0  0  0  0  0  0  0  0
  142.6541   78.1593  223.0921 H   0  0  0  0  0  0  0  0  0  0  0  0
  142.8747   79.9420  223.0921 H   0  0  0  0  0  0  0  0  0  0  0  0
  140.2549   80.0378  222.8434 H   0  0  0  0  0  0  0  0  0  0  0  0
  140.7740   77.1700  222.1630 H   0  0  0  0  0  0  0  0  0  0  0  0
  138.3884   76.1669  223.6997 H   0  0  0  0  0  0  0  0  0  0  0  0
  136.0299   76.0078  222.9067 H   0  0  0  0  0  0  0  0  0  0  0  0
  136.2312   77.7336  223.0884 H   0  0  0  0  0  0  0  0  0  0  0  0
  135.5325   76.6232  220.7160 H   0  0  0  0  0  0  0  0  0  0  0  0
  136.5993   78.0484  220.7531 H   0  0  0  0  0  0  0  0  0  0  0  0
  137.2156   75.2765  219.9447 H   0  0  0  0  0  0  0  0  0  0  0  0
  138.1901   76.7081  219.6802 H   0  0  0  0  0  0  0  0  0  0  0  0
  137.9158   73.2985  221.1047 H   0  0  0  0  0  0  0  0  0  0  0  0
  139.5842   72.8361  220.6681 H   0  0  0  0  0  0  0  0  0  0  0  0
  138.2830   72.6830  223.3540 H   0  0  0  0  0  0  0  0  0  0  0  0
  141.3777   72.9647  225.2271 H   0  0  0  0  0  0  0  0  0  0  0  0
  141.6941   71.8755  227.4395 H   0  0  0  0  0  0  0  0  0  0  0  0
  141.4647   70.0079  228.8640 H   0  0  0  0  0  0  0  0  0  0  0  0
  139.6291   66.4050  227.3859 H   0  0  0  0  0  0  0  0  0  0  0  0
  139.2974   67.4753  225.1559 H   0  0  0  0  0  0  0  0  0  0  0  0
  139.5501   69.4249  223.7073 H   0  0  0  0  0  0  0  0  0  0  0  0
  141.7628   77.6940  220.3791 H   0  0  0  0  0  0  0  0  0  0  0  0
  142.4940   78.3944  218.1391 H   0  0  0  0  0  0  0  0  0  0  0  0
  142.5601   80.7894  217.5118 H   0  0  0  0  0  0  0  0  0  0  0  0
  141.8629   82.5018  219.2069 H   0  0  0  0  0  0  0  0  0  0  0  0
  141.1381   81.7897  221.4280 H   0  0  0  0  0  0  0  0  0  0  0  0
  1  2  1  0
  2  3  1  0
  3  4  1  0
  4  5  2  0
  4  6  1  0
  6  7  1  0
  7  8  1  0
  8  9  1  0
  9 10  1  0
 10 11  1  0
 11 12  2  0
 11 13  1  0
 13 14  1  0
 14 15  1  0
 15 16  2  0
 15 17  1  0
 17 18  2  0
 18 19  1  0
 19 20  2  0
 20 21  1  0
 21 22  2  0
 22 23  1  0
 22 24  1  0
 24 25  2  0
 25 26  1  0
 26 27  2  0
  2 28  1  0
 28 29  2  0
 29 30  1  0
 30 31  2  0
 31 32  1  0
 32 33  2  0
 10  6  1  0
 27 17  1  0
 33 28  1  0
 26 20  1  0
  1 34  1  0
  1 35  1  0
  1 36  1  0
  2 37  1  1
  3 38  1  0
  6 39  1  1
  7 40  1  0
  7 41  1  0
  8 42  1  0
  8 43  1  0
  9 44  1  0
  9 45  1  0
 13 46  1  0
 13 47  1  0
 14 48  1  0
 18 49  1  0
 19 50  1  0
 21 51  1  0
 24 52  1  0
 25 53  1  0
 27 54  1  0
 29 55  1  0
 30 56  1  0
 31 57  1  0
 32 58  1  0
 33 59  1  0
M  END
>  <smiles>  (40) 
C[C@H](NC(=O)[C@H]1CCCN1C(=O)CNC(=O)c1ccc2cc(F)ccc2c1)c1ccccc1

>  <score_type>  (40) 
oracle

>  <origin>  (40) 
autodockgpu

>  <m_score__min__energy>  (40) 
-9.5099999999999998

>  <m_primary>  (40) 
energy

>  <rmsd>  (40) 
3.4658467090227

>  <m_score__min__rmsd>  (40) 
3.4658467090227

>  <meeko>  (40) 
{"free_energy": -8.51, "intermolecular_energy": -10.6, "internal_energy": -2.34, "cluster_size": 11, "cluster_id": 2, "rank_in_cluster": 8}

>  <energy>  (40) 
-8.77

>  <cluster_rmsd>  (40) 
1.68

>  <cluster>  (40) 
2

$$$$

     RDKit          3D

 59 62  0  0  0  0  0  0  0  0999 V2000
  141.0250   79.4700  218.9980 C   0  0  0  0  0  0  0  0  0  0  0  0
  141.8040   78.5190  219.8690 C   0  0  2  0  0  0  0  0  0  0  0  0
  141.1780   77.2230  219.8130 N   0  0  0  0  0  0  0  0  0  0  0  0
  141.8670   76.0510  219.4030 C   0  0  0  0  0  0  0  0  0  0  0  0
  143.0790   76.1460  219.0740 O   0  0  0  0  0  0  0  0  0  0  0  0
  141.2430   74.7090  219.3380 C   0  0  1  0  0  0  0  0  0  0  0  0
  142.2940   73.6060  219.3780 C   0  0  0  0  0  0  0  0  0  0  0  0
  142.5560   73.4640  220.8410 C   0  0  0  0  0  0  0  0  0  0  0  0
  141.2830   73.8420  221.5640 C   0  0  0  0  0  0  0  0  0  0  0  0
  140.4540   74.3840  220.5090 N   0  0  0  0  0  0  0  0  0  0  0  0
  139.0320   74.5850  220.5850 C   0  0  0  0  0  0  0  0  0  0  0  0
  138.5000   75.6950  220.2940 O   0  0  0  0  0  0  0  0  0  0  0  0
  138.1500   73.4570  221.0190 C   0  0  0  0  0  0  0  0  0  0  0  0
  138.6470   72.9630  222.2890 N   0  0  0  0  0  0  0  0  0  0  0  0
  139.0190   71.6190  222.4500 C   0  0  0  0  0  0  0  0  0  0  0  0
  138.9410   70.7690  221.4990 O   0  0  0  0  0  0  0  0  0  0  0  0
  139.5240   71.0980  223.7220 C   0  0  0  0  0  0  0  0  0  0  0  0
  140.4210   71.8650  224.4480 C   0  0  0  0  0  0  0  0  0  0  0  0
  140.9390   71.4280  225.6670 C   0  0  0  0  0  0  0  0  0  0  0  0
  140.5490   70.1960  226.1680 C   0  0  0  0  0  0  0  0  0  0  0  0
  141.0820   69.7880  227.3840 C   0  0  0  0  0  0  0  0  0  0  0  0
  140.7020   68.5620  227.8950 C   0  0  0  0  0  0  0  0  0  0  0  0
  141.2390   68.1920  229.0830 F   0  0  0  0  0  0  0  0  0  0  0  0
  139.8060   67.7680  227.1970 C   0  0  0  0  0  0  0  0  0  0  0  0
  139.2800   68.1960  225.9750 C   0  0  0  0  0  0  0  0  0  0  0  0
  139.6590   69.4280  225.4550 C   0  0  0  0  0  0  0  0  0  0  0  0
  139.1570   69.8900  224.2390 C   0  0  0  0  0  0  0  0  0  0  0  0
  141.8270   79.0790  221.2490 C   0  0  0  0  0  0  0  0  0  0  0  0
  141.4670   78.3050  222.3570 C   0  0  0  0  0  0  0  0  0  0  0  0
  141.4870   78.8240  223.6360 C   0  0  0  0  0  0  0  0  0  0  0  0
  141.8630   80.1240  223.8700 C   0  0  0  0  0  0  0  0  0  0  0  0
  142.2250   80.9130  222.7840 C   0  0  0  0  0  0  0  0  0  0  0  0
  142.1980   80.3790  221.5220 C   0  0  0  0  0  0  0  0  0  0  0  0
  140.4555   80.1653  219.6322 H   0  0  0  0  0  0  0  0  0  0  0  0
  141.7202   80.0387  218.3629 H   0  0  0  0  0  0  0  0  0  0  0  0
  140.3306   78.9004  218.3629 H   0  0  0  0  0  0  0  0  0  0  0  0
  142.8423   78.3999  219.5258 H   0  0  0  0  0  0  0  0  0  0  0  0
  140.1740   77.1610  220.0880 H   0  0  0  0  0  0  0  0  0  0  0  0
  140.6474   74.7533  218.4142 H   0  0  0  0  0  0  0  0  0  0  0  0
  141.9047   72.6700  218.9510 H   0  0  0  0  0  0  0  0  0  0  0  0
  143.1952   73.8368  218.7910 H   0  0  0  0  0  0  0  0  0  0  0  0
  142.8277   72.4242  221.0757 H   0  0  0  0  0  0  0  0  0  0  0  0
  143.3882   74.1123  221.1525 H   0  0  0  0  0  0  0  0  0  0  0  0
  140.8123   72.9596  222.0220 H   0  0  0  0  0  0  0  0  0  0  0  0
  141.4489   74.5495  222.3897 H   0  0  0  0  0  0  0  0  0  0  0  0
  137.1165   73.8150  221.1363 H   0  0  0  0  0  0  0  0  0  0  0  0
  138.1580   72.6543  220.2670 H   0  0  0  0  0  0  0  0  0  0  0  0
  138.7150   73.6530  223.0700 H   0  0  0  0  0  0  0  0  0  0  0  0
  140.7324   72.8432  224.0530 H   0  0  0  0  0  0  0  0  0  0  0  0
  141.6499   72.0549  226.2252 H   0  0  0  0  0  0  0  0  0  0  0  0
  141.7919   70.4277  227.9288 H   0  0  0  0  0  0  0  0  0  0  0  0
  139.5063   66.7928  227.6082 H   0  0  0  0  0  0  0  0  0  0  0  0
  138.5689   67.5604  225.4269 H   0  0  0  0  0  0  0  0  0  0  0  0
  138.4456   69.2633  223.6812 H   0  0  0  0  0  0  0  0  0  0  0  0
  141.1611   77.2593  222.2058 H   0  0  0  0  0  0  0  0  0  0  0  0
  141.1966   78.1849  224.4829 H   0  0  0  0  0  0  0  0  0  0  0  0
  141.8774   80.5311  224.8918 H   0  0  0  0  0  0  0  0  0  0  0  0
  142.5310   81.9585  222.9365 H   0  0  0  0  0  0  0  0  0  0  0  0
  142.4886   81.0236  220.6794 H   0  0  0  0  0  0  0  0  0  0  0  0
  1  2  1  0
  2  3  1  0
  3  4  1  0
  4  5  2  0
  4  6  1  0
  6  7  1  0
  7  8  1  0
  8  9  1  0
  9 10  1  0
 10 11  1  0
 11 12  2  0
 11 13  1  0
 13 14  1  0
 14 15  1  0
 15 16  2  0
 15 17  1  0
 17 18  2  0
 18 19  1  0
 19 20  2  0
 20 21  1  0
 21 22  2  0
 22 23  1  0
 22 24  1  0
 24 25  2  0
 25 26  1  0
 26 27  2  0
  2 28  1  0
 28 29  2  0
 29 30  1  0
 30 31  2  0
 31 32  1  0
 32 33  2  0
 10  6  1  0
 27 17  1  0
 33 28  1  0
 26 20  1  0
  1 34  1  0
  1 35  1  0
  1 36  1  0
  2 37  1  6
  3 38  1  0
  6 39  1  6
  7 40  1  0
  7 41  1  0
  8 42  1  0
  8 43  1  0
  9 44  1  0
  9 45  1  0
 13 46  1  0
 13 47  1  0
 14 48  1  0
 18 49  1  0
 19 50  1  0
 21 51  1  0
 24 52  1  0
 25 53  1  0
 27 54  1  0
 29 55  1  0
 30 56  1  0
 31 57  1  0
 32 58  1  0
 33 59  1  0
M  END
>  <smiles>  (41) 
C[C@H](NC(=O)[C@H]1CCCN1C(=O)CNC(=O)c1ccc2cc(F)ccc2c1)c1ccccc1

>  <score_type>  (41) 
oracle

>  <origin>  (41) 
autodockgpu

>  <m_score__min__energy>  (41) 
-9.5099999999999998

>  <m_primary>  (41) 
energy

>  <rmsd>  (41) 
3.542116625295914

>  <m_score__min__rmsd>  (41) 
3.542116625295914

>  <meeko>  (41) 
{"free_energy": -8.47, "intermolecular_energy": -10.56, "internal_energy": -2.53, "cluster_size": 35, "cluster_id": 1, "rank_in_cluster": 31}

>  <energy>  (41) 
-8.69

>  <cluster_rmsd>  (41) 
1.42

>  <cluster>  (41) 
2

$$$$

     RDKit          3D

 59 62  0  0  0  0  0  0  0  0999 V2000
  140.7460   79.5540  219.9270 C   0  0  0  0  0  0  0  0  0  0  0  0
  141.8260   78.9760  220.8040 C   0  0  2  0  0  0  0  0  0  0  0  0
  141.4540   77.6350  221.1720 N   0  0  0  0  0  0  0  0  0  0  0  0
  140.2630   77.3330  221.8850 C   0  0  0  0  0  0  0  0  0  0  0  0
  139.4970   78.2780  222.2110 O   0  0  0  0  0  0  0  0  0  0  0  0
  139.8600   75.9610  222.2720 C   0  0  1  0  0  0  0  0  0  0  0  0
  138.3960   75.9110  222.6930 C   0  0  0  0  0  0  0  0  0  0  0  0
  137.6880   75.7970  221.3830 C   0  0  0  0  0  0  0  0  0  0  0  0
  138.6180   75.0810  220.4300 C   0  0  0  0  0  0  0  0  0  0  0  0
  139.8640   75.0260  221.1650 N   0  0  0  0  0  0  0  0  0  0  0  0
  140.9760   74.1670  220.8600 C   0  0  0  0  0  0  0  0  0  0  0  0
  142.1710   74.5750  220.9280 O   0  0  0  0  0  0  0  0  0  0  0  0
  140.7230   72.7500  220.4510 C   0  0  0  0  0  0  0  0  0  0  0  0
  140.7930   71.9220  221.6400 N   0  0  0  0  0  0  0  0  0  0  0  0
  139.7420   71.8970  222.5700 C   0  0  0  0  0  0  0  0  0  0  0  0
  138.6810   72.5930  222.4230 O   0  0  0  0  0  0  0  0  0  0  0  0
  139.7910   71.0690  223.7770 C   0  0  0  0  0  0  0  0  0  0  0  0
  139.2340   69.8020  223.7400 C   0  0  0  0  0  0  0  0  0  0  0  0
  139.2470   68.9620  224.8530 C   0  0  0  0  0  0  0  0  0  0  0  0
  139.8320   69.4040  226.0290 C   0  0  0  0  0  0  0  0  0  0  0  0
  139.8310   68.5450  227.1210 C   0  0  0  0  0  0  0  0  0  0  0  0
  140.4100   68.9730  228.3010 C   0  0  0  0  0  0  0  0  0  0  0  0
  140.3930   68.1130  229.3470 F   0  0  0  0  0  0  0  0  0  0  0  0
  140.9790   70.2340  228.3750 C   0  0  0  0  0  0  0  0  0  0  0  0
  140.9710   71.0840  227.2650 C   0  0  0  0  0  0  0  0  0  0  0  0
  140.3890   70.6600  226.0760 C   0  0  0  0  0  0  0  0  0  0  0  0
  140.3610   71.4780  224.9470 C   0  0  0  0  0  0  0  0  0  0  0  0
  141.9770   79.8680  221.9870 C   0  0  0  0  0  0  0  0  0  0  0  0
  141.0010   80.8140  222.3170 C   0  0  0  0  0  0  0  0  0  0  0  0
  141.1410   81.6410  223.4140 C   0  0  0  0  0  0  0  0  0  0  0  0
  142.2460   81.5660  224.2260 C   0  0  0  0  0  0  0  0  0  0  0  0
  143.2300   80.6320  223.9180 C   0  0  0  0  0  0  0  0  0  0  0  0
  143.0720   79.8200  222.8250 C   0  0  0  0  0  0  0  0  0  0  0  0
  139.9509   79.9796  220.5568 H   0  0  0  0  0  0  0  0  0  0  0  0
  141.1731   80.3441  219.2919 H   0  0  0  0  0  0  0  0  0  0  0  0
  140.3255   78.7604  219.2919 H   0  0  0  0  0  0  0  0  0  0  0  0
  142.7945   78.9195  220.2855 H   0  0  0  0  0  0  0  0  0  0  0  0
  142.0980   76.8630  220.8950 H   0  0  0  0  0  0  0  0  0  0  0  0
  140.5816   75.6999  223.0601 H   0  0  0  0  0  0  0  0  0  0  0  0
  138.1952   75.0377  223.3309 H   0  0  0  0  0  0  0  0  0  0  0  0
  138.0805   76.7805  223.2883 H   0  0  0  0  0  0  0  0  0  0  0  0
  136.7589   75.2211  221.5061 H   0  0  0  0  0  0  0  0  0  0  0  0
  137.4237   76.7919  220.9953 H   0  0  0  0  0  0  0  0  0  0  0  0
  138.2487   74.0700  220.2029 H   0  0  0  0  0  0  0  0  0  0  0  0
  138.7121   75.5858  219.4572 H   0  0  0  0  0  0  0  0  0  0  0  0
  139.7255   72.6653  219.9951 H   0  0  0  0  0  0  0  0  0  0  0  0
  141.4720   72.4250  219.7139 H   0  0  0  0  0  0  0  0  0  0  0  0
  141.6580   71.3500  221.7660 H   0  0  0  0  0  0  0  0  0  0  0  0
  138.7689   69.4486  222.8079 H   0  0  0  0  0  0  0  0  0  0  0  0
  138.7978   67.9594  224.7981 H   0  0  0  0  0  0  0  0  0  0  0  0
  139.3788   67.5449  227.0481 H   0  0  0  0  0  0  0  0  0  0  0  0
  141.4411   70.5694  229.3152 H   0  0  0  0  0  0  0  0  0  0  0  0
  141.4235   72.0844  227.3323 H   0  0  0  0  0  0  0  0  0  0  0  0
  140.8108   72.4804  225.0013 H   0  0  0  0  0  0  0  0  0  0  0  0
  140.1022   80.9011  221.6889 H   0  0  0  0  0  0  0  0  0  0  0  0
  140.3527   82.3736  223.6417 H   0  0  0  0  0  0  0  0  0  0  0  0
  142.3505   82.2280  225.0983 H   0  0  0  0  0  0  0  0  0  0  0  0
  144.1283   80.5458  224.5470 H   0  0  0  0  0  0  0  0  0  0  0  0
  143.8632   79.0886  222.6034 H   0  0  0  0  0  0  0  0  0  0  0  0
  1  2  1  0
  2  3  1  0
  3  4  1  0
  4  5  2  0
  4  6  1  0
  6  7  1  0
  7  8  1  0
  8  9  1  0
  9 10  1  0
 10 11  1  0
 11 12  2  0
 11 13  1  0
 13 14  1  0
 14 15  1  0
 15 16  2  0
 15 17  1  0
 17 18  2  0
 18 19  1  0
 19 20  2  0
 20 21  1  0
 21 22  2  0
 22 23  1  0
 22 24  1  0
 24 25  2  0
 25 26  1  0
 26 27  2  0
  2 28  1  0
 28 29  2  0
 29 30  1  0
 30 31  2  0
 31 32  1  0
 32 33  2  0
 10  6  1  0
 27 17  1  0
 33 28  1  0
 26 20  1  0
  1 34  1  0
  1 35  1  0
  1 36  1  0
  2 37  1  6
  3 38  1  0
  6 39  1  1
  7 40  1  0
  7 41  1  0
  8 42  1  0
  8 43  1  0
  9 44  1  0
  9 45  1  0
 13 46  1  0
 13 47  1  0
 14 48  1  0
 18 49  1  0
 19 50  1  0
 21 51  1  0
 24 52  1  0
 25 53  1  0
 27 54  1  0
 29 55  1  0
 30 56  1  0
 31 57  1  0
 32 58  1  0
 33 59  1  0
M  END
>  <smiles>  (42) 
C[C@H](NC(=O)[C@H]1CCCN1C(=O)CNC(=O)c1ccc2cc(F)ccc2c1)c1ccccc1

>  <score_type>  (42) 
oracle

>  <origin>  (42) 
autodockgpu

>  <m_score__min__energy>  (42) 
-9.5099999999999998

>  <m_primary>  (42) 
energy

>  <rmsd>  (42) 
3.038758604021455

>  <m_score__min__rmsd>  (42) 
3.038758604021455

>  <meeko>  (42) 
{"free_energy": -8.81, "intermolecular_energy": -10.89, "internal_energy": -2.5, "cluster_size": 35, "cluster_id": 1, "rank_in_cluster": 19}

>  <energy>  (42) 
-8.68

>  <cluster_rmsd>  (42) 
1.43

>  <cluster>  (42) 
2

$$$$

     RDKit          3D

 59 62  0  0  0  0  0  0  0  0999 V2000
  142.2180   79.1330  222.9770 C   0  0  0  0  0  0  0  0  0  0  0  0
  141.0830   78.1450  222.8900 C   0  0  2  0  0  0  0  0  0  0  0  0
  141.1220   77.5100  221.5990 N   0  0  0  0  0  0  0  0  0  0  0  0
  140.7170   76.1640  221.3890 C   0  0  0  0  0  0  0  0  0  0  0  0
  140.3040   75.4970  222.3740 O   0  0  0  0  0  0  0  0  0  0  0  0
  140.7480   75.4910  220.0700 C   0  0  1  0  0  0  0  0  0  0  0  0
  142.1730   75.3670  219.5440 C   0  0  0  0  0  0  0  0  0  0  0  0
  142.6650   74.1380  220.2350 C   0  0  0  0  0  0  0  0  0  0  0  0
  141.4670   73.2490  220.4780 C   0  0  0  0  0  0  0  0  0  0  0  0
  140.3500   74.0990  220.1250 N   0  0  0  0  0  0  0  0  0  0  0  0
  139.0110   73.6480  219.8580 C   0  0  0  0  0  0  0  0  0  0  0  0
  138.6700   73.2110  218.7210 O   0  0  0  0  0  0  0  0  0  0  0  0
  137.9860   73.6930  220.9470 C   0  0  0  0  0  0  0  0  0  0  0  0
  138.5910   73.1620  222.1530 N   0  0  0  0  0  0  0  0  0  0  0  0
  138.6970   71.7780  222.3630 C   0  0  0  0  0  0  0  0  0  0  0  0
  138.2710   70.9220  221.5140 O   0  0  0  0  0  0  0  0  0  0  0  0
  139.3040   71.2180  223.5720 C   0  0  0  0  0  0  0  0  0  0  0  0
  140.3410   71.9080  224.1780 C   0  0  0  0  0  0  0  0  0  0  0  0
  140.9630   71.4310  225.3330 C   0  0  0  0  0  0  0  0  0  0  0  0
  140.5350   70.2370  225.8900 C   0  0  0  0  0  0  0  0  0  0  0  0
  141.1730   69.7870  227.0390 C   0  0  0  0  0  0  0  0  0  0  0  0
  140.7560   68.5970  227.6050 C   0  0  0  0  0  0  0  0  0  0  0  0
  141.3980   68.1850  228.7250 F   0  0  0  0  0  0  0  0  0  0  0  0
  139.7220   67.8800  227.0260 C   0  0  0  0  0  0  0  0  0  0  0  0
  139.0910   68.3490  225.8700 C   0  0  0  0  0  0  0  0  0  0  0  0
  139.5060   69.5450  225.2950 C   0  0  0  0  0  0  0  0  0  0  0  0
  138.9030   70.0460  224.1420 C   0  0  0  0  0  0  0  0  0  0  0  0
  139.8140   78.8890  223.1190 C   0  0  0  0  0  0  0  0  0  0  0  0
  139.8030   80.1400  223.7450 C   0  0  0  0  0  0  0  0  0  0  0  0
  138.6270   80.8300  223.9570 C   0  0  0  0  0  0  0  0  0  0  0  0
  137.4180   80.3140  223.5600 C   0  0  0  0  0  0  0  0  0  0  0  0
  137.4030   79.0710  222.9350 C   0  0  0  0  0  0  0  0  0  0  0  0
  138.5820   78.4020  222.7340 C   0  0  0  0  0  0  0  0  0  0  0  0
  142.4489   79.3340  224.0335 H   0  0  0  0  0  0  0  0  0  0  0  0
  143.1064   78.7156  222.4805 H   0  0  0  0  0  0  0  0  0  0  0  0
  141.9270   80.0704  222.4805 H   0  0  0  0  0  0  0  0  0  0  0  0
  141.1631   77.3536  223.6497 H   0  0  0  0  0  0  0  0  0  0  0  0
  141.4670   78.0750  220.7940 H   0  0  0  0  0  0  0  0  0  0  0  0
  140.0758   76.1090  219.4566 H   0  0  0  0  0  0  0  0  0  0  0  0
  142.1841   75.2405  218.4514 H   0  0  0  0  0  0  0  0  0  0  0  0
  142.7911   76.2563  219.7365 H   0  0  0  0  0  0  0  0  0  0  0  0
  143.3977   73.6174  219.6009 H   0  0  0  0  0  0  0  0  0  0  0  0
  143.1577   74.3957  221.1841 H   0  0  0  0  0  0  0  0  0  0  0  0
  141.5016   72.3559  219.8368 H   0  0  0  0  0  0  0  0  0  0  0  0
  141.4124   72.8695  221.5090 H   0  0  0  0  0  0  0  0  0  0  0  0
  137.6660   74.7318  221.1159 H   0  0  0  0  0  0  0  0  0  0  0  0
  137.1044   73.0976  220.6673 H   0  0  0  0  0  0  0  0  0  0  0  0
  138.9430   73.8550  222.8510 H   0  0  0  0  0  0  0  0  0  0  0  0
  140.6831   72.8562  223.7377 H   0  0  0  0  0  0  0  0  0  0  0  0
  141.7845   71.9973  225.7961 H   0  0  0  0  0  0  0  0  0  0  0  0
  141.9931   70.3657  227.4891 H   0  0  0  0  0  0  0  0  0  0  0  0
  139.3944   66.9331  227.4798 H   0  0  0  0  0  0  0  0  0  0  0  0
  138.2696   67.7742  225.4172 H   0  0  0  0  0  0  0  0  0  0  0  0
  138.0810   69.4801  223.6793 H   0  0  0  0  0  0  0  0  0  0  0  0
  140.7536   80.5838  224.0758 H   0  0  0  0  0  0  0  0  0  0  0  0
  138.6586   81.8113  224.4531 H   0  0  0  0  0  0  0  0  0  0  0  0
  136.4843   80.8697  223.7319 H   0  0  0  0  0  0  0  0  0  0  0  0
  136.4517   78.6285  222.6046 H   0  0  0  0  0  0  0  0  0  0  0  0
  138.5439   77.4211  222.2375 H   0  0  0  0  0  0  0  0  0  0  0  0
  1  2  1  0
  2  3  1  0
  3  4  1  0
  4  5  2  0
  4  6  1  0
  6  7  1  0
  7  8  1  0
  8  9  1  0
  9 10  1  0
 10 11  1  0
 11 12  2  0
 11 13  1  0
 13 14  1  0
 14 15  1  0
 15 16  2  0
 15 17  1  0
 17 18  2  0
 18 19  1  0
 19 20  2  0
 20 21  1  0
 21 22  2  0
 22 23  1  0
 22 24  1  0
 24 25  2  0
 25 26  1  0
 26 27  2  0
  2 28  1  0
 28 29  2  0
 29 30  1  0
 30 31  2  0
 31 32  1  0
 32 33  2  0
 10  6  1  0
 27 17  1  0
 33 28  1  0
 26 20  1  0
  1 34  1  0
  1 35  1  0
  1 36  1  0
  2 37  1  1
  3 38  1  0
  6 39  1  6
  7 40  1  0
  7 41  1  0
  8 42  1  0
  8 43  1  0
  9 44  1  0
  9 45  1  0
 13 46  1  0
 13 47  1  0
 14 48  1  0
 18 49  1  0
 19 50  1  0
 21 51  1  0
 24 52  1  0
 25 53  1  0
 27 54  1  0
 29 55  1  0
 30 56  1  0
 31 57  1  0
 32 58  1  0
 33 59  1  0
M  END
>  <smiles>  (43) 
C[C@H](NC(=O)[C@H]1CCCN1C(=O)CNC(=O)c1ccc2cc(F)ccc2c1)c1ccccc1

>  <score_type>  (43) 
oracle

>  <origin>  (43) 
autodockgpu

>  <m_score__min__energy>  (43) 
-9.5099999999999998

>  <m_primary>  (43) 
energy

>  <rmsd>  (43) 
3.023323633951075

>  <m_score__min__rmsd>  (43) 
3.023323633951075

>  <meeko>  (43) 
{"free_energy": -8.35, "intermolecular_energy": -10.44, "internal_energy": -2.64, "cluster_size": 35, "cluster_id": 1, "rank_in_cluster": 32}

>  <energy>  (43) 
-8.51

>  <cluster_rmsd>  (43) 
1.35

>  <cluster>  (43) 
2

$$$$

     RDKit          3D

 59 62  0  0  0  0  0  0  0  0999 V2000
  143.0190   79.8510  222.8200 C   0  0  0  0  0  0  0  0  0  0  0  0
  141.5270   79.7090  222.9680 C   0  0  2  0  0  0  0  0  0  0  0  0
  141.0990   78.5470  222.2330 N   0  0  0  0  0  0  0  0  0  0  0  0
  141.1810   78.4580  220.8170 C   0  0  0  0  0  0  0  0  0  0  0  0
  141.6480   79.4350  220.1760 O   0  0  0  0  0  0  0  0  0  0  0  0
  140.7470   77.2730  220.0410 C   0  0  1  0  0  0  0  0  0  0  0  0
  141.4790   77.1860  218.7070 C   0  0  0  0  0  0  0  0  0  0  0  0
  142.7630   76.5240  219.0860 C   0  0  0  0  0  0  0  0  0  0  0  0
  142.4790   75.6430  220.2810 C   0  0  0  0  0  0  0  0  0  0  0  0
  141.1290   76.0140  220.6510 N   0  0  0  0  0  0  0  0  0  0  0  0
  140.2590   75.2540  221.5060 C   0  0  0  0  0  0  0  0  0  0  0  0
  139.7530   75.7530  222.5530 O   0  0  0  0  0  0  0  0  0  0  0  0
  139.9370   73.8350  221.1580 C   0  0  0  0  0  0  0  0  0  0  0  0
  139.8750   73.0760  222.3920 N   0  0  0  0  0  0  0  0  0  0  0  0
  140.1780   71.7050  222.4170 C   0  0  0  0  0  0  0  0  0  0  0  0
  140.5210   71.0610  221.3680 O   0  0  0  0  0  0  0  0  0  0  0  0
  140.1220   70.9180  223.6500 C   0  0  0  0  0  0  0  0  0  0  0  0
  139.5310   69.6650  223.6160 C   0  0  0  0  0  0  0  0  0  0  0  0
  139.4460   68.8640  224.7540 C   0  0  0  0  0  0  0  0  0  0  0  0
  139.9630   69.3300  225.9530 C   0  0  0  0  0  0  0  0  0  0  0  0
  139.8630   68.5090  227.0690 C   0  0  0  0  0  0  0  0  0  0  0  0
  140.3750   68.9620  228.2710 C   0  0  0  0  0  0  0  0  0  0  0  0
  140.2620   68.1390  229.3410 F   0  0  0  0  0  0  0  0  0  0  0  0
  140.9730   70.2090  228.3430 C   0  0  0  0  0  0  0  0  0  0  0  0
  141.0650   71.0200  227.2080 C   0  0  0  0  0  0  0  0  0  0  0  0
  140.5520   70.5720  225.9970 C   0  0  0  0  0  0  0  0  0  0  0  0
  140.6230   71.3510  224.8430 C   0  0  0  0  0  0  0  0  0  0  0  0
  140.8980   80.9620  222.4660 C   0  0  0  0  0  0  0  0  0  0  0  0
  139.5170   81.1670  222.5430 C   0  0  0  0  0  0  0  0  0  0  0  0
  138.9340   82.3290  222.0770 C   0  0  0  0  0  0  0  0  0  0  0  0
  139.6900   83.3300  221.5190 C   0  0  0  0  0  0  0  0  0  0  0  0
  141.0660   83.1490  221.4320 C   0  0  0  0  0  0  0  0  0  0  0  0
  141.6250   81.9890  221.9000 C   0  0  0  0  0  0  0  0  0  0  0  0
  143.4837   79.8952  223.8160 H   0  0  0  0  0  0  0  0  0  0  0  0
  143.4166   78.9866  222.2679 H   0  0  0  0  0  0  0  0  0  0  0  0
  143.2464   80.7748  222.2679 H   0  0  0  0  0  0  0  0  0  0  0  0
  141.2265   79.5663  224.0165 H   0  0  0  0  0  0  0  0  0  0  0  0
  140.7140   77.7470  222.7780 H   0  0  0  0  0  0  0  0  0  0  0  0
  139.6573   77.4048  219.9683 H   0  0  0  0  0  0  0  0  0  0  0  0
  140.9163   76.5776  217.9837 H   0  0  0  0  0  0  0  0  0  0  0  0
  141.6162   78.1614  218.2174 H   0  0  0  0  0  0  0  0  0  0  0  0
  143.1338   75.9146  218.2487 H   0  0  0  0  0  0  0  0  0  0  0  0
  143.5308   77.2735  219.3285 H   0  0  0  0  0  0  0  0  0  0  0  0
  142.5352   74.5787  220.0089 H   0  0  0  0  0  0  0  0  0  0  0  0
  143.2030   75.7772  221.0982 H   0  0  0  0  0  0  0  0  0  0  0  0
  138.9671   73.7879  220.6412 H   0  0  0  0  0  0  0  0  0  0  0  0
  140.7073   73.4199  220.4914 H   0  0  0  0  0  0  0  0  0  0  0  0
  139.5960   73.5960  223.2540 H   0  0  0  0  0  0  0  0  0  0  0  0
  139.1183   69.2928  222.6667 H   0  0  0  0  0  0  0  0  0  0  0  0
  138.9734   67.8721  224.7010 H   0  0  0  0  0  0  0  0  0  0  0  0
  139.3869   67.5199  226.9981 H   0  0  0  0  0  0  0  0  0  0  0  0
  141.3791   70.5644  229.3015 H   0  0  0  0  0  0  0  0  0  0  0  0
  141.5418   72.0091  227.2735 H   0  0  0  0  0  0  0  0  0  0  0  0
  141.0962   72.3426  224.8957 H   0  0  0  0  0  0  0  0  0  0  0  0
  138.8810   80.3856  222.9844 H   0  0  0  0  0  0  0  0  0  0  0  0
  137.8440   82.4548  222.1543 H   0  0  0  0  0  0  0  0  0  0  0  0
  139.2187   84.2528  221.1497 H   0  0  0  0  0  0  0  0  0  0  0  0
  141.7010   83.9314  220.9907 H   0  0  0  0  0  0  0  0  0  0  0  0
  142.7156   81.8696  221.8199 H   0  0  0  0  0  0  0  0  0  0  0  0
  1  2  1  0
  2  3  1  0
  3  4  1  0
  4  5  2  0
  4  6  1  0
  6  7  1  0
  7  8  1  0
  8  9  1  0
  9 10  1  0
 10 11  1  0
 11 12  2  0
 11 13  1  0
 13 14  1  0
 14 15  1  0
 15 16  2  0
 15 17  1  0
 17 18  2  0
 18 19  1  0
 19 20  2  0
 20 21  1  0
 21 22  2  0
 22 23  1  0
 22 24  1  0
 24 25  2  0
 25 26  1  0
 26 27  2  0
  2 28  1  0
 28 29  2  0
 29 30  1  0
 30 31  2  0
 31 32  1  0
 32 33  2  0
 10  6  1  0
 27 17  1  0
 33 28  1  0
 26 20  1  0
  1 34  1  0
  1 35  1  0
  1 36  1  0
  2 37  1  1
  3 38  1  0
  6 39  1  6
  7 40  1  0
  7 41  1  0
  8 42  1  0
  8 43  1  0
  9 44  1  0
  9 45  1  0
 13 46  1  0
 13 47  1  0
 14 48  1  0
 18 49  1  0
 19 50  1  0
 21 51  1  0
 24 52  1  0
 25 53  1  0
 27 54  1  0
 29 55  1  0
 30 56  1  0
 31 57  1  0
 32 58  1  0
 33 59  1  0
M  END
>  <smiles>  (44) 
C[C@H](NC(=O)[C@H]1CCCN1C(=O)CNC(=O)c1ccc2cc(F)ccc2c1)c1ccccc1

>  <score_type>  (44) 
oracle

>  <origin>  (44) 
autodockgpu

>  <m_score__min__energy>  (44) 
-9.5099999999999998

>  <m_primary>  (44) 
energy

>  <rmsd>  (44) 
1.757129486332521

>  <m_score__min__rmsd>  (44) 
1.757129486332521

>  <meeko>  (44) 
{"free_energy": -8.84, "intermolecular_energy": -10.93, "internal_energy": -2.76, "cluster_size": 35, "cluster_id": 1, "rank_in_cluster": 17}

>  <energy>  (44) 
-8.49

>  <cluster_rmsd>  (44) 
1.57

>  <cluster>  (44) 
2

$$$$

     RDKit          3D

 59 62  0  0  0  0  0  0  0  0999 V2000
  141.5100   78.9930  219.5380 C   0  0  0  0  0  0  0  0  0  0  0  0
  141.8190   78.3730  220.8760 C   0  0  2  0  0  0  0  0  0  0  0  0
  140.7910   77.4140  221.1880 N   0  0  0  0  0  0  0  0  0  0  0  0
  139.4160   77.7600  221.2790 C   0  0  0  0  0  0  0  0  0  0  0  0
  139.0790   78.9560  221.0790 O   0  0  0  0  0  0  0  0  0  0  0  0
  138.3430   76.7900  221.5990 C   0  0  1  0  0  0  0  0  0  0  0  0
  137.0100   77.2210  220.9990 C   0  0  0  0  0  0  0  0  0  0  0  0
  137.1100   76.7170  219.5960 C   0  0  0  0  0  0  0  0  0  0  0  0
  137.9990   75.4940  219.6200 C   0  0  0  0  0  0  0  0  0  0  0  0
  138.5280   75.4980  220.9670 N   0  0  0  0  0  0  0  0  0  0  0  0
  139.1590   74.3830  221.6190 C   0  0  0  0  0  0  0  0  0  0  0  0
  140.2800   74.4950  222.1940 O   0  0  0  0  0  0  0  0  0  0  0  0
  138.4790   73.0500  221.6230 C   0  0  0  0  0  0  0  0  0  0  0  0
  138.9610   72.3060  222.7710 N   0  0  0  0  0  0  0  0  0  0  0  0
  138.6180   70.9580  222.9580 C   0  0  0  0  0  0  0  0  0  0  0  0
  137.8720   70.3210  222.1390 O   0  0  0  0  0  0  0  0  0  0  0  0
  139.0920   70.1870  224.1100 C   0  0  0  0  0  0  0  0  0  0  0  0
  138.8760   68.8190  224.1310 C   0  0  0  0  0  0  0  0  0  0  0  0
  139.3030   68.0250  225.1960 C   0  0  0  0  0  0  0  0  0  0  0  0
  139.9600   68.6180  226.2620 C   0  0  0  0  0  0  0  0  0  0  0  0
  140.3730   67.8030  227.3080 C   0  0  0  0  0  0  0  0  0  0  0  0
  141.0290   68.3810  228.3790 C   0  0  0  0  0  0  0  0  0  0  0  0
  141.4200   67.5600  229.3830 F   0  0  0  0  0  0  0  0  0  0  0  0
  141.2630   69.7460  228.3920 C   0  0  0  0  0  0  0  0  0  0  0  0
  140.8400   70.5510  227.3300 C   0  0  0  0  0  0  0  0  0  0  0  0
  140.1790   69.9760  226.2500 C   0  0  0  0  0  0  0  0  0  0  0  0
  139.7410   70.7440  225.1720 C   0  0  0  0  0  0  0  0  0  0  0  0
  141.8950   79.4700  221.8790 C   0  0  0  0  0  0  0  0  0  0  0  0
  142.3810   79.2450  223.1710 C   0  0  0  0  0  0  0  0  0  0  0  0
  142.4510   80.2620  224.1020 C   0  0  0  0  0  0  0  0  0  0  0  0
  142.0470   81.5380  223.7940 C   0  0  0  0  0  0  0  0  0  0  0  0
  141.5600   81.7860  222.5150 C   0  0  0  0  0  0  0  0  0  0  0  0
  141.4980   80.7630  221.6060 C   0  0  0  0  0  0  0  0  0  0  0  0
  141.0240   79.9681  219.6892 H   0  0  0  0  0  0  0  0  0  0  0  0
  142.4440   79.1324  218.9740 H   0  0  0  0  0  0  0  0  0  0  0  0
  140.8364   78.3311  218.9740 H   0  0  0  0  0  0  0  0  0  0  0  0
  142.7804   77.8384  220.8732 H   0  0  0  0  0  0  0  0  0  0  0  0
  141.0860   76.4280  221.3520 H   0  0  0  0  0  0  0  0  0  0  0  0
  138.3669   76.7410  222.6976 H   0  0  0  0  0  0  0  0  0  0  0  0
  136.1661   76.7558  221.5295 H   0  0  0  0  0  0  0  0  0  0  0  0
  136.8289   78.3040  221.0645 H   0  0  0  0  0  0  0  0  0  0  0  0
  136.1115   76.4493  219.2201 H   0  0  0  0  0  0  0  0  0  0  0  0
  137.5279   77.4893  218.9335 H   0  0  0  0  0  0  0  0  0  0  0  0
  137.4182   74.5800  219.4267 H   0  0  0  0  0  0  0  0  0  0  0  0
  138.7825   75.5142  218.8481 H   0  0  0  0  0  0  0  0  0  0  0  0
  137.3900   73.1864  221.6967 H   0  0  0  0  0  0  0  0  0  0  0  0
  138.6998   72.5049  220.6934 H   0  0  0  0  0  0  0  0  0  0  0  0
  139.5720   72.8200  223.4450 H   0  0  0  0  0  0  0  0  0  0  0  0
  138.3542   68.3461  223.2859 H   0  0  0  0  0  0  0  0  0  0  0  0
  139.1200   66.9403  225.1893 H   0  0  0  0  0  0  0  0  0  0  0  0
  140.1821   66.7199  227.2848 H   0  0  0  0  0  0  0  0  0  0  0  0
  141.7865   70.2010  229.2458 H   0  0  0  0  0  0  0  0  0  0  0  0
  141.0292   71.6344  227.3487 H   0  0  0  0  0  0  0  0  0  0  0  0
  139.9239   71.8287  225.1784 H   0  0  0  0  0  0  0  0  0  0  0  0
  142.7149   78.2352  223.4516 H   0  0  0  0  0  0  0  0  0  0  0  0
  142.8375   80.0464  225.1090 H   0  0  0  0  0  0  0  0  0  0  0  0
  142.1071   82.3438  224.5403 H   0  0  0  0  0  0  0  0  0  0  0  0
  141.2270   82.7964  222.2354 H   0  0  0  0  0  0  0  0  0  0  0  0
  141.1096   80.9850  220.6011 H   0  0  0  0  0  0  0  0  0  0  0  0
  1  2  1  0
  2  3  1  0
  3  4  1  0
  4  5  2  0
  4  6  1  0
  6  7  1  0
  7  8  1  0
  8  9  1  0
  9 10  1  0
 10 11  1  0
 11 12  2  0
 11 13  1  0
 13 14  1  0
 14 15  1  0
 15 16  2  0
 15 17  1  0
 17 18  2  0
 18 19  1  0
 19 20  2  0
 20 21  1  0
 21 22  2  0
 22 23  1  0
 22 24  1  0
 24 25  2  0
 25 26  1  0
 26 27  2  0
  2 28  1  0
 28 29  2  0
 29 30  1  0
 30 31  2  0
 31 32  1  0
 32 33  2  0
 10  6  1  0
 27 17  1  0
 33 28  1  0
 26 20  1  0
  1 34  1  0
  1 35  1  0
  1 36  1  0
  2 37  1  6
  3 38  1  0
  6 39  1  1
  7 40  1  0
  7 41  1  0
  8 42  1  0
  8 43  1  0
  9 44  1  0
  9 45  1  0
 13 46  1  0
 13 47  1  0
 14 48  1  0
 18 49  1  0
 19 50  1  0
 21 51  1  0
 24 52  1  0
 25 53  1  0
 27 54  1  0
 29 55  1  0
 30 56  1  0
 31 57  1  0
 32 58  1  0
 33 59  1  0
M  END
>  <smiles>  (45) 
C[C@H](NC(=O)[C@H]1CCCN1C(=O)CNC(=O)c1ccc2cc(F)ccc2c1)c1ccccc1

>  <score_type>  (45) 
oracle

>  <origin>  (45) 
autodockgpu

>  <m_score__min__energy>  (45) 
-9.5099999999999998

>  <m_primary>  (45) 
energy

>  <rmsd>  (45) 
2.7575754674213813

>  <m_score__min__rmsd>  (45) 
2.7575754674213813

>  <meeko>  (45) 
{"free_energy": -8.8, "intermolecular_energy": -10.89, "internal_energy": -2.74, "cluster_size": 35, "cluster_id": 1, "rank_in_cluster": 20}

>  <energy>  (45) 
-8.42

>  <cluster_rmsd>  (45) 
1.62

>  <cluster>  (45) 
2

$$$$

     RDKit          3D

 59 62  0  0  0  0  0  0  0  0999 V2000
  138.4020   79.8610  223.8690 C   0  0  0  0  0  0  0  0  0  0  0  0
  139.2150   79.7570  222.6050 C   0  0  2  0  0  0  0  0  0  0  0  0
  139.0340   78.4410  222.0480 N   0  0  0  0  0  0  0  0  0  0  0  0
  138.2780   78.2010  220.8690 C   0  0  0  0  0  0  0  0  0  0  0  0
  137.7420   79.1780  220.2850 O   0  0  0  0  0  0  0  0  0  0  0  0
  138.0800   76.8560  220.2790 C   0  0  1  0  0  0  0  0  0  0  0  0
  137.9020   76.9360  218.7670 C   0  0  0  0  0  0  0  0  0  0  0  0
  139.3120   76.9930  218.2790 C   0  0  0  0  0  0  0  0  0  0  0  0
  140.1650   76.2480  219.2800 C   0  0  0  0  0  0  0  0  0  0  0  0
  139.2510   76.0070  220.3760 N   0  0  0  0  0  0  0  0  0  0  0  0
  139.4510   75.0560  221.4360 C   0  0  0  0  0  0  0  0  0  0  0  0
  139.6050   75.4200  222.6370 O   0  0  0  0  0  0  0  0  0  0  0  0
  139.4800   73.5940  221.1190 C   0  0  0  0  0  0  0  0  0  0  0  0
  139.4980   72.8650  222.3730 N   0  0  0  0  0  0  0  0  0  0  0  0
  139.8950   71.5190  222.4240 C   0  0  0  0  0  0  0  0  0  0  0  0
  140.2560   70.8720  221.3830 O   0  0  0  0  0  0  0  0  0  0  0  0
  139.9210   70.7630  223.6780 C   0  0  0  0  0  0  0  0  0  0  0  0
  139.3560   69.4990  223.7070 C   0  0  0  0  0  0  0  0  0  0  0  0
  139.3480   68.7260  224.8680 C   0  0  0  0  0  0  0  0  0  0  0  0
  139.9190   69.2330  226.0240 C   0  0  0  0  0  0  0  0  0  0  0  0
  139.8970   68.4400  227.1640 C   0  0  0  0  0  0  0  0  0  0  0  0
  140.4620   68.9330  228.3250 C   0  0  0  0  0  0  0  0  0  0  0  0
  140.4240   68.1360  229.4200 F   0  0  0  0  0  0  0  0  0  0  0  0
  141.0380   70.1930  228.3340 C   0  0  0  0  0  0  0  0  0  0  0  0
  141.0520   70.9760  227.1760 C   0  0  0  0  0  0  0  0  0  0  0  0
  140.4840   70.4860  226.0050 C   0  0  0  0  0  0  0  0  0  0  0  0
  140.4770   71.2370  224.8300 C   0  0  0  0  0  0  0  0  0  0  0  0
  140.6350   80.0360  222.9530 C   0  0  0  0  0  0  0  0  0  0  0  0
  141.6760   79.2340  222.4720 C   0  0  0  0  0  0  0  0  0  0  0  0
  142.9930   79.4920  222.7950 C   0  0  0  0  0  0  0  0  0  0  0  0
  143.3330   80.5490  223.6030 C   0  0  0  0  0  0  0  0  0  0  0  0
  142.3160   81.3600  224.0940 C   0  0  0  0  0  0  0  0  0  0  0  0
  141.0150   81.0870  223.7620 C   0  0  0  0  0  0  0  0  0  0  0  0
  139.0672   79.7759  224.7409 H   0  0  0  0  0  0  0  0  0  0  0  0
  137.8865   80.8324  223.8945 H   0  0  0  0  0  0  0  0  0  0  0  0
  137.6586   79.0506  223.8945 H   0  0  0  0  0  0  0  0  0  0  0  0
  138.8952   80.4850  221.8449 H   0  0  0  0  0  0  0  0  0  0  0  0
  139.4840   77.6420  222.5430 H   0  0  0  0  0  0  0  0  0  0  0  0
  137.2142   76.4629  220.8321 H   0  0  0  0  0  0  0  0  0  0  0  0
  137.3829   76.0467  218.3801 H   0  0  0  0  0  0  0  0  0  0  0  0
  137.2902   77.7903  218.4418 H   0  0  0  0  0  0  0  0  0  0  0  0
  139.3878   76.5157  217.2909 H   0  0  0  0  0  0  0  0  0  0  0  0
  139.6481   78.0358  218.1809 H   0  0  0  0  0  0  0  0  0  0  0  0
  140.5333   75.3014  218.8577 H   0  0  0  0  0  0  0  0  0  0  0  0
  141.0639   76.8057  219.5816 H   0  0  0  0  0  0  0  0  0  0  0  0
  138.5858   73.3195  220.5402 H   0  0  0  0  0  0  0  0  0  0  0  0
  140.3706   73.3496  220.5214 H   0  0  0  0  0  0  0  0  0  0  0  0
  139.2050   73.3880  223.2270 H   0  0  0  0  0  0  0  0  0  0  0  0
  138.9017   69.0941  222.7907 H   0  0  0  0  0  0  0  0  0  0  0  0
  138.8932   67.7244  224.8658 H   0  0  0  0  0  0  0  0  0  0  0  0
  139.4392   67.4400  227.1433 H   0  0  0  0  0  0  0  0  0  0  0  0
  141.4880   70.5805  229.2599 H   0  0  0  0  0  0  0  0  0  0  0  0
  141.5105   71.9758  227.1910 H   0  0  0  0  0  0  0  0  0  0  0  0
  140.9320   72.2385  224.8321 H   0  0  0  0  0  0  0  0  0  0  0  0
  141.4395   78.3788  221.8219 H   0  0  0  0  0  0  0  0  0  0  0  0
  143.7844   78.8392  222.3980 H   0  0  0  0  0  0  0  0  0  0  0  0
  144.3847   80.7493  223.8557 H   0  0  0  0  0  0  0  0  0  0  0  0
  142.5541   82.2146  224.7443 H   0  0  0  0  0  0  0  0  0  0  0  0
  140.2287   81.7432  224.1633 H   0  0  0  0  0  0  0  0  0  0  0  0
  1  2  1  0
  2  3  1  0
  3  4  1  0
  4  5  2  0
  4  6  1  0
  6  7  1  0
  7  8  1  0
  8  9  1  0
  9 10  1  0
 10 11  1  0
 11 12  2  0
 11 13  1  0
 13 14  1  0
 14 15  1  0
 15 16  2  0
 15 17  1  0
 17 18  2  0
 18 19  1  0
 19 20  2  0
 20 21  1  0
 21 22  2  0
 22 23  1  0
 22 24  1  0
 24 25  2  0
 25 26  1  0
 26 27  2  0
  2 28  1  0
 28 29  2  0
 29 30  1  0
 30 31  2  0
 31 32  1  0
 32 33  2  0
 10  6  1  0
 27 17  1  0
 33 28  1  0
 26 20  1  0
  1 34  1  0
  1 35  1  0
  1 36  1  0
  2 37  1  6
  3 38  1  0
  6 39  1  1
  7 40  1  0
  7 41  1  0
  8 42  1  0
  8 43  1  0
  9 44  1  0
  9 45  1  0
 13 46  1  0
 13 47  1  0
 14 48  1  0
 18 49  1  0
 19 50  1  0
 21 51  1  0
 24 52  1  0
 25 53  1  0
 27 54  1  0
 29 55  1  0
 30 56  1  0
 31 57  1  0
 32 58  1  0
 33 59  1  0
M  END
>  <smiles>  (46) 
C[C@H](NC(=O)[C@H]1CCCN1C(=O)CNC(=O)c1ccc2cc(F)ccc2c1)c1ccccc1

>  <score_type>  (46) 
oracle

>  <origin>  (46) 
autodockgpu

>  <m_score__min__energy>  (46) 
-9.5099999999999998

>  <m_primary>  (46) 
energy

>  <rmsd>  (46) 
2.9143622950236723

>  <m_score__min__rmsd>  (46) 
2.9143622950236723

>  <meeko>  (46) 
{"free_energy": -8.65, "intermolecular_energy": -10.74, "internal_energy": -2.84, "cluster_size": 35, "cluster_id": 1, "rank_in_cluster": 25}

>  <energy>  (46) 
-8.29

>  <cluster_rmsd>  (46) 
1.69

>  <cluster>  (46) 
2

$$$$

     RDKit          3D

 59 62  0  0  0  0  0  0  0  0999 V2000
  141.5560   78.9490  219.5410 C   0  0  0  0  0  0  0  0  0  0  0  0
  141.8380   78.2760  220.8580 C   0  0  2  0  0  0  0  0  0  0  0  0
  140.7980   77.3140  221.1180 N   0  0  0  0  0  0  0  0  0  0  0  0
  139.4260   77.6700  221.2110 C   0  0  0  0  0  0  0  0  0  0  0  0
  139.1030   78.8770  221.0620 O   0  0  0  0  0  0  0  0  0  0  0  0
  138.3400   76.6980  221.4760 C   0  0  1  0  0  0  0  0  0  0  0  0
  137.0390   77.1240  220.8070 C   0  0  0  0  0  0  0  0  0  0  0  0
  137.2130   76.6180  219.4130 C   0  0  0  0  0  0  0  0  0  0  0  0
  138.1020   75.3980  219.4850 C   0  0  0  0  0  0  0  0  0  0  0  0
  138.5610   75.4060  220.8580 N   0  0  0  0  0  0  0  0  0  0  0  0
  139.1600   74.2930  221.5440 C   0  0  0  0  0  0  0  0  0  0  0  0
  140.2860   74.3890  222.1110 O   0  0  0  0  0  0  0  0  0  0  0  0
  138.4390   72.9830  221.5940 C   0  0  0  0  0  0  0  0  0  0  0  0
  138.8800   72.2750  222.7810 N   0  0  0  0  0  0  0  0  0  0  0  0
  138.7230   70.8850  222.8980 C   0  0  0  0  0  0  0  0  0  0  0  0
  138.1900   70.1770  221.9780 O   0  0  0  0  0  0  0  0  0  0  0  0
  139.1610   70.1500  224.0870 C   0  0  0  0  0  0  0  0  0  0  0  0
  138.8330   68.8090  224.1990 C   0  0  0  0  0  0  0  0  0  0  0  0
  139.2190   68.0500  225.3040 C   0  0  0  0  0  0  0  0  0  0  0  0
  139.9490   68.6510  226.3180 C   0  0  0  0  0  0  0  0  0  0  0  0
  140.3190   67.8700  227.4050 C   0  0  0  0  0  0  0  0  0  0  0  0
  141.0480   68.4560  228.4240 C   0  0  0  0  0  0  0  0  0  0  0  0
  141.3940   67.6690  229.4700 F   0  0  0  0  0  0  0  0  0  0  0  0
  141.3940   69.7950  228.3450 C   0  0  0  0  0  0  0  0  0  0  0  0
  141.0130   70.5640  227.2410 C   0  0  0  0  0  0  0  0  0  0  0  0
  140.2800   69.9810  226.2150 C   0  0  0  0  0  0  0  0  0  0  0  0
  139.8800   70.7150  225.0980 C   0  0  0  0  0  0  0  0  0  0  0  0
  141.9070   79.3330  221.9040 C   0  0  0  0  0  0  0  0  0  0  0  0
  141.6940   80.6810  221.5950 C   0  0  0  0  0  0  0  0  0  0  0  0
  141.7580   81.6610  222.5650 C   0  0  0  0  0  0  0  0  0  0  0  0
  142.0340   81.3510  223.8740 C   0  0  0  0  0  0  0  0  0  0  0  0
  142.2500   80.0180  224.2050 C   0  0  0  0  0  0  0  0  0  0  0  0
  142.1820   79.0590  223.2280 C   0  0  0  0  0  0  0  0  0  0  0  0
  141.1367   79.9496  219.7229 H   0  0  0  0  0  0  0  0  0  0  0  0
  142.4910   79.0417  218.9690 H   0  0  0  0  0  0  0  0  0  0  0  0
  140.8343   78.3475  218.9690 H   0  0  0  0  0  0  0  0  0  0  0  0
  142.7949   77.7336  220.8486 H   0  0  0  0  0  0  0  0  0  0  0  0
  141.0820   76.3190  221.2400 H   0  0  0  0  0  0  0  0  0  0  0  0
  138.3066   76.6515  222.5745 H   0  0  0  0  0  0  0  0  0  0  0  0
  136.1700   76.6573  221.2939 H   0  0  0  0  0  0  0  0  0  0  0  0
  136.8517   78.2066  220.8609 H   0  0  0  0  0  0  0  0  0  0  0  0
  136.2360   76.3471  218.9863 H   0  0  0  0  0  0  0  0  0  0  0  0
  137.6630   77.3903  218.7719 H   0  0  0  0  0  0  0  0  0  0  0  0
  137.5342   74.4822  219.2639 H   0  0  0  0  0  0  0  0  0  0  0  0
  138.9241   75.4186  218.7544 H   0  0  0  0  0  0  0  0  0  0  0  0
  137.3538   73.1556  221.6436 H   0  0  0  0  0  0  0  0  0  0  0  0
  138.6570   72.3916  220.6925 H   0  0  0  0  0  0  0  0  0  0  0  0
  139.3180   72.8480  223.5370 H   0  0  0  0  0  0  0  0  0  0  0  0
  138.2533   68.3302  223.3961 H   0  0  0  0  0  0  0  0  0  0  0  0
  138.9471   66.9862  225.3701 H   0  0  0  0  0  0  0  0  0  0  0  0
  140.0382   66.8076  227.4546 H   0  0  0  0  0  0  0  0  0  0  0  0
  141.9734   70.2573  229.1577 H   0  0  0  0  0  0  0  0  0  0  0  0
  141.2926   71.6264  227.1852 H   0  0  0  0  0  0  0  0  0  0  0  0
  140.1523   71.7787  225.0313 H   0  0  0  0  0  0  0  0  0  0  0  0
  141.4707   80.9660  220.5563 H   0  0  0  0  0  0  0  0  0  0  0  0
  141.5846   82.7103  222.2841 H   0  0  0  0  0  0  0  0  0  0  0  0
  142.0830   82.1376  224.6414 H   0  0  0  0  0  0  0  0  0  0  0  0
  142.4740   79.7349  225.2441 H   0  0  0  0  0  0  0  0  0  0  0  0
  142.3566   78.0118  223.5158 H   0  0  0  0  0  0  0  0  0  0  0  0
  1  2  1  0
  2  3  1  0
  3  4  1  0
  4  5  2  0
  4  6  1  0
  6  7  1  0
  7  8  1  0
  8  9  1  0
  9 10  1  0
 10 11  1  0
 11 12  2  0
 11 13  1  0
 13 14  1  0
 14 15  1  0
 15 16  2  0
 15 17  1  0
 17 18  2  0
 18 19  1  0
 19 20  2  0
 20 21  1  0
 21 22  2  0
 22 23  1  0
 22 24  1  0
 24 25  2  0
 25 26  1  0
 26 27  2  0
  2 28  1  0
 28 29  2  0
 29 30  1  0
 30 31  2  0
 31 32  1  0
 32 33  2  0
 10  6  1  0
 27 17  1  0
 33 28  1  0
 26 20  1  0
  1 34  1  0
  1 35  1  0
  1 36  1  0
  2 37  1  6
  3 38  1  0
  6 39  1  1
  7 40  1  0
  7 41  1  0
  8 42  1  0
  8 43  1  0
  9 44  1  0
  9 45  1  0
 13 46  1  0
 13 47  1  0
 14 48  1  0
 18 49  1  0
 19 50  1  0
 21 51  1  0
 24 52  1  0
 25 53  1  0
 27 54  1  0
 29 55  1  0
 30 56  1  0
 31 57  1  0
 32 58  1  0
 33 59  1  0
M  END
>  <smiles>  (47) 
C[C@H](NC(=O)[C@H]1CCCN1C(=O)CNC(=O)c1ccc2cc(F)ccc2c1)c1ccccc1

>  <score_type>  (47) 
oracle

>  <origin>  (47) 
autodockgpu

>  <m_score__min__energy>  (47) 
-9.5099999999999998

>  <m_primary>  (47) 
energy

>  <rmsd>  (47) 
2.868453318300022

>  <m_score__min__rmsd>  (47) 
2.868453318300022

>  <meeko>  (47) 
{"free_energy": -8.8, "intermolecular_energy": -10.89, "internal_energy": -2.65, "cluster_size": 35, "cluster_id": 1, "rank_in_cluster": 21}

>  <energy>  (47) 
-8.68

>  <cluster_rmsd>  (47) 
0.0

>  <cluster>  (47) 
3

$$$$

     RDKit          3D

 59 62  0  0  0  0  0  0  0  0999 V2000
  139.0530   76.1580  222.3940 C   0  0  0  0  0  0  0  0  0  0  0  0
  139.8870   76.8950  221.3780 C   0  0  2  0  0  0  0  0  0  0  0  0
  140.8110   75.9670  220.7790 N   0  0  0  0  0  0  0  0  0  0  0  0
  141.0890   75.9470  219.3860 C   0  0  0  0  0  0  0  0  0  0  0  0
  140.5040   76.7760  218.6410 O   0  0  0  0  0  0  0  0  0  0  0  0
  142.0350   75.0020  218.7490 C   0  0  1  0  0  0  0  0  0  0  0  0
  143.4370   75.5940  218.6630 C   0  0  0  0  0  0  0  0  0  0  0  0
  143.9920   75.3080  220.0190 C   0  0  0  0  0  0  0  0  0  0  0  0
  143.3250   74.0470  220.5200 C   0  0  0  0  0  0  0  0  0  0  0  0
  142.2830   73.8140  219.5420 N   0  0  0  0  0  0  0  0  0  0  0  0
  141.5730   72.5780  219.3580 C   0  0  0  0  0  0  0  0  0  0  0  0
  142.1460   71.5410  218.9150 O   0  0  0  0  0  0  0  0  0  0  0  0
  140.1180   72.5050  219.6980 C   0  0  0  0  0  0  0  0  0  0  0  0
  139.9790   71.7100  220.9030 N   0  0  0  0  0  0  0  0  0  0  0  0
  140.2330   72.2610  222.1690 C   0  0  0  0  0  0  0  0  0  0  0  0
  140.5960   73.4760  222.3270 O   0  0  0  0  0  0  0  0  0  0  0  0
  140.0990   71.4770  223.3990 C   0  0  0  0  0  0  0  0  0  0  0  0
  139.3900   70.2880  223.3590 C   0  0  0  0  0  0  0  0  0  0  0  0
  139.2260   69.4940  224.4940 C   0  0  0  0  0  0  0  0  0  0  0  0
  139.7840   69.9030  225.6940 C   0  0  0  0  0  0  0  0  0  0  0  0
  139.6040   69.0910  226.8070 C   0  0  0  0  0  0  0  0  0  0  0  0
  140.1560   69.4870  228.0110 C   0  0  0  0  0  0  0  0  0  0  0  0
  139.9620   68.6750  229.0780 F   0  0  0  0  0  0  0  0  0  0  0  0
  140.8720   70.6700  228.0890 C   0  0  0  0  0  0  0  0  0  0  0  0
  141.0430   71.4730  226.9580 C   0  0  0  0  0  0  0  0  0  0  0  0
  140.4910   71.0820  225.7440 C   0  0  0  0  0  0  0  0  0  0  0  0
  140.6380   71.8550  224.5930 C   0  0  0  0  0  0  0  0  0  0  0  0
  140.5790   78.0100  222.0810 C   0  0  0  0  0  0  0  0  0  0  0  0
  141.8320   78.4700  221.6640 C   0  0  0  0  0  0  0  0  0  0  0  0
  142.4740   79.5040  222.3160 C   0  0  0  0  0  0  0  0  0  0  0  0
  141.9050   80.1230  223.4010 C   0  0  0  0  0  0  0  0  0  0  0  0
  140.6590   79.6830  223.8350 C   0  0  0  0  0  0  0  0  0  0  0  0
  140.0380   78.6550  223.1740 C   0  0  0  0  0  0  0  0  0  0  0  0
  139.3740   76.4417  223.4071 H   0  0  0  0  0  0  0  0  0  0  0  0
  137.9934   76.4202  222.2582 H   0  0  0  0  0  0  0  0  0  0  0  0
  139.1828   75.0742  222.2582 H   0  0  0  0  0  0  0  0  0  0  0  0
  139.2747   77.3207  220.5693 H   0  0  0  0  0  0  0  0  0  0  0  0
  141.2870   75.2860  221.4090 H   0  0  0  0  0  0  0  0  0  0  0  0
  141.5597   74.7844  217.7811 H   0  0  0  0  0  0  0  0  0  0  0  0
  144.0296   75.1003  217.8787 H   0  0  0  0  0  0  0  0  0  0  0  0
  143.4466   76.6624  218.4015 H   0  0  0  0  0  0  0  0  0  0  0  0
  145.0801   75.1593  219.9569 H   0  0  0  0  0  0  0  0  0  0  0  0
  143.8016   76.1480  220.7032 H   0  0  0  0  0  0  0  0  0  0  0  0
  144.0361   73.2082  220.5464 H   0  0  0  0  0  0  0  0  0  0  0  0
  142.9407   74.1404  221.5464 H   0  0  0  0  0  0  0  0  0  0  0  0
  139.7238   73.5172  219.8710 H   0  0  0  0  0  0  0  0  0  0  0  0
  139.5547   72.0477  218.8712 H   0  0  0  0  0  0  0  0  0  0  0  0
  139.6820   70.7160  220.7810 H   0  0  0  0  0  0  0  0  0  0  0  0
  138.9447   69.9614  222.4076 H   0  0  0  0  0  0  0  0  0  0  0  0
  138.6594   68.5529  224.4367 H   0  0  0  0  0  0  0  0  0  0  0  0
  139.0344   68.1530  226.7317 H   0  0  0  0  0  0  0  0  0  0  0  0
  141.3098   70.9802  229.0493 H   0  0  0  0  0  0  0  0  0  0  0  0
  141.6126   72.4114  227.0285 H   0  0  0  0  0  0  0  0  0  0  0  0
  141.2047   72.7961  224.6498 H   0  0  0  0  0  0  0  0  0  0  0  0
  142.3170   77.9975  220.7971 H   0  0  0  0  0  0  0  0  0  0  0  0
  143.4596   79.8379  221.9594 H   0  0  0  0  0  0  0  0  0  0  0  0
  142.4219   80.9470  223.9147 H   0  0  0  0  0  0  0  0  0  0  0  0
  140.1754   80.1564  224.7022 H   0  0  0  0  0  0  0  0  0  0  0  0
  139.0526   78.3258  223.5355 H   0  0  0  0  0  0  0  0  0  0  0  0
  1  2  1  0
  2  3  1  0
  3  4  1  0
  4  5  2  0
  4  6  1  0
  6  7  1  0
  7  8  1  0
  8  9  1  0
  9 10  1  0
 10 11  1  0
 11 12  2  0
 11 13  1  0
 13 14  1  0
 14 15  1  0
 15 16  2  0
 15 17  1  0
 17 18  2  0
 18 19  1  0
 19 20  2  0
 20 21  1  0
 21 22  2  0
 22 23  1  0
 22 24  1  0
 24 25  2  0
 25 26  1  0
 26 27  2  0
  2 28  1  0
 28 29  2  0
 29 30  1  0
 30 31  2  0
 31 32  1  0
 32 33  2  0
 10  6  1  0
 27 17  1  0
 33 28  1  0
 26 20  1  0
  1 34  1  0
  1 35  1  0
  1 36  1  0
  2 37  1  6
  3 38  1  0
  6 39  1  6
  7 40  1  0
  7 41  1  0
  8 42  1  0
  8 43  1  0
  9 44  1  0
  9 45  1  0
 13 46  1  0
 13 47  1  0
 14 48  1  0
 18 49  1  0
 19 50  1  0
 21 51  1  0
 24 52  1  0
 25 53  1  0
 27 54  1  0
 29 55  1  0
 30 56  1  0
 31 57  1  0
 32 58  1  0
 33 59  1  0
M  END
>  <smiles>  (48) 
C[C@H](NC(=O)[C@H]1CCCN1C(=O)CNC(=O)c1ccc2cc(F)ccc2c1)c1ccccc1

>  <score_type>  (48) 
oracle

>  <origin>  (48) 
autodockgpu

>  <m_score__min__energy>  (48) 
-9.5099999999999998

>  <m_primary>  (48) 
energy

>  <rmsd>  (48) 
3.5624994681902615

>  <m_score__min__rmsd>  (48) 
3.5624994681902615

>  <meeko>  (48) 
{"free_energy": -8.47, "intermolecular_energy": -10.56, "internal_energy": -2.96, "cluster_size": 35, "cluster_id": 1, "rank_in_cluster": 30}

>  <energy>  (48) 
-8.4

>  <cluster_rmsd>  (48) 
1.49

>  <cluster>  (48) 
3

$$$$

     RDKit          3D

 59 62  0  0  0  0  0  0  0  0999 V2000
  138.0270   80.0580  223.9490 C   0  0  0  0  0  0  0  0  0  0  0  0
  138.8660   79.9460  222.7020 C   0  0  2  0  0  0  0  0  0  0  0  0
  138.6340   78.6570  222.1040 N   0  0  0  0  0  0  0  0  0  0  0  0
  138.2920   78.4930  220.7350 C   0  0  0  0  0  0  0  0  0  0  0  0
  138.1870   79.5180  220.0110 O   0  0  0  0  0  0  0  0  0  0  0  0
  138.0490   77.1780  220.0990 C   0  0  1  0  0  0  0  0  0  0  0  0
  138.0240   77.2920  218.5790 C   0  0  0  0  0  0  0  0  0  0  0  0
  139.4750   77.2460  218.2290 C   0  0  0  0  0  0  0  0  0  0  0  0
  140.1680   76.4220  219.2910 C   0  0  0  0  0  0  0  0  0  0  0  0
  139.1360   76.2380  220.2890 N   0  0  0  0  0  0  0  0  0  0  0  0
  139.1590   75.2580  221.3420 C   0  0  0  0  0  0  0  0  0  0  0  0
  138.8870   75.5620  222.5390 O   0  0  0  0  0  0  0  0  0  0  0  0
  139.5130   73.8400  221.0230 C   0  0  0  0  0  0  0  0  0  0  0  0
  139.4220   73.0700  222.2480 N   0  0  0  0  0  0  0  0  0  0  0  0
  140.1950   71.9140  222.4380 C   0  0  0  0  0  0  0  0  0  0  0  0
  141.0100   71.4820  221.5530 O   0  0  0  0  0  0  0  0  0  0  0  0
  140.1200   71.1200  223.6660 C   0  0  0  0  0  0  0  0  0  0  0  0
  139.4770   69.8940  223.6300 C   0  0  0  0  0  0  0  0  0  0  0  0
  139.3710   69.0880  224.7640 C   0  0  0  0  0  0  0  0  0  0  0  0
  139.9200   69.5230  225.9590 C   0  0  0  0  0  0  0  0  0  0  0  0
  139.7990   68.6990  227.0710 C   0  0  0  0  0  0  0  0  0  0  0  0
  140.3420   69.1210  228.2700 C   0  0  0  0  0  0  0  0  0  0  0  0
  140.2070   68.2960  229.3360 F   0  0  0  0  0  0  0  0  0  0  0  0
  140.9920   70.3420  228.3440 C   0  0  0  0  0  0  0  0  0  0  0  0
  141.1050   71.1570  227.2140 C   0  0  0  0  0  0  0  0  0  0  0  0
  140.5610   70.7390  226.0050 C   0  0  0  0  0  0  0  0  0  0  0  0
  140.6520   71.5230  224.8560 C   0  0  0  0  0  0  0  0  0  0  0  0
  140.2890   80.1430  223.0930 C   0  0  0  0  0  0  0  0  0  0  0  0
  141.1010   79.0650  223.4600 C   0  0  0  0  0  0  0  0  0  0  0  0
  142.4210   79.2460  223.8230 C   0  0  0  0  0  0  0  0  0  0  0  0
  142.9890   80.4960  223.8360 C   0  0  0  0  0  0  0  0  0  0  0  0
  142.2010   81.5850  223.4750 C   0  0  0  0  0  0  0  0  0  0  0  0
  140.8940   81.3830  223.1180 C   0  0  0  0  0  0  0  0  0  0  0  0
  138.6734   79.9717  224.8348 H   0  0  0  0  0  0  0  0  0  0  0  0
  137.5164   81.0323  223.9612 H   0  0  0  0  0  0  0  0  0  0  0  0
  137.2788   79.2518  223.9612 H   0  0  0  0  0  0  0  0  0  0  0  0
  138.6024   80.7089  221.9546 H   0  0  0  0  0  0  0  0  0  0  0  0
  138.7240   77.8180  222.7160 H   0  0  0  0  0  0  0  0  0  0  0  0
  137.1055   76.8476  220.5578 H   0  0  0  0  0  0  0  0  0  0  0  0
  137.4787   76.4509  218.1259 H   0  0  0  0  0  0  0  0  0  0  0  0
  137.5129   78.1954  218.2148 H   0  0  0  0  0  0  0  0  0  0  0  0
  139.6096   76.7785  217.2424 H   0  0  0  0  0  0  0  0  0  0  0  0
  139.8976   78.2607  218.1861 H   0  0  0  0  0  0  0  0  0  0  0  0
  140.5020   75.4556  218.8855 H   0  0  0  0  0  0  0  0  0  0  0  0
  141.0736   76.9030  219.6890 H   0  0  0  0  0  0  0  0  0  0  0  0
  138.8115   73.4388  220.2767 H   0  0  0  0  0  0  0  0  0  0  0  0
  140.5311   73.7835  220.6104 H   0  0  0  0  0  0  0  0  0  0  0  0
  138.7590   73.4180  222.9760 H   0  0  0  0  0  0  0  0  0  0  0  0
  139.0385   69.5466  222.6829 H   0  0  0  0  0  0  0  0  0  0  0  0
  138.8568   68.1171  224.7096 H   0  0  0  0  0  0  0  0  0  0  0  0
  139.2818   67.7309  226.9988 H   0  0  0  0  0  0  0  0  0  0  0  0
  141.4230   70.6731  229.3003 H   0  0  0  0  0  0  0  0  0  0  0  0
  141.6224   72.1254  227.2812 H   0  0  0  0  0  0  0  0  0  0  0  0
  141.1670   72.4935  224.9102 H   0  0  0  0  0  0  0  0  0  0  0  0
  140.6784   78.0494  223.4595 H   0  0  0  0  0  0  0  0  0  0  0  0
  143.0280   78.3736  224.1067 H   0  0  0  0  0  0  0  0  0  0  0  0
  144.0415   80.6334  224.1248 H   0  0  0  0  0  0  0  0  0  0  0  0
  142.6245   82.6002  223.4764 H   0  0  0  0  0  0  0  0  0  0  0  0
  140.2923   82.2593  222.8351 H   0  0  0  0  0  0  0  0  0  0  0  0
  1  2  1  0
  2  3  1  0
  3  4  1  0
  4  5  2  0
  4  6  1  0
  6  7  1  0
  7  8  1  0
  8  9  1  0
  9 10  1  0
 10 11  1  0
 11 12  2  0
 11 13  1  0
 13 14  1  0
 14 15  1  0
 15 16  2  0
 15 17  1  0
 17 18  2  0
 18 19  1  0
 19 20  2  0
 20 21  1  0
 21 22  2  0
 22 23  1  0
 22 24  1  0
 24 25  2  0
 25 26  1  0
 26 27  2  0
  2 28  1  0
 28 29  2  0
 29 30  1  0
 30 31  2  0
 31 32  1  0
 32 33  2  0
 10  6  1  0
 27 17  1  0
 33 28  1  0
 26 20  1  0
  1 34  1  0
  1 35  1  0
  1 36  1  0
  2 37  1  6
  3 38  1  0
  6 39  1  1
  7 40  1  0
  7 41  1  0
  8 42  1  0
  8 43  1  0
  9 44  1  0
  9 45  1  0
 13 46  1  0
 13 47  1  0
 14 48  1  0
 18 49  1  0
 19 50  1  0
 21 51  1  0
 24 52  1  0
 25 53  1  0
 27 54  1  0
 29 55  1  0
 30 56  1  0
 31 57  1  0
 32 58  1  0
 33 59  1  0
M  END
>  <smiles>  (49) 
C[C@H](NC(=O)[C@H]1CCCN1C(=O)CNC(=O)c1ccc2cc(F)ccc2c1)c1ccccc1

>  <score_type>  (49) 
oracle

>  <origin>  (49) 
autodockgpu

>  <m_score__min__energy>  (49) 
-9.5099999999999998

>  <m_primary>  (49) 
energy

>  <rmsd>  (49) 
2.917436563827466

>  <m_score__min__rmsd>  (49) 
2.917436563827466

>  <meeko>  (49) 
{"free_energy": -8.29, "intermolecular_energy": -10.37, "internal_energy": -2.78, "cluster_size": 11, "cluster_id": 2, "rank_in_cluster": 11}

>  <energy>  (49) 
-8.03

>  <cluster_rmsd>  (49) 
0.0

>  <cluster>  (49) 
4

$$$$

     RDKit          3D

 59 62  0  0  0  0  0  0  0  0999 V2000
  138.5090   79.8630  223.6530 C   0  0  0  0  0  0  0  0  0  0  0  0
  139.4330   79.8360  222.4630 C   0  0  2  0  0  0  0  0  0  0  0  0
  139.3840   78.5250  221.8710 N   0  0  0  0  0  0  0  0  0  0  0  0
  139.4770   78.3080  220.4700 C   0  0  0  0  0  0  0  0  0  0  0  0
  139.6070   79.3040  219.7110 O   0  0  0  0  0  0  0  0  0  0  0  0
  139.4290   76.9680  219.8400 C   0  0  1  0  0  0  0  0  0  0  0  0
  140.0840   76.9790  218.4630 C   0  0  0  0  0  0  0  0  0  0  0  0
  141.5320   76.8230  218.7940 C   0  0  0  0  0  0  0  0  0  0  0  0
  141.6160   76.0350  220.0810 C   0  0  0  0  0  0  0  0  0  0  0  0
  140.2400   75.9810  220.5250 N   0  0  0  0  0  0  0  0  0  0  0  0
  139.7170   75.0770  221.5130 C   0  0  0  0  0  0  0  0  0  0  0  0
  139.3840   75.4720  222.6670 O   0  0  0  0  0  0  0  0  0  0  0  0
  139.5580   73.6280  221.1760 C   0  0  0  0  0  0  0  0  0  0  0  0
  139.5540   72.8780  222.4180 N   0  0  0  0  0  0  0  0  0  0  0  0
  139.8910   71.5150  222.4440 C   0  0  0  0  0  0  0  0  0  0  0  0
  140.2130   70.8700  221.3890 O   0  0  0  0  0  0  0  0  0  0  0  0
  139.8940   70.7380  223.6850 C   0  0  0  0  0  0  0  0  0  0  0  0
  139.3170   69.4800  223.6860 C   0  0  0  0  0  0  0  0  0  0  0  0
  139.2870   68.6870  224.8340 C   0  0  0  0  0  0  0  0  0  0  0  0
  139.8490   69.1690  226.0050 C   0  0  0  0  0  0  0  0  0  0  0  0
  139.8040   68.3570  227.1320 C   0  0  0  0  0  0  0  0  0  0  0  0
  140.3600   68.8250  228.3070 C   0  0  0  0  0  0  0  0  0  0  0  0
  140.3010   68.0110  229.3880 F   0  0  0  0  0  0  0  0  0  0  0  0
  140.9470   70.0800  228.3440 C   0  0  0  0  0  0  0  0  0  0  0  0
  140.9830   70.8820  227.2000 C   0  0  0  0  0  0  0  0  0  0  0  0
  140.4250   70.4170  226.0140 C   0  0  0  0  0  0  0  0  0  0  0  0
  140.4400   71.1870  224.8520 C   0  0  0  0  0  0  0  0  0  0  0  0
  140.7980   80.1940  222.9390 C   0  0  0  0  0  0  0  0  0  0  0  0
  141.9210   79.4480  222.5640 C   0  0  0  0  0  0  0  0  0  0  0  0
  143.1860   79.7790  223.0050 C   0  0  0  0  0  0  0  0  0  0  0  0
  143.3920   80.8560  223.8310 C   0  0  0  0  0  0  0  0  0  0  0  0
  142.2910   81.6130  224.2180 C   0  0  0  0  0  0  0  0  0  0  0  0
  141.0430   81.2680  223.7690 C   0  0  0  0  0  0  0  0  0  0  0  0
  139.1028   79.8456  224.5788 H   0  0  0  0  0  0  0  0  0  0  0  0
  137.9011   80.7793  223.6245 H   0  0  0  0  0  0  0  0  0  0  0  0
  137.8486   78.9838  223.6245 H   0  0  0  0  0  0  0  0  0  0  0  0
  139.1346   80.5590  221.6896 H   0  0  0  0  0  0  0  0  0  0  0  0
  139.2760   77.7100  222.5120 H   0  0  0  0  0  0  0  0  0  0  0  0
  138.3561   76.7256  219.8455 H   0  0  0  0  0  0  0  0  0  0  0  0
  139.7249   76.1428  217.8451 H   0  0  0  0  0  0  0  0  0  0  0  0
  139.8623   77.8842  217.8786 H   0  0  0  0  0  0  0  0  0  0  0  0
  142.0466   76.2814  217.9866 H   0  0  0  0  0  0  0  0  0  0  0  0
  142.0140   77.8054  218.9065 H   0  0  0  0  0  0  0  0  0  0  0  0
  142.0122   75.0249  219.9001 H   0  0  0  0  0  0  0  0  0  0  0  0
  142.2911   76.4885  220.8216 H   0  0  0  0  0  0  0  0  0  0  0  0
  138.6095   73.4707  220.6416 H   0  0  0  0  0  0  0  0  0  0  0  0
  140.3822   73.2928  220.5292 H   0  0  0  0  0  0  0  0  0  0  0  0
  139.2930   73.4000  223.2840 H   0  0  0  0  0  0  0  0  0  0  0  0
  138.8703   69.0950  222.7574 H   0  0  0  0  0  0  0  0  0  0  0  0
  138.8223   67.6903  224.8094 H   0  0  0  0  0  0  0  0  0  0  0  0
  139.3356   67.3626  227.0894 H   0  0  0  0  0  0  0  0  0  0  0  0
  141.3884   70.4480  229.2819 H   0  0  0  0  0  0  0  0  0  0  0  0
  141.4507   71.8769  227.2375 H   0  0  0  0  0  0  0  0  0  0  0  0
  140.9047   72.1837  224.8766 H   0  0  0  0  0  0  0  0  0  0  0  0
  141.7925   78.5783  221.9029 H   0  0  0  0  0  0  0  0  0  0  0  0
  144.0449   79.1688  222.6890 H   0  0  0  0  0  0  0  0  0  0  0  0
  144.4033   81.1141  224.1784 H   0  0  0  0  0  0  0  0  0  0  0  0
  142.4211   82.4821  224.8796 H   0  0  0  0  0  0  0  0  0  0  0  0
  140.1884   81.8823  224.0886 H   0  0  0  0  0  0  0  0  0  0  0  0
  1  2  1  0
  2  3  1  0
  3  4  1  0
  4  5  2  0
  4  6  1  0
  6  7  1  0
  7  8  1  0
  8  9  1  0
  9 10  1  0
 10 11  1  0
 11 12  2  0
 11 13  1  0
 13 14  1  0
 14 15  1  0
 15 16  2  0
 15 17  1  0
 17 18  2  0
 18 19  1  0
 19 20  2  0
 20 21  1  0
 21 22  2  0
 22 23  1  0
 22 24  1  0
 24 25  2  0
 25 26  1  0
 26 27  2  0
  2 28  1  0
 28 29  2  0
 29 30  1  0
 30 31  2  0
 31 32  1  0
 32 33  2  0
 10  6  1  0
 27 17  1  0
 33 28  1  0
 26 20  1  0
  1 34  1  0
  1 35  1  0
  1 36  1  0
  2 37  1  6
  3 38  1  0
  6 39  1  6
  7 40  1  0
  7 41  1  0
  8 42  1  0
  8 43  1  0
  9 44  1  0
  9 45  1  0
 13 46  1  0
 13 47  1  0
 14 48  1  0
 18 49  1  0
 19 50  1  0
 21 51  1  0
 24 52  1  0
 25 53  1  0
 27 54  1  0
 29 55  1  0
 30 56  1  0
 31 57  1  0
 32 58  1  0
 33 59  1  0
M  END
>  <smiles>  (50) 
C[C@H](NC(=O)[C@H]1CCCN1C(=O)CNC(=O)c1ccc2cc(F)ccc2c1)c1ccccc1

>  <score_type>  (50) 
oracle

>  <origin>  (50) 
autodockgpu

>  <m_score__min__energy>  (50) 
-9.5099999999999998

>  <m_primary>  (50) 
energy

>  <rmsd>  (50) 
2.849373222150751

>  <m_score__min__rmsd>  (50) 
2.849373222150751

>  <meeko>  (50) 
{"free_energy": -8.94, "intermolecular_energy": -11.03, "internal_energy": -2.89, "cluster_size": 35, "cluster_id": 1, "rank_in_cluster": 11}

>  <energy>  (50) 
-7.47

>  <cluster_rmsd>  (50) 
1.36

>  <cluster>  (50) 
4

$$$$
